0
                    3D
 Structure written by MMmdl.
168177  0  0  1  0            999 V2000
  -30.6558  -14.4905   20.5835 C   0  0  0  0  0  0
  -30.4253  -12.3185   19.4219 C   0  0  0  0  0  0
  -29.4999  -12.5282   18.2030 C   0  0  0  0  0  0
  -28.0163  -12.3875   18.6036 C   0  0  0  0  0  0
  -27.6610  -13.2015   19.8758 C   0  0  2  0  0  0
  -28.6979  -12.9464   20.9905 C   0  0  0  0  0  0
  -25.2585  -13.8115   20.5639 C   0  0  0  0  0  0
  -24.1844  -13.0411   20.9170 C   0  0  0  0  0  0
  -24.6393  -11.6879   20.8726 C   0  0  0  0  0  0
  -23.9060  -10.4266   21.0394 C   0  0  0  0  0  0
  -24.3612   -9.4188   21.9175 C   0  0  0  0  0  0
  -23.6290   -8.2224   22.0743 C   0  0  0  0  0  0
  -22.4275   -8.0268   21.3538 C   0  0  0  0  0  0
  -21.9908   -9.0241   20.4645 C   0  0  0  0  0  0
  -22.7242  -10.2113   20.3044 C   0  0  0  0  0  0
  -21.6838   -6.0746   22.5286 C   0  0  0  0  0  0
  -21.3997   -6.5640   23.8221 C   0  0  0  0  0  0
  -21.3663   -5.6785   24.9183 C   0  0  0  0  0  0
  -21.6045   -4.3052   24.7216 C   0  0  0  0  0  0
  -21.8810   -3.8149   23.4334 C   0  0  0  0  0  0
  -21.9183   -4.6971   22.3397 C   0  0  0  0  0  0
  -22.7877  -13.5225   21.1835 C   0  0  0  0  0  0
  -22.1652   -4.2159   21.0977 F   0  0  0  0  0  0
  -21.5638   -3.4530   25.7727 F   0  0  0  0  0  0
  -30.0238  -13.2885   20.4529 N   0  0  0  0  0  0
  -26.3016  -12.9282   20.3325 N   0  0  0  0  0  0
  -25.9307  -11.6446   20.5715 N   0  0  0  0  0  0
  -22.0504  -12.8235   22.0400 N   0  0  0  0  0  0
  -25.4307  -15.1824   20.3993 N   0  0  0  0  0  0
  -31.7784  -14.6983   20.1048 O   0  0  0  0  0  0
  -21.6616   -6.8884   21.4245 O   0  0  0  0  0  0
  -22.3569  -14.5530   20.6675 O   0  0  0  0  0  0
  -24.6182  -31.8670   23.2074 C   0  0  0  0  0  0
  -25.9071  -32.4815   23.8392 C   0  0  1  0  0  0
  -27.2464  -27.4256   20.0801 C   0  0  0  0  0  0
  -25.5922  -33.8609   24.2337 N   0  0  0  0  0  0
  -23.4066  -30.4915   21.5449 C   0  0  2  0  0  0
  -24.8544  -28.9522   20.1121 C   0  0  0  0  0  0
  -22.7430  -29.4671   22.4941 C   0  0  0  0  0  0
  -18.0285  -28.1385   22.8471 C   0  0  0  0  0  0
  -24.1487  -36.7304   23.2636 C   0  0  0  0  0  0
  -25.9370  -30.8267   21.3637 C   0  0  0  0  0  0
  -26.0140  -29.4604   20.7093 C   0  0  0  0  0  0
  -27.2072  -28.7013   20.6947 C   0  0  0  0  0  0
  -26.0577  -26.9231   19.5027 C   0  0  0  0  0  0
  -24.8707  -27.6819   19.5117 C   0  0  0  0  0  0
  -23.6178  -29.8213   20.1600 C   0  0  0  0  0  0
  -25.4104  -36.3108   24.0347 C   0  0  1  0  0  0
  -20.5877  -28.3686   23.1283 C   0  0  2  0  0  0
  -20.6775  -26.9420   22.5393 C   0  0  0  0  0  0
  -19.5756  -26.6379   21.5195 C   0  0  0  0  0  0
  -18.1937  -26.7936   22.1600 C   0  0  0  0  0  0
  -19.1535  -28.8848   23.2874 C   0  0  0  0  0  0
  -18.9463  -30.1445   23.8892 C   0  0  0  0  0  0
  -17.6471  -30.6592   24.0554 C   0  0  0  0  0  0
  -25.9038  -34.9474   23.5139 C   0  0  0  0  0  0
  -16.5358  -29.9091   23.6317 C   0  0  0  0  0  0
  -16.7275  -28.6505   23.0339 C   0  0  0  0  0  0
  -26.4485  -31.6595   25.0737 C   0  0  0  0  0  0
  -25.3736  -31.3715   26.1471 C   0  0  0  0  0  0
  -27.0324  -30.3044   24.6122 C   0  0  0  0  0  0
  -27.6086  -32.4286   25.7489 C   0  0  0  0  0  0
  -27.5587  -37.1812   24.8460 C   0  0  0  0  0  0
  -21.4158  -29.3053   22.3683 N   0  0  0  0  0  0
  -26.4291  -37.3799   23.9416 N   0  0  0  0  0  0
  -24.6717  -31.0770   22.0973 N   0  0  0  0  0  0
  -23.4204  -28.8206   23.2982 O   0  0  0  0  0  0
  -28.4305  -26.7095   20.1118 O   0  0  0  0  0  0
  -26.5589  -34.8931   22.4693 O   0  0  0  0  0  0
  -23.5371  -32.1424   23.7467 O   0  0  0  0  0  0
  -27.2779  -21.0891   19.8799 C   0  0  0  0  0  0
  -29.5921  -21.5027   20.3791 C   0  0  0  0  0  0
  -28.7029  -19.1965   20.6041 C   0  0  0  0  0  0
  -27.4402  -19.7134   20.1757 C   0  0  0  0  0  0
  -29.7882  -20.1291   20.6757 C   0  0  0  0  0  0
  -28.3335  -22.0103   19.9888 C   0  0  0  0  0  0
  -29.3138  -17.3957   22.4453 C   0  0  0  0  0  0
  -29.7418  -15.9170   22.3968 C   0  0  0  0  0  0
  -29.6247  -16.7154   20.1439 C   0  0  0  0  0  0
  -28.8283  -17.6977   21.0283 C   0  0  2  0  0  0
  -26.2013  -18.8369   20.0369 C   0  0  0  0  0  0
  -32.8338  -20.0620   22.7752 C   0  0  0  0  0  0
  -31.2039  -19.7588   21.0933 C   0  0  0  0  0  0
  -28.7084  -25.6844   19.1378 C   0  0  0  0  0  0
  -29.1179  -24.3094   19.7408 C   0  0  0  0  0  0
  -29.8663  -15.5237   20.9836 N   0  0  0  0  0  0
  -28.0563  -23.3444   19.7109 O   0  0  0  0  0  0
  -31.4665  -20.1925   22.4207 O   0  0  0  0  0  0
  -31.4711  -12.4257   19.1323 H   0  0  0  0  0  0
  -30.3277  -11.2998   19.8001 H   0  0  0  0  0  0
  -29.7478  -11.8156   17.4141 H   0  0  0  0  0  0
  -29.6685  -13.5212   17.7802 H   0  0  0  0  0  0
  -27.8158  -11.3300   18.7743 H   0  0  0  0  0  0
  -27.3754  -12.6856   17.7740 H   0  0  0  0  0  0
  -27.7127  -14.2559   19.6054 H   0  0  0  0  0  0
  -28.6800  -11.8951   21.2843 H   0  0  0  0  0  0
  -28.4445  -13.4965   21.8928 H   0  0  0  0  0  0
  -25.2744   -9.5671   22.4763 H   0  0  0  0  0  0
  -24.0003   -7.4605   22.7460 H   0  0  0  0  0  0
  -21.0840   -8.8766   19.8961 H   0  0  0  0  0  0
  -22.3707  -10.9646   19.6154 H   0  0  0  0  0  0
  -21.1967   -7.6145   23.9738 H   0  0  0  0  0  0
  -21.1507   -6.0506   25.9094 H   0  0  0  0  0  0
  -22.0584   -2.7614   23.2811 H   0  0  0  0  0  0
  -22.4085  -11.9875   22.4770 H   0  0  0  0  0  0
  -21.1129  -13.1303   22.2593 H   0  0  0  0  0  0
  -24.6560  -15.8302   20.4747 H   0  0  0  0  0  0
  -26.2774  -15.6067   20.0448 H   0  0  0  0  0  0
  -26.7140  -32.5521   23.1154 H   0  0  0  0  0  0
  -25.0125  -33.9755   25.0518 H   0  0  0  0  0  0
  -22.6976  -31.3100   21.4017 H   0  0  0  0  0  0
  -23.3766  -35.9616   23.3281 H   0  0  0  0  0  0
  -24.3591  -36.8933   22.2056 H   0  0  0  0  0  0
  -23.7213  -37.6495   23.6649 H   0  0  0  0  0  0
  -26.0552  -31.5934   20.5968 H   0  0  0  0  0  0
  -26.8223  -30.8781   21.9866 H   0  0  0  0  0  0
  -28.1038  -29.0944   21.1547 H   0  0  0  0  0  0
  -26.0176  -25.9365   19.0662 H   0  0  0  0  0  0
  -23.9748  -27.2786   19.0605 H   0  0  0  0  0  0
  -23.7325  -30.5945   19.3990 H   0  0  0  0  0  0
  -22.7417  -29.2439   19.8597 H   0  0  0  0  0  0
  -25.1279  -36.1975   25.0841 H   0  0  0  0  0  0
  -20.9974  -28.3252   24.1406 H   0  0  0  0  0  0
  -20.5663  -26.2311   23.3586 H   0  0  0  0  0  0
  -21.6642  -26.7452   22.1197 H   0  0  0  0  0  0
  -19.6919  -25.6277   21.1252 H   0  0  0  0  0  0
  -19.6709  -27.3160   20.6706 H   0  0  0  0  0  0
  -17.4217  -26.6685   21.3996 H   0  0  0  0  0  0
  -18.0337  -26.0068   22.8985 H   0  0  0  0  0  0
  -19.7947  -30.7243   24.2272 H   0  0  0  0  0  0
  -17.5038  -31.6280   24.5138 H   0  0  0  0  0  0
  -15.5356  -30.2996   23.7638 H   0  0  0  0  0  0
  -15.8677  -28.0816   22.7063 H   0  0  0  0  0  0
  -24.5898  -30.7082   25.7791 H   0  0  0  0  0  0
  -24.8933  -32.2877   26.4924 H   0  0  0  0  0  0
  -25.8070  -30.8862   27.0231 H   0  0  0  0  0  0
  -26.2891  -29.6794   24.1167 H   0  0  0  0  0  0
  -27.4091  -29.7289   25.4590 H   0  0  0  0  0  0
  -27.8720  -30.4361   23.9296 H   0  0  0  0  0  0
  -27.2760  -33.3587   26.2103 H   0  0  0  0  0  0
  -28.3896  -32.6831   25.0314 H   0  0  0  0  0  0
  -28.0759  -31.8373   26.5376 H   0  0  0  0  0  0
  -28.2598  -38.0119   24.7532 H   0  0  0  0  0  0
  -28.1095  -36.2661   24.6248 H   0  0  0  0  0  0
  -27.2320  -37.1413   25.8866 H   0  0  0  0  0  0
  -20.9333  -29.8782   21.6895 H   0  0  0  0  0  0
  -26.0189  -38.2879   24.1412 H   0  0  0  0  0  0
  -26.3099  -21.4596   19.5710 H   0  0  0  0  0  0
  -30.4410  -22.1633   20.4785 H   0  0  0  0  0  0
  -30.1663  -18.0059   22.7312 H   0  0  0  0  0  0
  -28.5374  -17.5792   23.1897 H   0  0  0  0  0  0
  -28.9913  -15.3067   22.8965 H   0  0  0  0  0  0
  -30.6820  -15.7733   22.9324 H   0  0  0  0  0  0
  -30.5757  -17.1264   19.8100 H   0  0  0  0  0  0
  -29.0582  -16.4484   19.2501 H   0  0  0  0  0  0
  -27.8269  -17.2760   21.0376 H   0  0  0  0  0  0
  -25.3704  -19.3771   19.5792 H   0  0  0  0  0  0
  -25.8670  -18.4905   21.0160 H   0  0  0  0  0  0
  -26.3990  -17.9681   19.4087 H   0  0  0  0  0  0
  -32.9664  -20.3099   23.8288 H   0  0  0  0  0  0
  -33.4511  -20.7470   22.1919 H   0  0  0  0  0  0
  -33.1923  -19.0430   22.6199 H   0  0  0  0  0  0
  -31.8928  -20.2519   20.4040 H   0  0  0  0  0  0
  -31.4096  -18.6964   20.9981 H   0  0  0  0  0  0
  -27.9649  -25.5659   18.3523 H   0  0  0  0  0  0
  -29.5821  -26.0676   18.6090 H   0  0  0  0  0  0
  -29.5037  -24.4334   20.7531 H   0  0  0  0  0  0
  -29.9382  -23.9255   19.1324 H   0  0  0  0  0  0
  1 25  1  0  0  0
  1 30  2  0  0  0
  1 86  1  0  0  0
  2  3  1  0  0  0
  2 25  1  0  0  0
  2 89  1  0  0  0
  2 90  1  0  0  0
  3  4  1  0  0  0
  3 91  1  0  0  0
  3 92  1  0  0  0
  4  5  1  0  0  0
  4 93  1  0  0  0
  4 94  1  0  0  0
  5  6  1  0  0  0
  5 26  1  0  0  0
  5 95  1  0  0  0
  6 25  1  0  0  0
  6 96  1  0  0  0
  6 97  1  0  0  0
  7  8  2  0  0  0
  7 26  1  0  0  0
  7 29  1  0  0  0
  8  9  1  0  0  0
  8 22  1  0  0  0
  9 10  1  0  0  0
  9 27  2  0  0  0
 10 11  2  0  0  0
 10 15  1  0  0  0
 11 12  1  0  0  0
 11 98  1  0  0  0
 12 13  2  0  0  0
 12 99  1  0  0  0
 13 14  1  0  0  0
 13 31  1  0  0  0
 14 15  2  0  0  0
 14100  1  0  0  0
 15101  1  0  0  0
 16 17  2  0  0  0
 16 21  1  0  0  0
 16 31  1  0  0  0
 17 18  1  0  0  0
 17102  1  0  0  0
 18 19  2  0  0  0
 18103  1  0  0  0
 19 20  1  0  0  0
 19 24  1  0  0  0
 20 21  2  0  0  0
 20104  1  0  0  0
 21 23  1  0  0  0
 22 28  1  0  0  0
 22 32  2  0  0  0
 26 27  1  0  0  0
 28105  1  0  0  0
 28106  1  0  0  0
 29107  1  0  0  0
 29108  1  0  0  0
 33 34  1  0  0  0
 33 66  1  0  0  0
 33 70  2  0  0  0
 34 36  1  0  0  0
 34 59  1  0  0  0
 34109  1  0  0  0
 35 44  2  0  0  0
 35 45  1  0  0  0
 35 68  1  0  0  0
 36 56  1  0  0  0
 36110  1  0  0  0
 37 39  1  0  0  0
 37 47  1  0  0  0
 37 66  1  0  0  0
 37111  1  0  0  0
 38 43  2  0  0  0
 38 46  1  0  0  0
 38 47  1  0  0  0
 39 64  1  0  0  0
 39 67  2  0  0  0
 40 52  1  0  0  0
 40 53  2  0  0  0
 40 58  1  0  0  0
 41112  1  0  0  0
 41113  1  0  0  0
 41114  1  0  0  0
 41 48  1  0  0  0
 42 43  1  0  0  0
 42 66  1  0  0  0
 42115  1  0  0  0
 42116  1  0  0  0
 43 44  1  0  0  0
 44117  1  0  0  0
 45 46  2  0  0  0
 45118  1  0  0  0
 46119  1  0  0  0
 47120  1  0  0  0
 47121  1  0  0  0
 48 56  1  0  0  0
 48 65  1  0  0  0
 48122  1  0  0  0
 49 50  1  0  0  0
 49 53  1  0  0  0
 49 64  1  0  0  0
 49123  1  0  0  0
 50 51  1  0  0  0
 50124  1  0  0  0
 50125  1  0  0  0
 51 52  1  0  0  0
 51126  1  0  0  0
 51127  1  0  0  0
 52128  1  0  0  0
 52129  1  0  0  0
 53 54  1  0  0  0
 54 55  2  0  0  0
 54130  1  0  0  0
 55 57  1  0  0  0
 55131  1  0  0  0
 56 69  2  0  0  0
 57 58  2  0  0  0
 57132  1  0  0  0
 58133  1  0  0  0
 59 60  1  0  0  0
 59 61  1  0  0  0
 59 62  1  0  0  0
 60134  1  0  0  0
 60135  1  0  0  0
 60136  1  0  0  0
 61137  1  0  0  0
 61138  1  0  0  0
 61139  1  0  0  0
 62140  1  0  0  0
 62141  1  0  0  0
 62142  1  0  0  0
 63 65  1  0  0  0
 63143  1  0  0  0
 63144  1  0  0  0
 63145  1  0  0  0
 64146  1  0  0  0
 65147  1  0  0  0
 68 84  1  0  0  0
 71 74  2  0  0  0
 71 76  1  0  0  0
 71148  1  0  0  0
 72 75  1  0  0  0
 72 76  2  0  0  0
 72149  1  0  0  0
 73 74  1  0  0  0
 73 75  2  0  0  0
 73 80  1  0  0  0
 74 81  1  0  0  0
 75 83  1  0  0  0
 76 87  1  0  0  0
 77 78  1  0  0  0
 77 80  1  0  0  0
 77150  1  0  0  0
 77151  1  0  0  0
 78 86  1  0  0  0
 78152  1  0  0  0
 78153  1  0  0  0
 79 80  1  0  0  0
 79 86  1  0  0  0
 79154  1  0  0  0
 79155  1  0  0  0
 80156  1  0  0  0
 81157  1  0  0  0
 81158  1  0  0  0
 81159  1  0  0  0
 82 88  1  0  0  0
 82160  1  0  0  0
 82161  1  0  0  0
 82162  1  0  0  0
 83 88  1  0  0  0
 83163  1  0  0  0
 83164  1  0  0  0
 84 85  1  0  0  0
 84165  1  0  0  0
 84166  1  0  0  0
 85 87  1  0  0  0
 85167  1  0  0  0
 85168  1  0  0  0
M  ISO  4   1 100  68 101  84 101  86 100
M  END
> <chiral flag>
0

> <version>
0

> <s_m_source_file>
/data/baiqing/PycharmProjects/Reinvent-master-3.2/result/LINK_invent/BTK/process_docking_weight1_custom_sum_contain_oxygen_bond_distance_aromatic_linkinvent_7_9_3/rearranged_h_0145.sdf

> <i_m_source_file_index>
1

> <r_mmod_Potential_Energy-OPLS-2005>
219.182250976562

> <r_mmod_Stretch_Energy-OPLS-2005>
48.6595764160156

> <r_mmod_Bend_Energy-OPLS-2005>
153.423583984375

> <r_mmod_Torsional_Energy-OPLS-2005>
341.532287597656

> <r_mmod_Improper_Torsional_Energy-OPLS-2005>
10.3859968185425

> <r_mmod_Van_der_Waal_Energy-OPLS-2005>
150.590026855469

> <r_mmod_Electrostatic_Energy-OPLS-2005>
-294.92578125

> <r_mmod_Solvation_Energy-OPLS-2005>
-204.771743774414

> <b_mmod_Minimization_Converged-OPLS-2005>
0

> <r_mmod_RMS_Derivative-OPLS-2005>
2.49038791656494

$$$$
1
                    3D
 Structure written by MMmdl.
168177  0  0  1  0            999 V2000
  -30.6445  -14.6038   20.4842 C   0  0  0  0  0  0
  -30.4265  -12.3642   19.4602 C   0  0  0  0  0  0
  -29.5054  -12.5014   18.2278 C   0  0  0  0  0  0
  -28.0276  -12.3482   18.6373 C   0  0  0  0  0  0
  -27.6531  -13.2187   19.8669 C   0  0  2  0  0  0
  -28.6951  -13.0771   21.0013 C   0  0  0  0  0  0
  -25.2549  -13.8177   20.5690 C   0  0  0  0  0  0
  -24.1821  -13.0439   20.9192 C   0  0  0  0  0  0
  -24.6394  -11.6908   20.8751 C   0  0  0  0  0  0
  -23.9065  -10.4288   21.0411 C   0  0  0  0  0  0
  -24.3620   -9.4203   21.9183 C   0  0  0  0  0  0
  -23.6293   -8.2240   22.0751 C   0  0  0  0  0  0
  -22.4278   -8.0278   21.3540 C   0  0  0  0  0  0
  -21.9913   -9.0251   20.4643 C   0  0  0  0  0  0
  -22.7245  -10.2128   20.3055 C   0  0  0  0  0  0
  -21.6849   -6.0737   22.5281 C   0  0  0  0  0  0
  -21.4014   -6.5641   23.8214 C   0  0  0  0  0  0
  -21.3655   -5.6792   24.9175 C   0  0  0  0  0  0
  -21.6043   -4.3055   24.7228 C   0  0  0  0  0  0
  -21.8817   -3.8147   23.4351 C   0  0  0  0  0  0
  -21.9190   -4.6962   22.3405 C   0  0  0  0  0  0
  -22.7841  -13.5222   21.1855 C   0  0  0  0  0  0
  -22.1662   -4.2148   21.0986 F   0  0  0  0  0  0
  -21.5627   -3.4541   25.7743 F   0  0  0  0  0  0
  -30.0155  -13.3911   20.4381 N   0  0  0  0  0  0
  -26.2985  -12.9366   20.3337 N   0  0  0  0  0  0
  -25.9327  -11.6521   20.5783 N   0  0  0  0  0  0
  -22.0485  -12.8212   22.0410 N   0  0  0  0  0  0
  -25.4252  -15.1898   20.4097 N   0  0  0  0  0  0
  -31.8080  -14.7397   20.0980 O   0  0  0  0  0  0
  -21.6636   -6.8880   21.4241 O   0  0  0  0  0  0
  -22.3526  -14.5532   20.6707 O   0  0  0  0  0  0
  -24.6204  -31.8609   23.2021 C   0  0  0  0  0  0
  -25.9066  -32.4783   23.8344 C   0  0  1  0  0  0
  -27.2341  -27.3566   20.1205 C   0  0  0  0  0  0
  -25.5900  -33.8585   24.2280 N   0  0  0  0  0  0
  -23.4125  -30.4813   21.5432 C   0  0  2  0  0  0
  -24.8590  -28.9304   20.1163 C   0  0  0  0  0  0
  -22.7440  -29.4622   22.4952 C   0  0  0  0  0  0
  -18.0280  -28.1380   22.8490 C   0  0  0  0  0  0
  -24.1488  -36.7302   23.2640 C   0  0  0  0  0  0
  -25.9462  -30.8052   21.3631 C   0  0  0  0  0  0
  -26.0217  -29.4320   20.7123 C   0  0  0  0  0  0
  -27.2101  -28.6564   20.6996 C   0  0  0  0  0  0
  -26.0486  -26.8807   19.5195 C   0  0  0  0  0  0
  -24.8719  -27.6595   19.5134 C   0  0  0  0  0  0
  -23.6249  -29.8067   20.1607 C   0  0  0  0  0  0
  -25.4112  -36.3090   24.0330 C   0  0  1  0  0  0
  -20.5873  -28.3673   23.1303 C   0  0  2  0  0  0
  -20.6767  -26.9401   22.5418 C   0  0  0  0  0  0
  -19.5747  -26.6382   21.5214 C   0  0  0  0  0  0
  -18.1926  -26.7926   22.1622 C   0  0  0  0  0  0
  -19.1529  -28.8844   23.2894 C   0  0  0  0  0  0
  -18.9454  -30.1449   23.8908 C   0  0  0  0  0  0
  -17.6455  -30.6584   24.0563 C   0  0  0  0  0  0
  -25.9041  -34.9456   23.5109 C   0  0  0  0  0  0
  -16.5347  -29.9084   23.6327 C   0  0  0  0  0  0
  -16.7267  -28.6501   23.0348 C   0  0  0  0  0  0
  -26.4476  -31.6587   25.0701 C   0  0  0  0  0  0
  -25.3728  -31.3710   26.1441 C   0  0  0  0  0  0
  -27.0314  -30.3021   24.6118 C   0  0  0  0  0  0
  -27.6040  -32.4317   25.7473 C   0  0  0  0  0  0
  -27.5582  -37.1806   24.8463 C   0  0  0  0  0  0
  -21.4159  -29.3031   22.3699 N   0  0  0  0  0  0
  -26.4296  -37.3778   23.9403 N   0  0  0  0  0  0
  -24.6782  -31.0657   22.0941 N   0  0  0  0  0  0
  -23.4184  -28.8170   23.3023 O   0  0  0  0  0  0
  -28.4133  -26.6178   20.1409 O   0  0  0  0  0  0
  -26.5615  -34.8917   22.4676 O   0  0  0  0  0  0
  -23.5379  -32.1384   23.7383 O   0  0  0  0  0  0
  -32.2419  -25.3929   19.5193 C   0  0  0  0  0  0
  -32.6788  -24.0734   19.4499 C   0  0  0  0  0  0
  -30.8880  -25.6541   19.7181 C   0  0  0  0  0  0
  -29.5670  -22.0686   20.0664 C   0  0  0  0  0  0
  -31.7789  -22.9912   19.5929 C   0  0  0  0  0  0
  -30.3865  -23.2346   19.8524 C   0  0  0  0  0  0
  -29.9298  -24.6225   19.8827 C   0  0  0  0  0  0
  -32.2868  -21.6717   19.4377 C   0  0  0  0  0  0
  -30.0779  -20.7223   19.9656 C   0  0  0  0  0  0
  -31.4209  -20.5644   19.5506 C   0  0  0  0  0  0
  -34.1338  -21.6529   17.6481 C   0  0  0  0  0  0
  -31.5315  -18.9953   17.8425 C   0  0  0  0  0  0
  -33.7667  -21.4057   19.1211 C   0  0  0  0  0  0
  -28.4696  -25.1521   20.0201 C   0  0  0  0  0  0
  -29.7765  -18.3409   20.9290 C   0  0  0  0  0  0
  -30.0161  -17.0359   20.0632 C   0  0  0  0  0  0
  -29.2766  -19.5607   20.2123 N   0  0  0  0  0  0
  -29.8542  -15.6940   20.7116 N   0  0  0  0  0  0
  -31.8951  -19.3333   19.1794 O   0  0  0  0  0  0
  -31.4724  -12.4636   19.1652 H   0  0  0  0  0  0
  -30.3366  -11.3698   19.8993 H   0  0  0  0  0  0
  -29.7635  -11.7532   17.4769 H   0  0  0  0  0  0
  -29.6593  -13.4732   17.7552 H   0  0  0  0  0  0
  -27.8582  -11.2954   18.8665 H   0  0  0  0  0  0
  -27.3752  -12.5844   17.7959 H   0  0  0  0  0  0
  -27.6716  -14.2537   19.5247 H   0  0  0  0  0  0
  -28.6928  -12.0623   21.4021 H   0  0  0  0  0  0
  -28.4521  -13.7308   21.8405 H   0  0  0  0  0  0
  -25.2764   -9.5676   22.4760 H   0  0  0  0  0  0
  -23.9996   -7.4628   22.7474 H   0  0  0  0  0  0
  -21.0841   -8.8776   19.8951 H   0  0  0  0  0  0
  -22.3703  -10.9672   19.6166 H   0  0  0  0  0  0
  -21.2014   -7.6149   23.9721 H   0  0  0  0  0  0
  -21.1476   -6.0523   25.9077 H   0  0  0  0  0  0
  -22.0602   -2.7611   23.2853 H   0  0  0  0  0  0
  -22.4106  -11.9875   22.4790 H   0  0  0  0  0  0
  -21.1104  -13.1235   22.2625 H   0  0  0  0  0  0
  -24.6564  -15.8436   20.5142 H   0  0  0  0  0  0
  -26.2729  -15.6277   20.0735 H   0  0  0  0  0  0
  -26.7132  -32.5473   23.1096 H   0  0  0  0  0  0
  -25.0042  -33.9735   25.0421 H   0  0  0  0  0  0
  -22.7043  -31.2992   21.3978 H   0  0  0  0  0  0
  -23.3744  -35.9643   23.3307 H   0  0  0  0  0  0
  -24.3577  -36.8916   22.2052 H   0  0  0  0  0  0
  -23.7249  -37.6509   23.6658 H   0  0  0  0  0  0
  -26.0662  -31.5671   20.5916 H   0  0  0  0  0  0
  -26.8309  -30.8604   21.9857 H   0  0  0  0  0  0
  -28.1104  -29.0437   21.1561 H   0  0  0  0  0  0
  -26.0156  -25.9086   19.0505 H   0  0  0  0  0  0
  -23.9770  -27.2689   19.0481 H   0  0  0  0  0  0
  -23.7400  -30.5776   19.3980 H   0  0  0  0  0  0
  -22.7473  -29.2293   19.8646 H   0  0  0  0  0  0
  -25.1293  -36.1947   25.0823 H   0  0  0  0  0  0
  -20.9970  -28.3244   24.1420 H   0  0  0  0  0  0
  -20.5667  -26.2278   23.3607 H   0  0  0  0  0  0
  -21.6637  -26.7435   22.1212 H   0  0  0  0  0  0
  -19.6907  -25.6294   21.1237 H   0  0  0  0  0  0
  -19.6691  -27.3195   20.6745 H   0  0  0  0  0  0
  -17.4196  -26.6676   21.4022 H   0  0  0  0  0  0
  -18.0325  -26.0067   22.9018 H   0  0  0  0  0  0
  -19.7928  -30.7262   24.2283 H   0  0  0  0  0  0
  -17.5008  -31.6265   24.5159 H   0  0  0  0  0  0
  -15.5346  -30.2989   23.7643 H   0  0  0  0  0  0
  -15.8669  -28.0824   22.7056 H   0  0  0  0  0  0
  -24.5894  -30.7071   25.7768 H   0  0  0  0  0  0
  -24.8933  -32.2876   26.4888 H   0  0  0  0  0  0
  -25.8067  -30.8869   27.0200 H   0  0  0  0  0  0
  -26.2873  -29.6776   24.1161 H   0  0  0  0  0  0
  -27.4051  -29.7265   25.4597 H   0  0  0  0  0  0
  -27.8721  -30.4317   23.9297 H   0  0  0  0  0  0
  -27.2646  -33.3607   26.2068 H   0  0  0  0  0  0
  -28.3845  -32.6896   25.0303 H   0  0  0  0  0  0
  -28.0716  -31.8435   26.5379 H   0  0  0  0  0  0
  -28.2599  -38.0102   24.7503 H   0  0  0  0  0  0
  -28.1077  -36.2632   24.6301 H   0  0  0  0  0  0
  -27.2299  -37.1470   25.8866 H   0  0  0  0  0  0
  -20.9326  -29.8750   21.6913 H   0  0  0  0  0  0
  -26.0179  -38.2856   24.1399 H   0  0  0  0  0  0
  -32.9429  -26.2070   19.3927 H   0  0  0  0  0  0
  -33.7323  -23.9370   19.2625 H   0  0  0  0  0  0
  -30.6148  -26.6983   19.7252 H   0  0  0  0  0  0
  -28.5257  -22.2115   20.3148 H   0  0  0  0  0  0
  -35.1975  -21.4846   17.4813 H   0  0  0  0  0  0
  -33.9116  -22.6719   17.3341 H   0  0  0  0  0  0
  -33.5929  -20.9816   16.9841 H   0  0  0  0  0  0
  -32.1333  -18.1548   17.4977 H   0  0  0  0  0  0
  -31.6808  -19.8218   17.1474 H   0  0  0  0  0  0
  -30.4832  -18.7024   17.7804 H   0  0  0  0  0  0
  -34.0304  -20.3801   19.3783 H   0  0  0  0  0  0
  -34.4040  -21.9968   19.7789 H   0  0  0  0  0  0
  -28.0032  -24.6995   20.8962 H   0  0  0  0  0  0
  -27.9183  -24.8165   19.1425 H   0  0  0  0  0  0
  -30.6833  -18.5822   21.4865 H   0  0  0  0  0  0
  -29.0286  -18.1105   21.6890 H   0  0  0  0  0  0
  -31.0047  -17.0814   19.6113 H   0  0  0  0  0  0
  -29.3131  -17.0405   19.2293 H   0  0  0  0  0  0
  -28.2943  -19.7571   20.3831 H   0  0  0  0  0  0
  -28.9324  -15.4896   21.0674 H   0  0  0  0  0  0
  1 25  1  0  0  0
  1 30  2  0  0  0
  1 88  1  0  0  0
  2  3  1  0  0  0
  2 25  1  0  0  0
  2 90  1  0  0  0
  2 91  1  0  0  0
  3  4  1  0  0  0
  3 92  1  0  0  0
  3 93  1  0  0  0
  4  5  1  0  0  0
  4 94  1  0  0  0
  4 95  1  0  0  0
  5  6  1  0  0  0
  5 26  1  0  0  0
  5 96  1  0  0  0
  6 25  1  0  0  0
  6 97  1  0  0  0
  6 98  1  0  0  0
  7  8  2  0  0  0
  7 26  1  0  0  0
  7 29  1  0  0  0
  8  9  1  0  0  0
  8 22  1  0  0  0
  9 10  1  0  0  0
  9 27  2  0  0  0
 10 11  2  0  0  0
 10 15  1  0  0  0
 11 12  1  0  0  0
 11 99  1  0  0  0
 12 13  2  0  0  0
 12100  1  0  0  0
 13 14  1  0  0  0
 13 31  1  0  0  0
 14 15  2  0  0  0
 14101  1  0  0  0
 15102  1  0  0  0
 16 17  2  0  0  0
 16 21  1  0  0  0
 16 31  1  0  0  0
 17 18  1  0  0  0
 17103  1  0  0  0
 18 19  2  0  0  0
 18104  1  0  0  0
 19 20  1  0  0  0
 19 24  1  0  0  0
 20 21  2  0  0  0
 20105  1  0  0  0
 21 23  1  0  0  0
 22 28  1  0  0  0
 22 32  2  0  0  0
 26 27  1  0  0  0
 28106  1  0  0  0
 28107  1  0  0  0
 29108  1  0  0  0
 29109  1  0  0  0
 33 34  1  0  0  0
 33 66  1  0  0  0
 33 70  2  0  0  0
 34 36  1  0  0  0
 34 59  1  0  0  0
 34110  1  0  0  0
 35 44  2  0  0  0
 35 45  1  0  0  0
 35 68  1  0  0  0
 36 56  1  0  0  0
 36111  1  0  0  0
 37 39  1  0  0  0
 37 47  1  0  0  0
 37 66  1  0  0  0
 37112  1  0  0  0
 38 43  2  0  0  0
 38 46  1  0  0  0
 38 47  1  0  0  0
 39 64  1  0  0  0
 39 67  2  0  0  0
 40 52  1  0  0  0
 40 53  2  0  0  0
 40 58  1  0  0  0
 41113  1  0  0  0
 41114  1  0  0  0
 41115  1  0  0  0
 41 48  1  0  0  0
 42 43  1  0  0  0
 42 66  1  0  0  0
 42116  1  0  0  0
 42117  1  0  0  0
 43 44  1  0  0  0
 44118  1  0  0  0
 45 46  2  0  0  0
 45119  1  0  0  0
 46120  1  0  0  0
 47121  1  0  0  0
 47122  1  0  0  0
 48 56  1  0  0  0
 48 65  1  0  0  0
 48123  1  0  0  0
 49 50  1  0  0  0
 49 53  1  0  0  0
 49 64  1  0  0  0
 49124  1  0  0  0
 50 51  1  0  0  0
 50125  1  0  0  0
 50126  1  0  0  0
 51 52  1  0  0  0
 51127  1  0  0  0
 51128  1  0  0  0
 52129  1  0  0  0
 52130  1  0  0  0
 53 54  1  0  0  0
 54 55  2  0  0  0
 54131  1  0  0  0
 55 57  1  0  0  0
 55132  1  0  0  0
 56 69  2  0  0  0
 57 58  2  0  0  0
 57133  1  0  0  0
 58134  1  0  0  0
 59 60  1  0  0  0
 59 61  1  0  0  0
 59 62  1  0  0  0
 60135  1  0  0  0
 60136  1  0  0  0
 60137  1  0  0  0
 61138  1  0  0  0
 61139  1  0  0  0
 61140  1  0  0  0
 62141  1  0  0  0
 62142  1  0  0  0
 62143  1  0  0  0
 63 65  1  0  0  0
 63144  1  0  0  0
 63145  1  0  0  0
 63146  1  0  0  0
 64147  1  0  0  0
 65148  1  0  0  0
 68 84  1  0  0  0
 71 72  2  0  0  0
 71 73  1  0  0  0
 71149  1  0  0  0
 72 75  1  0  0  0
 72150  1  0  0  0
 73 77  2  0  0  0
 73151  1  0  0  0
 74 76  1  0  0  0
 74 79  2  0  0  0
 74152  1  0  0  0
 75 76  2  0  0  0
 75 78  1  0  0  0
 76 77  1  0  0  0
 77 84  1  0  0  0
 78 80  2  0  0  0
 78 83  1  0  0  0
 79 80  1  0  0  0
 79 87  1  0  0  0
 80 89  1  0  0  0
 81 83  1  0  0  0
 81153  1  0  0  0
 81154  1  0  0  0
 81155  1  0  0  0
 82 89  1  0  0  0
 82156  1  0  0  0
 82157  1  0  0  0
 82158  1  0  0  0
 83159  1  0  0  0
 83160  1  0  0  0
 84161  1  0  0  0
 84162  1  0  0  0
 85 86  1  0  0  0
 85 87  1  0  0  0
 85163  1  0  0  0
 85164  1  0  0  0
 86 88  1  0  0  0
 86165  1  0  0  0
 86166  1  0  0  0
 87167  1  0  0  0
 88168  1  0  0  0
M  ISO  4   1 100  68 101  84 101  88 100
M  END
> <chiral flag>
0

> <version>
0

> <s_m_source_file>
/data/baiqing/PycharmProjects/Reinvent-master-3.2/result/LINK_invent/BTK/process_docking_weight1_custom_sum_contain_oxygen_bond_distance_aromatic_linkinvent_7_9_3/rearranged_h_0145.sdf

> <i_m_source_file_index>
2

> <r_mmod_Potential_Energy-OPLS-2005>
56.2934875488281

> <r_mmod_Stretch_Energy-OPLS-2005>
79.9316635131836

> <r_mmod_Bend_Energy-OPLS-2005>
145.512069702148

> <r_mmod_Torsional_Energy-OPLS-2005>
259.494293212891

> <r_mmod_Improper_Torsional_Energy-OPLS-2005>
10.709755897522

> <r_mmod_Van_der_Waal_Energy-OPLS-2005>
177.101257324219

> <r_mmod_Electrostatic_Energy-OPLS-2005>
-419.835723876953

> <r_mmod_Solvation_Energy-OPLS-2005>
-230.398483276367

> <b_mmod_Minimization_Converged-OPLS-2005>
0

> <r_mmod_RMS_Derivative-OPLS-2005>
0.885869383811951

$$$$
2
                    3D
 Structure written by MMmdl.
170180  0  0  1  0            999 V2000
  -30.5647  -14.8440   20.4531 C   0  0  0  0  0  0
  -30.4434  -12.5226   19.4796 C   0  0  0  0  0  0
  -29.5153  -12.5159   18.2431 C   0  0  0  0  0  0
  -28.0458  -12.3161   18.6620 C   0  0  0  0  0  0
  -27.6370  -13.2332   19.8449 C   0  0  2  0  0  0
  -28.6824  -13.2042   20.9801 C   0  0  0  0  0  0
  -25.2491  -13.8184   20.5694 C   0  0  0  0  0  0
  -24.1793  -13.0422   20.9213 C   0  0  0  0  0  0
  -24.6394  -11.6901   20.8748 C   0  0  0  0  0  0
  -23.9072  -10.4276   21.0413 C   0  0  0  0  0  0
  -24.3619   -9.4192   21.9193 C   0  0  0  0  0  0
  -23.6296   -8.2233   22.0762 C   0  0  0  0  0  0
  -22.4280   -8.0271   21.3549 C   0  0  0  0  0  0
  -21.9914   -9.0244   20.4647 C   0  0  0  0  0  0
  -22.7247  -10.2124   20.3058 C   0  0  0  0  0  0
  -21.6854   -6.0735   22.5287 C   0  0  0  0  0  0
  -21.4010   -6.5645   23.8211 C   0  0  0  0  0  0
  -21.3656   -5.6805   24.9178 C   0  0  0  0  0  0
  -21.6046   -4.3068   24.7236 C   0  0  0  0  0  0
  -21.8818   -3.8149   23.4355 C   0  0  0  0  0  0
  -21.9187   -4.6962   22.3403 C   0  0  0  0  0  0
  -22.7813  -13.5203   21.1874 C   0  0  0  0  0  0
  -22.1662   -4.2147   21.0988 F   0  0  0  0  0  0
  -21.5622   -3.4552   25.7748 F   0  0  0  0  0  0
  -29.9704  -13.5948   20.3917 N   0  0  0  0  0  0
  -26.2915  -12.9397   20.3265 N   0  0  0  0  0  0
  -25.9324  -11.6539   20.5747 N   0  0  0  0  0  0
  -22.0466  -12.8181   22.0424 N   0  0  0  0  0  0
  -25.4158  -15.1908   20.4096 N   0  0  0  0  0  0
  -31.7625  -14.9489   20.1734 O   0  0  0  0  0  0
  -21.6640   -6.8877   21.4250 O   0  0  0  0  0  0
  -22.3498  -14.5518   20.6727 O   0  0  0  0  0  0
  -24.6367  -31.8511   23.1964 C   0  0  0  0  0  0
  -25.9168  -32.4732   23.8326 C   0  0  1  0  0  0
  -27.2185  -27.2116   20.1450 C   0  0  0  0  0  0
  -25.5943  -33.8539   24.2232 N   0  0  0  0  0  0
  -23.4377  -30.4743   21.5388 C   0  0  2  0  0  0
  -24.8893  -28.9182   20.1084 C   0  0  0  0  0  0
  -22.7527  -29.4591   22.4881 C   0  0  0  0  0  0
  -18.0291  -28.1392   22.8490 C   0  0  0  0  0  0
  -24.1491  -36.7274   23.2639 C   0  0  0  0  0  0
  -25.9887  -30.7502   21.3855 C   0  0  0  0  0  0
  -26.0640  -29.3695   20.7245 C   0  0  0  0  0  0
  -27.2344  -28.5315   20.7284 C   0  0  0  0  0  0
  -26.0228  -26.8511   19.4839 C   0  0  0  0  0  0
  -24.8773  -27.6691   19.4717 C   0  0  0  0  0  0
  -23.6598  -29.8088   20.1566 C   0  0  0  0  0  0
  -25.4118  -36.3050   24.0315 C   0  0  1  0  0  0
  -20.5895  -28.3716   23.1246 C   0  0  2  0  0  0
  -20.6780  -26.9429   22.5401 C   0  0  0  0  0  0
  -19.5761  -26.6390   21.5203 C   0  0  0  0  0  0
  -18.1937  -26.7940   22.1608 C   0  0  0  0  0  0
  -19.1551  -28.8870   23.2861 C   0  0  0  0  0  0
  -18.9468  -30.1460   23.8898 C   0  0  0  0  0  0
  -17.6469  -30.6598   24.0558 C   0  0  0  0  0  0
  -25.9064  -34.9419   23.5069 C   0  0  0  0  0  0
  -16.5358  -29.9092   23.6334 C   0  0  0  0  0  0
  -16.7276  -28.6499   23.0375 C   0  0  0  0  0  0
  -26.4516  -31.6585   25.0741 C   0  0  0  0  0  0
  -25.3712  -31.3734   26.1435 C   0  0  0  0  0  0
  -27.0387  -30.2996   24.6275 C   0  0  0  0  0  0
  -27.6059  -32.4347   25.7517 C   0  0  0  0  0  0
  -27.5578  -37.1780   24.8452 C   0  0  0  0  0  0
  -21.4223  -29.3056   22.3624 N   0  0  0  0  0  0
  -26.4286  -37.3759   23.9404 N   0  0  0  0  0  0
  -24.7069  -31.0438   22.0958 N   0  0  0  0  0  0
  -23.4198  -28.8128   23.3003 O   0  0  0  0  0  0
  -28.2596  -26.2373   20.2232 O   0  0  0  0  0  0
  -26.5645  -34.8909   22.4648 O   0  0  0  0  0  0
  -23.5498  -32.1358   23.7220 O   0  0  0  0  0  0
  -33.3379  -23.4424   19.5879 C   0  0  0  0  0  0
  -33.0707  -23.2027   21.0537 C   0  0  0  0  0  0
  -29.5066  -19.8721   19.3363 C   0  0  0  0  0  0
  -29.0067  -19.8657   21.7653 C   0  0  0  0  0  0
  -30.0231  -18.3447   19.3657 C   0  0  0  0  0  0
  -28.9065  -18.2768   21.5817 C   0  0  0  0  0  0
  -27.9562  -24.0712   19.2013 C   0  0  0  0  0  0
  -32.1932  -22.5483   20.0068 C   0  0  0  0  0  0
  -29.6969  -20.7198   20.6402 C   0  0  2  0  0  0
  -28.2924  -23.2357   20.3990 C   0  0  2  0  0  0
  -29.9821  -17.5145   20.7170 C   0  0  1  0  0  0
  -27.8224  -24.8071   20.5403 C   0  0  1  0  0  0
  -29.9951  -22.7827   22.1422 C   0  0  0  0  0  0
  -30.7543  -22.9926   19.7575 C   0  0  0  0  0  0
  -29.6465  -22.4052   20.6854 C   0  0  1  0  0  0
  -29.7498  -15.9735   20.6337 N   0  0  0  0  0  0
  -31.4777  -12.6777   19.1689 H   0  0  0  0  0  0
  -30.4215  -11.5559   19.9856 H   0  0  0  0  0  0
  -29.8147  -11.7305   17.5477 H   0  0  0  0  0  0
  -29.6176  -13.4586   17.7029 H   0  0  0  0  0  0
  -27.9271  -11.2705   18.9502 H   0  0  0  0  0  0
  -27.3832  -12.4736   17.8110 H   0  0  0  0  0  0
  -27.6177  -14.2460   19.4429 H   0  0  0  0  0  0
  -28.7469  -12.2107   21.4276 H   0  0  0  0  0  0
  -28.4000  -13.8849   21.7844 H   0  0  0  0  0  0
  -25.2756   -9.5676   22.4770 H   0  0  0  0  0  0
  -24.0000   -7.4626   22.7484 H   0  0  0  0  0  0
  -21.0841   -8.8764   19.8951 H   0  0  0  0  0  0
  -22.3700  -10.9665   19.6167 H   0  0  0  0  0  0
  -21.2016   -7.6158   23.9719 H   0  0  0  0  0  0
  -21.1478   -6.0539   25.9086 H   0  0  0  0  0  0
  -22.0599   -2.7613   23.2868 H   0  0  0  0  0  0
  -22.4105  -11.9846   22.4800 H   0  0  0  0  0  0
  -21.1078  -13.1195   22.2633 H   0  0  0  0  0  0
  -24.6431  -15.8390   20.5149 H   0  0  0  0  0  0
  -26.2500  -15.6312   20.0445 H   0  0  0  0  0  0
  -26.7232  -32.5361   23.1065 H   0  0  0  0  0  0
  -25.0047  -33.9668   25.0343 H   0  0  0  0  0  0
  -22.7359  -31.2970   21.3895 H   0  0  0  0  0  0
  -23.3762  -35.9594   23.3266 H   0  0  0  0  0  0
  -24.3577  -36.8956   22.2063 H   0  0  0  0  0  0
  -23.7252  -37.6456   23.6710 H   0  0  0  0  0  0
  -26.1337  -31.5102   20.6167 H   0  0  0  0  0  0
  -26.8623  -30.7990   22.0232 H   0  0  0  0  0  0
  -28.1272  -28.8682   21.2356 H   0  0  0  0  0  0
  -25.9469  -25.8948   18.9893 H   0  0  0  0  0  0
  -23.9807  -27.3215   18.9753 H   0  0  0  0  0  0
  -23.7817  -30.5835   19.3990 H   0  0  0  0  0  0
  -22.7788  -29.2401   19.8542 H   0  0  0  0  0  0
  -25.1305  -36.1879   25.0810 H   0  0  0  0  0  0
  -20.9982  -28.3320   24.1369 H   0  0  0  0  0  0
  -20.5666  -26.2335   23.3612 H   0  0  0  0  0  0
  -21.6648  -26.7447   22.1207 H   0  0  0  0  0  0
  -19.6926  -25.6295   21.1253 H   0  0  0  0  0  0
  -19.6709  -27.3171   20.6714 H   0  0  0  0  0  0
  -17.4205  -26.6685   21.4007 H   0  0  0  0  0  0
  -18.0333  -26.0076   22.9000 H   0  0  0  0  0  0
  -19.7940  -30.7263   24.2290 H   0  0  0  0  0  0
  -17.5026  -31.6285   24.5155 H   0  0  0  0  0  0
  -15.5352  -30.3001   23.7672 H   0  0  0  0  0  0
  -15.8663  -28.0807   22.7129 H   0  0  0  0  0  0
  -24.5934  -30.7032   25.7754 H   0  0  0  0  0  0
  -24.8829  -32.2882   26.4799 H   0  0  0  0  0  0
  -25.8007  -30.8969   27.0254 H   0  0  0  0  0  0
  -26.2999  -29.6721   24.1274 H   0  0  0  0  0  0
  -27.4022  -29.7293   25.4832 H   0  0  0  0  0  0
  -27.8893  -30.4260   23.9576 H   0  0  0  0  0  0
  -27.2680  -33.3682   26.2033 H   0  0  0  0  0  0
  -28.3902  -32.6860   25.0362 H   0  0  0  0  0  0
  -28.0690  -31.8512   26.5482 H   0  0  0  0  0  0
  -28.2557  -38.0116   24.7544 H   0  0  0  0  0  0
  -28.1123  -36.2642   24.6232 H   0  0  0  0  0  0
  -27.2288  -37.1377   25.8853 H   0  0  0  0  0  0
  -20.9417  -29.8779   21.6815 H   0  0  0  0  0  0
  -26.0149  -38.2819   24.1448 H   0  0  0  0  0  0
  -34.2210  -22.9726   19.1590 H   0  0  0  0  0  0
  -33.0977  -24.4265   19.1899 H   0  0  0  0  0  0
  -32.6631  -24.0345   21.6266 H   0  0  0  0  0  0
  -33.7601  -22.5599   21.5986 H   0  0  0  0  0  0
  -28.4438  -19.8770   19.0914 H   0  0  0  0  0  0
  -29.9878  -20.3840   18.5027 H   0  0  0  0  0  0
  -29.5265  -20.0599   22.7043 H   0  0  0  0  0  0
  -27.9974  -20.2516   21.9207 H   0  0  0  0  0  0
  -31.0514  -18.3302   19.0034 H   0  0  0  0  0  0
  -29.4523  -17.8038   18.6097 H   0  0  0  0  0  0
  -27.9313  -18.0701   21.1381 H   0  0  0  0  0  0
  -28.8622  -17.8217   22.5718 H   0  0  0  0  0  0
  -27.0366  -23.8286   18.6729 H   0  0  0  0  0  0
  -28.7675  -24.3879   18.5513 H   0  0  0  0  0  0
  -32.3710  -21.4921   19.8177 H   0  0  0  0  0  0
  -30.7429  -20.5187   20.8641 H   0  0  0  0  0  0
  -27.4737  -22.5888   20.7117 H   0  0  0  0  0  0
  -30.9432  -17.6545   21.2153 H   0  0  0  0  0  0
  -26.8548  -24.8600   21.0379 H   0  0  0  0  0  0
  -29.1752  -22.5450   22.8201 H   0  0  0  0  0  0
  -30.1888  -23.8521   22.2416 H   0  0  0  0  0  0
  -30.8763  -22.2568   22.5090 H   0  0  0  0  0  0
  -30.5151  -22.7604   18.7196 H   0  0  0  0  0  0
  -30.7361  -24.0813   19.8277 H   0  0  0  0  0  0
  -28.7867  -15.7138   20.7807 H   0  0  0  0  0  0
  1 25  1  0  0  0
  1 30  2  0  0  0
  1 86  1  0  0  0
  2  3  1  0  0  0
  2 25  1  0  0  0
  2 87  1  0  0  0
  2 88  1  0  0  0
  3  4  1  0  0  0
  3 89  1  0  0  0
  3 90  1  0  0  0
  4  5  1  0  0  0
  4 91  1  0  0  0
  4 92  1  0  0  0
  5  6  1  0  0  0
  5 26  1  0  0  0
  5 93  1  0  0  0
  6 25  1  0  0  0
  6 94  1  0  0  0
  6 95  1  0  0  0
  7  8  2  0  0  0
  7 26  1  0  0  0
  7 29  1  0  0  0
  8  9  1  0  0  0
  8 22  1  0  0  0
  9 10  1  0  0  0
  9 27  2  0  0  0
 10 11  2  0  0  0
 10 15  1  0  0  0
 11 12  1  0  0  0
 11 96  1  0  0  0
 12 13  2  0  0  0
 12 97  1  0  0  0
 13 14  1  0  0  0
 13 31  1  0  0  0
 14 15  2  0  0  0
 14 98  1  0  0  0
 15 99  1  0  0  0
 16 17  2  0  0  0
 16 21  1  0  0  0
 16 31  1  0  0  0
 17 18  1  0  0  0
 17100  1  0  0  0
 18 19  2  0  0  0
 18101  1  0  0  0
 19 20  1  0  0  0
 19 24  1  0  0  0
 20 21  2  0  0  0
 20102  1  0  0  0
 21 23  1  0  0  0
 22 28  1  0  0  0
 22 32  2  0  0  0
 26 27  1  0  0  0
 28103  1  0  0  0
 28104  1  0  0  0
 29105  1  0  0  0
 29106  1  0  0  0
 33 34  1  0  0  0
 33 66  1  0  0  0
 33 70  2  0  0  0
 34 36  1  0  0  0
 34 59  1  0  0  0
 34107  1  0  0  0
 35 44  2  0  0  0
 35 45  1  0  0  0
 35 68  1  0  0  0
 36 56  1  0  0  0
 36108  1  0  0  0
 37 39  1  0  0  0
 37 47  1  0  0  0
 37 66  1  0  0  0
 37109  1  0  0  0
 38 43  2  0  0  0
 38 46  1  0  0  0
 38 47  1  0  0  0
 39 64  1  0  0  0
 39 67  2  0  0  0
 40 52  1  0  0  0
 40 53  2  0  0  0
 40 58  1  0  0  0
 41110  1  0  0  0
 41111  1  0  0  0
 41112  1  0  0  0
 41 48  1  0  0  0
 42 43  1  0  0  0
 42 66  1  0  0  0
 42113  1  0  0  0
 42114  1  0  0  0
 43 44  1  0  0  0
 44115  1  0  0  0
 45 46  2  0  0  0
 45116  1  0  0  0
 46117  1  0  0  0
 47118  1  0  0  0
 47119  1  0  0  0
 48 56  1  0  0  0
 48 65  1  0  0  0
 48120  1  0  0  0
 49 50  1  0  0  0
 49 53  1  0  0  0
 49 64  1  0  0  0
 49121  1  0  0  0
 50 51  1  0  0  0
 50122  1  0  0  0
 50123  1  0  0  0
 51 52  1  0  0  0
 51124  1  0  0  0
 51125  1  0  0  0
 52126  1  0  0  0
 52127  1  0  0  0
 53 54  1  0  0  0
 54 55  2  0  0  0
 54128  1  0  0  0
 55 57  1  0  0  0
 55129  1  0  0  0
 56 69  2  0  0  0
 57 58  2  0  0  0
 57130  1  0  0  0
 58131  1  0  0  0
 59 60  1  0  0  0
 59 61  1  0  0  0
 59 62  1  0  0  0
 60132  1  0  0  0
 60133  1  0  0  0
 60134  1  0  0  0
 61135  1  0  0  0
 61136  1  0  0  0
 61137  1  0  0  0
 62138  1  0  0  0
 62139  1  0  0  0
 62140  1  0  0  0
 63 65  1  0  0  0
 63141  1  0  0  0
 63142  1  0  0  0
 63143  1  0  0  0
 64144  1  0  0  0
 65145  1  0  0  0
 68 82  1  0  0  0
 71 72  1  0  0  0
 71 78  1  0  0  0
 71146  1  0  0  0
 71147  1  0  0  0
 72 78  1  0  0  0
 72148  1  0  0  0
 72149  1  0  0  0
 73 75  1  0  0  0
 73150  1  0  0  0
 73151  1  0  0  0
 73 79  1  0  0  0
 74 76  1  0  0  0
 74 79  1  0  0  0
 74152  1  0  0  0
 74153  1  0  0  0
 75 81  1  0  0  0
 75154  1  0  0  0
 75155  1  0  0  0
 76 81  1  0  0  0
 76156  1  0  0  0
 76157  1  0  0  0
 77 82  1  0  0  0
 77158  1  0  0  0
 77159  1  0  0  0
 77 80  1  0  0  0
 78 84  1  0  0  0
 78160  1  0  0  0
 79 85  1  0  0  0
 79161  1  0  0  0
 80 82  1  0  0  0
 80 85  1  0  0  0
 80162  1  0  0  0
 81 86  1  0  0  0
 81163  1  0  0  0
 82164  1  0  0  0
 83165  1  0  0  0
 83166  1  0  0  0
 83167  1  0  0  0
 83 85  1  0  0  0
 84 85  1  0  0  0
 84168  1  0  0  0
 84169  1  0  0  0
 86170  1  0  0  0
M  ISO  4   1 100  68 101  82 101  86 100
M  END
> <chiral flag>
0

> <version>
0

> <s_m_source_file>
/data/baiqing/PycharmProjects/Reinvent-master-3.2/result/LINK_invent/BTK/process_docking_weight1_custom_sum_contain_oxygen_bond_distance_aromatic_linkinvent_7_9_3/rearranged_h_0145.sdf

> <i_m_source_file_index>
3

> <r_mmod_Potential_Energy-OPLS-2005>
547.757019042969

> <r_mmod_Stretch_Energy-OPLS-2005>
183.757553100586

> <r_mmod_Bend_Energy-OPLS-2005>
311.718872070312

> <r_mmod_Torsional_Energy-OPLS-2005>
364.029327392578

> <r_mmod_Improper_Torsional_Energy-OPLS-2005>
4.40023803710938

> <r_mmod_Van_der_Waal_Energy-OPLS-2005>
119.73868560791

> <r_mmod_Electrostatic_Energy-OPLS-2005>
-375.324645996094

> <r_mmod_Solvation_Energy-OPLS-2005>
-194.699371337891

> <b_mmod_Minimization_Converged-OPLS-2005>
0

> <r_mmod_RMS_Derivative-OPLS-2005>
1.93923056125641

$$$$
3
                    3D
 Structure written by MMmdl.
166175  0  0  1  0            999 V2000
  -29.9558  -16.0367   20.6653 C   0  0  0  0  0  0
  -30.3533  -13.4419   19.6659 C   0  0  0  0  0  0
  -29.5686  -12.8232   18.4458 C   0  0  0  0  0  0
  -28.1748  -12.3369   18.8562 C   0  0  0  0  0  0
  -27.5667  -13.3395   19.8530 C   0  0  2  0  0  0
  -28.4983  -13.7628   21.0157 C   0  0  0  0  0  0
  -25.2094  -13.8316   20.5799 C   0  0  0  0  0  0
  -24.1554  -13.0423   20.9285 C   0  0  0  0  0  0
  -24.6305  -11.6945   20.8744 C   0  0  0  0  0  0
  -23.9064  -10.4281   21.0383 C   0  0  0  0  0  0
  -24.3638   -9.4209   21.9162 C   0  0  0  0  0  0
  -23.6315   -8.2244   22.0743 C   0  0  0  0  0  0
  -22.4291   -8.0275   21.3542 C   0  0  0  0  0  0
  -21.9917   -9.0236   20.4637 C   0  0  0  0  0  0
  -22.7240  -10.2111   20.3036 C   0  0  0  0  0  0
  -21.6859   -6.0737   22.5281 C   0  0  0  0  0  0
  -21.4019   -6.5639   23.8215 C   0  0  0  0  0  0
  -21.3661   -5.6791   24.9172 C   0  0  0  0  0  0
  -21.6045   -4.3055   24.7224 C   0  0  0  0  0  0
  -21.8823   -3.8146   23.4345 C   0  0  0  0  0  0
  -21.9201   -4.6965   22.3400 C   0  0  0  0  0  0
  -22.7583  -13.5127   21.1951 C   0  0  0  0  0  0
  -22.1668   -4.2155   21.0979 F   0  0  0  0  0  0
  -21.5626   -3.4536   25.7732 F   0  0  0  0  0  0
  -29.5876  -14.5825   20.4396 N   0  0  0  0  0  0
  -26.2534  -12.9678   20.3279 N   0  0  0  0  0  0
  -25.9246  -11.6719   20.5676 N   0  0  0  0  0  0
  -22.0300  -12.8083   22.0527 N   0  0  0  0  0  0
  -25.3663  -15.2064   20.4221 N   0  0  0  0  0  0
  -31.1996  -15.9936   20.4527 O   0  0  0  0  0  0
  -21.6653   -6.8877   21.4241 O   0  0  0  0  0  0
  -22.3240  -14.5430   20.6800 O   0  0  0  0  0  0
  -24.7454  -31.5181   23.3975 C   0  0  0  0  0  0
  -25.9507  -32.3583   23.9212 C   0  0  1  0  0  0
  -27.4816  -27.1848   19.4444 C   0  0  0  0  0  0
  -25.5620  -33.7701   24.2039 N   0  0  0  0  0  0
  -23.4661  -29.8527   21.8504 C   0  0  2  0  0  0
  -25.1960  -28.6114   19.4912 C   0  0  0  0  0  0
  -22.6265  -29.1634   22.7963 C   0  0  0  0  0  0
  -17.9543  -28.1306   22.8371 C   0  0  0  0  0  0
  -24.1486  -36.6800   23.2616 C   0  0  0  0  0  0
  -26.5140  -29.9778   21.9342 C   0  0  0  0  0  0
  -26.6043  -29.0989   20.2821 C   0  0  0  0  0  0
  -27.7256  -28.3729   20.1266 C   0  0  0  0  0  0
  -26.4261  -27.0411   18.5173 C   0  0  0  0  0  0
  -25.2170  -27.6717   18.5682 C   0  0  0  0  0  0
  -23.5242  -29.0052   20.1597 C   0  0  0  0  0  0
  -25.4092  -36.2469   24.0275 C   0  0  1  0  0  0
  -20.4643  -28.2563   23.2323 C   0  0  2  0  0  0
  -20.5365  -26.8342   22.6425 C   0  0  0  0  0  0
  -19.5134  -26.6085   21.5368 C   0  0  0  0  0  0
  -18.1111  -26.7949   22.1240 C   0  0  0  0  0  0
  -19.0755  -28.8457   23.3155 C   0  0  0  0  0  0
  -18.9053  -30.1152   23.9077 C   0  0  0  0  0  0
  -17.6186  -30.6601   24.0542 C   0  0  0  0  0  0
  -25.9033  -34.8726   23.5073 C   0  0  0  0  0  0
  -16.4986  -29.9286   23.6209 C   0  0  0  0  0  0
  -16.6664  -28.6697   23.0143 C   0  0  0  0  0  0
  -26.5111  -31.6779   25.2114 C   0  0  0  0  0  0
  -25.4220  -31.4296   26.2793 C   0  0  0  0  0  0
  -27.1676  -30.3205   24.9130 C   0  0  0  0  0  0
  -27.6298  -32.5448   25.8176 C   0  0  0  0  0  0
  -27.5478  -37.1525   24.8471 C   0  0  0  0  0  0
  -21.3379  -29.1291   22.5083 N   0  0  0  0  0  0
  -26.4204  -37.3280   23.9372 N   0  0  0  0  0  0
  -24.9329  -30.3584   22.6429 N   0  0  0  0  0  0
  -23.1726  -28.6258   23.7480 O   0  0  0  0  0  0
  -28.1865  -26.0630   19.7463 O   0  0  0  0  0  0
  -26.5955  -34.8309   22.4885 O   0  0  0  0  0  0
  -23.6191  -31.9507   23.7014 O   0  0  0  0  0  0
  -24.2612  -26.7860   21.4686 C   0  0  0  0  0  0
  -25.1830  -27.9480   21.7301 C   0  0  0  0  0  0
  -26.3381  -26.6518   22.1148 C   0  0  0  0  0  0
  -26.4306  -24.9151   21.9677 C   0  0  0  0  0  0
  -24.5416  -25.4237   20.9887 C   0  0  0  0  0  0
  -25.7652  -32.1036   20.3745 C   0  0  0  0  0  0
  -24.2567  -32.1066   20.3973 C   0  0  0  0  0  0
  -25.0169  -30.7413   20.3557 C   0  0  0  0  0  0
  -27.5496  -27.0157   22.9760 C   0  0  0  0  0  0
  -27.5479  -23.2045   22.0186 C   0  0  0  0  0  0
  -27.7591  -21.1377   21.4261 C   0  0  0  0  0  0
  -28.9544  -19.3419   21.3328 C   0  0  0  0  0  0
  -27.6180  -24.8011   19.1953 C   0  0  0  0  0  0
  -26.0494  -24.3370   19.2379 C   0  0  0  0  0  0
  -25.1884  -24.5224   21.7310 N   0  0  0  0  0  0
  -29.0809  -17.4325   20.9630 N   0  0  0  0  0  0
  -24.9148  -25.2154   19.6562 O   0  0  0  0  0  0
  -31.2839  -13.8468   19.2682 H   0  0  0  0  0  0
  -30.6734  -12.6558   20.3537 H   0  0  0  0  0  0
  -30.1348  -12.0091   17.9920 H   0  0  0  0  0  0
  -29.4624  -13.5881   17.6747 H   0  0  0  0  0  0
  -28.2673  -11.3595   19.3316 H   0  0  0  0  0  0
  -27.5312  -12.2097   17.9840 H   0  0  0  0  0  0
  -27.4091  -14.2346   19.2487 H   0  0  0  0  0  0
  -28.8510  -12.9128   21.6022 H   0  0  0  0  0  0
  -27.9532  -14.4004   21.7126 H   0  0  0  0  0  0
  -25.2783   -9.5704   22.4734 H   0  0  0  0  0  0
  -24.0034   -7.4638   22.7457 H   0  0  0  0  0  0
  -21.0855   -8.8755   19.8940 H   0  0  0  0  0  0
  -22.3695  -10.9654   19.6151 H   0  0  0  0  0  0
  -21.2012   -7.6150   23.9719 H   0  0  0  0  0  0
  -21.1474   -6.0517   25.9076 H   0  0  0  0  0  0
  -22.0600   -2.7612   23.2840 H   0  0  0  0  0  0
  -22.3993  -11.9756   22.4891 H   0  0  0  0  0  0
  -21.0908  -13.1036   22.2800 H   0  0  0  0  0  0
  -24.5843  -15.8458   20.5101 H   0  0  0  0  0  0
  -26.1857  -15.6385   20.0178 H   0  0  0  0  0  0
  -26.7699  -32.3878   23.2123 H   0  0  0  0  0  0
  -24.9435  -33.8993   24.9909 H   0  0  0  0  0  0
  -22.8320  -30.7262   21.7050 H   0  0  0  0  0  0
  -23.3728  -35.9152   23.3222 H   0  0  0  0  0  0
  -24.3606  -36.8471   22.2044 H   0  0  0  0  0  0
  -23.7282  -37.5986   23.6704 H   0  0  0  0  0  0
  -27.2047  -30.8156   21.9008 H   0  0  0  0  0  0
  -27.0542  -29.3509   22.6094 H   0  0  0  0  0  0
  -28.5999  -28.5266   20.7389 H   0  0  0  0  0  0
  -26.4409  -26.2825   17.7515 H   0  0  0  0  0  0
  -24.3555  -27.3580   17.9956 H   0  0  0  0  0  0
  -23.0667  -29.6940   19.4422 H   0  0  0  0  0  0
  -22.7698  -28.2434   19.9795 H   0  0  0  0  0  0
  -25.1279  -36.1270   25.0768 H   0  0  0  0  0  0
  -20.7924  -28.1903   24.2726 H   0  0  0  0  0  0
  -20.3007  -26.1327   23.4445 H   0  0  0  0  0  0
  -21.5333  -26.5484   22.3340 H   0  0  0  0  0  0
  -19.6149  -25.6069   21.1184 H   0  0  0  0  0  0
  -19.6827  -27.3120   20.7202 H   0  0  0  0  0  0
  -17.3689  -26.7146   21.3281 H   0  0  0  0  0  0
  -17.8904  -25.9948   22.8322 H   0  0  0  0  0  0
  -19.7644  -30.6662   24.2661 H   0  0  0  0  0  0
  -17.4892  -31.6311   24.5124 H   0  0  0  0  0  0
  -15.5056  -30.3396   23.7442 H   0  0  0  0  0  0
  -15.7969  -28.1273   22.6669 H   0  0  0  0  0  0
  -24.6815  -30.6889   25.9769 H   0  0  0  0  0  0
  -24.8895  -32.3477   26.5286 H   0  0  0  0  0  0
  -25.8653  -31.0613   27.2053 H   0  0  0  0  0  0
  -26.4407  -29.5598   24.6364 H   0  0  0  0  0  0
  -27.6455  -29.9256   25.8102 H   0  0  0  0  0  0
  -27.9686  -30.4099   24.1799 H   0  0  0  0  0  0
  -27.2584  -33.5066   26.1725 H   0  0  0  0  0  0
  -28.4178  -32.7510   25.0923 H   0  0  0  0  0  0
  -28.0967  -32.0617   26.6768 H   0  0  0  0  0  0
  -28.2444  -37.9851   24.7398 H   0  0  0  0  0  0
  -28.1018  -36.2341   24.6448 H   0  0  0  0  0  0
  -27.2164  -37.1309   25.8869 H   0  0  0  0  0  0
  -20.9717  -29.6225   21.7071 H   0  0  0  0  0  0
  -25.9968  -38.2324   24.1288 H   0  0  0  0  0  0
  -23.2293  -26.9505   21.2873 H   0  0  0  0  0  0
  -26.2555  -32.4065   19.4499 H   0  0  0  0  0  0
  -26.1954  -32.5714   21.2426 H   0  0  0  0  0  0
  -23.7547  -32.4124   19.4811 H   0  0  0  0  0  0
  -23.8442  -32.5975   21.2700 H   0  0  0  0  0  0
  -24.9933  -30.7230   19.2525 H   0  0  0  0  0  0
  -27.2414  -27.6094   23.8316 H   0  0  0  0  0  0
  -28.3669  -27.5116   22.4698 H   0  0  0  0  0  0
  -27.9926  -26.1197   23.4108 H   0  0  0  0  0  0
  -27.6413  -23.1071   23.1008 H   0  0  0  0  0  0
  -28.5233  -23.6056   21.7451 H   0  0  0  0  0  0
  -27.5033  -21.2231   20.3703 H   0  0  0  0  0  0
  -26.8482  -20.7335   21.8705 H   0  0  0  0  0  0
  -29.3679  -19.3349   22.3432 H   0  0  0  0  0  0
  -29.7991  -19.6828   20.7342 H   0  0  0  0  0  0
  -27.9217  -24.7774   18.1468 H   0  0  0  0  0  0
  -28.2206  -23.9864   19.5886 H   0  0  0  0  0  0
  -25.7938  -24.0924   18.2060 H   0  0  0  0  0  0
  -25.9675  -23.3533   19.7034 H   0  0  0  0  0  0
  -28.1348  -17.0839   21.0327 H   0  0  0  0  0  0
  1 25  1  0  0  0
  1 30  2  0  0  0
  1 86  1  0  0  0
  2  3  1  0  0  0
  2 25  1  0  0  0
  2 88  1  0  0  0
  2 89  1  0  0  0
  3  4  1  0  0  0
  3 90  1  0  0  0
  3 91  1  0  0  0
  4  5  1  0  0  0
  4 92  1  0  0  0
  4 93  1  0  0  0
  5  6  1  0  0  0
  5 26  1  0  0  0
  5 94  1  0  0  0
  6 25  1  0  0  0
  6 95  1  0  0  0
  6 96  1  0  0  0
  7  8  2  0  0  0
  7 26  1  0  0  0
  7 29  1  0  0  0
  8  9  1  0  0  0
  8 22  1  0  0  0
  9 10  1  0  0  0
  9 27  2  0  0  0
 10 11  2  0  0  0
 10 15  1  0  0  0
 11 12  1  0  0  0
 11 97  1  0  0  0
 12 13  2  0  0  0
 12 98  1  0  0  0
 13 14  1  0  0  0
 13 31  1  0  0  0
 14 15  2  0  0  0
 14 99  1  0  0  0
 15100  1  0  0  0
 16 17  2  0  0  0
 16 21  1  0  0  0
 16 31  1  0  0  0
 17 18  1  0  0  0
 17101  1  0  0  0
 18 19  2  0  0  0
 18102  1  0  0  0
 19 20  1  0  0  0
 19 24  1  0  0  0
 20 21  2  0  0  0
 20103  1  0  0  0
 21 23  1  0  0  0
 22 28  1  0  0  0
 22 32  2  0  0  0
 26 27  1  0  0  0
 28104  1  0  0  0
 28105  1  0  0  0
 29106  1  0  0  0
 29107  1  0  0  0
 33 34  1  0  0  0
 33 66  1  0  0  0
 33 70  2  0  0  0
 34 36  1  0  0  0
 34 59  1  0  0  0
 34108  1  0  0  0
 35 44  2  0  0  0
 35 45  1  0  0  0
 35 68  1  0  0  0
 36 56  1  0  0  0
 36109  1  0  0  0
 37 39  1  0  0  0
 37 47  1  0  0  0
 37 66  1  0  0  0
 37110  1  0  0  0
 38 43  2  0  0  0
 38 46  1  0  0  0
 38 47  1  0  0  0
 39 64  1  0  0  0
 39 67  2  0  0  0
 40 52  1  0  0  0
 40 53  2  0  0  0
 40 58  1  0  0  0
 41111  1  0  0  0
 41112  1  0  0  0
 41113  1  0  0  0
 41 48  1  0  0  0
 42 43  1  0  0  0
 42 66  1  0  0  0
 42114  1  0  0  0
 42115  1  0  0  0
 43 44  1  0  0  0
 44116  1  0  0  0
 45 46  2  0  0  0
 45117  1  0  0  0
 46118  1  0  0  0
 47119  1  0  0  0
 47120  1  0  0  0
 48 56  1  0  0  0
 48 65  1  0  0  0
 48121  1  0  0  0
 49 50  1  0  0  0
 49 53  1  0  0  0
 49 64  1  0  0  0
 49122  1  0  0  0
 50 51  1  0  0  0
 50123  1  0  0  0
 50124  1  0  0  0
 51 52  1  0  0  0
 51125  1  0  0  0
 51126  1  0  0  0
 52127  1  0  0  0
 52128  1  0  0  0
 53 54  1  0  0  0
 54 55  2  0  0  0
 54129  1  0  0  0
 55 57  1  0  0  0
 55130  1  0  0  0
 56 69  2  0  0  0
 57 58  2  0  0  0
 57131  1  0  0  0
 58132  1  0  0  0
 59 60  1  0  0  0
 59 61  1  0  0  0
 59 62  1  0  0  0
 60133  1  0  0  0
 60134  1  0  0  0
 60135  1  0  0  0
 61136  1  0  0  0
 61137  1  0  0  0
 61138  1  0  0  0
 62139  1  0  0  0
 62140  1  0  0  0
 62141  1  0  0  0
 63 65  1  0  0  0
 63142  1  0  0  0
 63143  1  0  0  0
 63144  1  0  0  0
 64145  1  0  0  0
 65146  1  0  0  0
 68 83  1  0  0  0
 71 72  2  0  0  0
 71 75  1  0  0  0
 71147  1  0  0  0
 72 73  1  0  0  0
 72 78  1  0  0  0
 73 74  2  0  0  0
 73 79  1  0  0  0
 74 80  1  0  0  0
 74 85  1  0  0  0
 75 85  2  0  0  0
 75 87  1  0  0  0
 76 77  1  0  0  0
 76 78  1  0  0  0
 76148  1  0  0  0
 76149  1  0  0  0
 77 78  1  0  0  0
 77150  1  0  0  0
 77151  1  0  0  0
 78152  1  0  0  0
 79153  1  0  0  0
 79154  1  0  0  0
 79155  1  0  0  0
 80 81  1  0  0  0
 80156  1  0  0  0
 80157  1  0  0  0
 81 82  1  0  0  0
 81158  1  0  0  0
 81159  1  0  0  0
 82 86  1  0  0  0
 82160  1  0  0  0
 82161  1  0  0  0
 83 84  1  0  0  0
 83162  1  0  0  0
 83163  1  0  0  0
 84 87  1  0  0  0
 84164  1  0  0  0
 84165  1  0  0  0
 86166  1  0  0  0
M  ISO  4   1 100  68 101  83 101  86 100
M  END
> <chiral flag>
0

> <version>
0

> <s_m_source_file>
/data/baiqing/PycharmProjects/Reinvent-master-3.2/result/LINK_invent/BTK/process_docking_weight1_custom_sum_contain_oxygen_bond_distance_aromatic_linkinvent_7_9_3/rearranged_h_0145.sdf

> <i_m_source_file_index>
4

> <r_mmod_Potential_Energy-OPLS-2005>
11927.9462890625

> <r_mmod_Stretch_Energy-OPLS-2005>
6656.45361328125

> <r_mmod_Bend_Energy-OPLS-2005>
1346.68493652344

> <r_mmod_Torsional_Energy-OPLS-2005>
629.019653320312

> <r_mmod_Improper_Torsional_Energy-OPLS-2005>
48.7743492126465

> <r_mmod_Van_der_Waal_Energy-OPLS-2005>
1994.69958496094

> <r_mmod_Electrostatic_Energy-OPLS-2005>
-555.570617675781

> <r_mmod_Solvation_Energy-OPLS-2005>
-240.806854248047

> <b_mmod_Minimization_Converged-OPLS-2005>
0

> <r_mmod_RMS_Derivative-OPLS-2005>
4.34699487686157

$$$$
4
                    3D
 Structure written by MMmdl.
182191  0  0  1  0            999 V2000
  -30.7823  -14.3789   20.6667 C   0  0  0  0  0  0
  -30.4163  -12.2979   19.3961 C   0  0  0  0  0  0
  -29.4822  -12.5271   18.1933 C   0  0  0  0  0  0
  -28.0088  -12.3771   18.6144 C   0  0  0  0  0  0
  -27.6653  -13.2071   19.8789 C   0  0  2  0  0  0
  -28.7084  -12.9684   20.9945 C   0  0  0  0  0  0
  -25.2597  -13.8160   20.5681 C   0  0  0  0  0  0
  -24.1840  -13.0437   20.9167 C   0  0  0  0  0  0
  -24.6393  -11.6903   20.8728 C   0  0  0  0  0  0
  -23.9059  -10.4289   21.0394 C   0  0  0  0  0  0
  -24.3614   -9.4210   21.9180 C   0  0  0  0  0  0
  -23.6292   -8.2241   22.0753 C   0  0  0  0  0  0
  -22.4272   -8.0275   21.3544 C   0  0  0  0  0  0
  -21.9909   -9.0242   20.4638 C   0  0  0  0  0  0
  -22.7240  -10.2119   20.3042 C   0  0  0  0  0  0
  -21.6853   -6.0729   22.5283 C   0  0  0  0  0  0
  -21.4006   -6.5636   23.8215 C   0  0  0  0  0  0
  -21.3651   -5.6783   24.9177 C   0  0  0  0  0  0
  -21.6039   -4.3049   24.7223 C   0  0  0  0  0  0
  -21.8824   -3.8144   23.4343 C   0  0  0  0  0  0
  -21.9194   -4.6959   22.3402 C   0  0  0  0  0  0
  -22.7858  -13.5241   21.1839 C   0  0  0  0  0  0
  -22.1660   -4.2148   21.0983 F   0  0  0  0  0  0
  -21.5631   -3.4527   25.7724 F   0  0  0  0  0  0
  -30.0509  -13.2542   20.4516 N   0  0  0  0  0  0
  -26.3049  -12.9338   20.3405 N   0  0  0  0  0  0
  -25.9333  -11.6491   20.5784 N   0  0  0  0  0  0
  -22.0485  -12.8204   22.0355 N   0  0  0  0  0  0
  -25.4333  -15.1875   20.4086 N   0  0  0  0  0  0
  -31.8096  -14.6546   20.0427 O   0  0  0  0  0  0
  -21.6643   -6.8871   21.4244 O   0  0  0  0  0  0
  -22.3559  -14.5575   20.6730 O   0  0  0  0  0  0
  -24.6104  -31.8707   23.2129 C   0  0  0  0  0  0
  -25.9010  -32.4838   23.8417 C   0  0  1  0  0  0
  -27.2614  -27.4785   20.0991 C   0  0  0  0  0  0
  -25.5887  -33.8633   24.2360 N   0  0  0  0  0  0
  -23.3996  -30.4927   21.5505 C   0  0  2  0  0  0
  -24.8549  -28.9622   20.1213 C   0  0  0  0  0  0
  -22.7403  -29.4664   22.4997 C   0  0  0  0  0  0
  -18.0275  -28.1383   22.8474 C   0  0  0  0  0  0
  -24.1464  -36.7296   23.2630 C   0  0  0  0  0  0
  -25.9222  -30.8523   21.3587 C   0  0  0  0  0  0
  -26.0107  -29.4870   20.7145 C   0  0  0  0  0  0
  -27.2182  -28.7547   20.7072 C   0  0  0  0  0  0
  -26.0873  -26.9610   19.5138 C   0  0  0  0  0  0
  -24.8853  -27.6930   19.5201 C   0  0  0  0  0  0
  -23.6105  -29.8203   20.1673 C   0  0  0  0  0  0
  -25.4081  -36.3115   24.0357 C   0  0  1  0  0  0
  -20.5869  -28.3654   23.1328 C   0  0  2  0  0  0
  -20.6764  -26.9388   22.5441 C   0  0  0  0  0  0
  -19.5766  -26.6390   21.5209 C   0  0  0  0  0  0
  -18.1924  -26.7945   22.1570 C   0  0  0  0  0  0
  -19.1523  -28.8830   23.2904 C   0  0  0  0  0  0
  -18.9456  -30.1437   23.8920 C   0  0  0  0  0  0
  -17.6459  -30.6579   24.0568 C   0  0  0  0  0  0
  -25.9020  -34.9485   23.5150 C   0  0  0  0  0  0
  -16.5345  -29.9083   23.6326 C   0  0  0  0  0  0
  -16.7264  -28.6511   23.0329 C   0  0  0  0  0  0
  -26.4463  -31.6593   25.0714 C   0  0  0  0  0  0
  -25.3757  -31.3715   26.1491 C   0  0  0  0  0  0
  -27.0253  -30.3029   24.6038 C   0  0  0  0  0  0
  -27.6076  -32.4280   25.7460 C   0  0  0  0  0  0
  -27.5593  -37.1788   24.8431 C   0  0  0  0  0  0
  -21.4136  -29.3015   22.3725 N   0  0  0  0  0  0
  -26.4250  -37.3820   23.9456 N   0  0  0  0  0  0
  -24.6619  -31.0843   22.1009 N   0  0  0  0  0  0
  -23.4187  -28.8218   23.3036 O   0  0  0  0  0  0
  -28.3748  -26.6727   20.0287 O   0  0  0  0  0  0
  -26.5570  -34.8937   22.4701 O   0  0  0  0  0  0
  -23.5303  -32.1432   23.7544 O   0  0  0  0  0  0
  -31.5601  -24.0740   19.1464 C   0  0  0  0  0  0
  -32.2776  -23.6195   20.2652 C   0  0  0  0  0  0
  -30.7762  -25.2409   19.2105 C   0  0  0  0  0  0
  -32.3101  -24.4132   21.4401 C   0  0  0  0  0  0
  -31.4859  -25.5741   21.5326 C   0  0  0  0  0  0
  -30.6606  -25.9547   20.4336 C   0  0  0  0  0  0
  -32.4525  -21.1154   20.2852 C   0  0  0  0  0  0
  -33.0093  -22.3450   20.1560 C   0  0  0  0  0  0
  -33.0068  -18.9935   21.5411 C   0  0  0  0  0  0
  -30.7720  -20.0520   21.8495 C   0  0  0  0  0  0
  -33.2386  -19.8017   20.2390 C   0  0  2  0  0  0
  -30.9676  -20.8984   20.5712 C   0  0  2  0  0  0
  -30.0589  -25.6807   17.9431 C   0  0  0  0  0  0
  -33.2035  -23.9987   22.6101 C   0  0  0  0  0  0
  -31.4658  -26.4105   22.8124 C   0  0  0  0  0  0
  -34.7452  -19.9686   19.9590 C   0  0  0  0  0  0
  -30.2168  -20.3482   19.3444 C   0  0  0  0  0  0
  -29.6327  -27.0952   20.5508 C   0  0  0  0  0  0
  -31.0444  -16.3622   22.1617 C   0  0  0  0  0  0
  -30.9236  -17.6110   21.2550 C   0  0  0  0  0  0
  -30.3431  -15.1827   21.6438 N   0  0  0  0  0  0
  -31.5707  -18.7965   21.8837 N   0  3  1  0  0  0
  -31.4598  -12.3916   19.0885 H   0  0  0  0  0  0
  -30.3105  -11.2783   19.7692 H   0  0  0  0  0  0
  -29.7159  -11.8217   17.3944 H   0  0  0  0  0  0
  -29.6481  -13.5249   17.7822 H   0  0  0  0  0  0
  -27.8232  -11.3190   18.8036 H   0  0  0  0  0  0
  -27.3505  -12.6561   17.7912 H   0  0  0  0  0  0
  -27.7170  -14.2590   19.5969 H   0  0  0  0  0  0
  -28.6712  -11.9311   21.3287 H   0  0  0  0  0  0
  -28.4594  -13.5616   21.8744 H   0  0  0  0  0  0
  -25.2761   -9.5684   22.4749 H   0  0  0  0  0  0
  -24.0001   -7.4631   22.7471 H   0  0  0  0  0  0
  -21.0848   -8.8753   19.8943 H   0  0  0  0  0  0
  -22.3713  -10.9642   19.6126 H   0  0  0  0  0  0
  -21.1986   -7.6143   23.9719 H   0  0  0  0  0  0
  -21.1459   -6.0509   25.9077 H   0  0  0  0  0  0
  -22.0602   -2.7605   23.2838 H   0  0  0  0  0  0
  -22.4067  -11.9814   22.4675 H   0  0  0  0  0  0
  -21.1100  -13.1213   22.2553 H   0  0  0  0  0  0
  -24.6708  -15.8472   20.5123 H   0  0  0  0  0  0
  -26.2970  -15.6230   20.1095 H   0  0  0  0  0  0
  -26.7081  -32.5584   23.1195 H   0  0  0  0  0  0
  -25.0099  -33.9794   25.0545 H   0  0  0  0  0  0
  -22.6862  -31.3077   21.4094 H   0  0  0  0  0  0
  -23.3771  -35.9575   23.3224 H   0  0  0  0  0  0
  -24.3599  -36.8957   22.2057 H   0  0  0  0  0  0
  -23.7132  -37.6454   23.6664 H   0  0  0  0  0  0
  -26.0187  -31.6156   20.5853 H   0  0  0  0  0  0
  -26.8142  -30.9166   21.9699 H   0  0  0  0  0  0
  -28.0989  -29.1806   21.1673 H   0  0  0  0  0  0
  -26.1076  -25.9836   19.0517 H   0  0  0  0  0  0
  -23.9977  -27.2784   19.0613 H   0  0  0  0  0  0
  -23.7128  -30.5925   19.4040 H   0  0  0  0  0  0
  -22.7385  -29.2321   19.8752 H   0  0  0  0  0  0
  -25.1245  -36.1963   25.0846 H   0  0  0  0  0  0
  -20.9966  -28.3213   24.1447 H   0  0  0  0  0  0
  -20.5623  -26.2264   23.3630 H   0  0  0  0  0  0
  -21.6636  -26.7418   22.1244 H   0  0  0  0  0  0
  -19.6927  -25.6312   21.1208 H   0  0  0  0  0  0
  -19.6760  -27.3227   20.6763 H   0  0  0  0  0  0
  -17.4242  -26.6759   21.3916 H   0  0  0  0  0  0
  -18.0266  -26.0063   22.8922 H   0  0  0  0  0  0
  -19.7939  -30.7231   24.2306 H   0  0  0  0  0  0
  -17.5022  -31.6259   24.5164 H   0  0  0  0  0  0
  -15.5344  -30.2981   23.7670 H   0  0  0  0  0  0
  -15.8665  -28.0840   22.7017 H   0  0  0  0  0  0
  -24.5947  -30.7014   25.7874 H   0  0  0  0  0  0
  -24.8920  -32.2871   26.4909 H   0  0  0  0  0  0
  -25.8142  -30.8950   27.0265 H   0  0  0  0  0  0
  -26.2763  -29.6820   24.1104 H   0  0  0  0  0  0
  -27.4040  -29.7232   25.4461 H   0  0  0  0  0  0
  -27.8596  -30.4339   23.9146 H   0  0  0  0  0  0
  -27.2750  -33.3625   26.1999 H   0  0  0  0  0  0
  -28.3919  -32.6747   25.0287 H   0  0  0  0  0  0
  -28.0688  -31.8393   26.5400 H   0  0  0  0  0  0
  -28.2527  -38.0167   24.7603 H   0  0  0  0  0  0
  -28.1174  -36.2719   24.6063 H   0  0  0  0  0  0
  -27.2382  -37.1184   25.8843 H   0  0  0  0  0  0
  -20.9291  -29.8725   21.6937 H   0  0  0  0  0  0
  -26.0138  -38.2872   24.1574 H   0  0  0  0  0  0
  -31.5901  -23.4998   18.2297 H   0  0  0  0  0  0
  -34.0671  -22.4481   19.9670 H   0  0  0  0  0  0
  -33.4708  -19.5283   22.3718 H   0  0  0  0  0  0
  -33.5116  -18.0277   21.4915 H   0  0  0  0  0  0
  -29.7152  -19.8536   22.0333 H   0  0  0  0  0  0
  -31.0999  -20.6539   22.6985 H   0  0  0  0  0  0
  -32.8381  -19.2227   19.4072 H   0  0  0  0  0  0
  -30.5020  -21.8597   20.7864 H   0  0  0  0  0  0
  -30.6172  -25.3819   17.0550 H   0  0  0  0  0  0
  -29.9459  -26.7642   17.8962 H   0  0  0  0  0  0
  -29.0694  -25.2277   17.8891 H   0  0  0  0  0  0
  -33.8486  -23.1487   22.3930 H   0  0  0  0  0  0
  -32.6002  -23.7334   23.4784 H   0  0  0  0  0  0
  -33.8719  -24.8151   22.8853 H   0  0  0  0  0  0
  -32.2238  -26.1389   23.5435 H   0  0  0  0  0  0
  -30.5015  -26.3199   23.3127 H   0  0  0  0  0  0
  -31.6352  -27.4622   22.5783 H   0  0  0  0  0  0
  -35.2427  -20.5414   20.7433 H   0  0  0  0  0  0
  -34.9249  -20.4711   19.0076 H   0  0  0  0  0  0
  -35.2388  -18.9977   19.9030 H   0  0  0  0  0  0
  -30.5833  -19.3747   19.0244 H   0  0  0  0  0  0
  -30.3157  -21.0274   18.4969 H   0  0  0  0  0  0
  -29.1513  -20.2455   19.5506 H   0  0  0  0  0  0
  -29.9973  -27.9679   20.0072 H   0  0  0  0  0  0
  -29.4844  -27.3972   21.5858 H   0  0  0  0  0  0
  -30.6270  -16.5795   23.1456 H   0  0  0  0  0  0
  -32.0948  -16.1126   22.3265 H   0  0  0  0  0  0
  -29.8649  -17.8100   21.0864 H   0  0  0  0  0  0
  -31.3542  -17.4263   20.2707 H   0  0  0  0  0  0
  -29.5011  -14.8953   22.1214 H   0  0  0  0  0  0
  -31.5754  -18.5528   22.8634 H   0  0  0  0  0  0
  1 25  1  0  0  0
  1 30  2  0  0  0
  1 91  1  0  0  0
  2  3  1  0  0  0
  2 25  1  0  0  0
  2 93  1  0  0  0
  2 94  1  0  0  0
  3  4  1  0  0  0
  3 95  1  0  0  0
  3 96  1  0  0  0
  4  5  1  0  0  0
  4 97  1  0  0  0
  4 98  1  0  0  0
  5  6  1  0  0  0
  5 26  1  0  0  0
  5 99  1  0  0  0
  6 25  1  0  0  0
  6100  1  0  0  0
  6101  1  0  0  0
  7  8  2  0  0  0
  7 26  1  0  0  0
  7 29  1  0  0  0
  8  9  1  0  0  0
  8 22  1  0  0  0
  9 10  1  0  0  0
  9 27  2  0  0  0
 10 11  2  0  0  0
 10 15  1  0  0  0
 11 12  1  0  0  0
 11102  1  0  0  0
 12 13  2  0  0  0
 12103  1  0  0  0
 13 14  1  0  0  0
 13 31  1  0  0  0
 14 15  2  0  0  0
 14104  1  0  0  0
 15105  1  0  0  0
 16 17  2  0  0  0
 16 21  1  0  0  0
 16 31  1  0  0  0
 17 18  1  0  0  0
 17106  1  0  0  0
 18 19  2  0  0  0
 18107  1  0  0  0
 19 20  1  0  0  0
 19 24  1  0  0  0
 20 21  2  0  0  0
 20108  1  0  0  0
 21 23  1  0  0  0
 22 28  1  0  0  0
 22 32  2  0  0  0
 26 27  1  0  0  0
 28109  1  0  0  0
 28110  1  0  0  0
 29111  1  0  0  0
 29112  1  0  0  0
 33 34  1  0  0  0
 33 66  1  0  0  0
 33 70  2  0  0  0
 34 36  1  0  0  0
 34 59  1  0  0  0
 34113  1  0  0  0
 35 44  2  0  0  0
 35 45  1  0  0  0
 35 68  1  0  0  0
 36 56  1  0  0  0
 36114  1  0  0  0
 37 39  1  0  0  0
 37 47  1  0  0  0
 37 66  1  0  0  0
 37115  1  0  0  0
 38 43  2  0  0  0
 38 46  1  0  0  0
 38 47  1  0  0  0
 39 64  1  0  0  0
 39 67  2  0  0  0
 40 52  1  0  0  0
 40 53  2  0  0  0
 40 58  1  0  0  0
 41116  1  0  0  0
 41117  1  0  0  0
 41118  1  0  0  0
 41 48  1  0  0  0
 42 43  1  0  0  0
 42 66  1  0  0  0
 42119  1  0  0  0
 42120  1  0  0  0
 43 44  1  0  0  0
 44121  1  0  0  0
 45 46  2  0  0  0
 45122  1  0  0  0
 46123  1  0  0  0
 47124  1  0  0  0
 47125  1  0  0  0
 48 56  1  0  0  0
 48 65  1  0  0  0
 48126  1  0  0  0
 49 50  1  0  0  0
 49 53  1  0  0  0
 49 64  1  0  0  0
 49127  1  0  0  0
 50 51  1  0  0  0
 50128  1  0  0  0
 50129  1  0  0  0
 51 52  1  0  0  0
 51130  1  0  0  0
 51131  1  0  0  0
 52132  1  0  0  0
 52133  1  0  0  0
 53 54  1  0  0  0
 54 55  2  0  0  0
 54134  1  0  0  0
 55 57  1  0  0  0
 55135  1  0  0  0
 56 69  2  0  0  0
 57 58  2  0  0  0
 57136  1  0  0  0
 58137  1  0  0  0
 59 60  1  0  0  0
 59 61  1  0  0  0
 59 62  1  0  0  0
 60138  1  0  0  0
 60139  1  0  0  0
 60140  1  0  0  0
 61141  1  0  0  0
 61142  1  0  0  0
 61143  1  0  0  0
 62144  1  0  0  0
 62145  1  0  0  0
 62146  1  0  0  0
 63 65  1  0  0  0
 63147  1  0  0  0
 63148  1  0  0  0
 63149  1  0  0  0
 64150  1  0  0  0
 65151  1  0  0  0
 68 88  1  0  0  0
 71 72  2  0  0  0
 71 73  1  0  0  0
 71152  1  0  0  0
 72 74  1  0  0  0
 72 78  1  0  0  0
 73 76  2  0  0  0
 73 83  1  0  0  0
 74 75  2  0  0  0
 74 84  1  0  0  0
 75 76  1  0  0  0
 75 85  1  0  0  0
 76 88  1  0  0  0
 77 78  2  0  0  0
 77 81  1  0  0  0
 77 82  1  0  0  0
 78153  1  0  0  0
 79 81  1  0  0  0
 79 92  1  0  0  0
 79154  1  0  0  0
 79155  1  0  0  0
 80 82  1  0  0  0
 80 92  1  0  0  0
 80156  1  0  0  0
 80157  1  0  0  0
 81 86  1  0  0  0
 81158  1  0  0  0
 82 87  1  0  0  0
 82159  1  0  0  0
 83160  1  0  0  0
 83161  1  0  0  0
 83162  1  0  0  0
 84163  1  0  0  0
 84164  1  0  0  0
 84165  1  0  0  0
 85166  1  0  0  0
 85167  1  0  0  0
 85168  1  0  0  0
 86169  1  0  0  0
 86170  1  0  0  0
 86171  1  0  0  0
 87172  1  0  0  0
 87173  1  0  0  0
 87174  1  0  0  0
 88175  1  0  0  0
 88176  1  0  0  0
 89 90  1  0  0  0
 89 91  1  0  0  0
 89177  1  0  0  0
 89178  1  0  0  0
 90179  1  0  0  0
 90180  1  0  0  0
 90 92  1  0  0  0
 91181  1  0  0  0
 92182  1  0  0  0
M  CHG  1  92   1
M  ISO  4   1 100  68 101  88 101  91 100
M  END
> <chiral flag>
0

> <version>
0

> <s_m_source_file>
/data/baiqing/PycharmProjects/Reinvent-master-3.2/result/LINK_invent/BTK/process_docking_weight1_custom_sum_contain_oxygen_bond_distance_aromatic_linkinvent_7_9_3/rearranged_h_0145.sdf

> <i_m_source_file_index>
5

> <r_mmod_Potential_Energy-OPLS-2005>
-140.864761352539

> <r_mmod_Stretch_Energy-OPLS-2005>
41.3842391967773

> <r_mmod_Bend_Energy-OPLS-2005>
118.833953857422

> <r_mmod_Torsional_Energy-OPLS-2005>
251.451934814453

> <r_mmod_Improper_Torsional_Energy-OPLS-2005>
1.88636195659637

> <r_mmod_Van_der_Waal_Energy-OPLS-2005>
170.95556640625

> <r_mmod_Electrostatic_Energy-OPLS-2005>
-312.393951416016

> <r_mmod_Solvation_Energy-OPLS-2005>
-419.616607666016

> <b_mmod_Minimization_Converged-OPLS-2005>
0

> <r_mmod_RMS_Derivative-OPLS-2005>
1.8415699005127

$$$$
5
                    3D
 Structure written by MMmdl.
171180  0  0  1  0            999 V2000
  -30.5724  -14.6988   20.5393 C   0  0  0  0  0  0
  -30.4418  -12.4447   19.4326 C   0  0  0  0  0  0
  -29.4955  -12.5415   18.2132 C   0  0  0  0  0  0
  -28.0211  -12.3634   18.6295 C   0  0  0  0  0  0
  -27.6507  -13.2148   19.8730 C   0  0  2  0  0  0
  -28.7036  -13.0468   20.9861 C   0  0  0  0  0  0
  -25.2559  -13.8168   20.5733 C   0  0  0  0  0  0
  -24.1827  -13.0430   20.9216 C   0  0  0  0  0  0
  -24.6401  -11.6904   20.8765 C   0  0  0  0  0  0
  -23.9080  -10.4288   21.0419 C   0  0  0  0  0  0
  -24.3634   -9.4210   21.9202 C   0  0  0  0  0  0
  -23.6320   -8.2238   22.0757 C   0  0  0  0  0  0
  -22.4295   -8.0278   21.3553 C   0  0  0  0  0  0
  -21.9937   -9.0243   20.4647 C   0  0  0  0  0  0
  -22.7255  -10.2128   20.3073 C   0  0  0  0  0  0
  -21.6857   -6.0752   22.5289 C   0  0  0  0  0  0
  -21.4017   -6.5653   23.8225 C   0  0  0  0  0  0
  -21.3653   -5.6803   24.9175 C   0  0  0  0  0  0
  -21.6047   -4.3067   24.7222 C   0  0  0  0  0  0
  -21.8825   -3.8165   23.4340 C   0  0  0  0  0  0
  -21.9197   -4.6986   22.3395 C   0  0  0  0  0  0
  -22.7835  -13.5198   21.1826 C   0  0  0  0  0  0
  -22.1656   -4.2177   21.0967 F   0  0  0  0  0  0
  -21.5644   -3.4548   25.7740 F   0  0  0  0  0  0
  -29.9995  -13.4496   20.4224 N   0  0  0  0  0  0
  -26.2990  -12.9341   20.3419 N   0  0  0  0  0  0
  -25.9331  -11.6496   20.5809 N   0  0  0  0  0  0
  -22.0483  -12.8184   22.0388 N   0  0  0  0  0  0
  -25.4249  -15.1891   20.4156 N   0  0  0  0  0  0
  -31.7049  -14.8923   20.0823 O   0  0  0  0  0  0
  -21.6642   -6.8887   21.4252 O   0  0  0  0  0  0
  -22.3502  -14.5479   20.6627 O   0  0  0  0  0  0
  -24.6282  -31.8559   23.1978 C   0  0  0  0  0  0
  -25.9115  -32.4748   23.8329 C   0  0  1  0  0  0
  -27.2260  -27.2825   20.1166 C   0  0  0  0  0  0
  -25.5914  -33.8557   24.2243 N   0  0  0  0  0  0
  -23.4223  -30.4741   21.5429 C   0  0  2  0  0  0
  -24.8682  -28.9173   20.1137 C   0  0  0  0  0  0
  -22.7472  -29.4604   22.4960 C   0  0  0  0  0  0
  -18.0273  -28.1375   22.8496 C   0  0  0  0  0  0
  -24.1473  -36.7259   23.2642 C   0  0  0  0  0  0
  -25.9657  -30.7729   21.3728 C   0  0  0  0  0  0
  -26.0376  -29.3959   20.7164 C   0  0  0  0  0  0
  -27.2167  -28.5897   20.7058 C   0  0  0  0  0  0
  -26.0302  -26.8585   19.4979 C   0  0  0  0  0  0
  -24.8678  -27.6558   19.4979 C   0  0  0  0  0  0
  -23.6346  -29.7977   20.1624 C   0  0  0  0  0  0
  -25.4103  -36.3057   24.0320 C   0  0  1  0  0  0
  -20.5875  -28.3673   23.1292 C   0  0  2  0  0  0
  -20.6749  -26.9393   22.5418 C   0  0  0  0  0  0
  -19.5727  -26.6371   21.5214 C   0  0  0  0  0  0
  -18.1904  -26.7921   22.1618 C   0  0  0  0  0  0
  -19.1528  -28.8844   23.2882 C   0  0  0  0  0  0
  -18.9456  -30.1459   23.8882 C   0  0  0  0  0  0
  -17.6457  -30.6585   24.0558 C   0  0  0  0  0  0
  -25.9059  -34.9430   23.5090 C   0  0  0  0  0  0
  -16.5351  -29.9070   23.6346 C   0  0  0  0  0  0
  -16.7272  -28.6484   23.0381 C   0  0  0  0  0  0
  -26.4490  -31.6581   25.0726 C   0  0  0  0  0  0
  -25.3721  -31.3702   26.1448 C   0  0  0  0  0  0
  -27.0351  -30.3004   24.6213 C   0  0  0  0  0  0
  -27.6030  -32.4338   25.7504 C   0  0  0  0  0  0
  -27.5574  -37.1770   24.8459 C   0  0  0  0  0  0
  -21.4182  -29.3032   22.3698 N   0  0  0  0  0  0
  -26.4267  -37.3764   23.9436 N   0  0  0  0  0  0
  -24.6912  -31.0530   22.0943 N   0  0  0  0  0  0
  -23.4178  -28.8168   23.3072 O   0  0  0  0  0  0
  -28.3606  -26.4488   20.1641 O   0  0  0  0  0  0
  -26.5640  -34.8910   22.4671 O   0  0  0  0  0  0
  -23.5445  -32.1390   23.7285 O   0  0  0  0  0  0
  -30.4995  -19.7981   21.2339 C   0  0  0  0  0  0
  -30.6852  -18.3878   21.3613 C   0  0  0  0  0  0
  -28.6030  -19.4297   19.8288 C   0  0  0  0  0  0
  -29.4241  -20.3789   20.5076 C   0  0  0  0  0  0
  -29.8102  -17.4316   20.7710 C   0  0  0  0  0  0
  -28.7910  -17.9996   19.9393 C   0  0  0  0  0  0
  -27.7153  -22.4983   20.6322 C   0  0  0  0  0  0
  -29.8731  -22.8378   19.4762 C   0  0  0  0  0  0
  -27.5966  -24.0594   20.8886 C   0  0  0  0  0  0
  -29.7656  -24.3940   19.7372 C   0  0  0  0  0  0
  -29.1805  -21.9593   20.5589 C   0  0  2  0  0  0
  -28.3223  -24.9843   19.8534 C   0  0  2  0  0  0
  -26.8372  -16.2605   15.7837 C   0  0  0  0  0  0
  -30.0835  -15.8149   22.7631 C   0  0  0  0  0  0
  -27.0007  -16.1623   17.3054 C   0  0  0  0  0  0
  -27.6647  -17.3997   17.9345 C   0  0  0  0  0  0
  -29.7821  -15.9010   21.2522 C   0  0  2  0  0  0
  -27.9405  -17.1210   19.3041 O   0  0  0  0  0  0
  -31.4763  -12.5989   19.1222 H   0  0  0  0  0  0
  -30.4064  -11.4443   19.8678 H   0  0  0  0  0  0
  -29.7609  -11.7970   17.4618 H   0  0  0  0  0  0
  -29.6204  -13.5149   17.7372 H   0  0  0  0  0  0
  -27.8598  -11.3044   18.8411 H   0  0  0  0  0  0
  -27.3591  -12.6074   17.7963 H   0  0  0  0  0  0
  -27.6703  -14.2569   19.5615 H   0  0  0  0  0  0
  -28.7452  -12.0096   21.3211 H   0  0  0  0  0  0
  -28.4291  -13.6190   21.8709 H   0  0  0  0  0  0
  -25.2771   -9.5699   22.4788 H   0  0  0  0  0  0
  -24.0058   -7.4619   22.7454 H   0  0  0  0  0  0
  -21.0895   -8.8743   19.8914 H   0  0  0  0  0  0
  -22.3724  -10.9670   19.6195 H   0  0  0  0  0  0
  -21.2008   -7.6168   23.9750 H   0  0  0  0  0  0
  -21.1475   -6.0522   25.9088 H   0  0  0  0  0  0
  -22.0620   -2.7639   23.2833 H   0  0  0  0  0  0
  -22.4119  -11.9911   22.4860 H   0  0  0  0  0  0
  -21.1072  -13.1157   22.2515 H   0  0  0  0  0  0
  -24.6513  -15.8364   20.5190 H   0  0  0  0  0  0
  -26.2725  -15.6378   20.0874 H   0  0  0  0  0  0
  -26.7189  -32.5387   23.1077 H   0  0  0  0  0  0
  -25.0043  -33.9700   25.0379 H   0  0  0  0  0  0
  -22.7172  -31.2950   21.3920 H   0  0  0  0  0  0
  -23.3767  -35.9558   23.3244 H   0  0  0  0  0  0
  -24.3566  -36.8962   22.2072 H   0  0  0  0  0  0
  -23.7181  -37.6411   23.6730 H   0  0  0  0  0  0
  -26.1006  -31.5340   20.6029 H   0  0  0  0  0  0
  -26.8442  -30.8231   22.0046 H   0  0  0  0  0  0
  -28.1150  -28.9534   21.1839 H   0  0  0  0  0  0
  -25.9681  -25.8928   19.0217 H   0  0  0  0  0  0
  -23.9674  -27.2803   19.0297 H   0  0  0  0  0  0
  -23.7433  -30.5660   19.3965 H   0  0  0  0  0  0
  -22.7564  -29.2174   19.8709 H   0  0  0  0  0  0
  -25.1284  -36.1882   25.0807 H   0  0  0  0  0  0
  -20.9955  -28.3238   24.1419 H   0  0  0  0  0  0
  -20.5638  -26.2284   23.3616 H   0  0  0  0  0  0
  -21.6620  -26.7409   22.1221 H   0  0  0  0  0  0
  -19.6882  -25.6279   21.1252 H   0  0  0  0  0  0
  -19.6669  -27.3181   20.6744 H   0  0  0  0  0  0
  -17.4181  -26.6714   21.4007 H   0  0  0  0  0  0
  -18.0281  -26.0050   22.8990 H   0  0  0  0  0  0
  -19.7930  -30.7296   24.2227 H   0  0  0  0  0  0
  -17.5004  -31.6266   24.5141 H   0  0  0  0  0  0
  -15.5355  -30.2975   23.7671 H   0  0  0  0  0  0
  -15.8660  -28.0801   22.7125 H   0  0  0  0  0  0
  -24.5926  -30.7009   25.7783 H   0  0  0  0  0  0
  -24.8878  -32.2854   26.4868 H   0  0  0  0  0  0
  -25.8062  -30.8904   27.0232 H   0  0  0  0  0  0
  -26.2944  -29.6734   24.1239 H   0  0  0  0  0  0
  -27.4037  -29.7277   25.4736 H   0  0  0  0  0  0
  -27.8811  -30.4282   23.9454 H   0  0  0  0  0  0
  -27.2639  -33.3676   26.2000 H   0  0  0  0  0  0
  -28.3886  -32.6837   25.0359 H   0  0  0  0  0  0
  -28.0641  -31.8512   26.5491 H   0  0  0  0  0  0
  -28.2539  -38.0122   24.7592 H   0  0  0  0  0  0
  -28.1128  -36.2657   24.6180 H   0  0  0  0  0  0
  -27.2304  -37.1282   25.8861 H   0  0  0  0  0  0
  -20.9369  -29.8751   21.6898 H   0  0  0  0  0  0
  -26.0128  -38.2820   24.1503 H   0  0  0  0  0  0
  -31.1761  -20.4509   21.7684 H   0  0  0  0  0  0
  -31.4862  -18.0508   22.0030 H   0  0  0  0  0  0
  -27.7714  -19.8143   19.2571 H   0  0  0  0  0  0
  -27.1927  -22.2477   19.7093 H   0  0  0  0  0  0
  -27.1866  -21.9744   21.4277 H   0  0  0  0  0  0
  -30.9284  -22.5676   19.4231 H   0  0  0  0  0  0
  -29.4549  -22.6035   18.4972 H   0  0  0  0  0  0
  -27.9977  -24.2743   21.8798 H   0  0  0  0  0  0
  -26.5407  -24.3297   20.9339 H   0  0  0  0  0  0
  -30.2996  -24.9228   18.9475 H   0  0  0  0  0  0
  -30.3019  -24.6233   20.6584 H   0  0  0  0  0  0
  -29.6350  -22.2541   21.5075 H   0  0  0  0  0  0
  -27.8560  -24.8515   18.8766 H   0  0  0  0  0  0
  -26.4360  -15.3313   15.3753 H   0  0  0  0  0  0
  -27.7978  -16.4438   15.3007 H   0  0  0  0  0  0
  -26.1564  -17.0658   15.5079 H   0  0  0  0  0  0
  -29.4379  -16.4830   23.3338 H   0  0  0  0  0  0
  -31.1172  -16.0790   22.9842 H   0  0  0  0  0  0
  -29.9254  -14.8075   23.1477 H   0  0  0  0  0  0
  -27.5992  -15.2783   17.5221 H   0  0  0  0  0  0
  -26.0234  -15.9963   17.7605 H   0  0  0  0  0  0
  -27.0111  -18.2681   17.8340 H   0  0  0  0  0  0
  -28.6016  -17.6252   17.4192 H   0  0  0  0  0  0
  -28.7275  -15.6568   21.1545 H   0  0  0  0  0  0
  1 25  1  0  0  0
  1 30  2  0  0  0
  1 87  1  0  0  0
  2  3  1  0  0  0
  2 25  1  0  0  0
  2 89  1  0  0  0
  2 90  1  0  0  0
  3  4  1  0  0  0
  3 91  1  0  0  0
  3 92  1  0  0  0
  4  5  1  0  0  0
  4 93  1  0  0  0
  4 94  1  0  0  0
  5  6  1  0  0  0
  5 26  1  0  0  0
  5 95  1  0  0  0
  6 25  1  0  0  0
  6 96  1  0  0  0
  6 97  1  0  0  0
  7  8  2  0  0  0
  7 26  1  0  0  0
  7 29  1  0  0  0
  8  9  1  0  0  0
  8 22  1  0  0  0
  9 10  1  0  0  0
  9 27  2  0  0  0
 10 11  2  0  0  0
 10 15  1  0  0  0
 11 12  1  0  0  0
 11 98  1  0  0  0
 12 13  2  0  0  0
 12 99  1  0  0  0
 13 14  1  0  0  0
 13 31  1  0  0  0
 14 15  2  0  0  0
 14100  1  0  0  0
 15101  1  0  0  0
 16 17  2  0  0  0
 16 21  1  0  0  0
 16 31  1  0  0  0
 17 18  1  0  0  0
 17102  1  0  0  0
 18 19  2  0  0  0
 18103  1  0  0  0
 19 20  1  0  0  0
 19 24  1  0  0  0
 20 21  2  0  0  0
 20104  1  0  0  0
 21 23  1  0  0  0
 22 28  1  0  0  0
 22 32  2  0  0  0
 26 27  1  0  0  0
 28105  1  0  0  0
 28106  1  0  0  0
 29107  1  0  0  0
 29108  1  0  0  0
 33 34  1  0  0  0
 33 66  1  0  0  0
 33 70  2  0  0  0
 34 36  1  0  0  0
 34 59  1  0  0  0
 34109  1  0  0  0
 35 44  2  0  0  0
 35 45  1  0  0  0
 35 68  1  0  0  0
 36 56  1  0  0  0
 36110  1  0  0  0
 37 39  1  0  0  0
 37 47  1  0  0  0
 37 66  1  0  0  0
 37111  1  0  0  0
 38 43  2  0  0  0
 38 46  1  0  0  0
 38 47  1  0  0  0
 39 64  1  0  0  0
 39 67  2  0  0  0
 40 52  1  0  0  0
 40 53  2  0  0  0
 40 58  1  0  0  0
 41112  1  0  0  0
 41113  1  0  0  0
 41114  1  0  0  0
 41 48  1  0  0  0
 42 43  1  0  0  0
 42 66  1  0  0  0
 42115  1  0  0  0
 42116  1  0  0  0
 43 44  1  0  0  0
 44117  1  0  0  0
 45 46  2  0  0  0
 45118  1  0  0  0
 46119  1  0  0  0
 47120  1  0  0  0
 47121  1  0  0  0
 48 56  1  0  0  0
 48 65  1  0  0  0
 48122  1  0  0  0
 49 50  1  0  0  0
 49 53  1  0  0  0
 49 64  1  0  0  0
 49123  1  0  0  0
 50 51  1  0  0  0
 50124  1  0  0  0
 50125  1  0  0  0
 51 52  1  0  0  0
 51126  1  0  0  0
 51127  1  0  0  0
 52128  1  0  0  0
 52129  1  0  0  0
 53 54  1  0  0  0
 54 55  2  0  0  0
 54130  1  0  0  0
 55 57  1  0  0  0
 55131  1  0  0  0
 56 69  2  0  0  0
 57 58  2  0  0  0
 57132  1  0  0  0
 58133  1  0  0  0
 59 60  1  0  0  0
 59 61  1  0  0  0
 59 62  1  0  0  0
 60134  1  0  0  0
 60135  1  0  0  0
 60136  1  0  0  0
 61137  1  0  0  0
 61138  1  0  0  0
 61139  1  0  0  0
 62140  1  0  0  0
 62141  1  0  0  0
 62142  1  0  0  0
 63 65  1  0  0  0
 63143  1  0  0  0
 63144  1  0  0  0
 63145  1  0  0  0
 64146  1  0  0  0
 65147  1  0  0  0
 68 82  1  0  0  0
 71 72  2  0  0  0
 71 74  1  0  0  0
 71148  1  0  0  0
 72 75  1  0  0  0
 72149  1  0  0  0
 73 74  2  0  0  0
 73 76  1  0  0  0
 73150  1  0  0  0
 74 81  1  0  0  0
 75 76  2  0  0  0
 75 87  1  0  0  0
 76 88  1  0  0  0
 77 79  1  0  0  0
 77 81  1  0  0  0
 77151  1  0  0  0
 77152  1  0  0  0
 78 80  1  0  0  0
 78 81  1  0  0  0
 78153  1  0  0  0
 78154  1  0  0  0
 79 82  1  0  0  0
 79155  1  0  0  0
 79156  1  0  0  0
 80 82  1  0  0  0
 80157  1  0  0  0
 80158  1  0  0  0
 81159  1  0  0  0
 82160  1  0  0  0
 83 85  1  0  0  0
 83161  1  0  0  0
 83162  1  0  0  0
 83163  1  0  0  0
 84164  1  0  0  0
 84165  1  0  0  0
 84166  1  0  0  0
 84 87  1  0  0  0
 85 86  1  0  0  0
 85167  1  0  0  0
 85168  1  0  0  0
 86 88  1  0  0  0
 86169  1  0  0  0
 86170  1  0  0  0
 87171  1  0  0  0
M  ISO  4   1 100  68 101  82 101  87 100
M  END
> <chiral flag>
0

> <version>
0

> <s_m_source_file>
/data/baiqing/PycharmProjects/Reinvent-master-3.2/result/LINK_invent/BTK/process_docking_weight1_custom_sum_contain_oxygen_bond_distance_aromatic_linkinvent_7_9_3/rearranged_h_0145.sdf

> <i_m_source_file_index>
6

> <r_mmod_Potential_Energy-OPLS-2005>
186.156951904297

> <r_mmod_Stretch_Energy-OPLS-2005>
107.244003295898

> <r_mmod_Bend_Energy-OPLS-2005>
173.701217651367

> <r_mmod_Torsional_Energy-OPLS-2005>
219.393432617188

> <r_mmod_Improper_Torsional_Energy-OPLS-2005>
4.11031913757324

> <r_mmod_Van_der_Waal_Energy-OPLS-2005>
128.165115356445

> <r_mmod_Electrostatic_Energy-OPLS-2005>
-332.247528076172

> <r_mmod_Solvation_Energy-OPLS-2005>
-178.294494628906

> <b_mmod_Minimization_Converged-OPLS-2005>
0

> <r_mmod_RMS_Derivative-OPLS-2005>
2.94461560249329

$$$$
6
                    3D
 Structure written by MMmdl.
166175  0  0  1  0            999 V2000
  -30.6038  -14.6262   20.5132 C   0  0  0  0  0  0
  -30.4471  -12.3888   19.4491 C   0  0  0  0  0  0
  -29.5146  -12.5308   18.2240 C   0  0  0  0  0  0
  -28.0337  -12.3622   18.6279 C   0  0  0  0  0  0
  -27.6568  -13.2118   19.8703 C   0  0  2  0  0  0
  -28.7019  -13.0411   20.9985 C   0  0  0  0  0  0
  -25.2571  -13.8149   20.5671 C   0  0  0  0  0  0
  -24.1846  -13.0409   20.9172 C   0  0  0  0  0  0
  -24.6398  -11.6891   20.8717 C   0  0  0  0  0  0
  -23.9064  -10.4291   21.0383 C   0  0  0  0  0  0
  -24.3620   -9.4209   21.9170 C   0  0  0  0  0  0
  -23.6322   -8.2244   22.0735 C   0  0  0  0  0  0
  -22.4301   -8.0274   21.3545 C   0  0  0  0  0  0
  -21.9918   -9.0213   20.4623 C   0  0  0  0  0  0
  -22.7234  -10.2110   20.3030 C   0  0  0  0  0  0
  -21.6843   -6.0732   22.5283 C   0  0  0  0  0  0
  -21.3992   -6.5627   23.8215 C   0  0  0  0  0  0
  -21.3671   -5.6779   24.9186 C   0  0  0  0  0  0
  -21.6065   -4.3041   24.7233 C   0  0  0  0  0  0
  -21.8824   -3.8145   23.4340 C   0  0  0  0  0  0
  -21.9185   -4.6964   22.3399 C   0  0  0  0  0  0
  -22.7871  -13.5185   21.1860 C   0  0  0  0  0  0
  -22.1669   -4.2142   21.0976 F   0  0  0  0  0  0
  -21.5642   -3.4527   25.7743 F   0  0  0  0  0  0
  -30.0210  -13.3900   20.4451 N   0  0  0  0  0  0
  -26.3008  -12.9337   20.3339 N   0  0  0  0  0  0
  -25.9339  -11.6486   20.5761 N   0  0  0  0  0  0
  -22.0486  -12.8205   22.0419 N   0  0  0  0  0  0
  -25.4243  -15.1872   20.4093 N   0  0  0  0  0  0
  -31.7525  -14.8303   20.1138 O   0  0  0  0  0  0
  -21.6647   -6.8880   21.4251 O   0  0  0  0  0  0
  -22.3579  -14.5499   20.6714 O   0  0  0  0  0  0
  -24.6237  -31.8613   23.2041 C   0  0  0  0  0  0
  -25.9117  -32.4765   23.8364 C   0  0  1  0  0  0
  -27.2393  -27.3486   20.1311 C   0  0  0  0  0  0
  -25.5963  -33.8567   24.2305 N   0  0  0  0  0  0
  -23.4158  -30.4843   21.5398 C   0  0  2  0  0  0
  -24.8681  -28.9378   20.1065 C   0  0  0  0  0  0
  -22.7452  -29.4651   22.4903 C   0  0  0  0  0  0
  -18.0280  -28.1382   22.8461 C   0  0  0  0  0  0
  -24.1480  -36.7308   23.2630 C   0  0  0  0  0  0
  -25.9505  -30.8027   21.3679 C   0  0  0  0  0  0
  -26.0295  -29.4300   20.7143 C   0  0  0  0  0  0
  -27.2138  -28.6469   20.7182 C   0  0  0  0  0  0
  -26.0599  -26.8999   19.4923 C   0  0  0  0  0  0
  -24.8831  -27.6774   19.4857 C   0  0  0  0  0  0
  -23.6316  -29.8133   20.1561 C   0  0  0  0  0  0
  -25.4100  -36.3077   24.0336 C   0  0  1  0  0  0
  -20.5883  -28.3700   23.1256 C   0  0  2  0  0  0
  -20.6763  -26.9421   22.5397 C   0  0  0  0  0  0
  -19.5769  -26.6366   21.5188 C   0  0  0  0  0  0
  -18.1945  -26.7922   22.1585 C   0  0  0  0  0  0
  -19.1527  -28.8859   23.2856 C   0  0  0  0  0  0
  -18.9460  -30.1440   23.8898 C   0  0  0  0  0  0
  -17.6452  -30.6557   24.0571 C   0  0  0  0  0  0
  -25.9040  -34.9440   23.5100 C   0  0  0  0  0  0
  -16.5352  -29.9066   23.6340 C   0  0  0  0  0  0
  -16.7274  -28.6478   23.0339 C   0  0  0  0  0  0
  -26.4504  -31.6565   25.0728 C   0  0  0  0  0  0
  -25.3744  -31.3700   26.1465 C   0  0  0  0  0  0
  -27.0333  -30.2988   24.6171 C   0  0  0  0  0  0
  -27.6056  -32.4266   25.7519 C   0  0  0  0  0  0
  -27.5574  -37.1815   24.8436 C   0  0  0  0  0  0
  -21.4161  -29.3058   22.3653 N   0  0  0  0  0  0
  -26.4261  -37.3790   23.9413 N   0  0  0  0  0  0
  -24.6816  -31.0665   22.0955 N   0  0  0  0  0  0
  -23.4177  -28.8186   23.2981 O   0  0  0  0  0  0
  -28.3896  -26.5575   20.2140 O   0  0  0  0  0  0
  -26.5576  -34.8903   22.4649 O   0  0  0  0  0  0
  -23.5425  -32.1392   23.7421 O   0  0  0  0  0  0
  -29.9088  -19.5045   21.7435 C   0  0  0  0  0  0
  -30.4357  -19.2215   19.2798 C   0  0  0  0  0  0
  -27.8544  -22.8438   20.8676 C   0  0  0  0  0  0
  -30.3797  -17.9988   21.7675 C   0  0  0  0  0  0
  -29.9962  -17.7155   19.2752 C   0  0  0  0  0  0
  -27.4083  -24.3215   21.0054 C   0  0  0  0  0  0
  -29.6689  -24.3334   20.2673 C   0  0  0  0  0  0
  -29.7498  -20.1600   20.3269 C   0  0  2  0  0  0
  -29.3895  -22.8866   20.8460 C   0  0  2  0  0  0
  -29.6916  -17.1328   20.6821 C   0  0  1  0  0  0
  -28.3221  -25.0982   20.0427 C   0  0  2  0  0  0
  -31.6963  -21.8829   20.4405 C   0  0  0  0  0  0
  -30.1862  -21.6945   20.1525 C   0  0  1  0  0  0
  -29.7430  -15.6371   20.8477 N   0  0  0  0  0  0
  -31.4890  -12.5250   19.1538 H   0  0  0  0  0  0
  -30.3834  -11.3854   19.8675 H   0  0  0  0  0  0
  -29.7854  -11.8017   17.4583 H   0  0  0  0  0  0
  -29.6606  -13.5121   17.7697 H   0  0  0  0  0  0
  -27.8685  -11.3058   18.8392 H   0  0  0  0  0  0
  -27.3794  -12.6096   17.7887 H   0  0  0  0  0  0
  -27.6795  -14.2515   19.5478 H   0  0  0  0  0  0
  -28.7135  -12.0142   21.3636 H   0  0  0  0  0  0
  -28.4508  -13.6569   21.8625 H   0  0  0  0  0  0
  -25.2757   -9.5693   22.4750 H   0  0  0  0  0  0
  -24.0018   -7.4617   22.7455 H   0  0  0  0  0  0
  -21.0844   -8.8726   19.8934 H   0  0  0  0  0  0
  -22.3688  -10.9634   19.6142 H   0  0  0  0  0  0
  -21.1977   -7.6132   23.9738 H   0  0  0  0  0  0
  -21.1498   -6.0499   25.9093 H   0  0  0  0  0  0
  -22.0598   -2.7608   23.2836 H   0  0  0  0  0  0
  -22.4105  -11.9874   22.4799 H   0  0  0  0  0  0
  -21.1092  -13.1252   22.2561 H   0  0  0  0  0  0
  -24.6416  -15.8270   20.4989 H   0  0  0  0  0  0
  -26.2668  -15.6374   20.0770 H   0  0  0  0  0  0
  -26.7200  -32.5445   23.1131 H   0  0  0  0  0  0
  -25.0186  -33.9687   25.0505 H   0  0  0  0  0  0
  -22.7105  -31.3055   21.3936 H   0  0  0  0  0  0
  -23.3735  -35.9640   23.3236 H   0  0  0  0  0  0
  -24.3607  -36.8984   22.2057 H   0  0  0  0  0  0
  -23.7209  -37.6495   23.6676 H   0  0  0  0  0  0
  -26.0674  -31.5649   20.5969 H   0  0  0  0  0  0
  -26.8366  -30.8574   21.9903 H   0  0  0  0  0  0
  -28.1021  -29.0171   21.2117 H   0  0  0  0  0  0
  -26.0255  -25.9397   19.0002 H   0  0  0  0  0  0
  -23.9962  -27.2955   19.0002 H   0  0  0  0  0  0
  -23.7501  -30.5860   19.3960 H   0  0  0  0  0  0
  -22.7535  -29.2395   19.8529 H   0  0  0  0  0  0
  -25.1280  -36.1923   25.0826 H   0  0  0  0  0  0
  -20.9983  -28.3265   24.1378 H   0  0  0  0  0  0
  -20.5616  -26.2325   23.3602 H   0  0  0  0  0  0
  -21.6638  -26.7407   22.1226 H   0  0  0  0  0  0
  -19.6921  -25.6262   21.1250 H   0  0  0  0  0  0
  -19.6734  -27.3143   20.6695 H   0  0  0  0  0  0
  -17.4224  -26.6670   21.3980 H   0  0  0  0  0  0
  -18.0349  -26.0051   22.8964 H   0  0  0  0  0  0
  -19.7933  -30.7243   24.2276 H   0  0  0  0  0  0
  -17.5014  -31.6251   24.5161 H   0  0  0  0  0  0
  -15.5351  -30.2961   23.7671 H   0  0  0  0  0  0
  -15.8664  -28.0799   22.7067 H   0  0  0  0  0  0
  -24.5952  -30.7004   25.7817 H   0  0  0  0  0  0
  -24.8909  -32.2862   26.4866 H   0  0  0  0  0  0
  -25.8114  -30.8928   27.0252 H   0  0  0  0  0  0
  -26.2905  -29.6741   24.1204 H   0  0  0  0  0  0
  -27.4020  -29.7253   25.4688 H   0  0  0  0  0  0
  -27.8780  -30.4255   23.9388 H   0  0  0  0  0  0
  -27.2669  -33.3543   26.2140 H   0  0  0  0  0  0
  -28.3901  -32.6856   25.0389 H   0  0  0  0  0  0
  -28.0695  -31.8356   26.5434 H   0  0  0  0  0  0
  -28.2544  -38.0159   24.7549 H   0  0  0  0  0  0
  -28.1129  -36.2704   24.6174 H   0  0  0  0  0  0
  -27.2325  -37.1321   25.8842 H   0  0  0  0  0  0
  -20.9316  -29.8857   21.6935 H   0  0  0  0  0  0
  -26.0141  -38.2862   24.1448 H   0  0  0  0  0  0
  -30.5885  -20.0819   22.3670 H   0  0  0  0  0  0
  -28.9461  -19.5782   22.2512 H   0  0  0  0  0  0
  -30.2998  -19.6228   18.2761 H   0  0  0  0  0  0
  -31.5120  -19.2505   19.4516 H   0  0  0  0  0  0
  -27.4741  -22.4272   19.9330 H   0  0  0  0  0  0
  -27.4754  -22.2252   21.6826 H   0  0  0  0  0  0
  -30.1913  -17.5859   22.7601 H   0  0  0  0  0  0
  -31.4600  -17.9551   21.6254 H   0  0  0  0  0  0
  -30.7828  -17.1372   18.7901 H   0  0  0  0  0  0
  -29.1147  -17.5953   18.6416 H   0  0  0  0  0  0
  -27.5829  -24.6684   22.0261 H   0  0  0  0  0  0
  -26.3458  -24.4541   20.7978 H   0  0  0  0  0  0
  -30.2310  -24.2956   19.3335 H   0  0  0  0  0  0
  -30.2841  -24.8856   20.9790 H   0  0  0  0  0  0
  -28.6858  -20.1251   20.0828 H   0  0  0  0  0  0
  -29.6926  -22.9019   21.8955 H   0  0  0  0  0  0
  -28.6281  -17.3357   20.8326 H   0  0  0  0  0  0
  -28.0066  -24.8868   19.0203 H   0  0  0  0  0  0
  -32.3214  -21.3617   19.7166 H   0  0  0  0  0  0
  -31.9784  -21.5365   21.4334 H   0  0  0  0  0  0
  -31.9863  -22.9306   20.3904 H   0  0  0  0  0  0
  -30.0672  -21.8925   19.0863 H   0  0  0  0  0  0
  -28.8625  -15.2639   21.1700 H   0  0  0  0  0  0
  1 25  1  0  0  0
  1 30  2  0  0  0
  1 84  1  0  0  0
  2  3  1  0  0  0
  2 25  1  0  0  0
  2 85  1  0  0  0
  2 86  1  0  0  0
  3  4  1  0  0  0
  3 87  1  0  0  0
  3 88  1  0  0  0
  4  5  1  0  0  0
  4 89  1  0  0  0
  4 90  1  0  0  0
  5  6  1  0  0  0
  5 26  1  0  0  0
  5 91  1  0  0  0
  6 25  1  0  0  0
  6 92  1  0  0  0
  6 93  1  0  0  0
  7  8  2  0  0  0
  7 26  1  0  0  0
  7 29  1  0  0  0
  8  9  1  0  0  0
  8 22  1  0  0  0
  9 10  1  0  0  0
  9 27  2  0  0  0
 10 11  2  0  0  0
 10 15  1  0  0  0
 11 12  1  0  0  0
 11 94  1  0  0  0
 12 13  2  0  0  0
 12 95  1  0  0  0
 13 14  1  0  0  0
 13 31  1  0  0  0
 14 15  2  0  0  0
 14 96  1  0  0  0
 15 97  1  0  0  0
 16 17  2  0  0  0
 16 21  1  0  0  0
 16 31  1  0  0  0
 17 18  1  0  0  0
 17 98  1  0  0  0
 18 19  2  0  0  0
 18 99  1  0  0  0
 19 20  1  0  0  0
 19 24  1  0  0  0
 20 21  2  0  0  0
 20100  1  0  0  0
 21 23  1  0  0  0
 22 28  1  0  0  0
 22 32  2  0  0  0
 26 27  1  0  0  0
 28101  1  0  0  0
 28102  1  0  0  0
 29103  1  0  0  0
 29104  1  0  0  0
 33 34  1  0  0  0
 33 66  1  0  0  0
 33 70  2  0  0  0
 34 36  1  0  0  0
 34 59  1  0  0  0
 34105  1  0  0  0
 35 44  2  0  0  0
 35 45  1  0  0  0
 35 68  1  0  0  0
 36 56  1  0  0  0
 36106  1  0  0  0
 37 39  1  0  0  0
 37 47  1  0  0  0
 37 66  1  0  0  0
 37107  1  0  0  0
 38 43  2  0  0  0
 38 46  1  0  0  0
 38 47  1  0  0  0
 39 64  1  0  0  0
 39 67  2  0  0  0
 40 52  1  0  0  0
 40 53  2  0  0  0
 40 58  1  0  0  0
 41108  1  0  0  0
 41109  1  0  0  0
 41110  1  0  0  0
 41 48  1  0  0  0
 42 43  1  0  0  0
 42 66  1  0  0  0
 42111  1  0  0  0
 42112  1  0  0  0
 43 44  1  0  0  0
 44113  1  0  0  0
 45 46  2  0  0  0
 45114  1  0  0  0
 46115  1  0  0  0
 47116  1  0  0  0
 47117  1  0  0  0
 48 56  1  0  0  0
 48 65  1  0  0  0
 48118  1  0  0  0
 49 50  1  0  0  0
 49 53  1  0  0  0
 49 64  1  0  0  0
 49119  1  0  0  0
 50 51  1  0  0  0
 50120  1  0  0  0
 50121  1  0  0  0
 51 52  1  0  0  0
 51122  1  0  0  0
 51123  1  0  0  0
 52124  1  0  0  0
 52125  1  0  0  0
 53 54  1  0  0  0
 54 55  2  0  0  0
 54126  1  0  0  0
 55 57  1  0  0  0
 55127  1  0  0  0
 56 69  2  0  0  0
 57 58  2  0  0  0
 57128  1  0  0  0
 58129  1  0  0  0
 59 60  1  0  0  0
 59 61  1  0  0  0
 59 62  1  0  0  0
 60130  1  0  0  0
 60131  1  0  0  0
 60132  1  0  0  0
 61133  1  0  0  0
 61134  1  0  0  0
 61135  1  0  0  0
 62136  1  0  0  0
 62137  1  0  0  0
 62138  1  0  0  0
 63 65  1  0  0  0
 63139  1  0  0  0
 63140  1  0  0  0
 63141  1  0  0  0
 64142  1  0  0  0
 65143  1  0  0  0
 68 81  1  0  0  0
 71 74  1  0  0  0
 71144  1  0  0  0
 71145  1  0  0  0
 71 78  1  0  0  0
 72 75  1  0  0  0
 72 78  1  0  0  0
 72146  1  0  0  0
 72147  1  0  0  0
 73 76  1  0  0  0
 73148  1  0  0  0
 73149  1  0  0  0
 73 79  1  0  0  0
 74 80  1  0  0  0
 74150  1  0  0  0
 74151  1  0  0  0
 75 80  1  0  0  0
 75152  1  0  0  0
 75153  1  0  0  0
 76 81  1  0  0  0
 76154  1  0  0  0
 76155  1  0  0  0
 77 79  1  0  0  0
 77 81  1  0  0  0
 77156  1  0  0  0
 77157  1  0  0  0
 78 83  1  0  0  0
 78158  1  0  0  0
 79 83  1  0  0  0
 79159  1  0  0  0
 80 84  1  0  0  0
 80160  1  0  0  0
 81161  1  0  0  0
 82162  1  0  0  0
 82163  1  0  0  0
 82164  1  0  0  0
 82 83  1  0  0  0
 83165  1  0  0  0
 84166  1  0  0  0
M  ISO  4   1 100  68 101  81 101  84 100
M  END
> <chiral flag>
0

> <version>
0

> <s_m_source_file>
/data/baiqing/PycharmProjects/Reinvent-master-3.2/result/LINK_invent/BTK/process_docking_weight1_custom_sum_contain_oxygen_bond_distance_aromatic_linkinvent_7_9_3/rearranged_h_0145.sdf

> <i_m_source_file_index>
7

> <r_mmod_Potential_Energy-OPLS-2005>
164.002258300781

> <r_mmod_Stretch_Energy-OPLS-2005>
72.8949737548828

> <r_mmod_Bend_Energy-OPLS-2005>
196.340621948242

> <r_mmod_Torsional_Energy-OPLS-2005>
298.244476318359

> <r_mmod_Improper_Torsional_Energy-OPLS-2005>
5.36578130722046

> <r_mmod_Van_der_Waal_Energy-OPLS-2005>
124.569641113281

> <r_mmod_Electrostatic_Energy-OPLS-2005>
-380.832885742188

> <r_mmod_Solvation_Energy-OPLS-2005>
-194.07112121582

> <b_mmod_Minimization_Converged-OPLS-2005>
0

> <r_mmod_RMS_Derivative-OPLS-2005>
4.26387071609497

$$$$
7
                    3D
 Structure written by MMmdl.
167176  0  0  1  0            999 V2000
  -30.7331  -14.4049   20.6667 C   0  0  0  0  0  0
  -30.4212  -12.3047   19.4003 C   0  0  0  0  0  0
  -29.4901  -12.5310   18.1936 C   0  0  0  0  0  0
  -28.0123  -12.3831   18.6060 C   0  0  0  0  0  0
  -27.6640  -13.2032   19.8767 C   0  0  2  0  0  0
  -28.7003  -12.9455   20.9914 C   0  0  0  0  0  0
  -25.2603  -13.8154   20.5669 C   0  0  0  0  0  0
  -24.1850  -13.0443   20.9159 C   0  0  0  0  0  0
  -24.6391  -11.6904   20.8717 C   0  0  0  0  0  0
  -23.9057  -10.4294   21.0397 C   0  0  0  0  0  0
  -24.3614   -9.4217   21.9182 C   0  0  0  0  0  0
  -23.6297   -8.2249   22.0758 C   0  0  0  0  0  0
  -22.4277   -8.0280   21.3546 C   0  0  0  0  0  0
  -21.9911   -9.0240   20.4638 C   0  0  0  0  0  0
  -22.7235  -10.2122   20.3042 C   0  0  0  0  0  0
  -21.6853   -6.0735   22.5281 C   0  0  0  0  0  0
  -21.4004   -6.5635   23.8208 C   0  0  0  0  0  0
  -21.3655   -5.6791   24.9173 C   0  0  0  0  0  0
  -21.6049   -4.3055   24.7226 C   0  0  0  0  0  0
  -21.8826   -3.8146   23.4345 C   0  0  0  0  0  0
  -21.9194   -4.6965   22.3403 C   0  0  0  0  0  0
  -22.7872  -13.5241   21.1847 C   0  0  0  0  0  0
  -22.1668   -4.2153   21.0983 F   0  0  0  0  0  0
  -21.5630   -3.4546   25.7737 F   0  0  0  0  0  0
  -30.0379  -13.2578   20.4519 N   0  0  0  0  0  0
  -26.3034  -12.9313   20.3353 N   0  0  0  0  0  0
  -25.9311  -11.6473   20.5727 N   0  0  0  0  0  0
  -22.0512  -12.8211   22.0390 N   0  0  0  0  0  0
  -25.4351  -15.1881   20.4098 N   0  0  0  0  0  0
  -31.8035  -14.6627   20.1069 O   0  0  0  0  0  0
  -21.6641   -6.8876   21.4243 O   0  0  0  0  0  0
  -22.3548  -14.5559   20.6718 O   0  0  0  0  0  0
  -24.6133  -31.8693   23.2105 C   0  0  0  0  0  0
  -25.9034  -32.4833   23.8400 C   0  0  1  0  0  0
  -27.2426  -27.4575   20.0710 C   0  0  0  0  0  0
  -25.5877  -33.8630   24.2336 N   0  0  0  0  0  0
  -23.4000  -30.4929   21.5510 C   0  0  2  0  0  0
  -24.8443  -28.9588   20.1159 C   0  0  0  0  0  0
  -22.7388  -29.4685   22.5008 C   0  0  0  0  0  0
  -18.0268  -28.1385   22.8522 C   0  0  0  0  0  0
  -24.1465  -36.7300   23.2649 C   0  0  0  0  0  0
  -25.9253  -30.8389   21.3597 C   0  0  0  0  0  0
  -26.0024  -29.4722   20.7120 C   0  0  0  0  0  0
  -27.1977  -28.7219   20.6984 C   0  0  0  0  0  0
  -26.0551  -26.9413   19.5000 C   0  0  0  0  0  0
  -24.8630  -27.6883   19.5159 C   0  0  0  0  0  0
  -23.6059  -29.8226   20.1657 C   0  0  0  0  0  0
  -25.4097  -36.3112   24.0344 C   0  0  1  0  0  0
  -20.5854  -28.3673   23.1334 C   0  0  2  0  0  0
  -20.6756  -26.9412   22.5424 C   0  0  0  0  0  0
  -19.5728  -26.6394   21.5233 C   0  0  0  0  0  0
  -18.1908  -26.7941   22.1638 C   0  0  0  0  0  0
  -19.1520  -28.8845   23.2930 C   0  0  0  0  0  0
  -18.9445  -30.1451   23.8945 C   0  0  0  0  0  0
  -17.6450  -30.6601   24.0584 C   0  0  0  0  0  0
  -25.9023  -34.9484   23.5144 C   0  0  0  0  0  0
  -16.5344  -29.9115   23.6324 C   0  0  0  0  0  0
  -16.7261  -28.6518   23.0380 C   0  0  0  0  0  0
  -26.4466  -31.6606   25.0723 C   0  0  0  0  0  0
  -25.3742  -31.3663   26.1467 C   0  0  0  0  0  0
  -27.0289  -30.3060   24.6060 C   0  0  0  0  0  0
  -27.6033  -32.4319   25.7510 C   0  0  0  0  0  0
  -27.5575  -37.1795   24.8479 C   0  0  0  0  0  0
  -21.4121  -29.3052   22.3744 N   0  0  0  0  0  0
  -26.4280  -37.3805   23.9435 N   0  0  0  0  0  0
  -24.6651  -31.0811   22.0999 N   0  0  0  0  0  0
  -23.4170  -28.8224   23.3045 O   0  0  0  0  0  0
  -28.4362  -26.7671   20.0845 O   0  0  0  0  0  0
  -26.5605  -34.8927   22.4718 O   0  0  0  0  0  0
  -23.5328  -32.1442   23.7502 O   0  0  0  0  0  0
  -30.4030  -22.0461   20.2493 C   0  0  0  0  0  0
  -28.3337  -21.8186   21.4747 C   0  0  0  0  0  0
  -29.9882  -19.9961   21.5560 C   0  0  0  0  0  0
  -30.8241  -20.7798   20.7091 C   0  0  0  0  0  0
  -28.7416  -20.5585   21.9650 C   0  0  0  0  0  0
  -29.1465  -22.5764   20.6154 C   0  0  0  0  0  0
  -31.1098  -17.5593   21.1306 C   0  0  0  0  0  0
  -29.5653  -17.4551   22.4944 C   0  0  0  0  0  0
  -30.4812  -18.6235   22.0652 C   0  0  2  0  0  0
  -30.7007  -16.4741   22.1464 C   0  0  2  0  0  0
  -32.2079  -20.3163   20.2802 C   0  0  0  0  0  0
  -27.8117  -19.8820   22.9619 C   0  0  0  0  0  0
  -31.6830  -16.0881   23.2602 C   0  0  0  0  0  0
  -28.7610  -25.9002   18.9937 C   0  0  0  0  0  0
  -29.5385  -24.6755   19.4958 C   0  0  0  0  0  0
  -30.1583  -15.2495   21.5420 N   0  0  0  0  0  0
  -28.6584  -23.7971   20.1945 O   0  0  0  0  0  0
  -31.4660  -12.4116   19.1037 H   0  0  0  0  0  0
  -30.3215  -11.2840   19.7723 H   0  0  0  0  0  0
  -29.7289  -11.8258   17.3966 H   0  0  0  0  0  0
  -29.6573  -13.5275   17.7812 H   0  0  0  0  0  0
  -27.8225  -11.3236   18.7846 H   0  0  0  0  0  0
  -27.3608  -12.6751   17.7814 H   0  0  0  0  0  0
  -27.7204  -14.2579   19.6064 H   0  0  0  0  0  0
  -28.6715  -11.8989   21.2984 H   0  0  0  0  0  0
  -28.4414  -13.5092   21.8880 H   0  0  0  0  0  0
  -25.2757   -9.5707   22.4755 H   0  0  0  0  0  0
  -24.0008   -7.4651   22.7486 H   0  0  0  0  0  0
  -21.0847   -8.8747   19.8937 H   0  0  0  0  0  0
  -22.3698  -10.9653   19.6142 H   0  0  0  0  0  0
  -21.1981   -7.6138   23.9717 H   0  0  0  0  0  0
  -21.1471   -6.0515   25.9074 H   0  0  0  0  0  0
  -22.0604   -2.7609   23.2847 H   0  0  0  0  0  0
  -22.4114  -11.9846   22.4747 H   0  0  0  0  0  0
  -21.1136  -13.1226   22.2612 H   0  0  0  0  0  0
  -24.6746  -15.8500   20.5194 H   0  0  0  0  0  0
  -26.2970  -15.6235   20.1061 H   0  0  0  0  0  0
  -26.7117  -32.5539   23.1172 H   0  0  0  0  0  0
  -25.0001  -33.9787   25.0456 H   0  0  0  0  0  0
  -22.6900  -31.3099   21.4085 H   0  0  0  0  0  0
  -23.3744  -35.9614   23.3301 H   0  0  0  0  0  0
  -24.3557  -36.8935   22.2067 H   0  0  0  0  0  0
  -23.7181  -37.6481   23.6670 H   0  0  0  0  0  0
  -26.0285  -31.6017   20.5864 H   0  0  0  0  0  0
  -26.8179  -30.8999   21.9701 H   0  0  0  0  0  0
  -28.0919  -29.1183   21.1594 H   0  0  0  0  0  0
  -26.0163  -25.9555   19.0621 H   0  0  0  0  0  0
  -23.9665  -27.2767   19.0726 H   0  0  0  0  0  0
  -23.7113  -30.5942   19.4024 H   0  0  0  0  0  0
  -22.7312  -29.2394   19.8726 H   0  0  0  0  0  0
  -25.1268  -36.1987   25.0835 H   0  0  0  0  0  0
  -20.9944  -28.3249   24.1459 H   0  0  0  0  0  0
  -20.5683  -26.2298   23.3624 H   0  0  0  0  0  0
  -21.6630  -26.7478   22.1214 H   0  0  0  0  0  0
  -19.6888  -25.6315   21.1256 H   0  0  0  0  0  0
  -19.6653  -27.3232   20.6786 H   0  0  0  0  0  0
  -17.4175  -26.6746   21.4024 H   0  0  0  0  0  0
  -18.0265  -26.0068   22.9011 H   0  0  0  0  0  0
  -19.7906  -30.7260   24.2346 H   0  0  0  0  0  0
  -17.4998  -31.6285   24.5182 H   0  0  0  0  0  0
  -15.5354  -30.3045   23.7598 H   0  0  0  0  0  0
  -15.8660  -28.0845   22.7097 H   0  0  0  0  0  0
  -24.5922  -30.7012   25.7782 H   0  0  0  0  0  0
  -24.8918  -32.2788   26.4986 H   0  0  0  0  0  0
  -25.8113  -30.8775   27.0186 H   0  0  0  0  0  0
  -26.2797  -29.6824   24.1160 H   0  0  0  0  0  0
  -27.4124  -29.7297   25.4494 H   0  0  0  0  0  0
  -27.8608  -30.4400   23.9139 H   0  0  0  0  0  0
  -27.2659  -33.3628   26.2081 H   0  0  0  0  0  0
  -28.3870  -32.6869   25.0364 H   0  0  0  0  0  0
  -28.0662  -31.8437   26.5441 H   0  0  0  0  0  0
  -28.2583  -38.0104   24.7562 H   0  0  0  0  0  0
  -28.1066  -36.2633   24.6252 H   0  0  0  0  0  0
  -27.2280  -37.1399   25.8876 H   0  0  0  0  0  0
  -20.9276  -29.8796   21.6989 H   0  0  0  0  0  0
  -26.0156  -38.2871   24.1474 H   0  0  0  0  0  0
  -31.0736  -22.6009   19.6100 H   0  0  0  0  0  0
  -27.3814  -22.2330   21.7793 H   0  0  0  0  0  0
  -32.1863  -17.6430   20.9824 H   0  0  0  0  0  0
  -30.5864  -17.4839   20.1745 H   0  0  0  0  0  0
  -28.6967  -17.3449   21.8402 H   0  0  0  0  0  0
  -29.2706  -17.4601   23.5442 H   0  0  0  0  0  0
  -31.1725  -18.8501   22.8789 H   0  0  0  0  0  0
  -32.7976  -21.1373   19.8698 H   0  0  0  0  0  0
  -32.1326  -19.5541   19.5046 H   0  0  0  0  0  0
  -32.7690  -19.9133   21.1226 H   0  0  0  0  0  0
  -27.0375  -20.5671   23.3103 H   0  0  0  0  0  0
  -28.3564  -19.5534   23.8466 H   0  0  0  0  0  0
  -27.3031  -19.0299   22.5137 H   0  0  0  0  0  0
  -32.1240  -16.9601   23.7438 H   0  0  0  0  0  0
  -32.5078  -15.4855   22.8780 H   0  0  0  0  0  0
  -31.1889  -15.5075   24.0404 H   0  0  0  0  0  0
  -27.9239  -25.5638   18.3877 H   0  0  0  0  0  0
  -29.4018  -26.4681   18.3177 H   0  0  0  0  0  0
  -30.3682  -24.9815   20.1348 H   0  0  0  0  0  0
  -29.9529  -24.1711   18.6216 H   0  0  0  0  0  0
  -29.2723  -14.9312   21.9053 H   0  0  0  0  0  0
  1 25  1  0  0  0
  1 30  2  0  0  0
  1 86  1  0  0  0
  2  3  1  0  0  0
  2 25  1  0  0  0
  2 88  1  0  0  0
  2 89  1  0  0  0
  3  4  1  0  0  0
  3 90  1  0  0  0
  3 91  1  0  0  0
  4  5  1  0  0  0
  4 92  1  0  0  0
  4 93  1  0  0  0
  5  6  1  0  0  0
  5 26  1  0  0  0
  5 94  1  0  0  0
  6 25  1  0  0  0
  6 95  1  0  0  0
  6 96  1  0  0  0
  7  8  2  0  0  0
  7 26  1  0  0  0
  7 29  1  0  0  0
  8  9  1  0  0  0
  8 22  1  0  0  0
  9 10  1  0  0  0
  9 27  2  0  0  0
 10 11  2  0  0  0
 10 15  1  0  0  0
 11 12  1  0  0  0
 11 97  1  0  0  0
 12 13  2  0  0  0
 12 98  1  0  0  0
 13 14  1  0  0  0
 13 31  1  0  0  0
 14 15  2  0  0  0
 14 99  1  0  0  0
 15100  1  0  0  0
 16 17  2  0  0  0
 16 21  1  0  0  0
 16 31  1  0  0  0
 17 18  1  0  0  0
 17101  1  0  0  0
 18 19  2  0  0  0
 18102  1  0  0  0
 19 20  1  0  0  0
 19 24  1  0  0  0
 20 21  2  0  0  0
 20103  1  0  0  0
 21 23  1  0  0  0
 22 28  1  0  0  0
 22 32  2  0  0  0
 26 27  1  0  0  0
 28104  1  0  0  0
 28105  1  0  0  0
 29106  1  0  0  0
 29107  1  0  0  0
 33 34  1  0  0  0
 33 66  1  0  0  0
 33 70  2  0  0  0
 34 36  1  0  0  0
 34 59  1  0  0  0
 34108  1  0  0  0
 35 44  2  0  0  0
 35 45  1  0  0  0
 35 68  1  0  0  0
 36 56  1  0  0  0
 36109  1  0  0  0
 37 39  1  0  0  0
 37 47  1  0  0  0
 37 66  1  0  0  0
 37110  1  0  0  0
 38 43  2  0  0  0
 38 46  1  0  0  0
 38 47  1  0  0  0
 39 64  1  0  0  0
 39 67  2  0  0  0
 40 52  1  0  0  0
 40 53  2  0  0  0
 40 58  1  0  0  0
 41111  1  0  0  0
 41112  1  0  0  0
 41113  1  0  0  0
 41 48  1  0  0  0
 42 43  1  0  0  0
 42 66  1  0  0  0
 42114  1  0  0  0
 42115  1  0  0  0
 43 44  1  0  0  0
 44116  1  0  0  0
 45 46  2  0  0  0
 45117  1  0  0  0
 46118  1  0  0  0
 47119  1  0  0  0
 47120  1  0  0  0
 48 56  1  0  0  0
 48 65  1  0  0  0
 48121  1  0  0  0
 49 50  1  0  0  0
 49 53  1  0  0  0
 49 64  1  0  0  0
 49122  1  0  0  0
 50 51  1  0  0  0
 50123  1  0  0  0
 50124  1  0  0  0
 51 52  1  0  0  0
 51125  1  0  0  0
 51126  1  0  0  0
 52127  1  0  0  0
 52128  1  0  0  0
 53 54  1  0  0  0
 54 55  2  0  0  0
 54129  1  0  0  0
 55 57  1  0  0  0
 55130  1  0  0  0
 56 69  2  0  0  0
 57 58  2  0  0  0
 57131  1  0  0  0
 58132  1  0  0  0
 59 60  1  0  0  0
 59 61  1  0  0  0
 59 62  1  0  0  0
 60133  1  0  0  0
 60134  1  0  0  0
 60135  1  0  0  0
 61136  1  0  0  0
 61137  1  0  0  0
 61138  1  0  0  0
 62139  1  0  0  0
 62140  1  0  0  0
 62141  1  0  0  0
 63 65  1  0  0  0
 63142  1  0  0  0
 63143  1  0  0  0
 63144  1  0  0  0
 64145  1  0  0  0
 65146  1  0  0  0
 68 84  1  0  0  0
 71 74  2  0  0  0
 71 76  1  0  0  0
 71147  1  0  0  0
 72 75  1  0  0  0
 72 76  2  0  0  0
 72148  1  0  0  0
 73 74  1  0  0  0
 73 75  2  0  0  0
 73 79  1  0  0  0
 74 81  1  0  0  0
 75 82  1  0  0  0
 76 87  1  0  0  0
 77 79  1  0  0  0
 77 80  1  0  0  0
 77149  1  0  0  0
 77150  1  0  0  0
 78 79  1  0  0  0
 78 80  1  0  0  0
 78151  1  0  0  0
 78152  1  0  0  0
 79153  1  0  0  0
 80 83  1  0  0  0
 80 86  1  0  0  0
 81154  1  0  0  0
 81155  1  0  0  0
 81156  1  0  0  0
 82157  1  0  0  0
 82158  1  0  0  0
 82159  1  0  0  0
 83160  1  0  0  0
 83161  1  0  0  0
 83162  1  0  0  0
 84 85  1  0  0  0
 84163  1  0  0  0
 84164  1  0  0  0
 85 87  1  0  0  0
 85165  1  0  0  0
 85166  1  0  0  0
 86167  1  0  0  0
M  ISO  4   1 100  68 101  84 101  86 100
M  END
> <chiral flag>
0

> <version>
0

> <s_m_source_file>
/data/baiqing/PycharmProjects/Reinvent-master-3.2/result/LINK_invent/BTK/process_docking_weight1_custom_sum_contain_oxygen_bond_distance_aromatic_linkinvent_7_9_3/rearranged_h_0145.sdf

> <i_m_source_file_index>
8

> <r_mmod_Potential_Energy-OPLS-2005>
2.53885960578918

> <r_mmod_Stretch_Energy-OPLS-2005>
38.3213386535645

> <r_mmod_Bend_Energy-OPLS-2005>
130.897521972656

> <r_mmod_Torsional_Energy-OPLS-2005>
210.677352905273

> <r_mmod_Improper_Torsional_Energy-OPLS-2005>
2.02943778038025

> <r_mmod_Van_der_Waal_Energy-OPLS-2005>
170.339157104492

> <r_mmod_Electrostatic_Energy-OPLS-2005>
-348.408569335938

> <r_mmod_Solvation_Energy-OPLS-2005>
-209.813522338867

> <b_mmod_Minimization_Converged-OPLS-2005>
0

> <r_mmod_RMS_Derivative-OPLS-2005>
1.81853139400482

$$$$
8
                    3D
 Structure written by MMmdl.
162172  0  0  1  0            999 V2000
  -29.3722  -17.0399   20.5918 C   0  0  0  0  0  0
  -30.1193  -14.2349   19.6499 C   0  0  0  0  0  0
  -29.5472  -13.2018   18.5464 C   0  0  0  0  0  0
  -28.2809  -12.4780   18.9988 C   0  0  0  0  0  0
  -27.5237  -13.4803   19.8719 C   0  0  2  0  0  0
  -28.3429  -14.2761   20.9648 C   0  0  0  0  0  0
  -25.1766  -13.8499   20.5928 C   0  0  0  0  0  0
  -24.1402  -13.0405   20.9342 C   0  0  0  0  0  0
  -24.6390  -11.7008   20.8737 C   0  0  0  0  0  0
  -23.9184  -10.4282   21.0329 C   0  0  0  0  0  0
  -24.3707   -9.4206   21.9129 C   0  0  0  0  0  0
  -23.6349   -8.2258   22.0733 C   0  0  0  0  0  0
  -22.4321   -8.0288   21.3536 C   0  0  0  0  0  0
  -21.9973   -9.0247   20.4616 C   0  0  0  0  0  0
  -22.7335  -10.2106   20.2995 C   0  0  0  0  0  0
  -21.6866   -6.0741   22.5287 C   0  0  0  0  0  0
  -21.4023   -6.5640   23.8220 C   0  0  0  0  0  0
  -21.3671   -5.6789   24.9179 C   0  0  0  0  0  0
  -21.6045   -4.3050   24.7225 C   0  0  0  0  0  0
  -21.8820   -3.8148   23.4344 C   0  0  0  0  0  0
  -21.9197   -4.6968   22.3403 C   0  0  0  0  0  0
  -22.7403  -13.5000   21.1976 C   0  0  0  0  0  0
  -22.1662   -4.2153   21.0979 F   0  0  0  0  0  0
  -21.5631   -3.4535   25.7735 F   0  0  0  0  0  0
  -29.1675  -15.4135   20.3276 N   0  0  0  0  0  0
  -26.2419  -13.0166   20.3546 N   0  0  0  0  0  0
  -25.9405  -11.7049   20.5687 N   0  0  0  0  0  0
  -22.0169  -12.7934   22.0561 N   0  0  0  0  0  0
  -25.3012  -15.2281   20.4346 N   0  0  0  0  0  0
  -30.6490  -16.8233   20.5067 O   0  0  0  0  0  0
  -21.6661   -6.8894   21.4253 O   0  0  0  0  0  0
  -22.3039  -14.5292   20.6826 O   0  0  0  0  0  0
  -24.7587  -31.4708   23.3996 C   0  0  0  0  0  0
  -25.9429  -32.3488   23.8949 C   0  0  1  0  0  0
  -27.8283  -26.9193   19.4303 C   0  0  0  0  0  0
  -25.5441  -33.7591   24.1816 N   0  0  0  0  0  0
  -23.4017  -29.3213   22.0720 C   0  0  2  0  0  0
  -25.4328  -28.0088   19.0843 C   0  0  0  0  0  0
  -22.5255  -29.0110   23.0561 C   0  0  0  0  0  0
  -17.9116  -28.1188   22.8396 C   0  0  0  0  0  0
  -24.1448  -36.6821   23.2639 C   0  0  0  0  0  0
  -26.8205  -29.9978   21.8850 C   0  0  0  0  0  0
  -26.8196  -28.7626   20.0974 C   0  0  0  0  0  0
  -27.9485  -28.1032   20.1191 C   0  0  0  0  0  0
  -26.8704  -26.6053   18.4275 C   0  0  0  0  0  0
  -25.6511  -27.1668   18.1520 C   0  0  0  0  0  0
  -23.2719  -27.9777   20.1156 C   0  0  0  0  0  0
  -25.4081  -36.2444   24.0236 C   0  0  1  0  0  0
  -20.3840  -28.1851   23.3135 C   0  0  2  0  0  0
  -20.5084  -26.8079   22.6235 C   0  0  0  0  0  0
  -19.4772  -26.6174   21.5221 C   0  0  0  0  0  0
  -18.0776  -26.7860   22.1232 C   0  0  0  0  0  0
  -19.0241  -28.8146   23.3469 C   0  0  0  0  0  0
  -18.8721  -30.0923   23.9294 C   0  0  0  0  0  0
  -17.5936  -30.6569   24.0530 C   0  0  0  0  0  0
  -25.8967  -34.8671   23.4985 C   0  0  0  0  0  0
  -16.4723  -29.9365   23.6043 C   0  0  0  0  0  0
  -16.6314  -28.6757   22.9976 C   0  0  0  0  0  0
  -26.5157  -31.6766   25.1956 C   0  0  0  0  0  0
  -25.4223  -31.4103   26.2602 C   0  0  0  0  0  0
  -27.2202  -30.3294   24.9309 C   0  0  0  0  0  0
  -27.6117  -32.5665   25.8117 C   0  0  0  0  0  0
  -27.5472  -37.1494   24.8462 C   0  0  0  0  0  0
  -21.2708  -29.0754   22.6838 N   0  0  0  0  0  0
  -26.4219  -37.3238   23.9328 N   0  0  0  0  0  0
  -25.0223  -30.2323   22.8096 N   0  0  0  0  0  0
  -23.0238  -28.6020   24.0807 O   0  0  0  0  0  0
  -28.6936  -25.9729   19.8403 O   0  0  0  0  0  0
  -26.5952  -34.8265   22.4830 O   0  0  0  0  0  0
  -23.6139  -31.9048   23.6209 O   0  0  0  0  0  0
  -26.8666  -24.7381   21.9962 C   0  0  0  0  0  0
  -25.1159  -25.5317   20.4125 C   0  0  0  0  0  0
  -26.0972  -26.3529   21.8058 C   0  0  0  0  0  0
  -26.9297  -23.1562   21.2397 C   0  0  0  0  0  0
  -25.1131  -27.0323   21.0823 C   0  0  0  0  0  0
  -25.9738  -24.0978   20.3697 C   0  0  0  0  0  0
  -25.5677  -28.0285   22.0174 C   0  0  0  0  0  0
  -24.5864  -29.6631   20.1876 C   0  0  0  0  0  0
  -25.0643  -30.1712   20.5619 C   0  0  0  0  0  0
  -27.8881  -20.2547   22.4473 C   0  0  0  0  0  0
  -29.0293  -19.2068   22.1258 C   0  0  0  0  0  0
  -27.9576  -20.9456   21.1031 C   0  0  2  0  0  0
  -28.7807  -24.6566   19.1956 C   0  0  0  0  0  0
  -27.6128  -23.6882   18.6687 C   0  0  0  0  0  0
  -28.4801  -18.7397   20.8277 N   0  0  0  0  0  0
  -26.2063  -23.7910   19.0560 O   0  0  0  0  0  0
  -30.9247  -14.7682   19.1427 H   0  0  0  0  0  0
  -30.6568  -13.6824   20.4241 H   0  0  0  0  0  0
  -30.3144  -12.4825   18.2568 H   0  0  0  0  0  0
  -29.3177  -13.7706   17.6443 H   0  0  0  0  0  0
  -28.5480  -11.6032   19.5935 H   0  0  0  0  0  0
  -27.6866  -12.1324   18.1516 H   0  0  0  0  0  0
  -27.2541  -14.2406   19.1369 H   0  0  0  0  0  0
  -28.9044  -13.6099   21.6238 H   0  0  0  0  0  0
  -27.6545  -14.7763   21.6453 H   0  0  0  0  0  0
  -25.2839   -9.5691   22.4714 H   0  0  0  0  0  0
  -24.0041   -7.4658   22.7469 H   0  0  0  0  0  0
  -21.0902   -8.8775   19.8923 H   0  0  0  0  0  0
  -22.3784  -10.9635   19.6099 H   0  0  0  0  0  0
  -21.2018   -7.6151   23.9724 H   0  0  0  0  0  0
  -21.1489   -6.0516   25.9080 H   0  0  0  0  0  0
  -22.0586   -2.7611   23.2843 H   0  0  0  0  0  0
  -22.3915  -11.9665   22.4969 H   0  0  0  0  0  0
  -21.0753  -13.0842   22.2784 H   0  0  0  0  0  0
  -24.5090  -15.8535   20.5342 H   0  0  0  0  0  0
  -26.1374  -15.6925   20.1055 H   0  0  0  0  0  0
  -26.7218  -32.3742   23.1372 H   0  0  0  0  0  0
  -24.9147  -33.8802   24.9616 H   0  0  0  0  0  0
  -22.8900  -30.2606   21.8132 H   0  0  0  0  0  0
  -23.3675  -35.9185   23.3252 H   0  0  0  0  0  0
  -24.3505  -36.8525   22.2063 H   0  0  0  0  0  0
  -23.7265  -37.5999   23.6773 H   0  0  0  0  0  0
  -27.2152  -30.9754   21.5996 H   0  0  0  0  0  0
  -27.6228  -29.6275   22.5138 H   0  0  0  0  0  0
  -28.7247  -28.2917   20.8473 H   0  0  0  0  0  0
  -27.0555  -25.7890   17.7622 H   0  0  0  0  0  0
  -24.9108  -26.7172   17.5048 H   0  0  0  0  0  0
  -22.5282  -28.3694   19.4156 H   0  0  0  0  0  0
  -22.8542  -26.9856   20.3156 H   0  0  0  0  0  0
  -25.1302  -36.1253   25.0733 H   0  0  0  0  0  0
  -20.6402  -28.0495   24.3693 H   0  0  0  0  0  0
  -20.3168  -26.0413   23.3767 H   0  0  0  0  0  0
  -21.5149  -26.5924   22.2646 H   0  0  0  0  0  0
  -19.5771  -25.6295   21.0711 H   0  0  0  0  0  0
  -19.6400  -27.3470   20.7275 H   0  0  0  0  0  0
  -17.3297  -26.7020   21.3334 H   0  0  0  0  0  0
  -17.8700  -25.9831   22.8319 H   0  0  0  0  0  0
  -19.7322  -30.6277   24.3083 H   0  0  0  0  0  0
  -17.4698  -31.6291   24.5096 H   0  0  0  0  0  0
  -15.4831  -30.3607   23.7101 H   0  0  0  0  0  0
  -15.7607  -28.1459   22.6345 H   0  0  0  0  0  0
  -24.7210  -30.6280   25.9668 H   0  0  0  0  0  0
  -24.8447  -32.3085   26.4793 H   0  0  0  0  0  0
  -25.8640  -31.0834   27.2024 H   0  0  0  0  0  0
  -26.5833  -29.5310   24.5629 H   0  0  0  0  0  0
  -27.6095  -29.9294   25.8685 H   0  0  0  0  0  0
  -28.1031  -30.4640   24.3091 H   0  0  0  0  0  0
  -27.2139  -33.5125   26.1803 H   0  0  0  0  0  0
  -28.3889  -32.8039   25.0837 H   0  0  0  0  0  0
  -28.0983  -32.0872   26.6624 H   0  0  0  0  0  0
  -28.2481  -37.9784   24.7383 H   0  0  0  0  0  0
  -28.0973  -36.2281   24.6482 H   0  0  0  0  0  0
  -27.2135  -37.1324   25.8852 H   0  0  0  0  0  0
  -21.0165  -29.4519   21.7817 H   0  0  0  0  0  0
  -26.0005  -38.2296   24.1197 H   0  0  0  0  0  0
  -27.5518  -24.7623   22.8327 H   0  0  0  0  0  0
  -24.4994  -25.5325   19.5276 H   0  0  0  0  0  0
  -26.4105  -28.0450   22.7274 H   0  0  0  0  0  0
  -24.9913  -27.9312   22.9741 H   0  0  0  0  0  0
  -23.5769  -30.1203   19.9713 H   0  0  0  0  0  0
  -24.4950  -29.9415   19.0958 H   0  0  0  0  0  0
  -25.8155  -30.7303   19.9381 H   0  0  0  0  0  0
  -24.6514  -31.1693   20.8583 H   0  0  0  0  0  0
  -28.1538  -20.9116   23.2743 H   0  0  0  0  0  0
  -26.9149  -19.7979   22.6362 H   0  0  0  0  0  0
  -29.0733  -18.4287   22.8899 H   0  0  0  0  0  0
  -30.0160  -19.6650   22.0363 H   0  0  0  0  0  0
  -27.0602  -20.8034   20.4993 H   0  0  0  0  0  0
  -29.5001  -24.7631   18.3821 H   0  0  0  0  0  0
  -29.3233  -24.0713   19.9378 H   0  0  0  0  0  0
  -27.9326  -22.6581   18.8255 H   0  0  0  0  0  0
  -27.6100  -23.7472   17.5797 H   0  0  0  0  0  0
  1 25  1  0  0  0
  1 30  2  0  0  0
  1 85  1  0  0  0
  2  3  1  0  0  0
  2 25  1  0  0  0
  2 87  1  0  0  0
  2 88  1  0  0  0
  3  4  1  0  0  0
  3 89  1  0  0  0
  3 90  1  0  0  0
  4  5  1  0  0  0
  4 91  1  0  0  0
  4 92  1  0  0  0
  5  6  1  0  0  0
  5 26  1  0  0  0
  5 93  1  0  0  0
  6 25  1  0  0  0
  6 94  1  0  0  0
  6 95  1  0  0  0
  7  8  2  0  0  0
  7 26  1  0  0  0
  7 29  1  0  0  0
  8  9  1  0  0  0
  8 22  1  0  0  0
  9 10  1  0  0  0
  9 27  2  0  0  0
 10 11  2  0  0  0
 10 15  1  0  0  0
 11 12  1  0  0  0
 11 96  1  0  0  0
 12 13  2  0  0  0
 12 97  1  0  0  0
 13 14  1  0  0  0
 13 31  1  0  0  0
 14 15  2  0  0  0
 14 98  1  0  0  0
 15 99  1  0  0  0
 16 17  2  0  0  0
 16 21  1  0  0  0
 16 31  1  0  0  0
 17 18  1  0  0  0
 17100  1  0  0  0
 18 19  2  0  0  0
 18101  1  0  0  0
 19 20  1  0  0  0
 19 24  1  0  0  0
 20 21  2  0  0  0
 20102  1  0  0  0
 21 23  1  0  0  0
 22 28  1  0  0  0
 22 32  2  0  0  0
 26 27  1  0  0  0
 28103  1  0  0  0
 28104  1  0  0  0
 29105  1  0  0  0
 29106  1  0  0  0
 33 34  1  0  0  0
 33 66  1  0  0  0
 33 70  2  0  0  0
 34 36  1  0  0  0
 34 59  1  0  0  0
 34107  1  0  0  0
 35 44  2  0  0  0
 35 45  1  0  0  0
 35 68  1  0  0  0
 36 56  1  0  0  0
 36108  1  0  0  0
 37 39  1  0  0  0
 37 47  1  0  0  0
 37 66  1  0  0  0
 37109  1  0  0  0
 38 43  2  0  0  0
 38 46  1  0  0  0
 38 47  1  0  0  0
 39 64  1  0  0  0
 39 67  2  0  0  0
 40 52  1  0  0  0
 40 53  2  0  0  0
 40 58  1  0  0  0
 41110  1  0  0  0
 41111  1  0  0  0
 41112  1  0  0  0
 41 48  1  0  0  0
 42 43  1  0  0  0
 42 66  1  0  0  0
 42113  1  0  0  0
 42114  1  0  0  0
 43 44  1  0  0  0
 44115  1  0  0  0
 45 46  2  0  0  0
 45116  1  0  0  0
 46117  1  0  0  0
 47118  1  0  0  0
 47119  1  0  0  0
 48 56  1  0  0  0
 48 65  1  0  0  0
 48120  1  0  0  0
 49 50  1  0  0  0
 49 53  1  0  0  0
 49 64  1  0  0  0
 49121  1  0  0  0
 50 51  1  0  0  0
 50122  1  0  0  0
 50123  1  0  0  0
 51 52  1  0  0  0
 51124  1  0  0  0
 51125  1  0  0  0
 52126  1  0  0  0
 52127  1  0  0  0
 53 54  1  0  0  0
 54 55  2  0  0  0
 54128  1  0  0  0
 55 57  1  0  0  0
 55129  1  0  0  0
 56 69  2  0  0  0
 57 58  2  0  0  0
 57130  1  0  0  0
 58131  1  0  0  0
 59 60  1  0  0  0
 59 61  1  0  0  0
 59 62  1  0  0  0
 60132  1  0  0  0
 60133  1  0  0  0
 60134  1  0  0  0
 61135  1  0  0  0
 61136  1  0  0  0
 61137  1  0  0  0
 62138  1  0  0  0
 62139  1  0  0  0
 62140  1  0  0  0
 63 65  1  0  0  0
 63141  1  0  0  0
 63142  1  0  0  0
 63143  1  0  0  0
 64144  1  0  0  0
 65145  1  0  0  0
 68 83  1  0  0  0
 71 73  2  0  0  0
 71 74  1  0  0  0
 71146  1  0  0  0
 72 75  2  0  0  0
 72 76  1  0  0  0
 72147  1  0  0  0
 73 75  1  0  0  0
 73 77  1  0  0  0
 74 76  2  0  0  0
 74 82  1  0  0  0
 75 78  1  0  0  0
 76 86  1  0  0  0
 77 79  1  0  0  0
 77148  1  0  0  0
 77149  1  0  0  0
 78 79  1  0  0  0
 78150  1  0  0  0
 78151  1  0  0  0
 79152  1  0  0  0
 79153  1  0  0  0
 80 81  1  0  0  0
 80 82  1  0  0  0
 80154  1  0  0  0
 80155  1  0  0  0
 81 85  1  0  0  0
 81156  1  0  0  0
 81157  1  0  0  0
 82 85  1  0  0  0
 82158  1  0  0  0
 83 84  1  0  0  0
 83159  1  0  0  0
 83160  1  0  0  0
 84 86  1  0  0  0
 84161  1  0  0  0
 84162  1  0  0  0
M  ISO  4   1 100  68 101  83 101  85 100
M  END
> <chiral flag>
0

> <version>
0

> <s_m_source_file>
/data/baiqing/PycharmProjects/Reinvent-master-3.2/result/LINK_invent/BTK/process_docking_weight1_custom_sum_contain_oxygen_bond_distance_aromatic_linkinvent_7_9_3/rearranged_h_0145.sdf

> <i_m_source_file_index>
9

> <r_mmod_Potential_Energy-OPLS-2005>
23743.41796875

> <r_mmod_Stretch_Energy-OPLS-2005>
12399.3681640625

> <r_mmod_Bend_Energy-OPLS-2005>
2933.63842773438

> <r_mmod_Torsional_Energy-OPLS-2005>
520.295593261719

> <r_mmod_Improper_Torsional_Energy-OPLS-2005>
52.1187400817871

> <r_mmod_Van_der_Waal_Energy-OPLS-2005>
3344.845703125

> <r_mmod_Electrostatic_Energy-OPLS-2005>
-311.243591308594

> <r_mmod_Solvation_Energy-OPLS-2005>
-230.250411987305

> <b_mmod_Minimization_Converged-OPLS-2005>
0

> <r_mmod_RMS_Derivative-OPLS-2005>
2.51752519607544

$$$$
9
                    3D
 Structure written by MMmdl.
169178  0  0  1  0            999 V2000
  -30.6879  -14.5061   20.5590 C   0  0  0  0  0  0
  -30.4240  -12.3268   19.4292 C   0  0  0  0  0  0
  -29.4950  -12.5048   18.2101 C   0  0  0  0  0  0
  -28.0167  -12.3629   18.6228 C   0  0  0  0  0  0
  -27.6583  -13.2109   19.8727 C   0  0  2  0  0  0
  -28.7003  -13.0139   20.9968 C   0  0  0  0  0  0
  -25.2574  -13.8169   20.5684 C   0  0  0  0  0  0
  -24.1831  -13.0440   20.9181 C   0  0  0  0  0  0
  -24.6392  -11.6911   20.8738 C   0  0  0  0  0  0
  -23.9061  -10.4295   21.0407 C   0  0  0  0  0  0
  -24.3615   -9.4209   21.9184 C   0  0  0  0  0  0
  -23.6292   -8.2245   22.0755 C   0  0  0  0  0  0
  -22.4276   -8.0281   21.3545 C   0  0  0  0  0  0
  -21.9908   -9.0256   20.4645 C   0  0  0  0  0  0
  -22.7236  -10.2135   20.3057 C   0  0  0  0  0  0
  -21.6852   -6.0735   22.5277 C   0  0  0  0  0  0
  -21.4013   -6.5639   23.8212 C   0  0  0  0  0  0
  -21.3659   -5.6793   24.9174 C   0  0  0  0  0  0
  -21.6045   -4.3056   24.7224 C   0  0  0  0  0  0
  -21.8820   -3.8148   23.4346 C   0  0  0  0  0  0
  -21.9193   -4.6963   22.3402 C   0  0  0  0  0  0
  -22.7854  -13.5236   21.1846 C   0  0  0  0  0  0
  -22.1662   -4.2149   21.0979 F   0  0  0  0  0  0
  -21.5629   -3.4541   25.7738 F   0  0  0  0  0  0
  -30.0260  -13.3225   20.4385 N   0  0  0  0  0  0
  -26.3006  -12.9344   20.3358 N   0  0  0  0  0  0
  -25.9319  -11.6500   20.5770 N   0  0  0  0  0  0
  -22.0496  -12.8224   22.0403 N   0  0  0  0  0  0
  -25.4292  -15.1888   20.4092 N   0  0  0  0  0  0
  -31.8306  -14.6723   20.1238 O   0  0  0  0  0  0
  -21.6640   -6.8879   21.4241 O   0  0  0  0  0  0
  -22.3539  -14.5546   20.6704 O   0  0  0  0  0  0
  -24.6183  -31.8664   23.2100 C   0  0  0  0  0  0
  -25.9076  -32.4805   23.8393 C   0  0  1  0  0  0
  -27.2235  -27.3968   20.1113 C   0  0  0  0  0  0
  -25.5934  -33.8603   24.2322 N   0  0  0  0  0  0
  -23.4072  -30.4916   21.5507 C   0  0  2  0  0  0
  -24.8533  -28.9556   20.1161 C   0  0  0  0  0  0
  -22.7425  -29.4655   22.4976 C   0  0  0  0  0  0
  -18.0274  -28.1377   22.8481 C   0  0  0  0  0  0
  -24.1494  -36.7309   23.2634 C   0  0  0  0  0  0
  -25.9404  -30.8192   21.3722 C   0  0  0  0  0  0
  -26.0157  -29.4504   20.7219 C   0  0  0  0  0  0
  -27.2051  -28.6776   20.7191 C   0  0  0  0  0  0
  -26.0535  -26.9471   19.4640 C   0  0  0  0  0  0
  -24.8677  -27.7023   19.4841 C   0  0  0  0  0  0
  -23.6188  -29.8284   20.1645 C   0  0  0  0  0  0
  -25.4113  -36.3095   24.0331 C   0  0  1  0  0  0
  -20.5868  -28.3676   23.1302 C   0  0  2  0  0  0
  -20.6769  -26.9407   22.5416 C   0  0  0  0  0  0
  -19.5753  -26.6384   21.5208 C   0  0  0  0  0  0
  -18.1924  -26.7924   22.1612 C   0  0  0  0  0  0
  -19.1524  -28.8841   23.2889 C   0  0  0  0  0  0
  -18.9453  -30.1441   23.8908 C   0  0  0  0  0  0
  -17.6459  -30.6585   24.0563 C   0  0  0  0  0  0
  -25.9043  -34.9462   23.5120 C   0  0  0  0  0  0
  -16.5348  -29.9091   23.6320 C   0  0  0  0  0  0
  -16.7264  -28.6507   23.0341 C   0  0  0  0  0  0
  -26.4501  -31.6586   25.0726 C   0  0  0  0  0  0
  -25.3761  -31.3701   26.1469 C   0  0  0  0  0  0
  -27.0343  -30.3023   24.6130 C   0  0  0  0  0  0
  -27.6069  -32.4313   25.7497 C   0  0  0  0  0  0
  -27.5584  -37.1797   24.8456 C   0  0  0  0  0  0
  -21.4151  -29.3044   22.3714 N   0  0  0  0  0  0
  -26.4292  -37.3785   23.9408 N   0  0  0  0  0  0
  -24.6730  -31.0743   22.1018 N   0  0  0  0  0  0
  -23.4179  -28.8184   23.3025 O   0  0  0  0  0  0
  -28.3700  -26.6193   20.0848 O   0  0  0  0  0  0
  -26.5596  -34.8920   22.4672 O   0  0  0  0  0  0
  -23.5373  -32.1439   23.7479 O   0  0  0  0  0  0
  -30.9584  -19.0645   19.7551 C   0  0  0  0  0  0
  -30.1638  -19.2703   22.1598 C   0  0  0  0  0  0
  -29.9814  -23.3573   20.3248 C   0  0  0  0  0  0
  -27.5914  -22.9093   21.0760 C   0  0  0  0  0  0
  -30.3176  -17.6594   19.6892 C   0  0  0  0  0  0
  -29.5796  -17.8343   22.0492 C   0  0  0  0  0  0
  -29.8163  -24.7984   20.8884 C   0  0  0  0  0  0
  -27.3894  -24.2681   20.3587 C   0  0  0  0  0  0
  -30.3315  -20.0269   20.8087 C   0  0  2  0  0  0
  -29.0281  -22.3217   20.9895 C   0  0  1  0  0  0
  -30.3939  -16.9650   21.0643 C   0  0  1  0  0  0
  -28.3710  -25.3726   20.8364 C   0  0  2  0  0  0
  -28.7934  -20.8874   18.8680 C   0  0  0  0  0  0
  -29.0654  -20.8633   20.3866 C   0  0  1  0  0  0
  -29.9635  -15.5491   21.0274 N   0  0  0  0  0  0
  -31.4672  -12.4326   19.1261 H   0  0  0  0  0  0
  -30.3342  -11.3200   19.8395 H   0  0  0  0  0  0
  -29.7390  -11.7712   17.4403 H   0  0  0  0  0  0
  -29.6581  -13.4854   17.7605 H   0  0  0  0  0  0
  -27.8307  -11.3074   18.8257 H   0  0  0  0  0  0
  -27.3663  -12.6303   17.7892 H   0  0  0  0  0  0
  -27.6959  -14.2558   19.5639 H   0  0  0  0  0  0
  -28.6838  -11.9840   21.3565 H   0  0  0  0  0  0
  -28.4624  -13.6323   21.8637 H   0  0  0  0  0  0
  -25.2760   -9.5683   22.4758 H   0  0  0  0  0  0
  -24.0001   -7.4635   22.7476 H   0  0  0  0  0  0
  -21.0840   -8.8775   19.8951 H   0  0  0  0  0  0
  -22.3697  -10.9676   19.6167 H   0  0  0  0  0  0
  -21.2008   -7.6148   23.9714 H   0  0  0  0  0  0
  -21.1480   -6.0524   25.9075 H   0  0  0  0  0  0
  -22.0601   -2.7611   23.2847 H   0  0  0  0  0  0
  -22.4113  -11.9879   22.4776 H   0  0  0  0  0  0
  -21.1120  -13.1253   22.2625 H   0  0  0  0  0  0
  -24.6636  -15.8447   20.5193 H   0  0  0  0  0  0
  -26.2817  -15.6275   20.0839 H   0  0  0  0  0  0
  -26.7144  -32.5514   23.1151 H   0  0  0  0  0  0
  -25.0107  -33.9758   25.0486 H   0  0  0  0  0  0
  -22.6985  -31.3101   21.4115 H   0  0  0  0  0  0
  -23.3750  -35.9645   23.3285 H   0  0  0  0  0  0
  -24.3597  -36.8937   22.2051 H   0  0  0  0  0  0
  -23.7252  -37.6509   23.6665 H   0  0  0  0  0  0
  -26.0604  -31.5834   20.6027 H   0  0  0  0  0  0
  -26.8244  -30.8704   21.9950 H   0  0  0  0  0  0
  -28.1017  -29.0536   21.1923 H   0  0  0  0  0  0
  -26.0503  -26.0124   18.9243 H   0  0  0  0  0  0
  -23.9812  -27.3224   18.9948 H   0  0  0  0  0  0
  -23.7351  -30.6065   19.4091 H   0  0  0  0  0  0
  -22.7409  -29.2538   19.8630 H   0  0  0  0  0  0
  -25.1285  -36.1951   25.0823 H   0  0  0  0  0  0
  -20.9950  -28.3254   24.1428 H   0  0  0  0  0  0
  -20.5679  -26.2286   23.3608 H   0  0  0  0  0  0
  -21.6640  -26.7458   22.1203 H   0  0  0  0  0  0
  -19.6922  -25.6295   21.1242 H   0  0  0  0  0  0
  -19.6699  -27.3190   20.6733 H   0  0  0  0  0  0
  -17.4198  -26.6668   21.4009 H   0  0  0  0  0  0
  -18.0316  -26.0063   22.9006 H   0  0  0  0  0  0
  -19.7934  -30.7238   24.2299 H   0  0  0  0  0  0
  -17.5020  -31.6267   24.5162 H   0  0  0  0  0  0
  -15.5352  -30.2998   23.7642 H   0  0  0  0  0  0
  -15.8660  -28.0838   22.7047 H   0  0  0  0  0  0
  -24.5948  -30.7031   25.7808 H   0  0  0  0  0  0
  -24.8941  -32.2859   26.4902 H   0  0  0  0  0  0
  -25.8111  -30.8889   27.0239 H   0  0  0  0  0  0
  -26.2897  -29.6759   24.1205 H   0  0  0  0  0  0
  -27.4120  -29.7286   25.4603 H   0  0  0  0  0  0
  -27.8730  -30.4316   23.9284 H   0  0  0  0  0  0
  -27.2681  -33.3611   26.2082 H   0  0  0  0  0  0
  -28.3882  -32.6874   25.0327 H   0  0  0  0  0  0
  -28.0735  -31.8433   26.5410 H   0  0  0  0  0  0
  -28.2576  -38.0117   24.7532 H   0  0  0  0  0  0
  -28.1102  -36.2651   24.6241 H   0  0  0  0  0  0
  -27.2309  -37.1395   25.8858 H   0  0  0  0  0  0
  -20.9313  -29.8792   21.6955 H   0  0  0  0  0  0
  -26.0177  -38.2856   24.1428 H   0  0  0  0  0  0
  -30.9933  -19.5143   18.7644 H   0  0  0  0  0  0
  -32.0078  -18.9249   20.0194 H   0  0  0  0  0  0
  -31.1466  -19.1887   22.6266 H   0  0  0  0  0  0
  -29.5658  -19.8632   22.8531 H   0  0  0  0  0  0
  -31.0182  -23.0412   20.4440 H   0  0  0  0  0  0
  -29.8067  -23.3978   19.2501 H   0  0  0  0  0  0
  -26.8589  -22.1989   20.6924 H   0  0  0  0  0  0
  -27.3311  -23.0362   22.1279 H   0  0  0  0  0  0
  -30.8389  -17.0673   18.9364 H   0  0  0  0  0  0
  -29.2814  -17.7346   19.3575 H   0  0  0  0  0  0
  -28.5362  -17.8874   21.7341 H   0  0  0  0  0  0
  -29.5757  -17.3733   23.0383 H   0  0  0  0  0  0
  -30.4974  -25.4660   20.3595 H   0  0  0  0  0  0
  -30.1569  -24.8051   21.9243 H   0  0  0  0  0  0
  -26.3610  -24.5735   20.5440 H   0  0  0  0  0  0
  -27.4875  -24.1265   19.2820 H   0  0  0  0  0  0
  -31.1061  -20.7748   20.9811 H   0  0  0  0  0  0
  -29.3640  -22.2247   22.0238 H   0  0  0  0  0  0
  -31.4334  -16.9675   21.3991 H   0  0  0  0  0  0
  -28.0921  -25.6331   21.8590 H   0  0  0  0  0  0
  -28.6205  -19.8840   18.4786 H   0  0  0  0  0  0
  -29.6255  -21.3190   18.3118 H   0  0  0  0  0  0
  -27.9039  -21.4703   18.6319 H   0  0  0  0  0  0
  -28.2161  -20.3263   20.8133 H   0  0  0  0  0  0
  -29.0250  -15.3408   21.3335 H   0  0  0  0  0  0
  1 25  1  0  0  0
  1 30  2  0  0  0
  1 85  1  0  0  0
  2  3  1  0  0  0
  2 25  1  0  0  0
  2 86  1  0  0  0
  2 87  1  0  0  0
  3  4  1  0  0  0
  3 88  1  0  0  0
  3 89  1  0  0  0
  4  5  1  0  0  0
  4 90  1  0  0  0
  4 91  1  0  0  0
  5  6  1  0  0  0
  5 26  1  0  0  0
  5 92  1  0  0  0
  6 25  1  0  0  0
  6 93  1  0  0  0
  6 94  1  0  0  0
  7  8  2  0  0  0
  7 26  1  0  0  0
  7 29  1  0  0  0
  8  9  1  0  0  0
  8 22  1  0  0  0
  9 10  1  0  0  0
  9 27  2  0  0  0
 10 11  2  0  0  0
 10 15  1  0  0  0
 11 12  1  0  0  0
 11 95  1  0  0  0
 12 13  2  0  0  0
 12 96  1  0  0  0
 13 14  1  0  0  0
 13 31  1  0  0  0
 14 15  2  0  0  0
 14 97  1  0  0  0
 15 98  1  0  0  0
 16 17  2  0  0  0
 16 21  1  0  0  0
 16 31  1  0  0  0
 17 18  1  0  0  0
 17 99  1  0  0  0
 18 19  2  0  0  0
 18100  1  0  0  0
 19 20  1  0  0  0
 19 24  1  0  0  0
 20 21  2  0  0  0
 20101  1  0  0  0
 21 23  1  0  0  0
 22 28  1  0  0  0
 22 32  2  0  0  0
 26 27  1  0  0  0
 28102  1  0  0  0
 28103  1  0  0  0
 29104  1  0  0  0
 29105  1  0  0  0
 33 34  1  0  0  0
 33 66  1  0  0  0
 33 70  2  0  0  0
 34 36  1  0  0  0
 34 59  1  0  0  0
 34106  1  0  0  0
 35 44  2  0  0  0
 35 45  1  0  0  0
 35 68  1  0  0  0
 36 56  1  0  0  0
 36107  1  0  0  0
 37 39  1  0  0  0
 37 47  1  0  0  0
 37 66  1  0  0  0
 37108  1  0  0  0
 38 43  2  0  0  0
 38 46  1  0  0  0
 38 47  1  0  0  0
 39 64  1  0  0  0
 39 67  2  0  0  0
 40 52  1  0  0  0
 40 53  2  0  0  0
 40 58  1  0  0  0
 41109  1  0  0  0
 41110  1  0  0  0
 41111  1  0  0  0
 41 48  1  0  0  0
 42 43  1  0  0  0
 42 66  1  0  0  0
 42112  1  0  0  0
 42113  1  0  0  0
 43 44  1  0  0  0
 44114  1  0  0  0
 45 46  2  0  0  0
 45115  1  0  0  0
 46116  1  0  0  0
 47117  1  0  0  0
 47118  1  0  0  0
 48 56  1  0  0  0
 48 65  1  0  0  0
 48119  1  0  0  0
 49 50  1  0  0  0
 49 53  1  0  0  0
 49 64  1  0  0  0
 49120  1  0  0  0
 50 51  1  0  0  0
 50121  1  0  0  0
 50122  1  0  0  0
 51 52  1  0  0  0
 51123  1  0  0  0
 51124  1  0  0  0
 52125  1  0  0  0
 52126  1  0  0  0
 53 54  1  0  0  0
 54 55  2  0  0  0
 54127  1  0  0  0
 55 57  1  0  0  0
 55128  1  0  0  0
 56 69  2  0  0  0
 57 58  2  0  0  0
 57129  1  0  0  0
 58130  1  0  0  0
 59 60  1  0  0  0
 59 61  1  0  0  0
 59 62  1  0  0  0
 60131  1  0  0  0
 60132  1  0  0  0
 60133  1  0  0  0
 61134  1  0  0  0
 61135  1  0  0  0
 61136  1  0  0  0
 62137  1  0  0  0
 62138  1  0  0  0
 62139  1  0  0  0
 63 65  1  0  0  0
 63140  1  0  0  0
 63141  1  0  0  0
 63142  1  0  0  0
 64143  1  0  0  0
 65144  1  0  0  0
 68 82  1  0  0  0
 71 75  1  0  0  0
 71145  1  0  0  0
 71146  1  0  0  0
 71 79  1  0  0  0
 72 76  1  0  0  0
 72 79  1  0  0  0
 72147  1  0  0  0
 72148  1  0  0  0
 73 77  1  0  0  0
 73149  1  0  0  0
 73150  1  0  0  0
 73 80  1  0  0  0
 74 78  1  0  0  0
 74 80  1  0  0  0
 74151  1  0  0  0
 74152  1  0  0  0
 75 81  1  0  0  0
 75153  1  0  0  0
 75154  1  0  0  0
 76 81  1  0  0  0
 76155  1  0  0  0
 76156  1  0  0  0
 77 82  1  0  0  0
 77157  1  0  0  0
 77158  1  0  0  0
 78 82  1  0  0  0
 78159  1  0  0  0
 78160  1  0  0  0
 79 84  1  0  0  0
 79161  1  0  0  0
 80 84  1  0  0  0
 80162  1  0  0  0
 81 85  1  0  0  0
 81163  1  0  0  0
 82164  1  0  0  0
 83165  1  0  0  0
 83166  1  0  0  0
 83167  1  0  0  0
 83 84  1  0  0  0
 84168  1  0  0  0
 85169  1  0  0  0
M  ISO  4   1 100  68 101  82 101  85 100
M  END
> <chiral flag>
0

> <version>
0

> <s_m_source_file>
/data/baiqing/PycharmProjects/Reinvent-master-3.2/result/LINK_invent/BTK/process_docking_weight1_custom_sum_contain_oxygen_bond_distance_aromatic_linkinvent_7_9_3/rearranged_h_0145.sdf

> <i_m_source_file_index>
10

> <r_mmod_Potential_Energy-OPLS-2005>
73.0170440673828

> <r_mmod_Stretch_Energy-OPLS-2005>
48.5802116394043

> <r_mmod_Bend_Energy-OPLS-2005>
121.790313720703

> <r_mmod_Torsional_Energy-OPLS-2005>
315.099243164062

> <r_mmod_Improper_Torsional_Energy-OPLS-2005>
3.76610612869263

> <r_mmod_Van_der_Waal_Energy-OPLS-2005>
145.259414672852

> <r_mmod_Electrostatic_Energy-OPLS-2005>
-392.156219482422

> <r_mmod_Solvation_Energy-OPLS-2005>
-187.552612304688

> <b_mmod_Minimization_Converged-OPLS-2005>
0

> <r_mmod_RMS_Derivative-OPLS-2005>
0.968186914920807

$$$$
10
                    3D
 Structure written by MMmdl.
172181  0  0  1  0            999 V2000
  -30.6558  -14.5383   20.5222 C   0  0  0  0  0  0
  -30.4371  -12.3380   19.4158 C   0  0  0  0  0  0
  -29.4958  -12.5224   18.2033 C   0  0  0  0  0  0
  -28.0177  -12.3739   18.6185 C   0  0  0  0  0  0
  -27.6639  -13.2072   19.8773 C   0  0  2  0  0  0
  -28.7155  -12.9979   20.9934 C   0  0  0  0  0  0
  -25.2597  -13.8150   20.5713 C   0  0  0  0  0  0
  -24.1837  -13.0430   20.9176 C   0  0  0  0  0  0
  -24.6384  -11.6894   20.8714 C   0  0  0  0  0  0
  -23.9047  -10.4276   21.0378 C   0  0  0  0  0  0
  -24.3600   -9.4193   21.9170 C   0  0  0  0  0  0
  -23.6290   -8.2230   22.0741 C   0  0  0  0  0  0
  -22.4270   -8.0265   21.3536 C   0  0  0  0  0  0
  -21.9895   -9.0233   20.4642 C   0  0  0  0  0  0
  -22.7209  -10.2120   20.3047 C   0  0  0  0  0  0
  -21.6864   -6.0717   22.5281 C   0  0  0  0  0  0
  -21.4011   -6.5626   23.8208 C   0  0  0  0  0  0
  -21.3659   -5.6779   24.9170 C   0  0  0  0  0  0
  -21.6045   -4.3042   24.7219 C   0  0  0  0  0  0
  -21.8821   -3.8140   23.4343 C   0  0  0  0  0  0
  -21.9185   -4.6950   22.3388 C   0  0  0  0  0  0
  -22.7855  -13.5239   21.1833 C   0  0  0  0  0  0
  -22.1667   -4.2129   21.0973 F   0  0  0  0  0  0
  -21.5616   -3.4523   25.7735 F   0  0  0  0  0  0
  -30.0413  -13.3232   20.4356 N   0  0  0  0  0  0
  -26.3051  -12.9321   20.3409 N   0  0  0  0  0  0
  -25.9322  -11.6481   20.5773 N   0  0  0  0  0  0
  -22.0495  -12.8253   22.0413 N   0  0  0  0  0  0
  -25.4279  -15.1880   20.4134 N   0  0  0  0  0  0
  -31.7945  -14.7473   20.0930 O   0  0  0  0  0  0
  -21.6630   -6.8870   21.4253 O   0  0  0  0  0  0
  -22.3533  -14.5535   20.6671 O   0  0  0  0  0  0
  -24.6177  -31.8680   23.2097 C   0  0  0  0  0  0
  -25.9065  -32.4825   23.8398 C   0  0  1  0  0  0
  -27.2441  -27.4180   20.0963 C   0  0  0  0  0  0
  -25.5904  -33.8619   24.2324 N   0  0  0  0  0  0
  -23.4077  -30.4918   21.5511 C   0  0  2  0  0  0
  -24.8585  -28.9499   20.1270 C   0  0  0  0  0  0
  -22.7426  -29.4684   22.4991 C   0  0  0  0  0  0
  -18.0297  -28.1359   22.8497 C   0  0  0  0  0  0
  -24.1486  -36.7317   23.2642 C   0  0  0  0  0  0
  -25.9391  -30.8208   21.3745 C   0  0  0  0  0  0
  -26.0196  -29.4497   20.7326 C   0  0  0  0  0  0
  -27.2183  -28.6899   20.7252 C   0  0  0  0  0  0
  -26.0657  -26.9431   19.4870 C   0  0  0  0  0  0
  -24.8746  -27.6909   19.5059 C   0  0  0  0  0  0
  -23.6210  -29.8216   20.1689 C   0  0  0  0  0  0
  -25.4111  -36.3114   24.0337 C   0  0  1  0  0  0
  -20.5891  -28.3663   23.1289 C   0  0  2  0  0  0
  -20.6836  -26.9411   22.5356 C   0  0  0  0  0  0
  -19.5730  -26.6269   21.5269 C   0  0  0  0  0  0
  -18.1939  -26.7869   22.1720 C   0  0  0  0  0  0
  -19.1541  -28.8829   23.2891 C   0  0  0  0  0  0
  -18.9468  -30.1438   23.8890 C   0  0  0  0  0  0
  -17.6458  -30.6569   24.0558 C   0  0  0  0  0  0
  -25.9029  -34.9474   23.5129 C   0  0  0  0  0  0
  -16.5356  -29.9048   23.6315 C   0  0  0  0  0  0
  -16.7276  -28.6471   23.0341 C   0  0  0  0  0  0
  -26.4485  -31.6600   25.0731 C   0  0  0  0  0  0
  -25.3742  -31.3716   26.1474 C   0  0  0  0  0  0
  -27.0326  -30.3028   24.6129 C   0  0  0  0  0  0
  -27.6047  -32.4325   25.7507 C   0  0  0  0  0  0
  -27.5584  -37.1820   24.8462 C   0  0  0  0  0  0
  -21.4151  -29.3078   22.3742 N   0  0  0  0  0  0
  -26.4290  -37.3802   23.9417 N   0  0  0  0  0  0
  -24.6722  -31.0732   22.1026 N   0  0  0  0  0  0
  -23.4197  -28.8214   23.3031 O   0  0  0  0  0  0
  -28.3625  -26.6227   19.9378 O   0  0  0  0  0  0
  -26.5589  -34.8920   22.4687 O   0  0  0  0  0  0
  -23.5352  -32.1437   23.7461 O   0  0  0  0  0  0
  -27.7017  -23.6895   23.4368 C   0  0  0  0  0  0
  -27.6966  -25.1748   23.6995 C   0  0  0  0  0  0
  -30.6137  -19.4062   21.2413 C   0  0  0  0  0  0
  -29.7940  -18.8846   18.9037 C   0  0  0  0  0  0
  -30.4864  -17.9078   21.6830 C   0  0  0  0  0  0
  -30.2570  -17.4349   19.2209 C   0  0  0  0  0  0
  -29.6120  -19.8391   20.1312 C   0  0  2  0  0  0
  -27.8205  -24.6597   22.2816 C   0  0  0  0  0  0
  -29.8145  -17.0001   20.6274 C   0  0  1  0  0  0
  -28.6528  -21.6399   18.5571 C   0  0  0  0  0  0
  -29.3487  -22.3918   20.8712 C   0  0  0  0  0  0
  -29.2429  -26.3415   21.0303 C   0  0  0  0  0  0
  -29.6449  -21.3700   19.7157 C   0  0  1  0  0  0
  -29.1237  -24.8599   21.5258 C   0  0  2  0  0  0
  -29.8343  -15.5395   20.9063 N   0  0  0  0  0  0
  -29.3143  -23.8349   20.4461 N   0  3  0  0  0  0
  -31.4770  -12.4579   19.1062 H   0  0  0  0  0  0
  -30.3592  -11.3252   19.8137 H   0  0  0  0  0  0
  -29.7402  -11.8036   17.4205 H   0  0  0  0  0  0
  -29.6546  -13.5118   17.7687 H   0  0  0  0  0  0
  -27.8339  -11.3152   18.8088 H   0  0  0  0  0  0
  -27.3616  -12.6542   17.7932 H   0  0  0  0  0  0
  -27.6979  -14.2524   19.5725 H   0  0  0  0  0  0
  -28.7047  -11.9625   21.3403 H   0  0  0  0  0  0
  -28.4810  -13.5995   21.8731 H   0  0  0  0  0  0
  -25.2731   -9.5677   22.4761 H   0  0  0  0  0  0
  -23.9968   -7.4633   22.7478 H   0  0  0  0  0  0
  -21.0815   -8.8769   19.8979 H   0  0  0  0  0  0
  -22.3660  -10.9658   19.6171 H   0  0  0  0  0  0
  -21.2021   -7.6137   23.9708 H   0  0  0  0  0  0
  -21.1490   -6.0505   25.9070 H   0  0  0  0  0  0
  -22.0608   -2.7604   23.2841 H   0  0  0  0  0  0
  -22.4116  -11.9910   22.4800 H   0  0  0  0  0  0
  -21.1121  -13.1330   22.2606 H   0  0  0  0  0  0
  -24.6548  -15.8353   20.5241 H   0  0  0  0  0  0
  -26.2681  -15.6378   20.0745 H   0  0  0  0  0  0
  -26.7170  -32.5523   23.1197 H   0  0  0  0  0  0
  -25.0077  -33.9782   25.0479 H   0  0  0  0  0  0
  -22.6995  -31.3108   21.4075 H   0  0  0  0  0  0
  -23.3737  -35.9659   23.3307 H   0  0  0  0  0  0
  -24.3580  -36.8914   22.2052 H   0  0  0  0  0  0
  -23.7238  -37.6526   23.6644 H   0  0  0  0  0  0
  -26.0549  -31.5811   20.6019 H   0  0  0  0  0  0
  -26.8251  -30.8779   21.9939 H   0  0  0  0  0  0
  -28.1169  -29.0949   21.1693 H   0  0  0  0  0  0
  -26.0694  -25.9843   18.9870 H   0  0  0  0  0  0
  -23.9837  -27.3022   19.0301 H   0  0  0  0  0  0
  -23.7361  -30.5952   19.4092 H   0  0  0  0  0  0
  -22.7435  -29.2439   19.8724 H   0  0  0  0  0  0
  -25.1297  -36.1989   25.0830 H   0  0  0  0  0  0
  -21.0002  -28.3213   24.1396 H   0  0  0  0  0  0
  -20.5952  -26.2236   23.3548 H   0  0  0  0  0  0
  -21.6659  -26.7554   22.1003 H   0  0  0  0  0  0
  -19.6866  -25.6120   21.1432 H   0  0  0  0  0  0
  -19.6612  -27.2922   20.6681 H   0  0  0  0  0  0
  -17.4159  -26.6531   21.4187 H   0  0  0  0  0  0
  -18.0373  -26.0066   22.9194 H   0  0  0  0  0  0
  -19.7950  -30.7247   24.2244 H   0  0  0  0  0  0
  -17.5012  -31.6262   24.5126 H   0  0  0  0  0  0
  -15.5352  -30.2944   23.7644 H   0  0  0  0  0  0
  -15.8687  -28.0774   22.7044 H   0  0  0  0  0  0
  -24.5902  -30.7085   25.7812 H   0  0  0  0  0  0
  -24.8960  -32.2872   26.4941 H   0  0  0  0  0  0
  -25.8089  -30.8865   27.0217 H   0  0  0  0  0  0
  -26.2880  -29.6788   24.1165 H   0  0  0  0  0  0
  -27.4065  -29.7283   25.4617 H   0  0  0  0  0  0
  -27.8732  -30.4358   23.9321 H   0  0  0  0  0  0
  -27.2654  -33.3608   26.2124 H   0  0  0  0  0  0
  -28.3838  -32.6910   25.0327 H   0  0  0  0  0  0
  -28.0733  -31.8420   26.5389 H   0  0  0  0  0  0
  -28.2613  -38.0112   24.7514 H   0  0  0  0  0  0
  -28.1079  -36.2639   24.6296 H   0  0  0  0  0  0
  -27.2302  -37.1476   25.8867 H   0  0  0  0  0  0
  -20.9298  -29.8905   21.7057 H   0  0  0  0  0  0
  -26.0177  -38.2885   24.1394 H   0  0  0  0  0  0
  -28.5894  -23.1272   23.7265 H   0  0  0  0  0  0
  -26.7603  -23.1513   23.5344 H   0  0  0  0  0  0
  -28.5839  -25.6047   24.1612 H   0  0  0  0  0  0
  -26.7556  -25.6341   23.9943 H   0  0  0  0  0  0
  -31.6277  -19.5802   20.8785 H   0  0  0  0  0  0
  -30.5060  -20.0391   22.1227 H   0  0  0  0  0  0
  -28.8458  -18.8293   18.3676 H   0  0  0  0  0  0
  -30.5053  -19.3154   18.1977 H   0  0  0  0  0  0
  -29.9166  -17.8461   22.6108 H   0  0  0  0  0  0
  -31.4798  -17.5270   21.9225 H   0  0  0  0  0  0
  -31.3445  -17.3759   19.1520 H   0  0  0  0  0  0
  -29.8638  -16.7592   18.4602 H   0  0  0  0  0  0
  -28.6170  -19.6524   20.5370 H   0  0  0  0  0  0
  -26.9314  -24.7913   21.6654 H   0  0  0  0  0  0
  -28.7475  -17.2221   20.6708 H   0  0  0  0  0  0
  -28.8438  -21.0141   17.6850 H   0  0  0  0  0  0
  -28.7180  -22.6649   18.1893 H   0  0  0  0  0  0
  -27.6217  -21.4682   18.8709 H   0  0  0  0  0  0
  -30.0940  -22.2788   21.6578 H   0  0  0  0  0  0
  -28.3883  -22.1309   21.3167 H   0  0  0  0  0  0
  -30.2589  -26.5300   20.6827 H   0  0  0  0  0  0
  -29.0794  -27.0317   21.8596 H   0  0  0  0  0  0
  -30.6488  -21.5770   19.3414 H   0  0  0  0  0  0
  -29.9403  -24.7108   22.2335 H   0  0  0  0  0  0
  -28.9590  -15.1891   21.2655 H   0  0  0  0  0  0
  -28.5746  -23.9512   19.7701 H   0  0  0  0  0  0
  -30.1778  -24.0401   19.9673 H   0  0  0  0  0  0
  1 25  1  0  0  0
  1 30  2  0  0  0
  1 85  1  0  0  0
  2  3  1  0  0  0
  2 25  1  0  0  0
  2 87  1  0  0  0
  2 88  1  0  0  0
  3  4  1  0  0  0
  3 89  1  0  0  0
  3 90  1  0  0  0
  4  5  1  0  0  0
  4 91  1  0  0  0
  4 92  1  0  0  0
  5  6  1  0  0  0
  5 26  1  0  0  0
  5 93  1  0  0  0
  6 25  1  0  0  0
  6 94  1  0  0  0
  6 95  1  0  0  0
  7  8  2  0  0  0
  7 26  1  0  0  0
  7 29  1  0  0  0
  8  9  1  0  0  0
  8 22  1  0  0  0
  9 10  1  0  0  0
  9 27  2  0  0  0
 10 11  2  0  0  0
 10 15  1  0  0  0
 11 12  1  0  0  0
 11 96  1  0  0  0
 12 13  2  0  0  0
 12 97  1  0  0  0
 13 14  1  0  0  0
 13 31  1  0  0  0
 14 15  2  0  0  0
 14 98  1  0  0  0
 15 99  1  0  0  0
 16 17  2  0  0  0
 16 21  1  0  0  0
 16 31  1  0  0  0
 17 18  1  0  0  0
 17100  1  0  0  0
 18 19  2  0  0  0
 18101  1  0  0  0
 19 20  1  0  0  0
 19 24  1  0  0  0
 20 21  2  0  0  0
 20102  1  0  0  0
 21 23  1  0  0  0
 22 28  1  0  0  0
 22 32  2  0  0  0
 26 27  1  0  0  0
 28103  1  0  0  0
 28104  1  0  0  0
 29105  1  0  0  0
 29106  1  0  0  0
 33 34  1  0  0  0
 33 66  1  0  0  0
 33 70  2  0  0  0
 34 36  1  0  0  0
 34 59  1  0  0  0
 34107  1  0  0  0
 35 44  2  0  0  0
 35 45  1  0  0  0
 35 68  1  0  0  0
 36 56  1  0  0  0
 36108  1  0  0  0
 37 39  1  0  0  0
 37 47  1  0  0  0
 37 66  1  0  0  0
 37109  1  0  0  0
 38 43  2  0  0  0
 38 46  1  0  0  0
 38 47  1  0  0  0
 39 64  1  0  0  0
 39 67  2  0  0  0
 40 52  1  0  0  0
 40 53  2  0  0  0
 40 58  1  0  0  0
 41110  1  0  0  0
 41111  1  0  0  0
 41112  1  0  0  0
 41 48  1  0  0  0
 42 43  1  0  0  0
 42 66  1  0  0  0
 42113  1  0  0  0
 42114  1  0  0  0
 43 44  1  0  0  0
 44115  1  0  0  0
 45 46  2  0  0  0
 45116  1  0  0  0
 46117  1  0  0  0
 47118  1  0  0  0
 47119  1  0  0  0
 48 56  1  0  0  0
 48 65  1  0  0  0
 48120  1  0  0  0
 49 50  1  0  0  0
 49 53  1  0  0  0
 49 64  1  0  0  0
 49121  1  0  0  0
 50 51  1  0  0  0
 50122  1  0  0  0
 50123  1  0  0  0
 51 52  1  0  0  0
 51124  1  0  0  0
 51125  1  0  0  0
 52126  1  0  0  0
 52127  1  0  0  0
 53 54  1  0  0  0
 54 55  2  0  0  0
 54128  1  0  0  0
 55 57  1  0  0  0
 55129  1  0  0  0
 56 69  2  0  0  0
 57 58  2  0  0  0
 57130  1  0  0  0
 58131  1  0  0  0
 59 60  1  0  0  0
 59 61  1  0  0  0
 59 62  1  0  0  0
 60132  1  0  0  0
 60133  1  0  0  0
 60134  1  0  0  0
 61135  1  0  0  0
 61136  1  0  0  0
 61137  1  0  0  0
 62138  1  0  0  0
 62139  1  0  0  0
 62140  1  0  0  0
 63 65  1  0  0  0
 63141  1  0  0  0
 63142  1  0  0  0
 63143  1  0  0  0
 64144  1  0  0  0
 65145  1  0  0  0
 68 82  1  0  0  0
 71 72  1  0  0  0
 71146  1  0  0  0
 71147  1  0  0  0
 71 78  1  0  0  0
 72 78  1  0  0  0
 72148  1  0  0  0
 72149  1  0  0  0
 73 75  1  0  0  0
 73150  1  0  0  0
 73151  1  0  0  0
 73 77  1  0  0  0
 74 76  1  0  0  0
 74 77  1  0  0  0
 74152  1  0  0  0
 74153  1  0  0  0
 75 79  1  0  0  0
 75154  1  0  0  0
 75155  1  0  0  0
 76 79  1  0  0  0
 76156  1  0  0  0
 76157  1  0  0  0
 77 83  1  0  0  0
 77158  1  0  0  0
 78 84  1  0  0  0
 78159  1  0  0  0
 79 85  1  0  0  0
 79160  1  0  0  0
 80161  1  0  0  0
 80162  1  0  0  0
 80163  1  0  0  0
 80 83  1  0  0  0
 81 83  1  0  0  0
 81 86  1  0  0  0
 81164  1  0  0  0
 81165  1  0  0  0
 82166  1  0  0  0
 82167  1  0  0  0
 82 84  1  0  0  0
 83168  1  0  0  0
 84 86  1  0  0  0
 84169  1  0  0  0
 85170  1  0  0  0
 86171  1  0  0  0
 86172  1  0  0  0
M  CHG  1  86   1
M  ISO  4   1 100  68 101  82 101  85 100
M  END
> <chiral flag>
0

> <version>
0

> <s_m_source_file>
/data/baiqing/PycharmProjects/Reinvent-master-3.2/result/LINK_invent/BTK/process_docking_weight1_custom_sum_contain_oxygen_bond_distance_aromatic_linkinvent_7_9_3/rearranged_h_0145.sdf

> <i_m_source_file_index>
11

> <r_mmod_Potential_Energy-OPLS-2005>
-22.2648448944092

> <r_mmod_Stretch_Energy-OPLS-2005>
50.1947822570801

> <r_mmod_Bend_Energy-OPLS-2005>
136.899566650391

> <r_mmod_Torsional_Energy-OPLS-2005>
328.007995605469

> <r_mmod_Improper_Torsional_Energy-OPLS-2005>
6.12738466262817

> <r_mmod_Van_der_Waal_Energy-OPLS-2005>
125.216453552246

> <r_mmod_Electrostatic_Energy-OPLS-2005>
-268.129791259766

> <r_mmod_Solvation_Energy-OPLS-2005>
-420.244476318359

> <b_mmod_Minimization_Converged-OPLS-2005>
0

> <r_mmod_RMS_Derivative-OPLS-2005>
3.12307262420654

$$$$
11
                    3D
 Structure written by MMmdl.
169178  0  0  1  0            999 V2000
  -30.6304  -14.5947   20.5114 C   0  0  0  0  0  0
  -30.4394  -12.3736   19.4238 C   0  0  0  0  0  0
  -29.5021  -12.5070   18.2045 C   0  0  0  0  0  0
  -28.0242  -12.3510   18.6216 C   0  0  0  0  0  0
  -27.6514  -13.2108   19.8589 C   0  0  2  0  0  0
  -28.6994  -13.0437   20.9805 C   0  0  0  0  0  0
  -25.2540  -13.8136   20.5650 C   0  0  0  0  0  0
  -24.1815  -13.0424   20.9213 C   0  0  0  0  0  0
  -24.6371  -11.6896   20.8749 C   0  0  0  0  0  0
  -23.9024  -10.4290   21.0412 C   0  0  0  0  0  0
  -24.3576   -9.4208   21.9195 C   0  0  0  0  0  0
  -23.6261   -8.2235   22.0758 C   0  0  0  0  0  0
  -22.4255   -8.0265   21.3538 C   0  0  0  0  0  0
  -21.9883   -9.0243   20.4652 C   0  0  0  0  0  0
  -22.7197  -10.2131   20.3065 C   0  0  0  0  0  0
  -21.6857   -6.0715   22.5272 C   0  0  0  0  0  0
  -21.4020   -6.5618   23.8196 C   0  0  0  0  0  0
  -21.3662   -5.6772   24.9164 C   0  0  0  0  0  0
  -21.6040   -4.3032   24.7214 C   0  0  0  0  0  0
  -21.8820   -3.8127   23.4335 C   0  0  0  0  0  0
  -21.9204   -4.6943   22.3396 C   0  0  0  0  0  0
  -22.7836  -13.5251   21.1856 C   0  0  0  0  0  0
  -22.1664   -4.2132   21.0972 F   0  0  0  0  0  0
  -21.5635   -3.4517   25.7728 F   0  0  0  0  0  0
  -30.0129  -13.3808   20.4087 N   0  0  0  0  0  0
  -26.2968  -12.9321   20.3286 N   0  0  0  0  0  0
  -25.9299  -11.6474   20.5738 N   0  0  0  0  0  0
  -22.0442  -12.8275   22.0403 N   0  0  0  0  0  0
  -25.4186  -15.1842   20.3960 N   0  0  0  0  0  0
  -31.8082  -14.7666   20.1858 O   0  0  0  0  0  0
  -21.6630   -6.8857   21.4230 O   0  0  0  0  0  0
  -22.3544  -14.5559   20.6693 O   0  0  0  0  0  0
  -24.6223  -31.8609   23.2021 C   0  0  0  0  0  0
  -25.9098  -32.4780   23.8333 C   0  0  1  0  0  0
  -27.2290  -27.3515   20.1120 C   0  0  0  0  0  0
  -25.5928  -33.8583   24.2270 N   0  0  0  0  0  0
  -23.4143  -30.4850   21.5409 C   0  0  2  0  0  0
  -24.8602  -28.9410   20.1108 C   0  0  0  0  0  0
  -22.7453  -29.4644   22.4911 C   0  0  0  0  0  0
  -18.0288  -28.1403   22.8475 C   0  0  0  0  0  0
  -24.1489  -36.7287   23.2634 C   0  0  0  0  0  0
  -25.9511  -30.8039   21.3655 C   0  0  0  0  0  0
  -26.0269  -29.4331   20.7088 C   0  0  0  0  0  0
  -27.2148  -28.6504   20.6977 C   0  0  0  0  0  0
  -26.0381  -26.8994   19.4979 C   0  0  0  0  0  0
  -24.8656  -27.6775   19.4987 C   0  0  0  0  0  0
  -23.6279  -29.8185   20.1567 C   0  0  0  0  0  0
  -25.4112  -36.3072   24.0322 C   0  0  1  0  0  0
  -20.5884  -28.3696   23.1266 C   0  0  2  0  0  0
  -20.6777  -26.9420   22.5401 C   0  0  0  0  0  0
  -19.5750  -26.6399   21.5199 C   0  0  0  0  0  0
  -18.1929  -26.7948   22.1613 C   0  0  0  0  0  0
  -19.1545  -28.8859   23.2872 C   0  0  0  0  0  0
  -18.9479  -30.1461   23.8887 C   0  0  0  0  0  0
  -17.6487  -30.6604   24.0562 C   0  0  0  0  0  0
  -25.9048  -34.9452   23.5089 C   0  0  0  0  0  0
  -16.5370  -29.9113   23.6331 C   0  0  0  0  0  0
  -16.7280  -28.6532   23.0345 C   0  0  0  0  0  0
  -26.4498  -31.6595   25.0704 C   0  0  0  0  0  0
  -25.3766  -31.3747   26.1460 C   0  0  0  0  0  0
  -27.0323  -30.3014   24.6148 C   0  0  0  0  0  0
  -27.6033  -32.4348   25.7488 C   0  0  0  0  0  0
  -27.5573  -37.1792   24.8465 C   0  0  0  0  0  0
  -21.4174  -29.3054   22.3656 N   0  0  0  0  0  0
  -26.4276  -37.3779   23.9414 N   0  0  0  0  0  0
  -24.6809  -31.0671   22.0933 N   0  0  0  0  0  0
  -23.4198  -28.8187   23.2980 O   0  0  0  0  0  0
  -28.3688  -26.5440   20.1627 O   0  0  0  0  0  0
  -26.5619  -34.8917   22.4656 O   0  0  0  0  0  0
  -23.5402  -32.1386   23.7376 O   0  0  0  0  0  0
  -28.5803  -21.9007   19.6277 C   0  0  0  0  0  0
  -30.1725  -21.9146   21.4067 C   0  0  0  0  0  0
  -29.3623  -19.7031   20.5752 C   0  0  0  0  0  0
  -29.3592  -22.6603   20.5247 C   0  0  0  0  0  0
  -28.5766  -20.4729   19.6475 C   0  0  0  0  0  0
  -30.2015  -20.4890   21.4373 C   0  0  0  0  0  0
  -27.8589  -17.8741   21.4836 C   0  0  0  0  0  0
  -29.7447  -17.0066   22.7783 C   0  0  0  0  0  0
  -29.1178  -18.1235   20.6419 C   0  0  2  0  0  0
  -28.3620  -17.6723   22.9162 C   0  0  2  0  0  0
  -30.0967  -17.0322   21.2703 C   0  0  2  0  0  0
  -27.6722  -19.7867   18.6307 C   0  0  0  0  0  0
  -31.1647  -19.9005   22.4486 C   0  0  0  0  0  0
  -27.3692  -16.8935   23.7912 C   0  0  0  0  0  0
  -29.4181  -24.2272   20.5486 C   0  0  0  0  0  0
  -28.2096  -25.0886   20.0247 C   0  0  0  0  0  0
  -29.8072  -15.6300   20.8285 N   0  0  0  0  0  0
  -31.4791  -12.5087   19.1205 H   0  0  0  0  0  0
  -30.3766  -11.3724   19.8543 H   0  0  0  0  0  0
  -29.7576  -11.7597   17.4515 H   0  0  0  0  0  0
  -29.6501  -13.4802   17.7323 H   0  0  0  0  0  0
  -27.8536  -11.2976   18.8451 H   0  0  0  0  0  0
  -27.3700  -12.5923   17.7840 H   0  0  0  0  0  0
  -27.6739  -14.2492   19.5272 H   0  0  0  0  0  0
  -28.7052  -12.0165   21.3506 H   0  0  0  0  0  0
  -28.4556  -13.6687   21.8421 H   0  0  0  0  0  0
  -25.2709   -9.5703   22.4769 H   0  0  0  0  0  0
  -23.9976   -7.4640   22.7478 H   0  0  0  0  0  0
  -21.0813   -8.8750   19.8963 H   0  0  0  0  0  0
  -22.3634  -10.9666   19.6168 H   0  0  0  0  0  0
  -21.2001   -7.6125   23.9697 H   0  0  0  0  0  0
  -21.1487   -6.0497   25.9065 H   0  0  0  0  0  0
  -22.0604   -2.7591   23.2832 H   0  0  0  0  0  0
  -22.4020  -11.9938   22.4827 H   0  0  0  0  0  0
  -21.1069  -13.1353   22.2580 H   0  0  0  0  0  0
  -24.6357  -15.8235   20.4760 H   0  0  0  0  0  0
  -26.2365  -15.6108   19.9834 H   0  0  0  0  0  0
  -26.7162  -32.5454   23.1076 H   0  0  0  0  0  0
  -25.0089  -33.9727   25.0422 H   0  0  0  0  0  0
  -22.7065  -31.3042   21.3984 H   0  0  0  0  0  0
  -23.3746  -35.9628   23.3302 H   0  0  0  0  0  0
  -24.3568  -36.8907   22.2049 H   0  0  0  0  0  0
  -23.7261  -37.6490   23.6657 H   0  0  0  0  0  0
  -26.0819  -31.5704   20.5999 H   0  0  0  0  0  0
  -26.8319  -30.8497   21.9944 H   0  0  0  0  0  0
  -28.1117  -29.0270   21.1687 H   0  0  0  0  0  0
  -25.9894  -25.9314   19.0205 H   0  0  0  0  0  0
  -23.9698  -27.2914   19.0320 H   0  0  0  0  0  0
  -23.7486  -30.5928   19.3976 H   0  0  0  0  0  0
  -22.7486  -29.2469   19.8523 H   0  0  0  0  0  0
  -25.1301  -36.1896   25.0814 H   0  0  0  0  0  0
  -20.9983  -28.3289   24.1384 H   0  0  0  0  0  0
  -20.5663  -26.2317   23.3611 H   0  0  0  0  0  0
  -21.6649  -26.7455   22.1196 H   0  0  0  0  0  0
  -19.6906  -25.6312   21.1226 H   0  0  0  0  0  0
  -19.6680  -27.3202   20.6720 H   0  0  0  0  0  0
  -17.4198  -26.6678   21.4025 H   0  0  0  0  0  0
  -18.0339  -26.0108   22.9028 H   0  0  0  0  0  0
  -19.7961  -30.7270   24.2249 H   0  0  0  0  0  0
  -17.5055  -31.6272   24.5192 H   0  0  0  0  0  0
  -15.5375  -30.3023   23.7658 H   0  0  0  0  0  0
  -15.8677  -28.0854   22.7062 H   0  0  0  0  0  0
  -24.5919  -30.7110   25.7827 H   0  0  0  0  0  0
  -24.9000  -32.2930   26.4894 H   0  0  0  0  0  0
  -25.8138  -30.8937   27.0221 H   0  0  0  0  0  0
  -26.2876  -29.6775   24.1195 H   0  0  0  0  0  0
  -27.4039  -29.7265   25.4641 H   0  0  0  0  0  0
  -27.8747  -30.4285   23.9343 H   0  0  0  0  0  0
  -27.2597  -33.3634   26.2063 H   0  0  0  0  0  0
  -28.3855  -32.6949   25.0343 H   0  0  0  0  0  0
  -28.0696  -31.8498   26.5424 H   0  0  0  0  0  0
  -28.2588  -38.0088   24.7505 H   0  0  0  0  0  0
  -28.1066  -36.2619   24.6295 H   0  0  0  0  0  0
  -27.2285  -37.1453   25.8864 H   0  0  0  0  0  0
  -20.9345  -29.8790   21.6879 H   0  0  0  0  0  0
  -26.0146  -38.2836   24.1451 H   0  0  0  0  0  0
  -27.9634  -22.4221   18.9087 H   0  0  0  0  0  0
  -30.8029  -22.4625   22.0955 H   0  0  0  0  0  0
  -27.3734  -16.9629   21.1382 H   0  0  0  0  0  0
  -27.1142  -18.6671   21.4068 H   0  0  0  0  0  0
  -29.7332  -15.9927   23.1847 H   0  0  0  0  0  0
  -30.4889  -17.5205   23.3794 H   0  0  0  0  0  0
  -28.9452  -17.7990   19.6162 H   0  0  0  0  0  0
  -28.5041  -18.6608   23.3527 H   0  0  0  0  0  0
  -31.1450  -17.2345   21.0552 H   0  0  0  0  0  0
  -27.1183  -20.5091   18.0310 H   0  0  0  0  0  0
  -26.9375  -19.1457   19.1163 H   0  0  0  0  0  0
  -28.2594  -19.1838   17.9376 H   0  0  0  0  0  0
  -31.9623  -20.6082   22.6776 H   0  0  0  0  0  0
  -31.6682  -19.0148   22.0791 H   0  0  0  0  0  0
  -30.6541  -19.6903   23.3867 H   0  0  0  0  0  0
  -27.1852  -15.8935   23.3959 H   0  0  0  0  0  0
  -26.4088  -17.4083   23.8395 H   0  0  0  0  0  0
  -27.7371  -16.7903   24.8121 H   0  0  0  0  0  0
  -30.3119  -24.5256   20.0010 H   0  0  0  0  0  0
  -29.6004  -24.5245   21.5822 H   0  0  0  0  0  0
  -27.3193  -24.7687   20.5679 H   0  0  0  0  0  0
  -28.0446  -24.8604   18.9716 H   0  0  0  0  0  0
  -28.8500  -15.3455   20.9620 H   0  0  0  0  0  0
  1 25  1  0  0  0
  1 30  2  0  0  0
  1 87  1  0  0  0
  2  3  1  0  0  0
  2 25  1  0  0  0
  2 88  1  0  0  0
  2 89  1  0  0  0
  3  4  1  0  0  0
  3 90  1  0  0  0
  3 91  1  0  0  0
  4  5  1  0  0  0
  4 92  1  0  0  0
  4 93  1  0  0  0
  5  6  1  0  0  0
  5 26  1  0  0  0
  5 94  1  0  0  0
  6 25  1  0  0  0
  6 95  1  0  0  0
  6 96  1  0  0  0
  7  8  2  0  0  0
  7 26  1  0  0  0
  7 29  1  0  0  0
  8  9  1  0  0  0
  8 22  1  0  0  0
  9 10  1  0  0  0
  9 27  2  0  0  0
 10 11  2  0  0  0
 10 15  1  0  0  0
 11 12  1  0  0  0
 11 97  1  0  0  0
 12 13  2  0  0  0
 12 98  1  0  0  0
 13 14  1  0  0  0
 13 31  1  0  0  0
 14 15  2  0  0  0
 14 99  1  0  0  0
 15100  1  0  0  0
 16 17  2  0  0  0
 16 21  1  0  0  0
 16 31  1  0  0  0
 17 18  1  0  0  0
 17101  1  0  0  0
 18 19  2  0  0  0
 18102  1  0  0  0
 19 20  1  0  0  0
 19 24  1  0  0  0
 20 21  2  0  0  0
 20103  1  0  0  0
 21 23  1  0  0  0
 22 28  1  0  0  0
 22 32  2  0  0  0
 26 27  1  0  0  0
 28104  1  0  0  0
 28105  1  0  0  0
 29106  1  0  0  0
 29107  1  0  0  0
 33 34  1  0  0  0
 33 66  1  0  0  0
 33 70  2  0  0  0
 34 36  1  0  0  0
 34 59  1  0  0  0
 34108  1  0  0  0
 35 44  2  0  0  0
 35 45  1  0  0  0
 35 68  1  0  0  0
 36 56  1  0  0  0
 36109  1  0  0  0
 37 39  1  0  0  0
 37 47  1  0  0  0
 37 66  1  0  0  0
 37110  1  0  0  0
 38 43  2  0  0  0
 38 46  1  0  0  0
 38 47  1  0  0  0
 39 64  1  0  0  0
 39 67  2  0  0  0
 40 52  1  0  0  0
 40 53  2  0  0  0
 40 58  1  0  0  0
 41111  1  0  0  0
 41112  1  0  0  0
 41113  1  0  0  0
 41 48  1  0  0  0
 42 43  1  0  0  0
 42 66  1  0  0  0
 42114  1  0  0  0
 42115  1  0  0  0
 43 44  1  0  0  0
 44116  1  0  0  0
 45 46  2  0  0  0
 45117  1  0  0  0
 46118  1  0  0  0
 47119  1  0  0  0
 47120  1  0  0  0
 48 56  1  0  0  0
 48 65  1  0  0  0
 48121  1  0  0  0
 49 50  1  0  0  0
 49 53  1  0  0  0
 49 64  1  0  0  0
 49122  1  0  0  0
 50 51  1  0  0  0
 50123  1  0  0  0
 50124  1  0  0  0
 51 52  1  0  0  0
 51125  1  0  0  0
 51126  1  0  0  0
 52127  1  0  0  0
 52128  1  0  0  0
 53 54  1  0  0  0
 54 55  2  0  0  0
 54129  1  0  0  0
 55 57  1  0  0  0
 55130  1  0  0  0
 56 69  2  0  0  0
 57 58  2  0  0  0
 57131  1  0  0  0
 58132  1  0  0  0
 59 60  1  0  0  0
 59 61  1  0  0  0
 59 62  1  0  0  0
 60133  1  0  0  0
 60134  1  0  0  0
 60135  1  0  0  0
 61136  1  0  0  0
 61137  1  0  0  0
 61138  1  0  0  0
 62139  1  0  0  0
 62140  1  0  0  0
 62141  1  0  0  0
 63 65  1  0  0  0
 63142  1  0  0  0
 63143  1  0  0  0
 63144  1  0  0  0
 64145  1  0  0  0
 65146  1  0  0  0
 68 86  1  0  0  0
 71 74  2  0  0  0
 71 75  1  0  0  0
 71147  1  0  0  0
 72 74  1  0  0  0
 72 76  2  0  0  0
 72148  1  0  0  0
 73 75  2  0  0  0
 73 76  1  0  0  0
 73 79  1  0  0  0
 74 85  1  0  0  0
 75 82  1  0  0  0
 76 83  1  0  0  0
 77 79  1  0  0  0
 77 80  1  0  0  0
 77149  1  0  0  0
 77150  1  0  0  0
 78 80  1  0  0  0
 78 81  1  0  0  0
 78151  1  0  0  0
 78152  1  0  0  0
 79 81  1  0  0  0
 79153  1  0  0  0
 80 84  1  0  0  0
 80154  1  0  0  0
 81 87  1  0  0  0
 81155  1  0  0  0
 82156  1  0  0  0
 82157  1  0  0  0
 82158  1  0  0  0
 83159  1  0  0  0
 83160  1  0  0  0
 83161  1  0  0  0
 84162  1  0  0  0
 84163  1  0  0  0
 84164  1  0  0  0
 85 86  1  0  0  0
 85165  1  0  0  0
 85166  1  0  0  0
 86167  1  0  0  0
 86168  1  0  0  0
 87169  1  0  0  0
M  ISO  4   1 100  68 101  86 101  87 100
M  END
> <chiral flag>
0

> <version>
0

> <s_m_source_file>
/data/baiqing/PycharmProjects/Reinvent-master-3.2/result/LINK_invent/BTK/process_docking_weight1_custom_sum_contain_oxygen_bond_distance_aromatic_linkinvent_7_9_3/rearranged_h_0145.sdf

> <i_m_source_file_index>
12

> <r_mmod_Potential_Energy-OPLS-2005>
112.991569519043

> <r_mmod_Stretch_Energy-OPLS-2005>
76.4272537231445

> <r_mmod_Bend_Energy-OPLS-2005>
182.276153564453

> <r_mmod_Torsional_Energy-OPLS-2005>
251.548675537109

> <r_mmod_Improper_Torsional_Energy-OPLS-2005>
5.18446254730225

> <r_mmod_Van_der_Waal_Energy-OPLS-2005>
148.105880737305

> <r_mmod_Electrostatic_Energy-OPLS-2005>
-389.312622070312

> <r_mmod_Solvation_Energy-OPLS-2005>
-198.352462768555

> <b_mmod_Minimization_Converged-OPLS-2005>
0

> <r_mmod_RMS_Derivative-OPLS-2005>
2.26293063163757

$$$$
12
                    3D
 Structure written by MMmdl.
164173  0  0  1  0            999 V2000
  -30.7154  -14.4309   20.6208 C   0  0  0  0  0  0
  -30.4365  -12.2821   19.4076 C   0  0  0  0  0  0
  -29.5116  -12.5145   18.1936 C   0  0  0  0  0  0
  -28.0289  -12.3757   18.6015 C   0  0  0  0  0  0
  -27.6782  -13.1985   19.8718 C   0  0  2  0  0  0
  -28.7177  -12.9279   20.9846 C   0  0  0  0  0  0
  -25.2702  -13.8129   20.5633 C   0  0  0  0  0  0
  -24.1907  -13.0417   20.9118 C   0  0  0  0  0  0
  -24.6454  -11.6889   20.8687 C   0  0  0  0  0  0
  -23.9105  -10.4270   21.0407 C   0  0  0  0  0  0
  -24.3631   -9.4174   21.9194 C   0  0  0  0  0  0
  -23.6275   -8.2230   22.0770 C   0  0  0  0  0  0
  -22.4260   -8.0285   21.3561 C   0  0  0  0  0  0
  -21.9912   -9.0264   20.4667 C   0  0  0  0  0  0
  -22.7273  -10.2122   20.3065 C   0  0  0  0  0  0
  -21.6833   -6.0732   22.5287 C   0  0  0  0  0  0
  -21.4001   -6.5639   23.8220 C   0  0  0  0  0  0
  -21.3654   -5.6793   24.9179 C   0  0  0  0  0  0
  -21.6045   -4.3056   24.7233 C   0  0  0  0  0  0
  -21.8809   -3.8145   23.4354 C   0  0  0  0  0  0
  -21.9181   -4.6960   22.3407 C   0  0  0  0  0  0
  -22.7931  -13.5250   21.1768 C   0  0  0  0  0  0
  -22.1651   -4.2146   21.0984 F   0  0  0  0  0  0
  -21.5625   -3.4542   25.7747 F   0  0  0  0  0  0
  -30.0632  -13.2430   20.4615 N   0  0  0  0  0  0
  -26.3130  -12.9285   20.3295 N   0  0  0  0  0  0
  -25.9380  -11.6450   20.5675 N   0  0  0  0  0  0
  -22.0533  -12.8267   22.0329 N   0  0  0  0  0  0
  -25.4482  -15.1830   20.4093 N   0  0  0  0  0  0
  -31.7751  -14.6999   20.0471 O   0  0  0  0  0  0
  -21.6615   -6.8884   21.4258 O   0  0  0  0  0  0
  -22.3622  -14.5546   20.6600 O   0  0  0  0  0  0
  -24.6142  -31.8677   23.2057 C   0  0  0  0  0  0
  -25.9040  -32.4790   23.8332 C   0  0  1  0  0  0
  -27.2350  -27.4237   20.0999 C   0  0  0  0  0  0
  -25.5893  -33.8577   24.2283 N   0  0  0  0  0  0
  -23.4002  -30.4882   21.5521 C   0  0  2  0  0  0
  -24.8436  -28.9488   20.1232 C   0  0  0  0  0  0
  -22.7381  -29.4662   22.5035 C   0  0  0  0  0  0
  -18.0259  -28.1338   22.8511 C   0  0  0  0  0  0
  -24.1484  -36.7269   23.2640 C   0  0  0  0  0  0
  -25.9292  -30.8315   21.3600 C   0  0  0  0  0  0
  -26.0077  -29.4661   20.7055 C   0  0  0  0  0  0
  -27.2062  -28.7138   20.6830 C   0  0  0  0  0  0
  -26.0500  -26.9291   19.5085 C   0  0  0  0  0  0
  -24.8593  -27.6789   19.5247 C   0  0  0  0  0  0
  -23.6013  -29.8089   20.1725 C   0  0  0  0  0  0
  -25.4107  -36.3063   24.0335 C   0  0  1  0  0  0
  -20.5841  -28.3620   23.1328 C   0  0  2  0  0  0
  -20.6729  -26.9362   22.5415 C   0  0  0  0  0  0
  -19.5715  -26.6369   21.5196 C   0  0  0  0  0  0
  -18.1903  -26.7888   22.1628 C   0  0  0  0  0  0
  -19.1509  -28.8799   23.2907 C   0  0  0  0  0  0
  -18.9440  -30.1412   23.8899 C   0  0  0  0  0  0
  -17.6441  -30.6559   24.0541 C   0  0  0  0  0  0
  -25.9052  -34.9436   23.5109 C   0  0  0  0  0  0
  -16.5331  -29.9049   23.6323 C   0  0  0  0  0  0
  -16.7249  -28.6453   23.0378 C   0  0  0  0  0  0
  -26.4473  -31.6567   25.0667 C   0  0  0  0  0  0
  -25.3734  -31.3666   26.1415 C   0  0  0  0  0  0
  -27.0324  -30.2996   24.6085 C   0  0  0  0  0  0
  -27.6056  -32.4285   25.7426 C   0  0  0  0  0  0
  -27.5567  -37.1773   24.8472 C   0  0  0  0  0  0
  -21.4113  -29.2998   22.3742 N   0  0  0  0  0  0
  -26.4281  -37.3761   23.9413 N   0  0  0  0  0  0
  -24.6661  -31.0767   22.0969 N   0  0  0  0  0  0
  -23.4153  -28.8240   23.3104 O   0  0  0  0  0  0
  -28.4150  -26.7021   20.0783 O   0  0  0  0  0  0
  -26.5638  -34.8916   22.4688 O   0  0  0  0  0  0
  -23.5341  -32.1435   23.7461 O   0  0  0  0  0  0
  -30.4410  -20.3567   21.1727 C   0  0  0  0  0  0
  -30.6199  -21.4463   23.3120 C   0  0  0  0  0  0
  -30.7922  -19.1286   21.8084 C   0  0  0  0  0  0
  -30.3438  -21.5517   21.9380 C   0  0  0  0  0  0
  -31.0241  -19.1639   23.2020 C   0  0  0  0  0  0
  -30.6841  -17.7273   19.5276 C   0  0  0  0  0  0
  -29.3079  -17.1073   19.7837 C   0  0  0  0  0  0
  -30.9232  -17.7871   21.0509 C   0  0  2  0  0  0
  -29.7623  -16.7649   21.2111 C   0  0  2  0  0  0
  -31.5725  -18.0850   25.2838 C   0  0  0  0  0  0
  -29.6084  -24.5619   19.8238 C   0  0  0  0  0  0
  -28.3571  -25.2887   20.3688 C   0  0  0  0  0  0
  -29.6971  -23.0356   20.1052 C   0  0  0  0  0  0
  -30.9431  -20.2981   23.9300 N   0  0  0  0  0  0
  -30.0530  -15.3205   21.3836 N   0  0  0  0  0  0
  -30.0074  -22.8150   21.4791 O   0  0  0  0  0  0
  -31.3407  -18.0015   23.8756 O   0  0  0  0  0  0
  -30.3102  -11.2604   19.7708 H   0  0  0  0  0  0
  -31.4862  -12.3646   19.1198 H   0  0  0  0  0  0
  -29.7433  -11.8020   17.3998 H   0  0  0  0  0  0
  -29.6962  -13.5055   17.7733 H   0  0  0  0  0  0
  -27.8394  -11.3174   18.7879 H   0  0  0  0  0  0
  -27.3792  -12.6549   17.7700 H   0  0  0  0  0  0
  -27.7399  -14.2510   19.5967 H   0  0  0  0  0  0
  -28.6828  -11.8722   21.2567 H   0  0  0  0  0  0
  -28.4713  -13.4641   21.9002 H   0  0  0  0  0  0
  -25.2776   -9.5591   22.4779 H   0  0  0  0  0  0
  -23.9944   -7.4608   22.7499 H   0  0  0  0  0  0
  -21.0833   -8.8799   19.8993 H   0  0  0  0  0  0
  -22.3755  -10.9654   19.6157 H   0  0  0  0  0  0
  -21.1999   -7.6146   23.9722 H   0  0  0  0  0  0
  -21.1488   -6.0526   25.9082 H   0  0  0  0  0  0
  -22.0598   -2.7615   23.2856 H   0  0  0  0  0  0
  -22.4076  -11.9930   22.4752 H   0  0  0  0  0  0
  -21.1168  -13.1356   22.2515 H   0  0  0  0  0  0
  -24.6922  -15.8484   20.5254 H   0  0  0  0  0  0
  -26.3186  -15.6162   20.1263 H   0  0  0  0  0  0
  -26.7110  -32.5498   23.1092 H   0  0  0  0  0  0
  -24.9929  -33.9728   25.0348 H   0  0  0  0  0  0
  -22.6875  -31.3028   21.4083 H   0  0  0  0  0  0
  -23.3748  -35.9601   23.3314 H   0  0  0  0  0  0
  -24.3556  -36.8877   22.2047 H   0  0  0  0  0  0
  -23.7256  -37.6481   23.6658 H   0  0  0  0  0  0
  -26.0494  -31.6048   20.5995 H   0  0  0  0  0  0
  -26.8104  -30.8728   21.9870 H   0  0  0  0  0  0
  -28.1048  -29.1202   21.1229 H   0  0  0  0  0  0
  -26.0275  -25.9702   19.0137 H   0  0  0  0  0  0
  -23.9623  -27.2729   19.0771 H   0  0  0  0  0  0
  -23.6823  -30.5692   19.3951 H   0  0  0  0  0  0
  -22.7305  -29.2089   19.9013 H   0  0  0  0  0  0
  -25.1294  -36.1898   25.0830 H   0  0  0  0  0  0
  -20.9932  -28.3167   24.1445 H   0  0  0  0  0  0
  -20.5582  -26.2235   23.3600 H   0  0  0  0  0  0
  -21.6610  -26.7369   22.1241 H   0  0  0  0  0  0
  -19.6872  -25.6292   21.1193 H   0  0  0  0  0  0
  -19.6639  -27.3203   20.6748 H   0  0  0  0  0  0
  -17.4167  -26.6639   21.4036 H   0  0  0  0  0  0
  -18.0306  -26.0001   22.8998 H   0  0  0  0  0  0
  -19.7920  -30.7227   24.2267 H   0  0  0  0  0  0
  -17.4998  -31.6255   24.5120 H   0  0  0  0  0  0
  -15.5331  -30.2952   23.7639 H   0  0  0  0  0  0
  -15.8646  -28.0750   22.7126 H   0  0  0  0  0  0
  -24.5896  -30.7055   25.7703 H   0  0  0  0  0  0
  -24.8958  -32.2834   26.4871 H   0  0  0  0  0  0
  -25.8064  -30.8780   27.0157 H   0  0  0  0  0  0
  -26.2886  -29.6718   24.1174 H   0  0  0  0  0  0
  -27.4115  -29.7260   25.4555 H   0  0  0  0  0  0
  -27.8698  -30.4270   23.9220 H   0  0  0  0  0  0
  -27.2662  -33.3550   26.2053 H   0  0  0  0  0  0
  -28.3818  -32.6900   25.0225 H   0  0  0  0  0  0
  -28.0786  -31.8392   26.5294 H   0  0  0  0  0  0
  -28.2611  -38.0046   24.7500 H   0  0  0  0  0  0
  -28.1044  -36.2580   24.6327 H   0  0  0  0  0  0
  -27.2274  -37.1448   25.8874 H   0  0  0  0  0  0
  -20.9278  -29.8679   21.6920 H   0  0  0  0  0  0
  -26.0162  -38.2835   24.1427 H   0  0  0  0  0  0
  -30.2430  -20.3950   20.1152 H   0  0  0  0  0  0
  -30.5793  -22.3208   23.9423 H   0  0  0  0  0  0
  -30.6611  -18.6726   18.9892 H   0  0  0  0  0  0
  -31.3637  -17.0377   19.0247 H   0  0  0  0  0  0
  -29.0659  -16.2685   19.1298 H   0  0  0  0  0  0
  -28.5071  -17.8485   19.7807 H   0  0  0  0  0  0
  -31.8907  -17.3426   21.2969 H   0  0  0  0  0  0
  -29.0427  -17.1112   21.9535 H   0  0  0  0  0  0
  -30.6884  -18.4421   25.8170 H   0  0  0  0  0  0
  -32.4101  -18.7476   25.5155 H   0  0  0  0  0  0
  -31.8184  -17.0986   25.6749 H   0  0  0  0  0  0
  -30.5056  -25.0474   20.2049 H   0  0  0  0  0  0
  -29.6251  -24.7134   18.7441 H   0  0  0  0  0  0
  -27.4785  -24.7970   19.9577 H   0  0  0  0  0  0
  -28.2973  -25.1662   21.4496 H   0  0  0  0  0  0
  -30.4932  -22.6183   19.4846 H   0  0  0  0  0  0
  -28.7653  -22.5316   19.8395 H   0  0  0  0  0  0
  -29.3643  -14.8617   21.9604 H   0  0  0  0  0  0
  1 25  1  0  0  0
  1 30  2  0  0  0
  1 85  1  0  0  0
  2  3  1  0  0  0
  2 25  1  0  0  0
  2 88  1  0  0  0
  2 89  1  0  0  0
  3  4  1  0  0  0
  3 90  1  0  0  0
  3 91  1  0  0  0
  4  5  1  0  0  0
  4 92  1  0  0  0
  4 93  1  0  0  0
  5  6  1  0  0  0
  5 26  1  0  0  0
  5 94  1  0  0  0
  6 25  1  0  0  0
  6 95  1  0  0  0
  6 96  1  0  0  0
  7  8  2  0  0  0
  7 26  1  0  0  0
  7 29  1  0  0  0
  8  9  1  0  0  0
  8 22  1  0  0  0
  9 10  1  0  0  0
  9 27  2  0  0  0
 10 11  2  0  0  0
 10 15  1  0  0  0
 11 12  1  0  0  0
 11 97  1  0  0  0
 12 13  2  0  0  0
 12 98  1  0  0  0
 13 14  1  0  0  0
 13 31  1  0  0  0
 14 15  2  0  0  0
 14 99  1  0  0  0
 15100  1  0  0  0
 16 17  2  0  0  0
 16 21  1  0  0  0
 16 31  1  0  0  0
 17 18  1  0  0  0
 17101  1  0  0  0
 18 19  2  0  0  0
 18102  1  0  0  0
 19 20  1  0  0  0
 19 24  1  0  0  0
 20 21  2  0  0  0
 20103  1  0  0  0
 21 23  1  0  0  0
 22 28  1  0  0  0
 22 32  2  0  0  0
 26 27  1  0  0  0
 28104  1  0  0  0
 28105  1  0  0  0
 29106  1  0  0  0
 29107  1  0  0  0
 33 34  1  0  0  0
 33 66  1  0  0  0
 33 70  2  0  0  0
 34 36  1  0  0  0
 34 59  1  0  0  0
 34108  1  0  0  0
 35 44  2  0  0  0
 35 45  1  0  0  0
 35 68  1  0  0  0
 36 56  1  0  0  0
 36109  1  0  0  0
 37 39  1  0  0  0
 37 47  1  0  0  0
 37 66  1  0  0  0
 37110  1  0  0  0
 38 43  2  0  0  0
 38 46  1  0  0  0
 38 47  1  0  0  0
 39 64  1  0  0  0
 39 67  2  0  0  0
 40 52  1  0  0  0
 40 53  2  0  0  0
 40 58  1  0  0  0
 41111  1  0  0  0
 41112  1  0  0  0
 41113  1  0  0  0
 41 48  1  0  0  0
 42 43  1  0  0  0
 42 66  1  0  0  0
 42114  1  0  0  0
 42115  1  0  0  0
 43 44  1  0  0  0
 44116  1  0  0  0
 45 46  2  0  0  0
 45117  1  0  0  0
 46118  1  0  0  0
 47119  1  0  0  0
 47120  1  0  0  0
 48 56  1  0  0  0
 48 65  1  0  0  0
 48121  1  0  0  0
 49 50  1  0  0  0
 49 53  1  0  0  0
 49 64  1  0  0  0
 49122  1  0  0  0
 50 51  1  0  0  0
 50123  1  0  0  0
 50124  1  0  0  0
 51 52  1  0  0  0
 51125  1  0  0  0
 51126  1  0  0  0
 52127  1  0  0  0
 52128  1  0  0  0
 53 54  1  0  0  0
 54 55  2  0  0  0
 54129  1  0  0  0
 55 57  1  0  0  0
 55130  1  0  0  0
 56 69  2  0  0  0
 57 58  2  0  0  0
 57131  1  0  0  0
 58132  1  0  0  0
 59 60  1  0  0  0
 59 61  1  0  0  0
 59 62  1  0  0  0
 60133  1  0  0  0
 60134  1  0  0  0
 60135  1  0  0  0
 61136  1  0  0  0
 61137  1  0  0  0
 61138  1  0  0  0
 62139  1  0  0  0
 62140  1  0  0  0
 62141  1  0  0  0
 63 65  1  0  0  0
 63142  1  0  0  0
 63143  1  0  0  0
 63144  1  0  0  0
 64145  1  0  0  0
 65146  1  0  0  0
 68 82  1  0  0  0
 71 73  2  0  0  0
 71 74  1  0  0  0
 71147  1  0  0  0
 72 74  2  0  0  0
 72 84  1  0  0  0
 72148  1  0  0  0
 73 75  1  0  0  0
 73 78  1  0  0  0
 74 86  1  0  0  0
 75 84  2  0  0  0
 75 87  1  0  0  0
 76 77  1  0  0  0
 76 78  1  0  0  0
 76149  1  0  0  0
 76150  1  0  0  0
 77 79  1  0  0  0
 77151  1  0  0  0
 77152  1  0  0  0
 78 79  1  0  0  0
 78153  1  0  0  0
 79 85  1  0  0  0
 79154  1  0  0  0
 80 87  1  0  0  0
 80155  1  0  0  0
 80156  1  0  0  0
 80157  1  0  0  0
 81 82  1  0  0  0
 81 83  1  0  0  0
 81158  1  0  0  0
 81159  1  0  0  0
 82160  1  0  0  0
 82161  1  0  0  0
 83 86  1  0  0  0
 83162  1  0  0  0
 83163  1  0  0  0
 85164  1  0  0  0
M  ISO  4   1 100  68 101  82 101  85 100
M  END
> <chiral flag>
0

> <version>
0

> <s_m_source_file>
/data/baiqing/PycharmProjects/Reinvent-master-3.2/result/LINK_invent/BTK/process_docking_weight1_custom_sum_contain_oxygen_bond_distance_aromatic_linkinvent_7_9_3/rearranged_h_0145.sdf

> <i_m_source_file_index>
13

> <r_mmod_Potential_Energy-OPLS-2005>
-157.545654296875

> <r_mmod_Stretch_Energy-OPLS-2005>
44.0501480102539

> <r_mmod_Bend_Energy-OPLS-2005>
143.69482421875

> <r_mmod_Torsional_Energy-OPLS-2005>
255.519027709961

> <r_mmod_Improper_Torsional_Energy-OPLS-2005>
4.27247428894043

> <r_mmod_Van_der_Waal_Energy-OPLS-2005>
162.182952880859

> <r_mmod_Electrostatic_Energy-OPLS-2005>
-555.155334472656

> <r_mmod_Solvation_Energy-OPLS-2005>
-222.044082641602

> <b_mmod_Minimization_Converged-OPLS-2005>
0

> <r_mmod_RMS_Derivative-OPLS-2005>
4.05376005172729

$$$$
13
                    3D
 Structure written by MMmdl.
168177  0  0  1  0            999 V2000
  -30.6879  -14.5353   20.5556 C   0  0  0  0  0  0
  -30.4244  -12.3390   19.4391 C   0  0  0  0  0  0
  -29.5012  -12.5040   18.2143 C   0  0  0  0  0  0
  -28.0245  -12.3532   18.6258 C   0  0  0  0  0  0
  -27.6586  -13.2097   19.8690 C   0  0  2  0  0  0
  -28.7017  -13.0309   20.9958 C   0  0  0  0  0  0
  -25.2598  -13.8102   20.5730 C   0  0  0  0  0  0
  -24.1840  -13.0410   20.9202 C   0  0  0  0  0  0
  -24.6388  -11.6881   20.8724 C   0  0  0  0  0  0
  -23.9038  -10.4285   21.0414 C   0  0  0  0  0  0
  -24.3591   -9.4214   21.9206 C   0  0  0  0  0  0
  -23.6273   -8.2241   22.0768 C   0  0  0  0  0  0
  -22.4266   -8.0274   21.3540 C   0  0  0  0  0  0
  -21.9882   -9.0257   20.4656 C   0  0  0  0  0  0
  -22.7200  -10.2142   20.3068 C   0  0  0  0  0  0
  -21.6837   -6.0733   22.5280 C   0  0  0  0  0  0
  -21.4021   -6.5636   23.8217 C   0  0  0  0  0  0
  -21.3661   -5.6786   24.9179 C   0  0  0  0  0  0
  -21.6049   -4.3046   24.7227 C   0  0  0  0  0  0
  -21.8818   -3.8140   23.4345 C   0  0  0  0  0  0
  -21.9191   -4.6961   22.3405 C   0  0  0  0  0  0
  -22.7866  -13.5244   21.1853 C   0  0  0  0  0  0
  -22.1658   -4.2156   21.0974 F   0  0  0  0  0  0
  -21.5628   -3.4514   25.7734 F   0  0  0  0  0  0
  -30.0254  -13.3481   20.4355 N   0  0  0  0  0  0
  -26.3022  -12.9296   20.3344 N   0  0  0  0  0  0
  -25.9324  -11.6457   20.5746 N   0  0  0  0  0  0
  -22.0463  -12.8287   22.0400 N   0  0  0  0  0  0
  -25.4332  -15.1800   20.4214 N   0  0  0  0  0  0
  -31.8278  -14.6908   20.1130 O   0  0  0  0  0  0
  -21.6626   -6.8879   21.4242 O   0  0  0  0  0  0
  -22.3590  -14.5566   20.6696 O   0  0  0  0  0  0
  -24.6187  -31.8646   23.2056 C   0  0  0  0  0  0
  -25.9065  -32.4805   23.8391 C   0  0  1  0  0  0
  -27.2414  -27.3883   20.1081 C   0  0  0  0  0  0
  -25.5889  -33.8601   24.2325 N   0  0  0  0  0  0
  -23.4099  -30.4872   21.5465 C   0  0  2  0  0  0
  -24.8555  -28.9398   20.1181 C   0  0  0  0  0  0
  -22.7415  -29.4672   22.4978 C   0  0  0  0  0  0
  -18.0289  -28.1354   22.8511 C   0  0  0  0  0  0
  -24.1471  -36.7314   23.2642 C   0  0  0  0  0  0
  -25.9428  -30.8161   21.3628 C   0  0  0  0  0  0
  -26.0169  -29.4459   20.7121 C   0  0  0  0  0  0
  -27.2075  -28.6775   20.7011 C   0  0  0  0  0  0
  -26.0531  -26.8986   19.5172 C   0  0  0  0  0  0
  -24.8702  -27.6670   19.5194 C   0  0  0  0  0  0
  -23.6199  -29.8124   20.1641 C   0  0  0  0  0  0
  -25.4097  -36.3114   24.0346 C   0  0  1  0  0  0
  -20.5868  -28.3675   23.1325 C   0  0  2  0  0  0
  -20.6785  -26.9409   22.5449 C   0  0  0  0  0  0
  -19.5761  -26.6353   21.5257 C   0  0  0  0  0  0
  -18.1936  -26.7904   22.1647 C   0  0  0  0  0  0
  -19.1531  -28.8839   23.2909 C   0  0  0  0  0  0
  -18.9451  -30.1438   23.8907 C   0  0  0  0  0  0
  -17.6454  -30.6582   24.0545 C   0  0  0  0  0  0
  -25.9036  -34.9465   23.5143 C   0  0  0  0  0  0
  -16.5354  -29.9072   23.6310 C   0  0  0  0  0  0
  -16.7281  -28.6480   23.0363 C   0  0  0  0  0  0
  -26.4469  -31.6605   25.0742 C   0  0  0  0  0  0
  -25.3734  -31.3712   26.1499 C   0  0  0  0  0  0
  -27.0310  -30.3049   24.6148 C   0  0  0  0  0  0
  -27.6052  -32.4323   25.7491 C   0  0  0  0  0  0
  -27.5585  -37.1822   24.8472 C   0  0  0  0  0  0
  -21.4138  -29.3064   22.3723 N   0  0  0  0  0  0
  -26.4287  -37.3801   23.9421 N   0  0  0  0  0  0
  -24.6766  -31.0721   22.0961 N   0  0  0  0  0  0
  -23.4173  -28.8213   23.3025 O   0  0  0  0  0  0
  -28.4308  -26.6700   20.1411 O   0  0  0  0  0  0
  -26.5599  -34.8913   22.4713 O   0  0  0  0  0  0
  -23.5366  -32.1412   23.7417 O   0  0  0  0  0  0
  -29.5848  -20.5582   20.7257 C   0  0  0  0  0  0
  -27.4945  -21.2595   20.3758 C   0  0  0  0  0  0
  -28.7763  -21.7212   20.4720 C   0  0  0  0  0  0
  -28.7846  -19.4320   20.8033 C   0  0  0  0  0  0
  -25.8281  -18.9625   23.1072 C   0  0  0  0  0  0
  -24.6831  -18.2143   22.4595 C   0  0  0  0  0  0
  -26.0318  -18.2731   21.7806 C   0  0  0  0  0  0
  -26.2059  -18.2268   19.2394 C   0  0  0  0  0  0
  -31.6006  -17.5506   20.8039 C   0  0  0  0  0  0
  -29.0199  -17.9410   21.0986 C   0  0  0  0  0  0
  -28.5522  -25.3343   19.5891 C   0  0  0  0  0  0
  -28.3340  -24.1421   20.5761 C   0  0  0  0  0  0
  -26.2590  -19.0866   20.5123 C   0  0  2  0  0  0
  -30.2737  -16.9970   21.3700 C   0  0  1  0  0  0
  -27.4821  -19.8864   20.5720 N   0  0  0  0  0  0
  -29.9610  -15.5628   21.0651 N   0  0  0  0  0  0
  -29.2238  -23.0255   20.3017 O   0  0  0  0  0  0
  -31.4698  -12.4321   19.1436 H   0  0  0  0  0  0
  -30.3239  -11.3382   19.8603 H   0  0  0  0  0  0
  -29.7538  -11.7675   17.4491 H   0  0  0  0  0  0
  -29.6570  -13.4843   17.7621 H   0  0  0  0  0  0
  -27.8508  -11.2986   18.8398 H   0  0  0  0  0  0
  -27.3713  -12.6015   17.7889 H   0  0  0  0  0  0
  -27.6895  -14.2515   19.5489 H   0  0  0  0  0  0
  -28.6926  -12.0047   21.3675 H   0  0  0  0  0  0
  -28.4554  -13.6533   21.8568 H   0  0  0  0  0  0
  -25.2740   -9.5697   22.4772 H   0  0  0  0  0  0
  -23.9986   -7.4636   22.7489 H   0  0  0  0  0  0
  -21.0799   -8.8767   19.8966 H   0  0  0  0  0  0
  -22.3651  -10.9682   19.6163 H   0  0  0  0  0  0
  -21.2024   -7.6144   23.9727 H   0  0  0  0  0  0
  -21.1469   -6.0514   25.9084 H   0  0  0  0  0  0
  -22.0595   -2.7601   23.2835 H   0  0  0  0  0  0
  -22.3988  -11.9922   22.4800 H   0  0  0  0  0  0
  -21.1118  -13.1411   22.2589 H   0  0  0  0  0  0
  -24.6732  -15.8347   20.5668 H   0  0  0  0  0  0
  -26.2909  -15.6230   20.1195 H   0  0  0  0  0  0
  -26.7158  -32.5485   23.1173 H   0  0  0  0  0  0
  -25.0035  -33.9746   25.0473 H   0  0  0  0  0  0
  -22.7020  -31.3063   21.4026 H   0  0  0  0  0  0
  -23.3731  -35.9654   23.3313 H   0  0  0  0  0  0
  -24.3568  -36.8913   22.2058 H   0  0  0  0  0  0
  -23.7209  -37.6519   23.6641 H   0  0  0  0  0  0
  -26.0606  -31.5776   20.5894 H   0  0  0  0  0  0
  -26.8300  -30.8720   21.9820 H   0  0  0  0  0  0
  -28.1050  -29.0687   21.1595 H   0  0  0  0  0  0
  -26.0095  -25.9189   19.0665 H   0  0  0  0  0  0
  -23.9730  -27.2663   19.0680 H   0  0  0  0  0  0
  -23.7337  -30.5858   19.4013 H   0  0  0  0  0  0
  -22.7436  -29.2326   19.8690 H   0  0  0  0  0  0
  -25.1265  -36.2008   25.0838 H   0  0  0  0  0  0
  -20.9957  -28.3242   24.1451 H   0  0  0  0  0  0
  -20.5670  -26.2321   23.3684 H   0  0  0  0  0  0
  -21.6665  -26.7429   22.1248 H   0  0  0  0  0  0
  -19.6918  -25.6257   21.1318 H   0  0  0  0  0  0
  -19.6699  -27.3138   20.6769 H   0  0  0  0  0  0
  -17.4223  -26.6663   21.4034 H   0  0  0  0  0  0
  -18.0314  -26.0024   22.9009 H   0  0  0  0  0  0
  -19.7915  -30.7262   24.2275 H   0  0  0  0  0  0
  -17.5004  -31.6285   24.5094 H   0  0  0  0  0  0
  -15.5349  -30.2958   23.7634 H   0  0  0  0  0  0
  -15.8689  -28.0785   22.7056 H   0  0  0  0  0  0
  -24.5887  -30.7085   25.7843 H   0  0  0  0  0  0
  -24.8943  -32.2855   26.5008 H   0  0  0  0  0  0
  -25.8082  -30.8842   27.0236 H   0  0  0  0  0  0
  -26.2881  -29.6811   24.1164 H   0  0  0  0  0  0
  -27.4040  -29.7288   25.4626 H   0  0  0  0  0  0
  -27.8718  -30.4368   23.9333 H   0  0  0  0  0  0
  -27.2704  -33.3609   26.2127 H   0  0  0  0  0  0
  -28.3825  -32.6924   25.0293 H   0  0  0  0  0  0
  -28.0780  -31.8423   26.5352 H   0  0  0  0  0  0
  -28.2624  -38.0099   24.7513 H   0  0  0  0  0  0
  -28.1055  -36.2639   24.6302 H   0  0  0  0  0  0
  -27.2306  -37.1485   25.8872 H   0  0  0  0  0  0
  -20.9273  -29.8826   21.6996 H   0  0  0  0  0  0
  -26.0184  -38.2883   24.1422 H   0  0  0  0  0  0
  -30.6588  -20.5550   20.8531 H   0  0  0  0  0  0
  -26.5717  -21.7855   20.1690 H   0  0  0  0  0  0
  -26.3045  -18.5159   23.9776 H   0  0  0  0  0  0
  -25.7846  -20.0487   23.1038 H   0  0  0  0  0  0
  -23.8696  -18.8052   22.0448 H   0  0  0  0  0  0
  -24.3894  -17.2593   22.8911 H   0  0  0  0  0  0
  -26.6000  -17.3466   21.8238 H   0  0  0  0  0  0
  -25.2275  -17.7614   19.1266 H   0  0  0  0  0  0
  -26.9520  -17.4327   19.2478 H   0  0  0  0  0  0
  -26.3866  -18.8317   18.3512 H   0  0  0  0  0  0
  -31.7849  -18.5600   21.1705 H   0  0  0  0  0  0
  -31.5979  -17.5874   19.7137 H   0  0  0  0  0  0
  -32.4553  -16.9559   21.1277 H   0  0  0  0  0  0
  -29.4171  -18.4171   21.9955 H   0  0  0  0  0  0
  -29.3354  -17.8711   20.0573 H   0  0  0  0  0  0
  -29.5913  -25.2827   19.2657 H   0  0  0  0  0  0
  -27.9870  -25.1982   18.6685 H   0  0  0  0  0  0
  -28.5671  -24.4765   21.5881 H   0  0  0  0  0  0
  -27.2790  -23.8738   20.5898 H   0  0  0  0  0  0
  -25.4270  -19.7892   20.4444 H   0  0  0  0  0  0
  -30.4570  -16.9236   22.4494 H   0  0  0  0  0  0
  -29.0335  -15.2767   21.3434 H   0  0  0  0  0  0
  1 25  1  0  0  0
  1 30  2  0  0  0
  1 86  1  0  0  0
  2  3  1  0  0  0
  2 25  1  0  0  0
  2 88  1  0  0  0
  2 89  1  0  0  0
  3  4  1  0  0  0
  3 90  1  0  0  0
  3 91  1  0  0  0
  4  5  1  0  0  0
  4 92  1  0  0  0
  4 93  1  0  0  0
  5  6  1  0  0  0
  5 26  1  0  0  0
  5 94  1  0  0  0
  6 25  1  0  0  0
  6 95  1  0  0  0
  6 96  1  0  0  0
  7  8  2  0  0  0
  7 26  1  0  0  0
  7 29  1  0  0  0
  8  9  1  0  0  0
  8 22  1  0  0  0
  9 10  1  0  0  0
  9 27  2  0  0  0
 10 11  2  0  0  0
 10 15  1  0  0  0
 11 12  1  0  0  0
 11 97  1  0  0  0
 12 13  2  0  0  0
 12 98  1  0  0  0
 13 14  1  0  0  0
 13 31  1  0  0  0
 14 15  2  0  0  0
 14 99  1  0  0  0
 15100  1  0  0  0
 16 17  2  0  0  0
 16 21  1  0  0  0
 16 31  1  0  0  0
 17 18  1  0  0  0
 17101  1  0  0  0
 18 19  2  0  0  0
 18102  1  0  0  0
 19 20  1  0  0  0
 19 24  1  0  0  0
 20 21  2  0  0  0
 20103  1  0  0  0
 21 23  1  0  0  0
 22 28  1  0  0  0
 22 32  2  0  0  0
 26 27  1  0  0  0
 28104  1  0  0  0
 28105  1  0  0  0
 29106  1  0  0  0
 29107  1  0  0  0
 33 34  1  0  0  0
 33 66  1  0  0  0
 33 70  2  0  0  0
 34 36  1  0  0  0
 34 59  1  0  0  0
 34108  1  0  0  0
 35 44  2  0  0  0
 35 45  1  0  0  0
 35 68  1  0  0  0
 36 56  1  0  0  0
 36109  1  0  0  0
 37 39  1  0  0  0
 37 47  1  0  0  0
 37 66  1  0  0  0
 37110  1  0  0  0
 38 43  2  0  0  0
 38 46  1  0  0  0
 38 47  1  0  0  0
 39 64  1  0  0  0
 39 67  2  0  0  0
 40 52  1  0  0  0
 40 53  2  0  0  0
 40 58  1  0  0  0
 41111  1  0  0  0
 41112  1  0  0  0
 41113  1  0  0  0
 41 48  1  0  0  0
 42 43  1  0  0  0
 42 66  1  0  0  0
 42114  1  0  0  0
 42115  1  0  0  0
 43 44  1  0  0  0
 44116  1  0  0  0
 45 46  2  0  0  0
 45117  1  0  0  0
 46118  1  0  0  0
 47119  1  0  0  0
 47120  1  0  0  0
 48 56  1  0  0  0
 48 65  1  0  0  0
 48121  1  0  0  0
 49 50  1  0  0  0
 49 53  1  0  0  0
 49 64  1  0  0  0
 49122  1  0  0  0
 50 51  1  0  0  0
 50123  1  0  0  0
 50124  1  0  0  0
 51 52  1  0  0  0
 51125  1  0  0  0
 51126  1  0  0  0
 52127  1  0  0  0
 52128  1  0  0  0
 53 54  1  0  0  0
 54 55  2  0  0  0
 54129  1  0  0  0
 55 57  1  0  0  0
 55130  1  0  0  0
 56 69  2  0  0  0
 57 58  2  0  0  0
 57131  1  0  0  0
 58132  1  0  0  0
 59 60  1  0  0  0
 59 61  1  0  0  0
 59 62  1  0  0  0
 60133  1  0  0  0
 60134  1  0  0  0
 60135  1  0  0  0
 61136  1  0  0  0
 61137  1  0  0  0
 61138  1  0  0  0
 62139  1  0  0  0
 62140  1  0  0  0
 62141  1  0  0  0
 63 65  1  0  0  0
 63142  1  0  0  0
 63143  1  0  0  0
 63144  1  0  0  0
 64145  1  0  0  0
 65146  1  0  0  0
 68 81  1  0  0  0
 71 73  1  0  0  0
 71 74  2  0  0  0
 71147  1  0  0  0
 72 73  2  0  0  0
 72 85  1  0  0  0
 72148  1  0  0  0
 73 87  1  0  0  0
 74 80  1  0  0  0
 74 85  1  0  0  0
 75 76  1  0  0  0
 75149  1  0  0  0
 75150  1  0  0  0
 75 77  1  0  0  0
 76 77  1  0  0  0
 76151  1  0  0  0
 76152  1  0  0  0
 77 83  1  0  0  0
 77153  1  0  0  0
 78154  1  0  0  0
 78155  1  0  0  0
 78156  1  0  0  0
 78 83  1  0  0  0
 79157  1  0  0  0
 79158  1  0  0  0
 79159  1  0  0  0
 79 84  1  0  0  0
 80 84  1  0  0  0
 80160  1  0  0  0
 80161  1  0  0  0
 81 82  1  0  0  0
 81162  1  0  0  0
 81163  1  0  0  0
 82 87  1  0  0  0
 82164  1  0  0  0
 82165  1  0  0  0
 83 85  1  0  0  0
 83166  1  0  0  0
 84 86  1  0  0  0
 84167  1  0  0  0
 86168  1  0  0  0
M  ISO  4   1 100  68 101  81 101  86 100
M  END
> <chiral flag>
0

> <version>
0

> <s_m_source_file>
/data/baiqing/PycharmProjects/Reinvent-master-3.2/result/LINK_invent/BTK/process_docking_weight1_custom_sum_contain_oxygen_bond_distance_aromatic_linkinvent_7_9_3/rearranged_h_0145.sdf

> <i_m_source_file_index>
14

> <r_mmod_Potential_Energy-OPLS-2005>
277.925598144531

> <r_mmod_Stretch_Energy-OPLS-2005>
54.8869552612305

> <r_mmod_Bend_Energy-OPLS-2005>
392.951416015625

> <r_mmod_Torsional_Energy-OPLS-2005>
258.000457763672

> <r_mmod_Improper_Torsional_Energy-OPLS-2005>
3.0327262878418

> <r_mmod_Van_der_Waal_Energy-OPLS-2005>
129.896682739258

> <r_mmod_Electrostatic_Energy-OPLS-2005>
-371.304595947266

> <r_mmod_Solvation_Energy-OPLS-2005>
-211.010330200195

> <b_mmod_Minimization_Converged-OPLS-2005>
0

> <r_mmod_RMS_Derivative-OPLS-2005>
3.11384105682373

$$$$
14
                    3D
 Structure written by MMmdl.
174184  0  0  1  0            999 V2000
  -30.6278  -14.5416   20.5638 C   0  0  0  0  0  0
  -30.4345  -12.3603   19.4093 C   0  0  0  0  0  0
  -29.4851  -12.5348   18.2025 C   0  0  0  0  0  0
  -28.0096  -12.3643   18.6198 C   0  0  0  0  0  0
  -27.6551  -13.1972   19.8790 C   0  0  2  0  0  0
  -28.7028  -12.9710   20.9910 C   0  0  0  0  0  0
  -25.2542  -13.8135   20.5715 C   0  0  0  0  0  0
  -24.1778  -13.0419   20.9227 C   0  0  0  0  0  0
  -24.6328  -11.6887   20.8778 C   0  0  0  0  0  0
  -23.8989  -10.4269   21.0410 C   0  0  0  0  0  0
  -24.3565   -9.4188   21.9175 C   0  0  0  0  0  0
  -23.6271   -8.2203   22.0738 C   0  0  0  0  0  0
  -22.4250   -8.0243   21.3530 C   0  0  0  0  0  0
  -21.9869   -9.0205   20.4633 C   0  0  0  0  0  0
  -22.7173  -10.2102   20.3046 C   0  0  0  0  0  0
  -21.6830   -6.0720   22.5296 C   0  0  0  0  0  0
  -21.3980   -6.5632   23.8228 C   0  0  0  0  0  0
  -21.3668   -5.6796   24.9200 C   0  0  0  0  0  0
  -21.6058   -4.3062   24.7255 C   0  0  0  0  0  0
  -21.8806   -3.8140   23.4379 C   0  0  0  0  0  0
  -21.9177   -4.6946   22.3424 C   0  0  0  0  0  0
  -22.7801  -13.5225   21.1910 C   0  0  0  0  0  0
  -22.1641   -4.2126   21.0998 F   0  0  0  0  0  0
  -21.5659   -3.4545   25.7772 F   0  0  0  0  0  0
  -30.0199  -13.3287   20.4365 N   0  0  0  0  0  0
  -26.2967  -12.9280   20.3416 N   0  0  0  0  0  0
  -25.9258  -11.6455   20.5807 N   0  0  0  0  0  0
  -22.0461  -12.8178   22.0469 N   0  0  0  0  0  0
  -25.4291  -15.1843   20.4115 N   0  0  0  0  0  0
  -31.7634  -14.7737   20.1401 O   0  0  0  0  0  0
  -21.6624   -6.8837   21.4241 O   0  0  0  0  0  0
  -22.3484  -14.5546   20.6793 O   0  0  0  0  0  0
  -24.6144  -31.8656   23.2080 C   0  0  0  0  0  0
  -25.9022  -32.4803   23.8383 C   0  0  1  0  0  0
  -27.2349  -27.3868   20.1123 C   0  0  0  0  0  0
  -25.5877  -33.8612   24.2297 N   0  0  0  0  0  0
  -23.4056  -30.4877   21.5466 C   0  0  2  0  0  0
  -24.8539  -28.9440   20.1128 C   0  0  0  0  0  0
  -22.7397  -29.4654   22.4962 C   0  0  0  0  0  0
  -18.0261  -28.1370   22.8496 C   0  0  0  0  0  0
  -24.1486  -36.7305   23.2639 C   0  0  0  0  0  0
  -25.9380  -30.8122   21.3718 C   0  0  0  0  0  0
  -26.0129  -29.4436   20.7170 C   0  0  0  0  0  0
  -27.1991  -28.6710   20.7158 C   0  0  0  0  0  0
  -26.0526  -26.9093   19.5009 C   0  0  0  0  0  0
  -24.8705  -27.6782   19.5014 C   0  0  0  0  0  0
  -23.6174  -29.8153   20.1622 C   0  0  0  0  0  0
  -25.4111  -36.3096   24.0331 C   0  0  1  0  0  0
  -20.5855  -28.3678   23.1296 C   0  0  2  0  0  0
  -20.6752  -26.9412   22.5411 C   0  0  0  0  0  0
  -19.5741  -26.6383   21.5200 C   0  0  0  0  0  0
  -18.1918  -26.7916   22.1611 C   0  0  0  0  0  0
  -19.1516  -28.8834   23.2899 C   0  0  0  0  0  0
  -18.9446  -30.1438   23.8927 C   0  0  0  0  0  0
  -17.6455  -30.6592   24.0567 C   0  0  0  0  0  0
  -25.9051  -34.9463   23.5121 C   0  0  0  0  0  0
  -16.5347  -29.9102   23.6318 C   0  0  0  0  0  0
  -16.7256  -28.6500   23.0371 C   0  0  0  0  0  0
  -26.4444  -31.6603   25.0736 C   0  0  0  0  0  0
  -25.3686  -31.3734   26.1473 C   0  0  0  0  0  0
  -27.0266  -30.3023   24.6168 C   0  0  0  0  0  0
  -27.6043  -32.4320   25.7472 C   0  0  0  0  0  0
  -27.5591  -37.1794   24.8447 C   0  0  0  0  0  0
  -21.4124  -29.3054   22.3698 N   0  0  0  0  0  0
  -26.4286  -37.3791   23.9416 N   0  0  0  0  0  0
  -24.6704  -31.0709   22.0989 N   0  0  0  0  0  0
  -23.4148  -28.8194   23.3024 O   0  0  0  0  0  0
  -28.4112  -26.6498   20.1696 O   0  0  0  0  0  0
  -26.5630  -34.8914   22.4696 O   0  0  0  0  0  0
  -23.5332  -32.1439   23.7445 O   0  0  0  0  0  0
  -30.9956  -22.5108   22.1017 C   0  0  0  0  0  0
  -31.8368  -21.3868   22.0969 C   0  0  0  0  0  0
  -31.4962  -20.2875   21.2613 C   0  0  0  0  0  0
  -29.8472  -22.5289   21.3079 C   0  0  0  0  0  0
  -30.2006  -20.2842   20.6572 C   0  0  0  0  0  0
  -33.2074  -20.4635   24.1286 C   0  0  0  0  0  0
  -33.0638  -21.9447   24.3717 C   0  0  0  0  0  0
  -34.6538  -19.0380   19.3046 C   0  0  0  0  0  0
  -33.0781  -21.4095   22.9565 C   0  0  0  0  0  0
  -33.5375  -19.7227   18.5501 C   0  0  1  0  0  0
  -33.6509  -19.8876   20.0474 C   0  0  1  0  0  0
  -33.7872  -20.9163   17.6498 C   0  0  0  0  0  0
  -32.6086  -19.2723   20.9704 C   0  0  0  0  0  0
  -30.0562  -16.9768   21.2159 C   0  0  0  0  0  0
  -29.9343  -17.8413   19.9173 C   0  0  0  0  0  0
  -28.5715  -25.3832   19.4798 C   0  0  0  0  0  0
  -28.1937  -24.0615   20.2319 C   0  0  0  0  0  0
  -29.4292  -21.4164   20.6496 N   0  0  0  0  0  0
  -29.8247  -15.5212   21.0369 N   0  0  0  0  0  0
  -29.1399  -23.7285   21.2652 O   0  0  0  0  0  0
  -29.5341  -19.2330   20.0215 O   0  0  0  0  0  0
  -31.4687  -12.5120   19.0949 H   0  0  0  0  0  0
  -30.3816  -11.3447   19.8026 H   0  0  0  0  0  0
  -29.7372  -11.8256   17.4146 H   0  0  0  0  0  0
  -29.6177  -13.5252   17.7662 H   0  0  0  0  0  0
  -27.8342  -11.3056   18.8127 H   0  0  0  0  0  0
  -27.3503  -12.6343   17.7936 H   0  0  0  0  0  0
  -27.6981  -14.2451   19.5844 H   0  0  0  0  0  0
  -28.7051  -11.9232   21.2962 H   0  0  0  0  0  0
  -28.4616  -13.5303   21.8964 H   0  0  0  0  0  0
  -25.2712   -9.5685   22.4741 H   0  0  0  0  0  0
  -24.0011   -7.4573   22.7431 H   0  0  0  0  0  0
  -21.0814   -8.8681   19.8926 H   0  0  0  0  0  0
  -22.3607  -10.9624   19.6150 H   0  0  0  0  0  0
  -21.1929   -7.6132   23.9728 H   0  0  0  0  0  0
  -21.1526   -6.0534   25.9106 H   0  0  0  0  0  0
  -22.0576   -2.7599   23.2898 H   0  0  0  0  0  0
  -22.4111  -11.9830   22.4807 H   0  0  0  0  0  0
  -21.1075  -13.1151   22.2731 H   0  0  0  0  0  0
  -24.6692  -15.8466   20.5243 H   0  0  0  0  0  0
  -26.2843  -15.6176   20.0871 H   0  0  0  0  0  0
  -26.7088  -32.5471   23.1138 H   0  0  0  0  0  0
  -24.9968  -33.9784   25.0399 H   0  0  0  0  0  0
  -22.6965  -31.3057   21.4038 H   0  0  0  0  0  0
  -23.3758  -35.9628   23.3283 H   0  0  0  0  0  0
  -24.3583  -36.8947   22.2058 H   0  0  0  0  0  0
  -23.7227  -37.6499   23.6674 H   0  0  0  0  0  0
  -26.0659  -31.5793   20.6062 H   0  0  0  0  0  0
  -26.8202  -30.8589   21.9997 H   0  0  0  0  0  0
  -28.0889  -29.0537   21.1956 H   0  0  0  0  0  0
  -26.0124  -25.9373   19.0343 H   0  0  0  0  0  0
  -23.9770  -27.2871   19.0340 H   0  0  0  0  0  0
  -23.7248  -30.5877   19.4007 H   0  0  0  0  0  0
  -22.7409  -29.2351   19.8676 H   0  0  0  0  0  0
  -25.1287  -36.1959   25.0824 H   0  0  0  0  0  0
  -20.9957  -28.3251   24.1414 H   0  0  0  0  0  0
  -20.5614  -26.2304   23.3614 H   0  0  0  0  0  0
  -21.6630  -26.7432   22.1244 H   0  0  0  0  0  0
  -19.6919  -25.6291   21.1245 H   0  0  0  0  0  0
  -19.6678  -27.3178   20.6722 H   0  0  0  0  0  0
  -17.4190  -26.6657   21.4023 H   0  0  0  0  0  0
  -18.0343  -26.0052   22.9001 H   0  0  0  0  0  0
  -19.7922  -30.7235   24.2327 H   0  0  0  0  0  0
  -17.5013  -31.6271   24.5162 H   0  0  0  0  0  0
  -15.5353  -30.3023   23.7623 H   0  0  0  0  0  0
  -15.8641  -28.0811   22.7116 H   0  0  0  0  0  0
  -24.5875  -30.7070   25.7798 H   0  0  0  0  0  0
  -24.8855  -32.2895   26.4885 H   0  0  0  0  0  0
  -25.8010  -30.8922   27.0252 H   0  0  0  0  0  0
  -26.2827  -29.6808   24.1174 H   0  0  0  0  0  0
  -27.3940  -29.7252   25.4664 H   0  0  0  0  0  0
  -27.8705  -30.4319   23.9391 H   0  0  0  0  0  0
  -27.2702  -33.3630   26.2064 H   0  0  0  0  0  0
  -28.3826  -32.6865   25.0265 H   0  0  0  0  0  0
  -28.0735  -31.8427   26.5359 H   0  0  0  0  0  0
  -28.2581  -38.0121   24.7553 H   0  0  0  0  0  0
  -28.1115  -36.2661   24.6191 H   0  0  0  0  0  0
  -27.2319  -37.1346   25.8848 H   0  0  0  0  0  0
  -20.9282  -29.8776   21.6919 H   0  0  0  0  0  0
  -26.0168  -38.2859   24.1457 H   0  0  0  0  0  0
  -31.2585  -23.3897   22.6740 H   0  0  0  0  0  0
  -32.3524  -19.8291   24.3577 H   0  0  0  0  0  0
  -34.1847  -20.0234   24.3225 H   0  0  0  0  0  0
  -33.9505  -22.4695   24.7231 H   0  0  0  0  0  0
  -32.1211  -22.2900   24.7904 H   0  0  0  0  0  0
  -35.6627  -19.4373   19.2111 H   0  0  0  0  0  0
  -34.5916  -17.9595   19.4374 H   0  0  0  0  0  0
  -33.9738  -21.6231   22.3806 H   0  0  0  0  0  0
  -32.7433  -19.0676   18.1969 H   0  0  0  0  0  0
  -34.0449  -20.8421   20.3850 H   0  0  0  0  0  0
  -34.6137  -21.5222   18.0241 H   0  0  0  0  0  0
  -32.8965  -21.5447   17.6094 H   0  0  0  0  0  0
  -34.0228  -20.5907   16.6359 H   0  0  0  0  0  0
  -32.2865  -18.3565   20.5089 H   0  0  0  0  0  0
  -33.0867  -18.9537   21.8958 H   0  0  0  0  0  0
  -29.2864  -17.3138   21.9107 H   0  0  0  0  0  0
  -31.0017  -17.1333   21.7305 H   0  0  0  0  0  0
  -29.1085  -17.4042   19.3558 H   0  0  0  0  0  0
  -30.7793  -17.7180   19.2421 H   0  0  0  0  0  0
  -28.0572  -25.4176   18.5182 H   0  0  0  0  0  0
  -29.6258  -25.3207   19.2118 H   0  0  0  0  0  0
  -28.1353  -23.2647   19.4907 H   0  0  0  0  0  0
  -27.1966  -24.1441   20.6671 H   0  0  0  0  0  0
  -28.9126  -15.1976   21.3232 H   0  0  0  0  0  0
  1 25  1  0  0  0
  1 30  2  0  0  0
  1 89  1  0  0  0
  2  3  1  0  0  0
  2 25  1  0  0  0
  2 92  1  0  0  0
  2 93  1  0  0  0
  3  4  1  0  0  0
  3 94  1  0  0  0
  3 95  1  0  0  0
  4  5  1  0  0  0
  4 96  1  0  0  0
  4 97  1  0  0  0
  5  6  1  0  0  0
  5 26  1  0  0  0
  5 98  1  0  0  0
  6 25  1  0  0  0
  6 99  1  0  0  0
  6100  1  0  0  0
  7  8  2  0  0  0
  7 26  1  0  0  0
  7 29  1  0  0  0
  8  9  1  0  0  0
  8 22  1  0  0  0
  9 10  1  0  0  0
  9 27  2  0  0  0
 10 11  2  0  0  0
 10 15  1  0  0  0
 11 12  1  0  0  0
 11101  1  0  0  0
 12 13  2  0  0  0
 12102  1  0  0  0
 13 14  1  0  0  0
 13 31  1  0  0  0
 14 15  2  0  0  0
 14103  1  0  0  0
 15104  1  0  0  0
 16 17  2  0  0  0
 16 21  1  0  0  0
 16 31  1  0  0  0
 17 18  1  0  0  0
 17105  1  0  0  0
 18 19  2  0  0  0
 18106  1  0  0  0
 19 20  1  0  0  0
 19 24  1  0  0  0
 20 21  2  0  0  0
 20107  1  0  0  0
 21 23  1  0  0  0
 22 28  1  0  0  0
 22 32  2  0  0  0
 26 27  1  0  0  0
 28108  1  0  0  0
 28109  1  0  0  0
 29110  1  0  0  0
 29111  1  0  0  0
 33 34  1  0  0  0
 33 66  1  0  0  0
 33 70  2  0  0  0
 34 36  1  0  0  0
 34 59  1  0  0  0
 34112  1  0  0  0
 35 44  2  0  0  0
 35 45  1  0  0  0
 35 68  1  0  0  0
 36 56  1  0  0  0
 36113  1  0  0  0
 37 39  1  0  0  0
 37 47  1  0  0  0
 37 66  1  0  0  0
 37114  1  0  0  0
 38 43  2  0  0  0
 38 46  1  0  0  0
 38 47  1  0  0  0
 39 64  1  0  0  0
 39 67  2  0  0  0
 40 52  1  0  0  0
 40 53  2  0  0  0
 40 58  1  0  0  0
 41115  1  0  0  0
 41116  1  0  0  0
 41117  1  0  0  0
 41 48  1  0  0  0
 42 43  1  0  0  0
 42 66  1  0  0  0
 42118  1  0  0  0
 42119  1  0  0  0
 43 44  1  0  0  0
 44120  1  0  0  0
 45 46  2  0  0  0
 45121  1  0  0  0
 46122  1  0  0  0
 47123  1  0  0  0
 47124  1  0  0  0
 48 56  1  0  0  0
 48 65  1  0  0  0
 48125  1  0  0  0
 49 50  1  0  0  0
 49 53  1  0  0  0
 49 64  1  0  0  0
 49126  1  0  0  0
 50 51  1  0  0  0
 50127  1  0  0  0
 50128  1  0  0  0
 51 52  1  0  0  0
 51129  1  0  0  0
 51130  1  0  0  0
 52131  1  0  0  0
 52132  1  0  0  0
 53 54  1  0  0  0
 54 55  2  0  0  0
 54133  1  0  0  0
 55 57  1  0  0  0
 55134  1  0  0  0
 56 69  2  0  0  0
 57 58  2  0  0  0
 57135  1  0  0  0
 58136  1  0  0  0
 59 60  1  0  0  0
 59 61  1  0  0  0
 59 62  1  0  0  0
 60137  1  0  0  0
 60138  1  0  0  0
 60139  1  0  0  0
 61140  1  0  0  0
 61141  1  0  0  0
 61142  1  0  0  0
 62143  1  0  0  0
 62144  1  0  0  0
 62145  1  0  0  0
 63 65  1  0  0  0
 63146  1  0  0  0
 63147  1  0  0  0
 63148  1  0  0  0
 64149  1  0  0  0
 65150  1  0  0  0
 68 86  1  0  0  0
 71 72  2  0  0  0
 71 74  1  0  0  0
 71151  1  0  0  0
 72 73  1  0  0  0
 72 79  1  0  0  0
 73 75  2  0  0  0
 73 83  1  0  0  0
 74 88  2  0  0  0
 74 90  1  0  0  0
 75 88  1  0  0  0
 75 91  1  0  0  0
 76 77  1  0  0  0
 76 79  1  0  0  0
 76152  1  0  0  0
 76153  1  0  0  0
 77 79  1  0  0  0
 77154  1  0  0  0
 77155  1  0  0  0
 78 80  1  0  0  0
 78 81  1  0  0  0
 78156  1  0  0  0
 78157  1  0  0  0
 79158  1  0  0  0
 80 81  1  0  0  0
 80 82  1  0  0  0
 80159  1  0  0  0
 81 83  1  0  0  0
 81160  1  0  0  0
 82161  1  0  0  0
 82162  1  0  0  0
 82163  1  0  0  0
 83164  1  0  0  0
 83165  1  0  0  0
 84 85  1  0  0  0
 84 89  1  0  0  0
 84166  1  0  0  0
 84167  1  0  0  0
 85 91  1  0  0  0
 85168  1  0  0  0
 85169  1  0  0  0
 86 87  1  0  0  0
 86170  1  0  0  0
 86171  1  0  0  0
 87 90  1  0  0  0
 87172  1  0  0  0
 87173  1  0  0  0
 89174  1  0  0  0
M  ISO  4   1 100  68 101  86 101  89 100
M  END
> <chiral flag>
0

> <version>
0

> <s_m_source_file>
/data/baiqing/PycharmProjects/Reinvent-master-3.2/result/LINK_invent/BTK/process_docking_weight1_custom_sum_contain_oxygen_bond_distance_aromatic_linkinvent_7_9_3/rearranged_h_0145.sdf

> <i_m_source_file_index>
15

> <r_mmod_Potential_Energy-OPLS-2005>
-176.890487670898

> <r_mmod_Stretch_Energy-OPLS-2005>
53.9236335754395

> <r_mmod_Bend_Energy-OPLS-2005>
194.806701660156

> <r_mmod_Torsional_Energy-OPLS-2005>
271.593780517578

> <r_mmod_Improper_Torsional_Energy-OPLS-2005>
4.24969148635864

> <r_mmod_Van_der_Waal_Energy-OPLS-2005>
149.836212158203

> <r_mmod_Electrostatic_Energy-OPLS-2005>
-656.652954101562

> <r_mmod_Solvation_Energy-OPLS-2005>
-218.674758911133

> <b_mmod_Minimization_Converged-OPLS-2005>
0

> <r_mmod_RMS_Derivative-OPLS-2005>
3.16317486763

$$$$
15
                    3D
 Structure written by MMmdl.
164174  0  0  1  0            999 V2000
  -30.6507  -14.7808   20.3709 C   0  0  0  0  0  0
  -30.4288  -12.4715   19.4576 C   0  0  0  0  0  0
  -29.5039  -12.4327   18.2252 C   0  0  0  0  0  0
  -28.0212  -12.3191   18.6400 C   0  0  0  0  0  0
  -27.6318  -13.2362   19.8315 C   0  0  2  0  0  0
  -28.6945  -13.2430   20.9479 C   0  0  0  0  0  0
  -25.2492  -13.8169   20.5787 C   0  0  0  0  0  0
  -24.1784  -13.0415   20.9229 C   0  0  0  0  0  0
  -24.6421  -11.6897   20.8797 C   0  0  0  0  0  0
  -23.9119  -10.4266   21.0418 C   0  0  0  0  0  0
  -24.3668   -9.4169   21.9189 C   0  0  0  0  0  0
  -23.6308   -8.2225   22.0769 C   0  0  0  0  0  0
  -22.4287   -8.0281   21.3550 C   0  0  0  0  0  0
  -21.9936   -9.0275   20.4663 C   0  0  0  0  0  0
  -22.7294  -10.2130   20.3066 C   0  0  0  0  0  0
  -21.6842   -6.0730   22.5273 C   0  0  0  0  0  0
  -21.3986   -6.5640   23.8200 C   0  0  0  0  0  0
  -21.3641   -5.6802   24.9175 C   0  0  0  0  0  0
  -21.6046   -4.3067   24.7232 C   0  0  0  0  0  0
  -21.8832   -3.8157   23.4360 C   0  0  0  0  0  0
  -21.9202   -4.6961   22.3413 C   0  0  0  0  0  0
  -22.7804  -13.5186   21.1870 C   0  0  0  0  0  0
  -22.1673   -4.2152   21.0984 F   0  0  0  0  0  0
  -21.5647   -3.4549   25.7745 F   0  0  0  0  0  0
  -29.9624  -13.5898   20.3038 N   0  0  0  0  0  0
  -26.2920  -12.9410   20.3318 N   0  0  0  0  0  0
  -25.9355  -11.6547   20.5839 N   0  0  0  0  0  0
  -22.0454  -12.8171   22.0405 N   0  0  0  0  0  0
  -25.4197  -15.1889   20.4391 N   0  0  0  0  0  0
  -31.8811  -14.7277   20.3540 O   0  0  0  0  0  0
  -21.6635   -6.8883   21.4233 O   0  0  0  0  0  0
  -22.3499  -14.5497   20.6709 O   0  0  0  0  0  0
  -24.6315  -31.8574   23.1993 C   0  0  0  0  0  0
  -25.9132  -32.4786   23.8376 C   0  0  1  0  0  0
  -27.2281  -27.2731   20.1456 C   0  0  0  0  0  0
  -25.5910  -33.8583   24.2292 N   0  0  0  0  0  0
  -23.4324  -30.4760   21.5412 C   0  0  2  0  0  0
  -24.8824  -28.9162   20.1190 C   0  0  0  0  0  0
  -22.7535  -29.4588   22.4899 C   0  0  0  0  0  0
  -18.0298  -28.1367   22.8481 C   0  0  0  0  0  0
  -24.1458  -36.7280   23.2644 C   0  0  0  0  0  0
  -25.9752  -30.7766   21.3752 C   0  0  0  0  0  0
  -26.0536  -29.3954   20.7234 C   0  0  0  0  0  0
  -27.2351  -28.5876   20.7165 C   0  0  0  0  0  0
  -26.0377  -26.8478   19.5242 C   0  0  0  0  0  0
  -24.8779  -27.6496   19.5093 C   0  0  0  0  0  0
  -23.6570  -29.8103   20.1578 C   0  0  0  0  0  0
  -25.4091  -36.3085   24.0319 C   0  0  1  0  0  0
  -20.5889  -28.3685   23.1240 C   0  0  2  0  0  0
  -20.6783  -26.9399   22.5387 C   0  0  0  0  0  0
  -19.5759  -26.6373   21.5184 C   0  0  0  0  0  0
  -18.1935  -26.7911   22.1597 C   0  0  0  0  0  0
  -19.1545  -28.8845   23.2861 C   0  0  0  0  0  0
  -18.9473  -30.1430   23.8903 C   0  0  0  0  0  0
  -17.6473  -30.6579   24.0551 C   0  0  0  0  0  0
  -25.9033  -34.9454   23.5114 C   0  0  0  0  0  0
  -16.5363  -29.9072   23.6333 C   0  0  0  0  0  0
  -16.7278  -28.6476   23.0376 C   0  0  0  0  0  0
  -26.4496  -31.6619   25.0774 C   0  0  0  0  0  0
  -25.3699  -31.3720   26.1478 C   0  0  0  0  0  0
  -27.0389  -30.3069   24.6213 C   0  0  0  0  0  0
  -27.6062  -32.4352   25.7527 C   0  0  0  0  0  0
  -27.5566  -37.1783   24.8456 C   0  0  0  0  0  0
  -21.4227  -29.3046   22.3644 N   0  0  0  0  0  0
  -26.4272  -37.3790   23.9410 N   0  0  0  0  0  0
  -24.6995  -31.0532   22.0960 N   0  0  0  0  0  0
  -23.4224  -28.8132   23.3013 O   0  0  0  0  0  0
  -28.3346  -26.4025   20.1492 O   0  0  0  0  0  0
  -26.5622  -34.8927   22.4691 O   0  0  0  0  0  0
  -23.5455  -32.1375   23.7253 O   0  0  0  0  0  0
  -29.2142  -19.8633   20.6123 C   0  0  0  0  0  0
  -27.6324  -20.8293   19.0998 C   0  0  0  0  0  0
  -28.9204  -18.5230   20.1154 C   0  0  0  0  0  0
  -28.5807  -21.0746   20.1126 C   0  0  0  0  0  0
  -27.9020  -18.4901   19.1247 C   0  0  0  0  0  0
  -27.5286  -16.9649   17.0200 C   0  0  0  0  0  0
  -26.1507  -17.1391   17.6144 C   0  0  0  0  0  0
  -30.9026  -17.6394   18.0118 C   0  0  0  0  0  0
  -31.8426  -16.4705   18.0135 C   0  0  0  0  0  0
  -27.3806  -17.2177   18.5023 C   0  0  0  0  0  0
  -30.4006  -16.2733   18.4768 C   0  0  0  0  0  0
  -29.6280  -17.1828   20.6905 C   0  0  0  0  0  0
  -28.1958  -25.0265   20.7326 C   0  0  0  0  0  0
  -28.4441  -23.6620   19.8951 C   0  0  0  0  0  0
  -27.3028  -19.6040   18.6461 N   0  0  0  0  0  0
  -30.0555  -15.9516   19.8598 N   0  0  0  0  0  0
  -28.8280  -22.3943   20.6118 O   0  0  0  0  0  0
  -31.4639  -12.5979   19.1347 H   0  0  0  0  0  0
  -30.3985  -11.5307   20.0115 H   0  0  0  0  0  0
  -29.7677  -11.5810   17.5940 H   0  0  0  0  0  0
  -29.6607  -13.3225   17.6156 H   0  0  0  0  0  0
  -27.8294  -11.2786   18.9006 H   0  0  0  0  0  0
  -27.3815  -12.5334   17.7827 H   0  0  0  0  0  0
  -27.6001  -14.2386   19.4170 H   0  0  0  0  0  0
  -28.7605  -12.2726   21.4404 H   0  0  0  0  0  0
  -28.4460  -13.9738   21.7207 H   0  0  0  0  0  0
  -25.2822   -9.5624   22.4753 H   0  0  0  0  0  0
  -24.0004   -7.4609   22.7496 H   0  0  0  0  0  0
  -21.0867   -8.8835   19.8967 H   0  0  0  0  0  0
  -22.3790  -10.9692   19.6193 H   0  0  0  0  0  0
  -21.1932   -7.6139   23.9697 H   0  0  0  0  0  0
  -21.1445   -6.0533   25.9072 H   0  0  0  0  0  0
  -22.0623   -2.7612   23.2875 H   0  0  0  0  0  0
  -22.4087  -11.9809   22.4738 H   0  0  0  0  0  0
  -21.1087  -13.1193   22.2647 H   0  0  0  0  0  0
  -24.6595  -15.8461   20.5704 H   0  0  0  0  0  0
  -26.3006  -15.6322   20.2210 H   0  0  0  0  0  0
  -26.7228  -32.5476   23.1152 H   0  0  0  0  0  0
  -25.0060  -33.9726   25.0441 H   0  0  0  0  0  0
  -22.7262  -31.2970   21.3915 H   0  0  0  0  0  0
  -23.3738  -35.9597   23.3288 H   0  0  0  0  0  0
  -24.3550  -36.8949   22.2070 H   0  0  0  0  0  0
  -23.7179  -37.6452   23.6699 H   0  0  0  0  0  0
  -26.1015  -31.5358   20.6020 H   0  0  0  0  0  0
  -26.8544  -30.8386   22.0040 H   0  0  0  0  0  0
  -28.1414  -28.9523   21.1814 H   0  0  0  0  0  0
  -26.0049  -25.8774   19.0506 H   0  0  0  0  0  0
  -23.9810  -27.2727   19.0375 H   0  0  0  0  0  0
  -23.8010  -30.5906   19.4075 H   0  0  0  0  0  0
  -22.7738  -29.2536   19.8433 H   0  0  0  0  0  0
  -25.1258  -36.1951   25.0810 H   0  0  0  0  0  0
  -20.9973  -28.3282   24.1360 H   0  0  0  0  0  0
  -20.5664  -26.2316   23.3594 H   0  0  0  0  0  0
  -21.6654  -26.7433   22.1183 H   0  0  0  0  0  0
  -19.6920  -25.6276   21.1235 H   0  0  0  0  0  0
  -19.6688  -27.3176   20.6692 H   0  0  0  0  0  0
  -17.4205  -26.6655   21.3998 H   0  0  0  0  0  0
  -18.0328  -26.0040   22.8977 H   0  0  0  0  0  0
  -19.7957  -30.7211   24.2309 H   0  0  0  0  0  0
  -17.5045  -31.6259   24.5145 H   0  0  0  0  0  0
  -15.5361  -30.2974   23.7653 H   0  0  0  0  0  0
  -15.8669  -28.0779   22.7113 H   0  0  0  0  0  0
  -24.5853  -30.7119   25.7755 H   0  0  0  0  0  0
  -24.8887  -32.2868   26.4959 H   0  0  0  0  0  0
  -25.7988  -30.8835   27.0242 H   0  0  0  0  0  0
  -26.2995  -29.6762   24.1269 H   0  0  0  0  0  0
  -27.4176  -29.7385   25.4712 H   0  0  0  0  0  0
  -27.8806  -30.4412   23.9417 H   0  0  0  0  0  0
  -27.2726  -33.3700   26.2053 H   0  0  0  0  0  0
  -28.3897  -32.6846   25.0359 H   0  0  0  0  0  0
  -28.0705  -31.8513   26.5480 H   0  0  0  0  0  0
  -28.2549  -38.0126   24.7590 H   0  0  0  0  0  0
  -28.1113  -36.2651   24.6188 H   0  0  0  0  0  0
  -27.2296  -37.1324   25.8871 H   0  0  0  0  0  0
  -20.9410  -29.8839   21.6898 H   0  0  0  0  0  0
  -26.0144  -38.2854   24.1485 H   0  0  0  0  0  0
  -29.9402  -19.9666   21.4039 H   0  0  0  0  0  0
  -27.0680  -21.6258   18.6430 H   0  0  0  0  0  0
  -27.9377  -17.7774   16.4221 H   0  0  0  0  0  0
  -27.8027  -15.9612   16.7039 H   0  0  0  0  0  0
  -25.5385  -16.2408   17.6750 H   0  0  0  0  0  0
  -25.6120  -18.0482   17.3528 H   0  0  0  0  0  0
  -30.5544  -17.9993   17.0450 H   0  0  0  0  0  0
  -31.1349  -18.4234   18.7292 H   0  0  0  0  0  0
  -32.6469  -16.5035   18.7446 H   0  0  0  0  0  0
  -32.1268  -16.0661   17.0427 H   0  0  0  0  0  0
  -27.5239  -16.3806   19.1723 H   0  0  0  0  0  0
  -29.7964  -15.7386   17.7508 H   0  0  0  0  0  0
  -28.9626  -16.8105   21.4702 H   0  0  0  0  0  0
  -30.5244  -17.5038   21.2224 H   0  0  0  0  0  0
  -28.9211  -25.0155   21.5462 H   0  0  0  0  0  0
  -27.2329  -24.9459   21.2390 H   0  0  0  0  0  0
  -29.2547  -23.8587   19.1927 H   0  0  0  0  0  0
  -27.5580  -23.5223   19.2837 H   0  0  0  0  0  0
  1 25  1  0  0  0
  1 30  2  0  0  0
  1 86  1  0  0  0
  2  3  1  0  0  0
  2 25  1  0  0  0
  2 88  1  0  0  0
  2 89  1  0  0  0
  3  4  1  0  0  0
  3 90  1  0  0  0
  3 91  1  0  0  0
  4  5  1  0  0  0
  4 92  1  0  0  0
  4 93  1  0  0  0
  5  6  1  0  0  0
  5 26  1  0  0  0
  5 94  1  0  0  0
  6 25  1  0  0  0
  6 95  1  0  0  0
  6 96  1  0  0  0
  7  8  2  0  0  0
  7 26  1  0  0  0
  7 29  1  0  0  0
  8  9  1  0  0  0
  8 22  1  0  0  0
  9 10  1  0  0  0
  9 27  2  0  0  0
 10 11  2  0  0  0
 10 15  1  0  0  0
 11 12  1  0  0  0
 11 97  1  0  0  0
 12 13  2  0  0  0
 12 98  1  0  0  0
 13 14  1  0  0  0
 13 31  1  0  0  0
 14 15  2  0  0  0
 14 99  1  0  0  0
 15100  1  0  0  0
 16 17  2  0  0  0
 16 21  1  0  0  0
 16 31  1  0  0  0
 17 18  1  0  0  0
 17101  1  0  0  0
 18 19  2  0  0  0
 18102  1  0  0  0
 19 20  1  0  0  0
 19 24  1  0  0  0
 20 21  2  0  0  0
 20103  1  0  0  0
 21 23  1  0  0  0
 22 28  1  0  0  0
 22 32  2  0  0  0
 26 27  1  0  0  0
 28104  1  0  0  0
 28105  1  0  0  0
 29106  1  0  0  0
 29107  1  0  0  0
 33 34  1  0  0  0
 33 66  1  0  0  0
 33 70  2  0  0  0
 34 36  1  0  0  0
 34 59  1  0  0  0
 34108  1  0  0  0
 35 44  2  0  0  0
 35 45  1  0  0  0
 35 68  1  0  0  0
 36 56  1  0  0  0
 36109  1  0  0  0
 37 39  1  0  0  0
 37 47  1  0  0  0
 37 66  1  0  0  0
 37110  1  0  0  0
 38 43  2  0  0  0
 38 46  1  0  0  0
 38 47  1  0  0  0
 39 64  1  0  0  0
 39 67  2  0  0  0
 40 52  1  0  0  0
 40 53  2  0  0  0
 40 58  1  0  0  0
 41111  1  0  0  0
 41112  1  0  0  0
 41113  1  0  0  0
 41 48  1  0  0  0
 42 43  1  0  0  0
 42 66  1  0  0  0
 42114  1  0  0  0
 42115  1  0  0  0
 43 44  1  0  0  0
 44116  1  0  0  0
 45 46  2  0  0  0
 45117  1  0  0  0
 46118  1  0  0  0
 47119  1  0  0  0
 47120  1  0  0  0
 48 56  1  0  0  0
 48 65  1  0  0  0
 48121  1  0  0  0
 49 50  1  0  0  0
 49 53  1  0  0  0
 49 64  1  0  0  0
 49122  1  0  0  0
 50 51  1  0  0  0
 50123  1  0  0  0
 50124  1  0  0  0
 51 52  1  0  0  0
 51125  1  0  0  0
 51126  1  0  0  0
 52127  1  0  0  0
 52128  1  0  0  0
 53 54  1  0  0  0
 54 55  2  0  0  0
 54129  1  0  0  0
 55 57  1  0  0  0
 55130  1  0  0  0
 56 69  2  0  0  0
 57 58  2  0  0  0
 57131  1  0  0  0
 58132  1  0  0  0
 59 60  1  0  0  0
 59 61  1  0  0  0
 59 62  1  0  0  0
 60133  1  0  0  0
 60134  1  0  0  0
 60135  1  0  0  0
 61136  1  0  0  0
 61137  1  0  0  0
 61138  1  0  0  0
 62139  1  0  0  0
 62140  1  0  0  0
 62141  1  0  0  0
 63 65  1  0  0  0
 63142  1  0  0  0
 63143  1  0  0  0
 63144  1  0  0  0
 64145  1  0  0  0
 65146  1  0  0  0
 68 83  1  0  0  0
 71 73  2  0  0  0
 71 74  1  0  0  0
 71147  1  0  0  0
 72 74  2  0  0  0
 72 85  1  0  0  0
 72148  1  0  0  0
 73 75  1  0  0  0
 73 82  1  0  0  0
 74 87  1  0  0  0
 75 85  2  0  0  0
 75 80  1  0  0  0
 76 77  1  0  0  0
 76 80  1  0  0  0
 76149  1  0  0  0
 76150  1  0  0  0
 77 80  1  0  0  0
 77151  1  0  0  0
 77152  1  0  0  0
 78 79  1  0  0  0
 78 81  1  0  0  0
 78153  1  0  0  0
 78154  1  0  0  0
 79 81  1  0  0  0
 79155  1  0  0  0
 79156  1  0  0  0
 80157  1  0  0  0
 81 86  1  0  0  0
 81158  1  0  0  0
 82 86  1  0  0  0
 82159  1  0  0  0
 82160  1  0  0  0
 83 84  1  0  0  0
 83161  1  0  0  0
 83162  1  0  0  0
 84 87  1  0  0  0
 84163  1  0  0  0
 84164  1  0  0  0
M  ISO  4   1 100  68 101  83 101  86 100
M  END
> <chiral flag>
0

> <version>
0

> <s_m_source_file>
/data/baiqing/PycharmProjects/Reinvent-master-3.2/result/LINK_invent/BTK/process_docking_weight1_custom_sum_contain_oxygen_bond_distance_aromatic_linkinvent_7_9_3/rearranged_h_0145.sdf

> <i_m_source_file_index>
16

> <r_mmod_Potential_Energy-OPLS-2005>
487.237609863281

> <r_mmod_Stretch_Energy-OPLS-2005>
141.519668579102

> <r_mmod_Bend_Energy-OPLS-2005>
202.372604370117

> <r_mmod_Torsional_Energy-OPLS-2005>
440.812683105469

> <r_mmod_Improper_Torsional_Energy-OPLS-2005>
23.2089004516602

> <r_mmod_Van_der_Waal_Energy-OPLS-2005>
135.903533935547

> <r_mmod_Electrostatic_Energy-OPLS-2005>
-357.001098632812

> <r_mmod_Solvation_Energy-OPLS-2005>
-206.33869934082

> <b_mmod_Minimization_Converged-OPLS-2005>
0

> <r_mmod_RMS_Derivative-OPLS-2005>
3.807621717453

$$$$
16
                    3D
 Structure written by MMmdl.
161170  0  0  1  0            999 V2000
  -30.6252  -14.8400   20.4171 C   0  0  0  0  0  0
  -30.4248  -12.5155   19.4844 C   0  0  0  0  0  0
  -29.4968  -12.5109   18.2489 C   0  0  0  0  0  0
  -28.0382  -12.2985   18.6812 C   0  0  0  0  0  0
  -27.6348  -13.2395   19.8441 C   0  0  2  0  0  0
  -28.6796  -13.2639   20.9823 C   0  0  0  0  0  0
  -25.2506  -13.8221   20.5673 C   0  0  0  0  0  0
  -24.1795  -13.0465   20.9177 C   0  0  0  0  0  0
  -24.6401  -11.6934   20.8766 C   0  0  0  0  0  0
  -23.9093  -10.4302   21.0422 C   0  0  0  0  0  0
  -24.3638   -9.4207   21.9197 C   0  0  0  0  0  0
  -23.6297   -8.2249   22.0762 C   0  0  0  0  0  0
  -22.4288   -8.0290   21.3541 C   0  0  0  0  0  0
  -21.9947   -9.0262   20.4621 C   0  0  0  0  0  0
  -22.7290  -10.2129   20.3037 C   0  0  0  0  0  0
  -21.6863   -6.0741   22.5260 C   0  0  0  0  0  0
  -21.4012   -6.5647   23.8191 C   0  0  0  0  0  0
  -21.3644   -5.6802   24.9147 C   0  0  0  0  0  0
  -21.6044   -4.3065   24.7211 C   0  0  0  0  0  0
  -21.8825   -3.8152   23.4334 C   0  0  0  0  0  0
  -21.9193   -4.6966   22.3386 C   0  0  0  0  0  0
  -22.7804  -13.5219   21.1809 C   0  0  0  0  0  0
  -22.1670   -4.2149   21.0967 F   0  0  0  0  0  0
  -21.5616   -3.4553   25.7728 F   0  0  0  0  0  0
  -29.9786  -13.6126   20.3879 N   0  0  0  0  0  0
  -26.2931  -12.9438   20.3310 N   0  0  0  0  0  0
  -25.9342  -11.6572   20.5830 N   0  0  0  0  0  0
  -22.0484  -12.8141   22.0348 N   0  0  0  0  0  0
  -25.4295  -15.1936   20.4021 N   0  0  0  0  0  0
  -31.8075  -14.8795   20.0689 O   0  0  0  0  0  0
  -21.6653   -6.8887   21.4226 O   0  0  0  0  0  0
  -22.3475  -14.5530   20.6700 O   0  0  0  0  0  0
  -24.6392  -31.8541   23.1912 C   0  0  0  0  0  0
  -25.9217  -32.4731   23.8262 C   0  0  1  0  0  0
  -27.1995  -27.1925   20.1271 C   0  0  0  0  0  0
  -25.5993  -33.8525   24.2194 N   0  0  0  0  0  0
  -23.4349  -30.4830   21.5365 C   0  0  2  0  0  0
  -24.8791  -28.9307   20.1020 C   0  0  0  0  0  0
  -22.7537  -29.4619   22.4832 C   0  0  0  0  0  0
  -18.0311  -28.1419   22.8490 C   0  0  0  0  0  0
  -24.1481  -36.7211   23.2637 C   0  0  0  0  0  0
  -25.9901  -30.7449   21.3815 C   0  0  0  0  0  0
  -26.0581  -29.3633   20.7235 C   0  0  0  0  0  0
  -27.2175  -28.5073   20.7305 C   0  0  0  0  0  0
  -25.9965  -26.8714   19.4478 C   0  0  0  0  0  0
  -24.8591  -27.6943   19.4532 C   0  0  0  0  0  0
  -23.6556  -29.8259   20.1504 C   0  0  0  0  0  0
  -25.4110  -36.3014   24.0321 C   0  0  1  0  0  0
  -20.5925  -28.3735   23.1222 C   0  0  2  0  0  0
  -20.6798  -26.9456   22.5329 C   0  0  0  0  0  0
  -19.5738  -26.6433   21.5175 C   0  0  0  0  0  0
  -18.1935  -26.7958   22.1622 C   0  0  0  0  0  0
  -19.1577  -28.8888   23.2862 C   0  0  0  0  0  0
  -18.9494  -30.1478   23.8899 C   0  0  0  0  0  0
  -17.6497  -30.6609   24.0592 C   0  0  0  0  0  0
  -25.9083  -34.9416   23.5056 C   0  0  0  0  0  0
  -16.5384  -29.9110   23.6368 C   0  0  0  0  0  0
  -16.7295  -28.6537   23.0372 C   0  0  0  0  0  0
  -26.4569  -31.6547   25.0652 C   0  0  0  0  0  0
  -25.3732  -31.3625   26.1294 C   0  0  0  0  0  0
  -27.0513  -30.3012   24.6101 C   0  0  0  0  0  0
  -27.6052  -32.4331   25.7488 C   0  0  0  0  0  0
  -27.5542  -37.1776   24.8481 C   0  0  0  0  0  0
  -21.4231  -29.3108   22.3623 N   0  0  0  0  0  0
  -26.4250  -37.3743   23.9444 N   0  0  0  0  0  0
  -24.7083  -31.0450   22.0928 N   0  0  0  0  0  0
  -23.4213  -28.8127   23.2926 O   0  0  0  0  0  0
  -28.2314  -26.1956   20.2174 O   0  0  0  0  0  0
  -26.5640  -34.8924   22.4611 O   0  0  0  0  0  0
  -23.5528  -32.1400   23.7171 O   0  0  0  0  0  0
  -29.4176  -21.4412   21.5940 C   0  0  0  0  0  0
  -28.5157  -22.3095   19.1532 C   0  0  0  0  0  0
  -29.3245  -20.4055   20.5954 C   0  0  0  0  0  0
  -29.0509  -22.8307   21.4058 C   0  0  0  0  0  0
  -28.5741  -23.3338   20.1602 C   0  0  0  0  0  0
  -28.8656  -20.9089   19.3367 C   0  0  0  0  0  0
  -30.6811  -18.5710   22.0034 C   0  0  0  0  0  0
  -31.5476  -17.9731   20.8874 C   0  0  0  0  0  0
  -29.5670  -18.8234   20.9621 C   0  0  2  0  0  0
  -30.2470  -17.5110   20.2105 C   0  0  2  0  0  0
  -29.0929  -23.7693   22.6000 C   0  0  0  0  0  0
  -28.3710  -20.4132   17.0232 C   0  0  0  0  0  0
  -27.8207  -24.7538   19.9046 C   0  0  0  0  0  0
  -29.9102  -16.0343   20.6156 N   0  0  0  0  0  0
  -28.7243  -19.9717   18.3328 O   0  0  0  0  0  0
  -31.4579  -12.6383   19.1549 H   0  0  0  0  0  0
  -30.3903  -11.5566   20.0045 H   0  0  0  0  0  0
  -29.7955  -11.7290   17.5493 H   0  0  0  0  0  0
  -29.5805  -13.4587   17.7142 H   0  0  0  0  0  0
  -27.9350  -11.2580   18.9946 H   0  0  0  0  0  0
  -27.3629  -12.4275   17.8335 H   0  0  0  0  0  0
  -27.6068  -14.2401   19.4121 H   0  0  0  0  0  0
  -28.7286  -12.3055   21.4999 H   0  0  0  0  0  0
  -28.3922  -14.0054   21.7305 H   0  0  0  0  0  0
  -25.2789   -9.5656   22.4768 H   0  0  0  0  0  0
  -23.9994   -7.4637   22.7489 H   0  0  0  0  0  0
  -21.0905   -8.8780   19.8896 H   0  0  0  0  0  0
  -22.3805  -10.9655   19.6110 H   0  0  0  0  0  0
  -21.2020   -7.6160   23.9676 H   0  0  0  0  0  0
  -21.1450   -6.0544   25.9041 H   0  0  0  0  0  0
  -22.0619   -2.7621   23.2838 H   0  0  0  0  0  0
  -22.4167  -11.9762   22.4594 H   0  0  0  0  0  0
  -21.1073  -13.1046   22.2564 H   0  0  0  0  0  0
  -24.6703  -15.8624   20.4717 H   0  0  0  0  0  0
  -26.2929  -15.6086   20.0756 H   0  0  0  0  0  0
  -26.7258  -32.5362   23.0961 H   0  0  0  0  0  0
  -25.0211  -33.9656   25.0396 H   0  0  0  0  0  0
  -22.7331  -31.3078   21.3889 H   0  0  0  0  0  0
  -23.3776  -35.9504   23.3265 H   0  0  0  0  0  0
  -24.3571  -36.8873   22.2055 H   0  0  0  0  0  0
  -23.7193  -37.6385   23.6686 H   0  0  0  0  0  0
  -26.1352  -31.4993   20.6063 H   0  0  0  0  0  0
  -26.8681  -30.7939   22.0135 H   0  0  0  0  0  0
  -28.1046  -28.8281   21.2573 H   0  0  0  0  0  0
  -25.8661  -25.9421   18.9168 H   0  0  0  0  0  0
  -23.9599  -27.3620   18.9536 H   0  0  0  0  0  0
  -23.7875  -30.6080   19.4010 H   0  0  0  0  0  0
  -22.7708  -29.2681   19.8353 H   0  0  0  0  0  0
  -25.1287  -36.1821   25.0807 H   0  0  0  0  0  0
  -21.0041  -28.3293   24.1335 H   0  0  0  0  0  0
  -20.5768  -26.2326   23.3524 H   0  0  0  0  0  0
  -21.6647  -26.7519   22.1054 H   0  0  0  0  0  0
  -19.6911  -25.6369   21.1148 H   0  0  0  0  0  0
  -19.6648  -27.3303   20.6750 H   0  0  0  0  0  0
  -17.4185  -26.6738   21.4036 H   0  0  0  0  0  0
  -18.0359  -26.0094   22.9014 H   0  0  0  0  0  0
  -19.7977  -30.7304   24.2244 H   0  0  0  0  0  0
  -17.5060  -31.6289   24.5204 H   0  0  0  0  0  0
  -15.5393  -30.3020   23.7708 H   0  0  0  0  0  0
  -15.8682  -28.0862   22.7088 H   0  0  0  0  0  0
  -24.5955  -30.6984   25.7498 H   0  0  0  0  0  0
  -24.8887  -32.2778   26.4715 H   0  0  0  0  0  0
  -25.7997  -30.8733   27.0058 H   0  0  0  0  0  0
  -26.3154  -29.6685   24.1122 H   0  0  0  0  0  0
  -27.4328  -29.7313   25.4579 H   0  0  0  0  0  0
  -27.8929  -30.4403   23.9304 H   0  0  0  0  0  0
  -27.2635  -33.3704   26.1891 H   0  0  0  0  0  0
  -28.3976  -32.6773   25.0397 H   0  0  0  0  0  0
  -28.0563  -31.8545   26.5557 H   0  0  0  0  0  0
  -28.2480  -38.0145   24.7617 H   0  0  0  0  0  0
  -28.1127  -36.2683   24.6218 H   0  0  0  0  0  0
  -27.2260  -37.1283   25.8877 H   0  0  0  0  0  0
  -20.9413  -29.8880   21.6878 H   0  0  0  0  0  0
  -26.0092  -38.2788   24.1511 H   0  0  0  0  0  0
  -29.7314  -21.1559   22.5867 H   0  0  0  0  0  0
  -28.1017  -22.6236   18.2078 H   0  0  0  0  0  0
  -31.1212  -19.4485   22.4746 H   0  0  0  0  0  0
  -30.4033  -17.8296   22.7562 H   0  0  0  0  0  0
  -32.2409  -17.1985   21.2141 H   0  0  0  0  0  0
  -32.0728  -18.7345   20.3052 H   0  0  0  0  0  0
  -28.6063  -18.4975   21.3612 H   0  0  0  0  0  0
  -30.2770  -17.6404   19.1272 H   0  0  0  0  0  0
  -29.5526  -23.2995   23.4703 H   0  0  0  0  0  0
  -28.0839  -24.0744   22.8823 H   0  0  0  0  0  0
  -29.6664  -24.6660   22.3622 H   0  0  0  0  0  0
  -28.4207  -19.5717   16.3312 H   0  0  0  0  0  0
  -29.0594  -21.1762   16.6542 H   0  0  0  0  0  0
  -27.3517  -20.8017   16.9814 H   0  0  0  0  0  0
  -26.8624  -24.5918   20.4020 H   0  0  0  0  0  0
  -27.6145  -24.7510   18.8347 H   0  0  0  0  0  0
  -28.9623  -15.8882   20.9317 H   0  0  0  0  0  0
  1 25  1  0  0  0
  1 30  2  0  0  0
  1 84  1  0  0  0
  2  3  1  0  0  0
  2 25  1  0  0  0
  2 86  1  0  0  0
  2 87  1  0  0  0
  3  4  1  0  0  0
  3 88  1  0  0  0
  3 89  1  0  0  0
  4  5  1  0  0  0
  4 90  1  0  0  0
  4 91  1  0  0  0
  5  6  1  0  0  0
  5 26  1  0  0  0
  5 92  1  0  0  0
  6 25  1  0  0  0
  6 93  1  0  0  0
  6 94  1  0  0  0
  7  8  2  0  0  0
  7 26  1  0  0  0
  7 29  1  0  0  0
  8  9  1  0  0  0
  8 22  1  0  0  0
  9 10  1  0  0  0
  9 27  2  0  0  0
 10 11  2  0  0  0
 10 15  1  0  0  0
 11 12  1  0  0  0
 11 95  1  0  0  0
 12 13  2  0  0  0
 12 96  1  0  0  0
 13 14  1  0  0  0
 13 31  1  0  0  0
 14 15  2  0  0  0
 14 97  1  0  0  0
 15 98  1  0  0  0
 16 17  2  0  0  0
 16 21  1  0  0  0
 16 31  1  0  0  0
 17 18  1  0  0  0
 17 99  1  0  0  0
 18 19  2  0  0  0
 18100  1  0  0  0
 19 20  1  0  0  0
 19 24  1  0  0  0
 20 21  2  0  0  0
 20101  1  0  0  0
 21 23  1  0  0  0
 22 28  1  0  0  0
 22 32  2  0  0  0
 26 27  1  0  0  0
 28102  1  0  0  0
 28103  1  0  0  0
 29104  1  0  0  0
 29105  1  0  0  0
 33 34  1  0  0  0
 33 66  1  0  0  0
 33 70  2  0  0  0
 34 36  1  0  0  0
 34 59  1  0  0  0
 34106  1  0  0  0
 35 44  2  0  0  0
 35 45  1  0  0  0
 35 68  1  0  0  0
 36 56  1  0  0  0
 36107  1  0  0  0
 37 39  1  0  0  0
 37 47  1  0  0  0
 37 66  1  0  0  0
 37108  1  0  0  0
 38 43  2  0  0  0
 38 46  1  0  0  0
 38 47  1  0  0  0
 39 64  1  0  0  0
 39 67  2  0  0  0
 40 52  1  0  0  0
 40 53  2  0  0  0
 40 58  1  0  0  0
 41109  1  0  0  0
 41110  1  0  0  0
 41111  1  0  0  0
 41 48  1  0  0  0
 42 43  1  0  0  0
 42 66  1  0  0  0
 42112  1  0  0  0
 42113  1  0  0  0
 43 44  1  0  0  0
 44114  1  0  0  0
 45 46  2  0  0  0
 45115  1  0  0  0
 46116  1  0  0  0
 47117  1  0  0  0
 47118  1  0  0  0
 48 56  1  0  0  0
 48 65  1  0  0  0
 48119  1  0  0  0
 49 50  1  0  0  0
 49 53  1  0  0  0
 49 64  1  0  0  0
 49120  1  0  0  0
 50 51  1  0  0  0
 50121  1  0  0  0
 50122  1  0  0  0
 51 52  1  0  0  0
 51123  1  0  0  0
 51124  1  0  0  0
 52125  1  0  0  0
 52126  1  0  0  0
 53 54  1  0  0  0
 54 55  2  0  0  0
 54127  1  0  0  0
 55 57  1  0  0  0
 55128  1  0  0  0
 56 69  2  0  0  0
 57 58  2  0  0  0
 57129  1  0  0  0
 58130  1  0  0  0
 59 60  1  0  0  0
 59 61  1  0  0  0
 59 62  1  0  0  0
 60131  1  0  0  0
 60132  1  0  0  0
 60133  1  0  0  0
 61134  1  0  0  0
 61135  1  0  0  0
 61136  1  0  0  0
 62137  1  0  0  0
 62138  1  0  0  0
 62139  1  0  0  0
 63 65  1  0  0  0
 63140  1  0  0  0
 63141  1  0  0  0
 63142  1  0  0  0
 64143  1  0  0  0
 65144  1  0  0  0
 68 83  1  0  0  0
 71 73  2  0  0  0
 71 74  1  0  0  0
 71145  1  0  0  0
 72 75  1  0  0  0
 72 76  2  0  0  0
 72146  1  0  0  0
 73 76  1  0  0  0
 73 79  1  0  0  0
 74 75  2  0  0  0
 74 81  1  0  0  0
 75 83  1  0  0  0
 76 85  1  0  0  0
 77 78  1  0  0  0
 77 79  1  0  0  0
 77147  1  0  0  0
 77148  1  0  0  0
 78 80  1  0  0  0
 78149  1  0  0  0
 78150  1  0  0  0
 79 80  1  0  0  0
 79151  1  0  0  0
 80 84  1  0  0  0
 80152  1  0  0  0
 81153  1  0  0  0
 81154  1  0  0  0
 81155  1  0  0  0
 82 85  1  0  0  0
 82156  1  0  0  0
 82157  1  0  0  0
 82158  1  0  0  0
 83159  1  0  0  0
 83160  1  0  0  0
 84161  1  0  0  0
M  ISO  4   1 100  68 101  83 101  84 100
M  END
> <chiral flag>
0

> <version>
0

> <s_m_source_file>
/data/baiqing/PycharmProjects/Reinvent-master-3.2/result/LINK_invent/BTK/process_docking_weight1_custom_sum_contain_oxygen_bond_distance_aromatic_linkinvent_7_9_3/rearranged_h_0145.sdf

> <i_m_source_file_index>
17

> <r_mmod_Potential_Energy-OPLS-2005>
409.205993652344

> <r_mmod_Stretch_Energy-OPLS-2005>
186.708557128906

> <r_mmod_Bend_Energy-OPLS-2005>
252.622695922852

> <r_mmod_Torsional_Energy-OPLS-2005>
256.173187255859

> <r_mmod_Improper_Torsional_Energy-OPLS-2005>
8.58428287506104

> <r_mmod_Van_der_Waal_Energy-OPLS-2005>
152.984634399414

> <r_mmod_Electrostatic_Energy-OPLS-2005>
-377.571594238281

> <r_mmod_Solvation_Energy-OPLS-2005>
-211.790466308594

> <b_mmod_Minimization_Converged-OPLS-2005>
0

> <r_mmod_RMS_Derivative-OPLS-2005>
3.39747643470764

$$$$
17
                    3D
 Structure written by MMmdl.
169178  0  0  1  0            999 V2000
  -30.8015  -14.3371   20.7128 C   0  0  0  0  0  0
  -30.4114  -12.2951   19.3864 C   0  0  0  0  0  0
  -29.4772  -12.5322   18.1876 C   0  0  0  0  0  0
  -28.0060  -12.3773   18.6107 C   0  0  0  0  0  0
  -27.6651  -13.2040   19.8772 C   0  0  2  0  0  0
  -28.7042  -12.9615   20.9945 C   0  0  0  0  0  0
  -25.2605  -13.8159   20.5680 C   0  0  0  0  0  0
  -24.1847  -13.0440   20.9167 C   0  0  0  0  0  0
  -24.6394  -11.6905   20.8724 C   0  0  0  0  0  0
  -23.9057  -10.4295   21.0400 C   0  0  0  0  0  0
  -24.3613   -9.4213   21.9181 C   0  0  0  0  0  0
  -23.6291   -8.2245   22.0752 C   0  0  0  0  0  0
  -22.4273   -8.0279   21.3543 C   0  0  0  0  0  0
  -21.9907   -9.0253   20.4645 C   0  0  0  0  0  0
  -22.7229  -10.2135   20.3053 C   0  0  0  0  0  0
  -21.6853   -6.0735   22.5279 C   0  0  0  0  0  0
  -21.4013   -6.5639   23.8211 C   0  0  0  0  0  0
  -21.3659   -5.6793   24.9174 C   0  0  0  0  0  0
  -21.6045   -4.3055   24.7225 C   0  0  0  0  0  0
  -21.8819   -3.8147   23.4345 C   0  0  0  0  0  0
  -21.9193   -4.6963   22.3401 C   0  0  0  0  0  0
  -22.7870  -13.5242   21.1836 C   0  0  0  0  0  0
  -22.1662   -4.2149   21.0978 F   0  0  0  0  0  0
  -21.5632   -3.4538   25.7738 F   0  0  0  0  0  0
  -30.0496  -13.2372   20.4556 N   0  0  0  0  0  0
  -26.3042  -12.9326   20.3377 N   0  0  0  0  0  0
  -25.9322  -11.6487   20.5759 N   0  0  0  0  0  0
  -22.0512  -12.8234   22.0391 N   0  0  0  0  0  0
  -25.4350  -15.1876   20.4099 N   0  0  0  0  0  0
  -31.7811  -14.6636   20.0381 O   0  0  0  0  0  0
  -21.6638   -6.8875   21.4239 O   0  0  0  0  0  0
  -22.3559  -14.5553   20.6691 O   0  0  0  0  0  0
  -24.6123  -31.8699   23.2126 C   0  0  0  0  0  0
  -25.9026  -32.4832   23.8416 C   0  0  1  0  0  0
  -27.2339  -27.4598   20.0911 C   0  0  0  0  0  0
  -25.5891  -33.8631   24.2346 N   0  0  0  0  0  0
  -23.3991  -30.4941   21.5527 C   0  0  2  0  0  0
  -24.8458  -28.9638   20.1156 C   0  0  0  0  0  0
  -22.7394  -29.4669   22.5004 C   0  0  0  0  0  0
  -18.0269  -28.1375   22.8498 C   0  0  0  0  0  0
  -24.1484  -36.7322   23.2636 C   0  0  0  0  0  0
  -25.9256  -30.8436   21.3617 C   0  0  0  0  0  0
  -26.0052  -29.4801   20.7088 C   0  0  0  0  0  0
  -27.2053  -28.7355   20.6931 C   0  0  0  0  0  0
  -26.0618  -26.9557   19.4869 C   0  0  0  0  0  0
  -24.8671  -27.6988   19.5032 C   0  0  0  0  0  0
  -23.6058  -29.8265   20.1672 C   0  0  0  0  0  0
  -25.4103  -36.3120   24.0342 C   0  0  1  0  0  0
  -20.5856  -28.3660   23.1330 C   0  0  2  0  0  0
  -20.6759  -26.9398   22.5426 C   0  0  0  0  0  0
  -19.5742  -26.6387   21.5218 C   0  0  0  0  0  0
  -18.1916  -26.7927   22.1621 C   0  0  0  0  0  0
  -19.1517  -28.8833   23.2913 C   0  0  0  0  0  0
  -18.9446  -30.1440   23.8921 C   0  0  0  0  0  0
  -17.6450  -30.6585   24.0568 C   0  0  0  0  0  0
  -25.9030  -34.9482   23.5140 C   0  0  0  0  0  0
  -16.5341  -29.9088   23.6327 C   0  0  0  0  0  0
  -16.7258  -28.6502   23.0352 C   0  0  0  0  0  0
  -26.4465  -31.6599   25.0730 C   0  0  0  0  0  0
  -25.3734  -31.3683   26.1477 C   0  0  0  0  0  0
  -27.0297  -30.3049   24.6082 C   0  0  0  0  0  0
  -27.6048  -32.4308   25.7488 C   0  0  0  0  0  0
  -27.5584  -37.1810   24.8462 C   0  0  0  0  0  0
  -21.4124  -29.3032   22.3739 N   0  0  0  0  0  0
  -26.4293  -37.3801   23.9412 N   0  0  0  0  0  0
  -24.6639  -31.0821   22.1014 N   0  0  0  0  0  0
  -23.4178  -28.8210   23.3035 O   0  0  0  0  0  0
  -28.3916  -26.7188   20.0843 O   0  0  0  0  0  0
  -26.5592  -34.8927   22.4701 O   0  0  0  0  0  0
  -23.5320  -32.1435   23.7535 O   0  0  0  0  0  0
  -32.7150  -15.4369   22.9985 C   0  0  0  0  0  0
  -32.3929  -20.1101   21.8559 C   0  0  0  0  0  0
  -30.5191  -18.3751   21.8800 C   0  0  0  0  0  0
  -33.6863  -16.5943   22.7049 C   0  0  0  0  0  0
  -33.4133  -18.9509   21.8555 C   0  0  0  0  0  0
  -31.3197  -15.9578   22.5748 C   0  0  1  0  0  0
  -31.6127  -17.2837   21.8368 C   0  0  2  0  0  0
  -31.0181  -19.7088   21.2485 C   0  0  1  0  0  0
  -29.1717  -23.1091   21.0415 C   0  0  0  0  0  0
  -29.3423  -24.4639   20.3239 C   0  0  0  0  0  0
  -30.2303  -22.0485   20.6754 C   0  0  0  0  0  0
  -28.2839  -25.4786   20.7869 C   0  0  0  0  0  0
  -30.4963  -14.9794   21.8493 N   0  0  0  0  0  0
  -32.8203  -17.7732   22.5227 N   0  3  1  0  0  0
  -29.9997  -20.7827   21.4168 N   0  3  0  0  0  0
  -31.4540  -12.3928   19.0777 H   0  0  0  0  0  0
  -30.3087  -11.2719   19.7511 H   0  0  0  0  0  0
  -29.7105  -11.8335   17.3833 H   0  0  0  0  0  0
  -29.6418  -13.5323   17.7836 H   0  0  0  0  0  0
  -27.8216  -11.3187   18.7972 H   0  0  0  0  0  0
  -27.3467  -12.6593   17.7890 H   0  0  0  0  0  0
  -27.7201  -14.2561   19.5971 H   0  0  0  0  0  0
  -28.6614  -11.9256   21.3335 H   0  0  0  0  0  0
  -28.4499  -13.5640   21.8666 H   0  0  0  0  0  0
  -25.2760   -9.5690   22.4753 H   0  0  0  0  0  0
  -24.0002   -7.4638   22.7473 H   0  0  0  0  0  0
  -21.0839   -8.8769   19.8950 H   0  0  0  0  0  0
  -22.3686  -10.9673   19.6160 H   0  0  0  0  0  0
  -21.2002   -7.6147   23.9713 H   0  0  0  0  0  0
  -21.1483   -6.0523   25.9077 H   0  0  0  0  0  0
  -22.0599   -2.7610   23.2845 H   0  0  0  0  0  0
  -22.4121  -11.9883   22.4762 H   0  0  0  0  0  0
  -21.1127  -13.1256   22.2595 H   0  0  0  0  0  0
  -24.6754  -15.8498   20.5238 H   0  0  0  0  0  0
  -26.2983  -15.6228   20.1081 H   0  0  0  0  0  0
  -26.7098  -32.5560   23.1187 H   0  0  0  0  0  0
  -25.0046  -33.9798   25.0494 H   0  0  0  0  0  0
  -22.6867  -31.3102   21.4155 H   0  0  0  0  0  0
  -23.3749  -35.9654   23.3300 H   0  0  0  0  0  0
  -24.3580  -36.8934   22.2051 H   0  0  0  0  0  0
  -23.7232  -37.6525   23.6651 H   0  0  0  0  0  0
  -26.0325  -31.6105   20.5936 H   0  0  0  0  0  0
  -26.8153  -30.8986   21.9773 H   0  0  0  0  0  0
  -28.1020  -29.1294   21.1514 H   0  0  0  0  0  0
  -26.0708  -25.9901   19.0014 H   0  0  0  0  0  0
  -23.9763  -27.2961   19.0407 H   0  0  0  0  0  0
  -23.7094  -30.6014   19.4069 H   0  0  0  0  0  0
  -22.7309  -29.2431   19.8751 H   0  0  0  0  0  0
  -25.1276  -36.1992   25.0835 H   0  0  0  0  0  0
  -20.9951  -28.3227   24.1449 H   0  0  0  0  0  0
  -20.5663  -26.2266   23.3610 H   0  0  0  0  0  0
  -21.6630  -26.7445   22.1219 H   0  0  0  0  0  0
  -19.6903  -25.6305   21.1229 H   0  0  0  0  0  0
  -19.6686  -27.3210   20.6760 H   0  0  0  0  0  0
  -17.4195  -26.6695   21.4010 H   0  0  0  0  0  0
  -18.0297  -26.0057   22.9000 H   0  0  0  0  0  0
  -19.7923  -30.7248   24.2300 H   0  0  0  0  0  0
  -17.5009  -31.6268   24.5167 H   0  0  0  0  0  0
  -15.5342  -30.3001   23.7638 H   0  0  0  0  0  0
  -15.8655  -28.0829   22.7059 H   0  0  0  0  0  0
  -24.5969  -30.6948   25.7830 H   0  0  0  0  0  0
  -24.8842  -32.2815   26.4874 H   0  0  0  0  0  0
  -25.8105  -30.8927   27.0264 H   0  0  0  0  0  0
  -26.2835  -29.6810   24.1144 H   0  0  0  0  0  0
  -27.4090  -29.7281   25.4527 H   0  0  0  0  0  0
  -27.8658  -30.4385   23.9214 H   0  0  0  0  0  0
  -27.2688  -33.3613   26.2076 H   0  0  0  0  0  0
  -28.3852  -32.6847   25.0304 H   0  0  0  0  0  0
  -28.0720  -31.8419   26.5390 H   0  0  0  0  0  0
  -28.2594  -38.0114   24.7529 H   0  0  0  0  0  0
  -28.1084  -36.2648   24.6262 H   0  0  0  0  0  0
  -27.2305  -37.1430   25.8864 H   0  0  0  0  0  0
  -20.9277  -29.8758   21.6970 H   0  0  0  0  0  0
  -26.0187  -38.2879   24.1427 H   0  0  0  0  0  0
  -32.7183  -15.1887   24.0607 H   0  0  0  0  0  0
  -33.0302  -14.5399   22.4647 H   0  0  0  0  0  0
  -32.8289  -20.9441   21.3063 H   0  0  0  0  0  0
  -32.2566  -20.4607   22.8799 H   0  0  0  0  0  0
  -30.2129  -18.5426   22.9137 H   0  0  0  0  0  0
  -29.6338  -18.0172   21.3534 H   0  0  0  0  0  0
  -34.2361  -16.3930   21.7837 H   0  0  0  0  0  0
  -34.4149  -16.7425   23.5033 H   0  0  0  0  0  0
  -34.3217  -19.2524   22.3787 H   0  0  0  0  0  0
  -33.7073  -18.6981   20.8353 H   0  0  0  0  0  0
  -30.7730  -16.1970   23.4889 H   0  0  0  0  0  0
  -31.8743  -17.0857   20.7958 H   0  0  0  0  0  0
  -31.1515  -19.5412   20.1778 H   0  0  0  0  0  0
  -28.1773  -22.7173   20.8217 H   0  0  0  0  0  0
  -29.1980  -23.2813   22.1186 H   0  0  0  0  0  0
  -29.2593  -24.3199   19.2459 H   0  0  0  0  0  0
  -30.3391  -24.8657   20.5096 H   0  0  0  0  0  0
  -31.2173  -22.4488   20.9047 H   0  0  0  0  0  0
  -30.2122  -21.8493   19.6023 H   0  0  0  0  0  0
  -28.4061  -25.6797   21.8522 H   0  0  0  0  0  0
  -27.2996  -25.0226   20.6751 H   0  0  0  0  0  0
  -29.6785  -14.6367   22.3325 H   0  0  0  0  0  0
  -32.5548  -18.0529   23.4560 H   0  0  0  0  0  0
  -29.9061  -21.0012   22.3961 H   0  0  0  0  0  0
  -29.1105  -20.4196   21.1099 H   0  0  0  0  0  0
  1 25  1  0  0  0
  1 30  2  0  0  0
  1 83  1  0  0  0
  2  3  1  0  0  0
  2 25  1  0  0  0
  2 86  1  0  0  0
  2 87  1  0  0  0
  3  4  1  0  0  0
  3 88  1  0  0  0
  3 89  1  0  0  0
  4  5  1  0  0  0
  4 90  1  0  0  0
  4 91  1  0  0  0
  5  6  1  0  0  0
  5 26  1  0  0  0
  5 92  1  0  0  0
  6 25  1  0  0  0
  6 93  1  0  0  0
  6 94  1  0  0  0
  7  8  2  0  0  0
  7 26  1  0  0  0
  7 29  1  0  0  0
  8  9  1  0  0  0
  8 22  1  0  0  0
  9 10  1  0  0  0
  9 27  2  0  0  0
 10 11  2  0  0  0
 10 15  1  0  0  0
 11 12  1  0  0  0
 11 95  1  0  0  0
 12 13  2  0  0  0
 12 96  1  0  0  0
 13 14  1  0  0  0
 13 31  1  0  0  0
 14 15  2  0  0  0
 14 97  1  0  0  0
 15 98  1  0  0  0
 16 17  2  0  0  0
 16 21  1  0  0  0
 16 31  1  0  0  0
 17 18  1  0  0  0
 17 99  1  0  0  0
 18 19  2  0  0  0
 18100  1  0  0  0
 19 20  1  0  0  0
 19 24  1  0  0  0
 20 21  2  0  0  0
 20101  1  0  0  0
 21 23  1  0  0  0
 22 28  1  0  0  0
 22 32  2  0  0  0
 26 27  1  0  0  0
 28102  1  0  0  0
 28103  1  0  0  0
 29104  1  0  0  0
 29105  1  0  0  0
 33 34  1  0  0  0
 33 66  1  0  0  0
 33 70  2  0  0  0
 34 36  1  0  0  0
 34 59  1  0  0  0
 34106  1  0  0  0
 35 44  2  0  0  0
 35 45  1  0  0  0
 35 68  1  0  0  0
 36 56  1  0  0  0
 36107  1  0  0  0
 37 39  1  0  0  0
 37 47  1  0  0  0
 37 66  1  0  0  0
 37108  1  0  0  0
 38 43  2  0  0  0
 38 46  1  0  0  0
 38 47  1  0  0  0
 39 64  1  0  0  0
 39 67  2  0  0  0
 40 52  1  0  0  0
 40 53  2  0  0  0
 40 58  1  0  0  0
 41109  1  0  0  0
 41110  1  0  0  0
 41111  1  0  0  0
 41 48  1  0  0  0
 42 43  1  0  0  0
 42 66  1  0  0  0
 42112  1  0  0  0
 42113  1  0  0  0
 43 44  1  0  0  0
 44114  1  0  0  0
 45 46  2  0  0  0
 45115  1  0  0  0
 46116  1  0  0  0
 47117  1  0  0  0
 47118  1  0  0  0
 48 56  1  0  0  0
 48 65  1  0  0  0
 48119  1  0  0  0
 49 50  1  0  0  0
 49 53  1  0  0  0
 49 64  1  0  0  0
 49120  1  0  0  0
 50 51  1  0  0  0
 50121  1  0  0  0
 50122  1  0  0  0
 51 52  1  0  0  0
 51123  1  0  0  0
 51124  1  0  0  0
 52125  1  0  0  0
 52126  1  0  0  0
 53 54  1  0  0  0
 54 55  2  0  0  0
 54127  1  0  0  0
 55 57  1  0  0  0
 55128  1  0  0  0
 56 69  2  0  0  0
 57 58  2  0  0  0
 57129  1  0  0  0
 58130  1  0  0  0
 59 60  1  0  0  0
 59 61  1  0  0  0
 59 62  1  0  0  0
 60131  1  0  0  0
 60132  1  0  0  0
 60133  1  0  0  0
 61134  1  0  0  0
 61135  1  0  0  0
 61136  1  0  0  0
 62137  1  0  0  0
 62138  1  0  0  0
 62139  1  0  0  0
 63 65  1  0  0  0
 63140  1  0  0  0
 63141  1  0  0  0
 63142  1  0  0  0
 64143  1  0  0  0
 65144  1  0  0  0
 68 82  1  0  0  0
 71 74  1  0  0  0
 71 76  1  0  0  0
 71145  1  0  0  0
 71146  1  0  0  0
 72 75  1  0  0  0
 72 78  1  0  0  0
 72147  1  0  0  0
 72148  1  0  0  0
 73 78  1  0  0  0
 73149  1  0  0  0
 73150  1  0  0  0
 73 77  1  0  0  0
 74151  1  0  0  0
 74152  1  0  0  0
 74 84  1  0  0  0
 75 84  1  0  0  0
 75153  1  0  0  0
 75154  1  0  0  0
 76 77  1  0  0  0
 76 83  1  0  0  0
 76155  1  0  0  0
 77 84  1  0  0  0
 77156  1  0  0  0
 78 85  1  0  0  0
 78157  1  0  0  0
 79 80  1  0  0  0
 79 81  1  0  0  0
 79158  1  0  0  0
 79159  1  0  0  0
 80 82  1  0  0  0
 80160  1  0  0  0
 80161  1  0  0  0
 81 85  1  0  0  0
 81162  1  0  0  0
 81163  1  0  0  0
 82164  1  0  0  0
 82165  1  0  0  0
 83166  1  0  0  0
 84167  1  0  0  0
 85168  1  0  0  0
 85169  1  0  0  0
M  CHG  2  84   1  85   1
M  ISO  4   1 100  68 101  82 101  83 100
M  END
> <chiral flag>
0

> <version>
0

> <s_m_source_file>
/data/baiqing/PycharmProjects/Reinvent-master-3.2/result/LINK_invent/BTK/process_docking_weight1_custom_sum_contain_oxygen_bond_distance_aromatic_linkinvent_7_9_3/rearranged_h_0145.sdf

> <i_m_source_file_index>
18

> <r_mmod_Potential_Energy-OPLS-2005>
-308.708709716797

> <r_mmod_Stretch_Energy-OPLS-2005>
34.1351127624512

> <r_mmod_Bend_Energy-OPLS-2005>
123.805992126465

> <r_mmod_Torsional_Energy-OPLS-2005>
296.519470214844

> <r_mmod_Improper_Torsional_Energy-OPLS-2005>
2.99262738227844

> <r_mmod_Van_der_Waal_Energy-OPLS-2005>
135.065872192383

> <r_mmod_Electrostatic_Energy-OPLS-2005>
66.7320861816406

> <r_mmod_Solvation_Energy-OPLS-2005>
-975.469970703125

> <b_mmod_Minimization_Converged-OPLS-2005>
0

> <r_mmod_RMS_Derivative-OPLS-2005>
0.590671837329865

$$$$
18
                    3D
 Structure written by MMmdl.
171180  0  0  1  0            999 V2000
  -30.6629  -14.5926   20.5105 C   0  0  0  0  0  0
  -30.4276  -12.3637   19.4492 C   0  0  0  0  0  0
  -29.5007  -12.4869   18.2214 C   0  0  0  0  0  0
  -28.0248  -12.3395   18.6399 C   0  0  0  0  0  0
  -27.6522  -13.2171   19.8651 C   0  0  2  0  0  0
  -28.6976  -13.0798   20.9937 C   0  0  0  0  0  0
  -25.2551  -13.8179   20.5702 C   0  0  0  0  0  0
  -24.1816  -13.0444   20.9190 C   0  0  0  0  0  0
  -24.6381  -11.6915   20.8753 C   0  0  0  0  0  0
  -23.9057  -10.4293   21.0417 C   0  0  0  0  0  0
  -24.3607   -9.4205   21.9190 C   0  0  0  0  0  0
  -23.6281   -8.2243   22.0760 C   0  0  0  0  0  0
  -22.4265   -8.0282   21.3552 C   0  0  0  0  0  0
  -21.9897   -9.0257   20.4659 C   0  0  0  0  0  0
  -22.7228  -10.2135   20.3072 C   0  0  0  0  0  0
  -21.6848   -6.0735   22.5288 C   0  0  0  0  0  0
  -21.4012   -6.5645   23.8218 C   0  0  0  0  0  0
  -21.3655   -5.6799   24.9183 C   0  0  0  0  0  0
  -21.6036   -4.3060   24.7232 C   0  0  0  0  0  0
  -21.8815   -3.8150   23.4355 C   0  0  0  0  0  0
  -21.9185   -4.6965   22.3410 C   0  0  0  0  0  0
  -22.7836  -13.5241   21.1857 C   0  0  0  0  0  0
  -22.1662   -4.2154   21.0987 F   0  0  0  0  0  0
  -21.5621   -3.4539   25.7743 F   0  0  0  0  0  0
  -30.0133  -13.3932   20.4198 N   0  0  0  0  0  0
  -26.2984  -12.9364   20.3354 N   0  0  0  0  0  0
  -25.9312  -11.6516   20.5787 N   0  0  0  0  0  0
  -22.0482  -12.8234   22.0419 N   0  0  0  0  0  0
  -25.4266  -15.1897   20.4157 N   0  0  0  0  0  0
  -31.8280  -14.7287   20.1283 O   0  0  0  0  0  0
  -21.6636   -6.8876   21.4249 O   0  0  0  0  0  0
  -22.3526  -14.5546   20.6709 O   0  0  0  0  0  0
  -24.6230  -31.8619   23.2065 C   0  0  0  0  0  0
  -25.9095  -32.4787   23.8374 C   0  0  1  0  0  0
  -27.2230  -27.3480   20.1094 C   0  0  0  0  0  0
  -25.5924  -33.8593   24.2292 N   0  0  0  0  0  0
  -23.4143  -30.4878   21.5476 C   0  0  2  0  0  0
  -24.8601  -28.9500   20.1092 C   0  0  0  0  0  0
  -22.7455  -29.4638   22.4941 C   0  0  0  0  0  0
  -18.0278  -28.1382   22.8493 C   0  0  0  0  0  0
  -24.1484  -36.7307   23.2642 C   0  0  0  0  0  0
  -25.9539  -30.8014   21.3738 C   0  0  0  0  0  0
  -26.0275  -29.4327   20.7126 C   0  0  0  0  0  0
  -27.2117  -28.6426   20.7055 C   0  0  0  0  0  0
  -26.0349  -26.9166   19.4724 C   0  0  0  0  0  0
  -24.8647  -27.6951   19.4816 C   0  0  0  0  0  0
  -23.6268  -29.8260   20.1617 C   0  0  0  0  0  0
  -25.4107  -36.3097   24.0327 C   0  0  1  0  0  0
  -20.5879  -28.3684   23.1290 C   0  0  2  0  0  0
  -20.6768  -26.9412   22.5413 C   0  0  0  0  0  0
  -19.5740  -26.6387   21.5220 C   0  0  0  0  0  0
  -18.1922  -26.7929   22.1632 C   0  0  0  0  0  0
  -19.1537  -28.8852   23.2888 C   0  0  0  0  0  0
  -18.9458  -30.1456   23.8901 C   0  0  0  0  0  0
  -17.6460  -30.6589   24.0566 C   0  0  0  0  0  0
  -25.9045  -34.9463   23.5104 C   0  0  0  0  0  0
  -16.5348  -29.9085   23.6330 C   0  0  0  0  0  0
  -16.7269  -28.6502   23.0352 C   0  0  0  0  0  0
  -26.4493  -31.6596   25.0736 C   0  0  0  0  0  0
  -25.3741  -31.3725   26.1473 C   0  0  0  0  0  0
  -27.0349  -30.3028   24.6193 C   0  0  0  0  0  0
  -27.6059  -32.4340   25.7489 C   0  0  0  0  0  0
  -27.5572  -37.1808   24.8460 C   0  0  0  0  0  0
  -21.4178  -29.3044   22.3692 N   0  0  0  0  0  0
  -26.4287  -37.3789   23.9402 N   0  0  0  0  0  0
  -24.6825  -31.0662   22.0992 N   0  0  0  0  0  0
  -23.4196  -28.8177   23.3011 O   0  0  0  0  0  0
  -28.3487  -26.5189   20.1745 O   0  0  0  0  0  0
  -26.5619  -34.8922   22.4674 O   0  0  0  0  0  0
  -23.5412  -32.1406   23.7419 O   0  0  0  0  0  0
  -31.3043  -19.6550   22.2538 C   0  0  0  0  0  0
  -29.6539  -20.2845   20.5853 C   0  0  0  0  0  0
  -30.6951  -21.9969   21.9762 C   0  0  0  0  0  0
  -30.4316  -19.2573   21.2218 C   0  0  0  0  0  0
  -31.4511  -20.9995   22.6385 C   0  0  0  0  0  0
  -29.7750  -21.6728   20.9479 C   0  0  0  0  0  0
  -30.3386  -16.6359   21.9041 C   0  0  0  0  0  0
  -30.4908  -17.7407   20.8425 C   0  0  1  0  0  0
  -29.5183  -16.8822   20.0215 C   0  0  1  0  0  0
  -29.7475  -19.1175   15.5144 C   0  0  0  0  0  0
  -32.5668  -22.5982   24.0525 C   0  0  0  0  0  0
  -29.7315  -16.6978   18.5077 C   0  0  0  0  0  0
  -29.5734  -18.0156   17.7239 C   0  0  0  0  0  0
  -28.1542  -25.0715   19.9822 C   0  0  0  0  0  0
  -29.2108  -24.0896   20.6144 C   0  0  0  0  0  0
  -29.9049  -15.6849   20.8534 N   0  0  0  0  0  0
  -29.8385  -17.8572   16.2787 N   0  3  0  0  0  0
  -32.3520  -21.2505   23.6513 O   0  0  0  0  0  0
  -29.0114  -22.6662   20.3057 O   0  0  0  0  0  0
  -31.4715  -12.4717   19.1486 H   0  0  0  0  0  0
  -30.3474  -11.3711   19.8955 H   0  0  0  0  0  0
  -29.7531  -11.7261   17.4808 H   0  0  0  0  0  0
  -29.6533  -13.4514   17.7357 H   0  0  0  0  0  0
  -27.8571  -11.2876   18.8769 H   0  0  0  0  0  0
  -27.3670  -12.5662   17.8001 H   0  0  0  0  0  0
  -27.6699  -14.2525   19.5234 H   0  0  0  0  0  0
  -28.6952  -12.0690   21.4035 H   0  0  0  0  0  0
  -28.4559  -13.7444   21.8255 H   0  0  0  0  0  0
  -25.2752   -9.5673   22.4761 H   0  0  0  0  0  0
  -23.9987   -7.4632   22.7474 H   0  0  0  0  0  0
  -21.0825   -8.8770   19.8971 H   0  0  0  0  0  0
  -22.3678  -10.9671   19.6182 H   0  0  0  0  0  0
  -21.2018   -7.6157   23.9720 H   0  0  0  0  0  0
  -21.1477   -6.0538   25.9082 H   0  0  0  0  0  0
  -22.0595   -2.7615   23.2860 H   0  0  0  0  0  0
  -22.4092  -11.9890   22.4807 H   0  0  0  0  0  0
  -21.1112  -13.1276   22.2651 H   0  0  0  0  0  0
  -24.6646  -15.8458   20.5458 H   0  0  0  0  0  0
  -26.2943  -15.6331   20.1427 H   0  0  0  0  0  0
  -26.7157  -32.5467   23.1124 H   0  0  0  0  0  0
  -25.0053  -33.9743   25.0423 H   0  0  0  0  0  0
  -22.7069  -31.3078   21.4080 H   0  0  0  0  0  0
  -23.3740  -35.9649   23.3323 H   0  0  0  0  0  0
  -24.3566  -36.8915   22.2054 H   0  0  0  0  0  0
  -23.7254  -37.6519   23.6656 H   0  0  0  0  0  0
  -26.0847  -31.5694   20.6100 H   0  0  0  0  0  0
  -26.8343  -30.8469   22.0032 H   0  0  0  0  0  0
  -28.1067  -29.0079   21.1898 H   0  0  0  0  0  0
  -25.9824  -25.9641   18.9652 H   0  0  0  0  0  0
  -23.9700  -27.3204   19.0033 H   0  0  0  0  0  0
  -23.7422  -30.6037   19.4062 H   0  0  0  0  0  0
  -22.7472  -29.2543   19.8597 H   0  0  0  0  0  0
  -25.1291  -36.1953   25.0823 H   0  0  0  0  0  0
  -20.9972  -28.3266   24.1411 H   0  0  0  0  0  0
  -20.5676  -26.2301   23.3613 H   0  0  0  0  0  0
  -21.6631  -26.7440   22.1202 H   0  0  0  0  0  0
  -19.6900  -25.6305   21.1237 H   0  0  0  0  0  0
  -19.6675  -27.3204   20.6756 H   0  0  0  0  0  0
  -17.4191  -26.6688   21.4034 H   0  0  0  0  0  0
  -18.0311  -26.0064   22.9020 H   0  0  0  0  0  0
  -19.7934  -30.7276   24.2270 H   0  0  0  0  0  0
  -17.5010  -31.6264   24.5178 H   0  0  0  0  0  0
  -15.5351  -30.2989   23.7655 H   0  0  0  0  0  0
  -15.8663  -28.0826   22.7059 H   0  0  0  0  0  0
  -24.5903  -30.7085   25.7801 H   0  0  0  0  0  0
  -24.8952  -32.2894   26.4921 H   0  0  0  0  0  0
  -25.8076  -30.8888   27.0235 H   0  0  0  0  0  0
  -26.2925  -29.6769   24.1228 H   0  0  0  0  0  0
  -27.4058  -29.7300   25.4704 H   0  0  0  0  0  0
  -27.8786  -30.4312   23.9408 H   0  0  0  0  0  0
  -27.2658  -33.3629   26.2075 H   0  0  0  0  0  0
  -28.3851  -32.6918   25.0304 H   0  0  0  0  0  0
  -28.0743  -31.8470   26.5397 H   0  0  0  0  0  0
  -28.2601  -38.0095   24.7495 H   0  0  0  0  0  0
  -28.1057  -36.2628   24.6299 H   0  0  0  0  0  0
  -27.2288  -37.1469   25.8863 H   0  0  0  0  0  0
  -20.9357  -29.8773   21.6909 H   0  0  0  0  0  0
  -26.0175  -38.2868   24.1406 H   0  0  0  0  0  0
  -31.9053  -18.9083   22.7534 H   0  0  0  0  0  0
  -28.9658  -20.0165   19.7974 H   0  0  0  0  0  0
  -30.8277  -23.0247   22.2683 H   0  0  0  0  0  0
  -29.5584  -16.8432   22.6382 H   0  0  0  0  0  0
  -31.2758  -16.3910   22.4068 H   0  0  0  0  0  0
  -31.4779  -17.6236   20.3900 H   0  0  0  0  0  0
  -28.4915  -17.1825   20.2421 H   0  0  0  0  0  0
  -29.9676  -18.9387   14.4612 H   0  0  0  0  0  0
  -30.4619  -19.8532   15.8851 H   0  0  0  0  0  0
  -28.7473  -19.5465   15.5812 H   0  0  0  0  0  0
  -33.2948  -22.6194   24.8640 H   0  0  0  0  0  0
  -31.6509  -23.0605   24.4229 H   0  0  0  0  0  0
  -32.9705  -23.1976   23.2354 H   0  0  0  0  0  0
  -29.0319  -15.9548   18.1217 H   0  0  0  0  0  0
  -30.7303  -16.3121   18.3049 H   0  0  0  0  0  0
  -30.2699  -18.7560   18.1181 H   0  0  0  0  0  0
  -28.5680  -18.4136   17.8674 H   0  0  0  0  0  0
  -27.1926  -24.7729   20.4031 H   0  0  0  0  0  0
  -28.1003  -24.8791   18.9105 H   0  0  0  0  0  0
  -29.1701  -24.2399   21.6932 H   0  0  0  0  0  0
  -30.2088  -24.3802   20.2834 H   0  0  0  0  0  0
  -30.7642  -17.4799   16.1501 H   0  0  0  0  0  0
  -29.1835  -17.2006   15.8852 H   0  0  0  0  0  0
  1 25  1  0  0  0
  1 30  2  0  0  0
  1 86  1  0  0  0
  2  3  1  0  0  0
  2 25  1  0  0  0
  2 90  1  0  0  0
  2 91  1  0  0  0
  3  4  1  0  0  0
  3 92  1  0  0  0
  3 93  1  0  0  0
  4  5  1  0  0  0
  4 94  1  0  0  0
  4 95  1  0  0  0
  5  6  1  0  0  0
  5 26  1  0  0  0
  5 96  1  0  0  0
  6 25  1  0  0  0
  6 97  1  0  0  0
  6 98  1  0  0  0
  7  8  2  0  0  0
  7 26  1  0  0  0
  7 29  1  0  0  0
  8  9  1  0  0  0
  8 22  1  0  0  0
  9 10  1  0  0  0
  9 27  2  0  0  0
 10 11  2  0  0  0
 10 15  1  0  0  0
 11 12  1  0  0  0
 11 99  1  0  0  0
 12 13  2  0  0  0
 12100  1  0  0  0
 13 14  1  0  0  0
 13 31  1  0  0  0
 14 15  2  0  0  0
 14101  1  0  0  0
 15102  1  0  0  0
 16 17  2  0  0  0
 16 21  1  0  0  0
 16 31  1  0  0  0
 17 18  1  0  0  0
 17103  1  0  0  0
 18 19  2  0  0  0
 18104  1  0  0  0
 19 20  1  0  0  0
 19 24  1  0  0  0
 20 21  2  0  0  0
 20105  1  0  0  0
 21 23  1  0  0  0
 22 28  1  0  0  0
 22 32  2  0  0  0
 26 27  1  0  0  0
 28106  1  0  0  0
 28107  1  0  0  0
 29108  1  0  0  0
 29109  1  0  0  0
 33 34  1  0  0  0
 33 66  1  0  0  0
 33 70  2  0  0  0
 34 36  1  0  0  0
 34 59  1  0  0  0
 34110  1  0  0  0
 35 44  2  0  0  0
 35 45  1  0  0  0
 35 68  1  0  0  0
 36 56  1  0  0  0
 36111  1  0  0  0
 37 39  1  0  0  0
 37 47  1  0  0  0
 37 66  1  0  0  0
 37112  1  0  0  0
 38 43  2  0  0  0
 38 46  1  0  0  0
 38 47  1  0  0  0
 39 64  1  0  0  0
 39 67  2  0  0  0
 40 52  1  0  0  0
 40 53  2  0  0  0
 40 58  1  0  0  0
 41113  1  0  0  0
 41114  1  0  0  0
 41115  1  0  0  0
 41 48  1  0  0  0
 42 43  1  0  0  0
 42 66  1  0  0  0
 42116  1  0  0  0
 42117  1  0  0  0
 43 44  1  0  0  0
 44118  1  0  0  0
 45 46  2  0  0  0
 45119  1  0  0  0
 46120  1  0  0  0
 47121  1  0  0  0
 47122  1  0  0  0
 48 56  1  0  0  0
 48 65  1  0  0  0
 48123  1  0  0  0
 49 50  1  0  0  0
 49 53  1  0  0  0
 49 64  1  0  0  0
 49124  1  0  0  0
 50 51  1  0  0  0
 50125  1  0  0  0
 50126  1  0  0  0
 51 52  1  0  0  0
 51127  1  0  0  0
 51128  1  0  0  0
 52129  1  0  0  0
 52130  1  0  0  0
 53 54  1  0  0  0
 54 55  2  0  0  0
 54131  1  0  0  0
 55 57  1  0  0  0
 55132  1  0  0  0
 56 69  2  0  0  0
 57 58  2  0  0  0
 57133  1  0  0  0
 58134  1  0  0  0
 59 60  1  0  0  0
 59 61  1  0  0  0
 59 62  1  0  0  0
 60135  1  0  0  0
 60136  1  0  0  0
 60137  1  0  0  0
 61138  1  0  0  0
 61139  1  0  0  0
 61140  1  0  0  0
 62141  1  0  0  0
 62142  1  0  0  0
 62143  1  0  0  0
 63 65  1  0  0  0
 63144  1  0  0  0
 63145  1  0  0  0
 63146  1  0  0  0
 64147  1  0  0  0
 65148  1  0  0  0
 68 84  1  0  0  0
 71 74  2  0  0  0
 71 75  1  0  0  0
 71149  1  0  0  0
 72 74  1  0  0  0
 72 76  2  0  0  0
 72150  1  0  0  0
 73 75  2  0  0  0
 73 76  1  0  0  0
 73151  1  0  0  0
 74 78  1  0  0  0
 75 88  1  0  0  0
 76 89  1  0  0  0
 77 78  1  0  0  0
 77 86  1  0  0  0
 77152  1  0  0  0
 77153  1  0  0  0
 78 79  1  0  0  0
 78154  1  0  0  0
 79 82  1  0  0  0
 79 86  1  0  0  0
 79155  1  0  0  0
 80 87  1  0  0  0
 80156  1  0  0  0
 80157  1  0  0  0
 80158  1  0  0  0
 81 88  1  0  0  0
 81159  1  0  0  0
 81160  1  0  0  0
 81161  1  0  0  0
 82 83  1  0  0  0
 82162  1  0  0  0
 82163  1  0  0  0
 83 87  1  0  0  0
 83164  1  0  0  0
 83165  1  0  0  0
 84 85  1  0  0  0
 84166  1  0  0  0
 84167  1  0  0  0
 85 89  1  0  0  0
 85168  1  0  0  0
 85169  1  0  0  0
 87170  1  0  0  0
 87171  1  0  0  0
M  CHG  1  87   1
M  ISO  4   1 100  68 101  84 101  86 100
M  END
> <chiral flag>
0

> <version>
0

> <s_m_source_file>
/data/baiqing/PycharmProjects/Reinvent-master-3.2/result/LINK_invent/BTK/process_docking_weight1_custom_sum_contain_oxygen_bond_distance_aromatic_linkinvent_7_9_3/rearranged_h_0145.sdf

> <i_m_source_file_index>
19

> <r_mmod_Potential_Energy-OPLS-2005>
-16.9523429870605

> <r_mmod_Stretch_Energy-OPLS-2005>
72.9586029052734

> <r_mmod_Bend_Energy-OPLS-2005>
149.356063842773

> <r_mmod_Torsional_Energy-OPLS-2005>
269.632873535156

> <r_mmod_Improper_Torsional_Energy-OPLS-2005>
10.9938888549805

> <r_mmod_Van_der_Waal_Energy-OPLS-2005>
149.346221923828

> <r_mmod_Electrostatic_Energy-OPLS-2005>
-228.773330688477

> <r_mmod_Solvation_Energy-OPLS-2005>
-478.344482421875

> <b_mmod_Minimization_Converged-OPLS-2005>
0

> <r_mmod_RMS_Derivative-OPLS-2005>
1.86432707309723

$$$$
19
                    3D
 Structure written by MMmdl.
182192  0  0  1  0            999 V2000
  -30.7809  -14.5574   20.4812 C   0  0  0  0  0  0
  -30.3962  -12.3481   19.4581 C   0  0  0  0  0  0
  -29.5006  -12.5057   18.2185 C   0  0  0  0  0  0
  -28.0272  -12.3473   18.6377 C   0  0  0  0  0  0
  -27.6535  -13.2310   19.8595 C   0  0  2  0  0  0
  -28.7052  -13.1463   20.9924 C   0  0  0  0  0  0
  -25.2592  -13.8199   20.5754 C   0  0  0  0  0  0
  -24.1871  -13.0406   20.9226 C   0  0  0  0  0  0
  -24.6491  -11.6903   20.8787 C   0  0  0  0  0  0
  -23.9159  -10.4286   21.0474 C   0  0  0  0  0  0
  -24.3686   -9.4165   21.9236 C   0  0  0  0  0  0
  -23.6321   -8.2220   22.0755 C   0  0  0  0  0  0
  -22.4296   -8.0310   21.3539 C   0  0  0  0  0  0
  -21.9977   -9.0305   20.4652 C   0  0  0  0  0  0
  -22.7353  -10.2167   20.3097 C   0  0  0  0  0  0
  -21.6816   -6.0773   22.5299 C   0  0  0  0  0  0
  -21.3990   -6.5659   23.8247 C   0  0  0  0  0  0
  -21.3669   -5.6799   24.9199 C   0  0  0  0  0  0
  -21.6040   -4.3059   24.7229 C   0  0  0  0  0  0
  -21.8806   -3.8168   23.4346 C   0  0  0  0  0  0
  -21.9163   -4.6998   22.3407 C   0  0  0  0  0  0
  -22.7899  -13.5218   21.1844 C   0  0  0  0  0  0
  -22.1620   -4.2189   21.0978 F   0  0  0  0  0  0
  -21.5635   -3.4542   25.7745 F   0  0  0  0  0  0
  -30.0229  -13.4200   20.4064 N   0  0  0  0  0  0
  -26.3029  -12.9412   20.3386 N   0  0  0  0  0  0
  -25.9414  -11.6536   20.5795 N   0  0  0  0  0  0
  -22.0507  -12.8244   22.0420 N   0  0  0  0  0  0
  -25.4239  -15.1924   20.4222 N   0  0  0  0  0  0
  -31.9411  -14.5336   20.0607 O   0  0  0  0  0  0
  -21.6594   -6.8940   21.4274 O   0  0  0  0  0  0
  -22.3585  -14.5502   20.6677 O   0  0  0  0  0  0
  -24.6266  -31.8583   23.2000 C   0  0  0  0  0  0
  -25.9142  -32.4752   23.8281 C   0  0  1  0  0  0
  -27.1971  -27.3254   20.1126 C   0  0  0  0  0  0
  -25.5998  -33.8543   24.2249 N   0  0  0  0  0  0
  -23.4154  -30.4836   21.5449 C   0  0  2  0  0  0
  -24.8508  -28.9427   20.1073 C   0  0  0  0  0  0
  -22.7482  -29.4629   22.4972 C   0  0  0  0  0  0
  -18.0335  -28.1277   22.8515 C   0  0  0  0  0  0
  -24.1502  -36.7279   23.2627 C   0  0  0  0  0  0
  -25.9515  -30.7968   21.3656 C   0  0  0  0  0  0
  -26.0181  -29.4222   20.7132 C   0  0  0  0  0  0
  -27.1921  -28.6192   20.7130 C   0  0  0  0  0  0
  -26.0158  -26.9023   19.4739 C   0  0  0  0  0  0
  -24.8510  -27.6893   19.4778 C   0  0  0  0  0  0
  -23.6202  -29.8211   20.1580 C   0  0  0  0  0  0
  -25.4128  -36.3062   24.0329 C   0  0  1  0  0  0
  -20.5926  -28.3626   23.1264 C   0  0  2  0  0  0
  -20.6882  -26.9441   22.5163 C   0  0  0  0  0  0
  -19.5703  -26.6334   21.5128 C   0  0  0  0  0  0
  -18.1971  -26.7790   22.1725 C   0  0  0  0  0  0
  -19.1572  -28.8762   23.2889 C   0  0  0  0  0  0
  -18.9472  -30.1356   23.8917 C   0  0  0  0  0  0
  -17.6475  -30.6505   24.0564 C   0  0  0  0  0  0
  -25.9057  -34.9433   23.5074 C   0  0  0  0  0  0
  -16.5375  -29.8998   23.6312 C   0  0  0  0  0  0
  -16.7307  -28.6413   23.0359 C   0  0  0  0  0  0
  -26.4537  -31.6556   25.0655 C   0  0  0  0  0  0
  -25.3799  -31.3713   26.1423 C   0  0  0  0  0  0
  -27.0372  -30.2980   24.6062 C   0  0  0  0  0  0
  -27.6093  -32.4286   25.7469 C   0  0  0  0  0  0
  -27.5592  -37.1807   24.8461 C   0  0  0  0  0  0
  -21.4191  -29.3101   22.3773 N   0  0  0  0  0  0
  -26.4287  -37.3781   23.9427 N   0  0  0  0  0  0
  -24.6839  -31.0615   22.0930 N   0  0  0  0  0  0
  -23.4242  -28.8161   23.3023 O   0  0  0  0  0  0
  -28.3188  -26.5034   20.2115 O   0  0  0  0  0  0
  -26.5552  -34.8906   22.4597 O   0  0  0  0  0  0
  -23.5454  -32.1364   23.7362 O   0  0  0  0  0  0
  -24.1350  -23.5303   18.0002 C   0  0  0  0  0  0
  -24.3587  -22.1512   18.5594 C   0  0  0  0  0  0
  -27.7009  -21.1865   23.0062 C   0  0  0  0  0  0
  -26.5448  -21.6150   22.1089 C   0  0  0  0  0  0
  -30.6357  -18.0742   21.6735 C   0  0  0  0  0  0
  -31.3232  -16.7366   21.3975 C   0  0  0  0  0  0
  -29.0837  -16.4879   20.6386 C   0  0  0  0  0  0
  -25.1459  -23.3232   19.1085 C   0  0  0  0  0  0
  -28.3107  -20.3903   21.8168 C   0  0  2  0  0  0
  -29.2762  -18.0206   20.9727 C   0  0  1  0  0  0
  -27.5208  -21.4481   20.9279 C   0  0  2  0  0  0
  -28.5886  -18.4798   24.3068 C   0  0  0  0  0  0
  -26.2564  -18.0226   23.3624 C   0  0  0  0  0  0
  -26.6295  -23.4557   18.8011 C   0  0  0  0  0  0
  -28.4113  -25.1727   19.5863 C   0  0  0  0  0  0
  -28.1043  -18.8036   21.7113 C   0  0  1  0  0  0
  -27.7640  -18.0720   23.0647 C   0  0  0  0  0  0
  -27.5017  -23.9181   20.0132 C   0  0  2  0  0  0
  -30.3113  -15.7355   21.0075 N   0  0  0  0  0  0
  -28.2681  -22.7278   20.5737 N   0  3  0  0  0  0
  -31.4470  -12.3631   19.1619 H   0  0  0  0  0  0
  -30.2396  -11.3718   19.9198 H   0  0  0  0  0  0
  -29.7727  -11.7541   17.4748 H   0  0  0  0  0  0
  -29.6707  -13.4798   17.7531 H   0  0  0  0  0  0
  -27.8781  -11.2973   18.8884 H   0  0  0  0  0  0
  -27.3667  -12.5568   17.7943 H   0  0  0  0  0  0
  -27.6542  -14.2563   19.4931 H   0  0  0  0  0  0
  -28.7032  -12.1594   21.4545 H   0  0  0  0  0  0
  -28.4766  -13.8533   21.7886 H   0  0  0  0  0  0
  -25.2832   -9.5551   22.4838 H   0  0  0  0  0  0
  -23.9994   -7.4559   22.7443 H   0  0  0  0  0  0
  -21.0913   -8.8891   19.8935 H   0  0  0  0  0  0
  -22.3881  -10.9741   19.6214 H   0  0  0  0  0  0
  -21.1979   -7.6170   23.9783 H   0  0  0  0  0  0
  -21.1507   -6.0512   25.9116 H   0  0  0  0  0  0
  -22.0584   -2.7640   23.2834 H   0  0  0  0  0  0
  -22.4046  -11.9938   22.4902 H   0  0  0  0  0  0
  -21.1134  -13.1321   22.2543 H   0  0  0  0  0  0
  -24.6500  -15.8330   20.5524 H   0  0  0  0  0  0
  -26.2777  -15.6559   20.1344 H   0  0  0  0  0  0
  -26.7226  -32.5412   23.1036 H   0  0  0  0  0  0
  -25.0305  -33.9655   25.0501 H   0  0  0  0  0  0
  -22.7052  -31.2993   21.4046 H   0  0  0  0  0  0
  -23.3753  -35.9621   23.3273 H   0  0  0  0  0  0
  -24.3600  -36.8887   22.2038 H   0  0  0  0  0  0
  -23.7237  -37.6487   23.6620 H   0  0  0  0  0  0
  -26.0656  -31.5654   20.6000 H   0  0  0  0  0  0
  -26.8418  -30.8459   21.9791 H   0  0  0  0  0  0
  -28.0924  -28.9705   21.1947 H   0  0  0  0  0  0
  -25.9519  -25.9531   18.9793 H   0  0  0  0  0  0
  -23.9605  -27.3146   18.9938 H   0  0  0  0  0  0
  -23.7301  -30.5888   19.3911 H   0  0  0  0  0  0
  -22.7415  -29.2424   19.8723 H   0  0  0  0  0  0
  -25.1315  -36.1895   25.0822 H   0  0  0  0  0  0
  -20.9990  -28.2970   24.1379 H   0  0  0  0  0  0
  -20.6112  -26.2166   23.3252 H   0  0  0  0  0  0
  -21.6671  -26.7685   22.0680 H   0  0  0  0  0  0
  -19.6874  -25.6261   21.1085 H   0  0  0  0  0  0
  -19.6413  -27.3175   20.6665 H   0  0  0  0  0  0
  -17.4148  -26.6446   21.4220 H   0  0  0  0  0  0
  -18.0492  -25.9952   22.9180 H   0  0  0  0  0  0
  -19.7949  -30.7169   24.2296 H   0  0  0  0  0  0
  -17.5019  -31.6176   24.5162 H   0  0  0  0  0  0
  -15.5363  -30.2886   23.7593 H   0  0  0  0  0  0
  -15.8734  -28.0683   22.7080 H   0  0  0  0  0  0
  -24.5993  -30.7008   25.7827 H   0  0  0  0  0  0
  -24.8976  -32.2887   26.4814 H   0  0  0  0  0  0
  -25.8200  -30.8969   27.0205 H   0  0  0  0  0  0
  -26.2918  -29.6726   24.1126 H   0  0  0  0  0  0
  -27.4149  -29.7254   25.4543 H   0  0  0  0  0  0
  -27.8760  -30.4297   23.9218 H   0  0  0  0  0  0
  -27.2689  -33.3588   26.2048 H   0  0  0  0  0  0
  -28.3958  -32.6826   25.0343 H   0  0  0  0  0  0
  -28.0688  -31.8368   26.5402 H   0  0  0  0  0  0
  -28.2610  -38.0104   24.7541 H   0  0  0  0  0  0
  -28.1097  -36.2640   24.6276 H   0  0  0  0  0  0
  -27.2307  -37.1470   25.8859 H   0  0  0  0  0  0
  -20.9318  -29.8991   21.7157 H   0  0  0  0  0  0
  -26.0156  -38.2856   24.1420 H   0  0  0  0  0  0
  -23.2017  -24.0280   18.2588 H   0  0  0  0  0  0
  -24.5141  -23.7469   17.0026 H   0  0  0  0  0  0
  -24.8868  -21.4317   17.9362 H   0  0  0  0  0  0
  -23.5812  -21.7311   19.1947 H   0  0  0  0  0  0
  -27.3608  -20.6320   23.8750 H   0  0  0  0  0  0
  -28.3270  -22.0239   23.3238 H   0  0  0  0  0  0
  -26.1540  -22.6130   22.3114 H   0  0  0  0  0  0
  -25.7375  -20.8784   22.1060 H   0  0  0  0  0  0
  -31.2397  -18.9173   21.3333 H   0  0  0  0  0  0
  -30.5500  -18.1841   22.7470 H   0  0  0  0  0  0
  -31.8946  -16.3844   22.2603 H   0  0  0  0  0  0
  -32.0485  -16.8953   20.5938 H   0  0  0  0  0  0
  -28.9020  -16.3677   19.5675 H   0  0  0  0  0  0
  -28.2199  -16.0453   21.1284 H   0  0  0  0  0  0
  -24.8299  -23.7300   20.0679 H   0  0  0  0  0  0
  -29.3782  -20.6060   21.7839 H   0  0  0  0  0  0
  -29.4105  -18.5230   20.0107 H   0  0  0  0  0  0
  -27.0407  -20.9797   20.0666 H   0  0  0  0  0  0
  -29.2392  -17.6665   24.6269 H   0  0  0  0  0  0
  -27.9618  -18.7416   25.1595 H   0  0  0  0  0  0
  -29.2399  -19.3299   24.1186 H   0  0  0  0  0  0
  -25.7270  -17.4422   22.6059 H   0  0  0  0  0  0
  -25.8038  -19.0082   23.4043 H   0  0  0  0  0  0
  -26.0586  -17.5321   24.3159 H   0  0  0  0  0  0
  -26.7078  -24.1488   17.9639 H   0  0  0  0  0  0
  -26.9999  -22.5223   18.3727 H   0  0  0  0  0  0
  -28.3278  -25.3701   18.5179 H   0  0  0  0  0  0
  -29.4536  -24.8729   19.6889 H   0  0  0  0  0  0
  -27.2353  -18.6455   21.0679 H   0  0  0  0  0  0
  -28.0116  -17.0203   22.9494 H   0  0  0  0  0  0
  -26.8602  -24.2718   20.8194 H   0  0  0  0  0  0
  -28.9755  -22.4640   19.9036 H   0  0  0  0  0  0
  -28.7654  -23.0360   21.3950 H   0  0  0  0  0  0
  1 25  1  0  0  0
  1 30  2  0  0  0
  1 89  1  0  0  0
  2  3  1  0  0  0
  2 25  1  0  0  0
  2 91  1  0  0  0
  2 92  1  0  0  0
  3  4  1  0  0  0
  3 93  1  0  0  0
  3 94  1  0  0  0
  4  5  1  0  0  0
  4 95  1  0  0  0
  4 96  1  0  0  0
  5  6  1  0  0  0
  5 26  1  0  0  0
  5 97  1  0  0  0
  6 25  1  0  0  0
  6 98  1  0  0  0
  6 99  1  0  0  0
  7  8  2  0  0  0
  7 26  1  0  0  0
  7 29  1  0  0  0
  8  9  1  0  0  0
  8 22  1  0  0  0
  9 10  1  0  0  0
  9 27  2  0  0  0
 10 11  2  0  0  0
 10 15  1  0  0  0
 11 12  1  0  0  0
 11100  1  0  0  0
 12 13  2  0  0  0
 12101  1  0  0  0
 13 14  1  0  0  0
 13 31  1  0  0  0
 14 15  2  0  0  0
 14102  1  0  0  0
 15103  1  0  0  0
 16 17  2  0  0  0
 16 21  1  0  0  0
 16 31  1  0  0  0
 17 18  1  0  0  0
 17104  1  0  0  0
 18 19  2  0  0  0
 18105  1  0  0  0
 19 20  1  0  0  0
 19 24  1  0  0  0
 20 21  2  0  0  0
 20106  1  0  0  0
 21 23  1  0  0  0
 22 28  1  0  0  0
 22 32  2  0  0  0
 26 27  1  0  0  0
 28107  1  0  0  0
 28108  1  0  0  0
 29109  1  0  0  0
 29110  1  0  0  0
 33 34  1  0  0  0
 33 66  1  0  0  0
 33 70  2  0  0  0
 34 36  1  0  0  0
 34 59  1  0  0  0
 34111  1  0  0  0
 35 44  2  0  0  0
 35 45  1  0  0  0
 35 68  1  0  0  0
 36 56  1  0  0  0
 36112  1  0  0  0
 37 39  1  0  0  0
 37 47  1  0  0  0
 37 66  1  0  0  0
 37113  1  0  0  0
 38 43  2  0  0  0
 38 46  1  0  0  0
 38 47  1  0  0  0
 39 64  1  0  0  0
 39 67  2  0  0  0
 40 52  1  0  0  0
 40 53  2  0  0  0
 40 58  1  0  0  0
 41114  1  0  0  0
 41115  1  0  0  0
 41116  1  0  0  0
 41 48  1  0  0  0
 42 43  1  0  0  0
 42 66  1  0  0  0
 42117  1  0  0  0
 42118  1  0  0  0
 43 44  1  0  0  0
 44119  1  0  0  0
 45 46  2  0  0  0
 45120  1  0  0  0
 46121  1  0  0  0
 47122  1  0  0  0
 47123  1  0  0  0
 48 56  1  0  0  0
 48 65  1  0  0  0
 48124  1  0  0  0
 49 50  1  0  0  0
 49 53  1  0  0  0
 49 64  1  0  0  0
 49125  1  0  0  0
 50 51  1  0  0  0
 50126  1  0  0  0
 50127  1  0  0  0
 51 52  1  0  0  0
 51128  1  0  0  0
 51129  1  0  0  0
 52130  1  0  0  0
 52131  1  0  0  0
 53 54  1  0  0  0
 54 55  2  0  0  0
 54132  1  0  0  0
 55 57  1  0  0  0
 55133  1  0  0  0
 56 69  2  0  0  0
 57 58  2  0  0  0
 57134  1  0  0  0
 58135  1  0  0  0
 59 60  1  0  0  0
 59 61  1  0  0  0
 59 62  1  0  0  0
 60136  1  0  0  0
 60137  1  0  0  0
 60138  1  0  0  0
 61139  1  0  0  0
 61140  1  0  0  0
 61141  1  0  0  0
 62142  1  0  0  0
 62143  1  0  0  0
 62144  1  0  0  0
 63 65  1  0  0  0
 63145  1  0  0  0
 63146  1  0  0  0
 63147  1  0  0  0
 64148  1  0  0  0
 65149  1  0  0  0
 68 85  1  0  0  0
 71 72  1  0  0  0
 71 78  1  0  0  0
 71150  1  0  0  0
 71151  1  0  0  0
 72 78  1  0  0  0
 72152  1  0  0  0
 72153  1  0  0  0
 73 74  1  0  0  0
 73154  1  0  0  0
 73155  1  0  0  0
 73 79  1  0  0  0
 74 81  1  0  0  0
 74156  1  0  0  0
 74157  1  0  0  0
 75 76  1  0  0  0
 75158  1  0  0  0
 75159  1  0  0  0
 75 80  1  0  0  0
 76 89  1  0  0  0
 76160  1  0  0  0
 76161  1  0  0  0
 77 80  1  0  0  0
 77 89  1  0  0  0
 77162  1  0  0  0
 77163  1  0  0  0
 78 84  1  0  0  0
 78164  1  0  0  0
 79 81  1  0  0  0
 79 86  1  0  0  0
 79165  1  0  0  0
 80 86  1  0  0  0
 80166  1  0  0  0
 81 90  1  0  0  0
 81167  1  0  0  0
 82168  1  0  0  0
 82169  1  0  0  0
 82170  1  0  0  0
 82 87  1  0  0  0
 83 87  1  0  0  0
 83171  1  0  0  0
 83172  1  0  0  0
 83173  1  0  0  0
 84174  1  0  0  0
 84175  1  0  0  0
 84 88  1  0  0  0
 85 88  1  0  0  0
 85176  1  0  0  0
 85177  1  0  0  0
 86 87  1  0  0  0
 86178  1  0  0  0
 87179  1  0  0  0
 88 90  1  0  0  0
 88180  1  0  0  0
 90181  1  0  0  0
 90182  1  0  0  0
M  CHG  1  90   1
M  ISO  4   1 100  68 101  85 101  89 100
M  END
> <chiral flag>
0

> <version>
0

> <s_m_source_file>
/data/baiqing/PycharmProjects/Reinvent-master-3.2/result/LINK_invent/BTK/process_docking_weight1_custom_sum_contain_oxygen_bond_distance_aromatic_linkinvent_7_9_3/rearranged_h_0145.sdf

> <i_m_source_file_index>
20

> <r_mmod_Potential_Energy-OPLS-2005>
388.982666015625

> <r_mmod_Stretch_Energy-OPLS-2005>
86.189582824707

> <r_mmod_Bend_Energy-OPLS-2005>
214.497406005859

> <r_mmod_Torsional_Energy-OPLS-2005>
481.463684082031

> <r_mmod_Improper_Torsional_Energy-OPLS-2005>
4.32103681564331

> <r_mmod_Van_der_Waal_Energy-OPLS-2005>
138.363952636719

> <r_mmod_Electrostatic_Energy-OPLS-2005>
-159.624130249023

> <r_mmod_Solvation_Energy-OPLS-2005>
-423.762329101562

> <b_mmod_Minimization_Converged-OPLS-2005>
0

> <r_mmod_RMS_Derivative-OPLS-2005>
5.99626159667969

$$$$
20
                    3D
 Structure written by MMmdl.
163171  0  0  1  0            999 V2000
  -30.7299  -14.5237   20.3816 C   0  0  0  0  0  0
  -30.4208  -12.2789   19.4322 C   0  0  0  0  0  0
  -29.4926  -12.3973   18.2062 C   0  0  0  0  0  0
  -28.0153  -12.2941   18.6313 C   0  0  0  0  0  0
  -27.6555  -13.2116   19.8322 C   0  0  2  0  0  0
  -28.7182  -13.1139   20.9515 C   0  0  0  0  0  0
  -25.2691  -13.8193   20.5723 C   0  0  0  0  0  0
  -24.1940  -13.0438   20.9195 C   0  0  0  0  0  0
  -24.6454  -11.6937   20.8801 C   0  0  0  0  0  0
  -23.9093  -10.4329   21.0482 C   0  0  0  0  0  0
  -24.3585   -9.4250   21.9313 C   0  0  0  0  0  0
  -23.6254   -8.2287   22.0873 C   0  0  0  0  0  0
  -22.4257   -8.0344   21.3593 C   0  0  0  0  0  0
  -21.9902   -9.0338   20.4688 C   0  0  0  0  0  0
  -22.7292  -10.2183   20.3067 C   0  0  0  0  0  0
  -21.6884   -6.0668   22.5212 C   0  0  0  0  0  0
  -21.4014   -6.5511   23.8167 C   0  0  0  0  0  0
  -21.3638   -5.6683   24.9133 C   0  0  0  0  0  0
  -21.6064   -4.2949   24.7231 C   0  0  0  0  0  0
  -21.8857   -3.8062   23.4330 C   0  0  0  0  0  0
  -21.9211   -4.6883   22.3386 C   0  0  0  0  0  0
  -22.7948  -13.5251   21.1795 C   0  0  0  0  0  0
  -22.1712   -4.2062   21.0987 F   0  0  0  0  0  0
  -21.5614   -3.4469   25.7758 F   0  0  0  0  0  0
  -30.0325  -13.3585   20.3470 N   0  0  0  0  0  0
  -26.3099  -12.9350   20.3321 N   0  0  0  0  0  0
  -25.9410  -11.6524   20.5833 N   0  0  0  0  0  0
  -22.0526  -12.8133   22.0219 N   0  0  0  0  0  0
  -25.4341  -15.1889   20.4156 N   0  0  0  0  0  0
  -31.9512  -14.5651   20.2251 O   0  0  0  0  0  0
  -21.6640   -6.8910   21.4235 O   0  0  0  0  0  0
  -22.3723  -14.5664   20.6832 O   0  0  0  0  0  0
  -24.6164  -31.8696   23.2119 C   0  0  0  0  0  0
  -25.9050  -32.4840   23.8404 C   0  0  1  0  0  0
  -27.2121  -27.4062   20.0931 C   0  0  0  0  0  0
  -25.5912  -33.8640   24.2332 N   0  0  0  0  0  0
  -23.4015  -30.4971   21.5555 C   0  0  2  0  0  0
  -24.8416  -28.9645   20.1073 C   0  0  0  0  0  0
  -22.7393  -29.4686   22.4996 C   0  0  0  0  0  0
  -18.0270  -28.1380   22.8492 C   0  0  0  0  0  0
  -24.1485  -36.7326   23.2639 C   0  0  0  0  0  0
  -25.9360  -30.8272   21.3662 C   0  0  0  0  0  0
  -26.0087  -29.4647   20.6983 C   0  0  0  0  0  0
  -27.1989  -28.7019   20.6708 C   0  0  0  0  0  0
  -26.0252  -26.9264   19.4922 C   0  0  0  0  0  0
  -24.8465  -27.6990   19.4984 C   0  0  0  0  0  0
  -23.6070  -29.8374   20.1658 C   0  0  0  0  0  0
  -25.4123  -36.3148   24.0334 C   0  0  1  0  0  0
  -20.5870  -28.3681   23.1295 C   0  0  2  0  0  0
  -20.6785  -26.9426   22.5395 C   0  0  0  0  0  0
  -19.5755  -26.6398   21.5203 C   0  0  0  0  0  0
  -18.1929  -26.7931   22.1626 C   0  0  0  0  0  0
  -19.1521  -28.8850   23.2893 C   0  0  0  0  0  0
  -18.9449  -30.1458   23.8906 C   0  0  0  0  0  0
  -17.6448  -30.6592   24.0573 C   0  0  0  0  0  0
  -25.9049  -34.9501   23.5140 C   0  0  0  0  0  0
  -16.5341  -29.9091   23.6335 C   0  0  0  0  0  0
  -16.7261  -28.6510   23.0355 C   0  0  0  0  0  0
  -26.4462  -31.6628   25.0742 C   0  0  0  0  0  0
  -25.3706  -31.3706   26.1462 C   0  0  0  0  0  0
  -27.0307  -30.3071   24.6161 C   0  0  0  0  0  0
  -27.6050  -32.4343   25.7498 C   0  0  0  0  0  0
  -27.5599  -37.1831   24.8475 C   0  0  0  0  0  0
  -21.4133  -29.3048   22.3706 N   0  0  0  0  0  0
  -26.4324  -37.3823   23.9401 N   0  0  0  0  0  0
  -24.6709  -31.0778   22.1032 N   0  0  0  0  0  0
  -23.4170  -28.8234   23.3043 O   0  0  0  0  0  0
  -28.3684  -26.6451   20.1362 O   0  0  0  0  0  0
  -26.5603  -34.8945   22.4691 O   0  0  0  0  0  0
  -23.5357  -32.1461   23.7506 O   0  0  0  0  0  0
  -28.5448  -24.0815   22.6635 C   0  0  0  0  0  0
  -27.6781  -24.8152   21.6510 C   0  0  1  0  0  0
  -27.2760  -23.4285   22.1773 C   0  0  1  0  0  0
  -26.4012  -21.0594   22.3245 C   0  0  0  0  0  0
  -30.3529  -16.1460   18.6173 C   0  0  0  0  0  0
  -28.2497  -25.2067   20.2868 C   0  0  0  0  0  0
  -29.6558  -18.0650   20.6519 C   0  0  0  0  0  0
  -29.3039  -16.5395   20.8210 C   0  0  0  0  0  0
  -28.7122  -19.0173   21.4389 C   0  0  0  0  0  0
  -28.4451  -21.4117   20.8042 C   0  0  0  0  0  0
  -27.1672  -22.0654   21.4432 C   0  0  1  0  0  0
  -30.0152  -15.5931   19.9334 N   0  0  0  0  0  0
  -29.1346  -20.3947   21.5685 O   0  0  0  0  0  0
  -31.4722  -12.3254   19.1379 H   0  0  0  0  0  0
  -30.2897  -11.3100   19.9106 H   0  0  0  0  0  0
  -29.7040  -11.6080   17.4882 H   0  0  0  0  0  0
  -29.6809  -13.3254   17.6724 H   0  0  0  0  0  0
  -27.8415  -11.2546   18.9121 H   0  0  0  0  0  0
  -27.3559  -12.4915   17.7878 H   0  0  0  0  0  0
  -27.6568  -14.2324   19.4548 H   0  0  0  0  0  0
  -28.7163  -12.1202   21.3977 H   0  0  0  0  0  0
  -28.5287  -13.8316   21.7537 H   0  0  0  0  0  0
  -25.2699   -9.5717   22.4984 H   0  0  0  0  0  0
  -23.9880   -7.4681   22.7662 H   0  0  0  0  0  0
  -21.0808   -8.8884   19.9012 H   0  0  0  0  0  0
  -22.3853  -10.9699   19.6111 H   0  0  0  0  0  0
  -21.2026   -7.6035   23.9610 H   0  0  0  0  0  0
  -21.1402   -6.0433   25.9019 H   0  0  0  0  0  0
  -22.0666   -2.7518   23.2877 H   0  0  0  0  0  0
  -22.4216  -11.9907   22.4782 H   0  0  0  0  0  0
  -21.1216  -13.1388   22.2441 H   0  0  0  0  0  0
  -24.6338  -15.8087   20.4901 H   0  0  0  0  0  0
  -26.2946  -15.6499   20.1388 H   0  0  0  0  0  0
  -26.7120  -32.5538   23.1158 H   0  0  0  0  0  0
  -25.0092  -33.9825   25.0497 H   0  0  0  0  0  0
  -22.6888  -31.3158   21.4242 H   0  0  0  0  0  0
  -23.3777  -35.9631   23.3331 H   0  0  0  0  0  0
  -24.3590  -36.8920   22.2055 H   0  0  0  0  0  0
  -23.7187  -37.6519   23.6630 H   0  0  0  0  0  0
  -26.0565  -31.6012   20.6068 H   0  0  0  0  0  0
  -26.8213  -30.8696   21.9898 H   0  0  0  0  0  0
  -28.1035  -29.0929   21.1171 H   0  0  0  0  0  0
  -25.9837  -25.9602   19.0158 H   0  0  0  0  0  0
  -23.9450  -27.3139   19.0430 H   0  0  0  0  0  0
  -23.7155  -30.6218   19.4160 H   0  0  0  0  0  0
  -22.7280  -29.2650   19.8666 H   0  0  0  0  0  0
  -25.1300  -36.2049   25.0831 H   0  0  0  0  0  0
  -20.9948  -28.3260   24.1422 H   0  0  0  0  0  0
  -20.5730  -26.2283   23.3580 H   0  0  0  0  0  0
  -21.6646  -26.7496   22.1160 H   0  0  0  0  0  0
  -19.6927  -25.6303   21.1250 H   0  0  0  0  0  0
  -19.6709  -27.3195   20.6727 H   0  0  0  0  0  0
  -17.4202  -26.6667   21.4041 H   0  0  0  0  0  0
  -18.0352  -26.0072   22.9023 H   0  0  0  0  0  0
  -19.7928  -30.7274   24.2284 H   0  0  0  0  0  0
  -17.5011  -31.6288   24.5155 H   0  0  0  0  0  0
  -15.5348  -30.2999   23.7677 H   0  0  0  0  0  0
  -15.8656  -28.0847   22.7053 H   0  0  0  0  0  0
  -24.5865  -30.7103   25.7727 H   0  0  0  0  0  0
  -24.8915  -32.2854   26.4973 H   0  0  0  0  0  0
  -25.8036  -30.8782   27.0176 H   0  0  0  0  0  0
  -26.2870  -29.6826   24.1194 H   0  0  0  0  0  0
  -27.4030  -29.7329   25.4656 H   0  0  0  0  0  0
  -27.8724  -30.4399   23.9356 H   0  0  0  0  0  0
  -27.2688  -33.3627   26.2123 H   0  0  0  0  0  0
  -28.3818  -32.6927   25.0288 H   0  0  0  0  0  0
  -28.0748  -31.8425   26.5369 H   0  0  0  0  0  0
  -28.2641  -38.0107   24.7536 H   0  0  0  0  0  0
  -28.1078  -36.2650   24.6311 H   0  0  0  0  0  0
  -27.2315  -37.1475   25.8875 H   0  0  0  0  0  0
  -20.9281  -29.8747   21.6908 H   0  0  0  0  0  0
  -26.0246  -38.2917   24.1383 H   0  0  0  0  0  0
  -28.5456  -24.5155   23.6616 H   0  0  0  0  0  0
  -29.5032  -23.6854   22.3397 H   0  0  0  0  0  0
  -27.0199  -25.5853   22.0456 H   0  0  0  0  0  0
  -26.4545  -23.5226   22.8858 H   0  0  0  0  0  0
  -27.0041  -20.7275   23.1711 H   0  0  0  0  0  0
  -26.0892  -20.1828   21.7583 H   0  0  0  0  0  0
  -25.4917  -21.4987   22.7364 H   0  0  0  0  0  0
  -31.1698  -16.8646   18.6930 H   0  0  0  0  0  0
  -29.4827  -16.6442   18.1962 H   0  0  0  0  0  0
  -30.6495  -15.3790   17.9022 H   0  0  0  0  0  0
  -27.6558  -24.7491   19.4989 H   0  0  0  0  0  0
  -29.2452  -24.7752   20.1906 H   0  0  0  0  0  0
  -29.6035  -18.3799   19.6080 H   0  0  0  0  0  0
  -30.6889  -18.2145   20.9692 H   0  0  0  0  0  0
  -29.4980  -16.2400   21.8522 H   0  0  0  0  0  0
  -28.2384  -16.3843   20.6544 H   0  0  0  0  0  0
  -28.6281  -18.6223   22.4501 H   0  0  0  0  0  0
  -27.7168  -18.9399   21.0078 H   0  0  0  0  0  0
  -29.1673  -22.1895   20.5713 H   0  0  0  0  0  0
  -28.1815  -20.9898   19.8317 H   0  0  0  0  0  0
  -26.4855  -22.2819   20.6178 H   0  0  0  0  0  0
  1 25  1  0  0  0
  1 30  2  0  0  0
  1 82  1  0  0  0
  2  3  1  0  0  0
  2 25  1  0  0  0
  2 84  1  0  0  0
  2 85  1  0  0  0
  3  4  1  0  0  0
  3 86  1  0  0  0
  3 87  1  0  0  0
  4  5  1  0  0  0
  4 88  1  0  0  0
  4 89  1  0  0  0
  5  6  1  0  0  0
  5 26  1  0  0  0
  5 90  1  0  0  0
  6 25  1  0  0  0
  6 91  1  0  0  0
  6 92  1  0  0  0
  7  8  2  0  0  0
  7 26  1  0  0  0
  7 29  1  0  0  0
  8  9  1  0  0  0
  8 22  1  0  0  0
  9 10  1  0  0  0
  9 27  2  0  0  0
 10 11  2  0  0  0
 10 15  1  0  0  0
 11 12  1  0  0  0
 11 93  1  0  0  0
 12 13  2  0  0  0
 12 94  1  0  0  0
 13 14  1  0  0  0
 13 31  1  0  0  0
 14 15  2  0  0  0
 14 95  1  0  0  0
 15 96  1  0  0  0
 16 17  2  0  0  0
 16 21  1  0  0  0
 16 31  1  0  0  0
 17 18  1  0  0  0
 17 97  1  0  0  0
 18 19  2  0  0  0
 18 98  1  0  0  0
 19 20  1  0  0  0
 19 24  1  0  0  0
 20 21  2  0  0  0
 20 99  1  0  0  0
 21 23  1  0  0  0
 22 28  1  0  0  0
 22 32  2  0  0  0
 26 27  1  0  0  0
 28100  1  0  0  0
 28101  1  0  0  0
 29102  1  0  0  0
 29103  1  0  0  0
 33 34  1  0  0  0
 33 66  1  0  0  0
 33 70  2  0  0  0
 34 36  1  0  0  0
 34 59  1  0  0  0
 34104  1  0  0  0
 35 44  2  0  0  0
 35 45  1  0  0  0
 35 68  1  0  0  0
 36 56  1  0  0  0
 36105  1  0  0  0
 37 39  1  0  0  0
 37 47  1  0  0  0
 37 66  1  0  0  0
 37106  1  0  0  0
 38 43  2  0  0  0
 38 46  1  0  0  0
 38 47  1  0  0  0
 39 64  1  0  0  0
 39 67  2  0  0  0
 40 52  1  0  0  0
 40 53  2  0  0  0
 40 58  1  0  0  0
 41107  1  0  0  0
 41108  1  0  0  0
 41109  1  0  0  0
 41 48  1  0  0  0
 42 43  1  0  0  0
 42 66  1  0  0  0
 42110  1  0  0  0
 42111  1  0  0  0
 43 44  1  0  0  0
 44112  1  0  0  0
 45 46  2  0  0  0
 45113  1  0  0  0
 46114  1  0  0  0
 47115  1  0  0  0
 47116  1  0  0  0
 48 56  1  0  0  0
 48 65  1  0  0  0
 48117  1  0  0  0
 49 50  1  0  0  0
 49 53  1  0  0  0
 49 64  1  0  0  0
 49118  1  0  0  0
 50 51  1  0  0  0
 50119  1  0  0  0
 50120  1  0  0  0
 51 52  1  0  0  0
 51121  1  0  0  0
 51122  1  0  0  0
 52123  1  0  0  0
 52124  1  0  0  0
 53 54  1  0  0  0
 54 55  2  0  0  0
 54125  1  0  0  0
 55 57  1  0  0  0
 55126  1  0  0  0
 56 69  2  0  0  0
 57 58  2  0  0  0
 57127  1  0  0  0
 58128  1  0  0  0
 59 60  1  0  0  0
 59 61  1  0  0  0
 59 62  1  0  0  0
 60129  1  0  0  0
 60130  1  0  0  0
 60131  1  0  0  0
 61132  1  0  0  0
 61133  1  0  0  0
 61134  1  0  0  0
 62135  1  0  0  0
 62136  1  0  0  0
 62137  1  0  0  0
 63 65  1  0  0  0
 63138  1  0  0  0
 63139  1  0  0  0
 63140  1  0  0  0
 64141  1  0  0  0
 65142  1  0  0  0
 68 76  1  0  0  0
 71 72  1  0  0  0
 71143  1  0  0  0
 71144  1  0  0  0
 71 73  1  0  0  0
 72 73  1  0  0  0
 72 76  1  0  0  0
 72145  1  0  0  0
 73 81  1  0  0  0
 73146  1  0  0  0
 74147  1  0  0  0
 74148  1  0  0  0
 74149  1  0  0  0
 74 81  1  0  0  0
 75 82  1  0  0  0
 75150  1  0  0  0
 75151  1  0  0  0
 75152  1  0  0  0
 76153  1  0  0  0
 76154  1  0  0  0
 77 78  1  0  0  0
 77 79  1  0  0  0
 77155  1  0  0  0
 77156  1  0  0  0
 78 82  1  0  0  0
 78157  1  0  0  0
 78158  1  0  0  0
 79 83  1  0  0  0
 79159  1  0  0  0
 79160  1  0  0  0
 80 81  1  0  0  0
 80 83  1  0  0  0
 80161  1  0  0  0
 80162  1  0  0  0
 81163  1  0  0  0
M  ISO  4   1 100  68 101  76 101  82 100
M  END
> <chiral flag>
0

> <version>
0

> <s_m_source_file>
/data/baiqing/PycharmProjects/Reinvent-master-3.2/result/LINK_invent/BTK/process_docking_weight1_custom_sum_contain_oxygen_bond_distance_aromatic_linkinvent_7_9_3/rearranged_h_0145.sdf

> <i_m_source_file_index>
21

> <r_mmod_Potential_Energy-OPLS-2005>
307.186859130859

> <r_mmod_Stretch_Energy-OPLS-2005>
48.4579010009766

> <r_mmod_Bend_Energy-OPLS-2005>
145.899261474609

> <r_mmod_Torsional_Energy-OPLS-2005>
387.190704345703

> <r_mmod_Improper_Torsional_Energy-OPLS-2005>
24.4111289978027

> <r_mmod_Van_der_Waal_Energy-OPLS-2005>
131.163314819336

> <r_mmod_Electrostatic_Energy-OPLS-2005>
-276.614959716797

> <r_mmod_Solvation_Energy-OPLS-2005>
-192.606948852539

> <b_mmod_Minimization_Converged-OPLS-2005>
0

> <r_mmod_RMS_Derivative-OPLS-2005>
7.98654413223267

$$$$
22
                    3D
 Structure written by MMmdl.
159167  0  0  1  0            999 V2000
  -30.6912  -14.4610   20.5680 C   0  0  0  0  0  0
  -30.4258  -12.2982   19.4204 C   0  0  0  0  0  0
  -29.4957  -12.5055   18.2066 C   0  0  0  0  0  0
  -28.0163  -12.3667   18.6180 C   0  0  0  0  0  0
  -27.6640  -13.2022   19.8779 C   0  0  2  0  0  0
  -28.7055  -12.9713   20.9978 C   0  0  0  0  0  0
  -25.2600  -13.8147   20.5654 C   0  0  0  0  0  0
  -24.1850  -13.0437   20.9174 C   0  0  0  0  0  0
  -24.6395  -11.6900   20.8741 C   0  0  0  0  0  0
  -23.9058  -10.4293   21.0416 C   0  0  0  0  0  0
  -24.3610   -9.4209   21.9192 C   0  0  0  0  0  0
  -23.6286   -8.2244   22.0758 C   0  0  0  0  0  0
  -22.4268   -8.0279   21.3546 C   0  0  0  0  0  0
  -21.9903   -9.0256   20.4652 C   0  0  0  0  0  0
  -22.7232  -10.2136   20.3063 C   0  0  0  0  0  0
  -21.6850   -6.0737   22.5282 C   0  0  0  0  0  0
  -21.4015   -6.5644   23.8216 C   0  0  0  0  0  0
  -21.3657   -5.6795   24.9178 C   0  0  0  0  0  0
  -21.6041   -4.3057   24.7226 C   0  0  0  0  0  0
  -21.8818   -3.8149   23.4348 C   0  0  0  0  0  0
  -21.9193   -4.6966   22.3405 C   0  0  0  0  0  0
  -22.7876  -13.5249   21.1835 C   0  0  0  0  0  0
  -22.1656   -4.2150   21.0981 F   0  0  0  0  0  0
  -21.5625   -3.4540   25.7739 F   0  0  0  0  0  0
  -30.0388  -13.2745   20.4488 N   0  0  0  0  0  0
  -26.3035  -12.9308   20.3367 N   0  0  0  0  0  0
  -25.9321  -11.6474   20.5773 N   0  0  0  0  0  0
  -22.0509  -12.8249   22.0389 N   0  0  0  0  0  0
  -25.4323  -15.1859   20.4004 N   0  0  0  0  0  0
  -31.8112  -14.6697   20.0931 O   0  0  0  0  0  0
  -21.6636   -6.8874   21.4241 O   0  0  0  0  0  0
  -22.3571  -14.5561   20.6688 O   0  0  0  0  0  0
  -24.6137  -31.8676   23.2098 C   0  0  0  0  0  0
  -25.9033  -32.4818   23.8393 C   0  0  1  0  0  0
  -27.2420  -27.4364   20.0861 C   0  0  0  0  0  0
  -25.5893  -33.8618   24.2322 N   0  0  0  0  0  0
  -23.4012  -30.4906   21.5503 C   0  0  2  0  0  0
  -24.8465  -28.9512   20.1169 C   0  0  0  0  0  0
  -22.7400  -29.4665   22.5001 C   0  0  0  0  0  0
  -18.0271  -28.1379   22.8499 C   0  0  0  0  0  0
  -24.1487  -36.7317   23.2639 C   0  0  0  0  0  0
  -25.9291  -30.8299   21.3639 C   0  0  0  0  0  0
  -26.0040  -29.4629   20.7141 C   0  0  0  0  0  0
  -27.1982  -28.7092   20.7014 C   0  0  0  0  0  0
  -26.0598  -26.9300   19.4970 C   0  0  0  0  0  0
  -24.8682  -27.6824   19.5110 C   0  0  0  0  0  0
  -23.6093  -29.8196   20.1654 C   0  0  0  0  0  0
  -25.4108  -36.3111   24.0336 C   0  0  1  0  0  0
  -20.5859  -28.3668   23.1326 C   0  0  2  0  0  0
  -20.6767  -26.9409   22.5417 C   0  0  0  0  0  0
  -19.5740  -26.6390   21.5218 C   0  0  0  0  0  0
  -18.1924  -26.7919   22.1643 C   0  0  0  0  0  0
  -19.1520  -28.8841   23.2908 C   0  0  0  0  0  0
  -18.9444  -30.1448   23.8915 C   0  0  0  0  0  0
  -17.6447  -30.6588   24.0568 C   0  0  0  0  0  0
  -25.9032  -34.9473   23.5128 C   0  0  0  0  0  0
  -16.5339  -29.9090   23.6325 C   0  0  0  0  0  0
  -16.7260  -28.6506   23.0350 C   0  0  0  0  0  0
  -26.4465  -31.6601   25.0722 C   0  0  0  0  0  0
  -25.3733  -31.3704   26.1472 C   0  0  0  0  0  0
  -27.0296  -30.3046   24.6094 C   0  0  0  0  0  0
  -27.6044  -32.4319   25.7481 C   0  0  0  0  0  0
  -27.5580  -37.1813   24.8466 C   0  0  0  0  0  0
  -21.4129  -29.3042   22.3739 N   0  0  0  0  0  0
  -26.4296  -37.3793   23.9405 N   0  0  0  0  0  0
  -24.6662  -31.0778   22.0997 N   0  0  0  0  0  0
  -23.4172  -28.8211   23.3047 O   0  0  0  0  0  0
  -28.4435  -26.7550   20.0967 O   0  0  0  0  0  0
  -26.5603  -34.8927   22.4693 O   0  0  0  0  0  0
  -23.5332  -32.1433   23.7493 O   0  0  0  0  0  0
  -28.0786  -21.4951   20.9707 C   0  0  0  0  0  0
  -29.9478  -19.7876   19.9190 C   0  0  0  0  0  0
  -28.0040  -20.1251   21.3190 C   0  0  0  0  0  0
  -28.9742  -19.2374   20.7810 C   0  0  0  0  0  0
  -29.0785  -21.9367   20.0833 C   0  0  0  0  0  0
  -25.6748  -20.5387   22.3866 C   0  0  0  0  0  0
  -26.8931  -19.6138   22.2387 C   0  0  0  0  0  0
  -28.9169  -17.7238   21.0682 C   0  0  0  0  0  0
  -30.2173  -16.8970   20.8950 C   0  0  0  0  0  0
  -28.6244  -25.5631   19.3209 C   0  0  0  0  0  0
  -28.3324  -24.2524   20.0900 C   0  0  0  0  0  0
  -29.9979  -21.0933   19.5765 N   0  0  0  0  0  0
  -29.9523  -15.4625   21.0726 N   0  0  0  0  0  0
  -29.2209  -23.2310   19.6231 O   0  0  0  0  0  0
  -31.4706  -12.3991   19.1207 H   0  0  0  0  0  0
  -30.3256  -11.2842   19.8115 H   0  0  0  0  0  0
  -29.7346  -11.7863   17.4219 H   0  0  0  0  0  0
  -29.6658  -13.4934   17.7754 H   0  0  0  0  0  0
  -27.8244  -11.3103   18.8096 H   0  0  0  0  0  0
  -27.3663  -12.6467   17.7881 H   0  0  0  0  0  0
  -27.7123  -14.2513   19.5852 H   0  0  0  0  0  0
  -28.6777  -11.9333   21.3313 H   0  0  0  0  0  0
  -28.4702  -13.5654   21.8824 H   0  0  0  0  0  0
  -25.2756   -9.5686   22.4767 H   0  0  0  0  0  0
  -23.9994   -7.4639   22.7483 H   0  0  0  0  0  0
  -21.0831   -8.8780   19.8962 H   0  0  0  0  0  0
  -22.3690  -10.9676   19.6173 H   0  0  0  0  0  0
  -21.2008   -7.6153   23.9715 H   0  0  0  0  0  0
  -21.1476   -6.0529   25.9080 H   0  0  0  0  0  0
  -22.0599   -2.7612   23.2850 H   0  0  0  0  0  0
  -22.4109  -11.9901   22.4771 H   0  0  0  0  0  0
  -21.1136  -13.1295   22.2606 H   0  0  0  0  0  0
  -24.6581  -15.8352   20.4847 H   0  0  0  0  0  0
  -26.2697  -15.6135   20.0275 H   0  0  0  0  0  0
  -26.7101  -32.5528   23.1153 H   0  0  0  0  0  0
  -25.0043  -33.9788   25.0465 H   0  0  0  0  0  0
  -22.6898  -31.3071   21.4105 H   0  0  0  0  0  0
  -23.3745  -35.9656   23.3314 H   0  0  0  0  0  0
  -24.3579  -36.8919   22.2052 H   0  0  0  0  0  0
  -23.7247  -37.6527   23.6646 H   0  0  0  0  0  0
  -26.0416  -31.5942   20.5937 H   0  0  0  0  0  0
  -26.8170  -30.8843   21.9816 H   0  0  0  0  0  0
  -28.0935  -29.1051   21.1602 H   0  0  0  0  0  0
  -26.0339  -25.9579   19.0277 H   0  0  0  0  0  0
  -23.9748  -27.2793   19.0541 H   0  0  0  0  0  0
  -23.7183  -30.5933   19.4049 H   0  0  0  0  0  0
  -22.7329  -29.2401   19.8703 H   0  0  0  0  0  0
  -25.1284  -36.1980   25.0830 H   0  0  0  0  0  0
  -20.9948  -28.3236   24.1447 H   0  0  0  0  0  0
  -20.5686  -26.2275   23.3601 H   0  0  0  0  0  0
  -21.6635  -26.7469   22.1192 H   0  0  0  0  0  0
  -19.6902  -25.6304   21.1239 H   0  0  0  0  0  0
  -19.6667  -27.3216   20.6758 H   0  0  0  0  0  0
  -17.4185  -26.6655   21.4054 H   0  0  0  0  0  0
  -18.0340  -26.0062   22.9047 H   0  0  0  0  0  0
  -19.7920  -30.7262   24.2289 H   0  0  0  0  0  0
  -17.4999  -31.6266   24.5168 H   0  0  0  0  0  0
  -15.5339  -30.2997   23.7634 H   0  0  0  0  0  0
  -15.8659  -28.0833   22.7052 H   0  0  0  0  0  0
  -24.5901  -30.7056   25.7807 H   0  0  0  0  0  0
  -24.8929  -32.2860   26.4936 H   0  0  0  0  0  0
  -25.8089  -30.8860   27.0220 H   0  0  0  0  0  0
  -26.2840  -29.6813   24.1144 H   0  0  0  0  0  0
  -27.4068  -29.7277   25.4548 H   0  0  0  0  0  0
  -27.8673  -30.4373   23.9241 H   0  0  0  0  0  0
  -27.2665  -33.3607   26.2094 H   0  0  0  0  0  0
  -28.3835  -32.6902   25.0294 H   0  0  0  0  0  0
  -28.0735  -31.8422   26.5368 H   0  0  0  0  0  0
  -28.2607  -38.0101   24.7502 H   0  0  0  0  0  0
  -28.1067  -36.2634   24.6303 H   0  0  0  0  0  0
  -27.2298  -37.1475   25.8869 H   0  0  0  0  0  0
  -20.9291  -29.8767   21.6960 H   0  0  0  0  0  0
  -26.0188  -38.2874   24.1398 H   0  0  0  0  0  0
  -27.3626  -22.1986   21.3647 H   0  0  0  0  0  0
  -30.7051  -19.1726   19.4587 H   0  0  0  0  0  0
  -25.9327  -21.4709   22.8884 H   0  0  0  0  0  0
  -24.8991  -20.0589   22.9836 H   0  0  0  0  0  0
  -25.2409  -20.7786   21.4155 H   0  0  0  0  0  0
  -27.3214  -19.4190   23.2226 H   0  0  0  0  0  0
  -26.5309  -18.6574   21.8617 H   0  0  0  0  0  0
  -28.1431  -17.3112   20.4189 H   0  0  0  0  0  0
  -28.5725  -17.5701   22.0914 H   0  0  0  0  0  0
  -30.9784  -17.2197   21.6069 H   0  0  0  0  0  0
  -30.6282  -17.0415   19.8949 H   0  0  0  0  0  0
  -28.1096  -25.5946   18.3601 H   0  0  0  0  0  0
  -29.6837  -25.5672   19.0629 H   0  0  0  0  0  0
  -28.5067  -24.4009   21.1564 H   0  0  0  0  0  0
  -27.2871  -23.9713   19.9559 H   0  0  0  0  0  0
  -29.0518  -15.2031   21.4476 H   0  0  0  0  0  0
  1 25  1  0  0  0
  1 30  2  0  0  0
  1 83  1  0  0  0
  2  3  1  0  0  0
  2 25  1  0  0  0
  2 85  1  0  0  0
  2 86  1  0  0  0
  3  4  1  0  0  0
  3 87  1  0  0  0
  3 88  1  0  0  0
  4  5  1  0  0  0
  4 89  1  0  0  0
  4 90  1  0  0  0
  5  6  1  0  0  0
  5 26  1  0  0  0
  5 91  1  0  0  0
  6 25  1  0  0  0
  6 92  1  0  0  0
  6 93  1  0  0  0
  7  8  2  0  0  0
  7 26  1  0  0  0
  7 29  1  0  0  0
  8  9  1  0  0  0
  8 22  1  0  0  0
  9 10  1  0  0  0
  9 27  2  0  0  0
 10 11  2  0  0  0
 10 15  1  0  0  0
 11 12  1  0  0  0
 11 94  1  0  0  0
 12 13  2  0  0  0
 12 95  1  0  0  0
 13 14  1  0  0  0
 13 31  1  0  0  0
 14 15  2  0  0  0
 14 96  1  0  0  0
 15 97  1  0  0  0
 16 17  2  0  0  0
 16 21  1  0  0  0
 16 31  1  0  0  0
 17 18  1  0  0  0
 17 98  1  0  0  0
 18 19  2  0  0  0
 18 99  1  0  0  0
 19 20  1  0  0  0
 19 24  1  0  0  0
 20 21  2  0  0  0
 20100  1  0  0  0
 21 23  1  0  0  0
 22 28  1  0  0  0
 22 32  2  0  0  0
 26 27  1  0  0  0
 28101  1  0  0  0
 28102  1  0  0  0
 29103  1  0  0  0
 29104  1  0  0  0
 33 34  1  0  0  0
 33 66  1  0  0  0
 33 70  2  0  0  0
 34 36  1  0  0  0
 34 59  1  0  0  0
 34105  1  0  0  0
 35 44  2  0  0  0
 35 45  1  0  0  0
 35 68  1  0  0  0
 36 56  1  0  0  0
 36106  1  0  0  0
 37 39  1  0  0  0
 37 47  1  0  0  0
 37 66  1  0  0  0
 37107  1  0  0  0
 38 43  2  0  0  0
 38 46  1  0  0  0
 38 47  1  0  0  0
 39 64  1  0  0  0
 39 67  2  0  0  0
 40 52  1  0  0  0
 40 53  2  0  0  0
 40 58  1  0  0  0
 41108  1  0  0  0
 41109  1  0  0  0
 41110  1  0  0  0
 41 48  1  0  0  0
 42 43  1  0  0  0
 42 66  1  0  0  0
 42111  1  0  0  0
 42112  1  0  0  0
 43 44  1  0  0  0
 44113  1  0  0  0
 45 46  2  0  0  0
 45114  1  0  0  0
 46115  1  0  0  0
 47116  1  0  0  0
 47117  1  0  0  0
 48 56  1  0  0  0
 48 65  1  0  0  0
 48118  1  0  0  0
 49 50  1  0  0  0
 49 53  1  0  0  0
 49 64  1  0  0  0
 49119  1  0  0  0
 50 51  1  0  0  0
 50120  1  0  0  0
 50121  1  0  0  0
 51 52  1  0  0  0
 51122  1  0  0  0
 51123  1  0  0  0
 52124  1  0  0  0
 52125  1  0  0  0
 53 54  1  0  0  0
 54 55  2  0  0  0
 54126  1  0  0  0
 55 57  1  0  0  0
 55127  1  0  0  0
 56 69  2  0  0  0
 57 58  2  0  0  0
 57128  1  0  0  0
 58129  1  0  0  0
 59 60  1  0  0  0
 59 61  1  0  0  0
 59 62  1  0  0  0
 60130  1  0  0  0
 60131  1  0  0  0
 60132  1  0  0  0
 61133  1  0  0  0
 61134  1  0  0  0
 61135  1  0  0  0
 62136  1  0  0  0
 62137  1  0  0  0
 62138  1  0  0  0
 63 65  1  0  0  0
 63139  1  0  0  0
 63140  1  0  0  0
 63141  1  0  0  0
 64142  1  0  0  0
 65143  1  0  0  0
 68 80  1  0  0  0
 71 73  2  0  0  0
 71 75  1  0  0  0
 71144  1  0  0  0
 72 74  2  0  0  0
 72 82  1  0  0  0
 72145  1  0  0  0
 73 74  1  0  0  0
 73 77  1  0  0  0
 74 78  1  0  0  0
 75 82  2  0  0  0
 75 84  1  0  0  0
 76 77  1  0  0  0
 76146  1  0  0  0
 76147  1  0  0  0
 76148  1  0  0  0
 77149  1  0  0  0
 77150  1  0  0  0
 78 79  1  0  0  0
 78151  1  0  0  0
 78152  1  0  0  0
 79 83  1  0  0  0
 79153  1  0  0  0
 79154  1  0  0  0
 80 81  1  0  0  0
 80155  1  0  0  0
 80156  1  0  0  0
 81 84  1  0  0  0
 81157  1  0  0  0
 81158  1  0  0  0
 83159  1  0  0  0
M  ISO  4   1 100  68 101  80 101  83 100
M  END
> <chiral flag>
0

> <version>
0

> <s_m_source_file>
/data/baiqing/PycharmProjects/Reinvent-master-3.2/result/LINK_invent/BTK/process_docking_weight1_custom_sum_contain_oxygen_bond_distance_aromatic_linkinvent_7_9_3/rearranged_h_0145.sdf

> <i_m_source_file_index>
22

> <r_mmod_Potential_Energy-OPLS-2005>
-301.521911621094

> <r_mmod_Stretch_Energy-OPLS-2005>
37.2984848022461

> <r_mmod_Bend_Energy-OPLS-2005>
111.624549865723

> <r_mmod_Torsional_Energy-OPLS-2005>
190.359893798828

> <r_mmod_Improper_Torsional_Energy-OPLS-2005>
5.0037317276001

> <r_mmod_Van_der_Waal_Energy-OPLS-2005>
163.971984863281

> <r_mmod_Electrostatic_Energy-OPLS-2005>
-591.411682128906

> <r_mmod_Solvation_Energy-OPLS-2005>
-230.141799926758

> <b_mmod_Minimization_Converged-OPLS-2005>
0

> <r_mmod_RMS_Derivative-OPLS-2005>
0.863752722740173

$$$$
23
                    3D
 Structure written by MMmdl.
173182  0  0  1  0            999 V2000
  -30.7188  -14.4559   20.6139 C   0  0  0  0  0  0
  -30.4210  -12.3140   19.4175 C   0  0  0  0  0  0
  -29.4916  -12.5100   18.2032 C   0  0  0  0  0  0
  -28.0140  -12.3673   18.6181 C   0  0  0  0  0  0
  -27.6611  -13.2072   19.8749 C   0  0  2  0  0  0
  -28.7010  -12.9854   20.9950 C   0  0  0  0  0  0
  -25.2590  -13.8165   20.5680 C   0  0  0  0  0  0
  -24.1838  -13.0445   20.9174 C   0  0  0  0  0  0
  -24.6385  -11.6909   20.8732 C   0  0  0  0  0  0
  -23.9053  -10.4295   21.0405 C   0  0  0  0  0  0
  -24.3608   -9.4212   21.9185 C   0  0  0  0  0  0
  -23.6288   -8.2248   22.0753 C   0  0  0  0  0  0
  -22.4273   -8.0281   21.3543 C   0  0  0  0  0  0
  -21.9905   -9.0251   20.4644 C   0  0  0  0  0  0
  -22.7228  -10.2134   20.3053 C   0  0  0  0  0  0
  -21.6852   -6.0735   22.5279 C   0  0  0  0  0  0
  -21.4009   -6.5638   23.8211 C   0  0  0  0  0  0
  -21.3658   -5.6793   24.9174 C   0  0  0  0  0  0
  -21.6046   -4.3055   24.7227 C   0  0  0  0  0  0
  -21.8820   -3.8147   23.4346 C   0  0  0  0  0  0
  -21.9192   -4.6964   22.3402 C   0  0  0  0  0  0
  -22.7863  -13.5250   21.1844 C   0  0  0  0  0  0
  -22.1662   -4.2148   21.0981 F   0  0  0  0  0  0
  -21.5632   -3.4540   25.7739 F   0  0  0  0  0  0
  -30.0320  -13.2931   20.4447 N   0  0  0  0  0  0
  -26.3020  -12.9331   20.3363 N   0  0  0  0  0  0
  -25.9314  -11.6489   20.5762 N   0  0  0  0  0  0
  -22.0500  -12.8237   22.0396 N   0  0  0  0  0  0
  -25.4330  -15.1879   20.4088 N   0  0  0  0  0  0
  -31.8193  -14.6593   20.0927 O   0  0  0  0  0  0
  -21.6637   -6.8878   21.4240 O   0  0  0  0  0  0
  -22.3549  -14.5563   20.6704 O   0  0  0  0  0  0
  -24.6146  -31.8663   23.2096 C   0  0  0  0  0  0
  -25.9037  -32.4815   23.8390 C   0  0  1  0  0  0
  -27.2356  -27.4373   20.0991 C   0  0  0  0  0  0
  -25.5890  -33.8616   24.2323 N   0  0  0  0  0  0
  -23.4030  -30.4884   21.5495 C   0  0  2  0  0  0
  -24.8513  -28.9502   20.1173 C   0  0  0  0  0  0
  -22.7411  -29.4642   22.4991 C   0  0  0  0  0  0
  -18.0265  -28.1368   22.8483 C   0  0  0  0  0  0
  -24.1481  -36.7309   23.2642 C   0  0  0  0  0  0
  -25.9310  -30.8336   21.3615 C   0  0  0  0  0  0
  -26.0102  -29.4662   20.7118 C   0  0  0  0  0  0
  -27.2090  -28.7173   20.6980 C   0  0  0  0  0  0
  -26.0633  -26.9285   19.5065 C   0  0  0  0  0  0
  -24.8717  -27.6801   19.5120 C   0  0  0  0  0  0
  -23.6125  -29.8170   20.1651 C   0  0  0  0  0  0
  -25.4099  -36.3109   24.0343 C   0  0  1  0  0  0
  -20.5854  -28.3649   23.1317 C   0  0  2  0  0  0
  -20.6758  -26.9382   22.5422 C   0  0  0  0  0  0
  -19.5749  -26.6370   21.5213 C   0  0  0  0  0  0
  -18.1917  -26.7912   22.1608 C   0  0  0  0  0  0
  -19.1514  -28.8824   23.2900 C   0  0  0  0  0  0
  -18.9451  -30.1432   23.8911 C   0  0  0  0  0  0
  -17.6454  -30.6573   24.0566 C   0  0  0  0  0  0
  -25.9025  -34.9475   23.5128 C   0  0  0  0  0  0
  -16.5344  -29.9077   23.6333 C   0  0  0  0  0  0
  -16.7253  -28.6497   23.0343 C   0  0  0  0  0  0
  -26.4474  -31.6597   25.0718 C   0  0  0  0  0  0
  -25.3747  -31.3693   26.1466 C   0  0  0  0  0  0
  -27.0303  -30.3042   24.6075 C   0  0  0  0  0  0
  -27.6049  -32.4319   25.7482 C   0  0  0  0  0  0
  -27.5577  -37.1804   24.8466 C   0  0  0  0  0  0
  -21.4135  -29.3021   22.3734 N   0  0  0  0  0  0
  -26.4287  -37.3793   23.9415 N   0  0  0  0  0  0
  -24.6678  -31.0770   22.0988 N   0  0  0  0  0  0
  -23.4187  -28.8188   23.3028 O   0  0  0  0  0  0
  -28.3918  -26.6937   20.0668 O   0  0  0  0  0  0
  -26.5594  -34.8930   22.4695 O   0  0  0  0  0  0
  -23.5340  -32.1400   23.7499 O   0  0  0  0  0  0
  -29.2324  -20.8348   21.0453 C   0  0  0  0  0  0
  -28.6298  -22.0532   21.4873 C   0  0  0  0  0  0
  -27.5307  -21.7212   22.2490 C   0  0  0  0  0  0
  -28.5305  -19.8020   21.6061 C   0  0  0  0  0  0
  -25.0697  -22.5211   22.8270 C   0  0  0  0  0  0
  -25.8017  -23.7343   22.3316 C   0  0  0  0  0  0
  -26.5740  -22.6130   22.9991 C   0  0  0  0  0  0
  -27.2104  -18.9427   24.4090 C   0  0  0  0  0  0
  -25.7094  -18.5400   22.3695 C   0  0  0  0  0  0
  -30.5760  -16.8647   23.2723 C   0  0  0  0  0  0
  -30.0776  -17.9098   20.9505 C   0  0  0  0  0  0
  -28.4407  -25.6142   21.0122 C   0  0  0  0  0  0
  -28.5571  -24.2048   20.3729 C   0  0  0  0  0  0
  -26.5248  -19.5597   23.1821 C   0  0  0  0  0  0
  -30.6597  -16.7055   21.7458 C   0  0  2  0  0  0
  -27.4771  -20.3224   22.3561 N   0  0  0  0  0  0
  -28.8246  -18.4273   21.5035 N   0  0  0  0  0  0
  -30.0983  -15.4073   21.3380 N   0  0  0  0  0  0
  -29.1667  -23.3123   21.3125 O   0  0  0  0  0  0
  -31.4647  -12.4160   19.1145 H   0  0  0  0  0  0
  -30.3264  -11.3014   19.8133 H   0  0  0  0  0  0
  -29.7315  -11.7842   17.4250 H   0  0  0  0  0  0
  -29.6582  -13.4955   17.7654 H   0  0  0  0  0  0
  -27.8274  -11.3111   18.8165 H   0  0  0  0  0  0
  -27.3613  -12.6402   17.7880 H   0  0  0  0  0  0
  -27.7075  -14.2561   19.5804 H   0  0  0  0  0  0
  -28.6786  -11.9482   21.3329 H   0  0  0  0  0  0
  -28.4535  -13.5789   21.8759 H   0  0  0  0  0  0
  -25.2756   -9.5691   22.4755 H   0  0  0  0  0  0
  -23.9999   -7.4639   22.7476 H   0  0  0  0  0  0
  -21.0837   -8.8768   19.8950 H   0  0  0  0  0  0
  -22.3689  -10.9670   19.6159 H   0  0  0  0  0  0
  -21.1994   -7.6143   23.9712 H   0  0  0  0  0  0
  -21.1480   -6.0523   25.9078 H   0  0  0  0  0  0
  -22.0600   -2.7608   23.2848 H   0  0  0  0  0  0
  -22.4107  -11.9887   22.4769 H   0  0  0  0  0  0
  -21.1122  -13.1263   22.2602 H   0  0  0  0  0  0
  -24.6714  -15.8477   20.5215 H   0  0  0  0  0  0
  -26.2908  -15.6232   20.0934 H   0  0  0  0  0  0
  -26.7109  -32.5531   23.1157 H   0  0  0  0  0  0
  -25.0078  -33.9781   25.0492 H   0  0  0  0  0  0
  -22.6917  -31.3046   21.4086 H   0  0  0  0  0  0
  -23.3746  -35.9642   23.3309 H   0  0  0  0  0  0
  -24.3579  -36.8916   22.2056 H   0  0  0  0  0  0
  -23.7228  -37.6513   23.6649 H   0  0  0  0  0  0
  -26.0395  -31.5978   20.5906 H   0  0  0  0  0  0
  -26.8209  -30.8902   21.9771 H   0  0  0  0  0  0
  -28.1075  -29.1126   21.1505 H   0  0  0  0  0  0
  -26.0746  -25.9539   19.0394 H   0  0  0  0  0  0
  -23.9808  -27.2762   19.0521 H   0  0  0  0  0  0
  -23.7213  -30.5906   19.4041 H   0  0  0  0  0  0
  -22.7372  -29.2362   19.8693 H   0  0  0  0  0  0
  -25.1279  -36.1975   25.0835 H   0  0  0  0  0  0
  -20.9945  -28.3204   24.1436 H   0  0  0  0  0  0
  -20.5652  -26.2251   23.3604 H   0  0  0  0  0  0
  -21.6632  -26.7412   22.1226 H   0  0  0  0  0  0
  -19.6918  -25.6288   21.1229 H   0  0  0  0  0  0
  -19.6705  -27.3195   20.6757 H   0  0  0  0  0  0
  -17.4199  -26.6668   21.3999 H   0  0  0  0  0  0
  -18.0306  -26.0042   22.8987 H   0  0  0  0  0  0
  -19.7934  -30.7245   24.2277 H   0  0  0  0  0  0
  -17.5014  -31.6255   24.5162 H   0  0  0  0  0  0
  -15.5351  -30.2993   23.7650 H   0  0  0  0  0  0
  -15.8643  -28.0835   22.7047 H   0  0  0  0  0  0
  -24.5951  -30.6996   25.7813 H   0  0  0  0  0  0
  -24.8902  -32.2846   26.4886 H   0  0  0  0  0  0
  -25.8112  -30.8903   27.0239 H   0  0  0  0  0  0
  -26.2834  -29.6806   24.1149 H   0  0  0  0  0  0
  -27.4104  -29.7269   25.4513 H   0  0  0  0  0  0
  -27.8651  -30.4370   23.9190 H   0  0  0  0  0  0
  -27.2662  -33.3616   26.2071 H   0  0  0  0  0  0
  -28.3852  -32.6887   25.0305 H   0  0  0  0  0  0
  -28.0723  -31.8442   26.5393 H   0  0  0  0  0  0
  -28.2596  -38.0100   24.7512 H   0  0  0  0  0  0
  -28.1070  -36.2632   24.6284 H   0  0  0  0  0  0
  -27.2304  -37.1444   25.8873 H   0  0  0  0  0  0
  -20.9292  -29.8749   21.6966 H   0  0  0  0  0  0
  -26.0177  -38.2872   24.1424 H   0  0  0  0  0  0
  -30.1214  -20.7454   20.4376 H   0  0  0  0  0  0
  -24.6836  -21.8311   22.0787 H   0  0  0  0  0  0
  -24.4539  -22.6361   23.7169 H   0  0  0  0  0  0
  -25.6677  -24.6584   22.8908 H   0  0  0  0  0  0
  -25.8259  -23.8458   21.2521 H   0  0  0  0  0  0
  -26.9449  -22.8053   24.0045 H   0  0  0  0  0  0
  -26.4822  -18.4645   25.0644 H   0  0  0  0  0  0
  -27.7243  -19.7072   24.9924 H   0  0  0  0  0  0
  -27.9438  -18.1915   24.1289 H   0  0  0  0  0  0
  -24.9220  -18.1005   22.9824 H   0  0  0  0  0  0
  -26.3183  -17.7188   21.9955 H   0  0  0  0  0  0
  -25.2291  -19.0171   21.5149 H   0  0  0  0  0  0
  -30.9182  -17.8523   23.5832 H   0  0  0  0  0  0
  -31.2005  -16.1276   23.7781 H   0  0  0  0  0  0
  -29.5593  -16.7309   23.6378 H   0  0  0  0  0  0
  -29.9396  -17.6462   19.9008 H   0  0  0  0  0  0
  -30.8266  -18.7022   20.9648 H   0  0  0  0  0  0
  -29.3328  -25.7934   21.6127 H   0  0  0  0  0  0
  -27.6102  -25.6467   21.7174 H   0  0  0  0  0  0
  -29.2211  -24.2580   19.5097 H   0  0  0  0  0  0
  -27.6008  -23.8452   19.9962 H   0  0  0  0  0  0
  -25.7942  -20.2462   23.5968 H   0  0  0  0  0  0
  -31.7260  -16.6951   21.5103 H   0  0  0  0  0  0
  -28.2673  -17.7600   22.0242 H   0  0  0  0  0  0
  -29.1785  -15.1773   21.6805 H   0  0  0  0  0  0
  1 25  1  0  0  0
  1 30  2  0  0  0
  1 88  1  0  0  0
  2  3  1  0  0  0
  2 25  1  0  0  0
  2 90  1  0  0  0
  2 91  1  0  0  0
  3  4  1  0  0  0
  3 92  1  0  0  0
  3 93  1  0  0  0
  4  5  1  0  0  0
  4 94  1  0  0  0
  4 95  1  0  0  0
  5  6  1  0  0  0
  5 26  1  0  0  0
  5 96  1  0  0  0
  6 25  1  0  0  0
  6 97  1  0  0  0
  6 98  1  0  0  0
  7  8  2  0  0  0
  7 26  1  0  0  0
  7 29  1  0  0  0
  8  9  1  0  0  0
  8 22  1  0  0  0
  9 10  1  0  0  0
  9 27  2  0  0  0
 10 11  2  0  0  0
 10 15  1  0  0  0
 11 12  1  0  0  0
 11 99  1  0  0  0
 12 13  2  0  0  0
 12100  1  0  0  0
 13 14  1  0  0  0
 13 31  1  0  0  0
 14 15  2  0  0  0
 14101  1  0  0  0
 15102  1  0  0  0
 16 17  2  0  0  0
 16 21  1  0  0  0
 16 31  1  0  0  0
 17 18  1  0  0  0
 17103  1  0  0  0
 18 19  2  0  0  0
 18104  1  0  0  0
 19 20  1  0  0  0
 19 24  1  0  0  0
 20 21  2  0  0  0
 20105  1  0  0  0
 21 23  1  0  0  0
 22 28  1  0  0  0
 22 32  2  0  0  0
 26 27  1  0  0  0
 28106  1  0  0  0
 28107  1  0  0  0
 29108  1  0  0  0
 29109  1  0  0  0
 33 34  1  0  0  0
 33 66  1  0  0  0
 33 70  2  0  0  0
 34 36  1  0  0  0
 34 59  1  0  0  0
 34110  1  0  0  0
 35 44  2  0  0  0
 35 45  1  0  0  0
 35 68  1  0  0  0
 36 56  1  0  0  0
 36111  1  0  0  0
 37 39  1  0  0  0
 37 47  1  0  0  0
 37 66  1  0  0  0
 37112  1  0  0  0
 38 43  2  0  0  0
 38 46  1  0  0  0
 38 47  1  0  0  0
 39 64  1  0  0  0
 39 67  2  0  0  0
 40 52  1  0  0  0
 40 53  2  0  0  0
 40 58  1  0  0  0
 41113  1  0  0  0
 41114  1  0  0  0
 41115  1  0  0  0
 41 48  1  0  0  0
 42 43  1  0  0  0
 42 66  1  0  0  0
 42116  1  0  0  0
 42117  1  0  0  0
 43 44  1  0  0  0
 44118  1  0  0  0
 45 46  2  0  0  0
 45119  1  0  0  0
 46120  1  0  0  0
 47121  1  0  0  0
 47122  1  0  0  0
 48 56  1  0  0  0
 48 65  1  0  0  0
 48123  1  0  0  0
 49 50  1  0  0  0
 49 53  1  0  0  0
 49 64  1  0  0  0
 49124  1  0  0  0
 50 51  1  0  0  0
 50125  1  0  0  0
 50126  1  0  0  0
 51 52  1  0  0  0
 51127  1  0  0  0
 51128  1  0  0  0
 52129  1  0  0  0
 52130  1  0  0  0
 53 54  1  0  0  0
 54 55  2  0  0  0
 54131  1  0  0  0
 55 57  1  0  0  0
 55132  1  0  0  0
 56 69  2  0  0  0
 57 58  2  0  0  0
 57133  1  0  0  0
 58134  1  0  0  0
 59 60  1  0  0  0
 59 61  1  0  0  0
 59 62  1  0  0  0
 60135  1  0  0  0
 60136  1  0  0  0
 60137  1  0  0  0
 61138  1  0  0  0
 61139  1  0  0  0
 61140  1  0  0  0
 62141  1  0  0  0
 62142  1  0  0  0
 62143  1  0  0  0
 63 65  1  0  0  0
 63144  1  0  0  0
 63145  1  0  0  0
 63146  1  0  0  0
 64147  1  0  0  0
 65148  1  0  0  0
 68 82  1  0  0  0
 71 72  1  0  0  0
 71 74  2  0  0  0
 71149  1  0  0  0
 72 73  2  0  0  0
 72 89  1  0  0  0
 73 86  1  0  0  0
 73 77  1  0  0  0
 74 86  1  0  0  0
 74 87  1  0  0  0
 75 76  1  0  0  0
 75 77  1  0  0  0
 75150  1  0  0  0
 75151  1  0  0  0
 76 77  1  0  0  0
 76152  1  0  0  0
 76153  1  0  0  0
 77154  1  0  0  0
 78155  1  0  0  0
 78156  1  0  0  0
 78157  1  0  0  0
 78 84  1  0  0  0
 79 84  1  0  0  0
 79158  1  0  0  0
 79159  1  0  0  0
 79160  1  0  0  0
 80161  1  0  0  0
 80162  1  0  0  0
 80163  1  0  0  0
 80 85  1  0  0  0
 81 85  1  0  0  0
 81 87  1  0  0  0
 81164  1  0  0  0
 81165  1  0  0  0
 82 83  1  0  0  0
 82166  1  0  0  0
 82167  1  0  0  0
 83 89  1  0  0  0
 83168  1  0  0  0
 83169  1  0  0  0
 84 86  1  0  0  0
 84170  1  0  0  0
 85 88  1  0  0  0
 85171  1  0  0  0
 87172  1  0  0  0
 88173  1  0  0  0
M  ISO  4   1 100  68 101  82 101  88 100
M  END
> <chiral flag>
0

> <version>
0

> <s_m_source_file>
/data/baiqing/PycharmProjects/Reinvent-master-3.2/result/LINK_invent/BTK/process_docking_weight1_custom_sum_contain_oxygen_bond_distance_aromatic_linkinvent_7_9_3/rearranged_h_0145.sdf

> <i_m_source_file_index>
23

> <r_mmod_Potential_Energy-OPLS-2005>
-58.8735427856445

> <r_mmod_Stretch_Energy-OPLS-2005>
38.9495849609375

> <r_mmod_Bend_Energy-OPLS-2005>
117.365180969238

> <r_mmod_Torsional_Energy-OPLS-2005>
315.920257568359

> <r_mmod_Improper_Torsional_Energy-OPLS-2005>
4.08325910568237

> <r_mmod_Van_der_Waal_Energy-OPLS-2005>
118.455741882324

> <r_mmod_Electrostatic_Energy-OPLS-2005>
-458.002807617188

> <r_mmod_Solvation_Energy-OPLS-2005>
-206.138427734375

> <b_mmod_Minimization_Converged-OPLS-2005>
0

> <r_mmod_RMS_Derivative-OPLS-2005>
0.935812532901764

$$$$
24
                    3D
 Structure written by MMmdl.
169179  0  0  1  0            999 V2000
  -30.8202  -14.4188   20.5642 C   0  0  0  0  0  0
  -30.3737  -12.2713   19.4514 C   0  0  0  0  0  0
  -29.4824  -12.5015   18.2198 C   0  0  0  0  0  0
  -28.0046  -12.3817   18.6228 C   0  0  0  0  0  0
  -27.6572  -13.2299   19.8791 C   0  0  2  0  0  0
  -28.7009  -13.0659   21.0138 C   0  0  0  0  0  0
  -25.2531  -13.8226   20.5735 C   0  0  0  0  0  0
  -24.1806  -13.0470   20.9222 C   0  0  0  0  0  0
  -24.6396  -11.6950   20.8775 C   0  0  0  0  0  0
  -23.9071  -10.4321   21.0403 C   0  0  0  0  0  0
  -24.3627   -9.4234   21.9176 C   0  0  0  0  0  0
  -23.6312   -8.2254   22.0739 C   0  0  0  0  0  0
  -22.4286   -8.0288   21.3538 C   0  0  0  0  0  0
  -21.9924   -9.0263   20.4635 C   0  0  0  0  0  0
  -22.7246  -10.2145   20.3052 C   0  0  0  0  0  0
  -21.6849   -6.0744   22.5289 C   0  0  0  0  0  0
  -21.4009   -6.5650   23.8229 C   0  0  0  0  0  0
  -21.3663   -5.6792   24.9188 C   0  0  0  0  0  0
  -21.6047   -4.3057   24.7222 C   0  0  0  0  0  0
  -21.8818   -3.8156   23.4341 C   0  0  0  0  0  0
  -21.9196   -4.6973   22.3406 C   0  0  0  0  0  0
  -22.7837  -13.5251   21.1907 C   0  0  0  0  0  0
  -22.1662   -4.2170   21.0974 F   0  0  0  0  0  0
  -21.5627   -3.4536   25.7728 F   0  0  0  0  0  0
  -30.0402  -13.3040   20.4536 N   0  0  0  0  0  0
  -26.3005  -12.9449   20.3447 N   0  0  0  0  0  0
  -25.9336  -11.6587   20.5834 N   0  0  0  0  0  0
  -22.0464  -12.8213   22.0434 N   0  0  0  0  0  0
  -25.4243  -15.1936   20.4132 N   0  0  0  0  0  0
  -31.8791  -14.4799   19.9349 O   0  0  0  0  0  0
  -21.6637   -6.8883   21.4243 O   0  0  0  0  0  0
  -22.3530  -14.5561   20.6767 O   0  0  0  0  0  0
  -24.6167  -31.8673   23.2139 C   0  0  0  0  0  0
  -25.9057  -32.4836   23.8439 C   0  0  1  0  0  0
  -27.2431  -27.4677   20.0897 C   0  0  0  0  0  0
  -25.5913  -33.8645   24.2408 N   0  0  0  0  0  0
  -23.4056  -30.4912   21.5520 C   0  0  2  0  0  0
  -24.8566  -28.9724   20.0994 C   0  0  0  0  0  0
  -22.7428  -29.4645   22.5017 C   0  0  0  0  0  0
  -18.0270  -28.1351   22.8545 C   0  0  0  0  0  0
  -24.1480  -36.7295   23.2648 C   0  0  0  0  0  0
  -25.9316  -30.8500   21.3575 C   0  0  0  0  0  0
  -26.0143  -29.4895   20.6958 C   0  0  0  0  0  0
  -27.2132  -28.7440   20.6904 C   0  0  0  0  0  0
  -26.0766  -26.9704   19.4645 C   0  0  0  0  0  0
  -24.8829  -27.7151   19.4714 C   0  0  0  0  0  0
  -23.6113  -29.8296   20.1636 C   0  0  0  0  0  0
  -25.4117  -36.3136   24.0343 C   0  0  1  0  0  0
  -20.5865  -28.3614   23.1346 C   0  0  2  0  0  0
  -20.6758  -26.9353   22.5432 C   0  0  0  0  0  0
  -19.5723  -26.6372   21.5252 C   0  0  0  0  0  0
  -18.1906  -26.7924   22.1656 C   0  0  0  0  0  0
  -19.1524  -28.8821   23.2937 C   0  0  0  0  0  0
  -18.9452  -30.1449   23.8923 C   0  0  0  0  0  0
  -17.6442  -30.6569   24.0575 C   0  0  0  0  0  0
  -25.9018  -34.9487   23.5163 C   0  0  0  0  0  0
  -16.5330  -29.9063   23.6332 C   0  0  0  0  0  0
  -16.7249  -28.6458   23.0391 C   0  0  0  0  0  0
  -26.4494  -31.6598   25.0755 C   0  0  0  0  0  0
  -25.3801  -31.3628   26.1527 C   0  0  0  0  0  0
  -27.0319  -30.3088   24.6020 C   0  0  0  0  0  0
  -27.6106  -32.4310   25.7459 C   0  0  0  0  0  0
  -27.5571  -37.1792   24.8474 C   0  0  0  0  0  0
  -21.4145  -29.2991   22.3757 N   0  0  0  0  0  0
  -26.4302  -37.3830   23.9431 N   0  0  0  0  0  0
  -24.6709  -31.0810   22.1005 N   0  0  0  0  0  0
  -23.4204  -28.8183   23.3046 O   0  0  0  0  0  0
  -28.3111  -26.6234   20.2877 O   0  0  0  0  0  0
  -26.5555  -34.8928   22.4696 O   0  0  0  0  0  0
  -23.5356  -32.1358   23.7567 O   0  0  0  0  0  0
  -30.4519  -17.9030   21.8215 C   0  0  0  0  0  0
  -32.5665  -19.0917   21.7065 C   0  0  0  0  0  0
  -31.1819  -19.1177   21.9426 C   0  0  0  0  0  0
  -31.1319  -16.7025   21.4815 C   0  0  0  0  0  0
  -33.1729  -17.8819   21.3830 C   0  0  0  0  0  0
  -30.9930  -24.8876   22.1724 C   0  0  0  0  0  0
  -29.5421  -21.2422   21.5210 C   0  0  0  0  0  0
  -31.3652  -21.7441   22.4043 C   0  0  0  0  0  0
  -27.4903  -24.4431   20.7955 C   0  0  0  0  0  0
  -30.5409  -20.4342   22.3720 C   0  0  2  0  0  0
  -30.0438  -22.5115   22.2498 C   0  0  1  0  0  0
  -28.5553  -24.4635   21.8476 C   0  0  2  0  0  0
  -27.9336  -25.7736   21.3881 C   0  0  1  0  0  0
  -36.5074  -16.9504   20.1076 C   0  0  0  0  0  0
  -35.0861  -16.6476   20.5922 C   0  0  0  0  0  0
  -29.9519  -23.9179   21.6027 C   0  0  1  0  0  0
  -32.4788  -16.7340   21.3244 N   0  0  0  0  0  0
  -30.3913  -15.4766   21.2955 N   0  0  0  0  0  0
  -31.0836  -25.0910   23.3880 O   0  0  0  0  0  0
  -34.5219  -17.8576   21.0957 O   0  0  0  0  0  0
  -31.4266  -12.2613   19.1681 H   0  0  0  0  0  0
  -30.1868  -11.2803   19.8673 H   0  0  0  0  0  0
  -29.7169  -11.7749   17.4419 H   0  0  0  0  0  0
  -29.6791  -13.4860   17.7908 H   0  0  0  0  0  0
  -27.7986  -11.3285   18.8155 H   0  0  0  0  0  0
  -27.3620  -12.6617   17.7867 H   0  0  0  0  0  0
  -27.6892  -14.2740   19.5667 H   0  0  0  0  0  0
  -28.6551  -12.0586   21.4297 H   0  0  0  0  0  0
  -28.4798  -13.7383   21.8441 H   0  0  0  0  0  0
  -25.2767   -9.5705   22.4768 H   0  0  0  0  0  0
  -24.0036   -7.4625   22.7443 H   0  0  0  0  0  0
  -21.0866   -8.8767   19.8931 H   0  0  0  0  0  0
  -22.3697  -10.9681   19.6163 H   0  0  0  0  0  0
  -21.1982   -7.6161   23.9742 H   0  0  0  0  0  0
  -21.1488   -6.0517   25.9098 H   0  0  0  0  0  0
  -22.0586   -2.7621   23.2828 H   0  0  0  0  0  0
  -22.4079  -11.9869   22.4808 H   0  0  0  0  0  0
  -21.1071  -13.1218   22.2614 H   0  0  0  0  0  0
  -24.6594  -15.8518   20.5151 H   0  0  0  0  0  0
  -26.2822  -15.6308   20.0990 H   0  0  0  0  0  0
  -26.7156  -32.5541   23.1234 H   0  0  0  0  0  0
  -25.0178  -33.9822   25.0633 H   0  0  0  0  0  0
  -22.6944  -31.3088   21.4213 H   0  0  0  0  0  0
  -23.3782  -35.9580   23.3326 H   0  0  0  0  0  0
  -24.3628  -36.8886   22.2070 H   0  0  0  0  0  0
  -23.7178  -37.6472   23.6648 H   0  0  0  0  0  0
  -26.0344  -31.6235   20.5929 H   0  0  0  0  0  0
  -26.8231  -30.9047   21.9719 H   0  0  0  0  0  0
  -28.0974  -29.1227   21.1884 H   0  0  0  0  0  0
  -26.0735  -25.9836   19.0229 H   0  0  0  0  0  0
  -23.9941  -27.3085   19.0090 H   0  0  0  0  0  0
  -23.6965  -30.6059   19.4041 H   0  0  0  0  0  0
  -22.7399  -29.2371   19.8792 H   0  0  0  0  0  0
  -25.1304  -36.1975   25.0828 H   0  0  0  0  0  0
  -20.9960  -28.3115   24.1461 H   0  0  0  0  0  0
  -20.5716  -26.2192   23.3614 H   0  0  0  0  0  0
  -21.6609  -26.7392   22.1190 H   0  0  0  0  0  0
  -19.6864  -25.6301   21.1235 H   0  0  0  0  0  0
  -19.6680  -27.3233   20.6827 H   0  0  0  0  0  0
  -17.4204  -26.6774   21.4002 H   0  0  0  0  0  0
  -18.0205  -26.0020   22.8976 H   0  0  0  0  0  0
  -19.7922  -30.7282   24.2273 H   0  0  0  0  0  0
  -17.4984  -31.6255   24.5162 H   0  0  0  0  0  0
  -15.5339  -30.2969   23.7649 H   0  0  0  0  0  0
  -15.8649  -28.0775   22.7115 H   0  0  0  0  0  0
  -24.5999  -30.6923   25.7903 H   0  0  0  0  0  0
  -24.8932  -32.2729   26.5017 H   0  0  0  0  0  0
  -25.8197  -30.8800   27.0271 H   0  0  0  0  0  0
  -26.2783  -29.6828   24.1231 H   0  0  0  0  0  0
  -27.4353  -29.7324   25.4353 H   0  0  0  0  0  0
  -27.8505  -30.4532   23.8985 H   0  0  0  0  0  0
  -27.2784  -33.3670   26.1976 H   0  0  0  0  0  0
  -28.3887  -32.6780   25.0220 H   0  0  0  0  0  0
  -28.0831  -31.8482   26.5380 H   0  0  0  0  0  0
  -28.2595  -38.0086   24.7576 H   0  0  0  0  0  0
  -28.1036  -36.2626   24.6214 H   0  0  0  0  0  0
  -27.2302  -37.1314   25.8876 H   0  0  0  0  0  0
  -20.9276  -29.8707   21.7003 H   0  0  0  0  0  0
  -26.0160  -38.2871   24.1506 H   0  0  0  0  0  0
  -29.3831  -17.9038   21.9849 H   0  0  0  0  0  0
  -33.1769  -19.9818   21.7763 H   0  0  0  0  0  0
  -31.6340  -25.3739   21.4362 H   0  0  0  0  0  0
  -28.4929  -20.9943   21.6783 H   0  0  0  0  0  0
  -29.7936  -21.2507   20.4585 H   0  0  0  0  0  0
  -32.0187  -21.8756   21.5383 H   0  0  0  0  0  0
  -31.9087  -21.9190   23.3329 H   0  0  0  0  0  0
  -26.5069  -24.0738   21.0734 H   0  0  0  0  0  0
  -27.8101  -24.1948   19.7843 H   0  0  0  0  0  0
  -30.1089  -20.2540   23.3604 H   0  0  0  0  0  0
  -29.5917  -22.5425   23.2443 H   0  0  0  0  0  0
  -28.2058  -24.2074   22.8476 H   0  0  0  0  0  0
  -27.2902  -26.2564   22.1284 H   0  0  0  0  0  0
  -37.0120  -16.0439   19.7734 H   0  0  0  0  0  0
  -37.1050  -17.3968   20.9019 H   0  0  0  0  0  0
  -36.4842  -17.6452   19.2680 H   0  0  0  0  0  0
  -35.1044  -15.8826   21.3697 H   0  0  0  0  0  0
  -34.5041  -16.2590   19.7549 H   0  0  0  0  0  0
  -30.1327  -23.8528   20.5267 H   0  0  0  0  0  0
  -29.4649  -15.4265   21.6902 H   0  0  0  0  0  0
  1 25  1  0  0  0
  1 30  2  0  0  0
  1 88  1  0  0  0
  2  3  1  0  0  0
  2 25  1  0  0  0
  2 91  1  0  0  0
  2 92  1  0  0  0
  3  4  1  0  0  0
  3 93  1  0  0  0
  3 94  1  0  0  0
  4  5  1  0  0  0
  4 95  1  0  0  0
  4 96  1  0  0  0
  5  6  1  0  0  0
  5 26  1  0  0  0
  5 97  1  0  0  0
  6 25  1  0  0  0
  6 98  1  0  0  0
  6 99  1  0  0  0
  7  8  2  0  0  0
  7 26  1  0  0  0
  7 29  1  0  0  0
  8  9  1  0  0  0
  8 22  1  0  0  0
  9 10  1  0  0  0
  9 27  2  0  0  0
 10 11  2  0  0  0
 10 15  1  0  0  0
 11 12  1  0  0  0
 11100  1  0  0  0
 12 13  2  0  0  0
 12101  1  0  0  0
 13 14  1  0  0  0
 13 31  1  0  0  0
 14 15  2  0  0  0
 14102  1  0  0  0
 15103  1  0  0  0
 16 17  2  0  0  0
 16 21  1  0  0  0
 16 31  1  0  0  0
 17 18  1  0  0  0
 17104  1  0  0  0
 18 19  2  0  0  0
 18105  1  0  0  0
 19 20  1  0  0  0
 19 24  1  0  0  0
 20 21  2  0  0  0
 20106  1  0  0  0
 21 23  1  0  0  0
 22 28  1  0  0  0
 22 32  2  0  0  0
 26 27  1  0  0  0
 28107  1  0  0  0
 28108  1  0  0  0
 29109  1  0  0  0
 29110  1  0  0  0
 33 34  1  0  0  0
 33 66  1  0  0  0
 33 70  2  0  0  0
 34 36  1  0  0  0
 34 59  1  0  0  0
 34111  1  0  0  0
 35 44  2  0  0  0
 35 45  1  0  0  0
 35 68  1  0  0  0
 36 56  1  0  0  0
 36112  1  0  0  0
 37 39  1  0  0  0
 37 47  1  0  0  0
 37 66  1  0  0  0
 37113  1  0  0  0
 38 43  2  0  0  0
 38 46  1  0  0  0
 38 47  1  0  0  0
 39 64  1  0  0  0
 39 67  2  0  0  0
 40 52  1  0  0  0
 40 53  2  0  0  0
 40 58  1  0  0  0
 41114  1  0  0  0
 41115  1  0  0  0
 41116  1  0  0  0
 41 48  1  0  0  0
 42 43  1  0  0  0
 42 66  1  0  0  0
 42117  1  0  0  0
 42118  1  0  0  0
 43 44  1  0  0  0
 44119  1  0  0  0
 45 46  2  0  0  0
 45120  1  0  0  0
 46121  1  0  0  0
 47122  1  0  0  0
 47123  1  0  0  0
 48 56  1  0  0  0
 48 65  1  0  0  0
 48124  1  0  0  0
 49 50  1  0  0  0
 49 53  1  0  0  0
 49 64  1  0  0  0
 49125  1  0  0  0
 50 51  1  0  0  0
 50126  1  0  0  0
 50127  1  0  0  0
 51 52  1  0  0  0
 51128  1  0  0  0
 51129  1  0  0  0
 52130  1  0  0  0
 52131  1  0  0  0
 53 54  1  0  0  0
 54 55  2  0  0  0
 54132  1  0  0  0
 55 57  1  0  0  0
 55133  1  0  0  0
 56 69  2  0  0  0
 57 58  2  0  0  0
 57134  1  0  0  0
 58135  1  0  0  0
 59 60  1  0  0  0
 59 61  1  0  0  0
 59 62  1  0  0  0
 60136  1  0  0  0
 60137  1  0  0  0
 60138  1  0  0  0
 61139  1  0  0  0
 61140  1  0  0  0
 61141  1  0  0  0
 62142  1  0  0  0
 62143  1  0  0  0
 62144  1  0  0  0
 63 65  1  0  0  0
 63145  1  0  0  0
 63146  1  0  0  0
 63147  1  0  0  0
 64148  1  0  0  0
 65149  1  0  0  0
 68 83  1  0  0  0
 71 73  2  0  0  0
 71 74  1  0  0  0
 71150  1  0  0  0
 72 73  1  0  0  0
 72 75  2  0  0  0
 72151  1  0  0  0
 73 80  1  0  0  0
 74 87  2  0  0  0
 74 88  1  0  0  0
 75 87  1  0  0  0
 75 90  1  0  0  0
 76 89  2  0  0  0
 76152  1  0  0  0
 76 86  1  0  0  0
 77 80  1  0  0  0
 77153  1  0  0  0
 77154  1  0  0  0
 77 81  1  0  0  0
 78 80  1  0  0  0
 78 81  1  0  0  0
 78155  1  0  0  0
 78156  1  0  0  0
 79 83  1  0  0  0
 79157  1  0  0  0
 79158  1  0  0  0
 79 82  1  0  0  0
 80159  1  0  0  0
 81 86  1  0  0  0
 81160  1  0  0  0
 82 83  1  0  0  0
 82 86  1  0  0  0
 82161  1  0  0  0
 83162  1  0  0  0
 84 85  1  0  0  0
 84163  1  0  0  0
 84164  1  0  0  0
 84165  1  0  0  0
 85 90  1  0  0  0
 85166  1  0  0  0
 85167  1  0  0  0
 86168  1  0  0  0
 88169  1  0  0  0
M  ISO  4   1 100  68 101  83 101  88 100
M  END
> <chiral flag>
0

> <version>
0

> <s_m_source_file>
/data/baiqing/PycharmProjects/Reinvent-master-3.2/result/LINK_invent/BTK/process_docking_weight1_custom_sum_contain_oxygen_bond_distance_aromatic_linkinvent_7_9_3/rearranged_h_0145.sdf

> <i_m_source_file_index>
24

> <r_mmod_Potential_Energy-OPLS-2005>
-53.6777725219727

> <r_mmod_Stretch_Energy-OPLS-2005>
42.3926467895508

> <r_mmod_Bend_Energy-OPLS-2005>
165.345474243164

> <r_mmod_Torsional_Energy-OPLS-2005>
271.111358642578

> <r_mmod_Improper_Torsional_Energy-OPLS-2005>
3.33450627326965

> <r_mmod_Van_der_Waal_Energy-OPLS-2005>
177.293380737305

> <r_mmod_Electrostatic_Energy-OPLS-2005>
-507.230133056641

> <r_mmod_Solvation_Energy-OPLS-2005>
-233.077545166016

> <b_mmod_Minimization_Converged-OPLS-2005>
0

> <r_mmod_RMS_Derivative-OPLS-2005>
4.64253711700439

$$$$
25
                    3D
 Structure written by MMmdl.
171180  0  0  1  0            999 V2000
  -30.7133  -14.5799   20.5136 C   0  0  0  0  0  0
  -30.4118  -12.3579   19.4739 C   0  0  0  0  0  0
  -29.5063  -12.4924   18.2336 C   0  0  0  0  0  0
  -28.0306  -12.3356   18.6414 C   0  0  0  0  0  0
  -27.6465  -13.2265   19.8515 C   0  0  2  0  0  0
  -28.6847  -13.1430   20.9910 C   0  0  0  0  0  0
  -25.2540  -13.8199   20.5660 C   0  0  0  0  0  0
  -24.1821  -13.0457   20.9172 C   0  0  0  0  0  0
  -24.6397  -11.6931   20.8716 C   0  0  0  0  0  0
  -23.9072  -10.4305   21.0392 C   0  0  0  0  0  0
  -24.3632   -9.4222   21.9176 C   0  0  0  0  0  0
  -23.6314   -8.2252   22.0750 C   0  0  0  0  0  0
  -22.4289   -8.0280   21.3544 C   0  0  0  0  0  0
  -21.9918   -9.0253   20.4643 C   0  0  0  0  0  0
  -22.7240  -10.2139   20.3046 C   0  0  0  0  0  0
  -21.6856   -6.0737   22.5285 C   0  0  0  0  0  0
  -21.4004   -6.5637   23.8216 C   0  0  0  0  0  0
  -21.3665   -5.6792   24.9182 C   0  0  0  0  0  0
  -21.6058   -4.3057   24.7230 C   0  0  0  0  0  0
  -21.8817   -3.8145   23.4347 C   0  0  0  0  0  0
  -21.9188   -4.6963   22.3404 C   0  0  0  0  0  0
  -22.7844  -13.5237   21.1869 C   0  0  0  0  0  0
  -22.1657   -4.2144   21.0982 F   0  0  0  0  0  0
  -21.5647   -3.4539   25.7742 F   0  0  0  0  0  0
  -30.0072  -13.4117   20.4224 N   0  0  0  0  0  0
  -26.2959  -12.9392   20.3276 N   0  0  0  0  0  0
  -25.9325  -11.6539   20.5746 N   0  0  0  0  0  0
  -22.0501  -12.8207   22.0416 N   0  0  0  0  0  0
  -25.4290  -15.1922   20.4088 N   0  0  0  0  0  0
  -31.8830  -14.6409   20.1291 O   0  0  0  0  0  0
  -21.6652   -6.8876   21.4243 O   0  0  0  0  0  0
  -22.3525  -14.5561   20.6754 O   0  0  0  0  0  0
  -24.6203  -31.8650   23.2108 C   0  0  0  0  0  0
  -25.9070  -32.4817   23.8409 C   0  0  1  0  0  0
  -27.2262  -27.3691   20.0976 C   0  0  0  0  0  0
  -25.5933  -33.8626   24.2349 N   0  0  0  0  0  0
  -23.4113  -30.4927   21.5518 C   0  0  2  0  0  0
  -24.8570  -28.9614   20.1109 C   0  0  0  0  0  0
  -22.7446  -29.4646   22.4955 C   0  0  0  0  0  0
  -18.0282  -28.1398   22.8495 C   0  0  0  0  0  0
  -24.1485  -36.7317   23.2637 C   0  0  0  0  0  0
  -25.9487  -30.8125   21.3739 C   0  0  0  0  0  0
  -26.0243  -29.4436   20.7157 C   0  0  0  0  0  0
  -27.2082  -28.6567   20.7057 C   0  0  0  0  0  0
  -26.0357  -26.9385   19.4597 C   0  0  0  0  0  0
  -24.8609  -27.7093   19.4807 C   0  0  0  0  0  0
  -23.6247  -29.8377   20.1624 C   0  0  0  0  0  0
  -25.4103  -36.3108   24.0340 C   0  0  1  0  0  0
  -20.5879  -28.3682   23.1315 C   0  0  2  0  0  0
  -20.6786  -26.9417   22.5423 C   0  0  0  0  0  0
  -19.5752  -26.6394   21.5234 C   0  0  0  0  0  0
  -18.1922  -26.7948   22.1628 C   0  0  0  0  0  0
  -19.1533  -28.8852   23.2905 C   0  0  0  0  0  0
  -18.9459  -30.1469   23.8906 C   0  0  0  0  0  0
  -17.6455  -30.6599   24.0572 C   0  0  0  0  0  0
  -25.9017  -34.9475   23.5120 C   0  0  0  0  0  0
  -16.5346  -29.9108   23.6326 C   0  0  0  0  0  0
  -16.7267  -28.6527   23.0333 C   0  0  0  0  0  0
  -26.4478  -31.6608   25.0757 C   0  0  0  0  0  0
  -25.3736  -31.3761   26.1508 C   0  0  0  0  0  0
  -27.0291  -30.3039   24.6150 C   0  0  0  0  0  0
  -27.6057  -32.4322   25.7503 C   0  0  0  0  0  0
  -27.5577  -37.1808   24.8457 C   0  0  0  0  0  0
  -21.4155  -29.3051   22.3713 N   0  0  0  0  0  0
  -26.4294  -37.3793   23.9404 N   0  0  0  0  0  0
  -24.6792  -31.0713   22.1029 N   0  0  0  0  0  0
  -23.4189  -28.8151   23.2984 O   0  0  0  0  0  0
  -28.3612  -26.5508   20.1509 O   0  0  0  0  0  0
  -26.5565  -34.8931   22.4671 O   0  0  0  0  0  0
  -23.5387  -32.1406   23.7474 O   0  0  0  0  0  0
  -29.2945  -16.6102   19.8677 C   0  0  0  0  0  0
  -30.1268  -18.0702   22.0902 C   0  0  0  0  0  0
  -30.0689  -15.9323   20.8401 C   0  0  0  0  0  0
  -29.3973  -18.7662   21.0929 C   0  0  0  0  0  0
  -28.9696  -17.9935   19.9776 C   0  0  0  0  0  0
  -30.4835  -16.6925   21.9667 C   0  0  0  0  0  0
  -29.9036  -21.2190   22.0368 C   0  0  0  0  0  0
  -29.0031  -20.2528   21.2790 C   0  0  1  0  0  0
  -29.6266  -21.4946   20.5799 C   0  0  1  0  0  0
  -28.1622  -18.6210   18.8533 C   0  0  0  0  0  0
  -33.2542  -17.4318   22.3919 C   0  0  0  0  0  0
  -34.7224  -17.5799   22.8144 C   0  0  0  0  0  0
  -29.1900  -24.0664   20.4702 C   0  0  0  0  0  0
  -32.3631  -16.7823   23.4711 C   0  0  0  0  0  0
  -28.1647  -25.1184   19.9046 C   0  0  0  0  0  0
  -35.5082  -18.3121   21.8052 N   0  3  0  0  0  0
  -28.6897  -22.6492   20.3301 N   0  3  0  0  0  0
  -31.2744  -16.0590   22.9003 O   0  0  0  0  0  0
  -31.4608  -12.4292   19.1836 H   0  0  0  0  0  0
  -30.3004  -11.3756   19.9344 H   0  0  0  0  0  0
  -29.7751  -11.7402   17.4916 H   0  0  0  0  0  0
  -29.6618  -13.4624   17.7580 H   0  0  0  0  0  0
  -27.8737  -11.2863   18.8929 H   0  0  0  0  0  0
  -27.3771  -12.5474   17.7927 H   0  0  0  0  0  0
  -27.6479  -14.2504   19.4824 H   0  0  0  0  0  0
  -28.6708  -12.1605   21.4642 H   0  0  0  0  0  0
  -28.4438  -13.8660   21.7724 H   0  0  0  0  0  0
  -25.2773   -9.5710   22.4762 H   0  0  0  0  0  0
  -24.0031   -7.4641   22.7467 H   0  0  0  0  0  0
  -21.0852   -8.8759   19.8950 H   0  0  0  0  0  0
  -22.3683  -10.9679   19.6163 H   0  0  0  0  0  0
  -21.1975   -7.6139   23.9716 H   0  0  0  0  0  0
  -21.1501   -6.0520   25.9091 H   0  0  0  0  0  0
  -22.0588   -2.7600   23.2845 H   0  0  0  0  0  0
  -22.4100  -11.9841   22.4755 H   0  0  0  0  0  0
  -21.1133  -13.1239   22.2670 H   0  0  0  0  0  0
  -24.6736  -15.8579   20.5308 H   0  0  0  0  0  0
  -26.3045  -15.6285   20.1478 H   0  0  0  0  0  0
  -26.7131  -32.5494   23.1162 H   0  0  0  0  0  0
  -25.0148  -33.9813   25.0535 H   0  0  0  0  0  0
  -22.7024  -31.3114   21.4175 H   0  0  0  0  0  0
  -23.3756  -35.9638   23.3278 H   0  0  0  0  0  0
  -24.3586  -36.8946   22.2055 H   0  0  0  0  0  0
  -23.7234  -37.6525   23.6646 H   0  0  0  0  0  0
  -26.0720  -31.5799   20.6075 H   0  0  0  0  0  0
  -26.8348  -30.8626   21.9961 H   0  0  0  0  0  0
  -28.1031  -29.0249   21.1872 H   0  0  0  0  0  0
  -25.9782  -25.9969   18.9344 H   0  0  0  0  0  0
  -23.9650  -27.3358   19.0062 H   0  0  0  0  0  0
  -23.7487  -30.6234   19.4155 H   0  0  0  0  0  0
  -22.7427  -29.2746   19.8499 H   0  0  0  0  0  0
  -25.1281  -36.1964   25.0837 H   0  0  0  0  0  0
  -20.9975  -28.3244   24.1436 H   0  0  0  0  0  0
  -20.5749  -26.2277   23.3609 H   0  0  0  0  0  0
  -21.6648  -26.7483   22.1172 H   0  0  0  0  0  0
  -19.6910  -25.6312   21.1253 H   0  0  0  0  0  0
  -19.6706  -27.3215   20.6782 H   0  0  0  0  0  0
  -17.4213  -26.6710   21.4020 H   0  0  0  0  0  0
  -18.0303  -26.0115   22.9036 H   0  0  0  0  0  0
  -19.7932  -30.7293   24.2269 H   0  0  0  0  0  0
  -17.5007  -31.6274   24.5185 H   0  0  0  0  0  0
  -15.5344  -30.3005   23.7671 H   0  0  0  0  0  0
  -15.8663  -28.0860   22.7025 H   0  0  0  0  0  0
  -24.5882  -30.7126   25.7863 H   0  0  0  0  0  0
  -24.8976  -32.2958   26.4922 H   0  0  0  0  0  0
  -25.8091  -30.8947   27.0270 H   0  0  0  0  0  0
  -26.2835  -29.6838   24.1167 H   0  0  0  0  0  0
  -27.4014  -29.7245   25.4603 H   0  0  0  0  0  0
  -27.8694  -30.4362   23.9336 H   0  0  0  0  0  0
  -27.2679  -33.3638   26.2054 H   0  0  0  0  0  0
  -28.3876  -32.6850   25.0328 H   0  0  0  0  0  0
  -28.0698  -31.8457   26.5442 H   0  0  0  0  0  0
  -28.2578  -38.0119   24.7511 H   0  0  0  0  0  0
  -28.1093  -36.2655   24.6251 H   0  0  0  0  0  0
  -27.2302  -37.1408   25.8863 H   0  0  0  0  0  0
  -20.9302  -29.8818   21.6983 H   0  0  0  0  0  0
  -26.0176  -38.2867   24.1419 H   0  0  0  0  0  0
  -29.0077  -16.0777   18.9715 H   0  0  0  0  0  0
  -30.4365  -18.6200   22.9668 H   0  0  0  0  0  0
  -30.9187  -20.9090   22.2786 H   0  0  0  0  0  0
  -29.4465  -21.8812   22.7706 H   0  0  0  0  0  0
  -27.9573  -20.2929   21.5798 H   0  0  0  0  0  0
  -30.4471  -21.3965   19.8701 H   0  0  0  0  0  0
  -28.5447  -18.2955   17.8847 H   0  0  0  0  0  0
  -28.2025  -19.7092   18.8627 H   0  0  0  0  0  0
  -27.1168  -18.3157   18.9184 H   0  0  0  0  0  0
  -33.2140  -16.8320   21.4815 H   0  0  0  0  0  0
  -32.8440  -18.4096   22.1379 H   0  0  0  0  0  0
  -35.1631  -16.5912   22.9521 H   0  0  0  0  0  0
  -34.7963  -18.0946   23.7731 H   0  0  0  0  0  0
  -29.3622  -24.2598   21.5284 H   0  0  0  0  0  0
  -30.1520  -24.1723   19.9685 H   0  0  0  0  0  0
  -32.0188  -17.5168   24.1998 H   0  0  0  0  0  0
  -32.9469  -16.0533   24.0326 H   0  0  0  0  0  0
  -27.2049  -24.8302   20.3320 H   0  0  0  0  0  0
  -28.0786  -24.9747   18.8263 H   0  0  0  0  0  0
  -35.4471  -17.8665   20.9077 H   0  0  0  0  0  0
  -36.4754  -18.3354   22.0752 H   0  0  0  0  0  0
  -35.1885  -19.2598   21.7168 H   0  0  0  0  0  0
  -27.8716  -22.5439   20.9076 H   0  0  0  0  0  0
  -28.3762  -22.5405   19.3769 H   0  0  0  0  0  0
  1 25  1  0  0  0
  1 30  2  0  0  0
  1 73  1  0  0  0
  2  3  1  0  0  0
  2 25  1  0  0  0
  2 89  1  0  0  0
  2 90  1  0  0  0
  3  4  1  0  0  0
  3 91  1  0  0  0
  3 92  1  0  0  0
  4  5  1  0  0  0
  4 93  1  0  0  0
  4 94  1  0  0  0
  5  6  1  0  0  0
  5 26  1  0  0  0
  5 95  1  0  0  0
  6 25  1  0  0  0
  6 96  1  0  0  0
  6 97  1  0  0  0
  7  8  2  0  0  0
  7 26  1  0  0  0
  7 29  1  0  0  0
  8  9  1  0  0  0
  8 22  1  0  0  0
  9 10  1  0  0  0
  9 27  2  0  0  0
 10 11  2  0  0  0
 10 15  1  0  0  0
 11 12  1  0  0  0
 11 98  1  0  0  0
 12 13  2  0  0  0
 12 99  1  0  0  0
 13 14  1  0  0  0
 13 31  1  0  0  0
 14 15  2  0  0  0
 14100  1  0  0  0
 15101  1  0  0  0
 16 17  2  0  0  0
 16 21  1  0  0  0
 16 31  1  0  0  0
 17 18  1  0  0  0
 17102  1  0  0  0
 18 19  2  0  0  0
 18103  1  0  0  0
 19 20  1  0  0  0
 19 24  1  0  0  0
 20 21  2  0  0  0
 20104  1  0  0  0
 21 23  1  0  0  0
 22 28  1  0  0  0
 22 32  2  0  0  0
 26 27  1  0  0  0
 28105  1  0  0  0
 28106  1  0  0  0
 29107  1  0  0  0
 29108  1  0  0  0
 33 34  1  0  0  0
 33 66  1  0  0  0
 33 70  2  0  0  0
 34 36  1  0  0  0
 34 59  1  0  0  0
 34109  1  0  0  0
 35 44  2  0  0  0
 35 45  1  0  0  0
 35 68  1  0  0  0
 36 56  1  0  0  0
 36110  1  0  0  0
 37 39  1  0  0  0
 37 47  1  0  0  0
 37 66  1  0  0  0
 37111  1  0  0  0
 38 43  2  0  0  0
 38 46  1  0  0  0
 38 47  1  0  0  0
 39 64  1  0  0  0
 39 67  2  0  0  0
 40 52  1  0  0  0
 40 53  2  0  0  0
 40 58  1  0  0  0
 41112  1  0  0  0
 41113  1  0  0  0
 41114  1  0  0  0
 41 48  1  0  0  0
 42 43  1  0  0  0
 42 66  1  0  0  0
 42115  1  0  0  0
 42116  1  0  0  0
 43 44  1  0  0  0
 44117  1  0  0  0
 45 46  2  0  0  0
 45118  1  0  0  0
 46119  1  0  0  0
 47120  1  0  0  0
 47121  1  0  0  0
 48 56  1  0  0  0
 48 65  1  0  0  0
 48122  1  0  0  0
 49 50  1  0  0  0
 49 53  1  0  0  0
 49 64  1  0  0  0
 49123  1  0  0  0
 50 51  1  0  0  0
 50124  1  0  0  0
 50125  1  0  0  0
 51 52  1  0  0  0
 51126  1  0  0  0
 51127  1  0  0  0
 52128  1  0  0  0
 52129  1  0  0  0
 53 54  1  0  0  0
 54 55  2  0  0  0
 54130  1  0  0  0
 55 57  1  0  0  0
 55131  1  0  0  0
 56 69  2  0  0  0
 57 58  2  0  0  0
 57132  1  0  0  0
 58133  1  0  0  0
 59 60  1  0  0  0
 59 61  1  0  0  0
 59 62  1  0  0  0
 60134  1  0  0  0
 60135  1  0  0  0
 60136  1  0  0  0
 61137  1  0  0  0
 61138  1  0  0  0
 61139  1  0  0  0
 62140  1  0  0  0
 62141  1  0  0  0
 62142  1  0  0  0
 63 65  1  0  0  0
 63143  1  0  0  0
 63144  1  0  0  0
 63145  1  0  0  0
 64146  1  0  0  0
 65147  1  0  0  0
 68 85  1  0  0  0
 71 73  2  0  0  0
 71 75  1  0  0  0
 71148  1  0  0  0
 72 74  1  0  0  0
 72 76  2  0  0  0
 72149  1  0  0  0
 73 76  1  0  0  0
 74 75  2  0  0  0
 74 78  1  0  0  0
 75 80  1  0  0  0
 76 88  1  0  0  0
 77 78  1  0  0  0
 77 79  1  0  0  0
 77150  1  0  0  0
 77151  1  0  0  0
 78 79  1  0  0  0
 78152  1  0  0  0
 79 87  1  0  0  0
 79153  1  0  0  0
 80154  1  0  0  0
 80155  1  0  0  0
 80156  1  0  0  0
 81 82  1  0  0  0
 81 84  1  0  0  0
 81157  1  0  0  0
 81158  1  0  0  0
 82 86  1  0  0  0
 82159  1  0  0  0
 82160  1  0  0  0
 83 85  1  0  0  0
 83 87  1  0  0  0
 83161  1  0  0  0
 83162  1  0  0  0
 84 88  1  0  0  0
 84163  1  0  0  0
 84164  1  0  0  0
 85165  1  0  0  0
 85166  1  0  0  0
 86167  1  0  0  0
 86168  1  0  0  0
 86169  1  0  0  0
 87170  1  0  0  0
 87171  1  0  0  0
M  CHG  2  86   1  87   1
M  ISO  4   1 100  68 101  73 100  85 101
M  END
> <chiral flag>
0

> <version>
0

> <s_m_source_file>
/data/baiqing/PycharmProjects/Reinvent-master-3.2/result/LINK_invent/BTK/process_docking_weight1_custom_sum_contain_oxygen_bond_distance_aromatic_linkinvent_7_9_3/rearranged_h_0145.sdf

> <i_m_source_file_index>
25

> <r_mmod_Potential_Energy-OPLS-2005>
-250.999542236328

> <r_mmod_Stretch_Energy-OPLS-2005>
61.9706764221191

> <r_mmod_Bend_Energy-OPLS-2005>
134.373748779297

> <r_mmod_Torsional_Energy-OPLS-2005>
271.393035888672

> <r_mmod_Improper_Torsional_Energy-OPLS-2005>
7.35258340835571

> <r_mmod_Van_der_Waal_Energy-OPLS-2005>
143.566070556641

> <r_mmod_Electrostatic_Energy-OPLS-2005>
0.549556195735931

> <r_mmod_Solvation_Energy-OPLS-2005>
-907.068481445312

> <b_mmod_Minimization_Converged-OPLS-2005>
0

> <r_mmod_RMS_Derivative-OPLS-2005>
3.56190776824951

$$$$
26
                    3D
 Structure written by MMmdl.
178187  0  0  1  0            999 V2000
  -30.7256  -14.5136   20.5799 C   0  0  0  0  0  0
  -30.4630  -12.3169   19.4543 C   0  0  0  0  0  0
  -29.5409  -12.4491   18.2266 C   0  0  0  0  0  0
  -28.0426  -12.4041   18.6187 C   0  0  0  0  0  0
  -27.6841  -13.2244   19.8904 C   0  0  2  0  0  0
  -28.7312  -12.9855   21.0008 C   0  0  0  0  0  0
  -25.2638  -13.8296   20.5364 C   0  0  0  0  0  0
  -24.1950  -13.0638   20.9114 C   0  0  0  0  0  0
  -24.6500  -11.7064   20.8846 C   0  0  0  0  0  0
  -23.9152  -10.4385   21.0552 C   0  0  0  0  0  0
  -24.3644   -9.4185   21.9270 C   0  0  0  0  0  0
  -23.6322   -8.2200   22.0753 C   0  0  0  0  0  0
  -22.4297   -8.0267   21.3557 C   0  0  0  0  0  0
  -22.0006   -9.0263   20.4654 C   0  0  0  0  0  0
  -22.7349  -10.2169   20.3160 C   0  0  0  0  0  0
  -21.6792   -6.0698   22.5285 C   0  0  0  0  0  0
  -21.3877   -6.5585   23.8206 C   0  0  0  0  0  0
  -21.3654   -5.6772   24.9207 C   0  0  0  0  0  0
  -21.6065   -4.3038   24.7297 C   0  0  0  0  0  0
  -21.8798   -3.8126   23.4422 C   0  0  0  0  0  0
  -21.9157   -4.6926   22.3453 C   0  0  0  0  0  0
  -22.7930  -13.5339   21.1780 C   0  0  0  0  0  0
  -22.1642   -4.2106   21.1037 F   0  0  0  0  0  0
  -21.5738   -3.4530   25.7824 F   0  0  0  0  0  0
  -30.0507  -13.3248   20.4493 N   0  0  0  0  0  0
  -26.3176  -12.9512   20.3409 N   0  0  0  0  0  0
  -25.9433  -11.6666   20.5890 N   0  0  0  0  0  0
  -22.0654  -12.8267   22.0342 N   0  0  0  0  0  0
  -25.4401  -15.1926   20.3026 N   0  0  0  0  0  0
  -31.9054  -14.6140   20.2293 O   0  0  0  0  0  0
  -21.6632   -6.8868   21.4242 O   0  0  0  0  0  0
  -22.3494  -14.5603   20.6582 O   0  0  0  0  0  0
  -24.6174  -31.8654   23.2086 C   0  0  0  0  0  0
  -25.9054  -32.4807   23.8395 C   0  0  1  0  0  0
  -27.2624  -27.4300   20.1036 C   0  0  0  0  0  0
  -25.5891  -33.8612   24.2327 N   0  0  0  0  0  0
  -23.4094  -30.4845   21.5480 C   0  0  2  0  0  0
  -24.8636  -28.9409   20.1275 C   0  0  0  0  0  0
  -22.7431  -29.4638   22.4982 C   0  0  0  0  0  0
  -18.0271  -28.1389   22.8494 C   0  0  0  0  0  0
  -24.1480  -36.7315   23.2643 C   0  0  0  0  0  0
  -25.9386  -30.8263   21.3650 C   0  0  0  0  0  0
  -26.0227  -29.4547   20.7253 C   0  0  0  0  0  0
  -27.2256  -28.7064   20.7141 C   0  0  0  0  0  0
  -26.0920  -26.9348   19.4927 C   0  0  0  0  0  0
  -24.8920  -27.6761   19.5116 C   0  0  0  0  0  0
  -23.6249  -29.8109   20.1667 C   0  0  0  0  0  0
  -25.4098  -36.3108   24.0345 C   0  0  1  0  0  0
  -20.5860  -28.3682   23.1310 C   0  0  2  0  0  0
  -20.6759  -26.9407   22.5422 C   0  0  0  0  0  0
  -19.5738  -26.6379   21.5217 C   0  0  0  0  0  0
  -18.1914  -26.7935   22.1627 C   0  0  0  0  0  0
  -19.1524  -28.8848   23.2894 C   0  0  0  0  0  0
  -18.9458  -30.1454   23.8901 C   0  0  0  0  0  0
  -17.6457  -30.6590   24.0572 C   0  0  0  0  0  0
  -25.9031  -34.9463   23.5134 C   0  0  0  0  0  0
  -16.5343  -29.9095   23.6328 C   0  0  0  0  0  0
  -16.7258  -28.6517   23.0339 C   0  0  0  0  0  0
  -26.4482  -31.6588   25.0723 C   0  0  0  0  0  0
  -25.3760  -31.3668   26.1476 C   0  0  0  0  0  0
  -27.0342  -30.3046   24.6089 C   0  0  0  0  0  0
  -27.6040  -32.4314   25.7501 C   0  0  0  0  0  0
  -27.5570  -37.1811   24.8465 C   0  0  0  0  0  0
  -21.4151  -29.3041   22.3720 N   0  0  0  0  0  0
  -26.4279  -37.3790   23.9416 N   0  0  0  0  0  0
  -24.6724  -31.0739   22.0991 N   0  0  0  0  0  0
  -23.4176  -28.8174   23.3042 O   0  0  0  0  0  0
  -28.4257  -26.6954   19.9929 O   0  0  0  0  0  0
  -26.5593  -34.8921   22.4699 O   0  0  0  0  0  0
  -23.5351  -32.1406   23.7456 O   0  0  0  0  0  0
  -31.0094  -17.7906   21.4119 C   0  0  0  0  0  0
  -29.2462  -16.8269   22.7412 C   0  0  0  0  0  0
  -30.1241  -16.6962   21.6270 C   0  0  0  0  0  0
  -29.5376  -17.8035   23.7272 C   0  0  0  0  0  0
  -31.0724  -18.8540   22.3413 C   0  0  0  0  0  0
  -34.0415  -22.9947   20.7948 C   0  0  0  0  0  0
  -33.8509  -22.2115   22.0919 C   0  0  0  0  0  0
  -32.7358  -23.7489   20.5529 C   0  0  0  0  0  0
  -32.3857  -22.4278   22.5172 C   0  0  2  0  0  0
  -28.8722  -17.8172   25.0968 C   0  0  0  0  0  0
  -26.7061  -17.0252   22.7208 C   0  0  0  0  0  0
  -29.6013  -16.1605   19.3067 C   0  0  0  0  0  0
  -27.9192  -16.0803   22.8036 C   0  0  0  0  0  0
  -31.6771  -21.1224   22.9876 C   0  0  0  0  0  0
  -29.8341  -24.7959   20.6833 C   0  0  0  0  0  0
  -30.6511  -24.1420   21.8452 C   0  0  0  0  0  0
  -28.8247  -25.8987   21.1200 C   0  0  0  0  0  0
  -30.4209  -18.7959   23.5196 N   0  0  0  0  0  0
  -29.9602  -15.6494   20.6341 N   0  0  0  0  0  0
  -31.6862  -23.1443   21.4076 N   0  3  1  0  0  0
  -31.7694  -20.0239   22.0546 O   0  0  0  0  0  0
  -31.4964  -12.4528   19.1357 H   0  0  0  0  0  0
  -30.4258  -11.3071   19.8674 H   0  0  0  0  0  0
  -29.7551  -11.6414   17.5264 H   0  0  0  0  0  0
  -29.8004  -13.3612   17.6909 H   0  0  0  0  0  0
  -27.7828  -11.3587   18.7804 H   0  0  0  0  0  0
  -27.4324  -12.7483   17.7850 H   0  0  0  0  0  0
  -27.7380  -14.2721   19.6112 H   0  0  0  0  0  0
  -28.7040  -11.9385   21.3104 H   0  0  0  0  0  0
  -28.5236  -13.5365   21.9126 H   0  0  0  0  0  0
  -25.2794   -9.5504   22.4880 H   0  0  0  0  0  0
  -23.9964   -7.4508   22.7395 H   0  0  0  0  0  0
  -21.0976   -8.8772   19.8924 H   0  0  0  0  0  0
  -22.3861  -10.9701   19.6250 H   0  0  0  0  0  0
  -21.1674   -7.6051   23.9726 H   0  0  0  0  0  0
  -21.1568   -6.0498   25.9131 H   0  0  0  0  0  0
  -22.0604   -2.7583   23.2980 H   0  0  0  0  0  0
  -22.4229  -11.9824   22.4592 H   0  0  0  0  0  0
  -21.1294  -13.1260   22.2601 H   0  0  0  0  0  0
  -24.6572  -15.8296   20.1999 H   0  0  0  0  0  0
  -26.2853  -15.5540   19.8772 H   0  0  0  0  0  0
  -26.7125  -32.5533   23.1161 H   0  0  0  0  0  0
  -25.0063  -33.9763   25.0487 H   0  0  0  0  0  0
  -22.6999  -31.3005   21.4015 H   0  0  0  0  0  0
  -23.3725  -35.9664   23.3317 H   0  0  0  0  0  0
  -24.3571  -36.8918   22.2053 H   0  0  0  0  0  0
  -23.7240  -37.6532   23.6644 H   0  0  0  0  0  0
  -26.0472  -31.5837   20.5881 H   0  0  0  0  0  0
  -26.8271  -30.8896   21.9799 H   0  0  0  0  0  0
  -28.1271  -29.1146   21.1473 H   0  0  0  0  0  0
  -26.1172  -25.9797   18.9868 H   0  0  0  0  0  0
  -24.0065  -27.2751   19.0359 H   0  0  0  0  0  0
  -23.7416  -30.5834   19.4066 H   0  0  0  0  0  0
  -22.7506  -29.2320   19.8648 H   0  0  0  0  0  0
  -25.1270  -36.1975   25.0835 H   0  0  0  0  0  0
  -20.9944  -28.3249   24.1432 H   0  0  0  0  0  0
  -20.5660  -26.2288   23.3627 H   0  0  0  0  0  0
  -21.6635  -26.7432   22.1224 H   0  0  0  0  0  0
  -19.6899  -25.6290   21.1255 H   0  0  0  0  0  0
  -19.6681  -27.3192   20.6755 H   0  0  0  0  0  0
  -17.4186  -26.6681   21.4022 H   0  0  0  0  0  0
  -18.0299  -26.0071   22.9019 H   0  0  0  0  0  0
  -19.7928  -30.7270   24.2269 H   0  0  0  0  0  0
  -17.5012  -31.6273   24.5174 H   0  0  0  0  0  0
  -15.5352  -30.3005   23.7647 H   0  0  0  0  0  0
  -15.8661  -28.0850   22.7037 H   0  0  0  0  0  0
  -24.5921  -30.7030   25.7805 H   0  0  0  0  0  0
  -24.8974  -32.2820   26.4977 H   0  0  0  0  0  0
  -25.8139  -30.8795   27.0200 H   0  0  0  0  0  0
  -26.2894  -29.6773   24.1176 H   0  0  0  0  0  0
  -27.4174  -29.7301   25.4532 H   0  0  0  0  0  0
  -27.8690  -30.4389   23.9206 H   0  0  0  0  0  0
  -27.2645  -33.3601   26.2100 H   0  0  0  0  0  0
  -28.3858  -32.6895   25.0345 H   0  0  0  0  0  0
  -28.0703  -31.8429   26.5415 H   0  0  0  0  0  0
  -28.2585  -38.0109   24.7512 H   0  0  0  0  0  0
  -28.1068  -36.2641   24.6288 H   0  0  0  0  0  0
  -27.2295  -37.1461   25.8870 H   0  0  0  0  0  0
  -20.9322  -29.8786   21.6963 H   0  0  0  0  0  0
  -26.0169  -38.2869   24.1417 H   0  0  0  0  0  0
  -31.5893  -17.8622   20.5037 H   0  0  0  0  0  0
  -34.2433  -22.3156   19.9665 H   0  0  0  0  0  0
  -34.8849  -23.6871   20.8526 H   0  0  0  0  0  0
  -34.5441  -22.5603   22.8620 H   0  0  0  0  0  0
  -34.0700  -21.1539   21.9289 H   0  0  0  0  0  0
  -32.4418  -23.7213   19.5022 H   0  0  0  0  0  0
  -32.8836  -24.7962   20.8233 H   0  0  0  0  0  0
  -32.4126  -23.1128   23.3691 H   0  0  0  0  0  0
  -28.7408  -16.8064   25.4824 H   0  0  0  0  0  0
  -27.9034  -18.3134   25.0889 H   0  0  0  0  0  0
  -29.4886  -18.3595   25.8167 H   0  0  0  0  0  0
  -26.7091  -17.5958   21.7936 H   0  0  0  0  0  0
  -26.6444  -17.7533   23.5250 H   0  0  0  0  0  0
  -25.7773  -16.4547   22.7321 H   0  0  0  0  0  0
  -30.3530  -16.8459   18.9147 H   0  0  0  0  0  0
  -28.6418  -16.6714   19.3561 H   0  0  0  0  0  0
  -29.4882  -15.3581   18.5775 H   0  0  0  0  0  0
  -27.8839  -15.4206   23.6721 H   0  0  0  0  0  0
  -27.8048  -15.4624   21.9221 H   0  0  0  0  0  0
  -30.6390  -21.3565   23.2263 H   0  0  0  0  0  0
  -32.1435  -20.8105   23.9210 H   0  0  0  0  0  0
  -29.2933  -24.0234   20.1379 H   0  0  0  0  0  0
  -30.5175  -25.2409   19.9625 H   0  0  0  0  0  0
  -29.9683  -23.6590   22.5444 H   0  0  0  0  0  0
  -31.1582  -24.9250   22.4128 H   0  0  0  0  0  0
  -29.2931  -26.5548   21.8542 H   0  0  0  0  0  0
  -27.9583  -25.4391   21.6018 H   0  0  0  0  0  0
  -31.2315  -22.4280   20.8586 H   0  0  0  0  0  0
  1 25  1  0  0  0
  1 30  2  0  0  0
  1 89  1  0  0  0
  2  3  1  0  0  0
  2 25  1  0  0  0
  2 92  1  0  0  0
  2 93  1  0  0  0
  3  4  1  0  0  0
  3 94  1  0  0  0
  3 95  1  0  0  0
  4  5  1  0  0  0
  4 96  1  0  0  0
  4 97  1  0  0  0
  5  6  1  0  0  0
  5 26  1  0  0  0
  5 98  1  0  0  0
  6 25  1  0  0  0
  6 99  1  0  0  0
  6100  1  0  0  0
  7  8  2  0  0  0
  7 26  1  0  0  0
  7 29  1  0  0  0
  8  9  1  0  0  0
  8 22  1  0  0  0
  9 10  1  0  0  0
  9 27  2  0  0  0
 10 11  2  0  0  0
 10 15  1  0  0  0
 11 12  1  0  0  0
 11101  1  0  0  0
 12 13  2  0  0  0
 12102  1  0  0  0
 13 14  1  0  0  0
 13 31  1  0  0  0
 14 15  2  0  0  0
 14103  1  0  0  0
 15104  1  0  0  0
 16 17  2  0  0  0
 16 21  1  0  0  0
 16 31  1  0  0  0
 17 18  1  0  0  0
 17105  1  0  0  0
 18 19  2  0  0  0
 18106  1  0  0  0
 19 20  1  0  0  0
 19 24  1  0  0  0
 20 21  2  0  0  0
 20107  1  0  0  0
 21 23  1  0  0  0
 22 28  1  0  0  0
 22 32  2  0  0  0
 26 27  1  0  0  0
 28108  1  0  0  0
 28109  1  0  0  0
 29110  1  0  0  0
 29111  1  0  0  0
 33 34  1  0  0  0
 33 66  1  0  0  0
 33 70  2  0  0  0
 34 36  1  0  0  0
 34 59  1  0  0  0
 34112  1  0  0  0
 35 44  2  0  0  0
 35 45  1  0  0  0
 35 68  1  0  0  0
 36 56  1  0  0  0
 36113  1  0  0  0
 37 39  1  0  0  0
 37 47  1  0  0  0
 37 66  1  0  0  0
 37114  1  0  0  0
 38 43  2  0  0  0
 38 46  1  0  0  0
 38 47  1  0  0  0
 39 64  1  0  0  0
 39 67  2  0  0  0
 40 52  1  0  0  0
 40 53  2  0  0  0
 40 58  1  0  0  0
 41115  1  0  0  0
 41116  1  0  0  0
 41117  1  0  0  0
 41 48  1  0  0  0
 42 43  1  0  0  0
 42 66  1  0  0  0
 42118  1  0  0  0
 42119  1  0  0  0
 43 44  1  0  0  0
 44120  1  0  0  0
 45 46  2  0  0  0
 45121  1  0  0  0
 46122  1  0  0  0
 47123  1  0  0  0
 47124  1  0  0  0
 48 56  1  0  0  0
 48 65  1  0  0  0
 48125  1  0  0  0
 49 50  1  0  0  0
 49 53  1  0  0  0
 49 64  1  0  0  0
 49126  1  0  0  0
 50 51  1  0  0  0
 50127  1  0  0  0
 50128  1  0  0  0
 51 52  1  0  0  0
 51129  1  0  0  0
 51130  1  0  0  0
 52131  1  0  0  0
 52132  1  0  0  0
 53 54  1  0  0  0
 54 55  2  0  0  0
 54133  1  0  0  0
 55 57  1  0  0  0
 55134  1  0  0  0
 56 69  2  0  0  0
 57 58  2  0  0  0
 57135  1  0  0  0
 58136  1  0  0  0
 59 60  1  0  0  0
 59 61  1  0  0  0
 59 62  1  0  0  0
 60137  1  0  0  0
 60138  1  0  0  0
 60139  1  0  0  0
 61140  1  0  0  0
 61141  1  0  0  0
 61142  1  0  0  0
 62143  1  0  0  0
 62144  1  0  0  0
 62145  1  0  0  0
 63 65  1  0  0  0
 63146  1  0  0  0
 63147  1  0  0  0
 63148  1  0  0  0
 64149  1  0  0  0
 65150  1  0  0  0
 68 87  1  0  0  0
 71 73  2  0  0  0
 71 75  1  0  0  0
 71151  1  0  0  0
 72 73  1  0  0  0
 72 74  2  0  0  0
 72 83  1  0  0  0
 73 89  1  0  0  0
 74 80  1  0  0  0
 74 88  1  0  0  0
 75 88  2  0  0  0
 75 91  1  0  0  0
 76 77  1  0  0  0
 76 78  1  0  0  0
 76152  1  0  0  0
 76153  1  0  0  0
 77 79  1  0  0  0
 77154  1  0  0  0
 77155  1  0  0  0
 78 90  1  0  0  0
 78156  1  0  0  0
 78157  1  0  0  0
 79 84  1  0  0  0
 79 90  1  0  0  0
 79158  1  0  0  0
 80159  1  0  0  0
 80160  1  0  0  0
 80161  1  0  0  0
 81 83  1  0  0  0
 81162  1  0  0  0
 81163  1  0  0  0
 81164  1  0  0  0
 82 89  1  0  0  0
 82165  1  0  0  0
 82166  1  0  0  0
 82167  1  0  0  0
 83168  1  0  0  0
 83169  1  0  0  0
 84 91  1  0  0  0
 84170  1  0  0  0
 84171  1  0  0  0
 85 86  1  0  0  0
 85 87  1  0  0  0
 85172  1  0  0  0
 85173  1  0  0  0
 86174  1  0  0  0
 86175  1  0  0  0
 86 90  1  0  0  0
 87176  1  0  0  0
 87177  1  0  0  0
 90178  1  0  0  0
M  CHG  1  90   1
M  ISO  4   1 100  68 101  87 101  89 100
M  END
> <chiral flag>
0

> <version>
0

> <s_m_source_file>
/data/baiqing/PycharmProjects/Reinvent-master-3.2/result/LINK_invent/BTK/process_docking_weight1_custom_sum_contain_oxygen_bond_distance_aromatic_linkinvent_7_9_3/rearranged_h_0145.sdf

> <i_m_source_file_index>
26

> <r_mmod_Potential_Energy-OPLS-2005>
64.3475646972656

> <r_mmod_Stretch_Energy-OPLS-2005>
54.3653450012207

> <r_mmod_Bend_Energy-OPLS-2005>
137.658660888672

> <r_mmod_Torsional_Energy-OPLS-2005>
444.016967773438

> <r_mmod_Improper_Torsional_Energy-OPLS-2005>
21.464506149292

> <r_mmod_Van_der_Waal_Energy-OPLS-2005>
152.560943603516

> <r_mmod_Electrostatic_Energy-OPLS-2005>
-370.7236328125

> <r_mmod_Solvation_Energy-OPLS-2005>
-396.384399414062

> <b_mmod_Minimization_Converged-OPLS-2005>
0

> <r_mmod_RMS_Derivative-OPLS-2005>
7.88625907897949

$$$$
27
                    3D
 Structure written by MMmdl.
186196  0  0  1  0            999 V2000
  -30.7440  -14.3668   20.7068 C   0  0  0  0  0  0
  -30.4215  -12.2989   19.3884 C   0  0  0  0  0  0
  -29.4826  -12.5293   18.1895 C   0  0  0  0  0  0
  -28.0063  -12.3760   18.6023 C   0  0  0  0  0  0
  -27.6656  -13.1842   19.8794 C   0  0  2  0  0  0
  -28.7032  -12.8869   20.9865 C   0  0  0  0  0  0
  -25.2613  -13.8114   20.5669 C   0  0  0  0  0  0
  -24.1851  -13.0419   20.9173 C   0  0  0  0  0  0
  -24.6364  -11.6875   20.8730 C   0  0  0  0  0  0
  -23.9021  -10.4285   21.0395 C   0  0  0  0  0  0
  -24.3568   -9.4209   21.9188 C   0  0  0  0  0  0
  -23.6251   -8.2242   22.0751 C   0  0  0  0  0  0
  -22.4243   -8.0270   21.3529 C   0  0  0  0  0  0
  -21.9885   -9.0244   20.4625 C   0  0  0  0  0  0
  -22.7202  -10.2128   20.3036 C   0  0  0  0  0  0
  -21.6839   -6.0737   22.5278 C   0  0  0  0  0  0
  -21.4006   -6.5641   23.8214 C   0  0  0  0  0  0
  -21.3658   -5.6792   24.9172 C   0  0  0  0  0  0
  -21.6041   -4.3052   24.7220 C   0  0  0  0  0  0
  -21.8824   -3.8144   23.4343 C   0  0  0  0  0  0
  -21.9189   -4.6963   22.3401 C   0  0  0  0  0  0
  -22.7869  -13.5228   21.1829 C   0  0  0  0  0  0
  -22.1658   -4.2147   21.0979 F   0  0  0  0  0  0
  -21.5630   -3.4542   25.7734 F   0  0  0  0  0  0
  -30.0379  -13.2270   20.4648 N   0  0  0  0  0  0
  -26.3027  -12.9241   20.3358 N   0  0  0  0  0  0
  -25.9271  -11.6422   20.5724 N   0  0  0  0  0  0
  -22.0498  -12.8222   22.0373 N   0  0  0  0  0  0
  -25.4351  -15.1834   20.4057 N   0  0  0  0  0  0
  -31.7782  -14.6381   20.0826 O   0  0  0  0  0  0
  -21.6604   -6.8873   21.4233 O   0  0  0  0  0  0
  -22.3575  -14.5548   20.6689 O   0  0  0  0  0  0
  -24.6110  -31.8728   23.2148 C   0  0  0  0  0  0
  -25.9017  -32.4841   23.8430 C   0  0  1  0  0  0
  -27.2361  -27.4803   20.0678 C   0  0  0  0  0  0
  -25.5895  -33.8639   24.2363 N   0  0  0  0  0  0
  -23.3959  -30.4960   21.5558 C   0  0  2  0  0  0
  -24.8394  -28.9626   20.1229 C   0  0  0  0  0  0
  -22.7376  -29.4680   22.5028 C   0  0  0  0  0  0
  -18.0265  -28.1393   22.8512 C   0  0  0  0  0  0
  -24.1483  -36.7321   23.2648 C   0  0  0  0  0  0
  -25.9210  -30.8435   21.3662 C   0  0  0  0  0  0
  -25.9967  -29.4772   20.7210 C   0  0  0  0  0  0
  -27.1949  -28.7344   20.7090 C   0  0  0  0  0  0
  -26.0559  -26.9548   19.4954 C   0  0  0  0  0  0
  -24.8586  -27.6931   19.5192 C   0  0  0  0  0  0
  -23.6015  -29.8269   20.1708 C   0  0  0  0  0  0
  -25.4119  -36.3124   24.0342 C   0  0  1  0  0  0
  -20.5848  -28.3664   23.1349 C   0  0  2  0  0  0
  -20.6760  -26.9407   22.5425 C   0  0  0  0  0  0
  -19.5728  -26.6393   21.5229 C   0  0  0  0  0  0
  -18.1906  -26.7948   22.1635 C   0  0  0  0  0  0
  -19.1512  -28.8850   23.2929 C   0  0  0  0  0  0
  -18.9439  -30.1468   23.8907 C   0  0  0  0  0  0
  -17.6437  -30.6593   24.0582 C   0  0  0  0  0  0
  -25.9032  -34.9482   23.5145 C   0  0  0  0  0  0
  -16.5334  -29.9088   23.6338 C   0  0  0  0  0  0
  -16.7255  -28.6520   23.0345 C   0  0  0  0  0  0
  -26.4455  -31.6595   25.0730 C   0  0  0  0  0  0
  -25.3720  -31.3655   26.1454 C   0  0  0  0  0  0
  -27.0305  -30.3056   24.6084 C   0  0  0  0  0  0
  -27.6025  -32.4297   25.7515 C   0  0  0  0  0  0
  -27.5550  -37.1884   24.8505 C   0  0  0  0  0  0
  -21.4114  -29.3031   22.3751 N   0  0  0  0  0  0
  -26.4326  -37.3780   23.9348 N   0  0  0  0  0  0
  -24.6607  -31.0848   22.1045 N   0  0  0  0  0  0
  -23.4162  -28.8221   23.3062 O   0  0  0  0  0  0
  -28.4327  -26.8131   19.9772 O   0  0  0  0  0  0
  -26.5590  -34.8917   22.4705 O   0  0  0  0  0  0
  -23.5311  -32.1472   23.7549 O   0  0  0  0  0  0
  -31.5164  -19.2217   19.9750 C   0  0  0  0  0  0
  -30.7224  -20.5247   21.8589 C   0  0  0  0  0  0
  -30.9771  -19.2769   21.2714 C   0  0  0  0  0  0
  -31.5278  -21.6608   19.8345 C   0  0  0  0  0  0
  -31.7808  -20.3907   19.2297 C   0  0  0  0  0  0
  -30.9901  -21.7199   21.1535 C   0  0  0  0  0  0
  -29.4470  -17.2924   21.2680 C   0  0  0  0  0  0
  -31.8254  -17.0590   22.1995 C   0  0  0  0  0  0
  -32.8253  -23.9149   19.7587 C   0  0  0  0  0  0
  -29.1635  -15.9037   21.8514 C   0  0  0  0  0  0
  -31.4031  -15.6589   22.6932 C   0  0  0  0  0  0
  -32.3627  -25.3075   19.3315 C   0  0  0  0  0  0
  -30.5295  -23.8428   18.8993 C   0  0  0  0  0  0
  -30.6093  -17.9939   21.9993 C   0  0  0  0  0  0
  -31.7946  -22.9868   19.1018 C   0  0  2  0  0  0
  -31.9152  -18.9300   17.0924 C   0  0  0  0  0  0
  -33.8611  -20.3818   17.7907 C   0  0  0  0  0  0
  -30.1686  -23.0555   22.9950 C   0  0  0  0  0  0
  -30.2460  -26.2862   18.4622 C   0  0  0  0  0  0
  -28.7255  -26.3289   18.6655 C   0  0  0  0  0  0
  -32.3317  -20.2360   17.8010 C   0  0  0  0  0  0
  -30.3841  -15.0803   21.8059 N   0  0  0  0  0  0
  -30.8882  -25.2287   19.2761 N   0  3  2  0  0  0
  -30.7234  -22.9656   21.6888 O   0  0  0  0  0  0
  -31.4609  -12.4207   19.0783 H   0  0  0  0  0  0
  -30.3434  -11.2700   19.7440 H   0  0  0  0  0  0
  -29.7193  -11.8299   17.3870 H   0  0  0  0  0  0
  -29.6465  -13.5291   17.7839 H   0  0  0  0  0  0
  -27.8106  -11.3167   18.7709 H   0  0  0  0  0  0
  -27.3548  -12.6777   17.7815 H   0  0  0  0  0  0
  -27.7285  -14.2358   19.6039 H   0  0  0  0  0  0
  -28.6794  -11.8246   21.2321 H   0  0  0  0  0  0
  -28.4538  -13.3797   21.9250 H   0  0  0  0  0  0
  -25.2706   -9.5702   22.4784 H   0  0  0  0  0  0
  -23.9955   -7.4641   22.7486 H   0  0  0  0  0  0
  -21.0820   -8.8752   19.8912 H   0  0  0  0  0  0
  -22.3647  -10.9671   19.6152 H   0  0  0  0  0  0
  -21.1993   -7.6147   23.9710 H   0  0  0  0  0  0
  -21.1483   -6.0520   25.9074 H   0  0  0  0  0  0
  -22.0607   -2.7607   23.2840 H   0  0  0  0  0  0
  -22.4072  -11.9856   22.4745 H   0  0  0  0  0  0
  -21.1105  -13.1247   22.2523 H   0  0  0  0  0  0
  -24.6703  -15.8404   20.5132 H   0  0  0  0  0  0
  -26.2840  -15.6197   20.0715 H   0  0  0  0  0  0
  -26.7094  -32.5574   23.1212 H   0  0  0  0  0  0
  -25.0048  -33.9811   25.0510 H   0  0  0  0  0  0
  -22.6817  -31.3111   21.4186 H   0  0  0  0  0  0
  -23.3751  -35.9650   23.3348 H   0  0  0  0  0  0
  -24.3548  -36.8914   22.2055 H   0  0  0  0  0  0
  -23.7240  -37.6531   23.6665 H   0  0  0  0  0  0
  -26.0278  -31.6058   20.5943 H   0  0  0  0  0  0
  -26.8121  -30.9011   21.9798 H   0  0  0  0  0  0
  -28.0933  -29.1365   21.1569 H   0  0  0  0  0  0
  -26.0533  -25.9834   19.0214 H   0  0  0  0  0  0
  -23.9660  -27.2838   19.0661 H   0  0  0  0  0  0
  -23.7092  -30.6006   19.4096 H   0  0  0  0  0  0
  -22.7254  -29.2440   19.8793 H   0  0  0  0  0  0
  -25.1313  -36.2032   25.0847 H   0  0  0  0  0  0
  -20.9952  -28.3238   24.1469 H   0  0  0  0  0  0
  -20.5717  -26.2259   23.3599 H   0  0  0  0  0  0
  -21.6635  -26.7488   22.1198 H   0  0  0  0  0  0
  -19.6893  -25.6313   21.1232 H   0  0  0  0  0  0
  -19.6667  -27.3226   20.6776 H   0  0  0  0  0  0
  -17.4191  -26.6750   21.4009 H   0  0  0  0  0  0
  -18.0263  -26.0082   22.9008 H   0  0  0  0  0  0
  -19.7903  -30.7309   24.2257 H   0  0  0  0  0  0
  -17.4982  -31.6265   24.5202 H   0  0  0  0  0  0
  -15.5338  -30.2991   23.7650 H   0  0  0  0  0  0
  -15.8665  -28.0848   22.7021 H   0  0  0  0  0  0
  -24.5852  -30.7084   25.7728 H   0  0  0  0  0  0
  -24.8959  -32.2791   26.5012 H   0  0  0  0  0  0
  -25.8052  -30.8686   27.0136 H   0  0  0  0  0  0
  -26.2854  -29.6802   24.1151 H   0  0  0  0  0  0
  -27.4107  -29.7302   25.4535 H   0  0  0  0  0  0
  -27.8666  -30.4396   23.9219 H   0  0  0  0  0  0
  -27.2682  -33.3650   26.2013 H   0  0  0  0  0  0
  -28.3893  -32.6741   25.0369 H   0  0  0  0  0  0
  -28.0602  -31.8438   26.5496 H   0  0  0  0  0  0
  -28.2719  -38.0021   24.7330 H   0  0  0  0  0  0
  -28.0896  -36.2551   24.6670 H   0  0  0  0  0  0
  -27.2214  -37.1943   25.8895 H   0  0  0  0  0  0
  -20.9257  -29.8734   21.6968 H   0  0  0  0  0  0
  -26.0241  -38.2904   24.1176 H   0  0  0  0  0  0
  -31.7010  -18.2483   19.5495 H   0  0  0  0  0  0
  -30.3006  -20.5408   22.8529 H   0  0  0  0  0  0
  -28.5488  -17.9093   21.3179 H   0  0  0  0  0  0
  -29.6745  -17.1809   20.2065 H   0  0  0  0  0  0
  -32.3796  -16.9455   21.2674 H   0  0  0  0  0  0
  -32.5251  -17.5102   22.9046 H   0  0  0  0  0  0
  -32.8032  -23.8526   20.8451 H   0  0  0  0  0  0
  -33.8466  -23.6959   19.4472 H   0  0  0  0  0  0
  -28.3359  -15.4748   21.2970 H   0  0  0  0  0  0
  -28.8107  -15.9870   22.8807 H   0  0  0  0  0  0
  -31.0066  -15.7235   23.7079 H   0  0  0  0  0  0
  -32.2747  -15.0044   22.7546 H   0  0  0  0  0  0
  -32.7593  -25.5392   18.3416 H   0  0  0  0  0  0
  -32.7011  -26.0863   20.0158 H   0  0  0  0  0  0
  -29.6829  -23.5139   19.5021 H   0  0  0  0  0  0
  -30.2089  -23.7793   17.8568 H   0  0  0  0  0  0
  -30.2476  -18.2558   22.9953 H   0  0  0  0  0  0
  -32.1887  -22.8157   18.1052 H   0  0  0  0  0  0
  -30.8338  -18.7894   17.1213 H   0  0  0  0  0  0
  -32.3867  -18.0475   17.5247 H   0  0  0  0  0  0
  -32.2088  -18.9526   16.0420 H   0  0  0  0  0  0
  -34.1771  -21.3434   18.1947 H   0  0  0  0  0  0
  -34.2579  -20.3048   16.7775 H   0  0  0  0  0  0
  -34.3347  -19.6034   18.3899 H   0  0  0  0  0  0
  -30.0349  -24.1056   23.2546 H   0  0  0  0  0  0
  -30.8293  -22.6172   23.7440 H   0  0  0  0  0  0
  -29.1890  -22.5794   23.0477 H   0  0  0  0  0  0
  -30.6671  -27.2592   18.7186 H   0  0  0  0  0  0
  -30.4696  -26.1212   17.4072 H   0  0  0  0  0  0
  -28.2710  -25.3492   18.5119 H   0  0  0  0  0  0
  -28.3074  -26.9941   17.9068 H   0  0  0  0  0  0
  -31.8948  -21.0113   17.1743 H   0  0  0  0  0  0
  -30.5706  -25.3466   20.2289 H   0  0  0  0  0  0
  1 25  1  0  0  0
  1 30  2  0  0  0
  1 92  1  0  0  0
  2  3  1  0  0  0
  2 25  1  0  0  0
  2 95  1  0  0  0
  2 96  1  0  0  0
  3  4  1  0  0  0
  3 97  1  0  0  0
  3 98  1  0  0  0
  4  5  1  0  0  0
  4 99  1  0  0  0
  4100  1  0  0  0
  5  6  1  0  0  0
  5 26  1  0  0  0
  5101  1  0  0  0
  6 25  1  0  0  0
  6102  1  0  0  0
  6103  1  0  0  0
  7  8  2  0  0  0
  7 26  1  0  0  0
  7 29  1  0  0  0
  8  9  1  0  0  0
  8 22  1  0  0  0
  9 10  1  0  0  0
  9 27  2  0  0  0
 10 11  2  0  0  0
 10 15  1  0  0  0
 11 12  1  0  0  0
 11104  1  0  0  0
 12 13  2  0  0  0
 12105  1  0  0  0
 13 14  1  0  0  0
 13 31  1  0  0  0
 14 15  2  0  0  0
 14106  1  0  0  0
 15107  1  0  0  0
 16 17  2  0  0  0
 16 21  1  0  0  0
 16 31  1  0  0  0
 17 18  1  0  0  0
 17108  1  0  0  0
 18 19  2  0  0  0
 18109  1  0  0  0
 19 20  1  0  0  0
 19 24  1  0  0  0
 20 21  2  0  0  0
 20110  1  0  0  0
 21 23  1  0  0  0
 22 28  1  0  0  0
 22 32  2  0  0  0
 26 27  1  0  0  0
 28111  1  0  0  0
 28112  1  0  0  0
 29113  1  0  0  0
 29114  1  0  0  0
 33 34  1  0  0  0
 33 66  1  0  0  0
 33 70  2  0  0  0
 34 36  1  0  0  0
 34 59  1  0  0  0
 34115  1  0  0  0
 35 44  2  0  0  0
 35 45  1  0  0  0
 35 68  1  0  0  0
 36 56  1  0  0  0
 36116  1  0  0  0
 37 39  1  0  0  0
 37 47  1  0  0  0
 37 66  1  0  0  0
 37117  1  0  0  0
 38 43  2  0  0  0
 38 46  1  0  0  0
 38 47  1  0  0  0
 39 64  1  0  0  0
 39 67  2  0  0  0
 40 52  1  0  0  0
 40 53  2  0  0  0
 40 58  1  0  0  0
 41118  1  0  0  0
 41119  1  0  0  0
 41120  1  0  0  0
 41 48  1  0  0  0
 42 43  1  0  0  0
 42 66  1  0  0  0
 42121  1  0  0  0
 42122  1  0  0  0
 43 44  1  0  0  0
 44123  1  0  0  0
 45 46  2  0  0  0
 45124  1  0  0  0
 46125  1  0  0  0
 47126  1  0  0  0
 47127  1  0  0  0
 48 56  1  0  0  0
 48 65  1  0  0  0
 48128  1  0  0  0
 49 50  1  0  0  0
 49 53  1  0  0  0
 49 64  1  0  0  0
 49129  1  0  0  0
 50 51  1  0  0  0
 50130  1  0  0  0
 50131  1  0  0  0
 51 52  1  0  0  0
 51132  1  0  0  0
 51133  1  0  0  0
 52134  1  0  0  0
 52135  1  0  0  0
 53 54  1  0  0  0
 54 55  2  0  0  0
 54136  1  0  0  0
 55 57  1  0  0  0
 55137  1  0  0  0
 56 69  2  0  0  0
 57 58  2  0  0  0
 57138  1  0  0  0
 58139  1  0  0  0
 59 60  1  0  0  0
 59 61  1  0  0  0
 59 62  1  0  0  0
 60140  1  0  0  0
 60141  1  0  0  0
 60142  1  0  0  0
 61143  1  0  0  0
 61144  1  0  0  0
 61145  1  0  0  0
 62146  1  0  0  0
 62147  1  0  0  0
 62148  1  0  0  0
 63 65  1  0  0  0
 63149  1  0  0  0
 63150  1  0  0  0
 63151  1  0  0  0
 64152  1  0  0  0
 65153  1  0  0  0
 68 90  1  0  0  0
 71 73  2  0  0  0
 71 75  1  0  0  0
 71154  1  0  0  0
 72 73  1  0  0  0
 72 76  2  0  0  0
 72155  1  0  0  0
 73 84  1  0  0  0
 74 75  2  0  0  0
 74 76  1  0  0  0
 74 85  1  0  0  0
 75 91  1  0  0  0
 76 94  1  0  0  0
 77 80  1  0  0  0
 77 84  1  0  0  0
 77156  1  0  0  0
 77157  1  0  0  0
 78 81  1  0  0  0
 78 84  1  0  0  0
 78158  1  0  0  0
 78159  1  0  0  0
 79 82  1  0  0  0
 79 85  1  0  0  0
 79160  1  0  0  0
 79161  1  0  0  0
 80 92  1  0  0  0
 80162  1  0  0  0
 80163  1  0  0  0
 81 92  1  0  0  0
 81164  1  0  0  0
 81165  1  0  0  0
 82 93  1  0  0  0
 82166  1  0  0  0
 82167  1  0  0  0
 83 85  1  0  0  0
 83 93  1  0  0  0
 83168  1  0  0  0
 83169  1  0  0  0
 84170  1  0  0  0
 85171  1  0  0  0
 86172  1  0  0  0
 86173  1  0  0  0
 86174  1  0  0  0
 86 91  1  0  0  0
 87 91  1  0  0  0
 87175  1  0  0  0
 87176  1  0  0  0
 87177  1  0  0  0
 88 94  1  0  0  0
 88178  1  0  0  0
 88179  1  0  0  0
 88180  1  0  0  0
 89 90  1  0  0  0
 89181  1  0  0  0
 89182  1  0  0  0
 89 93  1  0  0  0
 90183  1  0  0  0
 90184  1  0  0  0
 91185  1  0  0  0
 93186  1  0  0  0
M  CHG  1  93   1
M  ISO  4   1 100  68 101  90 101  92 100
M  END
> <chiral flag>
0

> <version>
0

> <s_m_source_file>
/data/baiqing/PycharmProjects/Reinvent-master-3.2/result/LINK_invent/BTK/process_docking_weight1_custom_sum_contain_oxygen_bond_distance_aromatic_linkinvent_7_9_3/rearranged_h_0145.sdf

> <i_m_source_file_index>
27

> <r_mmod_Potential_Energy-OPLS-2005>
136.707855224609

> <r_mmod_Stretch_Energy-OPLS-2005>
39.8427505493164

> <r_mmod_Bend_Energy-OPLS-2005>
132.486114501953

> <r_mmod_Torsional_Energy-OPLS-2005>
398.445770263672

> <r_mmod_Improper_Torsional_Energy-OPLS-2005>
7.09487676620483

> <r_mmod_Van_der_Waal_Energy-OPLS-2005>
180.657958984375

> <r_mmod_Electrostatic_Energy-OPLS-2005>
-249.864166259766

> <r_mmod_Solvation_Energy-OPLS-2005>
-380.040710449219

> <b_mmod_Minimization_Converged-OPLS-2005>
0

> <r_mmod_RMS_Derivative-OPLS-2005>
1.94820487499237

$$$$
28
                    3D
 Structure written by MMmdl.
160168  0  0  1  0            999 V2000
  -30.6626  -14.5583   20.5704 C   0  0  0  0  0  0
  -30.4227  -12.3606   19.4399 C   0  0  0  0  0  0
  -29.4991  -12.5152   18.2134 C   0  0  0  0  0  0
  -28.0218  -12.3591   18.6248 C   0  0  0  0  0  0
  -27.6528  -13.2168   19.8659 C   0  0  2  0  0  0
  -28.6895  -13.0406   20.9957 C   0  0  0  0  0  0
  -25.2546  -13.8180   20.5670 C   0  0  0  0  0  0
  -24.1819  -13.0424   20.9147 C   0  0  0  0  0  0
  -24.6388  -11.6897   20.8695 C   0  0  0  0  0  0
  -23.9061  -10.4282   21.0377 C   0  0  0  0  0  0
  -24.3612   -9.4200   21.9158 C   0  0  0  0  0  0
  -23.6283   -8.2237   22.0729 C   0  0  0  0  0  0
  -22.4269   -8.0279   21.3528 C   0  0  0  0  0  0
  -21.9897   -9.0250   20.4634 C   0  0  0  0  0  0
  -22.7225  -10.2122   20.3031 C   0  0  0  0  0  0
  -21.6861   -6.0718   22.5266 C   0  0  0  0  0  0
  -21.4030   -6.5625   23.8197 C   0  0  0  0  0  0
  -21.3660   -5.6783   24.9166 C   0  0  0  0  0  0
  -21.6041   -4.3046   24.7226 C   0  0  0  0  0  0
  -21.8829   -3.8128   23.4354 C   0  0  0  0  0  0
  -21.9200   -4.6940   22.3404 C   0  0  0  0  0  0
  -22.7846  -13.5202   21.1829 C   0  0  0  0  0  0
  -22.1686   -4.2122   21.0984 F   0  0  0  0  0  0
  -21.5605   -3.4537   25.7744 F   0  0  0  0  0  0
  -30.0123  -13.3646   20.4404 N   0  0  0  0  0  0
  -26.2974  -12.9360   20.3307 N   0  0  0  0  0  0
  -25.9311  -11.6502   20.5714 N   0  0  0  0  0  0
  -22.0529  -12.8185   22.0409 N   0  0  0  0  0  0
  -25.4226  -15.1908   20.4164 N   0  0  0  0  0  0
  -31.8034  -14.7288   20.1318 O   0  0  0  0  0  0
  -21.6637   -6.8872   21.4232 O   0  0  0  0  0  0
  -22.3513  -14.5503   20.6685 O   0  0  0  0  0  0
  -24.6189  -31.8645   23.2040 C   0  0  0  0  0  0
  -25.9056  -32.4801   23.8371 C   0  0  1  0  0  0
  -27.2168  -27.3648   20.1303 C   0  0  0  0  0  0
  -25.5893  -33.8599   24.2311 N   0  0  0  0  0  0
  -23.4095  -30.4853   21.5455 C   0  0  2  0  0  0
  -24.8543  -28.9392   20.1171 C   0  0  0  0  0  0
  -22.7441  -29.4637   22.4960 C   0  0  0  0  0  0
  -18.0275  -28.1375   22.8481 C   0  0  0  0  0  0
  -24.1481  -36.7310   23.2633 C   0  0  0  0  0  0
  -25.9433  -30.8108   21.3636 C   0  0  0  0  0  0
  -26.0180  -29.4361   20.7194 C   0  0  0  0  0  0
  -27.2054  -28.6585   20.7184 C   0  0  0  0  0  0
  -26.0421  -26.9056   19.5020 C   0  0  0  0  0  0
  -24.8641  -27.6766   19.5006 C   0  0  0  0  0  0
  -23.6205  -29.8128   20.1621 C   0  0  0  0  0  0
  -25.4107  -36.3115   24.0338 C   0  0  1  0  0  0
  -20.5866  -28.3670   23.1300 C   0  0  2  0  0  0
  -20.6760  -26.9397   22.5416 C   0  0  0  0  0  0
  -19.5742  -26.6379   21.5214 C   0  0  0  0  0  0
  -18.1918  -26.7915   22.1619 C   0  0  0  0  0  0
  -19.1524  -28.8843   23.2875 C   0  0  0  0  0  0
  -18.9459  -30.1445   23.8892 C   0  0  0  0  0  0
  -17.6461  -30.6580   24.0572 C   0  0  0  0  0  0
  -25.9041  -34.9470   23.5136 C   0  0  0  0  0  0
  -16.5350  -29.9084   23.6330 C   0  0  0  0  0  0
  -16.7263  -28.6496   23.0354 C   0  0  0  0  0  0
  -26.4462  -31.6589   25.0714 C   0  0  0  0  0  0
  -25.3701  -31.3698   26.1447 C   0  0  0  0  0  0
  -27.0297  -30.3028   24.6102 C   0  0  0  0  0  0
  -27.6044  -32.4299   25.7473 C   0  0  0  0  0  0
  -27.5586  -37.1809   24.8467 C   0  0  0  0  0  0
  -21.4158  -29.3036   22.3720 N   0  0  0  0  0  0
  -26.4300  -37.3801   23.9412 N   0  0  0  0  0  0
  -24.6761  -31.0706   22.0951 N   0  0  0  0  0  0
  -23.4195  -28.8176   23.3016 O   0  0  0  0  0  0
  -28.3633  -26.5893   20.0705 O   0  0  0  0  0  0
  -26.5611  -34.8929   22.4700 O   0  0  0  0  0  0
  -23.5378  -32.1426   23.7399 O   0  0  0  0  0  0
  -28.4181  -17.7893   19.7993 C   0  0  0  0  0  0
  -29.2832  -19.3646   21.1187 C   0  0  0  0  0  0
  -27.7062  -18.9406   19.5950 C   0  0  0  0  0  0
  -28.2482  -19.9744   20.4312 C   0  0  0  0  0  0
  -26.5343  -19.0572   18.6543 C   0  0  0  0  0  0
  -26.3784  -24.0407   21.3373 C   0  0  0  0  0  0
  -27.6357  -21.4025   20.5250 C   0  0  0  0  0  0
  -28.4948  -22.7038   20.7475 C   0  0  0  0  0  0
  -28.4874  -25.3944   20.9034 C   0  0  0  0  0  0
  -30.3678  -17.0051   21.2363 C   0  0  0  0  0  0
  -27.7018  -24.0711   20.5439 C   0  0  1  0  0  0
  -29.3834  -18.0107   20.7559 N   0  0  0  0  0  0
  -29.9353  -15.5898   21.0729 N   0  0  0  0  0  0
  -31.4691  -12.4680   19.1460 H   0  0  0  0  0  0
  -30.3315  -11.3566   19.8570 H   0  0  0  0  0  0
  -29.7551  -11.7759   17.4534 H   0  0  0  0  0  0
  -29.6529  -13.4925   17.7530 H   0  0  0  0  0  0
  -27.8501  -11.3045   18.8422 H   0  0  0  0  0  0
  -27.3676  -12.6088   17.7880 H   0  0  0  0  0  0
  -27.6841  -14.2589   19.5465 H   0  0  0  0  0  0
  -28.6832  -12.0150   21.3648 H   0  0  0  0  0  0
  -28.4327  -13.6632   21.8541 H   0  0  0  0  0  0
  -25.2759   -9.5672   22.4727 H   0  0  0  0  0  0
  -23.9987   -7.4624   22.7443 H   0  0  0  0  0  0
  -21.0817   -8.8767   19.8948 H   0  0  0  0  0  0
  -22.3679  -10.9653   19.6137 H   0  0  0  0  0  0
  -21.2044   -7.6131   23.9703 H   0  0  0  0  0  0
  -21.1463   -6.0507   25.9070 H   0  0  0  0  0  0
  -22.0605   -2.7585   23.2860 H   0  0  0  0  0  0
  -22.4202  -11.9872   22.4788 H   0  0  0  0  0  0
  -21.1127  -13.1122   22.2606 H   0  0  0  0  0  0
  -24.6554  -15.8421   20.5429 H   0  0  0  0  0  0
  -26.2780  -15.6452   20.1253 H   0  0  0  0  0  0
  -26.7121  -32.5511   23.1127 H   0  0  0  0  0  0
  -25.0071  -33.9750   25.0479 H   0  0  0  0  0  0
  -22.7008  -31.3034   21.4015 H   0  0  0  0  0  0
  -23.3754  -35.9637   23.3313 H   0  0  0  0  0  0
  -24.3576  -36.8917   22.2047 H   0  0  0  0  0  0
  -23.7220  -37.6512   23.6642 H   0  0  0  0  0  0
  -26.0613  -31.5684   20.5875 H   0  0  0  0  0  0
  -26.8285  -30.8712   21.9848 H   0  0  0  0  0  0
  -28.1081  -29.0410   21.1742 H   0  0  0  0  0  0
  -26.0342  -25.9438   19.0102 H   0  0  0  0  0  0
  -23.9719  -27.2934   19.0240 H   0  0  0  0  0  0
  -23.7328  -30.5834   19.3989 H   0  0  0  0  0  0
  -22.7432  -29.2343   19.8669 H   0  0  0  0  0  0
  -25.1283  -36.1998   25.0835 H   0  0  0  0  0  0
  -20.9954  -28.3234   24.1421 H   0  0  0  0  0  0
  -20.5669  -26.2269   23.3605 H   0  0  0  0  0  0
  -21.6631  -26.7444   22.1212 H   0  0  0  0  0  0
  -19.6904  -25.6297   21.1230 H   0  0  0  0  0  0
  -19.6673  -27.3201   20.6754 H   0  0  0  0  0  0
  -17.4192  -26.6664   21.4015 H   0  0  0  0  0  0
  -18.0310  -26.0053   22.9009 H   0  0  0  0  0  0
  -19.7943  -30.7254   24.2251 H   0  0  0  0  0  0
  -17.5030  -31.6258   24.5177 H   0  0  0  0  0  0
  -15.5352  -30.3004   23.7651 H   0  0  0  0  0  0
  -15.8654  -28.0829   22.7079 H   0  0  0  0  0  0
  -24.5887  -30.7032   25.7778 H   0  0  0  0  0  0
  -24.8856  -32.2845   26.4877 H   0  0  0  0  0  0
  -25.8030  -30.8885   27.0224 H   0  0  0  0  0  0
  -26.2854  -29.6774   24.1150 H   0  0  0  0  0  0
  -27.4060  -29.7282   25.4580 H   0  0  0  0  0  0
  -27.8699  -30.4359   23.9274 H   0  0  0  0  0  0
  -27.2695  -33.3606   26.2073 H   0  0  0  0  0  0
  -28.3853  -32.6823   25.0284 H   0  0  0  0  0  0
  -28.0711  -31.8380   26.5366 H   0  0  0  0  0  0
  -28.2618  -38.0092   24.7546 H   0  0  0  0  0  0
  -28.1067  -36.2630   24.6278 H   0  0  0  0  0  0
  -27.2303  -37.1471   25.8867 H   0  0  0  0  0  0
  -20.9323  -29.8784   21.6956 H   0  0  0  0  0  0
  -26.0196  -38.2884   24.1405 H   0  0  0  0  0  0
  -28.3103  -16.8120   19.3487 H   0  0  0  0  0  0
  -29.9597  -19.7690   21.8616 H   0  0  0  0  0  0
  -26.7969  -19.6641   17.7883 H   0  0  0  0  0  0
  -25.6846  -19.5174   19.1588 H   0  0  0  0  0  0
  -26.2233  -18.0729   18.3015 H   0  0  0  0  0  0
  -26.5546  -23.7660   22.3777 H   0  0  0  0  0  0
  -25.6663  -23.3342   20.9115 H   0  0  0  0  0  0
  -25.8813  -25.0090   21.3515 H   0  0  0  0  0  0
  -26.8866  -21.3453   21.3154 H   0  0  0  0  0  0
  -27.0707  -21.5594   19.6054 H   0  0  0  0  0  0
  -29.3402  -22.6892   20.0591 H   0  0  0  0  0  0
  -28.9219  -22.6778   21.7497 H   0  0  0  0  0  0
  -29.5512  -25.1569   20.8860 H   0  0  0  0  0  0
  -28.2886  -25.6735   21.9404 H   0  0  0  0  0  0
  -31.3099  -17.1828   20.7162 H   0  0  0  0  0  0
  -30.5591  -17.1902   22.2952 H   0  0  0  0  0  0
  -27.4507  -24.1267   19.4848 H   0  0  0  0  0  0
  -29.0057  -15.3706   21.3941 H   0  0  0  0  0  0
  1 25  1  0  0  0
  1 30  2  0  0  0
  1 83  1  0  0  0
  2  3  1  0  0  0
  2 25  1  0  0  0
  2 84  1  0  0  0
  2 85  1  0  0  0
  3  4  1  0  0  0
  3 86  1  0  0  0
  3 87  1  0  0  0
  4  5  1  0  0  0
  4 88  1  0  0  0
  4 89  1  0  0  0
  5  6  1  0  0  0
  5 26  1  0  0  0
  5 90  1  0  0  0
  6 25  1  0  0  0
  6 91  1  0  0  0
  6 92  1  0  0  0
  7  8  2  0  0  0
  7 26  1  0  0  0
  7 29  1  0  0  0
  8  9  1  0  0  0
  8 22  1  0  0  0
  9 10  1  0  0  0
  9 27  2  0  0  0
 10 11  2  0  0  0
 10 15  1  0  0  0
 11 12  1  0  0  0
 11 93  1  0  0  0
 12 13  2  0  0  0
 12 94  1  0  0  0
 13 14  1  0  0  0
 13 31  1  0  0  0
 14 15  2  0  0  0
 14 95  1  0  0  0
 15 96  1  0  0  0
 16 17  2  0  0  0
 16 21  1  0  0  0
 16 31  1  0  0  0
 17 18  1  0  0  0
 17 97  1  0  0  0
 18 19  2  0  0  0
 18 98  1  0  0  0
 19 20  1  0  0  0
 19 24  1  0  0  0
 20 21  2  0  0  0
 20 99  1  0  0  0
 21 23  1  0  0  0
 22 28  1  0  0  0
 22 32  2  0  0  0
 26 27  1  0  0  0
 28100  1  0  0  0
 28101  1  0  0  0
 29102  1  0  0  0
 29103  1  0  0  0
 33 34  1  0  0  0
 33 66  1  0  0  0
 33 70  2  0  0  0
 34 36  1  0  0  0
 34 59  1  0  0  0
 34104  1  0  0  0
 35 44  2  0  0  0
 35 45  1  0  0  0
 35 68  1  0  0  0
 36 56  1  0  0  0
 36105  1  0  0  0
 37 39  1  0  0  0
 37 47  1  0  0  0
 37 66  1  0  0  0
 37106  1  0  0  0
 38 43  2  0  0  0
 38 46  1  0  0  0
 38 47  1  0  0  0
 39 64  1  0  0  0
 39 67  2  0  0  0
 40 52  1  0  0  0
 40 53  2  0  0  0
 40 58  1  0  0  0
 41107  1  0  0  0
 41108  1  0  0  0
 41109  1  0  0  0
 41 48  1  0  0  0
 42 43  1  0  0  0
 42 66  1  0  0  0
 42110  1  0  0  0
 42111  1  0  0  0
 43 44  1  0  0  0
 44112  1  0  0  0
 45 46  2  0  0  0
 45113  1  0  0  0
 46114  1  0  0  0
 47115  1  0  0  0
 47116  1  0  0  0
 48 56  1  0  0  0
 48 65  1  0  0  0
 48117  1  0  0  0
 49 50  1  0  0  0
 49 53  1  0  0  0
 49 64  1  0  0  0
 49118  1  0  0  0
 50 51  1  0  0  0
 50119  1  0  0  0
 50120  1  0  0  0
 51 52  1  0  0  0
 51121  1  0  0  0
 51122  1  0  0  0
 52123  1  0  0  0
 52124  1  0  0  0
 53 54  1  0  0  0
 54 55  2  0  0  0
 54125  1  0  0  0
 55 57  1  0  0  0
 55126  1  0  0  0
 56 69  2  0  0  0
 57 58  2  0  0  0
 57127  1  0  0  0
 58128  1  0  0  0
 59 60  1  0  0  0
 59 61  1  0  0  0
 59 62  1  0  0  0
 60129  1  0  0  0
 60130  1  0  0  0
 60131  1  0  0  0
 61132  1  0  0  0
 61133  1  0  0  0
 61134  1  0  0  0
 62135  1  0  0  0
 62136  1  0  0  0
 62137  1  0  0  0
 63 65  1  0  0  0
 63138  1  0  0  0
 63139  1  0  0  0
 63140  1  0  0  0
 64141  1  0  0  0
 65142  1  0  0  0
 68 79  1  0  0  0
 71 73  2  0  0  0
 71 82  1  0  0  0
 71143  1  0  0  0
 72 74  2  0  0  0
 72 82  1  0  0  0
 72144  1  0  0  0
 73 74  1  0  0  0
 73 75  1  0  0  0
 74 77  1  0  0  0
 75145  1  0  0  0
 75146  1  0  0  0
 75147  1  0  0  0
 76148  1  0  0  0
 76149  1  0  0  0
 76150  1  0  0  0
 76 81  1  0  0  0
 77 78  1  0  0  0
 77151  1  0  0  0
 77152  1  0  0  0
 78 81  1  0  0  0
 78153  1  0  0  0
 78154  1  0  0  0
 79 81  1  0  0  0
 79155  1  0  0  0
 79156  1  0  0  0
 80 82  1  0  0  0
 80 83  1  0  0  0
 80157  1  0  0  0
 80158  1  0  0  0
 81159  1  0  0  0
 83160  1  0  0  0
M  ISO  4   1 100  68 101  79 101  83 100
M  END
> <chiral flag>
0

> <version>
0

> <s_m_source_file>
/data/baiqing/PycharmProjects/Reinvent-master-3.2/result/LINK_invent/BTK/process_docking_weight1_custom_sum_contain_oxygen_bond_distance_aromatic_linkinvent_7_9_3/rearranged_h_0145.sdf

> <i_m_source_file_index>
28

> <r_mmod_Potential_Energy-OPLS-2005>
-77.8174591064453

> <r_mmod_Stretch_Energy-OPLS-2005>
57.6715660095215

> <r_mmod_Bend_Energy-OPLS-2005>
133.178421020508

> <r_mmod_Torsional_Energy-OPLS-2005>
235.318450927734

> <r_mmod_Improper_Torsional_Energy-OPLS-2005>
3.65140700340271

> <r_mmod_Van_der_Waal_Energy-OPLS-2005>
115.058685302734

> <r_mmod_Electrostatic_Energy-OPLS-2005>
-444.101593017578

> <r_mmod_Solvation_Energy-OPLS-2005>
-204.032028198242

> <b_mmod_Minimization_Converged-OPLS-2005>
0

> <r_mmod_RMS_Derivative-OPLS-2005>
2.18813014030457

$$$$
29
                    3D
 Structure written by MMmdl.
153161  0  0  1  0            999 V2000
  -30.2881  -15.6121   20.2827 C   0  0  0  0  0  0
  -30.4133  -13.0482   19.5438 C   0  0  0  0  0  0
  -29.5388  -12.6272   18.3276 C   0  0  0  0  0  0
  -28.1110  -12.2799   18.7745 C   0  0  0  0  0  0
  -27.5869  -13.2994   19.8097 C   0  0  2  0  0  0
  -28.5997  -13.6273   20.9298 C   0  0  0  0  0  0
  -25.2272  -13.8281   20.5825 C   0  0  0  0  0  0
  -24.1662  -13.0428   20.9305 C   0  0  0  0  0  0
  -24.6358  -11.6937   20.8774 C   0  0  0  0  0  0
  -23.9064  -10.4275   21.0410 C   0  0  0  0  0  0
  -24.3609   -9.4201   21.9204 C   0  0  0  0  0  0
  -23.6282   -8.2236   22.0752 C   0  0  0  0  0  0
  -22.4276   -8.0266   21.3538 C   0  0  0  0  0  0
  -21.9909   -9.0236   20.4640 C   0  0  0  0  0  0
  -22.7233  -10.2118   20.3067 C   0  0  0  0  0  0
  -21.6843   -6.0728   22.5279 C   0  0  0  0  0  0
  -21.4004   -6.5628   23.8208 C   0  0  0  0  0  0
  -21.3666   -5.6787   24.9183 C   0  0  0  0  0  0
  -21.6041   -4.3044   24.7217 C   0  0  0  0  0  0
  -21.8825   -3.8140   23.4351 C   0  0  0  0  0  0
  -21.9191   -4.6948   22.3406 C   0  0  0  0  0  0
  -22.7682  -13.5156   21.1951 C   0  0  0  0  0  0
  -22.1659   -4.2135   21.0988 F   0  0  0  0  0  0
  -21.5633   -3.4538   25.7745 F   0  0  0  0  0  0
  -29.7788  -14.2404   20.2744 N   0  0  0  0  0  0
  -26.2684  -12.9587   20.3218 N   0  0  0  0  0  0
  -25.9285  -11.6661   20.5697 N   0  0  0  0  0  0
  -22.0353  -12.8127   22.0489 N   0  0  0  0  0  0
  -25.3959  -15.2019   20.4302 N   0  0  0  0  0  0
  -31.5186  -15.5512   20.0926 O   0  0  0  0  0  0
  -21.6639   -6.8858   21.4239 O   0  0  0  0  0  0
  -22.3362  -14.5478   20.6812 O   0  0  0  0  0  0
  -24.6877  -31.7926   23.1428 C   0  0  0  0  0  0
  -25.9454  -32.4424   23.7985 C   0  0  1  0  0  0
  -27.2209  -26.6534   20.1963 C   0  0  0  0  0  0
  -25.6031  -33.8233   24.1891 N   0  0  0  0  0  0
  -23.5153  -30.3935   21.4990 C   0  0  2  0  0  0
  -24.9682  -28.7202   20.1168 C   0  0  0  0  0  0
  -22.7798  -29.4275   22.4691 C   0  0  0  0  0  0
  -18.0330  -28.1450   22.8429 C   0  0  0  0  0  0
  -24.1492  -36.7123   23.2648 C   0  0  0  0  0  0
  -26.0970  -30.5133   21.4041 C   0  0  0  0  0  0
  -26.1637  -29.0705   20.7574 C   0  0  0  0  0  0
  -27.2755  -28.0670   20.7563 C   0  0  0  0  0  0
  -25.9871  -26.5223   19.5110 C   0  0  0  0  0  0
  -24.9192  -27.4732   19.4729 C   0  0  0  0  0  0
  -23.7705  -29.6835   20.1368 C   0  0  0  0  0  0
  -25.4139  -36.2842   24.0264 C   0  0  1  0  0  0
  -20.5973  -28.3776   23.1138 C   0  0  2  0  0  0
  -20.6803  -26.9434   22.5414 C   0  0  0  0  0  0
  -19.5782  -26.6372   21.5222 C   0  0  0  0  0  0
  -18.1952  -26.7968   22.1613 C   0  0  0  0  0  0
  -19.1606  -28.8938   23.2765 C   0  0  0  0  0  0
  -18.9526  -30.1522   23.8806 C   0  0  0  0  0  0
  -17.6525  -30.6632   24.0543 C   0  0  0  0  0  0
  -25.9133  -34.9252   23.4920 C   0  0  0  0  0  0
  -16.5403  -29.9105   23.6369 C   0  0  0  0  0  0
  -16.7310  -28.6541   23.0359 C   0  0  0  0  0  0
  -26.4623  -31.6459   25.0617 C   0  0  0  0  0  0
  -25.3651  -31.3781   26.1200 C   0  0  0  0  0  0
  -27.0548  -30.2790   24.6530 C   0  0  0  0  0  0
  -27.6069  -32.4289   25.7451 C   0  0  0  0  0  0
  -27.5531  -37.1724   24.8474 C   0  0  0  0  0  0
  -21.4433  -29.3005   22.3456 N   0  0  0  0  0  0
  -26.4256  -37.3636   23.9402 N   0  0  0  0  0  0
  -24.7930  -30.9328   22.0706 N   0  0  0  0  0  0
  -23.4229  -28.7879   23.3048 O   0  0  0  0  0  0
  -28.2012  -25.4311   20.2076 O   0  0  0  0  0  0
  -26.5764  -34.8854   22.4520 O   0  0  0  0  0  0
  -23.5893  -32.0993   23.6361 O   0  0  0  0  0  0
  -28.3955  -22.8548   21.6180 C   0  0  0  0  0  0
  -28.7687  -22.1308   19.5030 C   0  0  0  0  0  0
  -28.9128  -21.2627   21.5921 C   0  0  2  0  0  0
  -28.7599  -20.4553   20.2314 C   0  0  2  0  0  0
  -28.0860  -23.6450   20.2549 C   0  0  2  0  0  0
  -28.4064  -20.4227   22.7845 C   0  0  0  0  0  0
  -30.9944  -18.9618   19.3403 C   0  0  0  0  0  0
  -29.5761  -18.7052   19.8578 C   0  0  1  0  0  0
  -29.5153  -16.9735   20.3122 N   0  0  0  0  0  0
  -31.4125  -13.2949   19.1819 H   0  0  0  0  0  0
  -30.5597  -12.2043   20.2192 H   0  0  0  0  0  0
  -29.9867  -11.7796   17.8049 H   0  0  0  0  0  0
  -29.5049  -13.4484   17.6115 H   0  0  0  0  0  0
  -28.1343  -11.2862   19.2250 H   0  0  0  0  0  0
  -27.4400  -12.2090   17.9184 H   0  0  0  0  0  0
  -27.4537  -14.2194   19.2366 H   0  0  0  0  0  0
  -28.8463  -12.7404   21.5190 H   0  0  0  0  0  0
  -28.1660  -14.3497   21.6224 H   0  0  0  0  0  0
  -25.2752   -9.5691   22.4762 H   0  0  0  0  0  0
  -23.9996   -7.4630   22.7476 H   0  0  0  0  0  0
  -21.0836   -8.8739   19.8934 H   0  0  0  0  0  0
  -22.3686  -10.9646   19.6157 H   0  0  0  0  0  0
  -21.1995   -7.6137   23.9700 H   0  0  0  0  0  0
  -21.1483   -6.0527   25.9078 H   0  0  0  0  0  0
  -22.0604   -2.7592   23.2860 H   0  0  0  0  0  0
  -22.3976  -11.9770   22.4841 H   0  0  0  0  0  0
  -21.0972  -13.1115   22.2747 H   0  0  0  0  0  0
  -24.6402  -15.8623   20.5692 H   0  0  0  0  0  0
  -26.2452  -15.6340   20.0911 H   0  0  0  0  0  0
  -26.7535  -32.4889   23.0692 H   0  0  0  0  0  0
  -25.0154  -33.9280   25.0040 H   0  0  0  0  0  0
  -22.8413  -31.2299   21.3014 H   0  0  0  0  0  0
  -23.3759  -35.9455   23.3290 H   0  0  0  0  0  0
  -24.3551  -36.8796   22.2071 H   0  0  0  0  0  0
  -23.7282  -37.6311   23.6733 H   0  0  0  0  0  0
  -26.2966  -31.2339   20.6088 H   0  0  0  0  0  0
  -26.9530  -30.5891   22.0610 H   0  0  0  0  0  0
  -28.1847  -28.3464   21.2682 H   0  0  0  0  0  0
  -25.8070  -25.5817   19.0101 H   0  0  0  0  0  0
  -24.0174  -27.1985   18.9415 H   0  0  0  0  0  0
  -23.9474  -30.4361   19.3672 H   0  0  0  0  0  0
  -22.8736  -29.1507   19.8182 H   0  0  0  0  0  0
  -25.1375  -36.1573   25.0759 H   0  0  0  0  0  0
  -21.0054  -28.3407   24.1262 H   0  0  0  0  0  0
  -20.5667  -26.2393   23.3681 H   0  0  0  0  0  0
  -21.6669  -26.7366   22.1244 H   0  0  0  0  0  0
  -19.6937  -25.6263   21.1295 H   0  0  0  0  0  0
  -19.6758  -27.3163   20.6747 H   0  0  0  0  0  0
  -17.4244  -26.6700   21.4008 H   0  0  0  0  0  0
  -18.0319  -26.0154   22.9047 H   0  0  0  0  0  0
  -19.8010  -30.7359   24.2123 H   0  0  0  0  0  0
  -17.5082  -31.6291   24.5183 H   0  0  0  0  0  0
  -15.5412  -30.2989   23.7752 H   0  0  0  0  0  0
  -15.8702  -28.0852   22.7092 H   0  0  0  0  0  0
  -24.5907  -30.7054   25.7494 H   0  0  0  0  0  0
  -24.8775  -32.3010   26.4359 H   0  0  0  0  0  0
  -25.7812  -30.9124   27.0138 H   0  0  0  0  0  0
  -26.3258  -29.6401   24.1558 H   0  0  0  0  0  0
  -27.4008  -29.7233   25.5263 H   0  0  0  0  0  0
  -27.9219  -30.3915   24.0011 H   0  0  0  0  0  0
  -27.2638  -33.3666   26.1808 H   0  0  0  0  0  0
  -28.4031  -32.6711   25.0402 H   0  0  0  0  0  0
  -28.0568  -31.8541   26.5565 H   0  0  0  0  0  0
  -28.2562  -38.0003   24.7478 H   0  0  0  0  0  0
  -28.1008  -36.2533   24.6364 H   0  0  0  0  0  0
  -27.2229  -37.1449   25.8871 H   0  0  0  0  0  0
  -20.9727  -29.8672   21.6550 H   0  0  0  0  0  0
  -26.0049  -38.2654   24.1436 H   0  0  0  0  0  0
  -27.5178  -22.9485   22.2585 H   0  0  0  0  0  0
  -29.1735  -23.4311   22.1215 H   0  0  0  0  0  0
  -28.3619  -22.0620   18.4922 H   0  0  0  0  0  0
  -29.8234  -22.3457   19.3367 H   0  0  0  0  0  0
  -29.9922  -21.3371   21.7352 H   0  0  0  0  0  0
  -27.7027  -20.1917   20.1638 H   0  0  0  0  0  0
  -27.0192  -23.5191   20.0691 H   0  0  0  0  0  0
  -29.2283  -19.9028   23.2802 H   0  0  0  0  0  0
  -27.7066  -19.6484   22.4702 H   0  0  0  0  0  0
  -27.8985  -21.0251   23.5372 H   0  0  0  0  0  0
  -31.3498  -18.1195   18.7411 H   0  0  0  0  0  0
  -31.6941  -19.1283   20.1568 H   0  0  0  0  0  0
  -31.0199  -19.8413   18.6957 H   0  0  0  0  0  0
  -29.0361  -18.5427   18.9206 H   0  0  0  0  0  0
  -28.5610  -16.7478   20.5538 H   0  0  0  0  0  0
  1 25  1  0  0  0
  1 30  2  0  0  0
  1 79  1  0  0  0
  2  3  1  0  0  0
  2 25  1  0  0  0
  2 80  1  0  0  0
  2 81  1  0  0  0
  3  4  1  0  0  0
  3 82  1  0  0  0
  3 83  1  0  0  0
  4  5  1  0  0  0
  4 84  1  0  0  0
  4 85  1  0  0  0
  5  6  1  0  0  0
  5 26  1  0  0  0
  5 86  1  0  0  0
  6 25  1  0  0  0
  6 87  1  0  0  0
  6 88  1  0  0  0
  7  8  2  0  0  0
  7 26  1  0  0  0
  7 29  1  0  0  0
  8  9  1  0  0  0
  8 22  1  0  0  0
  9 10  1  0  0  0
  9 27  2  0  0  0
 10 11  2  0  0  0
 10 15  1  0  0  0
 11 12  1  0  0  0
 11 89  1  0  0  0
 12 13  2  0  0  0
 12 90  1  0  0  0
 13 14  1  0  0  0
 13 31  1  0  0  0
 14 15  2  0  0  0
 14 91  1  0  0  0
 15 92  1  0  0  0
 16 17  2  0  0  0
 16 21  1  0  0  0
 16 31  1  0  0  0
 17 18  1  0  0  0
 17 93  1  0  0  0
 18 19  2  0  0  0
 18 94  1  0  0  0
 19 20  1  0  0  0
 19 24  1  0  0  0
 20 21  2  0  0  0
 20 95  1  0  0  0
 21 23  1  0  0  0
 22 28  1  0  0  0
 22 32  2  0  0  0
 26 27  1  0  0  0
 28 96  1  0  0  0
 28 97  1  0  0  0
 29 98  1  0  0  0
 29 99  1  0  0  0
 33 34  1  0  0  0
 33 66  1  0  0  0
 33 70  2  0  0  0
 34 36  1  0  0  0
 34 59  1  0  0  0
 34100  1  0  0  0
 35 44  2  0  0  0
 35 45  1  0  0  0
 35 68  1  0  0  0
 36 56  1  0  0  0
 36101  1  0  0  0
 37 39  1  0  0  0
 37 47  1  0  0  0
 37 66  1  0  0  0
 37102  1  0  0  0
 38 43  2  0  0  0
 38 46  1  0  0  0
 38 47  1  0  0  0
 39 64  1  0  0  0
 39 67  2  0  0  0
 40 52  1  0  0  0
 40 53  2  0  0  0
 40 58  1  0  0  0
 41103  1  0  0  0
 41104  1  0  0  0
 41105  1  0  0  0
 41 48  1  0  0  0
 42 43  1  0  0  0
 42 66  1  0  0  0
 42106  1  0  0  0
 42107  1  0  0  0
 43 44  1  0  0  0
 44108  1  0  0  0
 45 46  2  0  0  0
 45109  1  0  0  0
 46110  1  0  0  0
 47111  1  0  0  0
 47112  1  0  0  0
 48 56  1  0  0  0
 48 65  1  0  0  0
 48113  1  0  0  0
 49 50  1  0  0  0
 49 53  1  0  0  0
 49 64  1  0  0  0
 49114  1  0  0  0
 50 51  1  0  0  0
 50115  1  0  0  0
 50116  1  0  0  0
 51 52  1  0  0  0
 51117  1  0  0  0
 51118  1  0  0  0
 52119  1  0  0  0
 52120  1  0  0  0
 53 54  1  0  0  0
 54 55  2  0  0  0
 54121  1  0  0  0
 55 57  1  0  0  0
 55122  1  0  0  0
 56 69  2  0  0  0
 57 58  2  0  0  0
 57123  1  0  0  0
 58124  1  0  0  0
 59 60  1  0  0  0
 59 61  1  0  0  0
 59 62  1  0  0  0
 60125  1  0  0  0
 60126  1  0  0  0
 60127  1  0  0  0
 61128  1  0  0  0
 61129  1  0  0  0
 61130  1  0  0  0
 62131  1  0  0  0
 62132  1  0  0  0
 62133  1  0  0  0
 63 65  1  0  0  0
 63134  1  0  0  0
 63135  1  0  0  0
 63136  1  0  0  0
 64137  1  0  0  0
 65138  1  0  0  0
 68 75  1  0  0  0
 71 73  1  0  0  0
 71 75  1  0  0  0
 71139  1  0  0  0
 71140  1  0  0  0
 72 75  1  0  0  0
 72141  1  0  0  0
 72142  1  0  0  0
 72 74  1  0  0  0
 73 74  1  0  0  0
 73 76  1  0  0  0
 73143  1  0  0  0
 74 78  1  0  0  0
 74144  1  0  0  0
 75145  1  0  0  0
 76146  1  0  0  0
 76147  1  0  0  0
 76148  1  0  0  0
 77149  1  0  0  0
 77150  1  0  0  0
 77151  1  0  0  0
 77 78  1  0  0  0
 78 79  1  0  0  0
 78152  1  0  0  0
 79153  1  0  0  0
M  ISO  4   1 100  68 101  75 101  79 100
M  END
> <chiral flag>
0

> <version>
0

> <s_m_source_file>
/data/baiqing/PycharmProjects/Reinvent-master-3.2/result/LINK_invent/BTK/process_docking_weight1_custom_sum_contain_oxygen_bond_distance_aromatic_linkinvent_7_9_3/rearranged_h_0145.sdf

> <i_m_source_file_index>
29

> <r_mmod_Potential_Energy-OPLS-2005>
2666.5673828125

> <r_mmod_Stretch_Energy-OPLS-2005>
1132.71520996094

> <r_mmod_Bend_Energy-OPLS-2005>
780.910217285156

> <r_mmod_Torsional_Energy-OPLS-2005>
287.007415771484

> <r_mmod_Improper_Torsional_Energy-OPLS-2005>
4.03712511062622

> <r_mmod_Van_der_Waal_Energy-OPLS-2005>
105.722274780273

> <r_mmod_Electrostatic_Energy-OPLS-2005>
-354.389556884766

> <r_mmod_Solvation_Energy-OPLS-2005>
-207.693344116211

> <b_mmod_Minimization_Converged-OPLS-2005>
0

> <r_mmod_RMS_Derivative-OPLS-2005>
5.45894956588745

$$$$
30
                    3D
 Structure written by MMmdl.
164174  0  0  1  0            999 V2000
  -30.6842  -14.4483   20.5905 C   0  0  0  0  0  0
  -30.4299  -12.2998   19.4117 C   0  0  0  0  0  0
  -29.4961  -12.5180   18.2010 C   0  0  0  0  0  0
  -28.0136  -12.3875   18.6039 C   0  0  0  0  0  0
  -27.6656  -13.2046   19.8741 C   0  0  2  0  0  0
  -28.7049  -12.9407   20.9887 C   0  0  0  0  0  0
  -25.2606  -13.8175   20.5640 C   0  0  0  0  0  0
  -24.1835  -13.0461   20.9166 C   0  0  0  0  0  0
  -24.6407  -11.6926   20.8726 C   0  0  0  0  0  0
  -23.9060  -10.4315   21.0397 C   0  0  0  0  0  0
  -24.3632   -9.4236   21.9171 C   0  0  0  0  0  0
  -23.6337   -8.2252   22.0731 C   0  0  0  0  0  0
  -22.4315   -8.0287   21.3518 C   0  0  0  0  0  0
  -21.9922   -9.0264   20.4626 C   0  0  0  0  0  0
  -22.7242  -10.2157   20.3043 C   0  0  0  0  0  0
  -21.6879   -6.0767   22.5287 C   0  0  0  0  0  0
  -21.4023   -6.5657   23.8223 C   0  0  0  0  0  0
  -21.3655   -5.6794   24.9168 C   0  0  0  0  0  0
  -21.6054   -4.3055   24.7211 C   0  0  0  0  0  0
  -21.8815   -3.8169   23.4319 C   0  0  0  0  0  0
  -21.9192   -4.6997   22.3389 C   0  0  0  0  0  0
  -22.7857  -13.5260   21.1840 C   0  0  0  0  0  0
  -22.1655   -4.2186   21.0964 F   0  0  0  0  0  0
  -21.5635   -3.4533   25.7715 F   0  0  0  0  0  0
  -30.0417  -13.2599   20.4527 N   0  0  0  0  0  0
  -26.3045  -12.9349   20.3336 N   0  0  0  0  0  0
  -25.9330  -11.6518   20.5732 N   0  0  0  0  0  0
  -22.0454  -12.8284   22.0389 N   0  0  0  0  0  0
  -25.4363  -15.1890   20.4036 N   0  0  0  0  0  0
  -31.7831  -14.6796   20.0765 O   0  0  0  0  0  0
  -21.6656   -6.8910   21.4244 O   0  0  0  0  0  0
  -22.3520  -14.5558   20.6667 O   0  0  0  0  0  0
  -24.6146  -31.8693   23.2087 C   0  0  0  0  0  0
  -25.9029  -32.4841   23.8397 C   0  0  1  0  0  0
  -27.2330  -27.4345   20.0739 C   0  0  0  0  0  0
  -25.5869  -33.8631   24.2315 N   0  0  0  0  0  0
  -23.4015  -30.4931   21.5521 C   0  0  2  0  0  0
  -24.8440  -28.9560   20.1195 C   0  0  0  0  0  0
  -22.7407  -29.4655   22.4982 C   0  0  0  0  0  0
  -18.0264  -28.1395   22.8474 C   0  0  0  0  0  0
  -24.1489  -36.7328   23.2638 C   0  0  0  0  0  0
  -25.9310  -30.8290   21.3632 C   0  0  0  0  0  0
  -26.0067  -29.4617   20.7150 C   0  0  0  0  0  0
  -27.2008  -28.7065   20.6926 C   0  0  0  0  0  0
  -26.0466  -26.9426   19.4798 C   0  0  0  0  0  0
  -24.8586  -27.6939   19.5061 C   0  0  0  0  0  0
  -23.6104  -29.8270   20.1675 C   0  0  0  0  0  0
  -25.4110  -36.3127   24.0338 C   0  0  1  0  0  0
  -20.5854  -28.3663   23.1313 C   0  0  2  0  0  0
  -20.6748  -26.9397   22.5420 C   0  0  0  0  0  0
  -19.5735  -26.6378   21.5209 C   0  0  0  0  0  0
  -18.1909  -26.7933   22.1610 C   0  0  0  0  0  0
  -19.1518  -28.8841   23.2887 C   0  0  0  0  0  0
  -18.9452  -30.1435   23.8923 C   0  0  0  0  0  0
  -17.6459  -30.6608   24.0559 C   0  0  0  0  0  0
  -25.9035  -34.9487   23.5133 C   0  0  0  0  0  0
  -16.5341  -29.9119   23.6311 C   0  0  0  0  0  0
  -16.7251  -28.6524   23.0340 C   0  0  0  0  0  0
  -26.4452  -31.6621   25.0728 C   0  0  0  0  0  0
  -25.3711  -31.3729   26.1476 C   0  0  0  0  0  0
  -27.0272  -30.3065   24.6089 C   0  0  0  0  0  0
  -27.6053  -32.4332   25.7468 C   0  0  0  0  0  0
  -27.5588  -37.1812   24.8456 C   0  0  0  0  0  0
  -21.4138  -29.3025   22.3725 N   0  0  0  0  0  0
  -26.4285  -37.3815   23.9420 N   0  0  0  0  0  0
  -24.6685  -31.0774   22.1002 N   0  0  0  0  0  0
  -23.4181  -28.8177   23.3012 O   0  0  0  0  0  0
  -28.4213  -26.7270   20.0759 O   0  0  0  0  0  0
  -26.5611  -34.8931   22.4708 O   0  0  0  0  0  0
  -23.5324  -32.1437   23.7467 O   0  0  0  0  0  0
  -29.6324  -20.0089   20.1050 C   0  0  0  0  0  0
  -27.9466  -20.9123   18.6384 C   0  0  0  0  0  0
  -29.5096  -18.7604   19.4461 C   0  0  0  0  0  0
  -28.8560  -21.1107   19.6893 C   0  0  0  0  0  0
  -28.5839  -18.6886   18.3701 C   0  0  0  0  0  0
  -29.3487  -16.7578   16.6904 C   0  0  0  0  0  0
  -28.2668  -17.5672   16.0309 C   0  0  0  0  0  0
  -31.3583  -17.5750   21.0004 C   0  0  0  0  0  0
  -30.3369  -17.5590   19.8719 C   0  0  1  0  0  0
  -28.3072  -17.4563   17.5469 C   0  0  0  0  0  0
  -30.0452  -16.8360   21.1806 C   0  0  1  0  0  0
  -29.7287  -24.6761   20.0316 C   0  0  0  0  0  0
  -28.4189  -25.3687   19.6177 C   0  0  0  0  0  0
  -29.8581  -23.2135   19.5682 C   0  0  0  0  0  0
  -27.8110  -19.7354   18.0000 N   0  0  0  0  0  0
  -29.9463  -15.3965   21.1989 N   0  0  0  0  0  0
  -28.9791  -22.3455   20.2798 O   0  0  0  0  0  0
  -31.4729  -12.4103   19.1113 H   0  0  0  0  0  0
  -30.3426  -11.2809   19.7883 H   0  0  0  0  0  0
  -29.7322  -11.8005   17.4152 H   0  0  0  0  0  0
  -29.6709  -13.5078   17.7768 H   0  0  0  0  0  0
  -27.8003  -11.3314   18.7697 H   0  0  0  0  0  0
  -27.3731  -12.6960   17.7774 H   0  0  0  0  0  0
  -27.7260  -14.2568   19.5961 H   0  0  0  0  0  0
  -28.6682  -11.8913   21.2895 H   0  0  0  0  0  0
  -28.4612  -13.5019   21.8903 H   0  0  0  0  0  0
  -25.2776   -9.5763   22.4724 H   0  0  0  0  0  0
  -24.0079   -7.4650   22.7444 H   0  0  0  0  0  0
  -21.0847   -8.8794   19.8932 H   0  0  0  0  0  0
  -22.3690  -10.9701   19.6147 H   0  0  0  0  0  0
  -21.2015   -7.6159   23.9763 H   0  0  0  0  0  0
  -21.1476   -6.0489   25.9082 H   0  0  0  0  0  0
  -22.0596   -2.7633   23.2797 H   0  0  0  0  0  0
  -22.4091  -12.0017   22.4883 H   0  0  0  0  0  0
  -21.1049  -13.1306   22.2513 H   0  0  0  0  0  0
  -24.6750  -15.8516   20.5055 H   0  0  0  0  0  0
  -26.3017  -15.6214   20.1069 H   0  0  0  0  0  0
  -26.7081  -32.5552   23.1150 H   0  0  0  0  0  0
  -24.9962  -33.9783   25.0418 H   0  0  0  0  0  0
  -22.6888  -31.3084   21.4169 H   0  0  0  0  0  0
  -23.3753  -35.9663   23.3311 H   0  0  0  0  0  0
  -24.3574  -36.8937   22.2049 H   0  0  0  0  0  0
  -23.7233  -37.6526   23.6653 H   0  0  0  0  0  0
  -26.0376  -31.5842   20.5845 H   0  0  0  0  0  0
  -26.8233  -30.8872   21.9760 H   0  0  0  0  0  0
  -28.0975  -29.0940   21.1532 H   0  0  0  0  0  0
  -26.0147  -25.9855   18.9804 H   0  0  0  0  0  0
  -23.9639  -27.2992   19.0436 H   0  0  0  0  0  0
  -23.7270  -30.6045   19.4117 H   0  0  0  0  0  0
  -22.7326  -29.2524   19.8648 H   0  0  0  0  0  0
  -25.1290  -36.1993   25.0826 H   0  0  0  0  0  0
  -20.9922  -28.3250   24.1442 H   0  0  0  0  0  0
  -20.5640  -26.2280   23.3612 H   0  0  0  0  0  0
  -21.6625  -26.7446   22.1235 H   0  0  0  0  0  0
  -19.6894  -25.6291   21.1237 H   0  0  0  0  0  0
  -19.6695  -27.3193   20.6745 H   0  0  0  0  0  0
  -17.4177  -26.6672   21.4005 H   0  0  0  0  0  0
  -18.0319  -26.0091   22.9024 H   0  0  0  0  0  0
  -19.7928  -30.7216   24.2338 H   0  0  0  0  0  0
  -17.5029  -31.6291   24.5163 H   0  0  0  0  0  0
  -15.5348  -30.3044   23.7619 H   0  0  0  0  0  0
  -15.8638  -28.0856   22.7056 H   0  0  0  0  0  0
  -24.5857  -30.7127   25.7774 H   0  0  0  0  0  0
  -24.8933  -32.2888   26.4951 H   0  0  0  0  0  0
  -25.8034  -30.8834   27.0210 H   0  0  0  0  0  0
  -26.2803  -29.6847   24.1138 H   0  0  0  0  0  0
  -27.4031  -29.7274   25.4529 H   0  0  0  0  0  0
  -27.8643  -30.4391   23.9241 H   0  0  0  0  0  0
  -27.2695  -33.3590   26.2140 H   0  0  0  0  0  0
  -28.3793  -32.6960   25.0254 H   0  0  0  0  0  0
  -28.0818  -31.8415   26.5289 H   0  0  0  0  0  0
  -28.2601  -38.0110   24.7521 H   0  0  0  0  0  0
  -28.1078  -36.2644   24.6264 H   0  0  0  0  0  0
  -27.2301  -37.1445   25.8850 H   0  0  0  0  0  0
  -20.9310  -29.8740   21.6946 H   0  0  0  0  0  0
  -26.0184  -38.2885   24.1457 H   0  0  0  0  0  0
  -30.3163  -20.1424   20.9272 H   0  0  0  0  0  0
  -27.3142  -21.7195   18.2979 H   0  0  0  0  0  0
  -30.3574  -17.1639   16.6695 H   0  0  0  0  0  0
  -29.2807  -15.6762   16.5854 H   0  0  0  0  0  0
  -27.4695  -17.0382   15.5129 H   0  0  0  0  0  0
  -28.5782  -18.5045   15.5692 H   0  0  0  0  0  0
  -31.4952  -18.4651   21.6085 H   0  0  0  0  0  0
  -32.2670  -16.9918   20.8721 H   0  0  0  0  0  0
  -30.6360  -16.9758   19.0058 H   0  0  0  0  0  0
  -27.5426  -16.8426   18.0186 H   0  0  0  0  0  0
  -29.3490  -17.3371   21.8526 H   0  0  0  0  0  0
  -29.8483  -24.7297   21.1135 H   0  0  0  0  0  0
  -30.5621  -25.2346   19.6032 H   0  0  0  0  0  0
  -27.5771  -24.8098   20.0314 H   0  0  0  0  0  0
  -28.3229  -25.3610   18.5301 H   0  0  0  0  0  0
  -30.8782  -22.8694   19.7480 H   0  0  0  0  0  0
  -29.6937  -23.1508   18.4896 H   0  0  0  0  0  0
  -29.1015  -15.0395   21.6220 H   0  0  0  0  0  0
  1 25  1  0  0  0
  1 30  2  0  0  0
  1 86  1  0  0  0
  2  3  1  0  0  0
  2 25  1  0  0  0
  2 88  1  0  0  0
  2 89  1  0  0  0
  3  4  1  0  0  0
  3 90  1  0  0  0
  3 91  1  0  0  0
  4  5  1  0  0  0
  4 92  1  0  0  0
  4 93  1  0  0  0
  5  6  1  0  0  0
  5 26  1  0  0  0
  5 94  1  0  0  0
  6 25  1  0  0  0
  6 95  1  0  0  0
  6 96  1  0  0  0
  7  8  2  0  0  0
  7 26  1  0  0  0
  7 29  1  0  0  0
  8  9  1  0  0  0
  8 22  1  0  0  0
  9 10  1  0  0  0
  9 27  2  0  0  0
 10 11  2  0  0  0
 10 15  1  0  0  0
 11 12  1  0  0  0
 11 97  1  0  0  0
 12 13  2  0  0  0
 12 98  1  0  0  0
 13 14  1  0  0  0
 13 31  1  0  0  0
 14 15  2  0  0  0
 14 99  1  0  0  0
 15100  1  0  0  0
 16 17  2  0  0  0
 16 21  1  0  0  0
 16 31  1  0  0  0
 17 18  1  0  0  0
 17101  1  0  0  0
 18 19  2  0  0  0
 18102  1  0  0  0
 19 20  1  0  0  0
 19 24  1  0  0  0
 20 21  2  0  0  0
 20103  1  0  0  0
 21 23  1  0  0  0
 22 28  1  0  0  0
 22 32  2  0  0  0
 26 27  1  0  0  0
 28104  1  0  0  0
 28105  1  0  0  0
 29106  1  0  0  0
 29107  1  0  0  0
 33 34  1  0  0  0
 33 66  1  0  0  0
 33 70  2  0  0  0
 34 36  1  0  0  0
 34 59  1  0  0  0
 34108  1  0  0  0
 35 44  2  0  0  0
 35 45  1  0  0  0
 35 68  1  0  0  0
 36 56  1  0  0  0
 36109  1  0  0  0
 37 39  1  0  0  0
 37 47  1  0  0  0
 37 66  1  0  0  0
 37110  1  0  0  0
 38 43  2  0  0  0
 38 46  1  0  0  0
 38 47  1  0  0  0
 39 64  1  0  0  0
 39 67  2  0  0  0
 40 52  1  0  0  0
 40 53  2  0  0  0
 40 58  1  0  0  0
 41111  1  0  0  0
 41112  1  0  0  0
 41113  1  0  0  0
 41 48  1  0  0  0
 42 43  1  0  0  0
 42 66  1  0  0  0
 42114  1  0  0  0
 42115  1  0  0  0
 43 44  1  0  0  0
 44116  1  0  0  0
 45 46  2  0  0  0
 45117  1  0  0  0
 46118  1  0  0  0
 47119  1  0  0  0
 47120  1  0  0  0
 48 56  1  0  0  0
 48 65  1  0  0  0
 48121  1  0  0  0
 49 50  1  0  0  0
 49 53  1  0  0  0
 49 64  1  0  0  0
 49122  1  0  0  0
 50 51  1  0  0  0
 50123  1  0  0  0
 50124  1  0  0  0
 51 52  1  0  0  0
 51125  1  0  0  0
 51126  1  0  0  0
 52127  1  0  0  0
 52128  1  0  0  0
 53 54  1  0  0  0
 54 55  2  0  0  0
 54129  1  0  0  0
 55 57  1  0  0  0
 55130  1  0  0  0
 56 69  2  0  0  0
 57 58  2  0  0  0
 57131  1  0  0  0
 58132  1  0  0  0
 59 60  1  0  0  0
 59 61  1  0  0  0
 59 62  1  0  0  0
 60133  1  0  0  0
 60134  1  0  0  0
 60135  1  0  0  0
 61136  1  0  0  0
 61137  1  0  0  0
 61138  1  0  0  0
 62139  1  0  0  0
 62140  1  0  0  0
 62141  1  0  0  0
 63 65  1  0  0  0
 63142  1  0  0  0
 63143  1  0  0  0
 63144  1  0  0  0
 64145  1  0  0  0
 65146  1  0  0  0
 68 83  1  0  0  0
 71 73  2  0  0  0
 71 74  1  0  0  0
 71147  1  0  0  0
 72 74  2  0  0  0
 72 85  1  0  0  0
 72148  1  0  0  0
 73 75  1  0  0  0
 73 79  1  0  0  0
 74 87  1  0  0  0
 75 85  2  0  0  0
 75 80  1  0  0  0
 76 77  1  0  0  0
 76 80  1  0  0  0
 76149  1  0  0  0
 76150  1  0  0  0
 77 80  1  0  0  0
 77151  1  0  0  0
 77152  1  0  0  0
 78 79  1  0  0  0
 78 81  1  0  0  0
 78153  1  0  0  0
 78154  1  0  0  0
 79 81  1  0  0  0
 79155  1  0  0  0
 80156  1  0  0  0
 81 86  1  0  0  0
 81157  1  0  0  0
 82 83  1  0  0  0
 82 84  1  0  0  0
 82158  1  0  0  0
 82159  1  0  0  0
 83160  1  0  0  0
 83161  1  0  0  0
 84 87  1  0  0  0
 84162  1  0  0  0
 84163  1  0  0  0
 86164  1  0  0  0
M  ISO  4   1 100  68 101  83 101  86 100
M  END
> <chiral flag>
0

> <version>
0

> <s_m_source_file>
/data/baiqing/PycharmProjects/Reinvent-master-3.2/result/LINK_invent/BTK/process_docking_weight1_custom_sum_contain_oxygen_bond_distance_aromatic_linkinvent_7_9_3/rearranged_h_0145.sdf

> <i_m_source_file_index>
30

> <r_mmod_Potential_Energy-OPLS-2005>
-95.9393310546875

> <r_mmod_Stretch_Energy-OPLS-2005>
36.4492568969727

> <r_mmod_Bend_Energy-OPLS-2005>
106.466285705566

> <r_mmod_Torsional_Energy-OPLS-2005>
323.782379150391

> <r_mmod_Improper_Torsional_Energy-OPLS-2005>
3.84370732307434

> <r_mmod_Van_der_Waal_Energy-OPLS-2005>
150.800262451172

> <r_mmod_Electrostatic_Energy-OPLS-2005>
-505.466400146484

> <r_mmod_Solvation_Energy-OPLS-2005>
-222.784210205078

> <b_mmod_Minimization_Converged-OPLS-2005>
0

> <r_mmod_RMS_Derivative-OPLS-2005>
4.14234924316406

$$$$
31
                    3D
 Structure written by MMmdl.
166176  0  0  1  0            999 V2000
  -30.4346  -15.2035   20.3749 C   0  0  0  0  0  0
  -30.4461  -12.7596   19.5245 C   0  0  0  0  0  0
  -29.5369  -12.5712   18.2836 C   0  0  0  0  0  0
  -28.0811  -12.3080   18.7060 C   0  0  0  0  0  0
  -27.6195  -13.2678   19.8303 C   0  0  2  0  0  0
  -28.6558  -13.3937   20.9688 C   0  0  0  0  0  0
  -25.2426  -13.8236   20.5757 C   0  0  0  0  0  0
  -24.1759  -13.0446   20.9269 C   0  0  0  0  0  0
  -24.6390  -11.6936   20.8748 C   0  0  0  0  0  0
  -23.9077  -10.4296   21.0391 C   0  0  0  0  0  0
  -24.3616   -9.4215   21.9174 C   0  0  0  0  0  0
  -23.6291   -8.2249   22.0750 C   0  0  0  0  0  0
  -22.4270   -8.0283   21.3544 C   0  0  0  0  0  0
  -21.9907   -9.0260   20.4646 C   0  0  0  0  0  0
  -22.7245  -10.2134   20.3050 C   0  0  0  0  0  0
  -21.6860   -6.0731   22.5281 C   0  0  0  0  0  0
  -21.4025   -6.5629   23.8215 C   0  0  0  0  0  0
  -21.3660   -5.6785   24.9177 C   0  0  0  0  0  0
  -21.6037   -4.3047   24.7227 C   0  0  0  0  0  0
  -21.8821   -3.8141   23.4350 C   0  0  0  0  0  0
  -21.9199   -4.6959   22.3408 C   0  0  0  0  0  0
  -22.7777  -13.5215   21.1919 C   0  0  0  0  0  0
  -22.1663   -4.2144   21.0989 F   0  0  0  0  0  0
  -21.5623   -3.4530   25.7737 F   0  0  0  0  0  0
  -29.9014  -13.8883   20.3598 N   0  0  0  0  0  0
  -26.2846  -12.9498   20.3227 N   0  0  0  0  0  0
  -25.9328  -11.6607   20.5707 N   0  0  0  0  0  0
  -22.0409  -12.8192   22.0443 N   0  0  0  0  0  0
  -25.4060  -15.1971   20.4206 N   0  0  0  0  0  0
  -31.6437  -15.2473   20.0962 O   0  0  0  0  0  0
  -21.6640   -6.8874   21.4238 O   0  0  0  0  0  0
  -22.3465  -14.5524   20.6763 O   0  0  0  0  0  0
  -24.6590  -31.8281   23.1745 C   0  0  0  0  0  0
  -25.9299  -32.4615   23.8188 C   0  0  1  0  0  0
  -27.2187  -26.9635   20.1657 C   0  0  0  0  0  0
  -25.5983  -33.8424   24.2106 N   0  0  0  0  0  0
  -23.4719  -30.4414   21.5222 C   0  0  2  0  0  0
  -24.9271  -28.8413   20.1056 C   0  0  0  0  0  0
  -22.7652  -29.4464   22.4788 C   0  0  0  0  0  0
  -18.0324  -28.1424   22.8470 C   0  0  0  0  0  0
  -24.1486  -36.7203   23.2642 C   0  0  0  0  0  0
  -26.0393  -30.6425   21.4036 C   0  0  0  0  0  0
  -26.1066  -29.2373   20.7466 C   0  0  0  0  0  0
  -27.2418  -28.3135   20.7666 C   0  0  0  0  0  0
  -26.0155  -26.7251   19.4605 C   0  0  0  0  0  0
  -24.9044  -27.6041   19.4461 C   0  0  0  0  0  0
  -23.7094  -29.7621   20.1460 C   0  0  0  0  0  0
  -25.4131  -36.2985   24.0301 C   0  0  1  0  0  0
  -20.5944  -28.3766   23.1197 C   0  0  2  0  0  0
  -20.6797  -26.9448   22.5408 C   0  0  0  0  0  0
  -19.5771  -26.6395   21.5216 C   0  0  0  0  0  0
  -18.1956  -26.7960   22.1623 C   0  0  0  0  0  0
  -19.1585  -28.8915   23.2820 C   0  0  0  0  0  0
  -18.9497  -30.1501   23.8866 C   0  0  0  0  0  0
  -17.6490  -30.6612   24.0564 C   0  0  0  0  0  0
  -25.9097  -34.9367   23.5025 C   0  0  0  0  0  0
  -16.5381  -29.9099   23.6345 C   0  0  0  0  0  0
  -16.7305  -28.6516   23.0366 C   0  0  0  0  0  0
  -26.4562  -31.6542   25.0700 C   0  0  0  0  0  0
  -25.3698  -31.3796   26.1366 C   0  0  0  0  0  0
  -27.0442  -30.2909   24.6410 C   0  0  0  0  0  0
  -27.6075  -32.4325   25.7498 C   0  0  0  0  0  0
  -27.5570  -37.1763   24.8468 C   0  0  0  0  0  0
  -21.4327  -29.3052   22.3542 N   0  0  0  0  0  0
  -26.4283  -37.3719   23.9407 N   0  0  0  0  0  0
  -24.7440  -30.9966   22.0871 N   0  0  0  0  0  0
  -23.4212  -28.8035   23.3023 O   0  0  0  0  0  0
  -28.2086  -25.8586   20.3043 O   0  0  0  0  0  0
  -26.5698  -34.8893   22.4615 O   0  0  0  0  0  0
  -23.5670  -32.1246   23.6856 O   0  0  0  0  0  0
  -29.5294  -18.7053   19.1460 C   0  0  0  0  0  0
  -29.2943  -20.1517   19.0028 C   0  0  0  0  0  0
  -29.1033  -21.1386   20.0222 C   0  0  0  0  0  0
  -29.1618  -20.3838   21.2645 C   0  0  0  0  0  0
  -29.5960  -18.0018   20.4047 C   0  0  0  0  0  0
  -29.2382  -20.8343   17.6837 C   0  0  0  0  0  0
  -28.7833  -22.2833   17.9806 C   0  0  0  0  0  0
  -29.0835  -25.0709   18.4735 C   0  0  0  0  0  0
  -30.5201  -23.3433   19.4370 C   0  0  0  0  0  0
  -28.2179  -24.3945   19.5742 C   0  0  1  0  0  0
  -29.0883  -22.7891   19.4631 C   0  0  2  0  0  0
  -30.2817  -21.1269   23.4090 C   0  0  0  0  0  0
  -27.7662  -20.6726   23.3582 C   0  0  0  0  0  0
  -28.9967  -21.1483   22.5700 C   0  0  0  0  0  0
  -29.3629  -18.9661   21.4093 N   0  0  0  0  0  0
  -29.6078  -16.4060   20.5661 N   0  0  0  0  0  0
  -30.4817  -24.6551   18.7487 N   0  3  0  0  0  0
  -31.4675  -12.9593   19.1972 H   0  0  0  0  0  0
  -30.5016  -11.8388   20.1065 H   0  0  0  0  0  0
  -29.9021  -11.7508   17.6640 H   0  0  0  0  0  0
  -29.5820  -13.4677   17.6627 H   0  0  0  0  0  0
  -28.0222  -11.2772   19.0580 H   0  0  0  0  0  0
  -27.4163  -12.3766   17.8437 H   0  0  0  0  0  0
  -27.5489  -14.2460   19.3534 H   0  0  0  0  0  0
  -28.8051  -12.4405   21.4779 H   0  0  0  0  0  0
  -28.3070  -14.0967   21.7272 H   0  0  0  0  0  0
  -25.2745   -9.5694   22.4769 H   0  0  0  0  0  0
  -24.0001   -7.4633   22.7463 H   0  0  0  0  0  0
  -21.0841   -8.8779   19.8945 H   0  0  0  0  0  0
  -22.3695  -10.9673   19.6166 H   0  0  0  0  0  0
  -21.2012   -7.6133   23.9719 H   0  0  0  0  0  0
  -21.1480   -6.0508   25.9082 H   0  0  0  0  0  0
  -22.0595   -2.7598   23.2859 H   0  0  0  0  0  0
  -22.4020  -11.9858   22.4844 H   0  0  0  0  0  0
  -21.1026  -13.1220   22.2634 H   0  0  0  0  0  0
  -24.6306  -15.8416   20.5341 H   0  0  0  0  0  0
  -26.2304  -15.6400   20.0390 H   0  0  0  0  0  0
  -26.7371  -32.5172   23.0900 H   0  0  0  0  0  0
  -25.0084  -33.9506   25.0227 H   0  0  0  0  0  0
  -22.7831  -31.2724   21.3560 H   0  0  0  0  0  0
  -23.3767  -35.9514   23.3294 H   0  0  0  0  0  0
  -24.3554  -36.8852   22.2057 H   0  0  0  0  0  0
  -23.7222  -37.6382   23.6696 H   0  0  0  0  0  0
  -26.2184  -31.3849   20.6247 H   0  0  0  0  0  0
  -26.9000  -30.6975   22.0578 H   0  0  0  0  0  0
  -28.1252  -28.6055   21.3172 H   0  0  0  0  0  0
  -25.8690  -25.7888   18.9478 H   0  0  0  0  0  0
  -24.0082  -27.2962   18.9255 H   0  0  0  0  0  0
  -23.8600  -30.5330   19.3895 H   0  0  0  0  0  0
  -22.8200  -29.2129   19.8305 H   0  0  0  0  0  0
  -25.1326  -36.1787   25.0792 H   0  0  0  0  0  0
  -21.0037  -28.3385   24.1317 H   0  0  0  0  0  0
  -20.5682  -26.2387   23.3648 H   0  0  0  0  0  0
  -21.6662  -26.7433   22.1214 H   0  0  0  0  0  0
  -19.6926  -25.6294   21.1271 H   0  0  0  0  0  0
  -19.6708  -27.3185   20.6728 H   0  0  0  0  0  0
  -17.4220  -26.6714   21.4027 H   0  0  0  0  0  0
  -18.0344  -26.0120   22.9036 H   0  0  0  0  0  0
  -19.7973  -30.7325   24.2225 H   0  0  0  0  0  0
  -17.5044  -31.6289   24.5176 H   0  0  0  0  0  0
  -15.5380  -30.2987   23.7693 H   0  0  0  0  0  0
  -15.8707  -28.0818   22.7105 H   0  0  0  0  0  0
  -24.5906  -30.7105   25.7692 H   0  0  0  0  0  0
  -24.8853  -32.2997   26.4645 H   0  0  0  0  0  0
  -25.7941  -30.9077   27.0239 H   0  0  0  0  0  0
  -26.3098  -29.6604   24.1386 H   0  0  0  0  0  0
  -27.3951  -29.7251   25.5051 H   0  0  0  0  0  0
  -27.9056  -30.4088   23.9833 H   0  0  0  0  0  0
  -27.2679  -33.3682   26.1949 H   0  0  0  0  0  0
  -28.3963  -32.6784   25.0377 H   0  0  0  0  0  0
  -28.0657  -31.8524   26.5520 H   0  0  0  0  0  0
  -28.2588  -38.0058   24.7512 H   0  0  0  0  0  0
  -28.1066  -36.2588   24.6306 H   0  0  0  0  0  0
  -27.2283  -37.1423   25.8871 H   0  0  0  0  0  0
  -20.9577  -29.8728   21.6664 H   0  0  0  0  0  0
  -26.0134  -38.2780   24.1418 H   0  0  0  0  0  0
  -29.6313  -18.1195   18.2436 H   0  0  0  0  0  0
  -28.5570  -20.3280   16.9990 H   0  0  0  0  0  0
  -30.2335  -20.8189   17.2381 H   0  0  0  0  0  0
  -27.7000  -22.3017   17.8551 H   0  0  0  0  0  0
  -29.1934  -22.8710   17.1655 H   0  0  0  0  0  0
  -29.0593  -26.1595   18.3934 H   0  0  0  0  0  0
  -28.7482  -24.7974   17.4778 H   0  0  0  0  0  0
  -31.2171  -22.6751   18.9303 H   0  0  0  0  0  0
  -30.8859  -23.4801   20.4557 H   0  0  0  0  0  0
  -27.2019  -24.2097   19.2360 H   0  0  0  0  0  0
  -31.1239  -21.5169   22.8362 H   0  0  0  0  0  0
  -30.5314  -20.1134   23.7224 H   0  0  0  0  0  0
  -30.1763  -21.7390   24.3048 H   0  0  0  0  0  0
  -26.8641  -20.7354   22.7483 H   0  0  0  0  0  0
  -27.6064  -21.2821   24.2473 H   0  0  0  0  0  0
  -27.8764  -19.6369   23.6798 H   0  0  0  0  0  0
  -28.8107  -22.1903   22.3086 H   0  0  0  0  0  0
  -28.7072  -16.0997   20.8969 H   0  0  0  0  0  0
  -30.9134  -25.3336   19.3567 H   0  0  0  0  0  0
  -31.0181  -24.6211   17.8962 H   0  0  0  0  0  0
  1 25  1  0  0  0
  1 30  2  0  0  0
  1 86  1  0  0  0
  2  3  1  0  0  0
  2 25  1  0  0  0
  2 88  1  0  0  0
  2 89  1  0  0  0
  3  4  1  0  0  0
  3 90  1  0  0  0
  3 91  1  0  0  0
  4  5  1  0  0  0
  4 92  1  0  0  0
  4 93  1  0  0  0
  5  6  1  0  0  0
  5 26  1  0  0  0
  5 94  1  0  0  0
  6 25  1  0  0  0
  6 95  1  0  0  0
  6 96  1  0  0  0
  7  8  2  0  0  0
  7 26  1  0  0  0
  7 29  1  0  0  0
  8  9  1  0  0  0
  8 22  1  0  0  0
  9 10  1  0  0  0
  9 27  2  0  0  0
 10 11  2  0  0  0
 10 15  1  0  0  0
 11 12  1  0  0  0
 11 97  1  0  0  0
 12 13  2  0  0  0
 12 98  1  0  0  0
 13 14  1  0  0  0
 13 31  1  0  0  0
 14 15  2  0  0  0
 14 99  1  0  0  0
 15100  1  0  0  0
 16 17  2  0  0  0
 16 21  1  0  0  0
 16 31  1  0  0  0
 17 18  1  0  0  0
 17101  1  0  0  0
 18 19  2  0  0  0
 18102  1  0  0  0
 19 20  1  0  0  0
 19 24  1  0  0  0
 20 21  2  0  0  0
 20103  1  0  0  0
 21 23  1  0  0  0
 22 28  1  0  0  0
 22 32  2  0  0  0
 26 27  1  0  0  0
 28104  1  0  0  0
 28105  1  0  0  0
 29106  1  0  0  0
 29107  1  0  0  0
 33 34  1  0  0  0
 33 66  1  0  0  0
 33 70  2  0  0  0
 34 36  1  0  0  0
 34 59  1  0  0  0
 34108  1  0  0  0
 35 44  2  0  0  0
 35 45  1  0  0  0
 35 68  1  0  0  0
 36 56  1  0  0  0
 36109  1  0  0  0
 37 39  1  0  0  0
 37 47  1  0  0  0
 37 66  1  0  0  0
 37110  1  0  0  0
 38 43  2  0  0  0
 38 46  1  0  0  0
 38 47  1  0  0  0
 39 64  1  0  0  0
 39 67  2  0  0  0
 40 52  1  0  0  0
 40 53  2  0  0  0
 40 58  1  0  0  0
 41111  1  0  0  0
 41112  1  0  0  0
 41113  1  0  0  0
 41 48  1  0  0  0
 42 43  1  0  0  0
 42 66  1  0  0  0
 42114  1  0  0  0
 42115  1  0  0  0
 43 44  1  0  0  0
 44116  1  0  0  0
 45 46  2  0  0  0
 45117  1  0  0  0
 46118  1  0  0  0
 47119  1  0  0  0
 47120  1  0  0  0
 48 56  1  0  0  0
 48 65  1  0  0  0
 48121  1  0  0  0
 49 50  1  0  0  0
 49 53  1  0  0  0
 49 64  1  0  0  0
 49122  1  0  0  0
 50 51  1  0  0  0
 50123  1  0  0  0
 50124  1  0  0  0
 51 52  1  0  0  0
 51125  1  0  0  0
 51126  1  0  0  0
 52127  1  0  0  0
 52128  1  0  0  0
 53 54  1  0  0  0
 54 55  2  0  0  0
 54129  1  0  0  0
 55 57  1  0  0  0
 55130  1  0  0  0
 56 69  2  0  0  0
 57 58  2  0  0  0
 57131  1  0  0  0
 58132  1  0  0  0
 59 60  1  0  0  0
 59 61  1  0  0  0
 59 62  1  0  0  0
 60133  1  0  0  0
 60134  1  0  0  0
 60135  1  0  0  0
 61136  1  0  0  0
 61137  1  0  0  0
 61138  1  0  0  0
 62139  1  0  0  0
 62140  1  0  0  0
 62141  1  0  0  0
 63 65  1  0  0  0
 63142  1  0  0  0
 63143  1  0  0  0
 63144  1  0  0  0
 64145  1  0  0  0
 65146  1  0  0  0
 68 80  1  0  0  0
 71 72  2  0  0  0
 71 75  1  0  0  0
 71147  1  0  0  0
 72 73  1  0  0  0
 72 76  1  0  0  0
 73 74  2  0  0  0
 73 81  1  0  0  0
 74 84  1  0  0  0
 74 85  1  0  0  0
 75 85  2  0  0  0
 75 86  1  0  0  0
 76 77  1  0  0  0
 76148  1  0  0  0
 76149  1  0  0  0
 77150  1  0  0  0
 77151  1  0  0  0
 77 81  1  0  0  0
 78 80  1  0  0  0
 78 87  1  0  0  0
 78152  1  0  0  0
 78153  1  0  0  0
 79 81  1  0  0  0
 79 87  1  0  0  0
 79154  1  0  0  0
 79155  1  0  0  0
 80 81  1  0  0  0
 80156  1  0  0  0
 82157  1  0  0  0
 82158  1  0  0  0
 82159  1  0  0  0
 82 84  1  0  0  0
 83 84  1  0  0  0
 83160  1  0  0  0
 83161  1  0  0  0
 83162  1  0  0  0
 84163  1  0  0  0
 86164  1  0  0  0
 87165  1  0  0  0
 87166  1  0  0  0
M  CHG  1  87   1
M  ISO  4   1 100  68 101  80 101  86 100
M  END
> <chiral flag>
0

> <version>
0

> <s_m_source_file>
/data/baiqing/PycharmProjects/Reinvent-master-3.2/result/LINK_invent/BTK/process_docking_weight1_custom_sum_contain_oxygen_bond_distance_aromatic_linkinvent_7_9_3/rearranged_h_0145.sdf

> <i_m_source_file_index>
31

> <r_mmod_Potential_Energy-OPLS-2005>
1072.61657714844

> <r_mmod_Stretch_Energy-OPLS-2005>
504.94970703125

> <r_mmod_Bend_Energy-OPLS-2005>
664.971557617188

> <r_mmod_Torsional_Energy-OPLS-2005>
303.592437744141

> <r_mmod_Improper_Torsional_Energy-OPLS-2005>
6.58502244949341

> <r_mmod_Van_der_Waal_Energy-OPLS-2005>
147.060028076172

> <r_mmod_Electrostatic_Energy-OPLS-2005>
-484.946350097656

> <r_mmod_Solvation_Energy-OPLS-2005>
-475.640258789062

> <b_mmod_Minimization_Converged-OPLS-2005>
0

> <r_mmod_RMS_Derivative-OPLS-2005>
1.56597721576691

$$$$
32
                    3D
 Structure written by MMmdl.
164173  0  0  1  0            999 V2000
  -30.6848  -14.4543   20.5631 C   0  0  0  0  0  0
  -30.4175  -12.2967   19.4122 C   0  0  0  0  0  0
  -29.4891  -12.4974   18.1987 C   0  0  0  0  0  0
  -28.0099  -12.3576   18.6130 C   0  0  0  0  0  0
  -27.6568  -13.1981   19.8714 C   0  0  2  0  0  0
  -28.6955  -12.9639   20.9910 C   0  0  0  0  0  0
  -25.2563  -13.8137   20.5658 C   0  0  0  0  0  0
  -24.1803  -13.0431   20.9173 C   0  0  0  0  0  0
  -24.6351  -11.6897   20.8735 C   0  0  0  0  0  0
  -23.9032  -10.4291   21.0405 C   0  0  0  0  0  0
  -24.3585   -9.4216   21.9192 C   0  0  0  0  0  0
  -23.6272   -8.2245   22.0764 C   0  0  0  0  0  0
  -22.4260   -8.0282   21.3557 C   0  0  0  0  0  0
  -21.9888   -9.0255   20.4669 C   0  0  0  0  0  0
  -22.7204  -10.2142   20.3075 C   0  0  0  0  0  0
  -21.6846   -6.0742   22.5283 C   0  0  0  0  0  0
  -21.4010   -6.5641   23.8224 C   0  0  0  0  0  0
  -21.3663   -5.6794   24.9179 C   0  0  0  0  0  0
  -21.6035   -4.3056   24.7226 C   0  0  0  0  0  0
  -21.8812   -3.8156   23.4342 C   0  0  0  0  0  0
  -21.9184   -4.6968   22.3403 C   0  0  0  0  0  0
  -22.7836  -13.5253   21.1845 C   0  0  0  0  0  0
  -22.1648   -4.2154   21.0979 F   0  0  0  0  0  0
  -21.5623   -3.4548   25.7740 F   0  0  0  0  0  0
  -30.0266  -13.2721   20.4385 N   0  0  0  0  0  0
  -26.2972  -12.9278   20.3317 N   0  0  0  0  0  0
  -25.9261  -11.6455   20.5734 N   0  0  0  0  0  0
  -22.0476  -12.8274   22.0411 N   0  0  0  0  0  0
  -25.4315  -15.1850   20.4066 N   0  0  0  0  0  0
  -31.8063  -14.6577   20.0935 O   0  0  0  0  0  0
  -21.6627   -6.8880   21.4253 O   0  0  0  0  0  0
  -22.3536  -14.5573   20.6701 O   0  0  0  0  0  0
  -24.6163  -31.8672   23.2092 C   0  0  0  0  0  0
  -25.9051  -32.4821   23.8402 C   0  0  1  0  0  0
  -27.2342  -27.4196   20.1003 C   0  0  0  0  0  0
  -25.5917  -33.8622   24.2349 N   0  0  0  0  0  0
  -23.4025  -30.4900   21.5496 C   0  0  2  0  0  0
  -24.8493  -28.9476   20.1189 C   0  0  0  0  0  0
  -22.7412  -29.4668   22.5003 C   0  0  0  0  0  0
  -18.0272  -28.1384   22.8499 C   0  0  0  0  0  0
  -24.1485  -36.7299   23.2633 C   0  0  0  0  0  0
  -25.9306  -30.8285   21.3630 C   0  0  0  0  0  0
  -26.0085  -29.4586   20.7144 C   0  0  0  0  0  0
  -27.2069  -28.7038   20.6954 C   0  0  0  0  0  0
  -26.0571  -26.9257   19.4977 C   0  0  0  0  0  0
  -24.8681  -27.6804   19.5083 C   0  0  0  0  0  0
  -23.6116  -29.8161   20.1664 C   0  0  0  0  0  0
  -25.4103  -36.3106   24.0336 C   0  0  1  0  0  0
  -20.5863  -28.3676   23.1325 C   0  0  2  0  0  0
  -20.6757  -26.9419   22.5409 C   0  0  0  0  0  0
  -19.5730  -26.6400   21.5210 C   0  0  0  0  0  0
  -18.1916  -26.7929   22.1632 C   0  0  0  0  0  0
  -19.1520  -28.8846   23.2917 C   0  0  0  0  0  0
  -18.9444  -30.1448   23.8932 C   0  0  0  0  0  0
  -17.6446  -30.6600   24.0564 C   0  0  0  0  0  0
  -25.9025  -34.9470   23.5133 C   0  0  0  0  0  0
  -16.5342  -29.9091   23.6329 C   0  0  0  0  0  0
  -16.7258  -28.6501   23.0362 C   0  0  0  0  0  0
  -26.4488  -31.6596   25.0722 C   0  0  0  0  0  0
  -25.3756  -31.3693   26.1468 C   0  0  0  0  0  0
  -27.0316  -30.3044   24.6089 C   0  0  0  0  0  0
  -27.6074  -32.4307   25.7474 C   0  0  0  0  0  0
  -27.5584  -37.1799   24.8475 C   0  0  0  0  0  0
  -21.4144  -29.3046   22.3738 N   0  0  0  0  0  0
  -26.4290  -37.3791   23.9423 N   0  0  0  0  0  0
  -24.6667  -31.0762   22.0991 N   0  0  0  0  0  0
  -23.4179  -28.8235   23.3067 O   0  0  0  0  0  0
  -28.4099  -26.6963   20.0913 O   0  0  0  0  0  0
  -26.5578  -34.8921   22.4693 O   0  0  0  0  0  0
  -23.5355  -32.1438   23.7486 O   0  0  0  0  0  0
  -30.1941  -22.6360   20.4203 C   0  0  0  0  0  0
  -28.5721  -21.9119   18.7786 C   0  0  0  0  0  0
  -30.6038  -21.2970   20.6165 C   0  0  0  0  0  0
  -29.1903  -22.9644   19.4892 C   0  0  0  0  0  0
  -28.9522  -20.5605   18.9708 C   0  0  0  0  0  0
  -29.9813  -20.2392   19.9036 C   0  0  0  0  0  0
  -32.8301  -21.9666   21.9122 C   0  0  0  0  0  0
  -33.1204  -20.7689   21.0415 C   0  0  0  0  0  0
  -31.7253  -20.9871   21.5710 C   0  0  0  0  0  0
  -28.2860  -19.5145   18.0890 C   0  0  0  0  0  0
  -28.8678  -24.4358   19.1790 C   0  0  0  0  0  0
  -30.3834  -16.8549   21.2258 C   0  0  0  0  0  0
  -28.3521  -25.2810   20.3682 C   0  0  0  0  0  0
  -29.7177  -17.7973   20.1915 C   0  0  0  0  0  0
  -29.9652  -15.4490   21.1073 N   0  0  0  0  0  0
  -30.5219  -18.9788   20.1102 O   0  0  0  0  0  0
  -31.4629  -12.3993   19.1133 H   0  0  0  0  0  0
  -30.3201  -11.2849   19.8035 H   0  0  0  0  0  0
  -29.7318  -11.7728   17.4212 H   0  0  0  0  0  0
  -29.6556  -13.4799   17.7541 H   0  0  0  0  0  0
  -27.8220  -11.3004   18.8101 H   0  0  0  0  0  0
  -27.3581  -12.6296   17.7810 H   0  0  0  0  0  0
  -27.7079  -14.2474   19.5794 H   0  0  0  0  0  0
  -28.6609  -11.9234   21.3193 H   0  0  0  0  0  0
  -28.4567  -13.5546   21.8761 H   0  0  0  0  0  0
  -25.2742   -9.5673   22.4750 H   0  0  0  0  0  0
  -23.9986   -7.4628   22.7468 H   0  0  0  0  0  0
  -21.0829   -8.8778   19.8965 H   0  0  0  0  0  0
  -22.3679  -10.9676   19.6174 H   0  0  0  0  0  0
  -21.2018   -7.6153   23.9726 H   0  0  0  0  0  0
  -21.1486   -6.0527   25.9080 H   0  0  0  0  0  0
  -22.0591   -2.7615   23.2852 H   0  0  0  0  0  0
  -22.4077  -11.9938   22.4822 H   0  0  0  0  0  0
  -21.1100  -13.1336   22.2616 H   0  0  0  0  0  0
  -24.6694  -15.8456   20.5208 H   0  0  0  0  0  0
  -26.2852  -15.6231   20.0853 H   0  0  0  0  0  0
  -26.7107  -32.5553   23.1159 H   0  0  0  0  0  0
  -25.0106  -33.9790   25.0516 H   0  0  0  0  0  0
  -22.6909  -31.3055   21.4090 H   0  0  0  0  0  0
  -23.3755  -35.9627   23.3301 H   0  0  0  0  0  0
  -24.3561  -36.8908   22.2044 H   0  0  0  0  0  0
  -23.7241  -37.6503   23.6638 H   0  0  0  0  0  0
  -26.0365  -31.5910   20.5907 H   0  0  0  0  0  0
  -26.8213  -30.8875   21.9759 H   0  0  0  0  0  0
  -28.1073  -29.0906   21.1511 H   0  0  0  0  0  0
  -26.0619  -25.9614   19.0093 H   0  0  0  0  0  0
  -23.9768  -27.2835   19.0406 H   0  0  0  0  0  0
  -23.7167  -30.5852   19.4003 H   0  0  0  0  0  0
  -22.7344  -29.2331   19.8790 H   0  0  0  0  0  0
  -25.1276  -36.1951   25.0824 H   0  0  0  0  0  0
  -20.9948  -28.3231   24.1446 H   0  0  0  0  0  0
  -20.5657  -26.2293   23.3594 H   0  0  0  0  0  0
  -21.6628  -26.7458   22.1209 H   0  0  0  0  0  0
  -19.6882  -25.6310   21.1236 H   0  0  0  0  0  0
  -19.6656  -27.3214   20.6741 H   0  0  0  0  0  0
  -17.4179  -26.6684   21.4040 H   0  0  0  0  0  0
  -18.0321  -26.0062   22.9023 H   0  0  0  0  0  0
  -19.7918  -30.7261   24.2316 H   0  0  0  0  0  0
  -17.4999  -31.6276   24.5171 H   0  0  0  0  0  0
  -15.5340  -30.3012   23.7624 H   0  0  0  0  0  0
  -15.8655  -28.0823   22.7081 H   0  0  0  0  0  0
  -24.5923  -30.7055   25.7801 H   0  0  0  0  0  0
  -24.8951  -32.2837   26.4947 H   0  0  0  0  0  0
  -25.8093  -30.8834   27.0217 H   0  0  0  0  0  0
  -26.2849  -29.6804   24.1163 H   0  0  0  0  0  0
  -27.4115  -29.7284   25.4539 H   0  0  0  0  0  0
  -27.8677  -30.4375   23.9221 H   0  0  0  0  0  0
  -27.2718  -33.3610   26.2078 H   0  0  0  0  0  0
  -28.3866  -32.6869   25.0280 H   0  0  0  0  0  0
  -28.0770  -31.8417   26.5367 H   0  0  0  0  0  0
  -28.2602  -38.0097   24.7521 H   0  0  0  0  0  0
  -28.1072  -36.2623   24.6288 H   0  0  0  0  0  0
  -27.2297  -37.1447   25.8879 H   0  0  0  0  0  0
  -20.9292  -29.8752   21.6961 H   0  0  0  0  0  0
  -26.0173  -38.2867   24.1432 H   0  0  0  0  0  0
  -30.6875  -23.4296   20.9628 H   0  0  0  0  0  0
  -27.8262  -22.1456   18.0313 H   0  0  0  0  0  0
  -32.8492  -22.9442   21.4342 H   0  0  0  0  0  0
  -33.2511  -21.9365   22.9148 H   0  0  0  0  0  0
  -33.6995  -19.9613   21.4796 H   0  0  0  0  0  0
  -33.2981  -20.9461   19.9821 H   0  0  0  0  0  0
  -31.3862  -20.3208   22.3633 H   0  0  0  0  0  0
  -27.5167  -18.9733   18.6399 H   0  0  0  0  0  0
  -29.0137  -18.8022   17.7037 H   0  0  0  0  0  0
  -27.8024  -19.9711   17.2255 H   0  0  0  0  0  0
  -28.1539  -24.4975   18.3564 H   0  0  0  0  0  0
  -29.7906  -24.8835   18.8064 H   0  0  0  0  0  0
  -30.1601  -17.2101   22.2326 H   0  0  0  0  0  0
  -31.4683  -16.9241   21.1309 H   0  0  0  0  0  0
  -29.0028  -25.1132   21.2270 H   0  0  0  0  0  0
  -27.3629  -24.9436   20.6838 H   0  0  0  0  0  0
  -28.6880  -18.0124   20.4830 H   0  0  0  0  0  0
  -29.6978  -17.3060   19.2177 H   0  0  0  0  0  0
  -29.0341  -15.2092   21.4176 H   0  0  0  0  0  0
  1 25  1  0  0  0
  1 30  2  0  0  0
  1 85  1  0  0  0
  2  3  1  0  0  0
  2 25  1  0  0  0
  2 87  1  0  0  0
  2 88  1  0  0  0
  3  4  1  0  0  0
  3 89  1  0  0  0
  3 90  1  0  0  0
  4  5  1  0  0  0
  4 91  1  0  0  0
  4 92  1  0  0  0
  5  6  1  0  0  0
  5 26  1  0  0  0
  5 93  1  0  0  0
  6 25  1  0  0  0
  6 94  1  0  0  0
  6 95  1  0  0  0
  7  8  2  0  0  0
  7 26  1  0  0  0
  7 29  1  0  0  0
  8  9  1  0  0  0
  8 22  1  0  0  0
  9 10  1  0  0  0
  9 27  2  0  0  0
 10 11  2  0  0  0
 10 15  1  0  0  0
 11 12  1  0  0  0
 11 96  1  0  0  0
 12 13  2  0  0  0
 12 97  1  0  0  0
 13 14  1  0  0  0
 13 31  1  0  0  0
 14 15  2  0  0  0
 14 98  1  0  0  0
 15 99  1  0  0  0
 16 17  2  0  0  0
 16 21  1  0  0  0
 16 31  1  0  0  0
 17 18  1  0  0  0
 17100  1  0  0  0
 18 19  2  0  0  0
 18101  1  0  0  0
 19 20  1  0  0  0
 19 24  1  0  0  0
 20 21  2  0  0  0
 20102  1  0  0  0
 21 23  1  0  0  0
 22 28  1  0  0  0
 22 32  2  0  0  0
 26 27  1  0  0  0
 28103  1  0  0  0
 28104  1  0  0  0
 29105  1  0  0  0
 29106  1  0  0  0
 33 34  1  0  0  0
 33 66  1  0  0  0
 33 70  2  0  0  0
 34 36  1  0  0  0
 34 59  1  0  0  0
 34107  1  0  0  0
 35 44  2  0  0  0
 35 45  1  0  0  0
 35 68  1  0  0  0
 36 56  1  0  0  0
 36108  1  0  0  0
 37 39  1  0  0  0
 37 47  1  0  0  0
 37 66  1  0  0  0
 37109  1  0  0  0
 38 43  2  0  0  0
 38 46  1  0  0  0
 38 47  1  0  0  0
 39 64  1  0  0  0
 39 67  2  0  0  0
 40 52  1  0  0  0
 40 53  2  0  0  0
 40 58  1  0  0  0
 41110  1  0  0  0
 41111  1  0  0  0
 41112  1  0  0  0
 41 48  1  0  0  0
 42 43  1  0  0  0
 42 66  1  0  0  0
 42113  1  0  0  0
 42114  1  0  0  0
 43 44  1  0  0  0
 44115  1  0  0  0
 45 46  2  0  0  0
 45116  1  0  0  0
 46117  1  0  0  0
 47118  1  0  0  0
 47119  1  0  0  0
 48 56  1  0  0  0
 48 65  1  0  0  0
 48120  1  0  0  0
 49 50  1  0  0  0
 49 53  1  0  0  0
 49 64  1  0  0  0
 49121  1  0  0  0
 50 51  1  0  0  0
 50122  1  0  0  0
 50123  1  0  0  0
 51 52  1  0  0  0
 51124  1  0  0  0
 51125  1  0  0  0
 52126  1  0  0  0
 52127  1  0  0  0
 53 54  1  0  0  0
 54 55  2  0  0  0
 54128  1  0  0  0
 55 57  1  0  0  0
 55129  1  0  0  0
 56 69  2  0  0  0
 57 58  2  0  0  0
 57130  1  0  0  0
 58131  1  0  0  0
 59 60  1  0  0  0
 59 61  1  0  0  0
 59 62  1  0  0  0
 60132  1  0  0  0
 60133  1  0  0  0
 60134  1  0  0  0
 61135  1  0  0  0
 61136  1  0  0  0
 61137  1  0  0  0
 62138  1  0  0  0
 62139  1  0  0  0
 62140  1  0  0  0
 63 65  1  0  0  0
 63141  1  0  0  0
 63142  1  0  0  0
 63143  1  0  0  0
 64144  1  0  0  0
 65145  1  0  0  0
 68 83  1  0  0  0
 71 73  2  0  0  0
 71 74  1  0  0  0
 71146  1  0  0  0
 72 74  2  0  0  0
 72 75  1  0  0  0
 72147  1  0  0  0
 73 76  1  0  0  0
 73 79  1  0  0  0
 74 81  1  0  0  0
 75 76  2  0  0  0
 75 80  1  0  0  0
 76 86  1  0  0  0
 77 78  1  0  0  0
 77 79  1  0  0  0
 77148  1  0  0  0
 77149  1  0  0  0
 78 79  1  0  0  0
 78150  1  0  0  0
 78151  1  0  0  0
 79152  1  0  0  0
 80153  1  0  0  0
 80154  1  0  0  0
 80155  1  0  0  0
 81 83  1  0  0  0
 81156  1  0  0  0
 81157  1  0  0  0
 82 84  1  0  0  0
 82 85  1  0  0  0
 82158  1  0  0  0
 82159  1  0  0  0
 83160  1  0  0  0
 83161  1  0  0  0
 84 86  1  0  0  0
 84162  1  0  0  0
 84163  1  0  0  0
 85164  1  0  0  0
M  ISO  4   1 100  68 101  83 101  85 100
M  END
> <chiral flag>
0

> <version>
0

> <s_m_source_file>
/data/baiqing/PycharmProjects/Reinvent-master-3.2/result/LINK_invent/BTK/process_docking_weight1_custom_sum_contain_oxygen_bond_distance_aromatic_linkinvent_7_9_3/rearranged_h_0145.sdf

> <i_m_source_file_index>
32

> <r_mmod_Potential_Energy-OPLS-2005>
-65.4520111083984

> <r_mmod_Stretch_Energy-OPLS-2005>
39.2546119689941

> <r_mmod_Bend_Energy-OPLS-2005>
112.721961975098

> <r_mmod_Torsional_Energy-OPLS-2005>
250.610046386719

> <r_mmod_Improper_Torsional_Energy-OPLS-2005>
4.1441330909729

> <r_mmod_Van_der_Waal_Energy-OPLS-2005>
150.002731323242

> <r_mmod_Electrostatic_Energy-OPLS-2005>
-423.281311035156

> <r_mmod_Solvation_Energy-OPLS-2005>
-211.186126708984

> <b_mmod_Minimization_Converged-OPLS-2005>
0

> <r_mmod_RMS_Derivative-OPLS-2005>
3.39742183685303

$$$$
33
                    3D
 Structure written by MMmdl.
172181  0  0  1  0            999 V2000
  -29.9044  -16.6728   20.2604 C   0  0  0  0  0  0
  -30.3032  -13.8748   19.5227 C   0  0  0  0  0  0
  -29.5738  -12.9854   18.4257 C   0  0  0  0  0  0
  -28.2532  -12.3975   18.9252 C   0  0  0  0  0  0
  -27.5756  -13.4414   19.8214 C   0  0  2  0  0  0
  -28.5068  -14.1843   20.8572 C   0  0  0  0  0  0
  -25.2170  -13.8504   20.5970 C   0  0  0  0  0  0
  -24.1684  -13.0477   20.9350 C   0  0  0  0  0  0
  -24.6578  -11.7046   20.8745 C   0  0  0  0  0  0
  -23.9287  -10.4324   21.0340 C   0  0  0  0  0  0
  -24.3760   -9.4224   21.9142 C   0  0  0  0  0  0
  -23.6377   -8.2288   22.0743 C   0  0  0  0  0  0
  -22.4347   -8.0330   21.3550 C   0  0  0  0  0  0
  -22.0033   -9.0310   20.4631 C   0  0  0  0  0  0
  -22.7427  -10.2161   20.3015 C   0  0  0  0  0  0
  -21.6884   -6.0766   22.5274 C   0  0  0  0  0  0
  -21.4034   -6.5658   23.8209 C   0  0  0  0  0  0
  -21.3665   -5.6808   24.9168 C   0  0  0  0  0  0
  -21.6047   -4.3069   24.7219 C   0  0  0  0  0  0
  -21.8815   -3.8162   23.4338 C   0  0  0  0  0  0
  -21.9200   -4.6986   22.3395 C   0  0  0  0  0  0
  -22.7658  -13.5085   21.1932 C   0  0  0  0  0  0
  -22.1664   -4.2178   21.0972 F   0  0  0  0  0  0
  -21.5627   -3.4540   25.7724 F   0  0  0  0  0  0
  -29.4952  -15.1251   20.1442 N   0  0  0  0  0  0
  -26.2830  -13.0126   20.3509 N   0  0  0  0  0  0
  -25.9593  -11.7031   20.5680 N   0  0  0  0  0  0
  -22.0370  -12.8028   22.0487 N   0  0  0  0  0  0
  -25.3504  -15.2260   20.4374 N   0  0  0  0  0  0
  -31.1558  -16.4347   20.2242 O   0  0  0  0  0  0
  -21.6679   -6.8936   21.4252 O   0  0  0  0  0  0
  -22.3281  -14.5365   20.6765 O   0  0  0  0  0  0
  -24.7564  -31.7112   23.0971 C   0  0  0  0  0  0
  -25.9784  -32.4038   23.7776 C   0  0  1  0  0  0
  -27.2481  -25.9683   20.2337 C   0  0  0  0  0  0
  -25.6066  -33.7911   24.1573 N   0  0  0  0  0  0
  -23.6121  -30.2907   21.4690 C   0  0  2  0  0  0
  -25.0761  -28.4949   20.1441 C   0  0  0  0  0  0
  -22.8086  -29.3854   22.4522 C   0  0  0  0  0  0
  -18.0376  -28.1453   22.8418 C   0  0  0  0  0  0
  -24.1516  -36.6958   23.2663 C   0  0  0  0  0  0
  -26.2225  -30.2055   21.4703 C   0  0  0  0  0  0
  -26.2823  -28.6915   20.8234 C   0  0  0  0  0  0
  -27.3159  -27.4897   20.8201 C   0  0  0  0  0  0
  -25.9700  -26.1782   19.5546 C   0  0  0  0  0  0
  -25.0035  -27.2612   19.4857 C   0  0  0  0  0  0
  -23.9071  -29.5327   20.1355 C   0  0  0  0  0  0
  -25.4180  -36.2638   24.0230 C   0  0  1  0  0  0
  -20.6052  -28.3836   23.1024 C   0  0  2  0  0  0
  -20.6823  -26.9431   22.5424 C   0  0  0  0  0  0
  -19.5811  -26.6351   21.5231 C   0  0  0  0  0  0
  -18.1983  -26.7974   22.1599 C   0  0  0  0  0  0
  -19.1661  -28.8993   23.2678 C   0  0  0  0  0  0
  -18.9548  -30.1566   23.8749 C   0  0  0  0  0  0
  -17.6532  -30.6619   24.0539 C   0  0  0  0  0  0
  -25.9202  -34.9041   23.4775 C   0  0  0  0  0  0
  -16.5419  -29.9078   23.6391 C   0  0  0  0  0  0
  -16.7347  -28.6510   23.0386 C   0  0  0  0  0  0
  -26.4726  -31.6371   25.0678 C   0  0  0  0  0  0
  -25.3611  -31.3872   26.1151 C   0  0  0  0  0  0
  -27.0779  -30.2647   24.7091 C   0  0  0  0  0  0
  -27.6035  -32.4394   25.7543 C   0  0  0  0  0  0
  -27.5549  -37.1632   24.8471 C   0  0  0  0  0  0
  -21.4675  -29.2931   22.3264 N   0  0  0  0  0  0
  -26.4253  -37.3470   23.9407 N   0  0  0  0  0  0
  -24.8979  -30.7840   22.0644 N   0  0  0  0  0  0
  -23.4211  -28.7531   23.3142 O   0  0  0  0  0  0
  -28.0383  -24.3238   20.2247 O   0  0  0  0  0  0
  -26.5915  -34.8754   22.4450 O   0  0  0  0  0  0
  -23.6438  -32.0534   23.5444 O   0  0  0  0  0  0
  -30.2012  -24.1711   20.5512 C   0  0  0  0  0  0
  -27.6318  -23.5868   18.1986 C   0  0  0  0  0  0
  -32.0739  -23.5557   17.9552 C   0  0  0  0  0  0
  -30.1378  -23.1231   16.2092 C   0  0  0  0  0  0
  -29.6649  -22.1633   21.1795 C   0  0  0  0  0  0
  -27.5202  -21.6990   19.2439 C   0  0  0  0  0  0
  -31.2817  -22.5960   18.8378 C   0  0  0  0  0  0
  -29.5902  -22.1995   17.2988 C   0  0  0  0  0  0
  -31.4047  -23.8996   16.6120 C   0  0  1  0  0  0
  -29.3398  -24.9597   18.6609 C   0  0  2  0  0  0
  -28.8144  -20.4527   20.3126 C   0  0  1  0  0  0
  -29.6307  -22.7429   18.8669 C   0  0  2  0  0  0
  -30.4156  -27.3073   17.9909 C   0  0  0  0  0  0
  -31.1283  -25.3847   16.5938 C   0  0  0  0  0  0
  -30.0053  -25.8759   17.5326 C   0  0  1  0  0  0
  -29.1568  -18.3201   20.2629 N   0  0  0  0  0  0
  -31.1946  -14.2726   19.0364 H   0  0  0  0  0  0
  -30.7108  -13.2391   20.3107 H   0  0  0  0  0  0
  -30.2333  -12.1881   18.0806 H   0  0  0  0  0  0
  -29.3734  -13.6101   17.5533 H   0  0  0  0  0  0
  -28.4656  -11.5029   19.5114 H   0  0  0  0  0  0
  -27.6122  -12.0912   18.0973 H   0  0  0  0  0  0
  -27.3121  -14.2188   19.1011 H   0  0  0  0  0  0
  -28.9790  -13.4874   21.5526 H   0  0  0  0  0  0
  -27.8918  -14.8224   21.4939 H   0  0  0  0  0  0
  -25.2899   -9.5680   22.4738 H   0  0  0  0  0  0
  -24.0054   -7.4688   22.7494 H   0  0  0  0  0  0
  -21.0956   -8.8866   19.8944 H   0  0  0  0  0  0
  -22.3892  -10.9699   19.6116 H   0  0  0  0  0  0
  -21.2032   -7.6168   23.9729 H   0  0  0  0  0  0
  -21.1489   -6.0527   25.9078 H   0  0  0  0  0  0
  -22.0585   -2.7627   23.2825 H   0  0  0  0  0  0
  -22.4077  -11.9728   22.4880 H   0  0  0  0  0  0
  -21.0950  -13.0946   22.2676 H   0  0  0  0  0  0
  -24.5656  -15.8604   20.5406 H   0  0  0  0  0  0
  -26.1908  -15.6823   20.1093 H   0  0  0  0  0  0
  -26.7951  -32.4378   23.0551 H   0  0  0  0  0  0
  -25.0054  -33.8848   24.9628 H   0  0  0  0  0  0
  -22.9774  -31.1452   21.2192 H   0  0  0  0  0  0
  -23.3812  -35.9255   23.3205 H   0  0  0  0  0  0
  -24.3581  -36.8777   22.2109 H   0  0  0  0  0  0
  -23.7249  -37.6063   23.6878 H   0  0  0  0  0  0
  -26.4987  -30.8855   20.6653 H   0  0  0  0  0  0
  -27.0482  -30.2883   22.1616 H   0  0  0  0  0  0
  -28.2100  -27.6906   21.3928 H   0  0  0  0  0  0
  -25.5180  -25.3267   19.0892 H   0  0  0  0  0  0
  -24.1011  -27.0614   18.9251 H   0  0  0  0  0  0
  -23.0008  -29.0334   19.7927 H   0  0  0  0  0  0
  -24.1420  -30.2622   19.3597 H   0  0  0  0  0  0
  -25.1428  -36.1291   25.0719 H   0  0  0  0  0  0
  -21.0103  -28.3504   24.1172 H   0  0  0  0  0  0
  -20.5644  -26.2471   23.3745 H   0  0  0  0  0  0
  -21.6675  -26.7271   22.1271 H   0  0  0  0  0  0
  -19.6963  -25.6233   21.1331 H   0  0  0  0  0  0
  -19.6801  -27.3118   20.6736 H   0  0  0  0  0  0
  -17.4283  -26.6745   21.3975 H   0  0  0  0  0  0
  -18.0306  -26.0138   22.9007 H   0  0  0  0  0  0
  -19.8022  -30.7416   24.2062 H   0  0  0  0  0  0
  -17.5071  -31.6289   24.5168 H   0  0  0  0  0  0
  -15.5412  -30.2927   23.7827 H   0  0  0  0  0  0
  -15.8737  -28.0793   22.7178 H   0  0  0  0  0  0
  -24.5893  -30.7124   25.7415 H   0  0  0  0  0  0
  -24.8715  -32.3147   26.4142 H   0  0  0  0  0  0
  -25.7643  -30.9328   27.0207 H   0  0  0  0  0  0
  -26.3627  -29.5998   24.2235 H   0  0  0  0  0  0
  -27.4055  -29.7430   25.6090 H   0  0  0  0  0  0
  -27.9652  -30.3623   24.0830 H   0  0  0  0  0  0
  -27.2484  -33.3842   26.1671 H   0  0  0  0  0  0
  -28.4071  -32.6689   25.0535 H   0  0  0  0  0  0
  -28.0426  -31.8820   26.5827 H   0  0  0  0  0  0
  -28.2467  -38.0007   24.7514 H   0  0  0  0  0  0
  -28.1130  -36.2516   24.6300 H   0  0  0  0  0  0
  -27.2259  -37.1233   25.8866 H   0  0  0  0  0  0
  -21.0159  -29.8513   21.6153 H   0  0  0  0  0  0
  -26.0007  -38.2484   24.1425 H   0  0  0  0  0  0
  -31.2744  -24.3577   20.5868 H   0  0  0  0  0  0
  -29.9273  -24.8394   21.3712 H   0  0  0  0  0  0
  -26.6736  -24.0383   18.3184 H   0  0  0  0  0  0
  -27.5218  -23.4816   17.1220 H   0  0  0  0  0  0
  -33.0548  -23.1190   17.7636 H   0  0  0  0  0  0
  -32.2873  -24.4582   18.5281 H   0  0  0  0  0  0
  -29.3552  -23.8038   15.8757 H   0  0  0  0  0  0
  -30.3514  -22.5249   15.3230 H   0  0  0  0  0  0
  -28.9451  -22.3776   21.9697 H   0  0  0  0  0  0
  -30.5264  -21.7997   21.7413 H   0  0  0  0  0  0
  -26.9680  -21.0345   18.5776 H   0  0  0  0  0  0
  -26.7706  -21.9281   20.0008 H   0  0  0  0  0  0
  -31.7689  -22.5105   19.8078 H   0  0  0  0  0  0
  -31.6140  -21.6120   18.4911 H   0  0  0  0  0  0
  -30.1640  -21.2786   17.1513 H   0  0  0  0  0  0
  -28.6437  -21.7660   16.9742 H   0  0  0  0  0  0
  -32.1485  -23.7227   15.8322 H   0  0  0  0  0  0
  -28.9999  -25.9099   18.9724 H   0  0  0  0  0  0
  -28.1361  -20.2449   21.1413 H   0  0  0  0  0  0
  -29.7481  -21.7311   18.9858 H   0  0  0  0  0  0
  -29.5982  -27.8641   18.4514 H   0  0  0  0  0  0
  -30.7460  -27.9108   17.1449 H   0  0  0  0  0  0
  -31.2333  -27.2721   18.7101 H   0  0  0  0  0  0
  -30.8885  -25.6913   15.5735 H   0  0  0  0  0  0
  -32.0651  -25.9035   16.8123 H   0  0  0  0  0  0
  -29.1670  -26.0471   16.8520 H   0  0  0  0  0  0
  -28.1983  -18.0001   20.2034 H   0  0  0  0  0  0
  1 25  1  0  0  0
  1 30  2  0  0  0
  1 86  1  0  0  0
  2  3  1  0  0  0
  2 25  1  0  0  0
  2 87  1  0  0  0
  2 88  1  0  0  0
  3  4  1  0  0  0
  3 89  1  0  0  0
  3 90  1  0  0  0
  4  5  1  0  0  0
  4 91  1  0  0  0
  4 92  1  0  0  0
  5  6  1  0  0  0
  5 26  1  0  0  0
  5 93  1  0  0  0
  6 25  1  0  0  0
  6 94  1  0  0  0
  6 95  1  0  0  0
  7  8  2  0  0  0
  7 26  1  0  0  0
  7 29  1  0  0  0
  8  9  1  0  0  0
  8 22  1  0  0  0
  9 10  1  0  0  0
  9 27  2  0  0  0
 10 11  2  0  0  0
 10 15  1  0  0  0
 11 12  1  0  0  0
 11 96  1  0  0  0
 12 13  2  0  0  0
 12 97  1  0  0  0
 13 14  1  0  0  0
 13 31  1  0  0  0
 14 15  2  0  0  0
 14 98  1  0  0  0
 15 99  1  0  0  0
 16 17  2  0  0  0
 16 21  1  0  0  0
 16 31  1  0  0  0
 17 18  1  0  0  0
 17100  1  0  0  0
 18 19  2  0  0  0
 18101  1  0  0  0
 19 20  1  0  0  0
 19 24  1  0  0  0
 20 21  2  0  0  0
 20102  1  0  0  0
 21 23  1  0  0  0
 22 28  1  0  0  0
 22 32  2  0  0  0
 26 27  1  0  0  0
 28103  1  0  0  0
 28104  1  0  0  0
 29105  1  0  0  0
 29106  1  0  0  0
 33 34  1  0  0  0
 33 66  1  0  0  0
 33 70  2  0  0  0
 34 36  1  0  0  0
 34 59  1  0  0  0
 34107  1  0  0  0
 35 44  2  0  0  0
 35 45  1  0  0  0
 35 68  1  0  0  0
 36 56  1  0  0  0
 36108  1  0  0  0
 37 39  1  0  0  0
 37 47  1  0  0  0
 37 66  1  0  0  0
 37109  1  0  0  0
 38 43  2  0  0  0
 38 46  1  0  0  0
 38 47  1  0  0  0
 39 64  1  0  0  0
 39 67  2  0  0  0
 40 52  1  0  0  0
 40 53  2  0  0  0
 40 58  1  0  0  0
 41110  1  0  0  0
 41111  1  0  0  0
 41112  1  0  0  0
 41 48  1  0  0  0
 42 43  1  0  0  0
 42 66  1  0  0  0
 42113  1  0  0  0
 42114  1  0  0  0
 43 44  1  0  0  0
 44115  1  0  0  0
 45 46  2  0  0  0
 45116  1  0  0  0
 46117  1  0  0  0
 47118  1  0  0  0
 47119  1  0  0  0
 48 56  1  0  0  0
 48 65  1  0  0  0
 48120  1  0  0  0
 49 50  1  0  0  0
 49 53  1  0  0  0
 49 64  1  0  0  0
 49121  1  0  0  0
 50 51  1  0  0  0
 50122  1  0  0  0
 50123  1  0  0  0
 51 52  1  0  0  0
 51124  1  0  0  0
 51125  1  0  0  0
 52126  1  0  0  0
 52127  1  0  0  0
 53 54  1  0  0  0
 54 55  2  0  0  0
 54128  1  0  0  0
 55 57  1  0  0  0
 55129  1  0  0  0
 56 69  2  0  0  0
 57 58  2  0  0  0
 57130  1  0  0  0
 58131  1  0  0  0
 59 60  1  0  0  0
 59 61  1  0  0  0
 59 62  1  0  0  0
 60132  1  0  0  0
 60133  1  0  0  0
 60134  1  0  0  0
 61135  1  0  0  0
 61136  1  0  0  0
 61137  1  0  0  0
 62138  1  0  0  0
 62139  1  0  0  0
 62140  1  0  0  0
 63 65  1  0  0  0
 63141  1  0  0  0
 63142  1  0  0  0
 63143  1  0  0  0
 64144  1  0  0  0
 65145  1  0  0  0
 68 82  1  0  0  0
 71 75  1  0  0  0
 71146  1  0  0  0
 71147  1  0  0  0
 71 80  1  0  0  0
 72 76  1  0  0  0
 72 80  1  0  0  0
 72148  1  0  0  0
 72149  1  0  0  0
 73 77  1  0  0  0
 73 79  1  0  0  0
 73150  1  0  0  0
 73151  1  0  0  0
 74 78  1  0  0  0
 74 79  1  0  0  0
 74152  1  0  0  0
 74153  1  0  0  0
 75 81  1  0  0  0
 75154  1  0  0  0
 75155  1  0  0  0
 76 81  1  0  0  0
 76156  1  0  0  0
 76157  1  0  0  0
 77 82  1  0  0  0
 77158  1  0  0  0
 77159  1  0  0  0
 78 82  1  0  0  0
 78160  1  0  0  0
 78161  1  0  0  0
 79 84  1  0  0  0
 79162  1  0  0  0
 80 85  1  0  0  0
 80163  1  0  0  0
 81 86  1  0  0  0
 81164  1  0  0  0
 82165  1  0  0  0
 83166  1  0  0  0
 83167  1  0  0  0
 83168  1  0  0  0
 83 85  1  0  0  0
 84 85  1  0  0  0
 84169  1  0  0  0
 84170  1  0  0  0
 85171  1  0  0  0
 86172  1  0  0  0
M  ISO  4   1 100  68 101  82 101  86 100
M  END
> <chiral flag>
0

> <version>
0

> <s_m_source_file>
/data/baiqing/PycharmProjects/Reinvent-master-3.2/result/LINK_invent/BTK/process_docking_weight1_custom_sum_contain_oxygen_bond_distance_aromatic_linkinvent_7_9_3/rearranged_h_0145.sdf

> <i_m_source_file_index>
33

> <r_mmod_Potential_Energy-OPLS-2005>
12988.8701171875

> <r_mmod_Stretch_Energy-OPLS-2005>
6806.8662109375

> <r_mmod_Bend_Energy-OPLS-2005>
1519.77966308594

> <r_mmod_Torsional_Energy-OPLS-2005>
392.742767333984

> <r_mmod_Improper_Torsional_Energy-OPLS-2005>
5.19027233123779

> <r_mmod_Van_der_Waal_Energy-OPLS-2005>
1656.83386230469

> <r_mmod_Electrostatic_Energy-OPLS-2005>
-361.448944091797

> <r_mmod_Solvation_Energy-OPLS-2005>
-210.018707275391

> <b_mmod_Minimization_Converged-OPLS-2005>
0

> <r_mmod_RMS_Derivative-OPLS-2005>
3.95923924446106

$$$$
34
                    3D
 Structure written by MMmdl.
173182  0  0  1  0            999 V2000
  -30.7765  -14.3490   20.6823 C   0  0  0  0  0  0
  -30.4179  -12.2815   19.3962 C   0  0  0  0  0  0
  -29.4852  -12.5233   18.1949 C   0  0  0  0  0  0
  -28.0084  -12.3877   18.6094 C   0  0  0  0  0  0
  -27.6692  -13.2038   19.8846 C   0  0  2  0  0  0
  -28.7071  -12.9385   20.9988 C   0  0  0  0  0  0
  -25.2610  -13.8157   20.5679 C   0  0  0  0  0  0
  -24.1850  -13.0445   20.9154 C   0  0  0  0  0  0
  -24.6391  -11.6906   20.8710 C   0  0  0  0  0  0
  -23.9050  -10.4299   21.0383 C   0  0  0  0  0  0
  -24.3603   -9.4218   21.9169 C   0  0  0  0  0  0
  -23.6284   -8.2251   22.0750 C   0  0  0  0  0  0
  -22.4266   -8.0280   21.3544 C   0  0  0  0  0  0
  -21.9897   -9.0250   20.4643 C   0  0  0  0  0  0
  -22.7218  -10.2133   20.3044 C   0  0  0  0  0  0
  -21.6856   -6.0730   22.5274 C   0  0  0  0  0  0
  -21.4015   -6.5635   23.8207 C   0  0  0  0  0  0
  -21.3660   -5.6790   24.9171 C   0  0  0  0  0  0
  -21.6042   -4.3053   24.7224 C   0  0  0  0  0  0
  -21.8824   -3.8141   23.4347 C   0  0  0  0  0  0
  -21.9196   -4.6956   22.3400 C   0  0  0  0  0  0
  -22.7872  -13.5244   21.1816 C   0  0  0  0  0  0
  -22.1663   -4.2140   21.0980 F   0  0  0  0  0  0
  -21.5630   -3.4541   25.7740 F   0  0  0  0  0  0
  -30.0527  -13.2225   20.4645 N   0  0  0  0  0  0
  -26.3061  -12.9329   20.3404 N   0  0  0  0  0  0
  -25.9321  -11.6483   20.5757 N   0  0  0  0  0  0
  -22.0514  -12.8245   22.0377 N   0  0  0  0  0  0
  -25.4354  -15.1873   20.4096 N   0  0  0  0  0  0
  -31.7959  -14.6338   20.0461 O   0  0  0  0  0  0
  -21.6644   -6.8872   21.4235 O   0  0  0  0  0  0
  -22.3557  -14.5554   20.6666 O   0  0  0  0  0  0
  -24.6107  -31.8732   23.2161 C   0  0  0  0  0  0
  -25.9024  -32.4855   23.8441 C   0  0  1  0  0  0
  -27.2423  -27.4890   20.0847 C   0  0  0  0  0  0
  -25.5894  -33.8651   24.2363 N   0  0  0  0  0  0
  -23.3977  -30.4950   21.5547 C   0  0  2  0  0  0
  -24.8486  -28.9697   20.1154 C   0  0  0  0  0  0
  -22.7398  -29.4662   22.5013 C   0  0  0  0  0  0
  -18.0269  -28.1382   22.8490 C   0  0  0  0  0  0
  -24.1489  -36.7337   23.2640 C   0  0  0  0  0  0
  -25.9215  -30.8511   21.3667 C   0  0  0  0  0  0
  -26.0030  -29.4877   20.7191 C   0  0  0  0  0  0
  -27.2034  -28.7487   20.7157 C   0  0  0  0  0  0
  -26.0875  -26.9887   19.4584 C   0  0  0  0  0  0
  -24.8834  -27.7148   19.4821 C   0  0  0  0  0  0
  -23.6062  -29.8288   20.1678 C   0  0  0  0  0  0
  -25.4098  -36.3122   24.0338 C   0  0  1  0  0  0
  -20.5859  -28.3666   23.1326 C   0  0  2  0  0  0
  -20.6767  -26.9407   22.5428 C   0  0  0  0  0  0
  -19.5749  -26.6392   21.5218 C   0  0  0  0  0  0
  -18.1915  -26.7928   22.1619 C   0  0  0  0  0  0
  -19.1518  -28.8832   23.2906 C   0  0  0  0  0  0
  -18.9462  -30.1441   23.8912 C   0  0  0  0  0  0
  -17.6464  -30.6587   24.0560 C   0  0  0  0  0  0
  -25.9024  -34.9491   23.5143 C   0  0  0  0  0  0
  -16.5352  -29.9093   23.6323 C   0  0  0  0  0  0
  -16.7260  -28.6517   23.0333 C   0  0  0  0  0  0
  -26.4472  -31.6610   25.0743 C   0  0  0  0  0  0
  -25.3750  -31.3704   26.1503 C   0  0  0  0  0  0
  -27.0311  -30.3066   24.6079 C   0  0  0  0  0  0
  -27.6060  -32.4331   25.7493 C   0  0  0  0  0  0
  -27.5583  -37.1810   24.8457 C   0  0  0  0  0  0
  -21.4138  -29.3034   22.3743 N   0  0  0  0  0  0
  -26.4295  -37.3794   23.9398 N   0  0  0  0  0  0
  -24.6611  -31.0856   22.1044 N   0  0  0  0  0  0
  -23.4189  -28.8196   23.3037 O   0  0  0  0  0  0
  -28.3868  -26.7408   20.0572 O   0  0  0  0  0  0
  -26.5591  -34.8941   22.4708 O   0  0  0  0  0  0
  -23.5312  -32.1474   23.7580 O   0  0  0  0  0  0
  -29.1268  -21.6033   22.0290 C   0  0  0  0  0  0
  -27.8952  -22.9455   20.4207 C   0  0  0  0  0  0
  -28.4901  -20.4451   21.5492 C   0  0  0  0  0  0
  -27.5661  -20.5272   20.4846 C   0  0  0  0  0  0
  -27.2259  -21.7928   19.9303 C   0  0  0  0  0  0
  -28.8673  -22.8566   21.4488 C   0  0  0  0  0  0
  -28.7928  -19.0946   22.1803 C   0  0  0  0  0  0
  -27.0186  -19.2021   19.9607 C   0  0  0  0  0  0
  -28.1718  -18.2018   19.8247 C   0  0  0  0  0  0
  -28.8853  -17.9244   21.1668 C   0  0  1  0  0  0
  -26.1093  -23.2621   18.1099 C   0  0  0  0  0  0
  -24.7511  -21.6045   19.3930 C   0  0  0  0  0  0
  -30.3549  -17.5150   20.9349 C   0  0  0  0  0  0
  -30.8653  -16.4750   21.9499 C   0  0  0  0  0  0
  -28.6595  -26.1072   21.3011 C   0  0  0  0  0  0
  -29.7700  -25.0660   21.1030 C   0  0  0  0  0  0
  -26.1532  -21.9101   18.8332 C   0  0  0  0  0  0
  -30.3201  -15.1519   21.6509 N   0  0  0  0  0  0
  -29.5864  -23.9256   21.9403 O   0  0  0  0  0  0
  -31.4601  -12.3840   19.0878 H   0  0  0  0  0  0
  -30.3210  -11.2576   19.7601 H   0  0  0  0  0  0
  -29.7144  -11.8173   17.3960 H   0  0  0  0  0  0
  -29.6617  -13.5188   17.7850 H   0  0  0  0  0  0
  -27.8053  -11.3296   18.7791 H   0  0  0  0  0  0
  -27.3602  -12.6928   17.7875 H   0  0  0  0  0  0
  -27.7302  -14.2596   19.6188 H   0  0  0  0  0  0
  -28.6643  -11.8938   21.3108 H   0  0  0  0  0  0
  -28.4592  -13.5137   21.8907 H   0  0  0  0  0  0
  -25.2751   -9.5704   22.4740 H   0  0  0  0  0  0
  -23.9998   -7.4651   22.7472 H   0  0  0  0  0  0
  -21.0829   -8.8755   19.8952 H   0  0  0  0  0  0
  -22.3662  -10.9664   19.6153 H   0  0  0  0  0  0
  -21.2007   -7.6146   23.9704 H   0  0  0  0  0  0
  -21.1474   -6.0525   25.9072 H   0  0  0  0  0  0
  -22.0602   -2.7604   23.2851 H   0  0  0  0  0  0
  -22.4135  -11.9915   22.4779 H   0  0  0  0  0  0
  -21.1123  -13.1258   22.2562 H   0  0  0  0  0  0
  -24.6730  -15.8464   20.5210 H   0  0  0  0  0  0
  -26.2996  -15.6229   20.1156 H   0  0  0  0  0  0
  -26.7100  -32.5594   23.1222 H   0  0  0  0  0  0
  -25.0024  -33.9816   25.0489 H   0  0  0  0  0  0
  -22.6853  -31.3106   21.4183 H   0  0  0  0  0  0
  -23.3738  -35.9689   23.3310 H   0  0  0  0  0  0
  -24.3586  -36.8950   22.2053 H   0  0  0  0  0  0
  -23.7271  -37.6552   23.6658 H   0  0  0  0  0  0
  -26.0243  -31.6170   20.5971 H   0  0  0  0  0  0
  -26.8115  -30.9094   21.9800 H   0  0  0  0  0  0
  -28.0960  -29.1426   21.1817 H   0  0  0  0  0  0
  -26.1342  -26.0513   18.9354 H   0  0  0  0  0  0
  -24.0028  -27.3190   18.9962 H   0  0  0  0  0  0
  -23.7082  -30.6048   19.4079 H   0  0  0  0  0  0
  -22.7323  -29.2430   19.8755 H   0  0  0  0  0  0
  -25.1272  -36.1994   25.0826 H   0  0  0  0  0  0
  -20.9941  -28.3244   24.1454 H   0  0  0  0  0  0
  -20.5693  -26.2270   23.3622 H   0  0  0  0  0  0
  -21.6630  -26.7467   22.1199 H   0  0  0  0  0  0
  -19.6922  -25.6308   21.1246 H   0  0  0  0  0  0
  -19.6696  -27.3210   20.6760 H   0  0  0  0  0  0
  -17.4193  -26.6692   21.4012 H   0  0  0  0  0  0
  -18.0280  -26.0069   22.9015 H   0  0  0  0  0  0
  -19.7942  -30.7233   24.2301 H   0  0  0  0  0  0
  -17.5032  -31.6267   24.5176 H   0  0  0  0  0  0
  -15.5355  -30.3004   23.7652 H   0  0  0  0  0  0
  -15.8657  -28.0855   22.7029 H   0  0  0  0  0  0
  -24.5914  -30.7064   25.7834 H   0  0  0  0  0  0
  -24.8951  -32.2860   26.4979 H   0  0  0  0  0  0
  -25.8118  -30.8856   27.0244 H   0  0  0  0  0  0
  -26.2841  -29.6807   24.1187 H   0  0  0  0  0  0
  -27.4159  -29.7324   25.4512 H   0  0  0  0  0  0
  -27.8636  -30.4401   23.9169 H   0  0  0  0  0  0
  -27.2679  -33.3616   26.2114 H   0  0  0  0  0  0
  -28.3841  -32.6923   25.0296 H   0  0  0  0  0  0
  -28.0760  -31.8433   26.5376 H   0  0  0  0  0  0
  -28.2588  -38.0116   24.7489 H   0  0  0  0  0  0
  -28.1093  -36.2650   24.6284 H   0  0  0  0  0  0
  -27.2310  -37.1441   25.8864 H   0  0  0  0  0  0
  -20.9316  -29.8770   21.6969 H   0  0  0  0  0  0
  -26.0201  -38.2883   24.1393 H   0  0  0  0  0  0
  -29.8463  -21.5287   22.8318 H   0  0  0  0  0  0
  -27.6638  -23.9130   20.0053 H   0  0  0  0  0  0
  -27.9701  -18.8925   22.8671 H   0  0  0  0  0  0
  -29.6837  -19.1519   22.8074 H   0  0  0  0  0  0
  -26.5281  -19.2912   18.9945 H   0  0  0  0  0  0
  -26.2683  -18.8262   20.6580 H   0  0  0  0  0  0
  -28.8823  -18.6108   19.1055 H   0  0  0  0  0  0
  -27.8175  -17.2639   19.3963 H   0  0  0  0  0  0
  -28.3706  -17.0761   21.6227 H   0  0  0  0  0  0
  -27.0814  -23.5522   17.7094 H   0  0  0  0  0  0
  -25.7543  -24.0328   18.7877 H   0  0  0  0  0  0
  -25.4110  -23.2345   17.2732 H   0  0  0  0  0  0
  -24.6690  -20.5879   19.7734 H   0  0  0  0  0  0
  -23.9868  -21.7193   18.6234 H   0  0  0  0  0  0
  -24.4968  -22.2795   20.2117 H   0  0  0  0  0  0
  -30.9878  -18.4038   20.9622 H   0  0  0  0  0  0
  -30.4822  -17.1181   19.9270 H   0  0  0  0  0  0
  -30.5911  -16.7624   22.9659 H   0  0  0  0  0  0
  -31.9560  -16.4389   21.9307 H   0  0  0  0  0  0
  -28.9516  -26.8359   22.0581 H   0  0  0  0  0  0
  -27.7532  -25.6220   21.6682 H   0  0  0  0  0  0
  -30.7306  -25.5221   21.3435 H   0  0  0  0  0  0
  -29.8475  -24.7624   20.0570 H   0  0  0  0  0  0
  -26.3935  -21.1868   18.0550 H   0  0  0  0  0  0
  -29.5026  -14.8494   22.1605 H   0  0  0  0  0  0
  1 25  1  0  0  0
  1 30  2  0  0  0
  1 88  1  0  0  0
  2  3  1  0  0  0
  2 25  1  0  0  0
  2 90  1  0  0  0
  2 91  1  0  0  0
  3  4  1  0  0  0
  3 92  1  0  0  0
  3 93  1  0  0  0
  4  5  1  0  0  0
  4 94  1  0  0  0
  4 95  1  0  0  0
  5  6  1  0  0  0
  5 26  1  0  0  0
  5 96  1  0  0  0
  6 25  1  0  0  0
  6 97  1  0  0  0
  6 98  1  0  0  0
  7  8  2  0  0  0
  7 26  1  0  0  0
  7 29  1  0  0  0
  8  9  1  0  0  0
  8 22  1  0  0  0
  9 10  1  0  0  0
  9 27  2  0  0  0
 10 11  2  0  0  0
 10 15  1  0  0  0
 11 12  1  0  0  0
 11 99  1  0  0  0
 12 13  2  0  0  0
 12100  1  0  0  0
 13 14  1  0  0  0
 13 31  1  0  0  0
 14 15  2  0  0  0
 14101  1  0  0  0
 15102  1  0  0  0
 16 17  2  0  0  0
 16 21  1  0  0  0
 16 31  1  0  0  0
 17 18  1  0  0  0
 17103  1  0  0  0
 18 19  2  0  0  0
 18104  1  0  0  0
 19 20  1  0  0  0
 19 24  1  0  0  0
 20 21  2  0  0  0
 20105  1  0  0  0
 21 23  1  0  0  0
 22 28  1  0  0  0
 22 32  2  0  0  0
 26 27  1  0  0  0
 28106  1  0  0  0
 28107  1  0  0  0
 29108  1  0  0  0
 29109  1  0  0  0
 33 34  1  0  0  0
 33 66  1  0  0  0
 33 70  2  0  0  0
 34 36  1  0  0  0
 34 59  1  0  0  0
 34110  1  0  0  0
 35 44  2  0  0  0
 35 45  1  0  0  0
 35 68  1  0  0  0
 36 56  1  0  0  0
 36111  1  0  0  0
 37 39  1  0  0  0
 37 47  1  0  0  0
 37 66  1  0  0  0
 37112  1  0  0  0
 38 43  2  0  0  0
 38 46  1  0  0  0
 38 47  1  0  0  0
 39 64  1  0  0  0
 39 67  2  0  0  0
 40 52  1  0  0  0
 40 53  2  0  0  0
 40 58  1  0  0  0
 41113  1  0  0  0
 41114  1  0  0  0
 41115  1  0  0  0
 41 48  1  0  0  0
 42 43  1  0  0  0
 42 66  1  0  0  0
 42116  1  0  0  0
 42117  1  0  0  0
 43 44  1  0  0  0
 44118  1  0  0  0
 45 46  2  0  0  0
 45119  1  0  0  0
 46120  1  0  0  0
 47121  1  0  0  0
 47122  1  0  0  0
 48 56  1  0  0  0
 48 65  1  0  0  0
 48123  1  0  0  0
 49 50  1  0  0  0
 49 53  1  0  0  0
 49 64  1  0  0  0
 49124  1  0  0  0
 50 51  1  0  0  0
 50125  1  0  0  0
 50126  1  0  0  0
 51 52  1  0  0  0
 51127  1  0  0  0
 51128  1  0  0  0
 52129  1  0  0  0
 52130  1  0  0  0
 53 54  1  0  0  0
 54 55  2  0  0  0
 54131  1  0  0  0
 55 57  1  0  0  0
 55132  1  0  0  0
 56 69  2  0  0  0
 57 58  2  0  0  0
 57133  1  0  0  0
 58134  1  0  0  0
 59 60  1  0  0  0
 59 61  1  0  0  0
 59 62  1  0  0  0
 60135  1  0  0  0
 60136  1  0  0  0
 60137  1  0  0  0
 61138  1  0  0  0
 61139  1  0  0  0
 61140  1  0  0  0
 62141  1  0  0  0
 62142  1  0  0  0
 62143  1  0  0  0
 63 65  1  0  0  0
 63144  1  0  0  0
 63145  1  0  0  0
 63146  1  0  0  0
 64147  1  0  0  0
 65148  1  0  0  0
 68 85  1  0  0  0
 71 73  2  0  0  0
 71 76  1  0  0  0
 71149  1  0  0  0
 72 75  1  0  0  0
 72 76  2  0  0  0
 72150  1  0  0  0
 73 74  1  0  0  0
 73 77  1  0  0  0
 74 75  2  0  0  0
 74 78  1  0  0  0
 75 87  1  0  0  0
 76 89  1  0  0  0
 77 80  1  0  0  0
 77151  1  0  0  0
 77152  1  0  0  0
 78 79  1  0  0  0
 78153  1  0  0  0
 78154  1  0  0  0
 79 80  1  0  0  0
 79155  1  0  0  0
 79156  1  0  0  0
 80 83  1  0  0  0
 80157  1  0  0  0
 81158  1  0  0  0
 81159  1  0  0  0
 81160  1  0  0  0
 81 87  1  0  0  0
 82 87  1  0  0  0
 82161  1  0  0  0
 82162  1  0  0  0
 82163  1  0  0  0
 83 84  1  0  0  0
 83164  1  0  0  0
 83165  1  0  0  0
 84 88  1  0  0  0
 84166  1  0  0  0
 84167  1  0  0  0
 85 86  1  0  0  0
 85168  1  0  0  0
 85169  1  0  0  0
 86 89  1  0  0  0
 86170  1  0  0  0
 86171  1  0  0  0
 87172  1  0  0  0
 88173  1  0  0  0
M  ISO  4   1 100  68 101  85 101  88 100
M  END
> <chiral flag>
0

> <version>
0

> <s_m_source_file>
/data/baiqing/PycharmProjects/Reinvent-master-3.2/result/LINK_invent/BTK/process_docking_weight1_custom_sum_contain_oxygen_bond_distance_aromatic_linkinvent_7_9_3/rearranged_h_0145.sdf

> <i_m_source_file_index>
34

> <r_mmod_Potential_Energy-OPLS-2005>
-33.4542503356934

> <r_mmod_Stretch_Energy-OPLS-2005>
34.9137496948242

> <r_mmod_Bend_Energy-OPLS-2005>
101.223487854004

> <r_mmod_Torsional_Energy-OPLS-2005>
255.624816894531

> <r_mmod_Improper_Torsional_Energy-OPLS-2005>
1.80879163742065

> <r_mmod_Van_der_Waal_Energy-OPLS-2005>
167.159362792969

> <r_mmod_Electrostatic_Energy-OPLS-2005>
-395.523590087891

> <r_mmod_Solvation_Energy-OPLS-2005>
-205.134338378906

> <b_mmod_Minimization_Converged-OPLS-2005>
0

> <r_mmod_RMS_Derivative-OPLS-2005>
2.23046827316284

$$$$
35
                    3D
 Structure written by MMmdl.
180190  0  0  1  0            999 V2000
  -30.4891  -14.9401   20.4495 C   0  0  0  0  0  0
  -30.4703  -12.6005   19.4411 C   0  0  0  0  0  0
  -29.5127  -12.5131   18.2278 C   0  0  0  0  0  0
  -28.0474  -12.3071   18.6593 C   0  0  0  0  0  0
  -27.6344  -13.2311   19.8282 C   0  0  2  0  0  0
  -28.6897  -13.2184   20.9449 C   0  0  0  0  0  0
  -25.2474  -13.8124   20.5808 C   0  0  0  0  0  0
  -24.1797  -13.0350   20.9199 C   0  0  0  0  0  0
  -24.6348  -11.6806   20.8623 C   0  0  0  0  0  0
  -23.8982  -10.4228   21.0287 C   0  0  0  0  0  0
  -24.3539   -9.4216   21.9104 C   0  0  0  0  0  0
  -23.6205   -8.2245   22.0752 C   0  0  0  0  0  0
  -22.4178   -8.0234   21.3535 C   0  0  0  0  0  0
  -21.9785   -9.0179   20.4617 C   0  0  0  0  0  0
  -22.7084  -10.2069   20.2988 C   0  0  0  0  0  0
  -21.6742   -6.0751   22.5315 C   0  0  0  0  0  0
  -21.3901   -6.5673   23.8245 C   0  0  0  0  0  0
  -21.3700   -5.6830   24.9233 C   0  0  0  0  0  0
  -21.6100   -4.3117   24.7257 C   0  0  0  0  0  0
  -21.8800   -3.8205   23.4378 C   0  0  0  0  0  0
  -21.9142   -4.7013   22.3418 C   0  0  0  0  0  0
  -22.7818  -13.5119   21.1908 C   0  0  0  0  0  0
  -22.1624   -4.2230   21.0995 F   0  0  0  0  0  0
  -21.5708   -3.4581   25.7791 F   0  0  0  0  0  0
  -29.9508  -13.6640   20.3419 N   0  0  0  0  0  0
  -26.2901  -12.9336   20.3165 N   0  0  0  0  0  0
  -25.9256  -11.6454   20.5464 N   0  0  0  0  0  0
  -22.0435  -12.8226   22.0530 N   0  0  0  0  0  0
  -25.4052  -15.1893   20.4687 N   0  0  0  0  0  0
  -31.7065  -15.0793   20.2962 O   0  0  0  0  0  0
  -21.6511   -6.8861   21.4252 O   0  0  0  0  0  0
  -22.3535  -14.5417   20.6672 O   0  0  0  0  0  0
  -24.6500  -31.8395   23.1859 C   0  0  0  0  0  0
  -25.9254  -32.4650   23.8266 C   0  0  1  0  0  0
  -27.1859  -27.0923   20.1553 C   0  0  0  0  0  0
  -25.5969  -33.8456   24.2181 N   0  0  0  0  0  0
  -23.4508  -30.4622   21.5308 C   0  0  2  0  0  0
  -24.8950  -28.8822   20.1039 C   0  0  0  0  0  0
  -22.7596  -29.4559   22.4852 C   0  0  0  0  0  0
  -18.0306  -28.1398   22.8468 C   0  0  0  0  0  0
  -24.1503  -36.7239   23.2638 C   0  0  0  0  0  0
  -26.0118  -30.6994   21.3911 C   0  0  0  0  0  0
  -26.0748  -29.3071   20.7293 C   0  0  0  0  0  0
  -27.2262  -28.4290   20.7312 C   0  0  0  0  0  0
  -25.9809  -26.7733   19.4954 C   0  0  0  0  0  0
  -24.8631  -27.6316   19.4732 C   0  0  0  0  0  0
  -23.6775  -29.7920   20.1472 C   0  0  0  0  0  0
  -25.4131  -36.3005   24.0318 C   0  0  1  0  0  0
  -20.5924  -28.3733   23.1221 C   0  0  2  0  0  0
  -20.6782  -26.9444   22.5388 C   0  0  0  0  0  0
  -19.5765  -26.6391   21.5193 C   0  0  0  0  0  0
  -18.1942  -26.7935   22.1622 C   0  0  0  0  0  0
  -19.1563  -28.8890   23.2832 C   0  0  0  0  0  0
  -18.9497  -30.1490   23.8852 C   0  0  0  0  0  0
  -17.6481  -30.6589   24.0576 C   0  0  0  0  0  0
  -25.9072  -34.9376   23.5055 C   0  0  0  0  0  0
  -16.5370  -29.9086   23.6343 C   0  0  0  0  0  0
  -16.7294  -28.6517   23.0351 C   0  0  0  0  0  0
  -26.4548  -31.6543   25.0726 C   0  0  0  0  0  0
  -25.3732  -31.3731   26.1422 C   0  0  0  0  0  0
  -27.0412  -30.2928   24.6359 C   0  0  0  0  0  0
  -27.6052  -32.4330   25.7511 C   0  0  0  0  0  0
  -27.5578  -37.1770   24.8464 C   0  0  0  0  0  0
  -21.4282  -29.3067   22.3609 N   0  0  0  0  0  0
  -26.4301  -37.3728   23.9391 N   0  0  0  0  0  0
  -24.7260  -31.0229   22.0890 N   0  0  0  0  0  0
  -23.4230  -28.8103   23.3025 O   0  0  0  0  0  0
  -28.2068  -26.0713   20.2360 O   0  0  0  0  0  0
  -26.5668  -34.8873   22.4632 O   0  0  0  0  0  0
  -23.5608  -32.1350   23.7012 O   0  0  0  0  0  0
  -23.0362  -19.6926   19.6981 C   0  0  0  0  0  0
  -22.3764  -20.7984   18.9123 C   0  0  0  0  0  0
  -28.2411  -17.7176   21.9097 C   0  0  0  0  0  0
  -29.5711  -17.6179   22.5689 C   0  0  0  0  0  0
  -26.9234  -21.3590   20.8336 C   0  0  0  0  0  0
  -27.0336  -20.8776   18.3769 C   0  0  0  0  0  0
  -23.8743  -20.5930   18.8156 C   0  0  0  0  0  0
  -28.4640  -21.5438   20.6507 C   0  0  1  0  0  0
  -29.0682  -20.2249   19.7672 C   0  0  2  0  0  0
  -28.0535  -19.7739   18.6845 C   0  0  1  0  0  0
  -29.4780  -17.4918   21.0531 C   0  0  0  0  0  0
  -29.3899  -23.6000   21.9289 C   0  0  0  0  0  0
  -26.9554  -17.6712   18.2529 C   0  0  0  0  0  0
  -29.9418  -18.8398   20.2288 C   0  0  0  0  0  0
  -24.8489  -21.6001   19.4141 C   0  0  0  0  0  0
  -27.8732  -24.5381   20.1261 C   0  0  0  0  0  0
  -28.8641  -23.2202   20.5259 C   0  0  2  0  0  0
  -29.5700  -16.0231   20.5440 N   0  0  0  0  0  0
  -26.1890  -20.9975   19.5870 N   0  3  2  0  0  0
  -27.2905  -18.6837   19.2000 O   0  0  0  0  0  0
  -31.4768  -12.8500   19.0924 H   0  0  0  0  0  0
  -30.5401  -11.6399   19.9614 H   0  0  0  0  0  0
  -29.8043  -11.7006   17.5620 H   0  0  0  0  0  0
  -29.5863  -13.4211   17.6295 H   0  0  0  0  0  0
  -27.9358  -11.2664   18.9660 H   0  0  0  0  0  0
  -27.3783  -12.4415   17.8063 H   0  0  0  0  0  0
  -27.6017  -14.2369   19.4159 H   0  0  0  0  0  0
  -28.7873  -12.2216   21.3708 H   0  0  0  0  0  0
  -28.4030  -13.8886   21.7538 H   0  0  0  0  0  0
  -25.2671   -9.5789   22.4661 H   0  0  0  0  0  0
  -23.9942   -7.4713   22.7543 H   0  0  0  0  0  0
  -21.0713   -8.8655   19.8952 H   0  0  0  0  0  0
  -22.3456  -10.9655   19.6167 H   0  0  0  0  0  0
  -21.1738   -7.6152   23.9774 H   0  0  0  0  0  0
  -21.1568   -6.0542   25.9141 H   0  0  0  0  0  0
  -22.0459   -2.7654   23.2855 H   0  0  0  0  0  0
  -22.3725  -11.9714   22.4860 H   0  0  0  0  0  0
  -21.1228  -13.1659   22.2867 H   0  0  0  0  0  0
  -24.6337  -15.8178   20.6659 H   0  0  0  0  0  0
  -26.2541  -15.6852   20.2434 H   0  0  0  0  0  0
  -26.7301  -32.5242   23.0982 H   0  0  0  0  0  0
  -25.0098  -33.9595   25.0316 H   0  0  0  0  0  0
  -22.7591  -31.2926   21.3718 H   0  0  0  0  0  0
  -23.3762  -35.9577   23.3295 H   0  0  0  0  0  0
  -24.3593  -36.8891   22.2057 H   0  0  0  0  0  0
  -23.7282  -37.6437   23.6698 H   0  0  0  0  0  0
  -26.1788  -31.4582   20.6227 H   0  0  0  0  0  0
  -26.8788  -30.7442   22.0394 H   0  0  0  0  0  0
  -28.1238  -28.7409   21.2468 H   0  0  0  0  0  0
  -25.8623  -25.8097   19.0186 H   0  0  0  0  0  0
  -23.9588  -27.3017   18.9808 H   0  0  0  0  0  0
  -23.8268  -30.5663   19.3934 H   0  0  0  0  0  0
  -22.7904  -29.2400   19.8319 H   0  0  0  0  0  0
  -25.1331  -36.1821   25.0818 H   0  0  0  0  0  0
  -21.0009  -28.3300   24.1348 H   0  0  0  0  0  0
  -20.5666  -26.2353   23.3621 H   0  0  0  0  0  0
  -21.6664  -26.7453   22.1212 H   0  0  0  0  0  0
  -19.6956  -25.6289   21.1276 H   0  0  0  0  0  0
  -19.6698  -27.3170   20.6691 H   0  0  0  0  0  0
  -17.4232  -26.6676   21.4027 H   0  0  0  0  0  0
  -18.0375  -26.0070   22.9015 H   0  0  0  0  0  0
  -19.7963  -30.7329   24.2200 H   0  0  0  0  0  0
  -17.5033  -31.6266   24.5197 H   0  0  0  0  0  0
  -15.5382  -30.2987   23.7680 H   0  0  0  0  0  0
  -15.8689  -28.0836   22.7059 H   0  0  0  0  0  0
  -24.5925  -30.7053   25.7762 H   0  0  0  0  0  0
  -24.8903  -32.2908   26.4801 H   0  0  0  0  0  0
  -25.8049  -30.8959   27.0228 H   0  0  0  0  0  0
  -26.3048  -29.6624   24.1362 H   0  0  0  0  0  0
  -27.3980  -29.7261   25.4968 H   0  0  0  0  0  0
  -27.8986  -30.4129   23.9723 H   0  0  0  0  0  0
  -27.2627  -33.3658   26.2007 H   0  0  0  0  0  0
  -28.3911  -32.6849   25.0373 H   0  0  0  0  0  0
  -28.0672  -31.8508   26.5511 H   0  0  0  0  0  0
  -28.2575  -38.0073   24.7480 H   0  0  0  0  0  0
  -28.1096  -36.2600   24.6340 H   0  0  0  0  0  0
  -27.2280  -37.1458   25.8861 H   0  0  0  0  0  0
  -20.9524  -29.8747   21.6754 H   0  0  0  0  0  0
  -26.0157  -38.2794   24.1378 H   0  0  0  0  0  0
  -22.8853  -18.6722   19.3549 H   0  0  0  0  0  0
  -23.0767  -19.8211   20.7782 H   0  0  0  0  0  0
  -22.0067  -21.6648   19.4632 H   0  0  0  0  0  0
  -21.7663  -20.4884   18.0661 H   0  0  0  0  0  0
  -27.5418  -16.8963   22.0202 H   0  0  0  0  0  0
  -27.7844  -18.6983   21.9601 H   0  0  0  0  0  0
  -29.7295  -16.7267   23.1761 H   0  0  0  0  0  0
  -29.9525  -18.5484   22.9935 H   0  0  0  0  0  0
  -26.4652  -22.1838   21.3762 H   0  0  0  0  0  0
  -26.7565  -20.4956   21.4698 H   0  0  0  0  0  0
  -26.4287  -20.5870   17.5207 H   0  0  0  0  0  0
  -27.5169  -21.8190   18.1093 H   0  0  0  0  0  0
  -24.2007  -20.1561   17.8721 H   0  0  0  0  0  0
  -28.8682  -21.2778   21.6294 H   0  0  0  0  0  0
  -29.8384  -20.7410   19.1857 H   0  0  0  0  0  0
  -28.6061  -19.4764   17.7874 H   0  0  0  0  0  0
  -30.2204  -22.9639   22.2410 H   0  0  0  0  0  0
  -28.5973  -23.5015   22.6742 H   0  0  0  0  0  0
  -29.7464  -24.6323   21.9654 H   0  0  0  0  0  0
  -26.2235  -16.9939   18.6904 H   0  0  0  0  0  0
  -27.8289  -17.0769   17.9886 H   0  0  0  0  0  0
  -26.5178  -18.0867   17.3431 H   0  0  0  0  0  0
  -30.7825  -19.2217   20.8031 H   0  0  0  0  0  0
  -30.4210  -18.4751   19.3194 H   0  0  0  0  0  0
  -24.4643  -21.9279   20.3787 H   0  0  0  0  0  0
  -24.9077  -22.4923   18.7870 H   0  0  0  0  0  0
  -27.5757  -24.3706   19.0876 H   0  0  0  0  0  0
  -26.9592  -24.4075   20.7091 H   0  0  0  0  0  0
  -29.7194  -23.2748   19.8500 H   0  0  0  0  0  0
  -28.6454  -15.6314   20.4754 H   0  0  0  0  0  0
  -25.9756  -20.0179   19.7328 H   0  0  0  0  0  0
  1 25  1  0  0  0
  1 30  2  0  0  0
  1 88  1  0  0  0
  2  3  1  0  0  0
  2 25  1  0  0  0
  2 91  1  0  0  0
  2 92  1  0  0  0
  3  4  1  0  0  0
  3 93  1  0  0  0
  3 94  1  0  0  0
  4  5  1  0  0  0
  4 95  1  0  0  0
  4 96  1  0  0  0
  5  6  1  0  0  0
  5 26  1  0  0  0
  5 97  1  0  0  0
  6 25  1  0  0  0
  6 98  1  0  0  0
  6 99  1  0  0  0
  7  8  2  0  0  0
  7 26  1  0  0  0
  7 29  1  0  0  0
  8  9  1  0  0  0
  8 22  1  0  0  0
  9 10  1  0  0  0
  9 27  2  0  0  0
 10 11  2  0  0  0
 10 15  1  0  0  0
 11 12  1  0  0  0
 11100  1  0  0  0
 12 13  2  0  0  0
 12101  1  0  0  0
 13 14  1  0  0  0
 13 31  1  0  0  0
 14 15  2  0  0  0
 14102  1  0  0  0
 15103  1  0  0  0
 16 17  2  0  0  0
 16 21  1  0  0  0
 16 31  1  0  0  0
 17 18  1  0  0  0
 17104  1  0  0  0
 18 19  2  0  0  0
 18105  1  0  0  0
 19 20  1  0  0  0
 19 24  1  0  0  0
 20 21  2  0  0  0
 20106  1  0  0  0
 21 23  1  0  0  0
 22 28  1  0  0  0
 22 32  2  0  0  0
 26 27  1  0  0  0
 28107  1  0  0  0
 28108  1  0  0  0
 29109  1  0  0  0
 29110  1  0  0  0
 33 34  1  0  0  0
 33 66  1  0  0  0
 33 70  2  0  0  0
 34 36  1  0  0  0
 34 59  1  0  0  0
 34111  1  0  0  0
 35 44  2  0  0  0
 35 45  1  0  0  0
 35 68  1  0  0  0
 36 56  1  0  0  0
 36112  1  0  0  0
 37 39  1  0  0  0
 37 47  1  0  0  0
 37 66  1  0  0  0
 37113  1  0  0  0
 38 43  2  0  0  0
 38 46  1  0  0  0
 38 47  1  0  0  0
 39 64  1  0  0  0
 39 67  2  0  0  0
 40 52  1  0  0  0
 40 53  2  0  0  0
 40 58  1  0  0  0
 41114  1  0  0  0
 41115  1  0  0  0
 41116  1  0  0  0
 41 48  1  0  0  0
 42 43  1  0  0  0
 42 66  1  0  0  0
 42117  1  0  0  0
 42118  1  0  0  0
 43 44  1  0  0  0
 44119  1  0  0  0
 45 46  2  0  0  0
 45120  1  0  0  0
 46121  1  0  0  0
 47122  1  0  0  0
 47123  1  0  0  0
 48 56  1  0  0  0
 48 65  1  0  0  0
 48124  1  0  0  0
 49 50  1  0  0  0
 49 53  1  0  0  0
 49 64  1  0  0  0
 49125  1  0  0  0
 50 51  1  0  0  0
 50126  1  0  0  0
 50127  1  0  0  0
 51 52  1  0  0  0
 51128  1  0  0  0
 51129  1  0  0  0
 52130  1  0  0  0
 52131  1  0  0  0
 53 54  1  0  0  0
 54 55  2  0  0  0
 54132  1  0  0  0
 55 57  1  0  0  0
 55133  1  0  0  0
 56 69  2  0  0  0
 57 58  2  0  0  0
 57134  1  0  0  0
 58135  1  0  0  0
 59 60  1  0  0  0
 59 61  1  0  0  0
 59 62  1  0  0  0
 60136  1  0  0  0
 60137  1  0  0  0
 60138  1  0  0  0
 61139  1  0  0  0
 61140  1  0  0  0
 61141  1  0  0  0
 62142  1  0  0  0
 62143  1  0  0  0
 62144  1  0  0  0
 63 65  1  0  0  0
 63145  1  0  0  0
 63146  1  0  0  0
 63147  1  0  0  0
 64148  1  0  0  0
 65149  1  0  0  0
 68 86  1  0  0  0
 71 72  1  0  0  0
 71 77  1  0  0  0
 71150  1  0  0  0
 71151  1  0  0  0
 72 77  1  0  0  0
 72152  1  0  0  0
 72153  1  0  0  0
 73 74  1  0  0  0
 73 81  1  0  0  0
 73154  1  0  0  0
 73155  1  0  0  0
 74 81  1  0  0  0
 74156  1  0  0  0
 74157  1  0  0  0
 75 89  1  0  0  0
 75158  1  0  0  0
 75159  1  0  0  0
 75 78  1  0  0  0
 76 80  1  0  0  0
 76 89  1  0  0  0
 76160  1  0  0  0
 76161  1  0  0  0
 77 85  1  0  0  0
 77162  1  0  0  0
 78 79  1  0  0  0
 78 87  1  0  0  0
 78163  1  0  0  0
 79 80  1  0  0  0
 79 84  1  0  0  0
 79164  1  0  0  0
 80 90  1  0  0  0
 80165  1  0  0  0
 81 84  1  0  0  0
 81 88  1  0  0  0
 82166  1  0  0  0
 82167  1  0  0  0
 82168  1  0  0  0
 82 87  1  0  0  0
 83 90  1  0  0  0
 83169  1  0  0  0
 83170  1  0  0  0
 83171  1  0  0  0
 84172  1  0  0  0
 84173  1  0  0  0
 85174  1  0  0  0
 85175  1  0  0  0
 85 89  1  0  0  0
 86 87  1  0  0  0
 86176  1  0  0  0
 86177  1  0  0  0
 87178  1  0  0  0
 88179  1  0  0  0
 89180  1  0  0  0
M  CHG  1  89   1
M  ISO  4   1 100  68 101  86 101  88 100
M  END
> <chiral flag>
0

> <version>
0

> <s_m_source_file>
/data/baiqing/PycharmProjects/Reinvent-master-3.2/result/LINK_invent/BTK/process_docking_weight1_custom_sum_contain_oxygen_bond_distance_aromatic_linkinvent_7_9_3/rearranged_h_0145.sdf

> <i_m_source_file_index>
35

> <r_mmod_Potential_Energy-OPLS-2005>
847.036315917969

> <r_mmod_Stretch_Energy-OPLS-2005>
309.085968017578

> <r_mmod_Bend_Energy-OPLS-2005>
392.271789550781

> <r_mmod_Torsional_Energy-OPLS-2005>
470.751342773438

> <r_mmod_Improper_Torsional_Energy-OPLS-2005>
4.70118713378906

> <r_mmod_Van_der_Waal_Energy-OPLS-2005>
103.711853027344

> <r_mmod_Electrostatic_Energy-OPLS-2005>
-240.681106567383

> <r_mmod_Solvation_Energy-OPLS-2005>
-415.179656982422

> <b_mmod_Minimization_Converged-OPLS-2005>
0

> <r_mmod_RMS_Derivative-OPLS-2005>
8.4529857635498

$$$$
36
                    3D
 Structure written by MMmdl.
167177  0  0  1  0            999 V2000
  -30.4592  -15.2821   20.4524 C   0  0  0  0  0  0
  -30.4505  -12.8369   19.5145 C   0  0  0  0  0  0
  -29.5350  -12.5974   18.2830 C   0  0  0  0  0  0
  -28.0771  -12.3315   18.6991 C   0  0  0  0  0  0
  -27.6197  -13.2754   19.8338 C   0  0  2  0  0  0
  -28.6607  -13.3831   20.9635 C   0  0  0  0  0  0
  -25.2399  -13.8247   20.5789 C   0  0  0  0  0  0
  -24.1752  -13.0442   20.9243 C   0  0  0  0  0  0
  -24.6406  -11.6920   20.8773 C   0  0  0  0  0  0
  -23.9092  -10.4299   21.0416 C   0  0  0  0  0  0
  -24.3625   -9.4211   21.9214 C   0  0  0  0  0  0
  -23.6284   -8.2256   22.0781 C   0  0  0  0  0  0
  -22.4263   -8.0279   21.3561 C   0  0  0  0  0  0
  -21.9920   -9.0256   20.4660 C   0  0  0  0  0  0
  -22.7254  -10.2123   20.3077 C   0  0  0  0  0  0
  -21.6855   -6.0732   22.5295 C   0  0  0  0  0  0
  -21.4024   -6.5625   23.8229 C   0  0  0  0  0  0
  -21.3665   -5.6762   24.9186 C   0  0  0  0  0  0
  -21.6049   -4.3034   24.7226 C   0  0  0  0  0  0
  -21.8816   -3.8132   23.4352 C   0  0  0  0  0  0
  -21.9183   -4.6969   22.3414 C   0  0  0  0  0  0
  -22.7766  -13.5191   21.1857 C   0  0  0  0  0  0
  -22.1630   -4.2150   21.0992 F   0  0  0  0  0  0
  -21.5632   -3.4512   25.7749 F   0  0  0  0  0  0
  -29.8945  -13.9590   20.3698 N   0  0  0  0  0  0
  -26.2853  -12.9534   20.3255 N   0  0  0  0  0  0
  -25.9342  -11.6629   20.5726 N   0  0  0  0  0  0
  -22.0355  -12.8263   22.0420 N   0  0  0  0  0  0
  -25.3962  -15.2015   20.4304 N   0  0  0  0  0  0
  -31.6397  -15.3046   20.0720 O   0  0  0  0  0  0
  -21.6631   -6.8877   21.4244 O   0  0  0  0  0  0
  -22.3489  -14.5494   20.6638 O   0  0  0  0  0  0
  -24.6659  -31.8226   23.1628 C   0  0  0  0  0  0
  -25.9340  -32.4580   23.8132 C   0  0  1  0  0  0
  -27.2490  -26.9418   20.1928 C   0  0  0  0  0  0
  -25.6010  -33.8396   24.2028 N   0  0  0  0  0  0
  -23.4791  -30.4272   21.5152 C   0  0  2  0  0  0
  -24.9352  -28.8102   20.1169 C   0  0  0  0  0  0
  -22.7700  -29.4426   22.4810 C   0  0  0  0  0  0
  -18.0300  -28.1431   22.8438 C   0  0  0  0  0  0
  -24.1490  -36.7218   23.2640 C   0  0  0  0  0  0
  -26.0465  -30.6368   21.3876 C   0  0  0  0  0  0
  -26.1186  -29.2244   20.7408 C   0  0  0  0  0  0
  -27.2668  -28.3134   20.7475 C   0  0  0  0  0  0
  -26.0305  -26.6715   19.5271 C   0  0  0  0  0  0
  -24.9166  -27.5535   19.4891 C   0  0  0  0  0  0
  -23.7129  -29.7280   20.1472 C   0  0  0  0  0  0
  -25.4135  -36.2953   24.0269 C   0  0  1  0  0  0
  -20.5931  -28.3756   23.1213 C   0  0  2  0  0  0
  -20.6810  -26.9442   22.5428 C   0  0  0  0  0  0
  -19.5783  -26.6376   21.5245 C   0  0  0  0  0  0
  -18.1942  -26.7960   22.1604 C   0  0  0  0  0  0
  -19.1573  -28.8911   23.2797 C   0  0  0  0  0  0
  -18.9491  -30.1499   23.8824 C   0  0  0  0  0  0
  -17.6484  -30.6622   24.0537 C   0  0  0  0  0  0
  -25.9104  -34.9340   23.4964 C   0  0  0  0  0  0
  -16.5366  -29.9095   23.6360 C   0  0  0  0  0  0
  -16.7287  -28.6524   23.0372 C   0  0  0  0  0  0
  -26.4572  -31.6545   25.0668 C   0  0  0  0  0  0
  -25.3662  -31.3824   26.1290 C   0  0  0  0  0  0
  -27.0470  -30.2916   24.6394 C   0  0  0  0  0  0
  -27.6043  -32.4364   25.7483 C   0  0  0  0  0  0
  -27.5560  -37.1763   24.8455 C   0  0  0  0  0  0
  -21.4362  -29.3031   22.3580 N   0  0  0  0  0  0
  -26.4260  -37.3708   23.9411 N   0  0  0  0  0  0
  -24.7518  -30.9896   22.0762 N   0  0  0  0  0  0
  -23.4255  -28.8013   23.3049 O   0  0  0  0  0  0
  -28.3124  -25.8959   20.2035 O   0  0  0  0  0  0
  -26.5715  -34.8869   22.4551 O   0  0  0  0  0  0
  -23.5728  -32.1186   23.6732 O   0  0  0  0  0  0
  -30.0387  -17.3122   23.1700 C   0  0  0  0  0  0
  -31.9994  -23.1830   21.2708 C   0  0  0  0  0  0
  -31.4368  -24.5829   21.3829 C   0  0  0  0  0  0
  -27.5765  -21.7476   19.8973 C   0  0  0  0  0  0
  -27.3251  -23.3137   19.5898 C   0  0  0  0  0  0
  -30.4688  -18.4511   22.2724 C   0  0  0  0  0  0
  -29.3242  -16.2948   22.2672 C   0  0  0  0  0  0
  -30.5170  -23.3875   21.4967 C   0  0  0  0  0  0
  -29.4681  -23.0560   20.4382 C   0  0  1  0  0  0
  -28.9676  -21.4127   20.5511 C   0  0  2  0  0  0
  -28.2400  -24.2591   20.4302 C   0  0  1  0  0  0
  -29.6545  -18.2380   21.0039 C   0  0  1  0  0  0
  -29.7065  -19.6063   18.6350 C   0  0  0  0  0  0
  -29.7364  -19.8176   20.1512 C   0  0  1  0  0  0
  -29.7253  -16.5314   20.8543 N   0  0  0  0  0  0
  -31.4583  -13.0669   19.1661 H   0  0  0  0  0  0
  -30.5522  -11.9175   20.0917 H   0  0  0  0  0  0
  -29.9029  -11.7476   17.7058 H   0  0  0  0  0  0
  -29.5817  -13.4656   17.6226 H   0  0  0  0  0  0
  -28.0048  -11.2971   19.0335 H   0  0  0  0  0  0
  -27.4112  -12.4116   17.8389 H   0  0  0  0  0  0
  -27.5527  -14.2672   19.3855 H   0  0  0  0  0  0
  -28.8388  -12.4102   21.4286 H   0  0  0  0  0  0
  -28.2481  -14.0039   21.7525 H   0  0  0  0  0  0
  -25.2752   -9.5710   22.4805 H   0  0  0  0  0  0
  -23.9978   -7.4669   22.7529 H   0  0  0  0  0  0
  -21.0849   -8.8793   19.8967 H   0  0  0  0  0  0
  -22.3721  -10.9672   19.6203 H   0  0  0  0  0  0
  -21.2018   -7.6132   23.9760 H   0  0  0  0  0  0
  -21.1487   -6.0481   25.9093 H   0  0  0  0  0  0
  -22.0596   -2.7594   23.2860 H   0  0  0  0  0  0
  -22.3844  -11.9944   22.4942 H   0  0  0  0  0  0
  -21.0978  -13.1390   22.2518 H   0  0  0  0  0  0
  -24.6157  -15.8358   20.5692 H   0  0  0  0  0  0
  -26.2328  -15.6643   20.1012 H   0  0  0  0  0  0
  -26.7417  -32.5101   23.0859 H   0  0  0  0  0  0
  -25.0176  -33.9504   25.0191 H   0  0  0  0  0  0
  -22.7912  -31.2560   21.3367 H   0  0  0  0  0  0
  -23.3750  -35.9551   23.3252 H   0  0  0  0  0  0
  -24.3573  -36.8934   22.2071 H   0  0  0  0  0  0
  -23.7272  -37.6386   23.6746 H   0  0  0  0  0  0
  -26.2254  -31.3753   20.6036 H   0  0  0  0  0  0
  -26.9101  -30.6985   22.0397 H   0  0  0  0  0  0
  -28.1690  -28.6377   21.2483 H   0  0  0  0  0  0
  -25.9198  -25.7182   19.0341 H   0  0  0  0  0  0
  -24.0189  -27.2278   18.9806 H   0  0  0  0  0  0
  -23.8488  -30.4827   19.3717 H   0  0  0  0  0  0
  -22.8284  -29.1638   19.8474 H   0  0  0  0  0  0
  -25.1349  -36.1700   25.0761 H   0  0  0  0  0  0
  -20.9982  -28.3328   24.1354 H   0  0  0  0  0  0
  -20.5778  -26.2342   23.3649 H   0  0  0  0  0  0
  -21.6662  -26.7480   22.1179 H   0  0  0  0  0  0
  -19.6969  -25.6284   21.1302 H   0  0  0  0  0  0
  -19.6751  -27.3152   20.6747 H   0  0  0  0  0  0
  -17.4254  -26.6703   21.3970 H   0  0  0  0  0  0
  -18.0271  -26.0135   22.9017 H   0  0  0  0  0  0
  -19.7961  -30.7333   24.2167 H   0  0  0  0  0  0
  -17.5033  -31.6289   24.5162 H   0  0  0  0  0  0
  -15.5366  -30.2989   23.7751 H   0  0  0  0  0  0
  -15.8659  -28.0826   22.7167 H   0  0  0  0  0  0
  -24.5877  -30.7139   25.7602 H   0  0  0  0  0  0
  -24.8813  -32.3030   26.4521 H   0  0  0  0  0  0
  -25.7849  -30.9137   27.0195 H   0  0  0  0  0  0
  -26.3144  -29.6587   24.1361 H   0  0  0  0  0  0
  -27.3990  -29.7283   25.5051 H   0  0  0  0  0  0
  -27.9069  -30.4134   23.9804 H   0  0  0  0  0  0
  -27.2617  -33.3743   26.1857 H   0  0  0  0  0  0
  -28.3949  -32.6807   25.0381 H   0  0  0  0  0  0
  -28.0573  -31.8625   26.5574 H   0  0  0  0  0  0
  -28.2532  -38.0103   24.7532 H   0  0  0  0  0  0
  -28.1102  -36.2634   24.6221 H   0  0  0  0  0  0
  -27.2283  -37.1321   25.8857 H   0  0  0  0  0  0
  -20.9655  -29.8696   21.6655 H   0  0  0  0  0  0
  -26.0074  -38.2741   24.1451 H   0  0  0  0  0  0
  -29.3645  -17.6621   23.9534 H   0  0  0  0  0  0
  -30.9116  -16.8694   23.6517 H   0  0  0  0  0  0
  -32.5891  -22.8137   22.1083 H   0  0  0  0  0  0
  -32.3478  -22.8738   20.2877 H   0  0  0  0  0  0
  -31.3762  -25.1853   20.4771 H   0  0  0  0  0  0
  -31.6605  -25.1340   22.2966 H   0  0  0  0  0  0
  -27.4628  -21.1857   18.9710 H   0  0  0  0  0  0
  -26.7952  -21.3674   20.5569 H   0  0  0  0  0  0
  -26.2724  -23.5628   19.7196 H   0  0  0  0  0  0
  -27.5453  -23.4797   18.5350 H   0  0  0  0  0  0
  -31.5296  -18.3672   22.0254 H   0  0  0  0  0  0
  -30.3164  -19.4285   22.7369 H   0  0  0  0  0  0
  -28.2401  -16.3877   22.3673 H   0  0  0  0  0  0
  -29.5759  -15.3200   22.6892 H   0  0  0  0  0  0
  -30.1677  -23.1873   22.5064 H   0  0  0  0  0  0
  -29.9668  -23.1446   19.4703 H   0  0  0  0  0  0
  -28.7847  -21.3233   21.6224 H   0  0  0  0  0  0
  -27.8232  -24.2197   21.4369 H   0  0  0  0  0  0
  -28.6028  -18.3491   21.2731 H   0  0  0  0  0  0
  -29.8402  -20.5532   18.1061 H   0  0  0  0  0  0
  -28.7672  -19.1628   18.3074 H   0  0  0  0  0  0
  -30.5175  -18.9492   18.3217 H   0  0  0  0  0  0
  -30.7809  -20.0846   20.3251 H   0  0  0  0  0  0
  1 25  1  0  0  0
  1 30  2  0  0  0
  1 85  1  0  0  0
  2  3  1  0  0  0
  2 25  1  0  0  0
  2 86  1  0  0  0
  2 87  1  0  0  0
  3  4  1  0  0  0
  3 88  1  0  0  0
  3 89  1  0  0  0
  4  5  1  0  0  0
  4 90  1  0  0  0
  4 91  1  0  0  0
  5  6  1  0  0  0
  5 26  1  0  0  0
  5 92  1  0  0  0
  6 25  1  0  0  0
  6 93  1  0  0  0
  6 94  1  0  0  0
  7  8  2  0  0  0
  7 26  1  0  0  0
  7 29  1  0  0  0
  8  9  1  0  0  0
  8 22  1  0  0  0
  9 10  1  0  0  0
  9 27  2  0  0  0
 10 11  2  0  0  0
 10 15  1  0  0  0
 11 12  1  0  0  0
 11 95  1  0  0  0
 12 13  2  0  0  0
 12 96  1  0  0  0
 13 14  1  0  0  0
 13 31  1  0  0  0
 14 15  2  0  0  0
 14 97  1  0  0  0
 15 98  1  0  0  0
 16 17  2  0  0  0
 16 21  1  0  0  0
 16 31  1  0  0  0
 17 18  1  0  0  0
 17 99  1  0  0  0
 18 19  2  0  0  0
 18100  1  0  0  0
 19 20  1  0  0  0
 19 24  1  0  0  0
 20 21  2  0  0  0
 20101  1  0  0  0
 21 23  1  0  0  0
 22 28  1  0  0  0
 22 32  2  0  0  0
 26 27  1  0  0  0
 28102  1  0  0  0
 28103  1  0  0  0
 29104  1  0  0  0
 29105  1  0  0  0
 33 34  1  0  0  0
 33 66  1  0  0  0
 33 70  2  0  0  0
 34 36  1  0  0  0
 34 59  1  0  0  0
 34106  1  0  0  0
 35 44  2  0  0  0
 35 45  1  0  0  0
 35 68  1  0  0  0
 36 56  1  0  0  0
 36107  1  0  0  0
 37 39  1  0  0  0
 37 47  1  0  0  0
 37 66  1  0  0  0
 37108  1  0  0  0
 38 43  2  0  0  0
 38 46  1  0  0  0
 38 47  1  0  0  0
 39 64  1  0  0  0
 39 67  2  0  0  0
 40 52  1  0  0  0
 40 53  2  0  0  0
 40 58  1  0  0  0
 41109  1  0  0  0
 41110  1  0  0  0
 41111  1  0  0  0
 41 48  1  0  0  0
 42 43  1  0  0  0
 42 66  1  0  0  0
 42112  1  0  0  0
 42113  1  0  0  0
 43 44  1  0  0  0
 44114  1  0  0  0
 45 46  2  0  0  0
 45115  1  0  0  0
 46116  1  0  0  0
 47117  1  0  0  0
 47118  1  0  0  0
 48 56  1  0  0  0
 48 65  1  0  0  0
 48119  1  0  0  0
 49 50  1  0  0  0
 49 53  1  0  0  0
 49 64  1  0  0  0
 49120  1  0  0  0
 50 51  1  0  0  0
 50121  1  0  0  0
 50122  1  0  0  0
 51 52  1  0  0  0
 51123  1  0  0  0
 51124  1  0  0  0
 52125  1  0  0  0
 52126  1  0  0  0
 53 54  1  0  0  0
 54 55  2  0  0  0
 54127  1  0  0  0
 55 57  1  0  0  0
 55128  1  0  0  0
 56 69  2  0  0  0
 57 58  2  0  0  0
 57129  1  0  0  0
 58130  1  0  0  0
 59 60  1  0  0  0
 59 61  1  0  0  0
 59 62  1  0  0  0
 60131  1  0  0  0
 60132  1  0  0  0
 60133  1  0  0  0
 61134  1  0  0  0
 61135  1  0  0  0
 61136  1  0  0  0
 62137  1  0  0  0
 62138  1  0  0  0
 62139  1  0  0  0
 63 65  1  0  0  0
 63140  1  0  0  0
 63141  1  0  0  0
 63142  1  0  0  0
 64143  1  0  0  0
 65144  1  0  0  0
 68 81  1  0  0  0
 71 76  1  0  0  0
 71 77  1  0  0  0
 71145  1  0  0  0
 71146  1  0  0  0
 72 73  1  0  0  0
 72147  1  0  0  0
 72148  1  0  0  0
 72 78  1  0  0  0
 73 78  1  0  0  0
 73149  1  0  0  0
 73150  1  0  0  0
 74 75  1  0  0  0
 74151  1  0  0  0
 74152  1  0  0  0
 74 80  1  0  0  0
 75 81  1  0  0  0
 75153  1  0  0  0
 75154  1  0  0  0
 76155  1  0  0  0
 76156  1  0  0  0
 76 82  1  0  0  0
 77 85  1  0  0  0
 77157  1  0  0  0
 77158  1  0  0  0
 78159  1  0  0  0
 78 79  1  0  0  0
 79 80  1  0  0  0
 79 81  1  0  0  0
 79160  1  0  0  0
 80 84  1  0  0  0
 80161  1  0  0  0
 81162  1  0  0  0
 82 84  1  0  0  0
 82 85  1  0  0  0
 82163  1  0  0  0
 83164  1  0  0  0
 83165  1  0  0  0
 83166  1  0  0  0
 83 84  1  0  0  0
 84167  1  0  0  0
M  ISO  4   1 100  68 101  81 101  85 100
M  END
> <chiral flag>
0

> <version>
0

> <s_m_source_file>
/data/baiqing/PycharmProjects/Reinvent-master-3.2/result/LINK_invent/BTK/process_docking_weight1_custom_sum_contain_oxygen_bond_distance_aromatic_linkinvent_7_9_3/rearranged_h_0145.sdf

> <i_m_source_file_index>
36

> <r_mmod_Potential_Energy-OPLS-2005>
1848.03308105469

> <r_mmod_Stretch_Energy-OPLS-2005>
625.651733398438

> <r_mmod_Bend_Energy-OPLS-2005>
677.771667480469

> <r_mmod_Torsional_Energy-OPLS-2005>
436.069946289062

> <r_mmod_Improper_Torsional_Energy-OPLS-2005>
7.25521469116211

> <r_mmod_Van_der_Waal_Energy-OPLS-2005>
108.077239990234

> <r_mmod_Electrostatic_Energy-OPLS-2005>
-257.296112060547

> <r_mmod_Solvation_Energy-OPLS-2005>
-184.251739501953

> <b_mmod_Minimization_Converged-OPLS-2005>
0

> <r_mmod_RMS_Derivative-OPLS-2005>
5.06151103973389

$$$$
37
                    3D
 Structure written by MMmdl.
165175  0  0  1  0            999 V2000
  -30.6635  -14.5644   20.4864 C   0  0  0  0  0  0
  -30.4230  -12.3406   19.4475 C   0  0  0  0  0  0
  -29.5011  -12.4908   18.2187 C   0  0  0  0  0  0
  -28.0225  -12.3449   18.6285 C   0  0  0  0  0  0
  -27.6522  -13.2140   19.8604 C   0  0  2  0  0  0
  -28.6954  -13.0668   20.9917 C   0  0  0  0  0  0
  -25.2558  -13.8169   20.5672 C   0  0  0  0  0  0
  -24.1827  -13.0438   20.9191 C   0  0  0  0  0  0
  -24.6389  -11.6910   20.8737 C   0  0  0  0  0  0
  -23.9059  -10.4292   21.0402 C   0  0  0  0  0  0
  -24.3615   -9.4210   21.9180 C   0  0  0  0  0  0
  -23.6296   -8.2244   22.0750 C   0  0  0  0  0  0
  -22.4278   -8.0278   21.3541 C   0  0  0  0  0  0
  -21.9909   -9.0251   20.4644 C   0  0  0  0  0  0
  -22.7232  -10.2134   20.3051 C   0  0  0  0  0  0
  -21.6855   -6.0736   22.5278 C   0  0  0  0  0  0
  -21.4014   -6.5640   23.8212 C   0  0  0  0  0  0
  -21.3659   -5.6793   24.9175 C   0  0  0  0  0  0
  -21.6045   -4.3054   24.7225 C   0  0  0  0  0  0
  -21.8820   -3.8146   23.4346 C   0  0  0  0  0  0
  -21.9195   -4.6963   22.3403 C   0  0  0  0  0  0
  -22.7850  -13.5233   21.1858 C   0  0  0  0  0  0
  -22.1662   -4.2146   21.0980 F   0  0  0  0  0  0
  -21.5630   -3.4538   25.7739 F   0  0  0  0  0  0
  -30.0165  -13.3658   20.4242 N   0  0  0  0  0  0
  -26.2979  -12.9348   20.3300 N   0  0  0  0  0  0
  -25.9314  -11.6504   20.5750 N   0  0  0  0  0  0
  -22.0496  -12.8222   22.0415 N   0  0  0  0  0  0
  -25.4262  -15.1892   20.4077 N   0  0  0  0  0  0
  -31.8477  -14.6846   20.1620 O   0  0  0  0  0  0
  -21.6641   -6.8877   21.4238 O   0  0  0  0  0  0
  -22.3533  -14.5542   20.6709 O   0  0  0  0  0  0
  -24.6190  -31.8633   23.2054 C   0  0  0  0  0  0
  -25.9067  -32.4796   23.8367 C   0  0  1  0  0  0
  -27.2317  -27.3870   20.1153 C   0  0  0  0  0  0
  -25.5907  -33.8597   24.2303 N   0  0  0  0  0  0
  -23.4096  -30.4854   21.5463 C   0  0  2  0  0  0
  -24.8568  -28.9392   20.1184 C   0  0  0  0  0  0
  -22.7435  -29.4644   22.4978 C   0  0  0  0  0  0
  -18.0278  -28.1379   22.8491 C   0  0  0  0  0  0
  -24.1490  -36.7310   23.2642 C   0  0  0  0  0  0
  -25.9420  -30.8168   21.3628 C   0  0  0  0  0  0
  -26.0196  -29.4460   20.7131 C   0  0  0  0  0  0
  -27.2137  -28.6803   20.6993 C   0  0  0  0  0  0
  -26.0517  -26.9007   19.5180 C   0  0  0  0  0  0
  -24.8703  -27.6684   19.5155 C   0  0  0  0  0  0
  -23.6206  -29.8124   20.1634 C   0  0  0  0  0  0
  -25.4111  -36.3100   24.0334 C   0  0  1  0  0  0
  -20.5871  -28.3672   23.1311 C   0  0  2  0  0  0
  -20.6767  -26.9406   22.5419 C   0  0  0  0  0  0
  -19.5747  -26.6385   21.5217 C   0  0  0  0  0  0
  -18.1925  -26.7929   22.1622 C   0  0  0  0  0  0
  -19.1527  -28.8845   23.2892 C   0  0  0  0  0  0
  -18.9454  -30.1453   23.8903 C   0  0  0  0  0  0
  -17.6454  -30.6586   24.0567 C   0  0  0  0  0  0
  -25.9039  -34.9465   23.5118 C   0  0  0  0  0  0
  -16.5345  -29.9086   23.6329 C   0  0  0  0  0  0
  -16.7264  -28.6503   23.0348 C   0  0  0  0  0  0
  -26.4479  -31.6585   25.0711 C   0  0  0  0  0  0
  -25.3740  -31.3696   26.1456 C   0  0  0  0  0  0
  -27.0313  -30.3026   24.6109 C   0  0  0  0  0  0
  -27.6058  -32.4306   25.7466 C   0  0  0  0  0  0
  -27.5582  -37.1806   24.8468 C   0  0  0  0  0  0
  -21.4159  -29.3032   22.3714 N   0  0  0  0  0  0
  -26.4297  -37.3787   23.9410 N   0  0  0  0  0  0
  -24.6753  -31.0711   22.0962 N   0  0  0  0  0  0
  -23.4191  -28.8194   23.3037 O   0  0  0  0  0  0
  -28.3836  -26.6203   20.0846 O   0  0  0  0  0  0
  -26.5609  -34.8923   22.4685 O   0  0  0  0  0  0
  -23.5374  -32.1394   23.7430 O   0  0  0  0  0  0
  -29.7723  -21.1560   17.2439 C   0  0  0  0  0  0
  -29.1993  -20.5527   19.9019 C   0  0  0  0  0  0
  -29.6007  -19.8115   17.6182 C   0  0  0  0  0  0
  -29.4068  -19.4665   18.9888 C   0  0  0  0  0  0
  -29.6538  -22.2074   18.1650 C   0  0  0  0  0  0
  -29.2537  -21.9302   19.4974 C   0  0  0  0  0  0
  -28.8281  -18.9754   15.2493 C   0  0  0  0  0  0
  -28.4976  -17.8658   16.2148 C   0  0  0  0  0  0
  -30.5602  -17.1978   18.8258 C   0  0  0  0  0  0
  -29.6555  -18.7975   16.5040 C   0  0  0  0  0  0
  -29.3585  -17.9593   19.3579 C   0  0  1  0  0  0
  -30.2401  -17.0373   20.2715 C   0  0  1  0  0  0
  -30.0269  -23.5978   17.6729 C   0  0  0  0  0  0
  -28.3779  -25.3760   20.8374 C   0  0  0  0  0  0
  -28.0902  -24.0349   20.0758 C   0  0  0  0  0  0
  -29.8736  -15.6643   20.6255 N   0  0  0  0  0  0
  -29.0106  -22.9531   20.4161 O   0  0  0  0  0  0
  -31.4684  -12.4391   19.1494 H   0  0  0  0  0  0
  -30.3280  -11.3448   19.8832 H   0  0  0  0  0  0
  -29.7549  -11.7454   17.4638 H   0  0  0  0  0  0
  -29.6596  -13.4649   17.7530 H   0  0  0  0  0  0
  -27.8457  -11.2922   18.8520 H   0  0  0  0  0  0
  -27.3723  -12.5885   17.7873 H   0  0  0  0  0  0
  -27.6717  -14.2488   19.5190 H   0  0  0  0  0  0
  -28.6858  -12.0537   21.3963 H   0  0  0  0  0  0
  -28.4608  -13.7284   21.8275 H   0  0  0  0  0  0
  -25.2760   -9.5691   22.4755 H   0  0  0  0  0  0
  -24.0006   -7.4638   22.7471 H   0  0  0  0  0  0
  -21.0839   -8.8767   19.8953 H   0  0  0  0  0  0
  -22.3684  -10.9673   19.6161 H   0  0  0  0  0  0
  -21.2002   -7.6148   23.9713 H   0  0  0  0  0  0
  -21.1479   -6.0524   25.9079 H   0  0  0  0  0  0
  -22.0600   -2.7606   23.2847 H   0  0  0  0  0  0
  -22.4114  -11.9874   22.4786 H   0  0  0  0  0  0
  -21.1115  -13.1241   22.2631 H   0  0  0  0  0  0
  -24.6565  -15.8409   20.5155 H   0  0  0  0  0  0
  -26.2693  -15.6285   20.0617 H   0  0  0  0  0  0
  -26.7138  -32.5499   23.1126 H   0  0  0  0  0  0
  -25.0062  -33.9749   25.0452 H   0  0  0  0  0  0
  -22.7004  -31.3034   21.4027 H   0  0  0  0  0  0
  -23.3749  -35.9647   23.3311 H   0  0  0  0  0  0
  -24.3587  -36.8916   22.2057 H   0  0  0  0  0  0
  -23.7239  -37.6513   23.6657 H   0  0  0  0  0  0
  -26.0597  -31.5792   20.5915 H   0  0  0  0  0  0
  -26.8279  -30.8716   21.9838 H   0  0  0  0  0  0
  -28.1159  -29.0713   21.1487 H   0  0  0  0  0  0
  -26.0459  -25.9277   19.0482 H   0  0  0  0  0  0
  -23.9771  -27.2737   19.0509 H   0  0  0  0  0  0
  -23.7325  -30.5845   19.4010 H   0  0  0  0  0  0
  -22.7433  -29.2343   19.8668 H   0  0  0  0  0  0
  -25.1284  -36.1963   25.0825 H   0  0  0  0  0  0
  -20.9957  -28.3236   24.1433 H   0  0  0  0  0  0
  -20.5682  -26.2277   23.3605 H   0  0  0  0  0  0
  -21.6634  -26.7450   22.1203 H   0  0  0  0  0  0
  -19.6912  -25.6301   21.1235 H   0  0  0  0  0  0
  -19.6691  -27.3207   20.6758 H   0  0  0  0  0  0
  -17.4198  -26.6686   21.4019 H   0  0  0  0  0  0
  -18.0320  -26.0062   22.9008 H   0  0  0  0  0  0
  -19.7928  -30.7268   24.2273 H   0  0  0  0  0  0
  -17.5008  -31.6268   24.5164 H   0  0  0  0  0  0
  -15.5347  -30.2987   23.7656 H   0  0  0  0  0  0
  -15.8661  -28.0826   22.7056 H   0  0  0  0  0  0
  -24.5929  -30.7019   25.7801 H   0  0  0  0  0  0
  -24.8908  -32.2844   26.4897 H   0  0  0  0  0  0
  -25.8089  -30.8879   27.0220 H   0  0  0  0  0  0
  -26.2852  -29.6778   24.1185 H   0  0  0  0  0  0
  -27.4093  -29.7279   25.4572 H   0  0  0  0  0  0
  -27.8685  -30.4341   23.9251 H   0  0  0  0  0  0
  -27.2690  -33.3613   26.2043 H   0  0  0  0  0  0
  -28.3860  -32.6846   25.0279 H   0  0  0  0  0  0
  -28.0733  -31.8425   26.5370 H   0  0  0  0  0  0
  -28.2605  -38.0099   24.7503 H   0  0  0  0  0  0
  -28.1063  -36.2625   24.6298 H   0  0  0  0  0  0
  -27.2299  -37.1455   25.8872 H   0  0  0  0  0  0
  -20.9339  -29.8736   21.6907 H   0  0  0  0  0  0
  -26.0185  -38.2868   24.1397 H   0  0  0  0  0  0
  -30.0101  -21.3860   16.2141 H   0  0  0  0  0  0
  -28.9776  -20.3252   20.9348 H   0  0  0  0  0  0
  -28.1340  -19.8126   15.2021 H   0  0  0  0  0  0
  -29.2724  -18.6819   14.3003 H   0  0  0  0  0  0
  -28.7292  -16.8510   15.8968 H   0  0  0  0  0  0
  -27.5893  -17.9759   16.8042 H   0  0  0  0  0  0
  -31.4776  -17.7447   18.6142 H   0  0  0  0  0  0
  -30.3494  -16.3788   18.1399 H   0  0  0  0  0  0
  -30.6687  -18.4243   16.3631 H   0  0  0  0  0  0
  -28.3696  -17.5716   19.1203 H   0  0  0  0  0  0
  -30.8769  -17.5577   20.9850 H   0  0  0  0  0  0
  -30.8869  -23.5445   17.0047 H   0  0  0  0  0  0
  -30.3083  -24.2579   18.4931 H   0  0  0  0  0  0
  -29.2055  -24.0476   17.1145 H   0  0  0  0  0  0
  -29.3769  -25.3004   21.2670 H   0  0  0  0  0  0
  -27.7139  -25.4577   21.6998 H   0  0  0  0  0  0
  -28.0221  -24.2351   19.0117 H   0  0  0  0  0  0
  -27.0878  -23.6982   20.3412 H   0  0  0  0  0  0
  -28.9102  -15.4966   20.8727 H   0  0  0  0  0  0
  1 25  1  0  0  0
  1 30  2  0  0  0
  1 86  1  0  0  0
  2  3  1  0  0  0
  2 25  1  0  0  0
  2 88  1  0  0  0
  2 89  1  0  0  0
  3  4  1  0  0  0
  3 90  1  0  0  0
  3 91  1  0  0  0
  4  5  1  0  0  0
  4 92  1  0  0  0
  4 93  1  0  0  0
  5  6  1  0  0  0
  5 26  1  0  0  0
  5 94  1  0  0  0
  6 25  1  0  0  0
  6 95  1  0  0  0
  6 96  1  0  0  0
  7  8  2  0  0  0
  7 26  1  0  0  0
  7 29  1  0  0  0
  8  9  1  0  0  0
  8 22  1  0  0  0
  9 10  1  0  0  0
  9 27  2  0  0  0
 10 11  2  0  0  0
 10 15  1  0  0  0
 11 12  1  0  0  0
 11 97  1  0  0  0
 12 13  2  0  0  0
 12 98  1  0  0  0
 13 14  1  0  0  0
 13 31  1  0  0  0
 14 15  2  0  0  0
 14 99  1  0  0  0
 15100  1  0  0  0
 16 17  2  0  0  0
 16 21  1  0  0  0
 16 31  1  0  0  0
 17 18  1  0  0  0
 17101  1  0  0  0
 18 19  2  0  0  0
 18102  1  0  0  0
 19 20  1  0  0  0
 19 24  1  0  0  0
 20 21  2  0  0  0
 20103  1  0  0  0
 21 23  1  0  0  0
 22 28  1  0  0  0
 22 32  2  0  0  0
 26 27  1  0  0  0
 28104  1  0  0  0
 28105  1  0  0  0
 29106  1  0  0  0
 29107  1  0  0  0
 33 34  1  0  0  0
 33 66  1  0  0  0
 33 70  2  0  0  0
 34 36  1  0  0  0
 34 59  1  0  0  0
 34108  1  0  0  0
 35 44  2  0  0  0
 35 45  1  0  0  0
 35 68  1  0  0  0
 36 56  1  0  0  0
 36109  1  0  0  0
 37 39  1  0  0  0
 37 47  1  0  0  0
 37 66  1  0  0  0
 37110  1  0  0  0
 38 43  2  0  0  0
 38 46  1  0  0  0
 38 47  1  0  0  0
 39 64  1  0  0  0
 39 67  2  0  0  0
 40 52  1  0  0  0
 40 53  2  0  0  0
 40 58  1  0  0  0
 41111  1  0  0  0
 41112  1  0  0  0
 41113  1  0  0  0
 41 48  1  0  0  0
 42 43  1  0  0  0
 42 66  1  0  0  0
 42114  1  0  0  0
 42115  1  0  0  0
 43 44  1  0  0  0
 44116  1  0  0  0
 45 46  2  0  0  0
 45117  1  0  0  0
 46118  1  0  0  0
 47119  1  0  0  0
 47120  1  0  0  0
 48 56  1  0  0  0
 48 65  1  0  0  0
 48121  1  0  0  0
 49 50  1  0  0  0
 49 53  1  0  0  0
 49 64  1  0  0  0
 49122  1  0  0  0
 50 51  1  0  0  0
 50123  1  0  0  0
 50124  1  0  0  0
 51 52  1  0  0  0
 51125  1  0  0  0
 51126  1  0  0  0
 52127  1  0  0  0
 52128  1  0  0  0
 53 54  1  0  0  0
 54 55  2  0  0  0
 54129  1  0  0  0
 55 57  1  0  0  0
 55130  1  0  0  0
 56 69  2  0  0  0
 57 58  2  0  0  0
 57131  1  0  0  0
 58132  1  0  0  0
 59 60  1  0  0  0
 59 61  1  0  0  0
 59 62  1  0  0  0
 60133  1  0  0  0
 60134  1  0  0  0
 60135  1  0  0  0
 61136  1  0  0  0
 61137  1  0  0  0
 61138  1  0  0  0
 62139  1  0  0  0
 62140  1  0  0  0
 62141  1  0  0  0
 63 65  1  0  0  0
 63142  1  0  0  0
 63143  1  0  0  0
 63144  1  0  0  0
 64145  1  0  0  0
 65146  1  0  0  0
 68 84  1  0  0  0
 71 73  2  0  0  0
 71 75  1  0  0  0
 71147  1  0  0  0
 72 74  2  0  0  0
 72 76  1  0  0  0
 72148  1  0  0  0
 73 74  1  0  0  0
 73 80  1  0  0  0
 74 81  1  0  0  0
 75 76  2  0  0  0
 75 83  1  0  0  0
 76 87  1  0  0  0
 77 78  1  0  0  0
 77 80  1  0  0  0
 77149  1  0  0  0
 77150  1  0  0  0
 78 80  1  0  0  0
 78151  1  0  0  0
 78152  1  0  0  0
 79 81  1  0  0  0
 79 82  1  0  0  0
 79153  1  0  0  0
 79154  1  0  0  0
 80155  1  0  0  0
 81 82  1  0  0  0
 81156  1  0  0  0
 82 86  1  0  0  0
 82157  1  0  0  0
 83158  1  0  0  0
 83159  1  0  0  0
 83160  1  0  0  0
 84 85  1  0  0  0
 84161  1  0  0  0
 84162  1  0  0  0
 85 87  1  0  0  0
 85163  1  0  0  0
 85164  1  0  0  0
 86165  1  0  0  0
M  ISO  4   1 100  68 101  84 101  86 100
M  END
> <chiral flag>
0

> <version>
0

> <s_m_source_file>
/data/baiqing/PycharmProjects/Reinvent-master-3.2/result/LINK_invent/BTK/process_docking_weight1_custom_sum_contain_oxygen_bond_distance_aromatic_linkinvent_7_9_3/rearranged_h_0145.sdf

> <i_m_source_file_index>
37

> <r_mmod_Potential_Energy-OPLS-2005>
131.851913452148

> <r_mmod_Stretch_Energy-OPLS-2005>
61.9318618774414

> <r_mmod_Bend_Energy-OPLS-2005>
138.739410400391

> <r_mmod_Torsional_Energy-OPLS-2005>
355.153106689453

> <r_mmod_Improper_Torsional_Energy-OPLS-2005>
8.05130863189697

> <r_mmod_Van_der_Waal_Energy-OPLS-2005>
146.723999023438

> <r_mmod_Electrostatic_Energy-OPLS-2005>
-393.4765625

> <r_mmod_Solvation_Energy-OPLS-2005>
-212.447677612305

> <b_mmod_Minimization_Converged-OPLS-2005>
0

> <r_mmod_RMS_Derivative-OPLS-2005>
0.837257921695709

$$$$
38
                    3D
 Structure written by MMmdl.
173181  0  0  1  0            999 V2000
  -30.7875  -14.3542   20.6937 C   0  0  0  0  0  0
  -30.4115  -12.2951   19.3904 C   0  0  0  0  0  0
  -29.4794  -12.5319   18.1887 C   0  0  0  0  0  0
  -28.0053  -12.3845   18.6079 C   0  0  0  0  0  0
  -27.6641  -13.2068   19.8780 C   0  0  2  0  0  0
  -28.7032  -12.9589   20.9936 C   0  0  0  0  0  0
  -25.2584  -13.8151   20.5652 C   0  0  0  0  0  0
  -24.1834  -13.0434   20.9149 C   0  0  0  0  0  0
  -24.6395  -11.6902   20.8726 C   0  0  0  0  0  0
  -23.9059  -10.4292   21.0407 C   0  0  0  0  0  0
  -24.3609   -9.4207   21.9188 C   0  0  0  0  0  0
  -23.6283   -8.2246   22.0758 C   0  0  0  0  0  0
  -22.4266   -8.0288   21.3547 C   0  0  0  0  0  0
  -21.9904   -9.0259   20.4646 C   0  0  0  0  0  0
  -22.7232  -10.2136   20.3054 C   0  0  0  0  0  0
  -21.6852   -6.0735   22.5277 C   0  0  0  0  0  0
  -21.4008   -6.5636   23.8209 C   0  0  0  0  0  0
  -21.3655   -5.6789   24.9170 C   0  0  0  0  0  0
  -21.6044   -4.3053   24.7223 C   0  0  0  0  0  0
  -21.8820   -3.8145   23.4342 C   0  0  0  0  0  0
  -21.9190   -4.6963   22.3398 C   0  0  0  0  0  0
  -22.7858  -13.5245   21.1822 C   0  0  0  0  0  0
  -22.1662   -4.2148   21.0977 F   0  0  0  0  0  0
  -21.5630   -3.4540   25.7737 F   0  0  0  0  0  0
  -30.0464  -13.2424   20.4534 N   0  0  0  0  0  0
  -26.3037  -12.9332   20.3379 N   0  0  0  0  0  0
  -25.9324  -11.6487   20.5763 N   0  0  0  0  0  0
  -22.0495  -12.8245   22.0382 N   0  0  0  0  0  0
  -25.4292  -15.1851   20.4025 N   0  0  0  0  0  0
  -31.8018  -14.6451   20.0551 O   0  0  0  0  0  0
  -21.6634   -6.8882   21.4243 O   0  0  0  0  0  0
  -22.3543  -14.5558   20.6685 O   0  0  0  0  0  0
  -24.6117  -31.8707   23.2131 C   0  0  0  0  0  0
  -25.9027  -32.4839   23.8407 C   0  0  1  0  0  0
  -27.2398  -27.4674   20.0717 C   0  0  0  0  0  0
  -25.5898  -33.8638   24.2339 N   0  0  0  0  0  0
  -23.3973  -30.4943   21.5538 C   0  0  2  0  0  0
  -24.8418  -28.9619   20.1188 C   0  0  0  0  0  0
  -22.7389  -29.4673   22.5023 C   0  0  0  0  0  0
  -18.0266  -28.1385   22.8492 C   0  0  0  0  0  0
  -24.1480  -36.7309   23.2633 C   0  0  0  0  0  0
  -25.9238  -30.8401   21.3653 C   0  0  0  0  0  0
  -25.9990  -29.4746   20.7176 C   0  0  0  0  0  0
  -27.1952  -28.7270   20.7061 C   0  0  0  0  0  0
  -26.0576  -26.9539   19.4879 C   0  0  0  0  0  0
  -24.8626  -27.6957   19.5106 C   0  0  0  0  0  0
  -23.6041  -29.8270   20.1681 C   0  0  0  0  0  0
  -25.4101  -36.3119   24.0338 C   0  0  1  0  0  0
  -20.5850  -28.3660   23.1333 C   0  0  2  0  0  0
  -20.6760  -26.9401   22.5427 C   0  0  0  0  0  0
  -19.5745  -26.6388   21.5217 C   0  0  0  0  0  0
  -18.1916  -26.7934   22.1616 C   0  0  0  0  0  0
  -19.1515  -28.8839   23.2908 C   0  0  0  0  0  0
  -18.9445  -30.1445   23.8923 C   0  0  0  0  0  0
  -17.6451  -30.6589   24.0571 C   0  0  0  0  0  0
  -25.9032  -34.9487   23.5134 C   0  0  0  0  0  0
  -16.5341  -29.9096   23.6329 C   0  0  0  0  0  0
  -16.7256  -28.6512   23.0350 C   0  0  0  0  0  0
  -26.4461  -31.6613   25.0727 C   0  0  0  0  0  0
  -25.3738  -31.3711   26.1481 C   0  0  0  0  0  0
  -27.0281  -30.3059   24.6089 C   0  0  0  0  0  0
  -27.6040  -32.4328   25.7488 C   0  0  0  0  0  0
  -27.5598  -37.1787   24.8446 C   0  0  0  0  0  0
  -21.4121  -29.3030   22.3749 N   0  0  0  0  0  0
  -26.4279  -37.3816   23.9437 N   0  0  0  0  0  0
  -24.6622  -31.0826   22.1025 N   0  0  0  0  0  0
  -23.4168  -28.8221   23.3059 O   0  0  0  0  0  0
  -28.4324  -26.7797   20.0489 O   0  0  0  0  0  0
  -26.5597  -34.8935   22.4700 O   0  0  0  0  0  0
  -23.5320  -32.1452   23.7544 O   0  0  0  0  0  0
  -30.7380  -21.2689   19.7918 C   0  0  0  0  0  0
  -30.8906  -19.9745   20.3071 C   0  0  0  0  0  0
  -28.4830  -21.3839   20.7286 C   0  0  0  0  0  0
  -28.6245  -20.0574   21.2436 C   0  0  0  0  0  0
  -29.5426  -21.9774   20.0011 C   0  0  0  0  0  0
  -29.8470  -19.3552   21.0369 C   0  0  0  0  0  0
  -26.1219  -21.8941   19.9143 C   0  0  0  0  0  0
  -27.8337  -19.1724   23.5083 C   0  0  0  0  0  0
  -26.9698  -18.0909   21.3577 C   0  0  0  0  0  0
  -27.2157  -22.2151   20.9414 C   0  0  0  0  0  0
  -30.1298  -25.4420   18.9379 C   0  0  0  0  0  0
  -31.1903  -16.1531   22.3605 C   0  0  0  0  0  0
  -28.7103  -26.0244   18.8723 C   0  0  0  0  0  0
  -30.2632  -24.2360   19.8795 C   0  0  0  0  0  0
  -31.2438  -17.4455   21.5266 C   0  0  0  0  0  0
  -27.4812  -19.3796   22.0257 C   0  0  0  0  0  0
  -30.4020  -15.0848   21.7442 N   0  0  0  0  0  0
  -29.3716  -23.2171   19.4381 O   0  0  0  0  0  0
  -29.9720  -18.0818   21.5574 O   0  0  0  0  0  0
  -31.4546  -12.3931   19.0830 H   0  0  0  0  0  0
  -30.3087  -11.2735   19.7585 H   0  0  0  0  0  0
  -29.7128  -11.8313   17.3859 H   0  0  0  0  0  0
  -29.6479  -13.5303   17.7815 H   0  0  0  0  0  0
  -27.8117  -11.3263   18.7878 H   0  0  0  0  0  0
  -27.3507  -12.6776   17.7858 H   0  0  0  0  0  0
  -27.7194  -14.2602   19.6030 H   0  0  0  0  0  0
  -28.6653  -11.9194   21.3224 H   0  0  0  0  0  0
  -28.4518  -13.5497   21.8744 H   0  0  0  0  0  0
  -25.2754   -9.5685   22.4758 H   0  0  0  0  0  0
  -23.9992   -7.4641   22.7480 H   0  0  0  0  0  0
  -21.0833   -8.8775   19.8954 H   0  0  0  0  0  0
  -22.3697  -10.9673   19.6160 H   0  0  0  0  0  0
  -21.2002   -7.6145   23.9714 H   0  0  0  0  0  0
  -21.1472   -6.0517   25.9071 H   0  0  0  0  0  0
  -22.0604   -2.7608   23.2842 H   0  0  0  0  0  0
  -22.4100  -11.9896   22.4755 H   0  0  0  0  0  0
  -21.1123  -13.1288   22.2601 H   0  0  0  0  0  0
  -24.6677  -15.8441   20.5160 H   0  0  0  0  0  0
  -26.2961  -15.6246   20.1207 H   0  0  0  0  0  0
  -26.7105  -32.5552   23.1178 H   0  0  0  0  0  0
  -25.0060  -33.9804   25.0492 H   0  0  0  0  0  0
  -22.6851  -31.3103   21.4162 H   0  0  0  0  0  0
  -23.3771  -35.9609   23.3244 H   0  0  0  0  0  0
  -24.3589  -36.8974   22.2059 H   0  0  0  0  0  0
  -23.7183  -37.6477   23.6675 H   0  0  0  0  0  0
  -26.0347  -31.6060   20.5962 H   0  0  0  0  0  0
  -26.8128  -30.8939   21.9815 H   0  0  0  0  0  0
  -28.0911  -29.1241   21.1631 H   0  0  0  0  0  0
  -26.0353  -25.9825   19.0184 H   0  0  0  0  0  0
  -23.9692  -27.2896   19.0559 H   0  0  0  0  0  0
  -23.7118  -30.6016   19.4080 H   0  0  0  0  0  0
  -22.7287  -29.2455   19.8725 H   0  0  0  0  0  0
  -25.1276  -36.1975   25.0830 H   0  0  0  0  0  0
  -20.9934  -28.3226   24.1453 H   0  0  0  0  0  0
  -20.5668  -26.2269   23.3612 H   0  0  0  0  0  0
  -21.6636  -26.7457   22.1221 H   0  0  0  0  0  0
  -19.6906  -25.6303   21.1241 H   0  0  0  0  0  0
  -19.6698  -27.3208   20.6755 H   0  0  0  0  0  0
  -17.4197  -26.6704   21.4002 H   0  0  0  0  0  0
  -18.0294  -26.0068   22.8999 H   0  0  0  0  0  0
  -19.7918  -30.7254   24.2311 H   0  0  0  0  0  0
  -17.5003  -31.6273   24.5171 H   0  0  0  0  0  0
  -15.5343  -30.3011   23.7643 H   0  0  0  0  0  0
  -15.8652  -28.0840   22.7060 H   0  0  0  0  0  0
  -24.5912  -30.7052   25.7820 H   0  0  0  0  0  0
  -24.8927  -32.2862   26.4943 H   0  0  0  0  0  0
  -25.8101  -30.8874   27.0228 H   0  0  0  0  0  0
  -26.2808  -29.6833   24.1150 H   0  0  0  0  0  0
  -27.4058  -29.7285   25.4536 H   0  0  0  0  0  0
  -27.8643  -30.4381   23.9220 H   0  0  0  0  0  0
  -27.2659  -33.3612   26.2103 H   0  0  0  0  0  0
  -28.3835  -32.6913   25.0308 H   0  0  0  0  0  0
  -28.0725  -31.8427   26.5378 H   0  0  0  0  0  0
  -28.2551  -38.0152   24.7622 H   0  0  0  0  0  0
  -28.1161  -36.2695   24.6106 H   0  0  0  0  0  0
  -27.2336  -37.1238   25.8847 H   0  0  0  0  0  0
  -20.9281  -29.8742   21.6964 H   0  0  0  0  0  0
  -26.0163  -38.2871   24.1530 H   0  0  0  0  0  0
  -31.5397  -21.7059   19.2133 H   0  0  0  0  0  0
  -31.8265  -19.4736   20.1100 H   0  0  0  0  0  0
  -25.2328  -22.4996   20.0933 H   0  0  0  0  0  0
  -25.8237  -20.8466   19.9536 H   0  0  0  0  0  0
  -26.4662  -22.1032   18.9014 H   0  0  0  0  0  0
  -28.1017  -20.1183   23.9794 H   0  0  0  0  0  0
  -28.6685  -18.4860   23.6448 H   0  0  0  0  0  0
  -26.9850  -18.7640   24.0580 H   0  0  0  0  0  0
  -26.6665  -18.2807   20.3281 H   0  0  0  0  0  0
  -26.0972  -17.7053   21.8864 H   0  0  0  0  0  0
  -27.7092  -17.2921   21.3448 H   0  0  0  0  0  0
  -27.4505  -23.2781   20.8785 H   0  0  0  0  0  0
  -26.8462  -22.1014   21.9601 H   0  0  0  0  0  0
  -30.8329  -26.2228   19.2296 H   0  0  0  0  0  0
  -30.4272  -25.1294   17.9367 H   0  0  0  0  0  0
  -30.7844  -16.3697   23.3490 H   0  0  0  0  0  0
  -32.2062  -15.7880   22.5244 H   0  0  0  0  0  0
  -27.9966  -25.2142   18.7276 H   0  0  0  0  0  0
  -28.6327  -26.6823   18.0047 H   0  0  0  0  0  0
  -30.0166  -24.5212   20.9033 H   0  0  0  0  0  0
  -31.2996  -23.8968   19.8796 H   0  0  0  0  0  0
  -31.5486  -17.2407   20.4997 H   0  0  0  0  0  0
  -31.9937  -18.1048   21.9674 H   0  0  0  0  0  0
  -26.6056  -20.0199   22.0323 H   0  0  0  0  0  0
  -29.5604  -14.7945   22.2201 H   0  0  0  0  0  0
  1 25  1  0  0  0
  1 30  2  0  0  0
  1 87  1  0  0  0
  2  3  1  0  0  0
  2 25  1  0  0  0
  2 90  1  0  0  0
  2 91  1  0  0  0
  3  4  1  0  0  0
  3 92  1  0  0  0
  3 93  1  0  0  0
  4  5  1  0  0  0
  4 94  1  0  0  0
  4 95  1  0  0  0
  5  6  1  0  0  0
  5 26  1  0  0  0
  5 96  1  0  0  0
  6 25  1  0  0  0
  6 97  1  0  0  0
  6 98  1  0  0  0
  7  8  2  0  0  0
  7 26  1  0  0  0
  7 29  1  0  0  0
  8  9  1  0  0  0
  8 22  1  0  0  0
  9 10  1  0  0  0
  9 27  2  0  0  0
 10 11  2  0  0  0
 10 15  1  0  0  0
 11 12  1  0  0  0
 11 99  1  0  0  0
 12 13  2  0  0  0
 12100  1  0  0  0
 13 14  1  0  0  0
 13 31  1  0  0  0
 14 15  2  0  0  0
 14101  1  0  0  0
 15102  1  0  0  0
 16 17  2  0  0  0
 16 21  1  0  0  0
 16 31  1  0  0  0
 17 18  1  0  0  0
 17103  1  0  0  0
 18 19  2  0  0  0
 18104  1  0  0  0
 19 20  1  0  0  0
 19 24  1  0  0  0
 20 21  2  0  0  0
 20105  1  0  0  0
 21 23  1  0  0  0
 22 28  1  0  0  0
 22 32  2  0  0  0
 26 27  1  0  0  0
 28106  1  0  0  0
 28107  1  0  0  0
 29108  1  0  0  0
 29109  1  0  0  0
 33 34  1  0  0  0
 33 66  1  0  0  0
 33 70  2  0  0  0
 34 36  1  0  0  0
 34 59  1  0  0  0
 34110  1  0  0  0
 35 44  2  0  0  0
 35 45  1  0  0  0
 35 68  1  0  0  0
 36 56  1  0  0  0
 36111  1  0  0  0
 37 39  1  0  0  0
 37 47  1  0  0  0
 37 66  1  0  0  0
 37112  1  0  0  0
 38 43  2  0  0  0
 38 46  1  0  0  0
 38 47  1  0  0  0
 39 64  1  0  0  0
 39 67  2  0  0  0
 40 52  1  0  0  0
 40 53  2  0  0  0
 40 58  1  0  0  0
 41113  1  0  0  0
 41114  1  0  0  0
 41115  1  0  0  0
 41 48  1  0  0  0
 42 43  1  0  0  0
 42 66  1  0  0  0
 42116  1  0  0  0
 42117  1  0  0  0
 43 44  1  0  0  0
 44118  1  0  0  0
 45 46  2  0  0  0
 45119  1  0  0  0
 46120  1  0  0  0
 47121  1  0  0  0
 47122  1  0  0  0
 48 56  1  0  0  0
 48 65  1  0  0  0
 48123  1  0  0  0
 49 50  1  0  0  0
 49 53  1  0  0  0
 49 64  1  0  0  0
 49124  1  0  0  0
 50 51  1  0  0  0
 50125  1  0  0  0
 50126  1  0  0  0
 51 52  1  0  0  0
 51127  1  0  0  0
 51128  1  0  0  0
 52129  1  0  0  0
 52130  1  0  0  0
 53 54  1  0  0  0
 54 55  2  0  0  0
 54131  1  0  0  0
 55 57  1  0  0  0
 55132  1  0  0  0
 56 69  2  0  0  0
 57 58  2  0  0  0
 57133  1  0  0  0
 58134  1  0  0  0
 59 60  1  0  0  0
 59 61  1  0  0  0
 59 62  1  0  0  0
 60135  1  0  0  0
 60136  1  0  0  0
 60137  1  0  0  0
 61138  1  0  0  0
 61139  1  0  0  0
 61140  1  0  0  0
 62141  1  0  0  0
 62142  1  0  0  0
 62143  1  0  0  0
 63 65  1  0  0  0
 63144  1  0  0  0
 63145  1  0  0  0
 63146  1  0  0  0
 64147  1  0  0  0
 65148  1  0  0  0
 68 83  1  0  0  0
 71 72  2  0  0  0
 71 75  1  0  0  0
 71149  1  0  0  0
 72 76  1  0  0  0
 72150  1  0  0  0
 73 74  1  0  0  0
 73 75  2  0  0  0
 73 80  1  0  0  0
 74 76  2  0  0  0
 74 86  1  0  0  0
 75 88  1  0  0  0
 76 89  1  0  0  0
 77 80  1  0  0  0
 77151  1  0  0  0
 77152  1  0  0  0
 77153  1  0  0  0
 78154  1  0  0  0
 78155  1  0  0  0
 78156  1  0  0  0
 78 86  1  0  0  0
 79 86  1  0  0  0
 79157  1  0  0  0
 79158  1  0  0  0
 79159  1  0  0  0
 80160  1  0  0  0
 80161  1  0  0  0
 81 83  1  0  0  0
 81 84  1  0  0  0
 81162  1  0  0  0
 81163  1  0  0  0
 82 85  1  0  0  0
 82 87  1  0  0  0
 82164  1  0  0  0
 82165  1  0  0  0
 83166  1  0  0  0
 83167  1  0  0  0
 84 88  1  0  0  0
 84168  1  0  0  0
 84169  1  0  0  0
 85 89  1  0  0  0
 85170  1  0  0  0
 85171  1  0  0  0
 86172  1  0  0  0
 87173  1  0  0  0
M  ISO  4   1 100  68 101  83 101  87 100
M  END
> <chiral flag>
0

> <version>
0

> <s_m_source_file>
/data/baiqing/PycharmProjects/Reinvent-master-3.2/result/LINK_invent/BTK/process_docking_weight1_custom_sum_contain_oxygen_bond_distance_aromatic_linkinvent_7_9_3/rearranged_h_0145.sdf

> <i_m_source_file_index>
38

> <r_mmod_Potential_Energy-OPLS-2005>
-120.966278076172

> <r_mmod_Stretch_Energy-OPLS-2005>
36.5872039794922

> <r_mmod_Bend_Energy-OPLS-2005>
101.00390625

> <r_mmod_Torsional_Energy-OPLS-2005>
230.839050292969

> <r_mmod_Improper_Torsional_Energy-OPLS-2005>
2.33546781539917

> <r_mmod_Van_der_Waal_Energy-OPLS-2005>
161.857421875

> <r_mmod_Electrostatic_Energy-OPLS-2005>
-460.757507324219

> <r_mmod_Solvation_Energy-OPLS-2005>
-200.219451904297

> <b_mmod_Minimization_Converged-OPLS-2005>
0

> <r_mmod_RMS_Derivative-OPLS-2005>
0.951381385326385

$$$$
39
                    3D
 Structure written by MMmdl.
168177  0  0  1  0            999 V2000
  -30.7245  -14.5073   20.4778 C   0  0  0  0  0  0
  -30.4114  -12.3120   19.4322 C   0  0  0  0  0  0
  -29.4897  -12.5032   18.2153 C   0  0  0  0  0  0
  -28.0155  -12.3525   18.6372 C   0  0  0  0  0  0
  -27.6495  -13.2200   19.8709 C   0  0  2  0  0  0
  -28.7020  -13.0781   20.9929 C   0  0  0  0  0  0
  -25.2499  -13.8169   20.5748 C   0  0  0  0  0  0
  -24.1767  -13.0449   20.9208 C   0  0  0  0  0  0
  -24.6340  -11.6907   20.8746 C   0  0  0  0  0  0
  -23.9021  -10.4289   21.0419 C   0  0  0  0  0  0
  -24.3583   -9.4206   21.9182 C   0  0  0  0  0  0
  -23.6272   -8.2224   22.0735 C   0  0  0  0  0  0
  -22.4249   -8.0239   21.3526 C   0  0  0  0  0  0
  -21.9892   -9.0223   20.4634 C   0  0  0  0  0  0
  -22.7210  -10.2111   20.3062 C   0  0  0  0  0  0
  -21.6844   -6.0685   22.5261 C   0  0  0  0  0  0
  -21.4014   -6.5618   23.8186 C   0  0  0  0  0  0
  -21.3676   -5.6798   24.9163 C   0  0  0  0  0  0
  -21.6050   -4.3047   24.7240 C   0  0  0  0  0  0
  -21.8815   -3.8116   23.4371 C   0  0  0  0  0  0
  -21.9192   -4.6916   22.3411 C   0  0  0  0  0  0
  -22.7778  -13.5178   21.1942 C   0  0  0  0  0  0
  -22.1652   -4.2091   21.0991 F   0  0  0  0  0  0
  -21.5666   -3.4544   25.7771 F   0  0  0  0  0  0
  -30.0287  -13.3391   20.4098 N   0  0  0  0  0  0
  -26.2957  -12.9385   20.3405 N   0  0  0  0  0  0
  -25.9267  -11.6523   20.5745 N   0  0  0  0  0  0
  -22.0448  -12.8108   22.0482 N   0  0  0  0  0  0
  -25.4285  -15.1906   20.4255 N   0  0  0  0  0  0
  -31.9247  -14.5772   20.1995 O   0  0  0  0  0  0
  -21.6637   -6.8812   21.4205 O   0  0  0  0  0  0
  -22.3462  -14.5518   20.6848 O   0  0  0  0  0  0
  -24.6132  -31.8636   23.2110 C   0  0  0  0  0  0
  -25.9016  -32.4793   23.8400 C   0  0  1  0  0  0
  -27.2313  -27.3959   20.1040 C   0  0  0  0  0  0
  -25.5890  -33.8613   24.2311 N   0  0  0  0  0  0
  -23.4031  -30.4858   21.5527 C   0  0  2  0  0  0
  -24.8501  -28.9428   20.1234 C   0  0  0  0  0  0
  -22.7370  -29.4626   22.5041 C   0  0  0  0  0  0
  -18.0242  -28.1365   22.8461 C   0  0  0  0  0  0
  -24.1477  -36.7309   23.2646 C   0  0  0  0  0  0
  -25.9359  -30.8137   21.3732 C   0  0  0  0  0  0
  -26.0115  -29.4440   20.7238 C   0  0  0  0  0  0
  -27.1974  -28.6728   20.7225 C   0  0  0  0  0  0
  -26.0535  -26.9278   19.4707 C   0  0  0  0  0  0
  -24.8687  -27.6836   19.4981 C   0  0  0  0  0  0
  -23.6127  -29.8094   20.1698 C   0  0  0  0  0  0
  -25.4093  -36.3095   24.0336 C   0  0  1  0  0  0
  -20.5826  -28.3629   23.1341 C   0  0  2  0  0  0
  -20.6743  -26.9386   22.5398 C   0  0  0  0  0  0
  -19.5749  -26.6371   21.5181 C   0  0  0  0  0  0
  -18.1922  -26.7904   22.1586 C   0  0  0  0  0  0
  -19.1490  -28.8803   23.2894 C   0  0  0  0  0  0
  -18.9446  -30.1425   23.8876 C   0  0  0  0  0  0
  -17.6439  -30.6584   24.0526 C   0  0  0  0  0  0
  -25.9012  -34.9463   23.5103 C   0  0  0  0  0  0
  -16.5321  -29.9081   23.6346 C   0  0  0  0  0  0
  -16.7223  -28.6501   23.0345 C   0  0  0  0  0  0
  -26.4460  -31.6610   25.0753 C   0  0  0  0  0  0
  -25.3772  -31.3723   26.1544 C   0  0  0  0  0  0
  -27.0306  -30.3037   24.6174 C   0  0  0  0  0  0
  -27.6015  -32.4350   25.7529 C   0  0  0  0  0  0
  -27.5566  -37.1809   24.8471 C   0  0  0  0  0  0
  -21.4089  -29.3020   22.3765 N   0  0  0  0  0  0
  -26.4274  -37.3780   23.9422 N   0  0  0  0  0  0
  -24.6692  -31.0690   22.1024 N   0  0  0  0  0  0
  -23.4123  -28.8195   23.3121 O   0  0  0  0  0  0
  -28.4120  -26.6715   20.1479 O   0  0  0  0  0  0
  -26.5576  -34.8922   22.4659 O   0  0  0  0  0  0
  -23.5325  -32.1411   23.7482 O   0  0  0  0  0  0
  -29.7981  -20.9394   20.3879 C   0  0  0  0  0  0
  -28.4694  -21.9738   18.9390 C   0  0  0  0  0  0
  -29.4608  -22.2061   19.8439 C   0  0  0  0  0  0
  -29.0134  -19.9665   19.8149 C   0  0  0  0  0  0
  -30.1232  -17.8319   19.1062 C   0  0  0  0  0  0
  -29.4313  -17.9923   21.4488 C   0  0  0  0  0  0
  -29.9582  -16.3073   19.0673 C   0  0  0  0  0  0
  -29.8658  -16.4950   21.6125 C   0  0  0  0  0  0
  -29.0802  -18.4608   20.0239 C   0  0  0  0  0  0
  -27.4100  -18.7553   17.2630 C   0  0  0  0  0  0
  -26.4946  -21.0500   17.0319 C   0  0  0  0  0  0
  -28.4462  -25.2745   19.7705 C   0  0  0  0  0  0
  -29.3251  -24.4418   20.7349 C   0  0  0  0  0  0
  -27.0689  -20.0399   18.0567 C   0  0  0  0  0  0
  -28.1663  -20.6103   18.8885 N   0  0  0  0  0  0
  -29.9783  -15.6442   20.3970 N   0  0  0  0  0  0
  -30.0898  -23.4041   20.1055 O   0  0  0  0  0  0
  -31.4564  -12.3860   19.1294 H   0  0  0  0  0  0
  -30.2830  -11.3123   19.8539 H   0  0  0  0  0  0
  -29.7391  -11.7868   17.4290 H   0  0  0  0  0  0
  -29.6547  -13.4894   17.7817 H   0  0  0  0  0  0
  -27.8418  -11.3006   18.8635 H   0  0  0  0  0  0
  -27.3611  -12.5924   17.8008 H   0  0  0  0  0  0
  -27.6622  -14.2577   19.5423 H   0  0  0  0  0  0
  -28.6599  -12.0796   21.4309 H   0  0  0  0  0  0
  -28.4758  -13.7766   21.8026 H   0  0  0  0  0  0
  -25.2708   -9.5666   22.4789 H   0  0  0  0  0  0
  -23.9975   -7.4586   22.7448 H   0  0  0  0  0  0
  -21.0828   -8.8741   19.8926 H   0  0  0  0  0  0
  -22.3658  -10.9656   19.6194 H   0  0  0  0  0  0
  -21.1988   -7.6125   23.9656 H   0  0  0  0  0  0
  -21.1526   -6.0545   25.9060 H   0  0  0  0  0  0
  -22.0584   -2.7575   23.2912 H   0  0  0  0  0  0
  -22.4128  -11.9757   22.4802 H   0  0  0  0  0  0
  -21.1072  -13.1093   22.2785 H   0  0  0  0  0  0
  -24.6790  -15.8645   20.5391 H   0  0  0  0  0  0
  -26.3062  -15.6154   20.1550 H   0  0  0  0  0  0
  -26.7073  -32.5459   23.1168 H   0  0  0  0  0  0
  -25.0113  -33.9795   25.0503 H   0  0  0  0  0  0
  -22.6955  -31.3056   21.4050 H   0  0  0  0  0  0
  -23.3721  -35.9657   23.3304 H   0  0  0  0  0  0
  -24.3578  -36.8920   22.2065 H   0  0  0  0  0  0
  -23.7267  -37.6531   23.6649 H   0  0  0  0  0  0
  -26.0522  -31.5752   20.6021 H   0  0  0  0  0  0
  -26.8227  -30.8702   21.9936 H   0  0  0  0  0  0
  -28.0867  -29.0404   21.2158 H   0  0  0  0  0  0
  -26.0206  -25.9877   18.9398 H   0  0  0  0  0  0
  -23.9774  -27.2993   19.0239 H   0  0  0  0  0  0
  -23.7230  -30.5764   19.4039 H   0  0  0  0  0  0
  -22.7376  -29.2231   19.8721 H   0  0  0  0  0  0
  -25.1268  -36.1943   25.0825 H   0  0  0  0  0  0
  -20.9868  -28.3163   24.1484 H   0  0  0  0  0  0
  -20.5651  -26.2223   23.3562 H   0  0  0  0  0  0
  -21.6646  -26.7450   22.1229 H   0  0  0  0  0  0
  -19.6948  -25.6289   21.1245 H   0  0  0  0  0  0
  -19.6740  -27.3154   20.6706 H   0  0  0  0  0  0
  -17.4189  -26.6590   21.3992 H   0  0  0  0  0  0
  -18.0375  -26.0038   22.8991 H   0  0  0  0  0  0
  -19.7919  -30.7248   24.2265 H   0  0  0  0  0  0
  -17.4998  -31.6291   24.5108 H   0  0  0  0  0  0
  -15.5328  -30.2968   23.7732 H   0  0  0  0  0  0
  -15.8604  -28.0824   22.7094 H   0  0  0  0  0  0
  -24.5937  -30.7049   25.7948 H   0  0  0  0  0  0
  -24.8990  -32.2876   26.5013 H   0  0  0  0  0  0
  -25.8186  -30.8925   27.0288 H   0  0  0  0  0  0
  -26.2868  -29.6816   24.1176 H   0  0  0  0  0  0
  -27.4010  -29.7259   25.4660 H   0  0  0  0  0  0
  -27.8717  -30.4347   23.9369 H   0  0  0  0  0  0
  -27.2583  -33.3623   26.2121 H   0  0  0  0  0  0
  -28.3814  -32.6951   25.0368 H   0  0  0  0  0  0
  -28.0671  -31.8478   26.5455 H   0  0  0  0  0  0
  -28.2576  -38.0111   24.7476 H   0  0  0  0  0  0
  -28.1056  -36.2632   24.6291 H   0  0  0  0  0  0
  -27.2286  -37.1465   25.8880 H   0  0  0  0  0  0
  -20.9266  -29.8665   21.6927 H   0  0  0  0  0  0
  -26.0135  -38.2850   24.1414 H   0  0  0  0  0  0
  -30.5820  -20.7523   21.1084 H   0  0  0  0  0  0
  -27.9727  -22.6900   18.3036 H   0  0  0  0  0  0
  -30.0422  -18.2276   18.0953 H   0  0  0  0  0  0
  -31.1233  -18.1106   19.4401 H   0  0  0  0  0  0
  -30.2525  -18.6008   21.8259 H   0  0  0  0  0  0
  -28.5870  -18.2088   22.1053 H   0  0  0  0  0  0
  -29.0183  -16.0566   18.5728 H   0  0  0  0  0  0
  -30.7428  -15.9167   18.4126 H   0  0  0  0  0  0
  -29.1846  -16.0128   22.3121 H   0  0  0  0  0  0
  -30.8349  -16.4861   22.1188 H   0  0  0  0  0  0
  -28.1057  -18.0318   19.8220 H   0  0  0  0  0  0
  -26.6507  -18.5668   16.4999 H   0  0  0  0  0  0
  -27.4255  -17.8449   17.8571 H   0  0  0  0  0  0
  -28.3551  -18.8429   16.7292 H   0  0  0  0  0  0
  -25.6226  -20.6378   16.5274 H   0  0  0  0  0  0
  -27.2187  -21.2927   16.2531 H   0  0  0  0  0  0
  -26.1420  -21.9724   17.4910 H   0  0  0  0  0  0
  -27.4790  -24.7846   19.7240 H   0  0  0  0  0  0
  -28.8733  -25.2155   18.7705 H   0  0  0  0  0  0
  -30.0641  -25.1106   21.1738 H   0  0  0  0  0  0
  -28.7436  -24.0475   21.5710 H   0  0  0  0  0  0
  -26.2569  -19.8144   18.7463 H   0  0  0  0  0  0
  1 25  1  0  0  0
  1 30  2  0  0  0
  1 86  1  0  0  0
  2  3  1  0  0  0
  2 25  1  0  0  0
  2 88  1  0  0  0
  2 89  1  0  0  0
  3  4  1  0  0  0
  3 90  1  0  0  0
  3 91  1  0  0  0
  4  5  1  0  0  0
  4 92  1  0  0  0
  4 93  1  0  0  0
  5  6  1  0  0  0
  5 26  1  0  0  0
  5 94  1  0  0  0
  6 25  1  0  0  0
  6 95  1  0  0  0
  6 96  1  0  0  0
  7  8  2  0  0  0
  7 26  1  0  0  0
  7 29  1  0  0  0
  8  9  1  0  0  0
  8 22  1  0  0  0
  9 10  1  0  0  0
  9 27  2  0  0  0
 10 11  2  0  0  0
 10 15  1  0  0  0
 11 12  1  0  0  0
 11 97  1  0  0  0
 12 13  2  0  0  0
 12 98  1  0  0  0
 13 14  1  0  0  0
 13 31  1  0  0  0
 14 15  2  0  0  0
 14 99  1  0  0  0
 15100  1  0  0  0
 16 17  2  0  0  0
 16 21  1  0  0  0
 16 31  1  0  0  0
 17 18  1  0  0  0
 17101  1  0  0  0
 18 19  2  0  0  0
 18102  1  0  0  0
 19 20  1  0  0  0
 19 24  1  0  0  0
 20 21  2  0  0  0
 20103  1  0  0  0
 21 23  1  0  0  0
 22 28  1  0  0  0
 22 32  2  0  0  0
 26 27  1  0  0  0
 28104  1  0  0  0
 28105  1  0  0  0
 29106  1  0  0  0
 29107  1  0  0  0
 33 34  1  0  0  0
 33 66  1  0  0  0
 33 70  2  0  0  0
 34 36  1  0  0  0
 34 59  1  0  0  0
 34108  1  0  0  0
 35 44  2  0  0  0
 35 45  1  0  0  0
 35 68  1  0  0  0
 36 56  1  0  0  0
 36109  1  0  0  0
 37 39  1  0  0  0
 37 47  1  0  0  0
 37 66  1  0  0  0
 37110  1  0  0  0
 38 43  2  0  0  0
 38 46  1  0  0  0
 38 47  1  0  0  0
 39 64  1  0  0  0
 39 67  2  0  0  0
 40 52  1  0  0  0
 40 53  2  0  0  0
 40 58  1  0  0  0
 41111  1  0  0  0
 41112  1  0  0  0
 41113  1  0  0  0
 41 48  1  0  0  0
 42 43  1  0  0  0
 42 66  1  0  0  0
 42114  1  0  0  0
 42115  1  0  0  0
 43 44  1  0  0  0
 44116  1  0  0  0
 45 46  2  0  0  0
 45117  1  0  0  0
 46118  1  0  0  0
 47119  1  0  0  0
 47120  1  0  0  0
 48 56  1  0  0  0
 48 65  1  0  0  0
 48121  1  0  0  0
 49 50  1  0  0  0
 49 53  1  0  0  0
 49 64  1  0  0  0
 49122  1  0  0  0
 50 51  1  0  0  0
 50123  1  0  0  0
 50124  1  0  0  0
 51 52  1  0  0  0
 51125  1  0  0  0
 51126  1  0  0  0
 52127  1  0  0  0
 52128  1  0  0  0
 53 54  1  0  0  0
 54 55  2  0  0  0
 54129  1  0  0  0
 55 57  1  0  0  0
 55130  1  0  0  0
 56 69  2  0  0  0
 57 58  2  0  0  0
 57131  1  0  0  0
 58132  1  0  0  0
 59 60  1  0  0  0
 59 61  1  0  0  0
 59 62  1  0  0  0
 60133  1  0  0  0
 60134  1  0  0  0
 60135  1  0  0  0
 61136  1  0  0  0
 61137  1  0  0  0
 61138  1  0  0  0
 62139  1  0  0  0
 62140  1  0  0  0
 62141  1  0  0  0
 63 65  1  0  0  0
 63142  1  0  0  0
 63143  1  0  0  0
 63144  1  0  0  0
 64145  1  0  0  0
 65146  1  0  0  0
 68 82  1  0  0  0
 71 73  1  0  0  0
 71 74  2  0  0  0
 71147  1  0  0  0
 72 73  2  0  0  0
 72 85  1  0  0  0
 72148  1  0  0  0
 73 87  1  0  0  0
 74 85  1  0  0  0
 74 79  1  0  0  0
 75 77  1  0  0  0
 75 79  1  0  0  0
 75149  1  0  0  0
 75150  1  0  0  0
 76 78  1  0  0  0
 76 79  1  0  0  0
 76151  1  0  0  0
 76152  1  0  0  0
 77 86  1  0  0  0
 77153  1  0  0  0
 77154  1  0  0  0
 78 86  1  0  0  0
 78155  1  0  0  0
 78156  1  0  0  0
 79157  1  0  0  0
 80158  1  0  0  0
 80159  1  0  0  0
 80160  1  0  0  0
 80 84  1  0  0  0
 81 84  1  0  0  0
 81161  1  0  0  0
 81162  1  0  0  0
 81163  1  0  0  0
 82 83  1  0  0  0
 82164  1  0  0  0
 82165  1  0  0  0
 83 87  1  0  0  0
 83166  1  0  0  0
 83167  1  0  0  0
 84 85  1  0  0  0
 84168  1  0  0  0
M  ISO  4   1 100  68 101  82 101  86 100
M  END
> <chiral flag>
0

> <version>
0

> <s_m_source_file>
/data/baiqing/PycharmProjects/Reinvent-master-3.2/result/LINK_invent/BTK/process_docking_weight1_custom_sum_contain_oxygen_bond_distance_aromatic_linkinvent_7_9_3/rearranged_h_0145.sdf

> <i_m_source_file_index>
39

> <r_mmod_Potential_Energy-OPLS-2005>
241.805877685547

> <r_mmod_Stretch_Energy-OPLS-2005>
49.706729888916

> <r_mmod_Bend_Energy-OPLS-2005>
140.889038085938

> <r_mmod_Torsional_Energy-OPLS-2005>
388.147399902344

> <r_mmod_Improper_Torsional_Energy-OPLS-2005>
16.7232933044434

> <r_mmod_Van_der_Waal_Energy-OPLS-2005>
138.160415649414

> <r_mmod_Electrostatic_Energy-OPLS-2005>
-316.730926513672

> <r_mmod_Solvation_Energy-OPLS-2005>
-202.205490112305

> <b_mmod_Minimization_Converged-OPLS-2005>
0

> <r_mmod_RMS_Derivative-OPLS-2005>
6.33414316177368

$$$$
40
                    3D
 Structure written by MMmdl.
165174  0  0  1  0            999 V2000
  -30.5790  -14.6772   20.4904 C   0  0  0  0  0  0
  -30.4476  -12.4171   19.4422 C   0  0  0  0  0  0
  -29.5084  -12.5102   18.2177 C   0  0  0  0  0  0
  -28.0317  -12.3348   18.6325 C   0  0  0  0  0  0
  -27.6487  -13.2092   19.8557 C   0  0  2  0  0  0
  -28.6965  -13.0692   20.9822 C   0  0  0  0  0  0
  -25.2551  -13.8140   20.5652 C   0  0  0  0  0  0
  -24.1821  -13.0422   20.9195 C   0  0  0  0  0  0
  -24.6378  -11.6891   20.8741 C   0  0  0  0  0  0
  -23.9038  -10.4285   21.0410 C   0  0  0  0  0  0
  -24.3597   -9.4205   21.9186 C   0  0  0  0  0  0
  -23.6283   -8.2234   22.0752 C   0  0  0  0  0  0
  -22.4263   -8.0270   21.3545 C   0  0  0  0  0  0
  -21.9892   -9.0241   20.4645 C   0  0  0  0  0  0
  -22.7211  -10.2127   20.3060 C   0  0  0  0  0  0
  -21.6850   -6.0728   22.5279 C   0  0  0  0  0  0
  -21.4010   -6.5635   23.8211 C   0  0  0  0  0  0
  -21.3663   -5.6790   24.9174 C   0  0  0  0  0  0
  -21.6043   -4.3052   24.7226 C   0  0  0  0  0  0
  -21.8818   -3.8142   23.4348 C   0  0  0  0  0  0
  -21.9191   -4.6957   22.3404 C   0  0  0  0  0  0
  -22.7846  -13.5232   21.1857 C   0  0  0  0  0  0
  -22.1661   -4.2143   21.0981 F   0  0  0  0  0  0
  -21.5632   -3.4537   25.7740 F   0  0  0  0  0  0
  -30.0028  -13.4351   20.4115 N   0  0  0  0  0  0
  -26.2961  -12.9303   20.3272 N   0  0  0  0  0  0
  -25.9300  -11.6467   20.5738 N   0  0  0  0  0  0
  -22.0478  -12.8241   22.0416 N   0  0  0  0  0  0
  -25.4236  -15.1859   20.4004 N   0  0  0  0  0  0
  -31.7619  -14.8641   20.1912 O   0  0  0  0  0  0
  -21.6635   -6.8865   21.4238 O   0  0  0  0  0  0
  -22.3540  -14.5540   20.6698 O   0  0  0  0  0  0
  -24.6286  -31.8591   23.2021 C   0  0  0  0  0  0
  -25.9136  -32.4768   23.8351 C   0  0  1  0  0  0
  -27.2264  -27.3091   20.1097 C   0  0  0  0  0  0
  -25.5951  -33.8565   24.2295 N   0  0  0  0  0  0
  -23.4208  -30.4813   21.5452 C   0  0  2  0  0  0
  -24.8644  -28.9289   20.1173 C   0  0  0  0  0  0
  -22.7486  -29.4610   22.4942 C   0  0  0  0  0  0
  -18.0291  -28.1396   22.8497 C   0  0  0  0  0  0
  -24.1479  -36.7262   23.2636 C   0  0  0  0  0  0
  -25.9625  -30.7845   21.3752 C   0  0  0  0  0  0
  -26.0327  -29.4091   20.7197 C   0  0  0  0  0  0
  -27.2138  -28.6096   20.7056 C   0  0  0  0  0  0
  -26.0279  -26.8739   19.5025 C   0  0  0  0  0  0
  -24.8626  -27.6652   19.5056 C   0  0  0  0  0  0
  -23.6369  -29.8147   20.1614 C   0  0  0  0  0  0
  -25.4110  -36.3070   24.0338 C   0  0  1  0  0  0
  -20.5896  -28.3700   23.1285 C   0  0  2  0  0  0
  -20.6770  -26.9421   22.5409 C   0  0  0  0  0  0
  -19.5744  -26.6399   21.5215 C   0  0  0  0  0  0
  -18.1931  -26.7940   22.1640 C   0  0  0  0  0  0
  -19.1549  -28.8866   23.2883 C   0  0  0  0  0  0
  -18.9462  -30.1469   23.8905 C   0  0  0  0  0  0
  -17.6459  -30.6592   24.0567 C   0  0  0  0  0  0
  -25.9056  -34.9441   23.5116 C   0  0  0  0  0  0
  -16.5357  -29.9094   23.6330 C   0  0  0  0  0  0
  -16.7273  -28.6512   23.0354 C   0  0  0  0  0  0
  -26.4512  -31.6575   25.0720 C   0  0  0  0  0  0
  -25.3741  -31.3724   26.1448 C   0  0  0  0  0  0
  -27.0343  -30.2987   24.6183 C   0  0  0  0  0  0
  -27.6084  -32.4293   25.7493 C   0  0  0  0  0  0
  -27.5577  -37.1791   24.8477 C   0  0  0  0  0  0
  -21.4197  -29.3037   22.3670 N   0  0  0  0  0  0
  -26.4286  -37.3771   23.9425 N   0  0  0  0  0  0
  -24.6890  -31.0594   22.0977 N   0  0  0  0  0  0
  -23.4197  -28.8160   23.3034 O   0  0  0  0  0  0
  -28.3870  -26.5188   20.0802 O   0  0  0  0  0  0
  -26.5601  -34.8915   22.4672 O   0  0  0  0  0  0
  -23.5444  -32.1408   23.7348 O   0  0  0  0  0  0
  -27.9574  -24.1744   19.2369 C   0  0  0  0  0  0
  -28.1739  -22.7706   19.3915 C   0  0  0  0  0  0
  -28.9778  -22.2711   20.4664 C   0  0  0  0  0  0
  -29.4235  -23.2931   21.3661 C   0  0  0  0  0  0
  -28.4305  -25.1060   20.1936 C   0  0  0  0  0  0
  -31.2627  -23.9175   23.1490 C   0  0  0  0  0  0
  -31.6421  -22.5801   22.5734 C   0  0  0  0  0  0
  -30.1833  -22.9867   22.6262 C   0  0  0  0  0  0
  -27.4944  -21.8417   18.4004 C   0  0  0  0  0  0
  -29.2612  -20.7225   20.7768 C   0  0  0  0  0  0
  -30.3079  -18.2255   19.9205 C   0  0  0  0  0  0
  -29.7349  -17.1977   20.9832 C   0  0  0  0  0  0
  -29.6999  -19.7032   19.6325 C   0  0  2  0  0  0
  -29.1572  -24.6277   21.2278 N   0  0  0  0  0  0
  -29.6944  -15.7031   20.7197 N   0  0  0  0  0  0
  -30.6545  -20.4216   18.7664 N   0  3  0  0  0  0
  -31.4847  -12.5706   19.1385 H   0  0  0  0  0  0
  -30.4049  -11.4225   19.8888 H   0  0  0  0  0  0
  -29.7801  -11.7591   17.4752 H   0  0  0  0  0  0
  -29.6366  -13.4789   17.7317 H   0  0  0  0  0  0
  -27.8778  -11.2814   18.8699 H   0  0  0  0  0  0
  -27.3739  -12.5544   17.7906 H   0  0  0  0  0  0
  -27.6598  -14.2412   19.5061 H   0  0  0  0  0  0
  -28.7220  -12.0444   21.3568 H   0  0  0  0  0  0
  -28.4382  -13.6930   21.8397 H   0  0  0  0  0  0
  -25.2743   -9.5686   22.4759 H   0  0  0  0  0  0
  -23.9997   -7.4624   22.7469 H   0  0  0  0  0  0
  -21.0825   -8.8753   19.8950 H   0  0  0  0  0  0
  -22.3662  -10.9665   19.6171 H   0  0  0  0  0  0
  -21.2001   -7.6142   23.9712 H   0  0  0  0  0  0
  -21.1486   -6.0520   25.9077 H   0  0  0  0  0  0
  -22.0595   -2.7603   23.2849 H   0  0  0  0  0  0
  -22.4080  -11.9912   22.4836 H   0  0  0  0  0  0
  -21.1091  -13.1276   22.2601 H   0  0  0  0  0  0
  -24.6409  -15.8265   20.4774 H   0  0  0  0  0  0
  -26.2508  -15.6216   20.0147 H   0  0  0  0  0  0
  -26.7199  -32.5435   23.1085 H   0  0  0  0  0  0
  -25.0129  -33.9721   25.0458 H   0  0  0  0  0  0
  -22.7146  -31.3023   21.4007 H   0  0  0  0  0  0
  -23.3755  -35.9581   23.3309 H   0  0  0  0  0  0
  -24.3556  -36.8869   22.2045 H   0  0  0  0  0  0
  -23.7213  -37.6462   23.6641 H   0  0  0  0  0  0
  -26.1006  -31.5467   20.6067 H   0  0  0  0  0  0
  -26.8388  -30.8304   22.0095 H   0  0  0  0  0  0
  -28.1181  -28.9823   21.1655 H   0  0  0  0  0  0
  -25.9666  -25.9124   19.0209 H   0  0  0  0  0  0
  -23.9638  -27.2902   19.0362 H   0  0  0  0  0  0
  -23.7616  -30.5896   19.4039 H   0  0  0  0  0  0
  -22.7563  -29.2464   19.8570 H   0  0  0  0  0  0
  -25.1282  -36.1922   25.0829 H   0  0  0  0  0  0
  -20.9999  -28.3276   24.1403 H   0  0  0  0  0  0
  -20.5679  -26.2307   23.3607 H   0  0  0  0  0  0
  -21.6639  -26.7445   22.1207 H   0  0  0  0  0  0
  -19.6890  -25.6311   21.1241 H   0  0  0  0  0  0
  -19.6673  -27.3207   20.6743 H   0  0  0  0  0  0
  -17.4196  -26.6693   21.4042 H   0  0  0  0  0  0
  -18.0329  -26.0079   22.9033 H   0  0  0  0  0  0
  -19.7933  -30.7286   24.2281 H   0  0  0  0  0  0
  -17.5008  -31.6282   24.5161 H   0  0  0  0  0  0
  -15.5354  -30.2995   23.7642 H   0  0  0  0  0  0
  -15.8677  -28.0826   22.7070 H   0  0  0  0  0  0
  -24.5943  -30.7035   25.7785 H   0  0  0  0  0  0
  -24.8894  -32.2884   26.4835 H   0  0  0  0  0  0
  -25.8072  -30.8945   27.0243 H   0  0  0  0  0  0
  -26.2914  -29.6733   24.1212 H   0  0  0  0  0  0
  -27.4025  -29.7259   25.4703 H   0  0  0  0  0  0
  -27.8792  -30.4246   23.9413 H   0  0  0  0  0  0
  -27.2733  -33.3637   26.2011 H   0  0  0  0  0  0
  -28.3929  -32.6775   25.0328 H   0  0  0  0  0  0
  -28.0685  -31.8425   26.5453 H   0  0  0  0  0  0
  -28.2606  -38.0078   24.7526 H   0  0  0  0  0  0
  -28.1071  -36.2613   24.6309 H   0  0  0  0  0  0
  -27.2299  -37.1451   25.8883 H   0  0  0  0  0  0
  -20.9393  -29.8741   21.6853 H   0  0  0  0  0  0
  -26.0170  -38.2849   24.1426 H   0  0  0  0  0  0
  -27.4238  -24.5339   18.3695 H   0  0  0  0  0  0
  -31.5120  -24.7999   22.5630 H   0  0  0  0  0  0
  -31.3292  -24.0420   24.2275 H   0  0  0  0  0  0
  -31.9817  -21.8213   23.2747 H   0  0  0  0  0  0
  -32.1303  -22.5743   21.6008 H   0  0  0  0  0  0
  -29.5415  -22.4992   23.3585 H   0  0  0  0  0  0
  -26.7036  -22.3597   17.8557 H   0  0  0  0  0  0
  -27.0244  -21.0044   18.9151 H   0  0  0  0  0  0
  -28.1976  -21.4611   17.6616 H   0  0  0  0  0  0
  -28.3612  -20.3264   21.2496 H   0  0  0  0  0  0
  -30.0235  -20.6514   21.5497 H   0  0  0  0  0  0
  -30.3066  -17.7063   18.9608 H   0  0  0  0  0  0
  -31.3660  -18.3369   20.1604 H   0  0  0  0  0  0
  -28.6993  -17.4798   21.1767 H   0  0  0  0  0  0
  -30.2479  -17.3538   21.9333 H   0  0  0  0  0  0
  -28.8114  -19.5301   19.0260 H   0  0  0  0  0  0
  -28.7650  -15.3296   20.8435 H   0  0  0  0  0  0
  -31.5580  -20.4841   19.2022 H   0  0  0  0  0  0
  -30.3267  -21.3597   18.6130 H   0  0  0  0  0  0
  -30.7601  -19.9624   17.8785 H   0  0  0  0  0  0
  1 25  1  0  0  0
  1 30  2  0  0  0
  1 85  1  0  0  0
  2  3  1  0  0  0
  2 25  1  0  0  0
  2 87  1  0  0  0
  2 88  1  0  0  0
  3  4  1  0  0  0
  3 89  1  0  0  0
  3 90  1  0  0  0
  4  5  1  0  0  0
  4 91  1  0  0  0
  4 92  1  0  0  0
  5  6  1  0  0  0
  5 26  1  0  0  0
  5 93  1  0  0  0
  6 25  1  0  0  0
  6 94  1  0  0  0
  6 95  1  0  0  0
  7  8  2  0  0  0
  7 26  1  0  0  0
  7 29  1  0  0  0
  8  9  1  0  0  0
  8 22  1  0  0  0
  9 10  1  0  0  0
  9 27  2  0  0  0
 10 11  2  0  0  0
 10 15  1  0  0  0
 11 12  1  0  0  0
 11 96  1  0  0  0
 12 13  2  0  0  0
 12 97  1  0  0  0
 13 14  1  0  0  0
 13 31  1  0  0  0
 14 15  2  0  0  0
 14 98  1  0  0  0
 15 99  1  0  0  0
 16 17  2  0  0  0
 16 21  1  0  0  0
 16 31  1  0  0  0
 17 18  1  0  0  0
 17100  1  0  0  0
 18 19  2  0  0  0
 18101  1  0  0  0
 19 20  1  0  0  0
 19 24  1  0  0  0
 20 21  2  0  0  0
 20102  1  0  0  0
 21 23  1  0  0  0
 22 28  1  0  0  0
 22 32  2  0  0  0
 26 27  1  0  0  0
 28103  1  0  0  0
 28104  1  0  0  0
 29105  1  0  0  0
 29106  1  0  0  0
 33 34  1  0  0  0
 33 66  1  0  0  0
 33 70  2  0  0  0
 34 36  1  0  0  0
 34 59  1  0  0  0
 34107  1  0  0  0
 35 44  2  0  0  0
 35 45  1  0  0  0
 35 68  1  0  0  0
 36 56  1  0  0  0
 36108  1  0  0  0
 37 39  1  0  0  0
 37 47  1  0  0  0
 37 66  1  0  0  0
 37109  1  0  0  0
 38 43  2  0  0  0
 38 46  1  0  0  0
 38 47  1  0  0  0
 39 64  1  0  0  0
 39 67  2  0  0  0
 40 52  1  0  0  0
 40 53  2  0  0  0
 40 58  1  0  0  0
 41110  1  0  0  0
 41111  1  0  0  0
 41112  1  0  0  0
 41 48  1  0  0  0
 42 43  1  0  0  0
 42 66  1  0  0  0
 42113  1  0  0  0
 42114  1  0  0  0
 43 44  1  0  0  0
 44115  1  0  0  0
 45 46  2  0  0  0
 45116  1  0  0  0
 46117  1  0  0  0
 47118  1  0  0  0
 47119  1  0  0  0
 48 56  1  0  0  0
 48 65  1  0  0  0
 48120  1  0  0  0
 49 50  1  0  0  0
 49 53  1  0  0  0
 49 64  1  0  0  0
 49121  1  0  0  0
 50 51  1  0  0  0
 50122  1  0  0  0
 50123  1  0  0  0
 51 52  1  0  0  0
 51124  1  0  0  0
 51125  1  0  0  0
 52126  1  0  0  0
 52127  1  0  0  0
 53 54  1  0  0  0
 54 55  2  0  0  0
 54128  1  0  0  0
 55 57  1  0  0  0
 55129  1  0  0  0
 56 69  2  0  0  0
 57 58  2  0  0  0
 57130  1  0  0  0
 58131  1  0  0  0
 59 60  1  0  0  0
 59 61  1  0  0  0
 59 62  1  0  0  0
 60132  1  0  0  0
 60133  1  0  0  0
 60134  1  0  0  0
 61135  1  0  0  0
 61136  1  0  0  0
 61137  1  0  0  0
 62138  1  0  0  0
 62139  1  0  0  0
 62140  1  0  0  0
 63 65  1  0  0  0
 63141  1  0  0  0
 63142  1  0  0  0
 63143  1  0  0  0
 64144  1  0  0  0
 65145  1  0  0  0
 68 75  1  0  0  0
 71 72  2  0  0  0
 71 75  1  0  0  0
 71146  1  0  0  0
 72 73  1  0  0  0
 72 79  1  0  0  0
 73 74  2  0  0  0
 73 80  1  0  0  0
 74 84  1  0  0  0
 74 78  1  0  0  0
 75 84  2  0  0  0
 76 77  1  0  0  0
 76 78  1  0  0  0
 76147  1  0  0  0
 76148  1  0  0  0
 77 78  1  0  0  0
 77149  1  0  0  0
 77150  1  0  0  0
 78151  1  0  0  0
 79152  1  0  0  0
 79153  1  0  0  0
 79154  1  0  0  0
 80 83  1  0  0  0
 80155  1  0  0  0
 80156  1  0  0  0
 81 82  1  0  0  0
 81 83  1  0  0  0
 81157  1  0  0  0
 81158  1  0  0  0
 82 85  1  0  0  0
 82159  1  0  0  0
 82160  1  0  0  0
 83 86  1  0  0  0
 83161  1  0  0  0
 85162  1  0  0  0
 86163  1  0  0  0
 86164  1  0  0  0
 86165  1  0  0  0
M  CHG  1  86   1
M  ISO  4   1 100  68 101  75 101  85 100
M  END
> <chiral flag>
0

> <version>
0

> <s_m_source_file>
/data/baiqing/PycharmProjects/Reinvent-master-3.2/result/LINK_invent/BTK/process_docking_weight1_custom_sum_contain_oxygen_bond_distance_aromatic_linkinvent_7_9_3/rearranged_h_0145.sdf

> <i_m_source_file_index>
40

> <r_mmod_Potential_Energy-OPLS-2005>
-247.165176391602

> <r_mmod_Stretch_Energy-OPLS-2005>
92.1739044189453

> <r_mmod_Bend_Energy-OPLS-2005>
189.22883605957

> <r_mmod_Torsional_Energy-OPLS-2005>
267.301635742188

> <r_mmod_Improper_Torsional_Energy-OPLS-2005>
6.38322496414185

> <r_mmod_Van_der_Waal_Energy-OPLS-2005>
138.03352355957

> <r_mmod_Electrostatic_Energy-OPLS-2005>
-486.068603515625

> <r_mmod_Solvation_Energy-OPLS-2005>
-509.269592285156

> <b_mmod_Minimization_Converged-OPLS-2005>
0

> <r_mmod_RMS_Derivative-OPLS-2005>
1.68219435214996

$$$$
41
                    3D
 Structure written by MMmdl.
174182  0  0  1  0            999 V2000
  -30.6726  -14.4915   20.5121 C   0  0  0  0  0  0
  -30.4198  -12.2957   19.4441 C   0  0  0  0  0  0
  -29.4992  -12.4912   18.2211 C   0  0  0  0  0  0
  -28.0148  -12.3604   18.6224 C   0  0  0  0  0  0
  -27.6537  -13.2097   19.8727 C   0  0  2  0  0  0
  -28.6981  -13.0119   20.9976 C   0  0  0  0  0  0
  -25.2523  -13.8150   20.5639 C   0  0  0  0  0  0
  -24.1802  -13.0430   20.9179 C   0  0  0  0  0  0
  -24.6386  -11.6888   20.8789 C   0  0  0  0  0  0
  -23.9082  -10.4270   21.0467 C   0  0  0  0  0  0
  -24.3623   -9.4158   21.9225 C   0  0  0  0  0  0
  -23.6288   -8.2188   22.0749 C   0  0  0  0  0  0
  -22.4256   -8.0271   21.3553 C   0  0  0  0  0  0
  -21.9937   -9.0248   20.4656 C   0  0  0  0  0  0
  -22.7273  -10.2114   20.3106 C   0  0  0  0  0  0
  -21.6801   -6.0762   22.5288 C   0  0  0  0  0  0
  -21.4009   -6.5670   23.8229 C   0  0  0  0  0  0
  -21.3669   -5.6822   24.9198 C   0  0  0  0  0  0
  -21.6021   -4.3071   24.7231 C   0  0  0  0  0  0
  -21.8815   -3.8175   23.4350 C   0  0  0  0  0  0
  -21.9167   -4.7000   22.3419 C   0  0  0  0  0  0
  -22.7828  -13.5215   21.1884 C   0  0  0  0  0  0
  -22.1625   -4.2208   21.0986 F   0  0  0  0  0  0
  -21.5621   -3.4550   25.7733 F   0  0  0  0  0  0
  -30.0229  -13.3035   20.4362 N   0  0  0  0  0  0
  -26.2970  -12.9340   20.3358 N   0  0  0  0  0  0
  -25.9302  -11.6496   20.5813 N   0  0  0  0  0  0
  -22.0481  -12.8217   22.0444 N   0  0  0  0  0  0
  -25.4315  -15.1852   20.4042 N   0  0  0  0  0  0
  -31.8546  -14.6286   20.1874 O   0  0  0  0  0  0
  -21.6585   -6.8902   21.4235 O   0  0  0  0  0  0
  -22.3490  -14.5528   20.6752 O   0  0  0  0  0  0
  -24.6140  -31.8687   23.2096 C   0  0  0  0  0  0
  -25.9036  -32.4822   23.8398 C   0  0  1  0  0  0
  -27.2391  -27.4307   20.0804 C   0  0  0  0  0  0
  -25.5895  -33.8619   24.2342 N   0  0  0  0  0  0
  -23.4066  -30.4947   21.5480 C   0  0  2  0  0  0
  -24.8478  -28.9551   20.1178 C   0  0  0  0  0  0
  -22.7415  -29.4727   22.4962 C   0  0  0  0  0  0
  -18.0299  -28.1434   22.8484 C   0  0  0  0  0  0
  -24.1499  -36.7295   23.2637 C   0  0  0  0  0  0
  -25.9329  -30.8272   21.3709 C   0  0  0  0  0  0
  -26.0049  -29.4585   20.7227 C   0  0  0  0  0  0
  -27.1966  -28.6992   20.7097 C   0  0  0  0  0  0
  -26.0576  -26.9445   19.4698 C   0  0  0  0  0  0
  -24.8683  -27.6950   19.4937 C   0  0  0  0  0  0
  -23.6145  -29.8254   20.1651 C   0  0  0  0  0  0
  -25.4106  -36.3089   24.0343 C   0  0  1  0  0  0
  -20.5887  -28.3794   23.1318 C   0  0  2  0  0  0
  -20.6851  -26.9483   22.5492 C   0  0  0  0  0  0
  -19.5821  -26.6335   21.5292 C   0  0  0  0  0  0
  -18.2000  -26.7938   22.1712 C   0  0  0  0  0  0
  -19.1539  -28.8947   23.2844 C   0  0  0  0  0  0
  -18.9471  -30.1581   23.8802 C   0  0  0  0  0  0
  -17.6456  -30.6689   24.0505 C   0  0  0  0  0  0
  -25.9035  -34.9469   23.5138 C   0  0  0  0  0  0
  -16.5357  -29.9159   23.6311 C   0  0  0  0  0  0
  -16.7286  -28.6541   23.0379 C   0  0  0  0  0  0
  -26.4476  -31.6581   25.0708 C   0  0  0  0  0  0
  -25.3760  -31.3691   26.1483 C   0  0  0  0  0  0
  -27.0341  -30.3034   24.6079 C   0  0  0  0  0  0
  -27.6089  -32.4261   25.7454 C   0  0  0  0  0  0
  -27.5581  -37.1788   24.8463 C   0  0  0  0  0  0
  -21.4137  -29.3178   22.3723 N   0  0  0  0  0  0
  -26.4291  -37.3760   23.9403 N   0  0  0  0  0  0
  -24.6695  -31.0811   22.1009 N   0  0  0  0  0  0
  -23.4160  -28.8233   23.2990 O   0  0  0  0  0  0
  -28.4295  -26.7274   20.0958 O   0  0  0  0  0  0
  -26.5569  -34.8894   22.4693 O   0  0  0  0  0  0
  -23.5318  -32.1479   23.7438 O   0  0  0  0  0  0
  -26.5079  -20.2331   20.9449 C   0  0  0  0  0  0
  -28.7544  -21.0118   20.4058 C   0  0  0  0  0  0
  -27.9522  -20.2279   21.4652 C   0  0  1  0  0  0
  -26.3406  -21.5910   20.2385 C   0  0  1  0  0  0
  -27.7048  -21.7184   19.5127 C   0  0  1  0  0  0
  -27.5915  -18.3460   23.1119 C   0  0  0  0  0  0
  -23.8132  -21.1748   20.0718 C   0  0  0  0  0  0
  -24.8042  -23.1008   18.8173 C   0  0  0  0  0  0
  -28.7811  -17.7545   20.9191 C   0  0  0  0  0  0
  -29.3972  -16.4308   21.4779 C   0  0  0  0  0  0
  -28.0319  -24.2367   19.9785 C   0  0  0  0  0  0
  -28.5781  -25.5331   19.3118 C   0  0  0  0  0  0
  -28.5086  -18.8611   21.9850 C   0  0  2  0  0  0
  -25.0711  -21.6748   19.3383 C   0  0  0  0  0  0
  -29.8747  -15.5660   20.3933 N   0  0  0  0  0  0
  -28.0988  -23.0779   19.0399 N   0  3  0  0  0  0
  -31.4701  -12.3823   19.1578 H   0  0  0  0  0  0
  -30.3022  -11.2932   19.8570 H   0  0  0  0  0  0
  -29.7385  -11.7572   17.4515 H   0  0  0  0  0  0
  -29.6833  -13.4716   17.7798 H   0  0  0  0  0  0
  -27.8231  -11.3056   18.8205 H   0  0  0  0  0  0
  -27.3702  -12.6309   17.7852 H   0  0  0  0  0  0
  -27.6859  -14.2531   19.5535 H   0  0  0  0  0  0
  -28.6776  -11.9857   21.3648 H   0  0  0  0  0  0
  -28.4832  -13.6438   21.8600 H   0  0  0  0  0  0
  -25.2767   -9.5580   22.4818 H   0  0  0  0  0  0
  -23.9989   -7.4571   22.7450 H   0  0  0  0  0  0
  -21.0888   -8.8792   19.8967 H   0  0  0  0  0  0
  -22.3764  -10.9676   19.6239 H   0  0  0  0  0  0
  -21.2000   -7.6180   23.9740 H   0  0  0  0  0  0
  -21.1505   -6.0564   25.9104 H   0  0  0  0  0  0
  -22.0588   -2.7638   23.2825 H   0  0  0  0  0  0
  -22.4067  -11.9826   22.4778 H   0  0  0  0  0  0
  -21.1133  -13.1286   22.2731 H   0  0  0  0  0  0
  -24.6841  -15.8569   20.5370 H   0  0  0  0  0  0
  -26.3072  -15.6073   20.1236 H   0  0  0  0  0  0
  -26.7093  -32.5498   23.1155 H   0  0  0  0  0  0
  -25.0062  -33.9816   25.0495 H   0  0  0  0  0  0
  -22.6960  -31.3106   21.4030 H   0  0  0  0  0  0
  -23.3737  -35.9648   23.3299 H   0  0  0  0  0  0
  -24.3606  -36.8909   22.2049 H   0  0  0  0  0  0
  -23.7299  -37.6522   23.6651 H   0  0  0  0  0  0
  -26.0434  -31.5885   20.5969 H   0  0  0  0  0  0
  -26.8213  -30.8831   21.9870 H   0  0  0  0  0  0
  -28.0835  -29.0904   21.1868 H   0  0  0  0  0  0
  -26.0228  -25.9900   18.9680 H   0  0  0  0  0  0
  -23.9773  -27.3007   19.0237 H   0  0  0  0  0  0
  -23.7295  -30.5975   19.4047 H   0  0  0  0  0  0
  -22.7373  -29.2484   19.8675 H   0  0  0  0  0  0
  -25.1287  -36.1947   25.0828 H   0  0  0  0  0  0
  -20.9907  -28.3507   24.1463 H   0  0  0  0  0  0
  -21.6728  -26.7520   22.1284 H   0  0  0  0  0  0
  -20.5793  -26.2389   23.3732 H   0  0  0  0  0  0
  -19.6962  -25.6164   21.1476 H   0  0  0  0  0  0
  -19.6762  -27.3062   20.6756 H   0  0  0  0  0  0
  -17.4221  -26.6550   21.4176 H   0  0  0  0  0  0
  -18.0532  -26.0167   22.9224 H   0  0  0  0  0  0
  -19.7909  -30.7455   24.2147 H   0  0  0  0  0  0
  -17.4977  -31.6370   24.5061 H   0  0  0  0  0  0
  -15.5361  -30.3048   23.7712 H   0  0  0  0  0  0
  -15.8671  -28.0854   22.7163 H   0  0  0  0  0  0
  -24.5913  -30.7061   25.7836 H   0  0  0  0  0  0
  -24.8954  -32.2845   26.4926 H   0  0  0  0  0  0
  -25.8102  -30.8865   27.0254 H   0  0  0  0  0  0
  -26.2918  -29.6753   24.1145 H   0  0  0  0  0  0
  -27.4203  -29.7290   25.4517 H   0  0  0  0  0  0
  -27.8693  -30.4395   23.9202 H   0  0  0  0  0  0
  -27.2768  -33.3549   26.2090 H   0  0  0  0  0  0
  -28.3861  -32.6826   25.0245 H   0  0  0  0  0  0
  -28.0811  -31.8347   26.5315 H   0  0  0  0  0  0
  -28.2588  -38.0093   24.7472 H   0  0  0  0  0  0
  -28.1103  -36.2616   24.6325 H   0  0  0  0  0  0
  -27.2298  -37.1462   25.8872 H   0  0  0  0  0  0
  -20.9299  -29.8987   21.7029 H   0  0  0  0  0  0
  -26.0180  -38.2847   24.1375 H   0  0  0  0  0  0
  -25.7877  -20.1117   21.7558 H   0  0  0  0  0  0
  -26.3597  -19.4145   20.2396 H   0  0  0  0  0  0
  -29.3813  -20.3626   19.7945 H   0  0  0  0  0  0
  -29.4194  -21.7230   20.8973 H   0  0  0  0  0  0
  -27.9343  -20.8864   22.3359 H   0  0  0  0  0  0
  -26.2645  -22.3424   21.0261 H   0  0  0  0  0  0
  -27.6326  -21.1119   18.6073 H   0  0  0  0  0  0
  -26.6297  -18.0109   22.7216 H   0  0  0  0  0  0
  -27.3849  -19.1182   23.8538 H   0  0  0  0  0  0
  -28.0428  -17.5131   23.6465 H   0  0  0  0  0  0
  -23.8927  -20.1180   20.3285 H   0  0  0  0  0  0
  -22.9227  -21.2731   19.4478 H   0  0  0  0  0  0
  -23.6394  -21.7303   20.9933 H   0  0  0  0  0  0
  -24.7275  -23.8181   19.6340 H   0  0  0  0  0  0
  -23.8627  -23.1543   18.2655 H   0  0  0  0  0  0
  -25.5784  -23.4507   18.1380 H   0  0  0  0  0  0
  -27.8607  -17.5258   20.3811 H   0  0  0  0  0  0
  -29.4643  -18.1525   20.1716 H   0  0  0  0  0  0
  -30.2398  -16.6679   22.1292 H   0  0  0  0  0  0
  -28.6645  -15.8955   22.0817 H   0  0  0  0  0  0
  -27.0028  -24.3891   20.2946 H   0  0  0  0  0  0
  -28.6065  -24.0208   20.8793 H   0  0  0  0  0  0
  -28.1625  -25.6828   18.3127 H   0  0  0  0  0  0
  -29.6498  -25.4067   19.1521 H   0  0  0  0  0  0
  -29.4759  -19.0824   22.4412 H   0  0  0  0  0  0
  -25.2158  -21.0241   18.4738 H   0  0  0  0  0  0
  -30.2411  -16.1452   19.6531 H   0  0  0  0  0  0
  -27.5137  -23.2901   18.2441 H   0  0  0  0  0  0
  -29.0409  -23.0026   18.6856 H   0  0  0  0  0  0
  1 25  1  0  0  0
  1 30  2  0  0  0
  1 85  1  0  0  0
  2  3  1  0  0  0
  2 25  1  0  0  0
  2 87  1  0  0  0
  2 88  1  0  0  0
  3  4  1  0  0  0
  3 89  1  0  0  0
  3 90  1  0  0  0
  4  5  1  0  0  0
  4 91  1  0  0  0
  4 92  1  0  0  0
  5  6  1  0  0  0
  5 26  1  0  0  0
  5 93  1  0  0  0
  6 25  1  0  0  0
  6 94  1  0  0  0
  6 95  1  0  0  0
  7  8  2  0  0  0
  7 26  1  0  0  0
  7 29  1  0  0  0
  8  9  1  0  0  0
  8 22  1  0  0  0
  9 10  1  0  0  0
  9 27  2  0  0  0
 10 11  2  0  0  0
 10 15  1  0  0  0
 11 12  1  0  0  0
 11 96  1  0  0  0
 12 13  2  0  0  0
 12 97  1  0  0  0
 13 14  1  0  0  0
 13 31  1  0  0  0
 14 15  2  0  0  0
 14 98  1  0  0  0
 15 99  1  0  0  0
 16 17  2  0  0  0
 16 21  1  0  0  0
 16 31  1  0  0  0
 17 18  1  0  0  0
 17100  1  0  0  0
 18 19  2  0  0  0
 18101  1  0  0  0
 19 20  1  0  0  0
 19 24  1  0  0  0
 20 21  2  0  0  0
 20102  1  0  0  0
 21 23  1  0  0  0
 22 28  1  0  0  0
 22 32  2  0  0  0
 26 27  1  0  0  0
 28103  1  0  0  0
 28104  1  0  0  0
 29105  1  0  0  0
 29106  1  0  0  0
 33 34  1  0  0  0
 33 66  1  0  0  0
 33 70  2  0  0  0
 34 36  1  0  0  0
 34 59  1  0  0  0
 34107  1  0  0  0
 35 44  2  0  0  0
 35 45  1  0  0  0
 35 68  1  0  0  0
 36 56  1  0  0  0
 36108  1  0  0  0
 37 39  1  0  0  0
 37 47  1  0  0  0
 37 66  1  0  0  0
 37109  1  0  0  0
 38 43  2  0  0  0
 38 46  1  0  0  0
 38 47  1  0  0  0
 39 64  1  0  0  0
 39 67  2  0  0  0
 40 52  1  0  0  0
 40 53  2  0  0  0
 40 58  1  0  0  0
 41110  1  0  0  0
 41111  1  0  0  0
 41112  1  0  0  0
 41 48  1  0  0  0
 42 43  1  0  0  0
 42 66  1  0  0  0
 42113  1  0  0  0
 42114  1  0  0  0
 43 44  1  0  0  0
 44115  1  0  0  0
 45 46  2  0  0  0
 45116  1  0  0  0
 46117  1  0  0  0
 47118  1  0  0  0
 47119  1  0  0  0
 48 56  1  0  0  0
 48 65  1  0  0  0
 48120  1  0  0  0
 49 50  1  0  0  0
 49 53  1  0  0  0
 49 64  1  0  0  0
 49121  1  0  0  0
 50 51  1  0  0  0
 50122  1  0  0  0
 50123  1  0  0  0
 51 52  1  0  0  0
 51124  1  0  0  0
 51125  1  0  0  0
 52126  1  0  0  0
 52127  1  0  0  0
 53 54  1  0  0  0
 54 55  2  0  0  0
 54128  1  0  0  0
 55 57  1  0  0  0
 55129  1  0  0  0
 56 69  2  0  0  0
 57 58  2  0  0  0
 57130  1  0  0  0
 58131  1  0  0  0
 59 60  1  0  0  0
 59 61  1  0  0  0
 59 62  1  0  0  0
 60132  1  0  0  0
 60133  1  0  0  0
 60134  1  0  0  0
 61135  1  0  0  0
 61136  1  0  0  0
 61137  1  0  0  0
 62138  1  0  0  0
 62139  1  0  0  0
 62140  1  0  0  0
 63 65  1  0  0  0
 63141  1  0  0  0
 63142  1  0  0  0
 63143  1  0  0  0
 64144  1  0  0  0
 65145  1  0  0  0
 68 82  1  0  0  0
 71146  1  0  0  0
 71147  1  0  0  0
 71 73  1  0  0  0
 71 74  1  0  0  0
 72 73  1  0  0  0
 72 75  1  0  0  0
 72148  1  0  0  0
 72149  1  0  0  0
 73 83  1  0  0  0
 73150  1  0  0  0
 74 75  1  0  0  0
 74 84  1  0  0  0
 74151  1  0  0  0
 75 86  1  0  0  0
 75152  1  0  0  0
 76153  1  0  0  0
 76154  1  0  0  0
 76155  1  0  0  0
 76 83  1  0  0  0
 77156  1  0  0  0
 77157  1  0  0  0
 77158  1  0  0  0
 77 84  1  0  0  0
 78 84  1  0  0  0
 78159  1  0  0  0
 78160  1  0  0  0
 78161  1  0  0  0
 79 80  1  0  0  0
 79 83  1  0  0  0
 79162  1  0  0  0
 79163  1  0  0  0
 80 85  1  0  0  0
 80164  1  0  0  0
 80165  1  0  0  0
 81 82  1  0  0  0
 81 86  1  0  0  0
 81166  1  0  0  0
 81167  1  0  0  0
 82168  1  0  0  0
 82169  1  0  0  0
 83170  1  0  0  0
 84171  1  0  0  0
 85172  1  0  0  0
 86173  1  0  0  0
 86174  1  0  0  0
M  CHG  1  86   1
M  ISO  4   1 100  68 101  82 101  85 100
M  END
> <chiral flag>
0

> <version>
0

> <s_m_source_file>
/data/baiqing/PycharmProjects/Reinvent-master-3.2/result/LINK_invent/BTK/process_docking_weight1_custom_sum_contain_oxygen_bond_distance_aromatic_linkinvent_7_9_3/rearranged_h_0145.sdf

> <i_m_source_file_index>
41

> <r_mmod_Potential_Energy-OPLS-2005>
4.63419628143311

> <r_mmod_Stretch_Energy-OPLS-2005>
39.3226051330566

> <r_mmod_Bend_Energy-OPLS-2005>
165.033889770508

> <r_mmod_Torsional_Energy-OPLS-2005>
335.541870117188

> <r_mmod_Improper_Torsional_Energy-OPLS-2005>
23.2490272521973

> <r_mmod_Van_der_Waal_Energy-OPLS-2005>
118.382865905762

> <r_mmod_Electrostatic_Energy-OPLS-2005>
-259.862609863281

> <r_mmod_Solvation_Energy-OPLS-2005>
-435.486663818359

> <b_mmod_Minimization_Converged-OPLS-2005>
0

> <r_mmod_RMS_Derivative-OPLS-2005>
4.95733118057251

$$$$
42
                    3D
 Structure written by MMmdl.
168178  0  0  1  0            999 V2000
  -30.6469  -14.5197   20.5394 C   0  0  0  0  0  0
  -30.4315  -12.3206   19.4400 C   0  0  0  0  0  0
  -29.5030  -12.5066   18.2185 C   0  0  0  0  0  0
  -28.0218  -12.3624   18.6225 C   0  0  0  0  0  0
  -27.6605  -13.2042   19.8754 C   0  0  2  0  0  0
  -28.6996  -12.9885   21.0010 C   0  0  0  0  0  0
  -25.2566  -13.8157   20.5680 C   0  0  0  0  0  0
  -24.1826  -13.0441   20.9173 C   0  0  0  0  0  0
  -24.6379  -11.6896   20.8740 C   0  0  0  0  0  0
  -23.9050  -10.4298   21.0411 C   0  0  0  0  0  0
  -24.3605   -9.4215   21.9190 C   0  0  0  0  0  0
  -23.6287   -8.2245   22.0753 C   0  0  0  0  0  0
  -22.4267   -8.0283   21.3541 C   0  0  0  0  0  0
  -21.9900   -9.0256   20.4646 C   0  0  0  0  0  0
  -22.7220  -10.2140   20.3061 C   0  0  0  0  0  0
  -21.6847   -6.0745   22.5279 C   0  0  0  0  0  0
  -21.4015   -6.5646   23.8219 C   0  0  0  0  0  0
  -21.3662   -5.6794   24.9178 C   0  0  0  0  0  0
  -21.6040   -4.3058   24.7227 C   0  0  0  0  0  0
  -21.8815   -3.8151   23.4347 C   0  0  0  0  0  0
  -21.9192   -4.6973   22.3407 C   0  0  0  0  0  0
  -22.7852  -13.5238   21.1856 C   0  0  0  0  0  0
  -22.1654   -4.2157   21.0985 F   0  0  0  0  0  0
  -21.5628   -3.4539   25.7742 F   0  0  0  0  0  0
  -30.0316  -13.3070   20.4566 N   0  0  0  0  0  0
  -26.3007  -12.9316   20.3362 N   0  0  0  0  0  0
  -25.9302  -11.6479   20.5755 N   0  0  0  0  0  0
  -22.0488  -12.8247   22.0415 N   0  0  0  0  0  0
  -25.4309  -15.1883   20.4073 N   0  0  0  0  0  0
  -31.7818  -14.7149   20.0980 O   0  0  0  0  0  0
  -21.6623   -6.8884   21.4240 O   0  0  0  0  0  0
  -22.3543  -14.5548   20.6701 O   0  0  0  0  0  0
  -24.6164  -31.8621   23.2069 C   0  0  0  0  0  0
  -25.9035  -32.4788   23.8364 C   0  0  1  0  0  0
  -27.2305  -27.3977   20.1091 C   0  0  0  0  0  0
  -25.5887  -33.8590   24.2293 N   0  0  0  0  0  0
  -23.4068  -30.4847   21.5445 C   0  0  2  0  0  0
  -24.8535  -28.9343   20.1243 C   0  0  0  0  0  0
  -22.7415  -29.4636   22.4950 C   0  0  0  0  0  0
  -18.0255  -28.1391   22.8464 C   0  0  0  0  0  0
  -24.1493  -36.7298   23.2648 C   0  0  0  0  0  0
  -25.9363  -30.8186   21.3625 C   0  0  0  0  0  0
  -26.0120  -29.4436   20.7216 C   0  0  0  0  0  0
  -27.2023  -28.6788   20.7146 C   0  0  0  0  0  0
  -26.0553  -26.9053   19.5046 C   0  0  0  0  0  0
  -24.8685  -27.6670   19.5144 C   0  0  0  0  0  0
  -23.6208  -29.8099   20.1618 C   0  0  0  0  0  0
  -25.4116  -36.3079   24.0327 C   0  0  1  0  0  0
  -20.5850  -28.3680   23.1296 C   0  0  2  0  0  0
  -20.6754  -26.9410   22.5408 C   0  0  0  0  0  0
  -19.5758  -26.6391   21.5186 C   0  0  0  0  0  0
  -18.1930  -26.7934   22.1591 C   0  0  0  0  0  0
  -19.1502  -28.8841   23.2890 C   0  0  0  0  0  0
  -18.9442  -30.1432   23.8920 C   0  0  0  0  0  0
  -17.6450  -30.6601   24.0552 C   0  0  0  0  0  0
  -25.9024  -34.9453   23.5105 C   0  0  0  0  0  0
  -16.5339  -29.9110   23.6313 C   0  0  0  0  0  0
  -16.7239  -28.6521   23.0342 C   0  0  0  0  0  0
  -26.4467  -31.6584   25.0691 C   0  0  0  0  0  0
  -25.3744  -31.3696   26.1445 C   0  0  0  0  0  0
  -27.0251  -30.3017   24.6044 C   0  0  0  0  0  0
  -27.6046  -32.4289   25.7465 C   0  0  0  0  0  0
  -27.5569  -37.1812   24.8465 C   0  0  0  0  0  0
  -21.4134  -29.3050   22.3708 N   0  0  0  0  0  0
  -26.4287  -37.3772   23.9404 N   0  0  0  0  0  0
  -24.6725  -31.0706   22.0973 N   0  0  0  0  0  0
  -23.4157  -28.8148   23.2997 O   0  0  0  0  0  0
  -28.4195  -26.6974   20.0407 O   0  0  0  0  0  0
  -26.5600  -34.8904   22.4676 O   0  0  0  0  0  0
  -23.5351  -32.1375   23.7451 O   0  0  0  0  0  0
  -29.0036  -23.4394   21.7486 C   0  0  0  0  0  0
  -29.3479  -23.1594   19.3768 C   0  0  0  0  0  0
  -29.4964  -22.6451   20.6852 C   0  0  0  0  0  0
  -28.5457  -24.7666   21.5389 C   0  0  0  0  0  0
  -28.8670  -24.4773   19.1510 C   0  0  0  0  0  0
  -28.5273  -25.3232   20.2373 C   0  0  0  0  0  0
  -29.1602  -19.2659   21.7146 C   0  0  0  0  0  0
  -31.0949  -19.1163   20.0599 C   0  0  0  0  0  0
  -29.6174  -17.8029   21.9848 C   0  0  0  0  0  0
  -30.7682  -17.6356   19.7244 C   0  0  0  0  0  0
  -31.5211  -21.6178   21.9643 C   0  0  0  0  0  0
  -29.9111  -20.0028   20.5642 C   0  0  2  0  0  0
  -29.7466  -16.9790   20.6893 C   0  0  1  0  0  0
  -30.3845  -21.4300   20.9813 C   0  0  1  0  0  0
  -28.1802  -25.6262   22.7355 C   0  0  0  0  0  0
  -28.7951  -25.0145   17.7344 C   0  0  0  0  0  0
  -29.8288  -15.5161   20.9533 N   0  0  0  0  0  0
  -31.7196  -21.7603   20.5515 O   0  0  0  0  0  0
  -31.4752  -12.4325   19.1405 H   0  0  0  0  0  0
  -30.3425  -11.3107   19.8422 H   0  0  0  0  0  0
  -29.7495  -11.7821   17.4408 H   0  0  0  0  0  0
  -29.6691  -13.4938   17.7829 H   0  0  0  0  0  0
  -27.8325  -11.3068   18.8195 H   0  0  0  0  0  0
  -27.3760  -12.6339   17.7875 H   0  0  0  0  0  0
  -27.6998  -14.2509   19.5738 H   0  0  0  0  0  0
  -28.6798  -11.9516   21.3414 H   0  0  0  0  0  0
  -28.4535  -13.5853   21.8805 H   0  0  0  0  0  0
  -25.2758   -9.5678   22.4755 H   0  0  0  0  0  0
  -23.9994   -7.4632   22.7469 H   0  0  0  0  0  0
  -21.0833   -8.8782   19.8956 H   0  0  0  0  0  0
  -22.3689  -10.9679   19.6165 H   0  0  0  0  0  0
  -21.2001   -7.6149   23.9725 H   0  0  0  0  0  0
  -21.1487   -6.0524   25.9085 H   0  0  0  0  0  0
  -22.0590   -2.7611   23.2847 H   0  0  0  0  0  0
  -22.4088  -11.9897   22.4804 H   0  0  0  0  0  0
  -21.1110  -13.1294   22.2629 H   0  0  0  0  0  0
  -24.6613  -15.8423   20.5053 H   0  0  0  0  0  0
  -26.2824  -15.6267   20.0791 H   0  0  0  0  0  0
  -26.7097  -32.5481   23.1116 H   0  0  0  0  0  0
  -25.0052  -33.9756   25.0450 H   0  0  0  0  0  0
  -22.6975  -31.3017   21.3951 H   0  0  0  0  0  0
  -23.3725  -35.9657   23.3329 H   0  0  0  0  0  0
  -24.3579  -36.8903   22.2054 H   0  0  0  0  0  0
  -23.7276  -37.6519   23.6661 H   0  0  0  0  0  0
  -26.0379  -31.5759   20.5852 H   0  0  0  0  0  0
  -26.8313  -30.8851   21.9711 H   0  0  0  0  0  0
  -28.1037  -29.0695   21.1661 H   0  0  0  0  0  0
  -26.0616  -25.9374   19.0233 H   0  0  0  0  0  0
  -23.9752  -27.2770   19.0454 H   0  0  0  0  0  0
  -23.7406  -30.5795   19.3996 H   0  0  0  0  0  0
  -22.7466  -29.2338   19.8564 H   0  0  0  0  0  0
  -25.1306  -36.1933   25.0818 H   0  0  0  0  0  0
  -20.9915  -28.3242   24.1423 H   0  0  0  0  0  0
  -20.5633  -26.2273   23.3590 H   0  0  0  0  0  0
  -21.6638  -26.7450   22.1226 H   0  0  0  0  0  0
  -19.6943  -25.6297   21.1237 H   0  0  0  0  0  0
  -19.6739  -27.3172   20.6700 H   0  0  0  0  0  0
  -17.4195  -26.6610   21.4015 H   0  0  0  0  0  0
  -18.0383  -26.0096   22.9012 H   0  0  0  0  0  0
  -19.7917  -30.7232   24.2337 H   0  0  0  0  0  0
  -17.5014  -31.6288   24.5141 H   0  0  0  0  0  0
  -15.5343  -30.3038   23.7652 H   0  0  0  0  0  0
  -15.8621  -28.0861   22.7072 H   0  0  0  0  0  0
  -24.5938  -30.7012   25.7787 H   0  0  0  0  0  0
  -24.8905  -32.2844   26.4880 H   0  0  0  0  0  0
  -25.8106  -30.8892   27.0217 H   0  0  0  0  0  0
  -26.2714  -29.6815   24.1173 H   0  0  0  0  0  0
  -27.4084  -29.7219   25.4455 H   0  0  0  0  0  0
  -27.8551  -30.4304   23.9095 H   0  0  0  0  0  0
  -27.2665  -33.3588   26.2062 H   0  0  0  0  0  0
  -28.3885  -32.6863   25.0321 H   0  0  0  0  0  0
  -28.0678  -31.8381   26.5386 H   0  0  0  0  0  0
  -28.2603  -38.0097   24.7483 H   0  0  0  0  0  0
  -28.1052  -36.2618   24.6340 H   0  0  0  0  0  0
  -27.2269  -37.1517   25.8866 H   0  0  0  0  0  0
  -20.9291  -29.8783   21.6953 H   0  0  0  0  0  0
  -26.0147  -38.2832   24.1428 H   0  0  0  0  0  0
  -29.0944  -23.0721   22.7611 H   0  0  0  0  0  0
  -29.7086  -22.5769   18.5407 H   0  0  0  0  0  0
  -29.2571  -19.8268   22.6446 H   0  0  0  0  0  0
  -28.0918  -19.2685   21.4907 H   0  0  0  0  0  0
  -31.5697  -19.5783   19.1940 H   0  0  0  0  0  0
  -31.8650  -19.0982   20.8306 H   0  0  0  0  0  0
  -28.9014  -17.3278   22.6566 H   0  0  0  0  0  0
  -30.5708  -17.8022   22.5155 H   0  0  0  0  0  0
  -31.7218  -17.1109   19.7284 H   0  0  0  0  0  0
  -30.3951  -17.5575   18.7026 H   0  0  0  0  0  0
  -31.9973  -20.7465   22.4065 H   0  0  0  0  0  0
  -31.5837  -22.5450   22.5300 H   0  0  0  0  0  0
  -29.2274  -20.1170   19.7214 H   0  0  0  0  0  0
  -28.7794  -17.0805   20.1937 H   0  0  0  0  0  0
  -28.3101  -25.0917   23.6776 H   0  0  0  0  0  0
  -27.1382  -25.9435   22.6701 H   0  0  0  0  0  0
  -28.8100  -26.5160   22.7698 H   0  0  0  0  0  0
  -29.2864  -24.3430   17.0311 H   0  0  0  0  0  0
  -29.2759  -25.9904   17.6678 H   0  0  0  0  0  0
  -27.7550  -25.1299   17.4259 H   0  0  0  0  0  0
  -28.9763  -15.1435   21.3443 H   0  0  0  0  0  0
  1 25  1  0  0  0
  1 30  2  0  0  0
  1 87  1  0  0  0
  2  3  1  0  0  0
  2 25  1  0  0  0
  2 89  1  0  0  0
  2 90  1  0  0  0
  3  4  1  0  0  0
  3 91  1  0  0  0
  3 92  1  0  0  0
  4  5  1  0  0  0
  4 93  1  0  0  0
  4 94  1  0  0  0
  5  6  1  0  0  0
  5 26  1  0  0  0
  5 95  1  0  0  0
  6 25  1  0  0  0
  6 96  1  0  0  0
  6 97  1  0  0  0
  7  8  2  0  0  0
  7 26  1  0  0  0
  7 29  1  0  0  0
  8  9  1  0  0  0
  8 22  1  0  0  0
  9 10  1  0  0  0
  9 27  2  0  0  0
 10 11  2  0  0  0
 10 15  1  0  0  0
 11 12  1  0  0  0
 11 98  1  0  0  0
 12 13  2  0  0  0
 12 99  1  0  0  0
 13 14  1  0  0  0
 13 31  1  0  0  0
 14 15  2  0  0  0
 14100  1  0  0  0
 15101  1  0  0  0
 16 17  2  0  0  0
 16 21  1  0  0  0
 16 31  1  0  0  0
 17 18  1  0  0  0
 17102  1  0  0  0
 18 19  2  0  0  0
 18103  1  0  0  0
 19 20  1  0  0  0
 19 24  1  0  0  0
 20 21  2  0  0  0
 20104  1  0  0  0
 21 23  1  0  0  0
 22 28  1  0  0  0
 22 32  2  0  0  0
 26 27  1  0  0  0
 28105  1  0  0  0
 28106  1  0  0  0
 29107  1  0  0  0
 29108  1  0  0  0
 33 34  1  0  0  0
 33 66  1  0  0  0
 33 70  2  0  0  0
 34 36  1  0  0  0
 34 59  1  0  0  0
 34109  1  0  0  0
 35 44  2  0  0  0
 35 45  1  0  0  0
 35 68  1  0  0  0
 36 56  1  0  0  0
 36110  1  0  0  0
 37 39  1  0  0  0
 37 47  1  0  0  0
 37 66  1  0  0  0
 37111  1  0  0  0
 38 43  2  0  0  0
 38 46  1  0  0  0
 38 47  1  0  0  0
 39 64  1  0  0  0
 39 67  2  0  0  0
 40 52  1  0  0  0
 40 53  2  0  0  0
 40 58  1  0  0  0
 41112  1  0  0  0
 41113  1  0  0  0
 41114  1  0  0  0
 41 48  1  0  0  0
 42 43  1  0  0  0
 42 66  1  0  0  0
 42115  1  0  0  0
 42116  1  0  0  0
 43 44  1  0  0  0
 44117  1  0  0  0
 45 46  2  0  0  0
 45118  1  0  0  0
 46119  1  0  0  0
 47120  1  0  0  0
 47121  1  0  0  0
 48 56  1  0  0  0
 48 65  1  0  0  0
 48122  1  0  0  0
 49 50  1  0  0  0
 49 53  1  0  0  0
 49 64  1  0  0  0
 49123  1  0  0  0
 50 51  1  0  0  0
 50124  1  0  0  0
 50125  1  0  0  0
 51 52  1  0  0  0
 51126  1  0  0  0
 51127  1  0  0  0
 52128  1  0  0  0
 52129  1  0  0  0
 53 54  1  0  0  0
 54 55  2  0  0  0
 54130  1  0  0  0
 55 57  1  0  0  0
 55131  1  0  0  0
 56 69  2  0  0  0
 57 58  2  0  0  0
 57132  1  0  0  0
 58133  1  0  0  0
 59 60  1  0  0  0
 59 61  1  0  0  0
 59 62  1  0  0  0
 60134  1  0  0  0
 60135  1  0  0  0
 60136  1  0  0  0
 61137  1  0  0  0
 61138  1  0  0  0
 61139  1  0  0  0
 62140  1  0  0  0
 62141  1  0  0  0
 62142  1  0  0  0
 63 65  1  0  0  0
 63143  1  0  0  0
 63144  1  0  0  0
 63145  1  0  0  0
 64146  1  0  0  0
 65147  1  0  0  0
 68 76  1  0  0  0
 71 73  2  0  0  0
 71 74  1  0  0  0
 71148  1  0  0  0
 72 73  1  0  0  0
 72 75  2  0  0  0
 72149  1  0  0  0
 73 84  1  0  0  0
 74 76  2  0  0  0
 74 85  1  0  0  0
 75 76  1  0  0  0
 75 86  1  0  0  0
 77 79  1  0  0  0
 77150  1  0  0  0
 77151  1  0  0  0
 77 82  1  0  0  0
 78 80  1  0  0  0
 78 82  1  0  0  0
 78152  1  0  0  0
 78153  1  0  0  0
 79 83  1  0  0  0
 79154  1  0  0  0
 79155  1  0  0  0
 80 83  1  0  0  0
 80156  1  0  0  0
 80157  1  0  0  0
 81 84  1  0  0  0
 81 88  1  0  0  0
 81158  1  0  0  0
 81159  1  0  0  0
 82 84  1  0  0  0
 82160  1  0  0  0
 83 87  1  0  0  0
 83161  1  0  0  0
 84 88  1  0  0  0
 85162  1  0  0  0
 85163  1  0  0  0
 85164  1  0  0  0
 86165  1  0  0  0
 86166  1  0  0  0
 86167  1  0  0  0
 87168  1  0  0  0
M  ISO  4   1 100  68 101  76 101  87 100
M  END
> <chiral flag>
0

> <version>
0

> <s_m_source_file>
/data/baiqing/PycharmProjects/Reinvent-master-3.2/result/LINK_invent/BTK/process_docking_weight1_custom_sum_contain_oxygen_bond_distance_aromatic_linkinvent_7_9_3/rearranged_h_0145.sdf

> <i_m_source_file_index>
42

> <r_mmod_Potential_Energy-OPLS-2005>
103.013893127441

> <r_mmod_Stretch_Energy-OPLS-2005>
48.6801567077637

> <r_mmod_Bend_Energy-OPLS-2005>
132.988067626953

> <r_mmod_Torsional_Energy-OPLS-2005>
325.477111816406

> <r_mmod_Improper_Torsional_Energy-OPLS-2005>
9.10696125030518

> <r_mmod_Van_der_Waal_Energy-OPLS-2005>
146.907318115234

> <r_mmod_Electrostatic_Energy-OPLS-2005>
-368.738342285156

> <r_mmod_Solvation_Energy-OPLS-2005>
-208.773986816406

> <b_mmod_Minimization_Converged-OPLS-2005>
0

> <r_mmod_RMS_Derivative-OPLS-2005>
2.98122239112854

$$$$
43
                    3D
 Structure written by MMmdl.
155163  0  0  1  0            999 V2000
  -30.6385  -14.6908   20.4744 C   0  0  0  0  0  0
  -30.4289  -12.4189   19.4774 C   0  0  0  0  0  0
  -29.5098  -12.5041   18.2389 C   0  0  0  0  0  0
  -28.0344  -12.3375   18.6489 C   0  0  0  0  0  0
  -27.6475  -13.2287   19.8595 C   0  0  2  0  0  0
  -28.6906  -13.1408   20.9970 C   0  0  0  0  0  0
  -25.2527  -13.8196   20.5698 C   0  0  0  0  0  0
  -24.1811  -13.0443   20.9203 C   0  0  0  0  0  0
  -24.6397  -11.6920   20.8748 C   0  0  0  0  0  0
  -23.9072  -10.4295   21.0407 C   0  0  0  0  0  0
  -24.3622   -9.4209   21.9185 C   0  0  0  0  0  0
  -23.6296   -8.2245   22.0754 C   0  0  0  0  0  0
  -22.4278   -8.0283   21.3544 C   0  0  0  0  0  0
  -21.9915   -9.0257   20.4646 C   0  0  0  0  0  0
  -22.7244  -10.2136   20.3056 C   0  0  0  0  0  0
  -21.6854   -6.0738   22.5279 C   0  0  0  0  0  0
  -21.4015   -6.5641   23.8213 C   0  0  0  0  0  0
  -21.3660   -5.6794   24.9175 C   0  0  0  0  0  0
  -21.6044   -4.3056   24.7225 C   0  0  0  0  0  0
  -21.8819   -3.8148   23.4346 C   0  0  0  0  0  0
  -21.9193   -4.6965   22.3402 C   0  0  0  0  0  0
  -22.7832  -13.5226   21.1863 C   0  0  0  0  0  0
  -22.1662   -4.2151   21.0980 F   0  0  0  0  0  0
  -21.5629   -3.4540   25.7738 F   0  0  0  0  0  0
  -30.0017  -13.4735   20.4251 N   0  0  0  0  0  0
  -26.2963  -12.9400   20.3318 N   0  0  0  0  0  0
  -25.9330  -11.6544   20.5769 N   0  0  0  0  0  0
  -22.0478  -12.8213   22.0417 N   0  0  0  0  0  0
  -25.4221  -15.1919   20.4108 N   0  0  0  0  0  0
  -31.8091  -14.7956   20.1000 O   0  0  0  0  0  0
  -21.6641   -6.8881   21.4241 O   0  0  0  0  0  0
  -22.3516  -14.5533   20.6714 O   0  0  0  0  0  0
  -24.6292  -31.8586   23.2043 C   0  0  0  0  0  0
  -25.9132  -32.4772   23.8369 C   0  0  1  0  0  0
  -27.2032  -27.2665   20.1359 C   0  0  0  0  0  0
  -25.5937  -33.8575   24.2282 N   0  0  0  0  0  0
  -23.4250  -30.4846   21.5472 C   0  0  2  0  0  0
  -24.8720  -28.9414   20.1113 C   0  0  0  0  0  0
  -22.7493  -29.4617   22.4923 C   0  0  0  0  0  0
  -18.0291  -28.1385   22.8487 C   0  0  0  0  0  0
  -24.1491  -36.7291   23.2638 C   0  0  0  0  0  0
  -25.9723  -30.7685   21.3922 C   0  0  0  0  0  0
  -26.0409  -29.3914   20.7393 C   0  0  0  0  0  0
  -27.2089  -28.5621   20.7527 C   0  0  0  0  0  0
  -26.0397  -26.9293   19.4150 C   0  0  0  0  0  0
  -24.8756  -27.7148   19.4374 C   0  0  0  0  0  0
  -23.6435  -29.8267   20.1610 C   0  0  0  0  0  0
  -25.4116  -36.3080   24.0327 C   0  0  1  0  0  0
  -20.5894  -28.3696   23.1269 C   0  0  2  0  0  0
  -20.6779  -26.9415   22.5405 C   0  0  0  0  0  0
  -19.5752  -26.6384   21.5211 C   0  0  0  0  0  0
  -18.1934  -26.7928   22.1625 C   0  0  0  0  0  0
  -19.1544  -28.8858   23.2874 C   0  0  0  0  0  0
  -18.9466  -30.1457   23.8893 C   0  0  0  0  0  0
  -17.6465  -30.6587   24.0562 C   0  0  0  0  0  0
  -25.9056  -34.9448   23.5104 C   0  0  0  0  0  0
  -16.5356  -29.9084   23.6332 C   0  0  0  0  0  0
  -16.7278  -28.6500   23.0355 C   0  0  0  0  0  0
  -26.4502  -31.6591   25.0751 C   0  0  0  0  0  0
  -25.3719  -31.3738   26.1467 C   0  0  0  0  0  0
  -27.0354  -30.3004   24.6249 C   0  0  0  0  0  0
  -27.6056  -32.4335   25.7518 C   0  0  0  0  0  0
  -27.5580  -37.1803   24.8465 C   0  0  0  0  0  0
  -21.4203  -29.3046   22.3661 N   0  0  0  0  0  0
  -26.4294  -37.3775   23.9406 N   0  0  0  0  0  0
  -24.6939  -31.0555   22.1031 N   0  0  0  0  0  0
  -23.4201  -28.8146   23.3008 O   0  0  0  0  0  0
  -28.2845  -26.3558   20.1447 O   0  0  0  0  0  0
  -26.5624  -34.8914   22.4671 O   0  0  0  0  0  0
  -23.5444  -32.1416   23.7336 O   0  0  0  0  0  0
  -27.0778  -24.0149   20.1715 C   0  0  0  0  0  0
  -27.6311  -22.7050   19.5994 C   0  0  0  0  0  0
  -29.3875  -23.9682   20.7724 C   0  0  0  0  0  0
  -28.1501  -24.9672   20.7455 C   0  0  1  0  0  0
  -29.0752  -22.5456   20.1047 C   0  0  1  0  0  0
  -29.5521  -18.5336   20.9377 C   0  0  0  0  0  0
  -30.1790  -17.2350   20.2154 C   0  0  0  0  0  0
  -29.6131  -19.9514   20.1577 C   0  0  0  0  0  0
  -29.8841  -15.8234   20.7106 N   0  0  0  0  0  0
  -29.3092  -21.2538   20.9113 N   0  3  0  0  0  0
  -25.8636  -24.1778   20.3187 O   0  0  0  0  0  0
  -31.4731  -12.5252   19.1786 H   0  0  0  0  0  0
  -30.3537  -11.4365   19.9462 H   0  0  0  0  0  0
  -29.7839  -11.7393   17.5108 H   0  0  0  0  0  0
  -29.6478  -13.4653   17.7410 H   0  0  0  0  0  0
  -27.8810  -11.2874   18.9002 H   0  0  0  0  0  0
  -27.3797  -12.5448   17.8016 H   0  0  0  0  0  0
  -27.6506  -14.2548   19.4912 H   0  0  0  0  0  0
  -28.7093  -12.1395   21.4298 H   0  0  0  0  0  0
  -28.4334  -13.8194   21.8118 H   0  0  0  0  0  0
  -25.2766   -9.5686   22.4761 H   0  0  0  0  0  0
  -24.0006   -7.4636   22.7472 H   0  0  0  0  0  0
  -21.0847   -8.8777   19.8951 H   0  0  0  0  0  0
  -22.3703  -10.9676   19.6166 H   0  0  0  0  0  0
  -21.2007   -7.6149   23.9717 H   0  0  0  0  0  0
  -21.1481   -6.0524   25.9078 H   0  0  0  0  0  0
  -22.0598   -2.7610   23.2846 H   0  0  0  0  0  0
  -22.4096  -11.9871   22.4798 H   0  0  0  0  0  0
  -21.1095  -13.1233   22.2628 H   0  0  0  0  0  0
  -24.6526  -15.8442   20.5163 H   0  0  0  0  0  0
  -26.2678  -15.6308   20.0698 H   0  0  0  0  0  0
  -26.7195  -32.5428   23.1108 H   0  0  0  0  0  0
  -25.0077  -33.9721   25.0421 H   0  0  0  0  0  0
  -22.7208  -31.3070   21.4057 H   0  0  0  0  0  0
  -23.3752  -35.9624   23.3303 H   0  0  0  0  0  0
  -24.3580  -36.8911   22.2052 H   0  0  0  0  0  0
  -23.7246  -37.6494   23.6660 H   0  0  0  0  0  0
  -26.1159  -31.5267   20.6211 H   0  0  0  0  0  0
  -26.8488  -30.8152   22.0265 H   0  0  0  0  0  0
  -28.0998  -28.8970   21.2655 H   0  0  0  0  0  0
  -26.0104  -26.0379   18.8101 H   0  0  0  0  0  0
  -23.9963  -27.3815   18.9035 H   0  0  0  0  0  0
  -23.7679  -30.6065   19.4088 H   0  0  0  0  0  0
  -22.7622  -29.2608   19.8534 H   0  0  0  0  0  0
  -25.1296  -36.1933   25.0820 H   0  0  0  0  0  0
  -20.9987  -28.3274   24.1390 H   0  0  0  0  0  0
  -20.5682  -26.2306   23.3609 H   0  0  0  0  0  0
  -21.6646  -26.7443   22.1196 H   0  0  0  0  0  0
  -19.6913  -25.6294   21.1243 H   0  0  0  0  0  0
  -19.6686  -27.3191   20.6738 H   0  0  0  0  0  0
  -17.4201  -26.6675   21.4030 H   0  0  0  0  0  0
  -18.0336  -26.0068   22.9021 H   0  0  0  0  0  0
  -19.7941  -30.7274   24.2261 H   0  0  0  0  0  0
  -17.5020  -31.6267   24.5162 H   0  0  0  0  0  0
  -15.5356  -30.2984   23.7659 H   0  0  0  0  0  0
  -15.8678  -28.0817   22.7076 H   0  0  0  0  0  0
  -24.5904  -30.7077   25.7792 H   0  0  0  0  0  0
  -24.8897  -32.2905   26.4872 H   0  0  0  0  0  0
  -25.8031  -30.8931   27.0257 H   0  0  0  0  0  0
  -26.2945  -29.6748   24.1256 H   0  0  0  0  0  0
  -27.4006  -29.7272   25.4781 H   0  0  0  0  0  0
  -27.8840  -30.4270   23.9523 H   0  0  0  0  0  0
  -27.2666  -33.3642   26.2079 H   0  0  0  0  0  0
  -28.3871  -32.6885   25.0348 H   0  0  0  0  0  0
  -28.0720  -31.8473   26.5447 H   0  0  0  0  0  0
  -28.2597  -38.0100   24.7512 H   0  0  0  0  0  0
  -28.1078  -36.2631   24.6293 H   0  0  0  0  0  0
  -27.2296  -37.1453   25.8867 H   0  0  0  0  0  0
  -20.9385  -29.8781   21.6878 H   0  0  0  0  0  0
  -26.0175  -38.2852   24.1403 H   0  0  0  0  0  0
  -27.6089  -22.7624   18.5112 H   0  0  0  0  0  0
  -26.9969  -21.8710   19.8984 H   0  0  0  0  0  0
  -29.7217  -23.8385   21.8017 H   0  0  0  0  0  0
  -30.2236  -24.4314   20.2483 H   0  0  0  0  0  0
  -27.8578  -25.1386   21.7820 H   0  0  0  0  0  0
  -29.7245  -22.4692   19.2309 H   0  0  0  0  0  0
  -30.0505  -18.6463   21.9010 H   0  0  0  0  0  0
  -28.5075  -18.3286   21.1733 H   0  0  0  0  0  0
  -31.2616  -17.3672   20.1758 H   0  0  0  0  0  0
  -29.8562  -17.2517   19.1735 H   0  0  0  0  0  0
  -28.9310  -19.8913   19.3088 H   0  0  0  0  0  0
  -30.6067  -20.0625   19.7221 H   0  0  0  0  0  0
  -28.9410  -15.6493   21.0256 H   0  0  0  0  0  0
  -28.5185  -21.0999   21.5160 H   0  0  0  0  0  0
  -30.1014  -21.4115   21.5144 H   0  0  0  0  0  0
  1 25  1  0  0  0
  1 30  2  0  0  0
  1 79  1  0  0  0
  2  3  1  0  0  0
  2 25  1  0  0  0
  2 82  1  0  0  0
  2 83  1  0  0  0
  3  4  1  0  0  0
  3 84  1  0  0  0
  3 85  1  0  0  0
  4  5  1  0  0  0
  4 86  1  0  0  0
  4 87  1  0  0  0
  5  6  1  0  0  0
  5 26  1  0  0  0
  5 88  1  0  0  0
  6 25  1  0  0  0
  6 89  1  0  0  0
  6 90  1  0  0  0
  7  8  2  0  0  0
  7 26  1  0  0  0
  7 29  1  0  0  0
  8  9  1  0  0  0
  8 22  1  0  0  0
  9 10  1  0  0  0
  9 27  2  0  0  0
 10 11  2  0  0  0
 10 15  1  0  0  0
 11 12  1  0  0  0
 11 91  1  0  0  0
 12 13  2  0  0  0
 12 92  1  0  0  0
 13 14  1  0  0  0
 13 31  1  0  0  0
 14 15  2  0  0  0
 14 93  1  0  0  0
 15 94  1  0  0  0
 16 17  2  0  0  0
 16 21  1  0  0  0
 16 31  1  0  0  0
 17 18  1  0  0  0
 17 95  1  0  0  0
 18 19  2  0  0  0
 18 96  1  0  0  0
 19 20  1  0  0  0
 19 24  1  0  0  0
 20 21  2  0  0  0
 20 97  1  0  0  0
 21 23  1  0  0  0
 22 28  1  0  0  0
 22 32  2  0  0  0
 26 27  1  0  0  0
 28 98  1  0  0  0
 28 99  1  0  0  0
 29100  1  0  0  0
 29101  1  0  0  0
 33 34  1  0  0  0
 33 66  1  0  0  0
 33 70  2  0  0  0
 34 36  1  0  0  0
 34 59  1  0  0  0
 34102  1  0  0  0
 35 44  2  0  0  0
 35 45  1  0  0  0
 35 68  1  0  0  0
 36 56  1  0  0  0
 36103  1  0  0  0
 37 39  1  0  0  0
 37 47  1  0  0  0
 37 66  1  0  0  0
 37104  1  0  0  0
 38 43  2  0  0  0
 38 46  1  0  0  0
 38 47  1  0  0  0
 39 64  1  0  0  0
 39 67  2  0  0  0
 40 52  1  0  0  0
 40 53  2  0  0  0
 40 58  1  0  0  0
 41105  1  0  0  0
 41106  1  0  0  0
 41107  1  0  0  0
 41 48  1  0  0  0
 42 43  1  0  0  0
 42 66  1  0  0  0
 42108  1  0  0  0
 42109  1  0  0  0
 43 44  1  0  0  0
 44110  1  0  0  0
 45 46  2  0  0  0
 45111  1  0  0  0
 46112  1  0  0  0
 47113  1  0  0  0
 47114  1  0  0  0
 48 56  1  0  0  0
 48 65  1  0  0  0
 48115  1  0  0  0
 49 50  1  0  0  0
 49 53  1  0  0  0
 49 64  1  0  0  0
 49116  1  0  0  0
 50 51  1  0  0  0
 50117  1  0  0  0
 50118  1  0  0  0
 51 52  1  0  0  0
 51119  1  0  0  0
 51120  1  0  0  0
 52121  1  0  0  0
 52122  1  0  0  0
 53 54  1  0  0  0
 54 55  2  0  0  0
 54123  1  0  0  0
 55 57  1  0  0  0
 55124  1  0  0  0
 56 69  2  0  0  0
 57 58  2  0  0  0
 57125  1  0  0  0
 58126  1  0  0  0
 59 60  1  0  0  0
 59 61  1  0  0  0
 59 62  1  0  0  0
 60127  1  0  0  0
 60128  1  0  0  0
 60129  1  0  0  0
 61130  1  0  0  0
 61131  1  0  0  0
 61132  1  0  0  0
 62133  1  0  0  0
 62134  1  0  0  0
 62135  1  0  0  0
 63 65  1  0  0  0
 63136  1  0  0  0
 63137  1  0  0  0
 63138  1  0  0  0
 64139  1  0  0  0
 65140  1  0  0  0
 68 74  1  0  0  0
 71 72  1  0  0  0
 71 74  1  0  0  0
 71 81  2  0  0  0
 72 75  1  0  0  0
 72141  1  0  0  0
 72142  1  0  0  0
 73 74  1  0  0  0
 73 75  1  0  0  0
 73143  1  0  0  0
 73144  1  0  0  0
 74145  1  0  0  0
 75 80  1  0  0  0
 75146  1  0  0  0
 76 77  1  0  0  0
 76 78  1  0  0  0
 76147  1  0  0  0
 76148  1  0  0  0
 77 79  1  0  0  0
 77149  1  0  0  0
 77150  1  0  0  0
 78 80  1  0  0  0
 78151  1  0  0  0
 78152  1  0  0  0
 79153  1  0  0  0
 80154  1  0  0  0
 80155  1  0  0  0
M  CHG  1  80   1
M  ISO  4   1 100  68 101  74 101  79 100
M  END
> <chiral flag>
0

> <version>
0

> <s_m_source_file>
/data/baiqing/PycharmProjects/Reinvent-master-3.2/result/LINK_invent/BTK/process_docking_weight1_custom_sum_contain_oxygen_bond_distance_aromatic_linkinvent_7_9_3/rearranged_h_0145.sdf

> <i_m_source_file_index>
43

> <r_mmod_Potential_Energy-OPLS-2005>
21.3411521911621

> <r_mmod_Stretch_Energy-OPLS-2005>
111.453804016113

> <r_mmod_Bend_Energy-OPLS-2005>
184.617034912109

> <r_mmod_Torsional_Energy-OPLS-2005>
271.029205322266

> <r_mmod_Improper_Torsional_Energy-OPLS-2005>
9.04101467132568

> <r_mmod_Van_der_Waal_Energy-OPLS-2005>
123.589950561523

> <r_mmod_Electrostatic_Energy-OPLS-2005>
-229.1630859375

> <r_mmod_Solvation_Energy-OPLS-2005>
-522.566345214844

> <b_mmod_Minimization_Converged-OPLS-2005>
0

> <r_mmod_RMS_Derivative-OPLS-2005>
0.209056630730629

$$$$
44
                    3D
 Structure written by MMmdl.
170179  0  0  1  0            999 V2000
  -30.6743  -14.6042   20.5511 C   0  0  0  0  0  0
  -30.4232  -12.3790   19.4542 C   0  0  0  0  0  0
  -29.5017  -12.5145   18.2239 C   0  0  0  0  0  0
  -28.0223  -12.3606   18.6251 C   0  0  0  0  0  0
  -27.6508  -13.2201   19.8608 C   0  0  2  0  0  0
  -28.6902  -13.0648   20.9899 C   0  0  0  0  0  0
  -25.2512  -13.8151   20.5626 C   0  0  0  0  0  0
  -24.1807  -13.0432   20.9185 C   0  0  0  0  0  0
  -24.6380  -11.6906   20.8729 C   0  0  0  0  0  0
  -23.9055  -10.4295   21.0397 C   0  0  0  0  0  0
  -24.3615   -9.4197   21.9159 C   0  0  0  0  0  0
  -23.6290   -8.2229   22.0738 C   0  0  0  0  0  0
  -22.4267   -8.0275   21.3529 C   0  0  0  0  0  0
  -21.9908   -9.0251   20.4627 C   0  0  0  0  0  0
  -22.7239  -10.2122   20.3027 C   0  0  0  0  0  0
  -21.6845   -6.0738   22.5284 C   0  0  0  0  0  0
  -21.4017   -6.5653   23.8218 C   0  0  0  0  0  0
  -21.3647   -5.6801   24.9175 C   0  0  0  0  0  0
  -21.6028   -4.3066   24.7232 C   0  0  0  0  0  0
  -21.8817   -3.8160   23.4356 C   0  0  0  0  0  0
  -21.9191   -4.6970   22.3407 C   0  0  0  0  0  0
  -22.7830  -13.5230   21.1870 C   0  0  0  0  0  0
  -22.1676   -4.2147   21.0992 F   0  0  0  0  0  0
  -21.5606   -3.4556   25.7747 F   0  0  0  0  0  0
  -30.0170  -13.4032   20.4411 N   0  0  0  0  0  0
  -26.2972  -12.9347   20.3299 N   0  0  0  0  0  0
  -25.9312  -11.6510   20.5768 N   0  0  0  0  0  0
  -22.0491  -12.8192   22.0415 N   0  0  0  0  0  0
  -25.4189  -15.1858   20.3884 N   0  0  0  0  0  0
  -31.7712  -14.7854   20.0128 O   0  0  0  0  0  0
  -21.6629   -6.8872   21.4237 O   0  0  0  0  0  0
  -22.3514  -14.5554   20.6735 O   0  0  0  0  0  0
  -24.6248  -31.8597   23.2020 C   0  0  0  0  0  0
  -25.9081  -32.4777   23.8363 C   0  0  1  0  0  0
  -27.2317  -27.3393   20.1192 C   0  0  0  0  0  0
  -25.5903  -33.8577   24.2285 N   0  0  0  0  0  0
  -23.4211  -30.4790   21.5437 C   0  0  2  0  0  0
  -24.8683  -28.9292   20.1149 C   0  0  0  0  0  0
  -22.7500  -29.4623   22.4967 C   0  0  0  0  0  0
  -18.0307  -28.1401   22.8513 C   0  0  0  0  0  0
  -24.1488  -36.7301   23.2639 C   0  0  0  0  0  0
  -25.9591  -30.7954   21.3698 C   0  0  0  0  0  0
  -26.0349  -29.4212   20.7161 C   0  0  0  0  0  0
  -27.2238  -28.6377   20.7066 C   0  0  0  0  0  0
  -26.0472  -26.8830   19.5095 C   0  0  0  0  0  0
  -24.8736  -27.6627   19.5049 C   0  0  0  0  0  0
  -23.6355  -29.8061   20.1605 C   0  0  0  0  0  0
  -25.4114  -36.3083   24.0324 C   0  0  1  0  0  0
  -20.5905  -28.3690   23.1292 C   0  0  2  0  0  0
  -20.6804  -26.9427   22.5387 C   0  0  0  0  0  0
  -19.5756  -26.6400   21.5191 C   0  0  0  0  0  0
  -18.1952  -26.7938   22.1652 C   0  0  0  0  0  0
  -19.1555  -28.8859   23.2901 C   0  0  0  0  0  0
  -18.9510  -30.1459   23.8923 C   0  0  0  0  0  0
  -17.6506  -30.6582   24.0620 C   0  0  0  0  0  0
  -25.9035  -34.9449   23.5108 C   0  0  0  0  0  0
  -16.5381  -29.9095   23.6401 C   0  0  0  0  0  0
  -16.7291  -28.6528   23.0383 C   0  0  0  0  0  0
  -26.4475  -31.6583   25.0730 C   0  0  0  0  0  0
  -25.3723  -31.3702   26.1467 C   0  0  0  0  0  0
  -27.0314  -30.3013   24.6156 C   0  0  0  0  0  0
  -27.6031  -32.4324   25.7493 C   0  0  0  0  0  0
  -27.5586  -37.1806   24.8467 C   0  0  0  0  0  0
  -21.4215  -29.3078   22.3720 N   0  0  0  0  0  0
  -26.4304  -37.3762   23.9393 N   0  0  0  0  0  0
  -24.6872  -31.0613   22.0959 N   0  0  0  0  0  0
  -23.4226  -28.8151   23.3036 O   0  0  0  0  0  0
  -28.3519  -26.5077   20.1064 O   0  0  0  0  0  0
  -26.5617  -34.8913   22.4681 O   0  0  0  0  0  0
  -23.5402  -32.1386   23.7345 O   0  0  0  0  0  0
  -27.7388  -22.7481   21.2191 C   0  0  0  0  0  0
  -29.7363  -23.2676   19.8527 C   0  0  0  0  0  0
  -27.7607  -21.2712   20.7106 C   0  0  0  0  0  0
  -29.7697  -21.7665   19.3583 C   0  0  0  0  0  0
  -28.2658  -17.0257   21.8223 C   0  0  0  0  0  0
  -30.0891  -15.7035   22.6701 C   0  0  0  0  0  0
  -28.3239  -23.8126   20.2420 C   0  0  2  0  0  0
  -29.1715  -20.7161   20.3571 C   0  0  2  0  0  0
  -29.1011  -16.8004   23.0845 C   0  0  2  0  0  0
  -29.2539  -16.8030   20.6661 C   0  0  1  0  0  0
  -29.1636  -18.9786   24.0794 C   0  0  0  0  0  0
  -28.2637  -25.2717   20.8964 C   0  0  0  0  0  0
  -29.9984  -18.1801   20.3261 C   0  0  0  0  0  0
  -30.0463  -15.6347   21.2038 N   0  0  0  0  0  0
  -29.0834  -19.2893   19.8268 N   0  3  0  0  0  0
  -29.8716  -17.9525   23.3996 O   0  0  0  0  0  0
  -31.4683  -12.4792   19.1571 H   0  0  0  0  0  0
  -30.3340  -11.3802   19.8844 H   0  0  0  0  0  0
  -29.7624  -11.7702   17.4701 H   0  0  0  0  0  0
  -29.6556  -13.4885   17.7572 H   0  0  0  0  0  0
  -27.8458  -11.3061   18.8425 H   0  0  0  0  0  0
  -27.3728  -12.6122   17.7857 H   0  0  0  0  0  0
  -27.6739  -14.2600   19.5367 H   0  0  0  0  0  0
  -28.6843  -12.0431   21.3695 H   0  0  0  0  0  0
  -28.4027  -13.6903   21.8322 H   0  0  0  0  0  0
  -25.2750   -9.5722   22.4730 H   0  0  0  0  0  0
  -24.0000   -7.4630   22.7471 H   0  0  0  0  0  0
  -21.0831   -8.8790   19.8941 H   0  0  0  0  0  0
  -22.3696  -10.9667   19.6144 H   0  0  0  0  0  0
  -21.2022   -7.6166   23.9734 H   0  0  0  0  0  0
  -21.1468   -6.0526   25.9080 H   0  0  0  0  0  0
  -22.0601   -2.7626   23.2861 H   0  0  0  0  0  0
  -22.4151  -11.9828   22.4741 H   0  0  0  0  0  0
  -21.1129  -13.1208   22.2756 H   0  0  0  0  0  0
  -24.6365  -15.8286   20.4361 H   0  0  0  0  0  0
  -26.2517  -15.6021   19.9964 H   0  0  0  0  0  0
  -26.7162  -32.5446   23.1124 H   0  0  0  0  0  0
  -25.0057  -33.9729   25.0435 H   0  0  0  0  0  0
  -22.7144  -31.2980   21.3959 H   0  0  0  0  0  0
  -23.3744  -35.9642   23.3307 H   0  0  0  0  0  0
  -24.3592  -36.8916   22.2056 H   0  0  0  0  0  0
  -23.7250  -37.6506   23.6667 H   0  0  0  0  0  0
  -26.0889  -31.5575   20.6001 H   0  0  0  0  0  0
  -26.8402  -30.8470   21.9961 H   0  0  0  0  0  0
  -28.1261  -29.0110   21.1715 H   0  0  0  0  0  0
  -26.0321  -25.9107   19.0360 H   0  0  0  0  0  0
  -23.9804  -27.2776   19.0335 H   0  0  0  0  0  0
  -23.7548  -30.5779   19.3995 H   0  0  0  0  0  0
  -22.7579  -29.2288   19.8622 H   0  0  0  0  0  0
  -25.1298  -36.1949   25.0819 H   0  0  0  0  0  0
  -21.0005  -28.3236   24.1410 H   0  0  0  0  0  0
  -21.6665  -26.7479   22.1169 H   0  0  0  0  0  0
  -20.5745  -26.2275   23.3550 H   0  0  0  0  0  0
  -19.6910  -25.6326   21.1183 H   0  0  0  0  0  0
  -19.6681  -27.3223   20.6738 H   0  0  0  0  0  0
  -17.4191  -26.6686   21.4094 H   0  0  0  0  0  0
  -18.0378  -26.0070   22.9057 H   0  0  0  0  0  0
  -19.8007  -30.7277   24.2257 H   0  0  0  0  0  0
  -17.5064  -31.6271   24.5217 H   0  0  0  0  0  0
  -15.5384  -30.3022   23.7748 H   0  0  0  0  0  0
  -15.8679  -28.0869   22.7062 H   0  0  0  0  0  0
  -24.5904  -30.7033   25.7814 H   0  0  0  0  0  0
  -24.8903  -32.2858   26.4914 H   0  0  0  0  0  0
  -25.8068  -30.8884   27.0235 H   0  0  0  0  0  0
  -26.2878  -29.6775   24.1177 H   0  0  0  0  0  0
  -27.4030  -29.7248   25.4641 H   0  0  0  0  0  0
  -27.8747  -30.4327   23.9364 H   0  0  0  0  0  0
  -27.2637  -33.3628   26.2059 H   0  0  0  0  0  0
  -28.3836  -32.6872   25.0311 H   0  0  0  0  0  0
  -28.0701  -31.8459   26.5415 H   0  0  0  0  0  0
  -28.2601  -38.0102   24.7497 H   0  0  0  0  0  0
  -28.1076  -36.2632   24.6308 H   0  0  0  0  0  0
  -27.2307  -37.1474   25.8869 H   0  0  0  0  0  0
  -20.9382  -29.8801   21.6943 H   0  0  0  0  0  0
  -26.0192  -38.2845   24.1358 H   0  0  0  0  0  0
  -28.2805  -22.7956   22.1649 H   0  0  0  0  0  0
  -26.7102  -23.0133   21.4633 H   0  0  0  0  0  0
  -30.1609  -23.9102   19.0809 H   0  0  0  0  0  0
  -30.4013  -23.3631   20.7125 H   0  0  0  0  0  0
  -27.1126  -21.2015   19.8358 H   0  0  0  0  0  0
  -27.3057  -20.6380   21.4710 H   0  0  0  0  0  0
  -30.8014  -21.4948   19.1265 H   0  0  0  0  0  0
  -29.2358  -21.7117   18.4092 H   0  0  0  0  0  0
  -27.7434  -17.9797   21.8040 H   0  0  0  0  0  0
  -27.4970  -16.2525   21.7870 H   0  0  0  0  0  0
  -29.8002  -14.7504   23.1138 H   0  0  0  0  0  0
  -31.1020  -15.9156   23.0186 H   0  0  0  0  0  0
  -27.6957  -23.8263   19.3495 H   0  0  0  0  0  0
  -29.7708  -20.7144   21.2689 H   0  0  0  0  0  0
  -28.4930  -16.4911   23.9352 H   0  0  0  0  0  0
  -28.7145  -16.4706   19.7765 H   0  0  0  0  0  0
  -28.8483  -18.6538   25.0707 H   0  0  0  0  0  0
  -28.2854  -19.3188   23.5285 H   0  0  0  0  0  0
  -29.8230  -19.8371   24.2065 H   0  0  0  0  0  0
  -29.0553  -25.3318   21.6430 H   0  0  0  0  0  0
  -27.3457  -25.3216   21.4865 H   0  0  0  0  0  0
  -30.7414  -18.0003   19.5493 H   0  0  0  0  0  0
  -30.5732  -18.5283   21.1815 H   0  0  0  0  0  0
  -29.1428  -19.3172   18.8218 H   0  0  0  0  0  0
  -28.1474  -18.9801   20.0289 H   0  0  0  0  0  0
  1 25  1  0  0  0
  1 30  2  0  0  0
  1 84  1  0  0  0
  2  3  1  0  0  0
  2 25  1  0  0  0
  2 87  1  0  0  0
  2 88  1  0  0  0
  3  4  1  0  0  0
  3 89  1  0  0  0
  3 90  1  0  0  0
  4  5  1  0  0  0
  4 91  1  0  0  0
  4 92  1  0  0  0
  5  6  1  0  0  0
  5 26  1  0  0  0
  5 93  1  0  0  0
  6 25  1  0  0  0
  6 94  1  0  0  0
  6 95  1  0  0  0
  7  8  2  0  0  0
  7 26  1  0  0  0
  7 29  1  0  0  0
  8  9  1  0  0  0
  8 22  1  0  0  0
  9 10  1  0  0  0
  9 27  2  0  0  0
 10 11  2  0  0  0
 10 15  1  0  0  0
 11 12  1  0  0  0
 11 96  1  0  0  0
 12 13  2  0  0  0
 12 97  1  0  0  0
 13 14  1  0  0  0
 13 31  1  0  0  0
 14 15  2  0  0  0
 14 98  1  0  0  0
 15 99  1  0  0  0
 16 17  2  0  0  0
 16 21  1  0  0  0
 16 31  1  0  0  0
 17 18  1  0  0  0
 17100  1  0  0  0
 18 19  2  0  0  0
 18101  1  0  0  0
 19 20  1  0  0  0
 19 24  1  0  0  0
 20 21  2  0  0  0
 20102  1  0  0  0
 21 23  1  0  0  0
 22 28  1  0  0  0
 22 32  2  0  0  0
 26 27  1  0  0  0
 28103  1  0  0  0
 28104  1  0  0  0
 29105  1  0  0  0
 29106  1  0  0  0
 33 34  1  0  0  0
 33 66  1  0  0  0
 33 70  2  0  0  0
 34 36  1  0  0  0
 34 59  1  0  0  0
 34107  1  0  0  0
 35 44  2  0  0  0
 35 45  1  0  0  0
 35 68  1  0  0  0
 36 56  1  0  0  0
 36108  1  0  0  0
 37 39  1  0  0  0
 37 47  1  0  0  0
 37 66  1  0  0  0
 37109  1  0  0  0
 38 43  2  0  0  0
 38 46  1  0  0  0
 38 47  1  0  0  0
 39 64  1  0  0  0
 39 67  2  0  0  0
 40 52  1  0  0  0
 40 53  2  0  0  0
 40 58  1  0  0  0
 41110  1  0  0  0
 41111  1  0  0  0
 41112  1  0  0  0
 41 48  1  0  0  0
 42 43  1  0  0  0
 42 66  1  0  0  0
 42113  1  0  0  0
 42114  1  0  0  0
 43 44  1  0  0  0
 44115  1  0  0  0
 45 46  2  0  0  0
 45116  1  0  0  0
 46117  1  0  0  0
 47118  1  0  0  0
 47119  1  0  0  0
 48 56  1  0  0  0
 48 65  1  0  0  0
 48120  1  0  0  0
 49 50  1  0  0  0
 49 53  1  0  0  0
 49 64  1  0  0  0
 49121  1  0  0  0
 50 51  1  0  0  0
 50122  1  0  0  0
 50123  1  0  0  0
 51 52  1  0  0  0
 51124  1  0  0  0
 51125  1  0  0  0
 52126  1  0  0  0
 52127  1  0  0  0
 53 54  1  0  0  0
 54 55  2  0  0  0
 54128  1  0  0  0
 55 57  1  0  0  0
 55129  1  0  0  0
 56 69  2  0  0  0
 57 58  2  0  0  0
 57130  1  0  0  0
 58131  1  0  0  0
 59 60  1  0  0  0
 59 61  1  0  0  0
 59 62  1  0  0  0
 60132  1  0  0  0
 60133  1  0  0  0
 60134  1  0  0  0
 61135  1  0  0  0
 61136  1  0  0  0
 61137  1  0  0  0
 62138  1  0  0  0
 62139  1  0  0  0
 62140  1  0  0  0
 63 65  1  0  0  0
 63141  1  0  0  0
 63142  1  0  0  0
 63143  1  0  0  0
 64144  1  0  0  0
 65145  1  0  0  0
 68 82  1  0  0  0
 71 73  1  0  0  0
 71 77  1  0  0  0
 71146  1  0  0  0
 71147  1  0  0  0
 72 74  1  0  0  0
 72 77  1  0  0  0
 72148  1  0  0  0
 72149  1  0  0  0
 73 78  1  0  0  0
 73150  1  0  0  0
 73151  1  0  0  0
 74 78  1  0  0  0
 74152  1  0  0  0
 74153  1  0  0  0
 75 79  1  0  0  0
 75 80  1  0  0  0
 75154  1  0  0  0
 75155  1  0  0  0
 76 79  1  0  0  0
 76 84  1  0  0  0
 76156  1  0  0  0
 76157  1  0  0  0
 77 82  1  0  0  0
 77158  1  0  0  0
 78 85  1  0  0  0
 78159  1  0  0  0
 79 86  1  0  0  0
 79160  1  0  0  0
 80 83  1  0  0  0
 80 84  1  0  0  0
 80161  1  0  0  0
 81 86  1  0  0  0
 81162  1  0  0  0
 81163  1  0  0  0
 81164  1  0  0  0
 82165  1  0  0  0
 82166  1  0  0  0
 83 85  1  0  0  0
 83167  1  0  0  0
 83168  1  0  0  0
 85169  1  0  0  0
 85170  1  0  0  0
M  CHG  1  85   1
M  ISO  4   1 100  68 101  82 101  84 100
M  END
> <chiral flag>
0

> <version>
0

> <s_m_source_file>
/data/baiqing/PycharmProjects/Reinvent-master-3.2/result/LINK_invent/BTK/process_docking_weight1_custom_sum_contain_oxygen_bond_distance_aromatic_linkinvent_7_9_3/rearranged_h_0145.sdf

> <i_m_source_file_index>
44

> <r_mmod_Potential_Energy-OPLS-2005>
153.77864074707

> <r_mmod_Stretch_Energy-OPLS-2005>
79.2170257568359

> <r_mmod_Bend_Energy-OPLS-2005>
179.292907714844

> <r_mmod_Torsional_Energy-OPLS-2005>
434.727081298828

> <r_mmod_Improper_Torsional_Energy-OPLS-2005>
2.72411489486694

> <r_mmod_Van_der_Waal_Energy-OPLS-2005>
108.861961364746

> <r_mmod_Electrostatic_Energy-OPLS-2005>
-246.799499511719

> <r_mmod_Solvation_Energy-OPLS-2005>
-441.689483642578

> <b_mmod_Minimization_Converged-OPLS-2005>
0

> <r_mmod_RMS_Derivative-OPLS-2005>
3.72842121124268

$$$$
45
                    3D
 Structure written by MMmdl.
165175  0  0  1  0            999 V2000
  -30.5197  -14.8343   20.3913 C   0  0  0  0  0  0
  -30.4411  -12.5062   19.4495 C   0  0  0  0  0  0
  -29.5073  -12.5232   18.2159 C   0  0  0  0  0  0
  -28.0315  -12.3478   18.6306 C   0  0  0  0  0  0
  -27.6382  -13.2364   19.8431 C   0  0  2  0  0  0
  -28.6914  -13.1583   20.9708 C   0  0  0  0  0  0
  -25.2510  -13.8204   20.5786 C   0  0  0  0  0  0
  -24.1791  -13.0429   20.9303 C   0  0  0  0  0  0
  -24.6395  -11.6912   20.8756 C   0  0  0  0  0  0
  -23.9061  -10.4279   21.0400 C   0  0  0  0  0  0
  -24.3631   -9.4209   21.9177 C   0  0  0  0  0  0
  -23.6316   -8.2219   22.0736 C   0  0  0  0  0  0
  -22.4288   -8.0263   21.3545 C   0  0  0  0  0  0
  -21.9924   -9.0211   20.4627 C   0  0  0  0  0  0
  -22.7244  -10.2098   20.3041 C   0  0  0  0  0  0
  -21.6844   -6.0741   22.5303 C   0  0  0  0  0  0
  -21.3992   -6.5632   23.8251 C   0  0  0  0  0  0
  -21.3668   -5.6788   24.9198 C   0  0  0  0  0  0
  -21.6056   -4.3055   24.7245 C   0  0  0  0  0  0
  -21.8811   -3.8154   23.4364 C   0  0  0  0  0  0
  -21.9184   -4.6963   22.3425 C   0  0  0  0  0  0
  -22.7799  -13.5219   21.1945 C   0  0  0  0  0  0
  -22.1653   -4.2166   21.0987 F   0  0  0  0  0  0
  -21.5659   -3.4520   25.7753 F   0  0  0  0  0  0
  -29.9780  -13.5621   20.3885 N   0  0  0  0  0  0
  -26.2915  -12.9409   20.3299 N   0  0  0  0  0  0
  -25.9329  -11.6545   20.5708 N   0  0  0  0  0  0
  -22.0392  -12.8198   22.0457 N   0  0  0  0  0  0
  -25.4159  -15.1941   20.4356 N   0  0  0  0  0  0
  -31.6843  -14.9898   20.0047 O   0  0  0  0  0  0
  -21.6627   -6.8881   21.4266 O   0  0  0  0  0  0
  -22.3480  -14.5501   20.6769 O   0  0  0  0  0  0
  -24.6361  -31.8563   23.2081 C   0  0  0  0  0  0
  -25.9154  -32.4794   23.8422 C   0  0  1  0  0  0
  -27.2068  -27.1980   20.1509 C   0  0  0  0  0  0
  -25.5983  -33.8621   24.2326 N   0  0  0  0  0  0
  -23.4350  -30.4767   21.5555 C   0  0  2  0  0  0
  -24.8841  -28.9310   20.1214 C   0  0  0  0  0  0
  -22.7552  -29.4549   22.5004 C   0  0  0  0  0  0
  -18.0265  -28.1388   22.8482 C   0  0  0  0  0  0
  -24.1471  -36.7291   23.2641 C   0  0  0  0  0  0
  -25.9859  -30.7546   21.3935 C   0  0  0  0  0  0
  -26.0619  -29.3694   20.7401 C   0  0  0  0  0  0
  -27.2254  -28.5152   20.7511 C   0  0  0  0  0  0
  -26.0035  -26.8748   19.4739 C   0  0  0  0  0  0
  -24.8613  -27.6903   19.4813 C   0  0  0  0  0  0
  -23.6602  -29.8250   20.1694 C   0  0  0  0  0  0
  -25.4102  -36.3103   24.0335 C   0  0  1  0  0  0
  -20.5872  -28.3674   23.1307 C   0  0  2  0  0  0
  -20.6754  -26.9404   22.5415 C   0  0  0  0  0  0
  -19.5732  -26.6359   21.5229 C   0  0  0  0  0  0
  -18.1899  -26.7941   22.1611 C   0  0  0  0  0  0
  -19.1525  -28.8867   23.2856 C   0  0  0  0  0  0
  -18.9444  -30.1486   23.8855 C   0  0  0  0  0  0
  -17.6439  -30.6603   24.0549 C   0  0  0  0  0  0
  -25.9049  -34.9467   23.5108 C   0  0  0  0  0  0
  -16.5323  -29.9076   23.6364 C   0  0  0  0  0  0
  -16.7250  -28.6490   23.0382 C   0  0  0  0  0  0
  -26.4503  -31.6644   25.0838 C   0  0  0  0  0  0
  -25.3733  -31.3838   26.1574 C   0  0  0  0  0  0
  -27.0314  -30.3055   24.6308 C   0  0  0  0  0  0
  -27.6053  -32.4386   25.7620 C   0  0  0  0  0  0
  -27.5571  -37.1811   24.8454 C   0  0  0  0  0  0
  -21.4242  -29.3055   22.3776 N   0  0  0  0  0  0
  -26.4263  -37.3807   23.9422 N   0  0  0  0  0  0
  -24.7064  -31.0463   22.1110 N   0  0  0  0  0  0
  -23.4248  -28.8066   23.3097 O   0  0  0  0  0  0
  -28.2335  -26.1964   20.2508 O   0  0  0  0  0  0
  -26.5584  -34.8937   22.4668 O   0  0  0  0  0  0
  -23.5475  -32.1413   23.7318 O   0  0  0  0  0  0
  -29.0759  -22.8027   21.3599 C   0  0  0  0  0  0
  -28.2592  -22.2752   19.2086 C   0  0  0  0  0  0
  -29.4067  -21.4016   21.5685 C   0  0  0  0  0  0
  -29.1709  -20.3646   20.5847 C   0  0  0  0  0  0
  -28.4984  -23.3137   20.1626 C   0  0  0  0  0  0
  -28.5656  -20.8710   19.3863 C   0  0  0  0  0  0
  -30.8365  -21.8958   23.7298 C   0  0  0  0  0  0
  -31.3024  -20.5458   23.2528 C   0  0  0  0  0  0
  -28.2335  -17.8991   20.6848 C   0  0  0  0  0  0
  -29.8887  -21.0122   22.9481 C   0  0  0  0  0  0
  -29.4056  -18.7861   20.9346 C   0  0  1  0  0  0
  -29.5486  -17.3538   20.1420 C   0  0  1  0  0  0
  -26.6289  -18.9175   16.9272 C   0  0  0  0  0  0
  -27.8196  -24.7665   19.9005 C   0  0  0  0  0  0
  -27.1291  -20.2255   17.5570 C   0  0  0  0  0  0
  -29.6640  -15.9135   20.6469 N   0  0  0  0  0  0
  -28.2325  -19.9414   18.4206 O   0  0  0  0  0  0
  -31.4737  -12.6649   19.1353 H   0  0  0  0  0  0
  -30.4228  -11.5283   19.9313 H   0  0  0  0  0  0
  -29.7976  -11.7373   17.5135 H   0  0  0  0  0  0
  -29.6264  -13.4623   17.6747 H   0  0  0  0  0  0
  -27.8849  -11.2962   18.8753 H   0  0  0  0  0  0
  -27.3760  -12.5531   17.7827 H   0  0  0  0  0  0
  -27.6276  -14.2630   19.4760 H   0  0  0  0  0  0
  -28.7543  -12.1422   21.3607 H   0  0  0  0  0  0
  -28.4181  -13.7988   21.8119 H   0  0  0  0  0  0
  -25.2768   -9.5667   22.4754 H   0  0  0  0  0  0
  -24.0044   -7.4584   22.7420 H   0  0  0  0  0  0
  -21.0877   -8.8686   19.8904 H   0  0  0  0  0  0
  -22.3706  -10.9619   19.6106 H   0  0  0  0  0  0
  -21.1946   -7.6137   23.9785 H   0  0  0  0  0  0
  -21.1517   -6.0494   25.9129 H   0  0  0  0  0  0
  -22.0589   -2.7611   23.2858 H   0  0  0  0  0  0
  -22.3928  -11.9859   22.4893 H   0  0  0  0  0  0
  -21.0989  -13.1202   22.2583 H   0  0  0  0  0  0
  -24.6536  -15.8387   20.6148 H   0  0  0  0  0  0
  -26.2608  -15.6509   20.1175 H   0  0  0  0  0  0
  -26.7256  -32.5447   23.1190 H   0  0  0  0  0  0
  -25.0275  -33.9790   25.0573 H   0  0  0  0  0  0
  -22.7274  -31.2962   21.4117 H   0  0  0  0  0  0
  -23.3773  -35.9571   23.3246 H   0  0  0  0  0  0
  -24.3558  -36.8984   22.2063 H   0  0  0  0  0  0
  -23.7147  -37.6446   23.6712 H   0  0  0  0  0  0
  -26.1091  -31.5084   20.6152 H   0  0  0  0  0  0
  -26.8684  -30.8271   22.0174 H   0  0  0  0  0  0
  -28.1106  -28.8390   21.2819 H   0  0  0  0  0  0
  -25.8767  -25.9403   18.9533 H   0  0  0  0  0  0
  -23.9561  -27.3470   19.0005 H   0  0  0  0  0  0
  -23.8041  -30.6083   19.4238 H   0  0  0  0  0  0
  -22.7770  -29.2680   19.8514 H   0  0  0  0  0  0
  -25.1273  -36.1947   25.0813 H   0  0  0  0  0  0
  -20.9866  -28.3197   24.1464 H   0  0  0  0  0  0
  -20.5656  -26.2288   23.3610 H   0  0  0  0  0  0
  -21.6623  -26.7450   22.1199 H   0  0  0  0  0  0
  -19.6883  -25.6252   21.1302 H   0  0  0  0  0  0
  -19.6690  -27.3145   20.6744 H   0  0  0  0  0  0
  -17.4187  -26.6729   21.3983 H   0  0  0  0  0  0
  -18.0245  -26.0054   22.8973 H   0  0  0  0  0  0
  -19.7915  -30.7325   24.2181 H   0  0  0  0  0  0
  -17.4983  -31.6286   24.5128 H   0  0  0  0  0  0
  -15.5319  -30.2954   23.7745 H   0  0  0  0  0  0
  -15.8630  -28.0793   22.7146 H   0  0  0  0  0  0
  -24.5888  -30.7181   25.7964 H   0  0  0  0  0  0
  -24.8962  -32.3036   26.4982 H   0  0  0  0  0  0
  -25.8068  -30.9068   27.0378 H   0  0  0  0  0  0
  -26.2902  -29.6871   24.1240 H   0  0  0  0  0  0
  -27.3888  -29.7253   25.4823 H   0  0  0  0  0  0
  -27.8834  -30.4332   23.9630 H   0  0  0  0  0  0
  -27.2687  -33.3760   26.2058 H   0  0  0  0  0  0
  -28.3974  -32.6807   25.0535 H   0  0  0  0  0  0
  -28.0577  -31.8592   26.5670 H   0  0  0  0  0  0
  -28.2546  -38.0149   24.7563 H   0  0  0  0  0  0
  -28.1106  -36.2689   24.6195 H   0  0  0  0  0  0
  -27.2315  -37.1368   25.8860 H   0  0  0  0  0  0
  -20.9452  -29.8907   21.7093 H   0  0  0  0  0  0
  -26.0136  -38.2863   24.1490 H   0  0  0  0  0  0
  -29.1993  -23.4916   22.1843 H   0  0  0  0  0  0
  -27.7414  -22.5818   18.3123 H   0  0  0  0  0  0
  -31.2825  -22.7574   23.2366 H   0  0  0  0  0  0
  -30.6626  -22.0106   24.7977 H   0  0  0  0  0  0
  -31.4641  -19.8148   24.0458 H   0  0  0  0  0  0
  -32.0304  -20.5198   22.4445 H   0  0  0  0  0  0
  -27.4902  -18.2204   19.9585 H   0  0  0  0  0  0
  -27.7991  -17.4579   21.5777 H   0  0  0  0  0  0
  -29.0875  -20.5112   23.4911 H   0  0  0  0  0  0
  -29.8976  -18.7194   21.8971 H   0  0  0  0  0  0
  -29.7178  -17.4712   19.0701 H   0  0  0  0  0  0
  -25.7537  -19.0819   16.2950 H   0  0  0  0  0  0
  -26.3494  -18.1790   17.6796 H   0  0  0  0  0  0
  -27.4075  -18.4845   16.3006 H   0  0  0  0  0  0
  -26.8301  -24.6118   20.3315 H   0  0  0  0  0  0
  -27.6968  -24.7955   18.8176 H   0  0  0  0  0  0
  -26.3050  -20.6989   18.0972 H   0  0  0  0  0  0
  -27.4437  -20.9021   16.7602 H   0  0  0  0  0  0
  -28.7913  -15.5842   21.0290 H   0  0  0  0  0  0
  1 25  1  0  0  0
  1 30  2  0  0  0
  1 86  1  0  0  0
  2  3  1  0  0  0
  2 25  1  0  0  0
  2 88  1  0  0  0
  2 89  1  0  0  0
  3  4  1  0  0  0
  3 90  1  0  0  0
  3 91  1  0  0  0
  4  5  1  0  0  0
  4 92  1  0  0  0
  4 93  1  0  0  0
  5  6  1  0  0  0
  5 26  1  0  0  0
  5 94  1  0  0  0
  6 25  1  0  0  0
  6 95  1  0  0  0
  6 96  1  0  0  0
  7  8  2  0  0  0
  7 26  1  0  0  0
  7 29  1  0  0  0
  8  9  1  0  0  0
  8 22  1  0  0  0
  9 10  1  0  0  0
  9 27  2  0  0  0
 10 11  2  0  0  0
 10 15  1  0  0  0
 11 12  1  0  0  0
 11 97  1  0  0  0
 12 13  2  0  0  0
 12 98  1  0  0  0
 13 14  1  0  0  0
 13 31  1  0  0  0
 14 15  2  0  0  0
 14 99  1  0  0  0
 15100  1  0  0  0
 16 17  2  0  0  0
 16 21  1  0  0  0
 16 31  1  0  0  0
 17 18  1  0  0  0
 17101  1  0  0  0
 18 19  2  0  0  0
 18102  1  0  0  0
 19 20  1  0  0  0
 19 24  1  0  0  0
 20 21  2  0  0  0
 20103  1  0  0  0
 21 23  1  0  0  0
 22 28  1  0  0  0
 22 32  2  0  0  0
 26 27  1  0  0  0
 28104  1  0  0  0
 28105  1  0  0  0
 29106  1  0  0  0
 29107  1  0  0  0
 33 34  1  0  0  0
 33 66  1  0  0  0
 33 70  2  0  0  0
 34 36  1  0  0  0
 34 59  1  0  0  0
 34108  1  0  0  0
 35 44  2  0  0  0
 35 45  1  0  0  0
 35 68  1  0  0  0
 36 56  1  0  0  0
 36109  1  0  0  0
 37 39  1  0  0  0
 37 47  1  0  0  0
 37 66  1  0  0  0
 37110  1  0  0  0
 38 43  2  0  0  0
 38 46  1  0  0  0
 38 47  1  0  0  0
 39 64  1  0  0  0
 39 67  2  0  0  0
 40 52  1  0  0  0
 40 53  2  0  0  0
 40 58  1  0  0  0
 41111  1  0  0  0
 41112  1  0  0  0
 41113  1  0  0  0
 41 48  1  0  0  0
 42 43  1  0  0  0
 42 66  1  0  0  0
 42114  1  0  0  0
 42115  1  0  0  0
 43 44  1  0  0  0
 44116  1  0  0  0
 45 46  2  0  0  0
 45117  1  0  0  0
 46118  1  0  0  0
 47119  1  0  0  0
 47120  1  0  0  0
 48 56  1  0  0  0
 48 65  1  0  0  0
 48121  1  0  0  0
 49 50  1  0  0  0
 49 53  1  0  0  0
 49 64  1  0  0  0
 49122  1  0  0  0
 50 51  1  0  0  0
 50123  1  0  0  0
 50124  1  0  0  0
 51 52  1  0  0  0
 51125  1  0  0  0
 51126  1  0  0  0
 52127  1  0  0  0
 52128  1  0  0  0
 53 54  1  0  0  0
 54 55  2  0  0  0
 54129  1  0  0  0
 55 57  1  0  0  0
 55130  1  0  0  0
 56 69  2  0  0  0
 57 58  2  0  0  0
 57131  1  0  0  0
 58132  1  0  0  0
 59 60  1  0  0  0
 59 61  1  0  0  0
 59 62  1  0  0  0
 60133  1  0  0  0
 60134  1  0  0  0
 60135  1  0  0  0
 61136  1  0  0  0
 61137  1  0  0  0
 61138  1  0  0  0
 62139  1  0  0  0
 62140  1  0  0  0
 62141  1  0  0  0
 63 65  1  0  0  0
 63142  1  0  0  0
 63143  1  0  0  0
 63144  1  0  0  0
 64145  1  0  0  0
 65146  1  0  0  0
 68 84  1  0  0  0
 71 73  2  0  0  0
 71 75  1  0  0  0
 71147  1  0  0  0
 72 75  2  0  0  0
 72 76  1  0  0  0
 72148  1  0  0  0
 73 74  1  0  0  0
 73 80  1  0  0  0
 74 76  2  0  0  0
 74 81  1  0  0  0
 75 84  1  0  0  0
 76 87  1  0  0  0
 77 78  1  0  0  0
 77 80  1  0  0  0
 77149  1  0  0  0
 77150  1  0  0  0
 78 80  1  0  0  0
 78151  1  0  0  0
 78152  1  0  0  0
 79 81  1  0  0  0
 79 82  1  0  0  0
 79153  1  0  0  0
 79154  1  0  0  0
 80155  1  0  0  0
 81 82  1  0  0  0
 81156  1  0  0  0
 82 86  1  0  0  0
 82157  1  0  0  0
 83 85  1  0  0  0
 83158  1  0  0  0
 83159  1  0  0  0
 83160  1  0  0  0
 84161  1  0  0  0
 84162  1  0  0  0
 85 87  1  0  0  0
 85163  1  0  0  0
 85164  1  0  0  0
 86165  1  0  0  0
M  ISO  4   1 100  68 101  84 101  86 100
M  END
> <chiral flag>
0

> <version>
0

> <s_m_source_file>
/data/baiqing/PycharmProjects/Reinvent-master-3.2/result/LINK_invent/BTK/process_docking_weight1_custom_sum_contain_oxygen_bond_distance_aromatic_linkinvent_7_9_3/rearranged_h_0145.sdf

> <i_m_source_file_index>
45

> <r_mmod_Potential_Energy-OPLS-2005>
470.382049560547

> <r_mmod_Stretch_Energy-OPLS-2005>
184.306823730469

> <r_mmod_Bend_Energy-OPLS-2005>
275.685089111328

> <r_mmod_Torsional_Energy-OPLS-2005>
311.223968505859

> <r_mmod_Improper_Torsional_Energy-OPLS-2005>
9.31263542175293

> <r_mmod_Van_der_Waal_Energy-OPLS-2005>
148.302261352539

> <r_mmod_Electrostatic_Energy-OPLS-2005>
-383.791290283203

> <r_mmod_Solvation_Energy-OPLS-2005>
-215.981872558594

> <b_mmod_Minimization_Converged-OPLS-2005>
0

> <r_mmod_RMS_Derivative-OPLS-2005>
5.65760707855225

$$$$
46
                    3D
 Structure written by MMmdl.
178188  0  0  1  0            999 V2000
  -30.7155  -14.6379   20.5290 C   0  0  0  0  0  0
  -30.4101  -12.4067   19.4620 C   0  0  0  0  0  0
  -29.4923  -12.4874   18.2260 C   0  0  0  0  0  0
  -28.0266  -12.2816   18.6459 C   0  0  0  0  0  0
  -27.6344  -13.1900   19.8347 C   0  0  2  0  0  0
  -28.6805  -13.1416   20.9791 C   0  0  0  0  0  0
  -25.2518  -13.8098   20.5648 C   0  0  0  0  0  0
  -24.1786  -13.0401   20.9216 C   0  0  0  0  0  0
  -24.6334  -11.6866   20.8780 C   0  0  0  0  0  0
  -23.9015  -10.4268   21.0443 C   0  0  0  0  0  0
  -24.3588   -9.4184   21.9206 C   0  0  0  0  0  0
  -23.6277   -8.2216   22.0759 C   0  0  0  0  0  0
  -22.4260   -8.0258   21.3546 C   0  0  0  0  0  0
  -21.9886   -9.0230   20.4654 C   0  0  0  0  0  0
  -22.7204  -10.2115   20.3075 C   0  0  0  0  0  0
  -21.6843   -6.0725   22.5282 C   0  0  0  0  0  0
  -21.4004   -6.5634   23.8215 C   0  0  0  0  0  0
  -21.3659   -5.6787   24.9178 C   0  0  0  0  0  0
  -21.6045   -4.3050   24.7228 C   0  0  0  0  0  0
  -21.8821   -3.8140   23.4352 C   0  0  0  0  0  0
  -21.9190   -4.6955   22.3407 C   0  0  0  0  0  0
  -22.7821  -13.5222   21.1887 C   0  0  0  0  0  0
  -22.1658   -4.2141   21.0984 F   0  0  0  0  0  0
  -21.5638   -3.4535   25.7743 F   0  0  0  0  0  0
  -29.9937  -13.4707   20.4089 N   0  0  0  0  0  0
  -26.2882  -12.9215   20.3206 N   0  0  0  0  0  0
  -25.9235  -11.6411   20.5761 N   0  0  0  0  0  0
  -22.0461  -12.8219   22.0445 N   0  0  0  0  0  0
  -25.4231  -15.1810   20.4011 N   0  0  0  0  0  0
  -31.8759  -14.6689   20.1077 O   0  0  0  0  0  0
  -21.6628   -6.8857   21.4239 O   0  0  0  0  0  0
  -22.3517  -14.5538   20.6743 O   0  0  0  0  0  0
  -24.6220  -31.8617   23.2041 C   0  0  0  0  0  0
  -25.9083  -32.4791   23.8361 C   0  0  1  0  0  0
  -27.2308  -27.3518   20.1153 C   0  0  0  0  0  0
  -25.5914  -33.8592   24.2290 N   0  0  0  0  0  0
  -23.4144  -30.4843   21.5459 C   0  0  2  0  0  0
  -24.8621  -28.9424   20.1103 C   0  0  0  0  0  0
  -22.7456  -29.4630   22.4955 C   0  0  0  0  0  0
  -18.0280  -28.1386   22.8488 C   0  0  0  0  0  0
  -24.1486  -36.7293   23.2635 C   0  0  0  0  0  0
  -25.9513  -30.8023   21.3705 C   0  0  0  0  0  0
  -26.0264  -29.4319   20.7144 C   0  0  0  0  0  0
  -27.2124  -28.6470   20.7080 C   0  0  0  0  0  0
  -26.0459  -26.9062   19.4852 C   0  0  0  0  0  0
  -24.8721  -27.6835   19.4881 C   0  0  0  0  0  0
  -23.6271  -29.8168   20.1608 C   0  0  0  0  0  0
  -25.4108  -36.3092   24.0335 C   0  0  1  0  0  0
  -20.5879  -28.3679   23.1300 C   0  0  2  0  0  0
  -20.6771  -26.9403   22.5428 C   0  0  0  0  0  0
  -19.5757  -26.6385   21.5220 C   0  0  0  0  0  0
  -18.1927  -26.7935   22.1609 C   0  0  0  0  0  0
  -19.1531  -28.8850   23.2891 C   0  0  0  0  0  0
  -18.9456  -30.1452   23.8907 C   0  0  0  0  0  0
  -17.6457  -30.6590   24.0567 C   0  0  0  0  0  0
  -25.9048  -34.9462   23.5113 C   0  0  0  0  0  0
  -16.5347  -29.9089   23.6331 C   0  0  0  0  0  0
  -16.7269  -28.6506   23.0350 C   0  0  0  0  0  0
  -26.4483  -31.6590   25.0717 C   0  0  0  0  0  0
  -25.3730  -31.3730   26.1457 C   0  0  0  0  0  0
  -27.0308  -30.3013   24.6149 C   0  0  0  0  0  0
  -27.6065  -32.4311   25.7471 C   0  0  0  0  0  0
  -27.5593  -37.1779   24.8445 C   0  0  0  0  0  0
  -21.4172  -29.3033   22.3694 N   0  0  0  0  0  0
  -26.4283  -37.3789   23.9429 N   0  0  0  0  0  0
  -24.6809  -31.0658   22.0972 N   0  0  0  0  0  0
  -23.4199  -28.8178   23.3028 O   0  0  0  0  0  0
  -28.3736  -26.5503   20.1738 O   0  0  0  0  0  0
  -26.5617  -34.8926   22.4679 O   0  0  0  0  0  0
  -23.5392  -32.1401   23.7391 O   0  0  0  0  0  0
  -30.2122  -20.2544   18.8648 C   0  0  0  0  0  0
  -29.9889  -22.6791   18.7352 C   0  0  0  0  0  0
  -29.7490  -20.2445   20.1972 C   0  0  0  0  0  0
  -29.5155  -22.7609   20.0622 C   0  0  0  0  0  0
  -30.3205  -21.4516   18.1348 C   0  0  0  0  0  0
  -29.3582  -21.5103   20.7804 C   0  0  0  0  0  0
  -30.6869  -24.9119   20.9407 C   0  0  0  0  0  0
  -29.7604  -24.5433   22.0549 C   0  0  0  0  0  0
  -28.8241  -17.7745   20.2655 C   0  0  0  0  0  0
  -31.1185  -18.1813   21.0692 C   0  0  0  0  0  0
  -28.8520  -16.3880   20.9942 C   0  0  0  0  0  0
  -31.0845  -16.7837   21.7727 C   0  0  0  0  0  0
  -29.7235  -18.8505   20.9301 C   0  0  0  0  0  0
  -29.3705  -24.2145   20.6197 C   0  0  0  0  0  0
  -30.8357  -21.4328   16.7090 C   0  0  0  0  0  0
  -27.1022  -22.2963   23.6227 C   0  0  0  0  0  0
  -26.4950  -20.7861   21.6845 C   0  0  0  0  0  0
  -28.2628  -25.0983   19.9559 C   0  0  0  0  0  0
  -27.4287  -21.9012   22.1789 C   0  0  0  0  0  0
  -30.2003  -15.7830   21.1195 N   0  0  0  0  0  0
  -28.8266  -21.5000   22.0768 N   0  0  0  0  0  0
  -31.4532  -12.4903   19.1533 H   0  0  0  0  0  0
  -30.3266  -11.4274   19.9355 H   0  0  0  0  0  0
  -29.7791  -11.7335   17.4913 H   0  0  0  0  0  0
  -29.6087  -13.4557   17.7365 H   0  0  0  0  0  0
  -27.9019  -11.2338   18.9223 H   0  0  0  0  0  0
  -27.3601  -12.4543   17.8002 H   0  0  0  0  0  0
  -27.6082  -14.1726   19.3777 H   0  0  0  0  0  0
  -28.7080  -12.1481   21.4290 H   0  0  0  0  0  0
  -28.4117  -13.8207   21.7884 H   0  0  0  0  0  0
  -25.2735   -9.5664   22.4777 H   0  0  0  0  0  0
  -23.9996   -7.4597   22.7462 H   0  0  0  0  0  0
  -21.0823   -8.8740   19.8953 H   0  0  0  0  0  0
  -22.3665  -10.9655   19.6187 H   0  0  0  0  0  0
  -21.1987   -7.6143   23.9714 H   0  0  0  0  0  0
  -21.1484   -6.0519   25.9080 H   0  0  0  0  0  0
  -22.0603   -2.7601   23.2852 H   0  0  0  0  0  0
  -22.4060  -11.9863   22.4815 H   0  0  0  0  0  0
  -21.1087  -13.1256   22.2675 H   0  0  0  0  0  0
  -24.6567  -15.8351   20.5160 H   0  0  0  0  0  0
  -26.2700  -15.6192   20.0649 H   0  0  0  0  0  0
  -26.7149  -32.5471   23.1111 H   0  0  0  0  0  0
  -25.0057  -33.9743   25.0433 H   0  0  0  0  0  0
  -22.7067  -31.3033   21.4031 H   0  0  0  0  0  0
  -23.3773  -35.9598   23.3251 H   0  0  0  0  0  0
  -24.3595  -36.8960   22.2061 H   0  0  0  0  0  0
  -23.7203  -37.6466   23.6684 H   0  0  0  0  0  0
  -26.0787  -31.5669   20.6028 H   0  0  0  0  0  0
  -26.8337  -30.8515   21.9966 H   0  0  0  0  0  0
  -28.1072  -29.0186   21.1879 H   0  0  0  0  0  0
  -26.0048  -25.9480   18.9888 H   0  0  0  0  0  0
  -23.9801  -27.3035   19.0090 H   0  0  0  0  0  0
  -23.7405  -30.5919   19.4022 H   0  0  0  0  0  0
  -22.7494  -29.2409   19.8618 H   0  0  0  0  0  0
  -25.1281  -36.1936   25.0825 H   0  0  0  0  0  0
  -20.9968  -28.3253   24.1422 H   0  0  0  0  0  0
  -20.5662  -26.2291   23.3627 H   0  0  0  0  0  0
  -21.6642  -26.7434   22.1224 H   0  0  0  0  0  0
  -19.6917  -25.6297   21.1246 H   0  0  0  0  0  0
  -19.6710  -27.3204   20.6760 H   0  0  0  0  0  0
  -17.4210  -26.6708   21.3994 H   0  0  0  0  0  0
  -18.0297  -26.0070   22.8991 H   0  0  0  0  0  0
  -19.7933  -30.7263   24.2283 H   0  0  0  0  0  0
  -17.5013  -31.6270   24.5166 H   0  0  0  0  0  0
  -15.5349  -30.2994   23.7656 H   0  0  0  0  0  0
  -15.8666  -28.0832   22.7059 H   0  0  0  0  0  0
  -24.5926  -30.7042   25.7803 H   0  0  0  0  0  0
  -24.8890  -32.2893   26.4848 H   0  0  0  0  0  0
  -25.8068  -30.8950   27.0249 H   0  0  0  0  0  0
  -26.2859  -29.6775   24.1191 H   0  0  0  0  0  0
  -27.4029  -29.7256   25.4633 H   0  0  0  0  0  0
  -27.8724  -30.4295   23.9339 H   0  0  0  0  0  0
  -27.2702  -33.3624   26.2038 H   0  0  0  0  0  0
  -28.3873  -32.6845   25.0289 H   0  0  0  0  0  0
  -28.0733  -31.8438   26.5385 H   0  0  0  0  0  0
  -28.2555  -38.0130   24.7577 H   0  0  0  0  0  0
  -28.1145  -36.2670   24.6150 H   0  0  0  0  0  0
  -27.2336  -37.1277   25.8849 H   0  0  0  0  0  0
  -20.9348  -29.8751   21.6899 H   0  0  0  0  0  0
  -26.0163  -38.2852   24.1493 H   0  0  0  0  0  0
  -30.5021  -19.3251   18.3955 H   0  0  0  0  0  0
  -30.1375  -23.5889   18.1703 H   0  0  0  0  0  0
  -31.6047  -24.3332   20.8560 H   0  0  0  0  0  0
  -30.7901  -25.9720   20.7204 H   0  0  0  0  0  0
  -29.2339  -25.3592   22.5461 H   0  0  0  0  0  0
  -30.0824  -23.7412   22.7137 H   0  0  0  0  0  0
  -27.7975  -18.1411   20.2302 H   0  0  0  0  0  0
  -29.1244  -17.6275   19.2273 H   0  0  0  0  0  0
  -31.5740  -18.0623   20.0853 H   0  0  0  0  0  0
  -31.7804  -18.8464   21.6253 H   0  0  0  0  0  0
  -28.1709  -15.7442   20.4706 H   0  0  0  0  0  0
  -28.4335  -16.4958   21.9956 H   0  0  0  0  0  0
  -30.7383  -16.9108   22.7992 H   0  0  0  0  0  0
  -32.1052  -16.4093   21.8688 H   0  0  0  0  0  0
  -29.3408  -18.9978   21.9385 H   0  0  0  0  0  0
  -30.9258  -20.4155   16.3263 H   0  0  0  0  0  0
  -31.8185  -21.9023   16.6549 H   0  0  0  0  0  0
  -30.1605  -21.9805   16.0509 H   0  0  0  0  0  0
  -26.0679  -22.6318   23.7103 H   0  0  0  0  0  0
  -27.7370  -23.1155   23.9634 H   0  0  0  0  0  0
  -27.2361  -21.4605   24.3107 H   0  0  0  0  0  0
  -25.4503  -21.0885   21.7684 H   0  0  0  0  0  0
  -26.6184  -19.8687   22.2618 H   0  0  0  0  0  0
  -26.6736  -20.5469   20.6352 H   0  0  0  0  0  0
  -27.3060  -24.7244   20.3202 H   0  0  0  0  0  0
  -28.2784  -24.9320   18.8782 H   0  0  0  0  0  0
  -27.2571  -22.7774   21.5545 H   0  0  0  0  0  0
  -29.0219  -20.6426   22.5811 H   0  0  0  0  0  0
  1 25  1  0  0  0
  1 30  2  0  0  0
  1 90  1  0  0  0
  2  3  1  0  0  0
  2 25  1  0  0  0
  2 92  1  0  0  0
  2 93  1  0  0  0
  3  4  1  0  0  0
  3 94  1  0  0  0
  3 95  1  0  0  0
  4  5  1  0  0  0
  4 96  1  0  0  0
  4 97  1  0  0  0
  5  6  1  0  0  0
  5 26  1  0  0  0
  5 98  1  0  0  0
  6 25  1  0  0  0
  6 99  1  0  0  0
  6100  1  0  0  0
  7  8  2  0  0  0
  7 26  1  0  0  0
  7 29  1  0  0  0
  8  9  1  0  0  0
  8 22  1  0  0  0
  9 10  1  0  0  0
  9 27  2  0  0  0
 10 11  2  0  0  0
 10 15  1  0  0  0
 11 12  1  0  0  0
 11101  1  0  0  0
 12 13  2  0  0  0
 12102  1  0  0  0
 13 14  1  0  0  0
 13 31  1  0  0  0
 14 15  2  0  0  0
 14103  1  0  0  0
 15104  1  0  0  0
 16 17  2  0  0  0
 16 21  1  0  0  0
 16 31  1  0  0  0
 17 18  1  0  0  0
 17105  1  0  0  0
 18 19  2  0  0  0
 18106  1  0  0  0
 19 20  1  0  0  0
 19 24  1  0  0  0
 20 21  2  0  0  0
 20107  1  0  0  0
 21 23  1  0  0  0
 22 28  1  0  0  0
 22 32  2  0  0  0
 26 27  1  0  0  0
 28108  1  0  0  0
 28109  1  0  0  0
 29110  1  0  0  0
 29111  1  0  0  0
 33 34  1  0  0  0
 33 66  1  0  0  0
 33 70  2  0  0  0
 34 36  1  0  0  0
 34 59  1  0  0  0
 34112  1  0  0  0
 35 44  2  0  0  0
 35 45  1  0  0  0
 35 68  1  0  0  0
 36 56  1  0  0  0
 36113  1  0  0  0
 37 39  1  0  0  0
 37 47  1  0  0  0
 37 66  1  0  0  0
 37114  1  0  0  0
 38 43  2  0  0  0
 38 46  1  0  0  0
 38 47  1  0  0  0
 39 64  1  0  0  0
 39 67  2  0  0  0
 40 52  1  0  0  0
 40 53  2  0  0  0
 40 58  1  0  0  0
 41115  1  0  0  0
 41116  1  0  0  0
 41117  1  0  0  0
 41 48  1  0  0  0
 42 43  1  0  0  0
 42 66  1  0  0  0
 42118  1  0  0  0
 42119  1  0  0  0
 43 44  1  0  0  0
 44120  1  0  0  0
 45 46  2  0  0  0
 45121  1  0  0  0
 46122  1  0  0  0
 47123  1  0  0  0
 47124  1  0  0  0
 48 56  1  0  0  0
 48 65  1  0  0  0
 48125  1  0  0  0
 49 50  1  0  0  0
 49 53  1  0  0  0
 49 64  1  0  0  0
 49126  1  0  0  0
 50 51  1  0  0  0
 50127  1  0  0  0
 50128  1  0  0  0
 51 52  1  0  0  0
 51129  1  0  0  0
 51130  1  0  0  0
 52131  1  0  0  0
 52132  1  0  0  0
 53 54  1  0  0  0
 54 55  2  0  0  0
 54133  1  0  0  0
 55 57  1  0  0  0
 55134  1  0  0  0
 56 69  2  0  0  0
 57 58  2  0  0  0
 57135  1  0  0  0
 58136  1  0  0  0
 59 60  1  0  0  0
 59 61  1  0  0  0
 59 62  1  0  0  0
 60137  1  0  0  0
 60138  1  0  0  0
 60139  1  0  0  0
 61140  1  0  0  0
 61141  1  0  0  0
 61142  1  0  0  0
 62143  1  0  0  0
 62144  1  0  0  0
 62145  1  0  0  0
 63 65  1  0  0  0
 63146  1  0  0  0
 63147  1  0  0  0
 63148  1  0  0  0
 64149  1  0  0  0
 65150  1  0  0  0
 68 88  1  0  0  0
 71 73  2  0  0  0
 71 75  1  0  0  0
 71151  1  0  0  0
 72 74  1  0  0  0
 72 75  2  0  0  0
 72152  1  0  0  0
 73 76  1  0  0  0
 73 83  1  0  0  0
 74 76  2  0  0  0
 74 84  1  0  0  0
 75 85  1  0  0  0
 76 91  1  0  0  0
 77 78  1  0  0  0
 77 84  1  0  0  0
 77153  1  0  0  0
 77154  1  0  0  0
 78 84  1  0  0  0
 78155  1  0  0  0
 78156  1  0  0  0
 79 81  1  0  0  0
 79 83  1  0  0  0
 79157  1  0  0  0
 79158  1  0  0  0
 80 82  1  0  0  0
 80 83  1  0  0  0
 80159  1  0  0  0
 80160  1  0  0  0
 81 90  1  0  0  0
 81161  1  0  0  0
 81162  1  0  0  0
 82 90  1  0  0  0
 82163  1  0  0  0
 82164  1  0  0  0
 83165  1  0  0  0
 84 88  1  0  0  0
 85166  1  0  0  0
 85167  1  0  0  0
 85168  1  0  0  0
 86169  1  0  0  0
 86170  1  0  0  0
 86171  1  0  0  0
 86 89  1  0  0  0
 87 89  1  0  0  0
 87172  1  0  0  0
 87173  1  0  0  0
 87174  1  0  0  0
 88175  1  0  0  0
 88176  1  0  0  0
 89 91  1  0  0  0
 89177  1  0  0  0
 91178  1  0  0  0
M  ISO  4   1 100  68 101  88 101  90 100
M  END
> <chiral flag>
0

> <version>
0

> <s_m_source_file>
/data/baiqing/PycharmProjects/Reinvent-master-3.2/result/LINK_invent/BTK/process_docking_weight1_custom_sum_contain_oxygen_bond_distance_aromatic_linkinvent_7_9_3/rearranged_h_0145.sdf

> <i_m_source_file_index>
46

> <r_mmod_Potential_Energy-OPLS-2005>
272.355041503906

> <r_mmod_Stretch_Energy-OPLS-2005>
81.9419860839844

> <r_mmod_Bend_Energy-OPLS-2005>
157.010620117188

> <r_mmod_Torsional_Energy-OPLS-2005>
344.370330810547

> <r_mmod_Improper_Torsional_Energy-OPLS-2005>
7.27052927017212

> <r_mmod_Van_der_Waal_Energy-OPLS-2005>
148.119018554688

> <r_mmod_Electrostatic_Energy-OPLS-2005>
-318.253692626953

> <r_mmod_Solvation_Energy-OPLS-2005>
-193.934341430664

> <b_mmod_Minimization_Converged-OPLS-2005>
0

> <r_mmod_RMS_Derivative-OPLS-2005>
0.788533389568329

$$$$
47
                    3D
 Structure written by MMmdl.
178188  0  0  1  0            999 V2000
  -30.1256  -13.0871   20.2640 C   0  0  0  0  0  0
  -30.7797  -11.7144   19.7218 C   0  0  0  0  0  0
  -30.0803  -12.1850   18.0529 C   0  0  0  0  0  0
  -29.0408  -13.6146   18.0124 C   0  0  0  0  0  0
  -28.2168  -14.2198   19.5712 C   0  0  2  0  0  0
  -29.6435  -14.3198   20.9172 C   0  0  0  0  0  0
  -24.9094  -13.8006   20.8097 C   0  0  0  0  0  0
  -23.9318  -12.9211   20.9017 C   0  0  0  0  0  0
  -24.5513  -11.6881   20.9008 C   0  0  0  0  0  0
  -23.9231  -10.3748   21.0360 C   0  0  0  0  0  0
  -24.3813   -9.3674   21.9255 C   0  0  0  0  0  0
  -23.6400   -8.1762   22.0777 C   0  0  0  0  0  0
  -22.4377   -7.9857   21.3493 C   0  0  0  0  0  0
  -22.0019   -8.9683   20.4558 C   0  0  0  0  0  0
  -22.7443  -10.1529   20.2845 C   0  0  0  0  0  0
  -21.6768   -6.0625   22.5313 C   0  0  0  0  0  0
  -21.3948   -6.5500   23.8253 C   0  0  0  0  0  0
  -21.3651   -5.6693   24.9258 C   0  0  0  0  0  0
  -21.6042   -4.2948   24.7322 C   0  0  0  0  0  0
  -21.8764   -3.8048   23.4445 C   0  0  0  0  0  0
  -21.9155   -4.6851   22.3477 C   0  0  0  0  0  0
  -22.5076  -13.3092   21.1557 C   0  0  0  0  0  0
  -22.1681   -4.1982   21.1102 F   0  0  0  0  0  0
  -21.5695   -3.4504   25.7896 F   0  0  0  0  0  0
  -30.5968  -12.8402   21.0742 N   0  0  0  0  0  0
  -26.1995  -13.2771   20.3684 N   0  0  0  0  0  0
  -25.8447  -11.9057   20.7405 N   0  0  0  0  0  0
  -21.8652  -12.6599   22.1204 N   0  0  0  0  0  0
  -24.5621  -15.0557   21.2481 N   0  0  0  0  0  0
  -31.1357  -13.8627   19.4851 O   0  0  0  0  0  0
  -21.6552   -6.8697   21.4210 O   0  0  0  0  0  0
  -22.0371  -14.3157   20.6153 O   0  0  0  0  0  0
  -24.6063  -31.8734   23.2154 C   0  0  0  0  0  0
  -25.8973  -32.4854   23.8432 C   0  0  1  0  0  0
  -27.2153  -27.4938   20.0730 C   0  0  0  0  0  0
  -25.5871  -33.8661   24.2370 N   0  0  0  0  0  0
  -23.3944  -30.4999   21.5567 C   0  0  2  0  0  0
  -24.8454  -28.9980   20.0939 C   0  0  0  0  0  0
  -22.7394  -29.4640   22.4968 C   0  0  0  0  0  0
  -18.0234  -28.1362   22.8506 C   0  0  0  0  0  0
  -24.1507  -36.7318   23.2641 C   0  0  0  0  0  0
  -25.9178  -30.8550   21.3671 C   0  0  0  0  0  0
  -25.9973  -29.4977   20.7131 C   0  0  0  0  0  0
  -27.1865  -28.7439   20.7194 C   0  0  0  0  0  0
  -26.0698  -27.0387   19.3780 C   0  0  0  0  0  0
  -24.8711  -27.7648   19.4295 C   0  0  0  0  0  0
  -23.6023  -29.8530   20.1621 C   0  0  0  0  0  0
  -25.4110  -36.3117   24.0349 C   0  0  1  0  0  0
  -20.5855  -28.3628   23.1350 C   0  0  2  0  0  0
  -20.6761  -26.9344   22.5452 C   0  0  0  0  0  0
  -19.5756  -26.6343   21.5244 C   0  0  0  0  0  0
  -18.1915  -26.7893   22.1639 C   0  0  0  0  0  0
  -19.1494  -28.8811   23.2932 C   0  0  0  0  0  0
  -18.9430  -30.1439   23.8912 C   0  0  0  0  0  0
  -17.6444  -30.6605   24.0548 C   0  0  0  0  0  0
  -25.9003  -34.9488   23.5135 C   0  0  0  0  0  0
  -16.5330  -29.9108   23.6328 C   0  0  0  0  0  0
  -16.7222  -28.6516   23.0351 C   0  0  0  0  0  0
  -26.4458  -31.6599   25.0711 C   0  0  0  0  0  0
  -25.3783  -31.3671   26.1485 C   0  0  0  0  0  0
  -27.0258  -30.3050   24.6029 C   0  0  0  0  0  0
  -27.6055  -32.4284   25.7455 C   0  0  0  0  0  0
  -27.5576  -37.1817   24.8467 C   0  0  0  0  0  0
  -21.4117  -29.3012   22.3744 N   0  0  0  0  0  0
  -26.4299  -37.3784   23.9393 N   0  0  0  0  0  0
  -24.6577  -31.0876   22.1039 N   0  0  0  0  0  0
  -23.4204  -28.8113   23.2913 O   0  0  0  0  0  0
  -28.3265  -26.6970   20.1879 O   0  0  0  0  0  0
  -26.5550  -34.8917   22.4687 O   0  0  0  0  0  0
  -23.5276  -32.1465   23.7579 O   0  0  0  0  0  0
  -25.3805  -21.3674   19.0781 C   0  0  0  0  0  0
  -25.3305  -20.1092   18.4530 C   0  0  0  0  0  0
  -24.8510  -19.0649   20.5907 C   0  0  0  0  0  0
  -27.9399  -22.6046   20.0623 C   0  0  0  0  0  0
  -25.0117  -20.3096   21.2557 C   0  0  0  0  0  0
  -27.1016  -24.6674   20.9961 C   0  0  0  0  0  0
  -25.3289  -21.4514   20.4881 C   0  0  0  0  0  0
  -26.9406  -23.2926   20.7560 C   0  0  0  0  0  0
  -25.1125  -18.9305   19.1840 C   0  0  0  0  0  0
  -28.9604  -23.3275   19.4529 C   0  0  0  0  0  0
  -28.1587  -25.3289   20.2931 C   0  0  0  0  0  0
  -27.1192  -15.2060   21.3570 C   0  0  0  0  0  0
  -26.4270  -13.6772   18.1240 C   0  0  0  0  0  0
  -27.8578  -13.2801   21.9452 C   0  0  0  0  0  0
  -27.5452  -11.9978   18.9325 C   0  0  0  0  0  0
  -26.2661  -15.4217   19.3022 C   0  0  0  0  0  0
  -25.0046  -20.4260   22.7870 C   0  0  0  0  0  0
  -26.0798  -25.3642   21.8985 C   0  0  0  0  0  0
  -29.9141  -22.6165   18.5238 C   0  0  0  0  0  0
  -25.0698  -16.4496   18.9827 C   0  0  0  0  0  0
  -29.0620  -24.6666   19.5382 N   0  0  0  0  0  0
  -28.6274  -12.2656   20.5175 N   0  0  0  0  0  0
  -25.7639  -22.6268   21.1082 N   0  0  0  0  0  0
  -25.2688  -17.7571   18.4264 O   0  0  0  0  0  0
  -31.8495  -11.5009   19.5678 H   0  0  0  0  0  0
  -30.4446  -10.6837   19.9611 H   0  0  0  0  0  0
  -29.7681  -11.2946   17.5006 H   0  0  0  0  0  0
  -30.9051  -12.4927   17.4029 H   0  0  0  0  0  0
  -28.5296  -13.5130   17.0573 H   0  0  0  0  0  0
  -29.6588  -14.4801   17.7344 H   0  0  0  0  0  0
  -28.4357  -15.2858   19.3932 H   0  0  0  0  0  0
  -29.5321  -14.7846   21.9141 H   0  0  0  0  0  0
  -30.1286  -15.3200   20.6929 H   0  0  0  0  0  0
  -25.2915   -9.5111   22.4987 H   0  0  0  0  0  0
  -23.9693   -7.4230   22.7644 H   0  0  0  0  0  0
  -21.0739   -8.8320   19.9119 H   0  0  0  0  0  0
  -22.3754  -10.8922   19.5891 H   0  0  0  0  0  0
  -21.1888   -7.6002   23.9599 H   0  0  0  0  0  0
  -21.1636   -6.0631   25.9185 H   0  0  0  0  0  0
  -22.0645   -2.7473   23.3019 H   0  0  0  0  0  0
  -22.2890  -11.8520   22.5576 H   0  0  0  0  0  0
  -20.9263  -12.9504   22.3803 H   0  0  0  0  0  0
  -23.6101  -15.3945   21.0650 H   0  0  0  0  0  0
  -25.2712  -15.7543   21.4558 H   0  0  0  0  0  0
  -26.7028  -32.5611   23.1185 H   0  0  0  0  0  0
  -25.0042  -33.9845   25.0531 H   0  0  0  0  0  0
  -22.6780  -31.3116   21.4279 H   0  0  0  0  0  0
  -23.3746  -35.9678   23.3337 H   0  0  0  0  0  0
  -24.3612  -36.8882   22.2047 H   0  0  0  0  0  0
  -23.7274  -37.6547   23.6626 H   0  0  0  0  0  0
  -26.0212  -31.6322   20.6088 H   0  0  0  0  0  0
  -26.8060  -30.9083   21.9829 H   0  0  0  0  0  0
  -28.0545  -29.1052   21.2486 H   0  0  0  0  0  0
  -26.0681  -26.0898   18.8561 H   0  0  0  0  0  0
  -23.9881  -27.3886   18.9344 H   0  0  0  0  0  0
  -23.6966  -30.6376   19.4083 H   0  0  0  0  0  0
  -22.7324  -29.2694   19.8603 H   0  0  0  0  0  0
  -25.1299  -36.1998   25.0848 H   0  0  0  0  0  0
  -20.9959  -28.3200   24.1480 H   0  0  0  0  0  0
  -20.5664  -26.2183   23.3608 H   0  0  0  0  0  0
  -21.6624  -26.7371   22.1248 H   0  0  0  0  0  0
  -19.6923  -25.6253   21.1263 H   0  0  0  0  0  0
  -19.6733  -27.3165   20.6801 H   0  0  0  0  0  0
  -17.4178  -26.6593   21.4045 H   0  0  0  0  0  0
  -18.0304  -26.0038   22.9048 H   0  0  0  0  0  0
  -19.7911  -30.7245   24.2279 H   0  0  0  0  0  0
  -17.4997  -31.6285   24.5134 H   0  0  0  0  0  0
  -15.5336  -30.3031   23.7664 H   0  0  0  0  0  0
  -15.8593  -28.0875   22.7085 H   0  0  0  0  0  0
  -24.5920  -30.7044   25.7822 H   0  0  0  0  0  0
  -24.9019  -32.2834   26.5015 H   0  0  0  0  0  0
  -25.8207  -30.8770   27.0175 H   0  0  0  0  0  0
  -26.2761  -29.6795   24.1145 H   0  0  0  0  0  0
  -27.4108  -29.7285   25.4452 H   0  0  0  0  0  0
  -27.8587  -30.4355   23.9100 H   0  0  0  0  0  0
  -27.2684  -33.3554   26.2115 H   0  0  0  0  0  0
  -28.3845  -32.6879   25.0264 H   0  0  0  0  0  0
  -28.0745  -31.8332   26.5308 H   0  0  0  0  0  0
  -28.2623  -38.0084   24.7453 H   0  0  0  0  0  0
  -28.1046  -36.2603   24.6387 H   0  0  0  0  0  0
  -27.2283  -37.1574   25.8871 H   0  0  0  0  0  0
  -20.9219  -29.8794   21.7067 H   0  0  0  0  0  0
  -26.0200  -38.2877   24.1368 H   0  0  0  0  0  0
  -25.6080  -22.2326   18.4685 H   0  0  0  0  0  0
  -25.5108  -20.0040   17.3932 H   0  0  0  0  0  0
  -24.6200  -18.2308   21.2268 H   0  0  0  0  0  0
  -27.8786  -21.5428   19.8832 H   0  0  0  0  0  0
  -27.8542  -16.0020   21.4718 H   0  0  0  0  0  0
  -26.5449  -15.5713   22.2168 H   0  0  0  0  0  0
  -25.4343  -13.2465   17.9902 H   0  0  0  0  0  0
  -26.5858  -13.9644   17.0689 H   0  0  0  0  0  0
  -27.0989  -12.7355   22.5171 H   0  0  0  0  0  0
  -28.5189  -13.3268   22.8223 H   0  0  0  0  0  0
  -27.9114  -11.4419   18.0840 H   0  0  0  0  0  0
  -27.0061  -11.0466   19.0450 H   0  0  0  0  0  0
  -26.8967  -16.1226   18.7570 H   0  0  0  0  0  0
  -24.9713  -19.4793   23.3103 H   0  0  0  0  0  0
  -24.1645  -21.0210   23.1437 H   0  0  0  0  0  0
  -25.9212  -20.9048   23.1273 H   0  0  0  0  0  0
  -25.9191  -24.7575   22.7836 H   0  0  0  0  0  0
  -25.1232  -25.4685   21.3874 H   0  0  0  0  0  0
  -26.3989  -26.3518   22.2392 H   0  0  0  0  0  0
  -29.8514  -21.5406   18.6781 H   0  0  0  0  0  0
  -30.9351  -22.9328   18.7047 H   0  0  0  0  0  0
  -29.6481  -22.8298   17.4876 H   0  0  0  0  0  0
  -24.6827  -16.7749   19.9110 H   0  0  0  0  0  0
  -24.2035  -15.9660   18.5445 H   0  0  0  0  0  0
  -25.3951  -22.8325   22.0240 H   0  0  0  0  0  0
  1 25  1  0  0  0
  1 30  2  0  0  0
  1 92  1  0  0  0
  2  3  1  0  0  0
  2 25  1  0  0  0
  2 95  1  0  0  0
  2 96  1  0  0  0
  3  4  1  0  0  0
  3 97  1  0  0  0
  3 98  1  0  0  0
  4  5  1  0  0  0
  4 99  1  0  0  0
  4100  1  0  0  0
  5  6  1  0  0  0
  5 26  1  0  0  0
  5101  1  0  0  0
  6 25  1  0  0  0
  6102  1  0  0  0
  6103  1  0  0  0
  7  8  2  0  0  0
  7 26  1  0  0  0
  7 29  1  0  0  0
  8  9  1  0  0  0
  8 22  1  0  0  0
  9 10  1  0  0  0
  9 27  2  0  0  0
 10 11  2  0  0  0
 10 15  1  0  0  0
 11 12  1  0  0  0
 11104  1  0  0  0
 12 13  2  0  0  0
 12105  1  0  0  0
 13 14  1  0  0  0
 13 31  1  0  0  0
 14 15  2  0  0  0
 14106  1  0  0  0
 15107  1  0  0  0
 16 17  2  0  0  0
 16 21  1  0  0  0
 16 31  1  0  0  0
 17 18  1  0  0  0
 17108  1  0  0  0
 18 19  2  0  0  0
 18109  1  0  0  0
 19 20  1  0  0  0
 19 24  1  0  0  0
 20 21  2  0  0  0
 20110  1  0  0  0
 21 23  1  0  0  0
 22 28  1  0  0  0
 22 32  2  0  0  0
 26 27  1  0  0  0
 28111  1  0  0  0
 28112  1  0  0  0
 29113  1  0  0  0
 29114  1  0  0  0
 33 34  1  0  0  0
 33 66  1  0  0  0
 33 70  2  0  0  0
 34 36  1  0  0  0
 34 59  1  0  0  0
 34115  1  0  0  0
 35 44  2  0  0  0
 35 45  1  0  0  0
 35 68  1  0  0  0
 36 56  1  0  0  0
 36116  1  0  0  0
 37 39  1  0  0  0
 37 47  1  0  0  0
 37 66  1  0  0  0
 37117  1  0  0  0
 38 43  2  0  0  0
 38 46  1  0  0  0
 38 47  1  0  0  0
 39 64  1  0  0  0
 39 67  2  0  0  0
 40 52  1  0  0  0
 40 53  2  0  0  0
 40 58  1  0  0  0
 41118  1  0  0  0
 41119  1  0  0  0
 41120  1  0  0  0
 41 48  1  0  0  0
 42 43  1  0  0  0
 42 66  1  0  0  0
 42121  1  0  0  0
 42122  1  0  0  0
 43 44  1  0  0  0
 44123  1  0  0  0
 45 46  2  0  0  0
 45124  1  0  0  0
 46125  1  0  0  0
 47126  1  0  0  0
 47127  1  0  0  0
 48 56  1  0  0  0
 48 65  1  0  0  0
 48128  1  0  0  0
 49 50  1  0  0  0
 49 53  1  0  0  0
 49 64  1  0  0  0
 49129  1  0  0  0
 50 51  1  0  0  0
 50130  1  0  0  0
 50131  1  0  0  0
 51 52  1  0  0  0
 51132  1  0  0  0
 51133  1  0  0  0
 52134  1  0  0  0
 52135  1  0  0  0
 53 54  1  0  0  0
 54 55  2  0  0  0
 54136  1  0  0  0
 55 57  1  0  0  0
 55137  1  0  0  0
 56 69  2  0  0  0
 57 58  2  0  0  0
 57138  1  0  0  0
 58139  1  0  0  0
 59 60  1  0  0  0
 59 61  1  0  0  0
 59 62  1  0  0  0
 60140  1  0  0  0
 60141  1  0  0  0
 60142  1  0  0  0
 61143  1  0  0  0
 61144  1  0  0  0
 61145  1  0  0  0
 62146  1  0  0  0
 62147  1  0  0  0
 62148  1  0  0  0
 63 65  1  0  0  0
 63149  1  0  0  0
 63150  1  0  0  0
 63151  1  0  0  0
 64152  1  0  0  0
 65153  1  0  0  0
 68 81  1  0  0  0
 71 72  2  0  0  0
 71 77  1  0  0  0
 71154  1  0  0  0
 72 79  1  0  0  0
 72155  1  0  0  0
 73 75  1  0  0  0
 73 79  2  0  0  0
 73156  1  0  0  0
 74 78  2  0  0  0
 74 80  1  0  0  0
 74157  1  0  0  0
 75 77  2  0  0  0
 75 87  1  0  0  0
 76 78  1  0  0  0
 76 81  2  0  0  0
 76 88  1  0  0  0
 77 93  1  0  0  0
 78 93  1  0  0  0
 79 94  1  0  0  0
 80 89  1  0  0  0
 80 91  2  0  0  0
 81 91  1  0  0  0
 82 84  1  0  0  0
 82 86  1  0  0  0
 82158  1  0  0  0
 82159  1  0  0  0
 83 85  1  0  0  0
 83 86  1  0  0  0
 83160  1  0  0  0
 83161  1  0  0  0
 84 92  1  0  0  0
 84162  1  0  0  0
 84163  1  0  0  0
 85 92  1  0  0  0
 85164  1  0  0  0
 85165  1  0  0  0
 86 90  1  0  0  0
 86166  1  0  0  0
 87167  1  0  0  0
 87168  1  0  0  0
 87169  1  0  0  0
 88170  1  0  0  0
 88171  1  0  0  0
 88172  1  0  0  0
 89173  1  0  0  0
 89174  1  0  0  0
 89175  1  0  0  0
 90 94  1  0  0  0
 90176  1  0  0  0
 90177  1  0  0  0
 93178  1  0  0  0
M  ISO  4   1 100  68 101  81 101  92 100
M  END
> <chiral flag>
0

> <version>
0

> <s_m_source_file>
/data/baiqing/PycharmProjects/Reinvent-master-3.2/result/LINK_invent/BTK/process_docking_weight1_custom_sum_contain_oxygen_bond_distance_aromatic_linkinvent_7_9_3/rearranged_h_0145.sdf

> <i_m_source_file_index>
47

> <r_mmod_Potential_Energy-OPLS-2005>
11030.4931640625

> <r_mmod_Stretch_Energy-OPLS-2005>
5279.49365234375

> <r_mmod_Bend_Energy-OPLS-2005>
1227.4853515625

> <r_mmod_Torsional_Energy-OPLS-2005>
508.623046875

> <r_mmod_Improper_Torsional_Energy-OPLS-2005>
18.047887802124

> <r_mmod_Van_der_Waal_Energy-OPLS-2005>
3244.46826171875

> <r_mmod_Electrostatic_Energy-OPLS-2005>
-530.158264160156

> <r_mmod_Solvation_Energy-OPLS-2005>
-221.588455200195

> <b_mmod_Minimization_Converged-OPLS-2005>
0

> <r_mmod_RMS_Derivative-OPLS-2005>
25.3041954040527

$$$$
48
                    3D
 Structure written by MMmdl.
173182  0  0  1  0            999 V2000
  -30.6984  -14.5024   20.5644 C   0  0  0  0  0  0
  -30.4233  -12.3248   19.4282 C   0  0  0  0  0  0
  -29.4957  -12.5066   18.2087 C   0  0  0  0  0  0
  -28.0172  -12.3632   18.6205 C   0  0  0  0  0  0
  -27.6596  -13.2104   19.8723 C   0  0  2  0  0  0
  -28.7024  -13.0114   20.9954 C   0  0  0  0  0  0
  -25.2585  -13.8162   20.5693 C   0  0  0  0  0  0
  -24.1841  -13.0434   20.9179 C   0  0  0  0  0  0
  -24.6392  -11.6906   20.8732 C   0  0  0  0  0  0
  -23.9052  -10.4291   21.0405 C   0  0  0  0  0  0
  -24.3613   -9.4209   21.9182 C   0  0  0  0  0  0
  -23.6299   -8.2245   22.0752 C   0  0  0  0  0  0
  -22.4277   -8.0281   21.3548 C   0  0  0  0  0  0
  -21.9911   -9.0245   20.4641 C   0  0  0  0  0  0
  -22.7232  -10.2130   20.3049 C   0  0  0  0  0  0
  -21.6848   -6.0743   22.5283 C   0  0  0  0  0  0
  -21.4007   -6.5642   23.8219 C   0  0  0  0  0  0
  -21.3664   -5.6790   24.9181 C   0  0  0  0  0  0
  -21.6042   -4.3056   24.7223 C   0  0  0  0  0  0
  -21.8820   -3.8151   23.4346 C   0  0  0  0  0  0
  -21.9194   -4.6968   22.3409 C   0  0  0  0  0  0
  -22.7862  -13.5237   21.1843 C   0  0  0  0  0  0
  -22.1664   -4.2158   21.0981 F   0  0  0  0  0  0
  -21.5631   -3.4539   25.7737 F   0  0  0  0  0  0
  -30.0295  -13.3210   20.4390 N   0  0  0  0  0  0
  -26.3017  -12.9341   20.3357 N   0  0  0  0  0  0
  -25.9320  -11.6493   20.5764 N   0  0  0  0  0  0
  -22.0498  -12.8234   22.0397 N   0  0  0  0  0  0
  -25.4291  -15.1883   20.4102 N   0  0  0  0  0  0
  -31.8275  -14.6757   20.0993 O   0  0  0  0  0  0
  -21.6644   -6.8881   21.4245 O   0  0  0  0  0  0
  -22.3554  -14.5554   20.6696 O   0  0  0  0  0  0
  -24.6197  -31.8656   23.2080 C   0  0  0  0  0  0
  -25.9080  -32.4802   23.8385 C   0  0  1  0  0  0
  -27.2297  -27.3996   20.0991 C   0  0  0  0  0  0
  -25.5940  -33.8604   24.2326 N   0  0  0  0  0  0
  -23.4078  -30.4905   21.5492 C   0  0  2  0  0  0
  -24.8519  -28.9508   20.1161 C   0  0  0  0  0  0
  -22.7432  -29.4669   22.4987 C   0  0  0  0  0  0
  -18.0285  -28.1379   22.8498 C   0  0  0  0  0  0
  -24.1489  -36.7299   23.2636 C   0  0  0  0  0  0
  -25.9412  -30.8211   21.3645 C   0  0  0  0  0  0
  -26.0167  -29.4543   20.7089 C   0  0  0  0  0  0
  -27.2103  -28.6899   20.6889 C   0  0  0  0  0  0
  -26.0428  -26.9194   19.5044 C   0  0  0  0  0  0
  -24.8617  -27.6846   19.5099 C   0  0  0  0  0  0
  -23.6157  -29.8216   20.1650 C   0  0  0  0  0  0
  -25.4108  -36.3096   24.0338 C   0  0  1  0  0  0
  -20.5877  -28.3677   23.1310 C   0  0  2  0  0  0
  -20.6775  -26.9411   22.5408 C   0  0  0  0  0  0
  -19.5750  -26.6384   21.5215 C   0  0  0  0  0  0
  -18.1930  -26.7927   22.1621 C   0  0  0  0  0  0
  -19.1530  -28.8843   23.2899 C   0  0  0  0  0  0
  -18.9454  -30.1451   23.8907 C   0  0  0  0  0  0
  -17.6456  -30.6583   24.0569 C   0  0  0  0  0  0
  -25.9051  -34.9466   23.5126 C   0  0  0  0  0  0
  -16.5348  -29.9074   23.6330 C   0  0  0  0  0  0
  -16.7270  -28.6494   23.0356 C   0  0  0  0  0  0
  -26.4494  -31.6582   25.0716 C   0  0  0  0  0  0
  -25.3753  -31.3676   26.1455 C   0  0  0  0  0  0
  -27.0339  -30.3032   24.6100 C   0  0  0  0  0  0
  -27.6072  -32.4301   25.7474 C   0  0  0  0  0  0
  -27.5584  -37.1801   24.8461 C   0  0  0  0  0  0
  -21.4158  -29.3044   22.3714 N   0  0  0  0  0  0
  -26.4290  -37.3783   23.9411 N   0  0  0  0  0  0
  -24.6746  -31.0736   22.0989 N   0  0  0  0  0  0
  -23.4187  -28.8222   23.3049 O   0  0  0  0  0  0
  -28.3871  -26.6363   20.0919 O   0  0  0  0  0  0
  -26.5587  -34.8924   22.4675 O   0  0  0  0  0  0
  -23.5380  -32.1424   23.7458 O   0  0  0  0  0  0
  -30.6439  -19.3078   20.3233 C   0  0  0  0  0  0
  -30.5219  -18.9451   22.8186 C   0  0  0  0  0  0
  -28.0513  -22.7566   20.0489 C   0  0  0  0  0  0
  -29.4540  -23.5041   22.0126 C   0  0  0  0  0  0
  -30.0584  -17.8764   20.1320 C   0  0  0  0  0  0
  -29.9276  -17.5360   22.5805 C   0  0  0  0  0  0
  -28.2036  -24.1823   19.4455 C   0  0  0  0  0  0
  -29.5307  -24.9217   21.3915 C   0  0  0  0  0  0
  -30.3056  -19.9981   21.6815 C   0  0  2  0  0  0
  -29.2087  -22.3399   20.9997 C   0  0  1  0  0  0
  -30.4680  -16.9229   21.2804 C   0  0  1  0  0  0
  -28.2846  -25.2624   20.5523 C   0  0  1  0  0  0
  -28.8082  -21.3752   24.2407 C   0  0  0  0  0  0
  -28.9925  -20.8907   21.6352 C   0  0  2  0  0  0
  -28.1156  -20.9423   22.9295 C   0  0  1  0  0  0
  -30.0043  -15.5263   21.1089 N   0  0  0  0  0  0
  -27.4747  -19.7035   23.1491 O   0  0  0  0  0  0
  -31.4677  -12.4240   19.1268 H   0  0  0  0  0  0
  -30.3287  -11.3178   19.8362 H   0  0  0  0  0  0
  -29.7431  -11.7766   17.4365 H   0  0  0  0  0  0
  -29.6579  -13.4898   17.7635 H   0  0  0  0  0  0
  -27.8307  -11.3072   18.8189 H   0  0  0  0  0  0
  -27.3671  -12.6311   17.7869 H   0  0  0  0  0  0
  -27.6972  -14.2564   19.5668 H   0  0  0  0  0  0
  -28.6850  -11.9794   21.3500 H   0  0  0  0  0  0
  -28.4614  -13.6231   21.8655 H   0  0  0  0  0  0
  -25.2762   -9.5700   22.4752 H   0  0  0  0  0  0
  -24.0016   -7.4637   22.7469 H   0  0  0  0  0  0
  -21.0849   -8.8743   19.8948 H   0  0  0  0  0  0
  -22.3680  -10.9659   19.6155 H   0  0  0  0  0  0
  -21.1991   -7.6145   23.9727 H   0  0  0  0  0  0
  -21.1488   -6.0518   25.9082 H   0  0  0  0  0  0
  -22.0599   -2.7610   23.2836 H   0  0  0  0  0  0
  -22.4107  -11.9886   22.4784 H   0  0  0  0  0  0
  -21.1107  -13.1252   22.2578 H   0  0  0  0  0  0
  -24.6608  -15.8410   20.5210 H   0  0  0  0  0  0
  -26.2809  -15.6306   20.0884 H   0  0  0  0  0  0
  -26.7156  -32.5482   23.1148 H   0  0  0  0  0  0
  -25.0128  -33.9764   25.0498 H   0  0  0  0  0  0
  -22.6984  -31.3089   21.4090 H   0  0  0  0  0  0
  -23.3759  -35.9625   23.3287 H   0  0  0  0  0  0
  -24.3590  -36.8918   22.2056 H   0  0  0  0  0  0
  -23.7240  -37.6500   23.6655 H   0  0  0  0  0  0
  -26.0615  -31.5880   20.5982 H   0  0  0  0  0  0
  -26.8266  -30.8690   21.9863 H   0  0  0  0  0  0
  -28.1104  -29.0788   21.1435 H   0  0  0  0  0  0
  -26.0122  -25.9558   19.0246 H   0  0  0  0  0  0
  -23.9666  -27.2898   19.0490 H   0  0  0  0  0  0
  -23.7263  -30.5952   19.4049 H   0  0  0  0  0  0
  -22.7382  -29.2437   19.8685 H   0  0  0  0  0  0
  -25.1293  -36.1950   25.0831 H   0  0  0  0  0  0
  -20.9975  -28.3235   24.1431 H   0  0  0  0  0  0
  -20.5688  -26.2290   23.3600 H   0  0  0  0  0  0
  -21.6646  -26.7458   22.1189 H   0  0  0  0  0  0
  -19.6904  -25.6297   21.1237 H   0  0  0  0  0  0
  -19.6681  -27.3204   20.6759 H   0  0  0  0  0  0
  -17.4206  -26.6709   21.4014 H   0  0  0  0  0  0
  -18.0311  -26.0051   22.8999 H   0  0  0  0  0  0
  -19.7931  -30.7275   24.2266 H   0  0  0  0  0  0
  -17.5005  -31.6265   24.5172 H   0  0  0  0  0  0
  -15.5349  -30.2982   23.7643 H   0  0  0  0  0  0
  -15.8674  -28.0808   22.7072 H   0  0  0  0  0  0
  -24.5943  -30.7005   25.7788 H   0  0  0  0  0  0
  -24.8922  -32.2815   26.4923 H   0  0  0  0  0  0
  -25.8101  -30.8834   27.0206 H   0  0  0  0  0  0
  -26.2888  -29.6764   24.1184 H   0  0  0  0  0  0
  -27.4157  -29.7296   25.4558 H   0  0  0  0  0  0
  -27.8705  -30.4368   23.9234 H   0  0  0  0  0  0
  -27.2715  -33.3618   26.2044 H   0  0  0  0  0  0
  -28.3886  -32.6821   25.0292 H   0  0  0  0  0  0
  -28.0733  -31.8416   26.5386 H   0  0  0  0  0  0
  -28.2587  -38.0115   24.7541 H   0  0  0  0  0  0
  -28.1101  -36.2651   24.6249 H   0  0  0  0  0  0
  -27.2301  -37.1392   25.8862 H   0  0  0  0  0  0
  -20.9329  -29.8760   21.6924 H   0  0  0  0  0  0
  -26.0174  -38.2857   24.1422 H   0  0  0  0  0  0
  -30.3473  -19.9461   19.4899 H   0  0  0  0  0  0
  -31.7292  -19.2282   20.2479 H   0  0  0  0  0  0
  -31.6003  -18.8044   22.9132 H   0  0  0  0  0  0
  -30.2327  -19.3117   23.7969 H   0  0  0  0  0  0
  -27.9783  -22.0345   19.2339 H   0  0  0  0  0  0
  -27.1013  -22.7021   20.5828 H   0  0  0  0  0  0
  -28.6456  -23.5456   22.7406 H   0  0  0  0  0  0
  -30.3694  -23.3182   22.5736 H   0  0  0  0  0  0
  -30.4049  -17.4731   19.1792 H   0  0  0  0  0  0
  -28.9717  -17.9324   20.0600 H   0  0  0  0  0  0
  -28.8395  -17.5664   22.5482 H   0  0  0  0  0  0
  -30.1883  -16.8948   23.4247 H   0  0  0  0  0  0
  -27.3737  -24.3666   18.7675 H   0  0  0  0  0  0
  -29.1006  -24.2227   18.8259 H   0  0  0  0  0  0
  -30.4248  -25.0045   20.7735 H   0  0  0  0  0  0
  -29.6395  -25.6600   22.1872 H   0  0  0  0  0  0
  -31.0966  -20.7297   21.8554 H   0  0  0  0  0  0
  -30.0969  -22.2844   20.3676 H   0  0  0  0  0  0
  -31.5590  -16.9081   21.3436 H   0  0  0  0  0  0
  -27.4063  -25.1707   21.1958 H   0  0  0  0  0  0
  -28.2794  -22.2120   24.6980 H   0  0  0  0  0  0
  -29.8370  -21.6952   24.0762 H   0  0  0  0  0  0
  -28.8358  -20.5836   24.9906 H   0  0  0  0  0  0
  -28.3613  -20.3711   20.9126 H   0  0  0  0  0  0
  -27.3017  -21.6446   22.7443 H   0  0  0  0  0  0
  -29.0794  -15.3030   21.4451 H   0  0  0  0  0  0
  -28.1596  -19.0460   23.2168 H   0  0  0  0  0  0
  1 25  1  0  0  0
  1 30  2  0  0  0
  1 86  1  0  0  0
  2  3  1  0  0  0
  2 25  1  0  0  0
  2 88  1  0  0  0
  2 89  1  0  0  0
  3  4  1  0  0  0
  3 90  1  0  0  0
  3 91  1  0  0  0
  4  5  1  0  0  0
  4 92  1  0  0  0
  4 93  1  0  0  0
  5  6  1  0  0  0
  5 26  1  0  0  0
  5 94  1  0  0  0
  6 25  1  0  0  0
  6 95  1  0  0  0
  6 96  1  0  0  0
  7  8  2  0  0  0
  7 26  1  0  0  0
  7 29  1  0  0  0
  8  9  1  0  0  0
  8 22  1  0  0  0
  9 10  1  0  0  0
  9 27  2  0  0  0
 10 11  2  0  0  0
 10 15  1  0  0  0
 11 12  1  0  0  0
 11 97  1  0  0  0
 12 13  2  0  0  0
 12 98  1  0  0  0
 13 14  1  0  0  0
 13 31  1  0  0  0
 14 15  2  0  0  0
 14 99  1  0  0  0
 15100  1  0  0  0
 16 17  2  0  0  0
 16 21  1  0  0  0
 16 31  1  0  0  0
 17 18  1  0  0  0
 17101  1  0  0  0
 18 19  2  0  0  0
 18102  1  0  0  0
 19 20  1  0  0  0
 19 24  1  0  0  0
 20 21  2  0  0  0
 20103  1  0  0  0
 21 23  1  0  0  0
 22 28  1  0  0  0
 22 32  2  0  0  0
 26 27  1  0  0  0
 28104  1  0  0  0
 28105  1  0  0  0
 29106  1  0  0  0
 29107  1  0  0  0
 33 34  1  0  0  0
 33 66  1  0  0  0
 33 70  2  0  0  0
 34 36  1  0  0  0
 34 59  1  0  0  0
 34108  1  0  0  0
 35 44  2  0  0  0
 35 45  1  0  0  0
 35 68  1  0  0  0
 36 56  1  0  0  0
 36109  1  0  0  0
 37 39  1  0  0  0
 37 47  1  0  0  0
 37 66  1  0  0  0
 37110  1  0  0  0
 38 43  2  0  0  0
 38 46  1  0  0  0
 38 47  1  0  0  0
 39 64  1  0  0  0
 39 67  2  0  0  0
 40 52  1  0  0  0
 40 53  2  0  0  0
 40 58  1  0  0  0
 41111  1  0  0  0
 41112  1  0  0  0
 41113  1  0  0  0
 41 48  1  0  0  0
 42 43  1  0  0  0
 42 66  1  0  0  0
 42114  1  0  0  0
 42115  1  0  0  0
 43 44  1  0  0  0
 44116  1  0  0  0
 45 46  2  0  0  0
 45117  1  0  0  0
 46118  1  0  0  0
 47119  1  0  0  0
 47120  1  0  0  0
 48 56  1  0  0  0
 48 65  1  0  0  0
 48121  1  0  0  0
 49 50  1  0  0  0
 49 53  1  0  0  0
 49 64  1  0  0  0
 49122  1  0  0  0
 50 51  1  0  0  0
 50123  1  0  0  0
 50124  1  0  0  0
 51 52  1  0  0  0
 51125  1  0  0  0
 51126  1  0  0  0
 52127  1  0  0  0
 52128  1  0  0  0
 53 54  1  0  0  0
 54 55  2  0  0  0
 54129  1  0  0  0
 55 57  1  0  0  0
 55130  1  0  0  0
 56 69  2  0  0  0
 57 58  2  0  0  0
 57131  1  0  0  0
 58132  1  0  0  0
 59 60  1  0  0  0
 59 61  1  0  0  0
 59 62  1  0  0  0
 60133  1  0  0  0
 60134  1  0  0  0
 60135  1  0  0  0
 61136  1  0  0  0
 61137  1  0  0  0
 61138  1  0  0  0
 62139  1  0  0  0
 62140  1  0  0  0
 62141  1  0  0  0
 63 65  1  0  0  0
 63142  1  0  0  0
 63143  1  0  0  0
 63144  1  0  0  0
 64145  1  0  0  0
 65146  1  0  0  0
 68 82  1  0  0  0
 71 75  1  0  0  0
 71147  1  0  0  0
 71148  1  0  0  0
 71 79  1  0  0  0
 72 76  1  0  0  0
 72 79  1  0  0  0
 72149  1  0  0  0
 72150  1  0  0  0
 73 77  1  0  0  0
 73151  1  0  0  0
 73152  1  0  0  0
 73 80  1  0  0  0
 74 78  1  0  0  0
 74 80  1  0  0  0
 74153  1  0  0  0
 74154  1  0  0  0
 75 81  1  0  0  0
 75155  1  0  0  0
 75156  1  0  0  0
 76 81  1  0  0  0
 76157  1  0  0  0
 76158  1  0  0  0
 77 82  1  0  0  0
 77159  1  0  0  0
 77160  1  0  0  0
 78 82  1  0  0  0
 78161  1  0  0  0
 78162  1  0  0  0
 79 84  1  0  0  0
 79163  1  0  0  0
 80 84  1  0  0  0
 80164  1  0  0  0
 81 86  1  0  0  0
 81165  1  0  0  0
 82166  1  0  0  0
 83167  1  0  0  0
 83168  1  0  0  0
 83169  1  0  0  0
 83 85  1  0  0  0
 84 85  1  0  0  0
 84170  1  0  0  0
 85 87  1  0  0  0
 85171  1  0  0  0
 86172  1  0  0  0
 87173  1  0  0  0
M  ISO  4   1 100  68 101  82 101  86 100
M  END
> <chiral flag>
0

> <version>
0

> <s_m_source_file>
/data/baiqing/PycharmProjects/Reinvent-master-3.2/result/LINK_invent/BTK/process_docking_weight1_custom_sum_contain_oxygen_bond_distance_aromatic_linkinvent_7_9_3/rearranged_h_0145.sdf

> <i_m_source_file_index>
48

> <r_mmod_Potential_Energy-OPLS-2005>
70.7861328125

> <r_mmod_Stretch_Energy-OPLS-2005>
55.0419998168945

> <r_mmod_Bend_Energy-OPLS-2005>
136.976837158203

> <r_mmod_Torsional_Energy-OPLS-2005>
302.614135742188

> <r_mmod_Improper_Torsional_Energy-OPLS-2005>
2.94090151786804

> <r_mmod_Van_der_Waal_Energy-OPLS-2005>
141.213577270508

> <r_mmod_Electrostatic_Energy-OPLS-2005>
-379.839996337891

> <r_mmod_Solvation_Energy-OPLS-2005>
-205.075653076172

> <b_mmod_Minimization_Converged-OPLS-2005>
0

> <r_mmod_RMS_Derivative-OPLS-2005>
1.68295073509216

$$$$
49
                    3D
 Structure written by MMmdl.
175184  0  0  1  0            999 V2000
  -30.7298  -14.3596   20.7188 C   0  0  0  0  0  0
  -30.4324  -12.2951   19.3919 C   0  0  0  0  0  0
  -29.4947  -12.5403   18.1924 C   0  0  0  0  0  0
  -28.0148  -12.3951   18.5974 C   0  0  0  0  0  0
  -27.6708  -13.1952   19.8810 C   0  0  2  0  0  0
  -28.7020  -12.8917   20.9886 C   0  0  0  0  0  0
  -25.2647  -13.8157   20.5661 C   0  0  0  0  0  0
  -24.1870  -13.0449   20.9147 C   0  0  0  0  0  0
  -24.6389  -11.6907   20.8699 C   0  0  0  0  0  0
  -23.9038  -10.4305   21.0389 C   0  0  0  0  0  0
  -24.3592   -9.4225   21.9166 C   0  0  0  0  0  0
  -23.6283   -8.2255   22.0739 C   0  0  0  0  0  0
  -22.4261   -8.0290   21.3527 C   0  0  0  0  0  0
  -21.9878   -9.0261   20.4633 C   0  0  0  0  0  0
  -22.7201  -10.2148   20.3039 C   0  0  0  0  0  0
  -21.6857   -6.0723   22.5273 C   0  0  0  0  0  0
  -21.4014   -6.5620   23.8208 C   0  0  0  0  0  0
  -21.3662   -5.6771   24.9173 C   0  0  0  0  0  0
  -21.6048   -4.3028   24.7227 C   0  0  0  0  0  0
  -21.8819   -3.8124   23.4341 C   0  0  0  0  0  0
  -21.9200   -4.6947   22.3398 C   0  0  0  0  0  0
  -22.7911  -13.5275   21.1834 C   0  0  0  0  0  0
  -22.1691   -4.2134   21.0977 F   0  0  0  0  0  0
  -21.5611   -3.4520   25.7737 F   0  0  0  0  0  0
  -30.0516  -13.2081   20.4763 N   0  0  0  0  0  0
  -26.3064  -12.9293   20.3334 N   0  0  0  0  0  0
  -25.9308  -11.6460   20.5682 N   0  0  0  0  0  0
  -22.0514  -12.8287   22.0368 N   0  0  0  0  0  0
  -25.4403  -15.1880   20.4111 N   0  0  0  0  0  0
  -31.7281  -14.7167   20.0856 O   0  0  0  0  0  0
  -21.6639   -6.8878   21.4240 O   0  0  0  0  0  0
  -22.3620  -14.5613   20.6708 O   0  0  0  0  0  0
  -24.6163  -31.8686   23.2110 C   0  0  0  0  0  0
  -25.9054  -32.4830   23.8398 C   0  0  1  0  0  0
  -27.2302  -27.4337   20.0623 C   0  0  0  0  0  0
  -25.5914  -33.8630   24.2323 N   0  0  0  0  0  0
  -23.4019  -30.4951   21.5533 C   0  0  2  0  0  0
  -24.8432  -28.9623   20.1156 C   0  0  0  0  0  0
  -22.7410  -29.4665   22.4989 C   0  0  0  0  0  0
  -18.0284  -28.1378   22.8480 C   0  0  0  0  0  0
  -24.1490  -36.7308   23.2628 C   0  0  0  0  0  0
  -25.9340  -30.8300   21.3666 C   0  0  0  0  0  0
  -26.0069  -29.4663   20.7073 C   0  0  0  0  0  0
  -27.2007  -28.7065   20.6828 C   0  0  0  0  0  0
  -26.0304  -26.9303   19.5059 C   0  0  0  0  0  0
  -24.8477  -27.6909   19.5217 C   0  0  0  0  0  0
  -23.6090  -29.8344   20.1659 C   0  0  0  0  0  0
  -25.4108  -36.3113   24.0333 C   0  0  1  0  0  0
  -20.5866  -28.3667   23.1318 C   0  0  2  0  0  0
  -20.6770  -26.9403   22.5432 C   0  0  0  0  0  0
  -19.5764  -26.6392   21.5208 C   0  0  0  0  0  0
  -18.1931  -26.7935   22.1600 C   0  0  0  0  0  0
  -19.1524  -28.8840   23.2904 C   0  0  0  0  0  0
  -18.9460  -30.1435   23.8929 C   0  0  0  0  0  0
  -17.6458  -30.6576   24.0579 C   0  0  0  0  0  0
  -25.9042  -34.9486   23.5125 C   0  0  0  0  0  0
  -16.5357  -29.9087   23.6318 C   0  0  0  0  0  0
  -16.7262  -28.6509   23.0338 C   0  0  0  0  0  0
  -26.4476  -31.6617   25.0727 C   0  0  0  0  0  0
  -25.3752  -31.3776   26.1501 C   0  0  0  0  0  0
  -27.0258  -30.3034   24.6118 C   0  0  0  0  0  0
  -27.6078  -32.4325   25.7454 C   0  0  0  0  0  0
  -27.5600  -37.1791   24.8436 C   0  0  0  0  0  0
  -21.4137  -29.3034   22.3720 N   0  0  0  0  0  0
  -26.4284  -37.3808   23.9423 N   0  0  0  0  0  0
  -24.6686  -31.0785   22.1019 N   0  0  0  0  0  0
  -23.4178  -28.8209   23.3034 O   0  0  0  0  0  0
  -28.4138  -26.7169   20.0597 O   0  0  0  0  0  0
  -26.5606  -34.8935   22.4687 O   0  0  0  0  0  0
  -23.5357  -32.1452   23.7516 O   0  0  0  0  0  0
  -28.2440  -20.5657   17.9859 C   0  0  0  0  0  0
  -29.7782  -19.3704   22.4887 C   0  0  0  0  0  0
  -29.0610  -19.8372   20.1908 C   0  0  0  0  0  0
  -28.6901  -19.5228   18.8310 C   0  0  0  0  0  0
  -29.5105  -18.8893   21.1880 C   0  0  0  0  0  0
  -28.9625  -21.2138   20.6112 C   0  0  0  0  0  0
  -28.1346  -21.9024   18.4097 C   0  0  0  0  0  0
  -28.5295  -22.2305   19.7173 C   0  0  0  0  0  0
  -29.6246  -20.7246   22.7875 C   0  0  0  0  0  0
  -29.8468  -21.2504   24.1890 C   0  0  0  0  0  0
  -28.0860  -16.4228   16.3906 C   0  0  0  0  0  0
  -27.0491  -22.5582   16.3702 C   0  0  0  0  0  0
  -28.7209  -18.1076   18.2165 C   0  0  0  0  0  0
  -29.6607  -17.3726   20.9591 C   0  0  0  0  0  0
  -28.1677  -17.9049   16.7877 C   0  0  0  0  0  0
  -30.3966  -16.5080   22.0097 C   0  0  0  0  0  0
  -28.6642  -25.7485   19.0230 C   0  0  0  0  0  0
  -29.3534  -24.4694   19.5543 C   0  0  0  0  0  0
  -29.2508  -21.6203   21.8706 N   0  0  0  0  0  0
  -30.2008  -15.0892   21.7106 N   0  0  0  0  0  0
  -27.6369  -22.9155   17.6152 O   0  0  0  0  0  0
  -28.4300  -23.5460   20.1459 O   0  0  0  0  0  0
  -31.4742  -12.4226   19.0916 H   0  0  0  0  0  0
  -30.3509  -11.2629   19.7373 H   0  0  0  0  0  0
  -29.7284  -11.8460   17.3840 H   0  0  0  0  0  0
  -29.6687  -13.5420   17.7940 H   0  0  0  0  0  0
  -27.8111  -11.3353   18.7546 H   0  0  0  0  0  0
  -27.3718  -12.7112   17.7758 H   0  0  0  0  0  0
  -27.7383  -14.2542   19.6325 H   0  0  0  0  0  0
  -28.6655  -11.8347   21.2506 H   0  0  0  0  0  0
  -28.4281  -13.4142   21.9055 H   0  0  0  0  0  0
  -25.2746   -9.5704   22.4732 H   0  0  0  0  0  0
  -23.9997   -7.4643   22.7444 H   0  0  0  0  0  0
  -21.0790   -8.8784   19.8948 H   0  0  0  0  0  0
  -22.3665  -10.9685   19.6140 H   0  0  0  0  0  0
  -21.2014   -7.6125   23.9727 H   0  0  0  0  0  0
  -21.1488   -6.0486   25.9076 H   0  0  0  0  0  0
  -22.0596   -2.7583   23.2860 H   0  0  0  0  0  0
  -22.4102  -11.9925   22.4745 H   0  0  0  0  0  0
  -21.1146  -13.1357   22.2560 H   0  0  0  0  0  0
  -24.6711  -15.8424   20.5017 H   0  0  0  0  0  0
  -26.2914  -15.6192   20.0751 H   0  0  0  0  0  0
  -26.7121  -32.5530   23.1155 H   0  0  0  0  0  0
  -25.0066  -33.9791   25.0470 H   0  0  0  0  0  0
  -22.6908  -31.3128   21.4192 H   0  0  0  0  0  0
  -23.3762  -35.9629   23.3266 H   0  0  0  0  0  0
  -24.3598  -36.8942   22.2050 H   0  0  0  0  0  0
  -23.7225  -37.6497   23.6657 H   0  0  0  0  0  0
  -26.0550  -31.6000   20.6034 H   0  0  0  0  0  0
  -26.8192  -30.8752   21.9896 H   0  0  0  0  0  0
  -28.1031  -29.0991   21.1316 H   0  0  0  0  0  0
  -25.9640  -25.9430   19.0769 H   0  0  0  0  0  0
  -23.9443  -27.2863   19.0868 H   0  0  0  0  0  0
  -23.7249  -30.6155   19.4134 H   0  0  0  0  0  0
  -22.7282  -29.2651   19.8632 H   0  0  0  0  0  0
  -25.1276  -36.1975   25.0825 H   0  0  0  0  0  0
  -20.9953  -28.3254   24.1442 H   0  0  0  0  0  0
  -20.5642  -26.2286   23.3622 H   0  0  0  0  0  0
  -21.6655  -26.7434   22.1259 H   0  0  0  0  0  0
  -19.6938  -25.6310   21.1222 H   0  0  0  0  0  0
  -19.6716  -27.3213   20.6755 H   0  0  0  0  0  0
  -17.4214  -26.6691   21.3989 H   0  0  0  0  0  0
  -18.0315  -26.0059   22.8971 H   0  0  0  0  0  0
  -19.7934  -30.7243   24.2316 H   0  0  0  0  0  0
  -17.5017  -31.6250   24.5191 H   0  0  0  0  0  0
  -15.5358  -30.3011   23.7613 H   0  0  0  0  0  0
  -15.8666  -28.0839   22.7037 H   0  0  0  0  0  0
  -24.5934  -30.7082   25.7889 H   0  0  0  0  0  0
  -24.8945  -32.2961   26.4886 H   0  0  0  0  0  0
  -25.8135  -30.9025   27.0288 H   0  0  0  0  0  0
  -26.2779  -29.6830   24.1161 H   0  0  0  0  0  0
  -27.3978  -29.7249   25.4581 H   0  0  0  0  0  0
  -27.8654  -30.4304   23.9279 H   0  0  0  0  0  0
  -27.2715  -33.3618   26.2069 H   0  0  0  0  0  0
  -28.3852  -32.6900   25.0244 H   0  0  0  0  0  0
  -28.0783  -31.8429   26.5331 H   0  0  0  0  0  0
  -28.2588  -38.0120   24.7553 H   0  0  0  0  0  0
  -28.1127  -36.2666   24.6148 H   0  0  0  0  0  0
  -27.2348  -37.1309   25.8842 H   0  0  0  0  0  0
  -20.9297  -29.8753   21.6941 H   0  0  0  0  0  0
  -26.0169  -38.2869   24.1495 H   0  0  0  0  0  0
  -27.9575  -20.3358   16.9751 H   0  0  0  0  0  0
  -30.0816  -18.7203   23.2963 H   0  0  0  0  0  0
  -29.9012  -20.4373   24.9138 H   0  0  0  0  0  0
  -29.0273  -21.9050   24.4876 H   0  0  0  0  0  0
  -30.7751  -21.8179   24.2416 H   0  0  0  0  0  0
  -27.6152  -16.3161   15.4123 H   0  0  0  0  0  0
  -27.4878  -15.8514   17.1018 H   0  0  0  0  0  0
  -29.0738  -15.9640   16.3360 H   0  0  0  0  0  0
  -26.5209  -23.4132   15.9500 H   0  0  0  0  0  0
  -26.3199  -21.7542   16.4857 H   0  0  0  0  0  0
  -27.8148  -22.2500   15.6566 H   0  0  0  0  0  0
  -28.1398  -17.4456   18.8529 H   0  0  0  0  0  0
  -29.7536  -17.7678   18.1773 H   0  0  0  0  0  0
  -30.2336  -17.2087   20.0566 H   0  0  0  0  0  0
  -28.6589  -16.9593   20.8396 H   0  0  0  0  0  0
  -27.1613  -18.3150   16.7071 H   0  0  0  0  0  0
  -28.7940  -18.4321   16.0657 H   0  0  0  0  0  0
  -29.9758  -16.6457   23.0051 H   0  0  0  0  0  0
  -31.4562  -16.7598   22.0629 H   0  0  0  0  0  0
  -27.8189  -25.4724   18.4007 H   0  0  0  0  0  0
  -29.3548  -26.2358   18.3342 H   0  0  0  0  0  0
  -30.1179  -24.7299   20.2858 H   0  0  0  0  0  0
  -29.8855  -24.0025   18.7226 H   0  0  0  0  0  0
  -29.4479  -14.6379   22.2080 H   0  0  0  0  0  0
  1 25  1  0  0  0
  1 30  2  0  0  0
  1 90  1  0  0  0
  2  3  1  0  0  0
  2 25  1  0  0  0
  2 93  1  0  0  0
  2 94  1  0  0  0
  3  4  1  0  0  0
  3 95  1  0  0  0
  3 96  1  0  0  0
  4  5  1  0  0  0
  4 97  1  0  0  0
  4 98  1  0  0  0
  5  6  1  0  0  0
  5 26  1  0  0  0
  5 99  1  0  0  0
  6 25  1  0  0  0
  6100  1  0  0  0
  6101  1  0  0  0
  7  8  2  0  0  0
  7 26  1  0  0  0
  7 29  1  0  0  0
  8  9  1  0  0  0
  8 22  1  0  0  0
  9 10  1  0  0  0
  9 27  2  0  0  0
 10 11  2  0  0  0
 10 15  1  0  0  0
 11 12  1  0  0  0
 11102  1  0  0  0
 12 13  2  0  0  0
 12103  1  0  0  0
 13 14  1  0  0  0
 13 31  1  0  0  0
 14 15  2  0  0  0
 14104  1  0  0  0
 15105  1  0  0  0
 16 17  2  0  0  0
 16 21  1  0  0  0
 16 31  1  0  0  0
 17 18  1  0  0  0
 17106  1  0  0  0
 18 19  2  0  0  0
 18107  1  0  0  0
 19 20  1  0  0  0
 19 24  1  0  0  0
 20 21  2  0  0  0
 20108  1  0  0  0
 21 23  1  0  0  0
 22 28  1  0  0  0
 22 32  2  0  0  0
 26 27  1  0  0  0
 28109  1  0  0  0
 28110  1  0  0  0
 29111  1  0  0  0
 29112  1  0  0  0
 33 34  1  0  0  0
 33 66  1  0  0  0
 33 70  2  0  0  0
 34 36  1  0  0  0
 34 59  1  0  0  0
 34113  1  0  0  0
 35 44  2  0  0  0
 35 45  1  0  0  0
 35 68  1  0  0  0
 36 56  1  0  0  0
 36114  1  0  0  0
 37 39  1  0  0  0
 37 47  1  0  0  0
 37 66  1  0  0  0
 37115  1  0  0  0
 38 43  2  0  0  0
 38 46  1  0  0  0
 38 47  1  0  0  0
 39 64  1  0  0  0
 39 67  2  0  0  0
 40 52  1  0  0  0
 40 53  2  0  0  0
 40 58  1  0  0  0
 41116  1  0  0  0
 41117  1  0  0  0
 41118  1  0  0  0
 41 48  1  0  0  0
 42 43  1  0  0  0
 42 66  1  0  0  0
 42119  1  0  0  0
 42120  1  0  0  0
 43 44  1  0  0  0
 44121  1  0  0  0
 45 46  2  0  0  0
 45122  1  0  0  0
 46123  1  0  0  0
 47124  1  0  0  0
 47125  1  0  0  0
 48 56  1  0  0  0
 48 65  1  0  0  0
 48126  1  0  0  0
 49 50  1  0  0  0
 49 53  1  0  0  0
 49 64  1  0  0  0
 49127  1  0  0  0
 50 51  1  0  0  0
 50128  1  0  0  0
 50129  1  0  0  0
 51 52  1  0  0  0
 51130  1  0  0  0
 51131  1  0  0  0
 52132  1  0  0  0
 52133  1  0  0  0
 53 54  1  0  0  0
 54 55  2  0  0  0
 54134  1  0  0  0
 55 57  1  0  0  0
 55135  1  0  0  0
 56 69  2  0  0  0
 57 58  2  0  0  0
 57136  1  0  0  0
 58137  1  0  0  0
 59 60  1  0  0  0
 59 61  1  0  0  0
 59 62  1  0  0  0
 60138  1  0  0  0
 60139  1  0  0  0
 60140  1  0  0  0
 61141  1  0  0  0
 61142  1  0  0  0
 61143  1  0  0  0
 62144  1  0  0  0
 62145  1  0  0  0
 62146  1  0  0  0
 63 65  1  0  0  0
 63147  1  0  0  0
 63148  1  0  0  0
 63149  1  0  0  0
 64150  1  0  0  0
 65151  1  0  0  0
 68 87  1  0  0  0
 71 74  2  0  0  0
 71 77  1  0  0  0
 71152  1  0  0  0
 72 75  1  0  0  0
 72 79  2  0  0  0
 72153  1  0  0  0
 73 74  1  0  0  0
 73 75  2  0  0  0
 73 76  1  0  0  0
 74 83  1  0  0  0
 75 84  1  0  0  0
 76 78  1  0  0  0
 76 89  2  0  0  0
 77 78  2  0  0  0
 77 91  1  0  0  0
 78 92  1  0  0  0
 79 80  1  0  0  0
 79 89  1  0  0  0
 80154  1  0  0  0
 80155  1  0  0  0
 80156  1  0  0  0
 81 85  1  0  0  0
 81157  1  0  0  0
 81158  1  0  0  0
 81159  1  0  0  0
 82 91  1  0  0  0
 82160  1  0  0  0
 82161  1  0  0  0
 82162  1  0  0  0
 83 85  1  0  0  0
 83163  1  0  0  0
 83164  1  0  0  0
 84 86  1  0  0  0
 84165  1  0  0  0
 84166  1  0  0  0
 85167  1  0  0  0
 85168  1  0  0  0
 86 90  1  0  0  0
 86169  1  0  0  0
 86170  1  0  0  0
 87 88  1  0  0  0
 87171  1  0  0  0
 87172  1  0  0  0
 88 92  1  0  0  0
 88173  1  0  0  0
 88174  1  0  0  0
 90175  1  0  0  0
M  ISO  4   1 100  68 101  87 101  90 100
M  END
> <chiral flag>
0

> <version>
0

> <s_m_source_file>
/data/baiqing/PycharmProjects/Reinvent-master-3.2/result/LINK_invent/BTK/process_docking_weight1_custom_sum_contain_oxygen_bond_distance_aromatic_linkinvent_7_9_3/rearranged_h_0145.sdf

> <i_m_source_file_index>
49

> <r_mmod_Potential_Energy-OPLS-2005>
-19.5414123535156

> <r_mmod_Stretch_Energy-OPLS-2005>
52.1514625549316

> <r_mmod_Bend_Energy-OPLS-2005>
140.445404052734

> <r_mmod_Torsional_Energy-OPLS-2005>
222.513244628906

> <r_mmod_Improper_Torsional_Energy-OPLS-2005>
2.60400629043579

> <r_mmod_Van_der_Waal_Energy-OPLS-2005>
198.893981933594

> <r_mmod_Electrostatic_Energy-OPLS-2005>
-401.541595458984

> <r_mmod_Solvation_Energy-OPLS-2005>
-244.968475341797

> <b_mmod_Minimization_Converged-OPLS-2005>
0

> <r_mmod_RMS_Derivative-OPLS-2005>
3.08315205574036

$$$$
50
                    3D
 Structure written by MMmdl.
163171  0  0  1  0            999 V2000
  -30.7336  -14.4391   20.6095 C   0  0  0  0  0  0
  -30.4307  -12.3034   19.4161 C   0  0  0  0  0  0
  -29.4953  -12.4928   18.2054 C   0  0  0  0  0  0
  -28.0189  -12.3536   18.6226 C   0  0  0  0  0  0
  -27.6663  -13.2012   19.8745 C   0  0  2  0  0  0
  -28.7085  -12.9819   20.9931 C   0  0  0  0  0  0
  -25.2622  -13.8135   20.5672 C   0  0  0  0  0  0
  -24.1863  -13.0430   20.9180 C   0  0  0  0  0  0
  -24.6394  -11.6887   20.8724 C   0  0  0  0  0  0
  -23.9039  -10.4288   21.0397 C   0  0  0  0  0  0
  -24.3599   -9.4208   21.9180 C   0  0  0  0  0  0
  -23.6288   -8.2235   22.0743 C   0  0  0  0  0  0
  -22.4273   -8.0262   21.3532 C   0  0  0  0  0  0
  -21.9894   -9.0232   20.4630 C   0  0  0  0  0  0
  -22.7200  -10.2128   20.3044 C   0  0  0  0  0  0
  -21.6846   -6.0721   22.5272 C   0  0  0  0  0  0
  -21.4007   -6.5628   23.8203 C   0  0  0  0  0  0
  -21.3673   -5.6784   24.9167 C   0  0  0  0  0  0
  -21.6052   -4.3049   24.7219 C   0  0  0  0  0  0
  -21.8825   -3.8133   23.4343 C   0  0  0  0  0  0
  -21.9194   -4.6947   22.3396 C   0  0  0  0  0  0
  -22.7895  -13.5237   21.1853 C   0  0  0  0  0  0
  -22.1656   -4.2133   21.0976 F   0  0  0  0  0  0
  -21.5651   -3.4532   25.7739 F   0  0  0  0  0  0
  -30.0434  -13.2799   20.4424 N   0  0  0  0  0  0
  -26.3053  -12.9290   20.3360 N   0  0  0  0  0  0
  -25.9334  -11.6461   20.5783 N   0  0  0  0  0  0
  -22.0510  -12.8249   22.0407 N   0  0  0  0  0  0
  -25.4368  -15.1853   20.4099 N   0  0  0  0  0  0
  -31.8289  -14.6539   20.0838 O   0  0  0  0  0  0
  -21.6638   -6.8863   21.4234 O   0  0  0  0  0  0
  -22.3583  -14.5530   20.6666 O   0  0  0  0  0  0
  -24.6134  -31.8701   23.2127 C   0  0  0  0  0  0
  -25.9031  -32.4837   23.8414 C   0  0  1  0  0  0
  -27.2329  -27.4534   20.0767 C   0  0  0  0  0  0
  -25.5898  -33.8637   24.2340 N   0  0  0  0  0  0
  -23.3986  -30.4976   21.5544 C   0  0  2  0  0  0
  -24.8383  -28.9669   20.1185 C   0  0  0  0  0  0
  -22.7393  -29.4689   22.5006 C   0  0  0  0  0  0
  -18.0263  -28.1382   22.8495 C   0  0  0  0  0  0
  -24.1480  -36.7324   23.2637 C   0  0  0  0  0  0
  -25.9268  -30.8436   21.3589 C   0  0  0  0  0  0
  -26.0012  -29.4792   20.7063 C   0  0  0  0  0  0
  -27.1967  -28.7281   20.6839 C   0  0  0  0  0  0
  -26.0349  -26.9395   19.5201 C   0  0  0  0  0  0
  -24.8488  -27.6943   19.5289 C   0  0  0  0  0  0
  -23.6021  -29.8328   20.1682 C   0  0  0  0  0  0
  -25.4100  -36.3127   24.0342 C   0  0  1  0  0  0
  -20.5852  -28.3667   23.1323 C   0  0  2  0  0  0
  -20.6759  -26.9406   22.5417 C   0  0  0  0  0  0
  -19.5741  -26.6393   21.5210 C   0  0  0  0  0  0
  -18.1916  -26.7930   22.1619 C   0  0  0  0  0  0
  -19.1514  -28.8841   23.2911 C   0  0  0  0  0  0
  -18.9439  -30.1443   23.8928 C   0  0  0  0  0  0
  -17.6445  -30.6588   24.0575 C   0  0  0  0  0  0
  -25.9037  -34.9487   23.5143 C   0  0  0  0  0  0
  -16.5338  -29.9097   23.6319 C   0  0  0  0  0  0
  -16.7254  -28.6514   23.0343 C   0  0  0  0  0  0
  -26.4473  -31.6616   25.0729 C   0  0  0  0  0  0
  -25.3761  -31.3705   26.1495 C   0  0  0  0  0  0
  -27.0299  -30.3069   24.6078 C   0  0  0  0  0  0
  -27.6063  -32.4335   25.7477 C   0  0  0  0  0  0
  -27.5590  -37.1799   24.8454 C   0  0  0  0  0  0
  -21.4127  -29.3044   22.3742 N   0  0  0  0  0  0
  -26.4281  -37.3812   23.9430 N   0  0  0  0  0  0
  -24.6660  -31.0832   22.1016 N   0  0  0  0  0  0
  -23.4176  -28.8218   23.3035 O   0  0  0  0  0  0
  -28.4311  -26.7649   20.0938 O   0  0  0  0  0  0
  -26.5585  -34.8936   22.4694 O   0  0  0  0  0  0
  -23.5342  -32.1429   23.7561 O   0  0  0  0  0  0
  -29.6107  -21.2290   20.1140 C   0  0  0  0  0  0
  -31.9214  -20.5677   18.8015 C   0  0  0  0  0  0
  -30.0850  -22.1167   19.1293 C   0  0  0  0  0  0
  -31.2965  -21.7882   18.4692 C   0  0  0  0  0  0
  -30.2987  -20.0293   20.3578 C   0  0  0  0  0  0
  -31.9604  -22.6737   17.4185 C   0  0  0  0  0  0
  -30.6346  -16.9543   23.0995 C   0  0  0  0  0  0
  -29.2302  -23.3264   18.7745 C   0  0  0  0  0  0
  -29.3607  -24.5248   19.7282 C   0  0  0  0  0  0
  -29.5937  -17.7497   20.8956 C   0  0  0  0  0  0
  -28.6911  -25.7642   19.1085 C   0  0  0  0  0  0
  -30.5568  -16.7517   21.5781 C   0  0  2  0  0  0
  -31.4281  -19.6960   19.7081 N   0  0  0  0  0  0
  -29.8045  -19.1349   21.3062 N   0  0  0  0  0  0
  -30.1020  -15.3825   21.3224 N   0  0  0  0  0  0
  -31.4719  -12.4129   19.1060 H   0  0  0  0  0  0
  -30.3491  -11.2916   19.8151 H   0  0  0  0  0  0
  -29.7330  -11.7601   17.4340 H   0  0  0  0  0  0
  -29.6602  -13.4747   17.7592 H   0  0  0  0  0  0
  -27.8363  -11.2976   18.8294 H   0  0  0  0  0  0
  -27.3645  -12.6181   17.7919 H   0  0  0  0  0  0
  -27.7121  -14.2490   19.5751 H   0  0  0  0  0  0
  -28.6868  -11.9458   21.3345 H   0  0  0  0  0  0
  -28.4648  -13.5789   21.8727 H   0  0  0  0  0  0
  -25.2741   -9.5706   22.4746 H   0  0  0  0  0  0
  -24.0003   -7.4636   22.7461 H   0  0  0  0  0  0
  -21.0817   -8.8713   19.8954 H   0  0  0  0  0  0
  -22.3618  -10.9651   19.6150 H   0  0  0  0  0  0
  -21.1977   -7.6127   23.9690 H   0  0  0  0  0  0
  -21.1506   -6.0519   25.9072 H   0  0  0  0  0  0
  -22.0602   -2.7588   23.2838 H   0  0  0  0  0  0
  -22.4097  -11.9916   22.4830 H   0  0  0  0  0  0
  -21.1109  -13.1271   22.2558 H   0  0  0  0  0  0
  -24.6775  -15.8457   20.5345 H   0  0  0  0  0  0
  -26.2940  -15.6220   20.0957 H   0  0  0  0  0  0
  -26.7109  -32.5553   23.1192 H   0  0  0  0  0  0
  -25.0060  -33.9814   25.0498 H   0  0  0  0  0  0
  -22.6865  -31.3142   21.4185 H   0  0  0  0  0  0
  -23.3749  -35.9648   23.3280 H   0  0  0  0  0  0
  -24.3588  -36.8954   22.2056 H   0  0  0  0  0  0
  -23.7214  -37.6520   23.6656 H   0  0  0  0  0  0
  -26.0303  -31.6107   20.5901 H   0  0  0  0  0  0
  -26.8202  -30.9001   21.9691 H   0  0  0  0  0  0
  -28.0981  -29.1277   21.1258 H   0  0  0  0  0  0
  -25.9646  -25.9517   19.0952 H   0  0  0  0  0  0
  -23.9452  -27.2843   19.0973 H   0  0  0  0  0  0
  -23.7110  -30.6078   19.4076 H   0  0  0  0  0  0
  -22.7251  -29.2519   19.8746 H   0  0  0  0  0  0
  -25.1272  -36.1995   25.0834 H   0  0  0  0  0  0
  -20.9943  -28.3223   24.1444 H   0  0  0  0  0  0
  -20.5644  -26.2276   23.3601 H   0  0  0  0  0  0
  -21.6631  -26.7448   22.1216 H   0  0  0  0  0  0
  -19.6899  -25.6305   21.1233 H   0  0  0  0  0  0
  -19.6680  -27.3209   20.6743 H   0  0  0  0  0  0
  -17.4180  -26.6668   21.4024 H   0  0  0  0  0  0
  -18.0321  -26.0069   22.9016 H   0  0  0  0  0  0
  -19.7925  -30.7248   24.2316 H   0  0  0  0  0  0
  -17.5010  -31.6271   24.5169 H   0  0  0  0  0  0
  -15.5345  -30.3019   23.7638 H   0  0  0  0  0  0
  -15.8644  -28.0855   22.7042 H   0  0  0  0  0  0
  -24.5921  -30.7067   25.7834 H   0  0  0  0  0  0
  -24.8971  -32.2857   26.4990 H   0  0  0  0  0  0
  -25.8141  -30.8842   27.0221 H   0  0  0  0  0  0
  -26.2822  -29.6822   24.1177 H   0  0  0  0  0  0
  -27.4132  -29.7318   25.4517 H   0  0  0  0  0  0
  -27.8629  -30.4398   23.9168 H   0  0  0  0  0  0
  -27.2684  -33.3616   26.2099 H   0  0  0  0  0  0
  -28.3841  -32.6929   25.0280 H   0  0  0  0  0  0
  -28.0763  -31.8431   26.5353 H   0  0  0  0  0  0
  -28.2582  -38.0126   24.7575 H   0  0  0  0  0  0
  -28.1118  -36.2672   24.6186 H   0  0  0  0  0  0
  -27.2326  -37.1334   25.8857 H   0  0  0  0  0  0
  -20.9272  -29.8781   21.6990 H   0  0  0  0  0  0
  -26.0176  -38.2884   24.1475 H   0  0  0  0  0  0
  -28.6991  -21.4590   20.6481 H   0  0  0  0  0  0
  -32.8413  -20.2745   18.3158 H   0  0  0  0  0  0
  -32.3814  -22.0553   16.6256 H   0  0  0  0  0  0
  -32.7790  -23.2455   17.8569 H   0  0  0  0  0  0
  -31.2906  -23.3779   16.9321 H   0  0  0  0  0  0
  -31.0655  -17.9257   23.3458 H   0  0  0  0  0  0
  -31.2683  -16.2017   23.5680 H   0  0  0  0  0  0
  -29.6465  -16.9007   23.5584 H   0  0  0  0  0  0
  -28.1896  -22.9973   18.7777 H   0  0  0  0  0  0
  -29.4039  -23.6432   17.7507 H   0  0  0  0  0  0
  -30.4105  -24.7438   19.9308 H   0  0  0  0  0  0
  -28.9054  -24.2735   20.6869 H   0  0  0  0  0  0
  -28.5644  -17.4964   21.1583 H   0  0  0  0  0  0
  -29.6559  -17.6566   19.8093 H   0  0  0  0  0  0
  -27.8223  -25.4429   18.5414 H   0  0  0  0  0  0
  -29.3597  -26.1986   18.3650 H   0  0  0  0  0  0
  -31.5570  -16.9082   21.1678 H   0  0  0  0  0  0
  -29.0351  -19.5061   21.8510 H   0  0  0  0  0  0
  -29.1966  -15.1274   21.6903 H   0  0  0  0  0  0
  1 25  1  0  0  0
  1 30  2  0  0  0
  1 85  1  0  0  0
  2  3  1  0  0  0
  2 25  1  0  0  0
  2 86  1  0  0  0
  2 87  1  0  0  0
  3  4  1  0  0  0
  3 88  1  0  0  0
  3 89  1  0  0  0
  4  5  1  0  0  0
  4 90  1  0  0  0
  4 91  1  0  0  0
  5  6  1  0  0  0
  5 26  1  0  0  0
  5 92  1  0  0  0
  6 25  1  0  0  0
  6 93  1  0  0  0
  6 94  1  0  0  0
  7  8  2  0  0  0
  7 26  1  0  0  0
  7 29  1  0  0  0
  8  9  1  0  0  0
  8 22  1  0  0  0
  9 10  1  0  0  0
  9 27  2  0  0  0
 10 11  2  0  0  0
 10 15  1  0  0  0
 11 12  1  0  0  0
 11 95  1  0  0  0
 12 13  2  0  0  0
 12 96  1  0  0  0
 13 14  1  0  0  0
 13 31  1  0  0  0
 14 15  2  0  0  0
 14 97  1  0  0  0
 15 98  1  0  0  0
 16 17  2  0  0  0
 16 21  1  0  0  0
 16 31  1  0  0  0
 17 18  1  0  0  0
 17 99  1  0  0  0
 18 19  2  0  0  0
 18100  1  0  0  0
 19 20  1  0  0  0
 19 24  1  0  0  0
 20 21  2  0  0  0
 20101  1  0  0  0
 21 23  1  0  0  0
 22 28  1  0  0  0
 22 32  2  0  0  0
 26 27  1  0  0  0
 28102  1  0  0  0
 28103  1  0  0  0
 29104  1  0  0  0
 29105  1  0  0  0
 33 34  1  0  0  0
 33 66  1  0  0  0
 33 70  2  0  0  0
 34 36  1  0  0  0
 34 59  1  0  0  0
 34106  1  0  0  0
 35 44  2  0  0  0
 35 45  1  0  0  0
 35 68  1  0  0  0
 36 56  1  0  0  0
 36107  1  0  0  0
 37 39  1  0  0  0
 37 47  1  0  0  0
 37 66  1  0  0  0
 37108  1  0  0  0
 38 43  2  0  0  0
 38 46  1  0  0  0
 38 47  1  0  0  0
 39 64  1  0  0  0
 39 67  2  0  0  0
 40 52  1  0  0  0
 40 53  2  0  0  0
 40 58  1  0  0  0
 41109  1  0  0  0
 41110  1  0  0  0
 41111  1  0  0  0
 41 48  1  0  0  0
 42 43  1  0  0  0
 42 66  1  0  0  0
 42112  1  0  0  0
 42113  1  0  0  0
 43 44  1  0  0  0
 44114  1  0  0  0
 45 46  2  0  0  0
 45115  1  0  0  0
 46116  1  0  0  0
 47117  1  0  0  0
 47118  1  0  0  0
 48 56  1  0  0  0
 48 65  1  0  0  0
 48119  1  0  0  0
 49 50  1  0  0  0
 49 53  1  0  0  0
 49 64  1  0  0  0
 49120  1  0  0  0
 50 51  1  0  0  0
 50121  1  0  0  0
 50122  1  0  0  0
 51 52  1  0  0  0
 51123  1  0  0  0
 51124  1  0  0  0
 52125  1  0  0  0
 52126  1  0  0  0
 53 54  1  0  0  0
 54 55  2  0  0  0
 54127  1  0  0  0
 55 57  1  0  0  0
 55128  1  0  0  0
 56 69  2  0  0  0
 57 58  2  0  0  0
 57129  1  0  0  0
 58130  1  0  0  0
 59 60  1  0  0  0
 59 61  1  0  0  0
 59 62  1  0  0  0
 60131  1  0  0  0
 60132  1  0  0  0
 60133  1  0  0  0
 61134  1  0  0  0
 61135  1  0  0  0
 61136  1  0  0  0
 62137  1  0  0  0
 62138  1  0  0  0
 62139  1  0  0  0
 63 65  1  0  0  0
 63140  1  0  0  0
 63141  1  0  0  0
 63142  1  0  0  0
 64143  1  0  0  0
 65144  1  0  0  0
 68 81  1  0  0  0
 71 73  2  0  0  0
 71 75  1  0  0  0
 71145  1  0  0  0
 72 74  2  0  0  0
 72 83  1  0  0  0
 72146  1  0  0  0
 73 74  1  0  0  0
 73 78  1  0  0  0
 74 76  1  0  0  0
 75 83  2  0  0  0
 75 84  1  0  0  0
 76147  1  0  0  0
 76148  1  0  0  0
 76149  1  0  0  0
 77150  1  0  0  0
 77151  1  0  0  0
 77152  1  0  0  0
 77 82  1  0  0  0
 78 79  1  0  0  0
 78153  1  0  0  0
 78154  1  0  0  0
 79 81  1  0  0  0
 79155  1  0  0  0
 79156  1  0  0  0
 80 82  1  0  0  0
 80 84  1  0  0  0
 80157  1  0  0  0
 80158  1  0  0  0
 81159  1  0  0  0
 81160  1  0  0  0
 82 85  1  0  0  0
 82161  1  0  0  0
 84162  1  0  0  0
 85163  1  0  0  0
M  ISO  4   1 100  68 101  81 101  85 100
M  END
> <chiral flag>
0

> <version>
0

> <s_m_source_file>
/data/baiqing/PycharmProjects/Reinvent-master-3.2/result/LINK_invent/BTK/process_docking_weight1_custom_sum_contain_oxygen_bond_distance_aromatic_linkinvent_7_9_3/rearranged_h_0145.sdf

> <i_m_source_file_index>
50

> <r_mmod_Potential_Energy-OPLS-2005>
-365.7255859375

> <r_mmod_Stretch_Energy-OPLS-2005>
33.1434020996094

> <r_mmod_Bend_Energy-OPLS-2005>
106.322288513184

> <r_mmod_Torsional_Energy-OPLS-2005>
209.916931152344

> <r_mmod_Improper_Torsional_Energy-OPLS-2005>
6.43364429473877

> <r_mmod_Van_der_Waal_Energy-OPLS-2005>
166.060745239258

> <r_mmod_Electrostatic_Energy-OPLS-2005>
-654.227172851562

> <r_mmod_Solvation_Energy-OPLS-2005>
-244.032745361328

> <b_mmod_Minimization_Converged-OPLS-2005>
0

> <r_mmod_RMS_Derivative-OPLS-2005>
2.79619288444519

$$$$
51
                    3D
 Structure written by MMmdl.
162171  0  0  1  0            999 V2000
  -30.6313  -14.7309   20.5079 C   0  0  0  0  0  0
  -30.4517  -12.4544   19.4556 C   0  0  0  0  0  0
  -29.5080  -12.4892   18.2309 C   0  0  0  0  0  0
  -28.0438  -12.2524   18.6551 C   0  0  0  0  0  0
  -27.6423  -13.1471   19.8474 C   0  0  2  0  0  0
  -28.7066  -13.0948   20.9782 C   0  0  0  0  0  0
  -25.2485  -13.7908   20.5618 C   0  0  0  0  0  0
  -24.1760  -13.0263   20.9226 C   0  0  0  0  0  0
  -24.6305  -11.6742   20.8821 C   0  0  0  0  0  0
  -23.8975  -10.4184   21.0470 C   0  0  0  0  0  0
  -24.3550   -9.4112   21.9234 C   0  0  0  0  0  0
  -23.6241   -8.2147   22.0770 C   0  0  0  0  0  0
  -22.4233   -8.0207   21.3543 C   0  0  0  0  0  0
  -21.9856   -9.0179   20.4654 C   0  0  0  0  0  0
  -22.7171  -10.2060   20.3088 C   0  0  0  0  0  0
  -21.6824   -6.0694   22.5279 C   0  0  0  0  0  0
  -21.3996   -6.5612   23.8209 C   0  0  0  0  0  0
  -21.3661   -5.6777   24.9178 C   0  0  0  0  0  0
  -21.6048   -4.3039   24.7237 C   0  0  0  0  0  0
  -21.8822   -3.8121   23.4360 C   0  0  0  0  0  0
  -21.9186   -4.6928   22.3411 C   0  0  0  0  0  0
  -22.7807  -13.5140   21.1878 C   0  0  0  0  0  0
  -22.1664   -4.2114   21.0990 F   0  0  0  0  0  0
  -21.5634   -3.4529   25.7752 F   0  0  0  0  0  0
  -30.0048  -13.4977   20.4108 N   0  0  0  0  0  0
  -26.2907  -12.8990   20.3304 N   0  0  0  0  0  0
  -25.9215  -11.6231   20.5858 N   0  0  0  0  0  0
  -22.0435  -12.8184   22.0459 N   0  0  0  0  0  0
  -25.3930  -15.1615   20.3885 N   0  0  0  0  0  0
  -31.7943  -14.8271   20.1043 O   0  0  0  0  0  0
  -21.6598   -6.8815   21.4233 O   0  0  0  0  0  0
  -22.3527  -14.5460   20.6717 O   0  0  0  0  0  0
  -24.6231  -31.8610   23.2026 C   0  0  0  0  0  0
  -25.9088  -32.4784   23.8349 C   0  0  1  0  0  0
  -27.2481  -27.3479   20.1281 C   0  0  0  0  0  0
  -25.5915  -33.8584   24.2283 N   0  0  0  0  0  0
  -23.4167  -30.4808   21.5450 C   0  0  2  0  0  0
  -24.8684  -28.9306   20.1187 C   0  0  0  0  0  0
  -22.7459  -29.4625   22.4965 C   0  0  0  0  0  0
  -18.0283  -28.1376   22.8488 C   0  0  0  0  0  0
  -24.1490  -36.7301   23.2639 C   0  0  0  0  0  0
  -25.9533  -30.8006   21.3688 C   0  0  0  0  0  0
  -26.0328  -29.4268   20.7188 C   0  0  0  0  0  0
  -27.2243  -28.6481   20.7114 C   0  0  0  0  0  0
  -26.0628  -26.8927   19.5076 C   0  0  0  0  0  0
  -24.8834  -27.6664   19.5051 C   0  0  0  0  0  0
  -23.6323  -29.8071   20.1633 C   0  0  0  0  0  0
  -25.4112  -36.3090   24.0334 C   0  0  1  0  0  0
  -20.5880  -28.3679   23.1297 C   0  0  2  0  0  0
  -20.6776  -26.9407   22.5417 C   0  0  0  0  0  0
  -19.5752  -26.6380   21.5217 C   0  0  0  0  0  0
  -18.1931  -26.7920   22.1625 C   0  0  0  0  0  0
  -19.1534  -28.8845   23.2886 C   0  0  0  0  0  0
  -18.9459  -30.1452   23.8892 C   0  0  0  0  0  0
  -17.6458  -30.6582   24.0562 C   0  0  0  0  0  0
  -25.9047  -34.9457   23.5109 C   0  0  0  0  0  0
  -16.5351  -29.9077   23.6328 C   0  0  0  0  0  0
  -16.7272  -28.6498   23.0346 C   0  0  0  0  0  0
  -26.4486  -31.6582   25.0707 C   0  0  0  0  0  0
  -25.3732  -31.3710   26.1443 C   0  0  0  0  0  0
  -27.0322  -30.3010   24.6131 C   0  0  0  0  0  0
  -27.6043  -32.4314   25.7482 C   0  0  0  0  0  0
  -27.5580  -37.1807   24.8465 C   0  0  0  0  0  0
  -21.4177  -29.3033   22.3697 N   0  0  0  0  0  0
  -26.4292  -37.3782   23.9410 N   0  0  0  0  0  0
  -24.6829  -31.0634   22.0967 N   0  0  0  0  0  0
  -23.4187  -28.8181   23.3053 O   0  0  0  0  0  0
  -28.4010  -26.5541   20.1249 O   0  0  0  0  0  0
  -26.5617  -34.8923   22.4676 O   0  0  0  0  0  0
  -23.5403  -32.1399   23.7370 O   0  0  0  0  0  0
  -30.8861  -18.0687   19.4610 C   0  0  0  0  0  0
  -30.8657  -19.4853   19.2844 C   0  0  0  0  0  0
  -30.1618  -19.8186   21.5756 C   0  0  0  0  0  0
  -30.4895  -17.5129   20.6995 C   0  0  0  0  0  0
  -30.2195  -18.4051   21.7487 C   0  0  0  0  0  0
  -30.4383  -20.3884   20.3017 C   0  0  0  0  0  0
  -29.8167  -17.6500   22.9882 C   0  0  0  0  0  0
  -29.8942  -16.1570   22.5693 C   0  0  0  0  0  0
  -29.9031  -16.0928   21.0130 C   0  0  2  0  0  0
  -28.2523  -16.4424   18.9727 C   0  0  0  0  0  0
  -28.4430  -16.2761   20.5026 C   0  0  0  0  0  0
  -29.3971  -24.1340   20.0604 C   0  0  0  0  0  0
  -28.2967  -25.1540   20.5757 C   0  0  0  0  0  0
  -29.4094  -22.6571   20.6562 C   0  0  0  0  0  0
  -30.3388  -21.7549   19.9811 O   0  0  0  0  0  0
  -31.4829  -12.5999   19.1315 H   0  0  0  0  0  0
  -30.4320  -11.4706   19.9277 H   0  0  0  0  0  0
  -29.8096  -11.7349   17.5029 H   0  0  0  0  0  0
  -29.5956  -13.4520   17.7257 H   0  0  0  0  0  0
  -27.9380  -11.2025   18.9312 H   0  0  0  0  0  0
  -27.3721  -12.4154   17.8113 H   0  0  0  0  0  0
  -27.6054  -14.1169   19.3892 H   0  0  0  0  0  0
  -28.7731  -12.0805   21.3745 H   0  0  0  0  0  0
  -28.4335  -13.7028   21.8380 H   0  0  0  0  0  0
  -25.2684   -9.5593   22.4822 H   0  0  0  0  0  0
  -23.9941   -7.4528   22.7481 H   0  0  0  0  0  0
  -21.0787   -8.8695   19.8960 H   0  0  0  0  0  0
  -22.3635  -10.9609   19.6204 H   0  0  0  0  0  0
  -21.1986   -7.6121   23.9700 H   0  0  0  0  0  0
  -21.1496   -6.0517   25.9082 H   0  0  0  0  0  0
  -22.0611   -2.7583   23.2872 H   0  0  0  0  0  0
  -22.4017  -11.9821   22.4831 H   0  0  0  0  0  0
  -21.1077  -13.1258   22.2689 H   0  0  0  0  0  0
  -24.6125  -15.7989   20.5005 H   0  0  0  0  0  0
  -26.2374  -15.6181   20.0690 H   0  0  0  0  0  0
  -26.7159  -32.5472   23.1104 H   0  0  0  0  0  0
  -25.0065  -33.9728   25.0429 H   0  0  0  0  0  0
  -22.7093  -31.2998   21.3992 H   0  0  0  0  0  0
  -23.3750  -35.9636   23.3305 H   0  0  0  0  0  0
  -24.3585  -36.8914   22.2054 H   0  0  0  0  0  0
  -23.7245  -37.6506   23.6655 H   0  0  0  0  0  0
  -26.0760  -31.5611   20.5964 H   0  0  0  0  0  0
  -26.8367  -30.8554   21.9934 H   0  0  0  0  0  0
  -28.1208  -29.0317   21.1780 H   0  0  0  0  0  0
  -26.0427  -25.9325   19.0128 H   0  0  0  0  0  0
  -23.9930  -27.2800   19.0281 H   0  0  0  0  0  0
  -23.7475  -30.5800   19.4026 H   0  0  0  0  0  0
  -22.7538  -29.2321   19.8650 H   0  0  0  0  0  0
  -25.1293  -36.1944   25.0828 H   0  0  0  0  0  0
  -20.9967  -28.3249   24.1420 H   0  0  0  0  0  0
  -20.5687  -26.2288   23.3613 H   0  0  0  0  0  0
  -21.6645  -26.7447   22.1204 H   0  0  0  0  0  0
  -19.6918  -25.6294   21.1242 H   0  0  0  0  0  0
  -19.6685  -27.3197   20.6752 H   0  0  0  0  0  0
  -17.4205  -26.6675   21.4022 H   0  0  0  0  0  0
  -18.0321  -26.0058   22.9015 H   0  0  0  0  0  0
  -19.7936  -30.7273   24.2252 H   0  0  0  0  0  0
  -17.5013  -31.6260   24.5164 H   0  0  0  0  0  0
  -15.5351  -30.2976   23.7653 H   0  0  0  0  0  0
  -15.8675  -28.0820   22.7048 H   0  0  0  0  0  0
  -24.5902  -30.7060   25.7780 H   0  0  0  0  0  0
  -24.8929  -32.2874   26.4882 H   0  0  0  0  0  0
  -25.8069  -30.8881   27.0209 H   0  0  0  0  0  0
  -26.2883  -29.6767   24.1167 H   0  0  0  0  0  0
  -27.4048  -29.7250   25.4612 H   0  0  0  0  0  0
  -27.8738  -30.4305   23.9322 H   0  0  0  0  0  0
  -27.2643  -33.3604   26.2070 H   0  0  0  0  0  0
  -28.3849  -32.6890   25.0311 H   0  0  0  0  0  0
  -28.0716  -31.8434   26.5392 H   0  0  0  0  0  0
  -28.2601  -38.0101   24.7511 H   0  0  0  0  0  0
  -28.1072  -36.2632   24.6290 H   0  0  0  0  0  0
  -27.2301  -37.1457   25.8869 H   0  0  0  0  0  0
  -20.9359  -29.8734   21.6889 H   0  0  0  0  0  0
  -26.0175  -38.2860   24.1403 H   0  0  0  0  0  0
  -31.0813  -17.4249   18.6144 H   0  0  0  0  0  0
  -31.1094  -19.8837   18.3096 H   0  0  0  0  0  0
  -29.8629  -20.4446   22.4040 H   0  0  0  0  0  0
  -28.8000  -17.9278   23.2691 H   0  0  0  0  0  0
  -30.4782  -17.8766   23.8249 H   0  0  0  0  0  0
  -29.1067  -15.5606   23.0291 H   0  0  0  0  0  0
  -30.8389  -15.7565   22.9413 H   0  0  0  0  0  0
  -27.2133  -16.3005   18.6791 H   0  0  0  0  0  0
  -28.8576  -15.7391   18.4006 H   0  0  0  0  0  0
  -28.5113  -17.4459   18.6390 H   0  0  0  0  0  0
  -27.9950  -17.1602   20.9583 H   0  0  0  0  0  0
  -27.8224  -15.5053   20.9230 H   0  0  0  0  0  0
  -30.3804  -24.5726   20.2305 H   0  0  0  0  0  0
  -29.2941  -24.0605   18.9776 H   0  0  0  0  0  0
  -28.3378  -25.1765   21.6654 H   0  0  0  0  0  0
  -27.3211  -24.7330   20.3369 H   0  0  0  0  0  0
  -28.4079  -22.2311   20.5842 H   0  0  0  0  0  0
  -29.6563  -22.7003   21.7172 H   0  0  0  0  0  0
  1 25  1  0  0  0
  1 30  2  0  0  0
  1 79  1  0  0  0
  2  3  1  0  0  0
  2 25  1  0  0  0
  2 86  1  0  0  0
  2 87  1  0  0  0
  3  4  1  0  0  0
  3 88  1  0  0  0
  3 89  1  0  0  0
  4  5  1  0  0  0
  4 90  1  0  0  0
  4 91  1  0  0  0
  5  6  1  0  0  0
  5 26  1  0  0  0
  5 92  1  0  0  0
  6 25  1  0  0  0
  6 93  1  0  0  0
  6 94  1  0  0  0
  7  8  2  0  0  0
  7 26  1  0  0  0
  7 29  1  0  0  0
  8  9  1  0  0  0
  8 22  1  0  0  0
  9 10  1  0  0  0
  9 27  2  0  0  0
 10 11  2  0  0  0
 10 15  1  0  0  0
 11 12  1  0  0  0
 11 95  1  0  0  0
 12 13  2  0  0  0
 12 96  1  0  0  0
 13 14  1  0  0  0
 13 31  1  0  0  0
 14 15  2  0  0  0
 14 97  1  0  0  0
 15 98  1  0  0  0
 16 17  2  0  0  0
 16 21  1  0  0  0
 16 31  1  0  0  0
 17 18  1  0  0  0
 17 99  1  0  0  0
 18 19  2  0  0  0
 18100  1  0  0  0
 19 20  1  0  0  0
 19 24  1  0  0  0
 20 21  2  0  0  0
 20101  1  0  0  0
 21 23  1  0  0  0
 22 28  1  0  0  0
 22 32  2  0  0  0
 26 27  1  0  0  0
 28102  1  0  0  0
 28103  1  0  0  0
 29104  1  0  0  0
 29105  1  0  0  0
 33 34  1  0  0  0
 33 66  1  0  0  0
 33 70  2  0  0  0
 34 36  1  0  0  0
 34 59  1  0  0  0
 34106  1  0  0  0
 35 44  2  0  0  0
 35 45  1  0  0  0
 35 68  1  0  0  0
 36 56  1  0  0  0
 36107  1  0  0  0
 37 39  1  0  0  0
 37 47  1  0  0  0
 37 66  1  0  0  0
 37108  1  0  0  0
 38 43  2  0  0  0
 38 46  1  0  0  0
 38 47  1  0  0  0
 39 64  1  0  0  0
 39 67  2  0  0  0
 40 52  1  0  0  0
 40 53  2  0  0  0
 40 58  1  0  0  0
 41109  1  0  0  0
 41110  1  0  0  0
 41111  1  0  0  0
 41 48  1  0  0  0
 42 43  1  0  0  0
 42 66  1  0  0  0
 42112  1  0  0  0
 42113  1  0  0  0
 43 44  1  0  0  0
 44114  1  0  0  0
 45 46  2  0  0  0
 45115  1  0  0  0
 46116  1  0  0  0
 47117  1  0  0  0
 47118  1  0  0  0
 48 56  1  0  0  0
 48 65  1  0  0  0
 48119  1  0  0  0
 49 50  1  0  0  0
 49 53  1  0  0  0
 49 64  1  0  0  0
 49120  1  0  0  0
 50 51  1  0  0  0
 50121  1  0  0  0
 50122  1  0  0  0
 51 52  1  0  0  0
 51123  1  0  0  0
 51124  1  0  0  0
 52125  1  0  0  0
 52126  1  0  0  0
 53 54  1  0  0  0
 54 55  2  0  0  0
 54127  1  0  0  0
 55 57  1  0  0  0
 55128  1  0  0  0
 56 69  2  0  0  0
 57 58  2  0  0  0
 57129  1  0  0  0
 58130  1  0  0  0
 59 60  1  0  0  0
 59 61  1  0  0  0
 59 62  1  0  0  0
 60131  1  0  0  0
 60132  1  0  0  0
 60133  1  0  0  0
 61134  1  0  0  0
 61135  1  0  0  0
 61136  1  0  0  0
 62137  1  0  0  0
 62138  1  0  0  0
 62139  1  0  0  0
 63 65  1  0  0  0
 63140  1  0  0  0
 63141  1  0  0  0
 63142  1  0  0  0
 64143  1  0  0  0
 65144  1  0  0  0
 68 83  1  0  0  0
 71 72  2  0  0  0
 71 74  1  0  0  0
 71145  1  0  0  0
 72 76  1  0  0  0
 72146  1  0  0  0
 73 75  1  0  0  0
 73 76  2  0  0  0
 73147  1  0  0  0
 74 75  2  0  0  0
 74 79  1  0  0  0
 75 77  1  0  0  0
 76 85  1  0  0  0
 77 78  1  0  0  0
 77148  1  0  0  0
 77149  1  0  0  0
 78 79  1  0  0  0
 78150  1  0  0  0
 78151  1  0  0  0
 79 81  1  0  0  0
 80 81  1  0  0  0
 80152  1  0  0  0
 80153  1  0  0  0
 80154  1  0  0  0
 81155  1  0  0  0
 81156  1  0  0  0
 82 83  1  0  0  0
 82 84  1  0  0  0
 82157  1  0  0  0
 82158  1  0  0  0
 83159  1  0  0  0
 83160  1  0  0  0
 84 85  1  0  0  0
 84161  1  0  0  0
 84162  1  0  0  0
M  ISO  4   1 100  68 101  79 100  83 101
M  END
> <chiral flag>
0

> <version>
0

> <s_m_source_file>
/data/baiqing/PycharmProjects/Reinvent-master-3.2/result/LINK_invent/BTK/process_docking_weight1_custom_sum_contain_oxygen_bond_distance_aromatic_linkinvent_7_9_3/rearranged_h_0145.sdf

> <i_m_source_file_index>
51

> <r_mmod_Potential_Energy-OPLS-2005>
297.78466796875

> <r_mmod_Stretch_Energy-OPLS-2005>
87.3477554321289

> <r_mmod_Bend_Energy-OPLS-2005>
213.500442504883

> <r_mmod_Torsional_Energy-OPLS-2005>
241.411331176758

> <r_mmod_Improper_Torsional_Energy-OPLS-2005>
6.70111656188965

> <r_mmod_Van_der_Waal_Energy-OPLS-2005>
154.640869140625

> <r_mmod_Electrostatic_Energy-OPLS-2005>
-270.029510498047

> <r_mmod_Solvation_Energy-OPLS-2005>
-193.47917175293

> <b_mmod_Minimization_Converged-OPLS-2005>
0

> <r_mmod_RMS_Derivative-OPLS-2005>
0.743116557598114

$$$$
52
                    3D
 Structure written by MMmdl.
172183  0  0  1  0            999 V2000
  -29.8526  -13.3444   21.1464 C   0  0  0  0  0  0
  -31.1248  -12.8254   18.9841 C   0  0  0  0  0  0
  -30.2945  -13.0808   17.5859 C   0  0  0  0  0  0
  -28.7401  -13.3354   17.6992 C   0  0  0  0  0  0
  -28.4448  -13.6868   19.1520 C   0  0  2  0  0  0
  -29.3338  -12.1421   19.5394 C   0  0  0  0  0  0
  -24.9739  -14.2627   20.9061 C   0  0  0  0  0  0
  -23.9842  -13.3040   21.0329 C   0  0  0  0  0  0
  -24.5414  -12.0264   21.1697 C   0  0  0  0  0  0
  -23.9334  -10.6126   21.1803 C   0  0  0  0  0  0
  -24.3941   -9.5384   21.9907 C   0  0  0  0  0  0
  -23.6876   -8.3035   22.0881 C   0  0  0  0  0  0
  -22.4907   -8.0884   21.3623 C   0  0  0  0  0  0
  -22.0777   -9.1003   20.4753 C   0  0  0  0  0  0
  -22.7865  -10.3248   20.3847 C   0  0  0  0  0  0
  -21.7152   -6.1030   22.5241 C   0  0  0  0  0  0
  -21.4241   -6.5799   23.8224 C   0  0  0  0  0  0
  -21.3756   -5.6896   24.9155 C   0  0  0  0  0  0
  -21.6020   -4.3137   24.7200 C   0  0  0  0  0  0
  -21.8725   -3.8286   23.4279 C   0  0  0  0  0  0
  -21.9245   -4.7180   22.3376 C   0  0  0  0  0  0
  -22.5543  -13.6100   21.1628 C   0  0  0  0  0  0
  -22.1666   -4.2322   21.0971 F   0  0  0  0  0  0
  -21.5592   -3.4584   25.7686 F   0  0  0  0  0  0
  -30.3591  -12.5548   20.2145 N   0  0  0  0  0  0
  -26.1900  -13.6789   20.6989 N   0  0  0  0  0  0
  -25.7861  -12.4275   21.4702 N   0  0  0  0  0  0
  -21.8510  -12.8628   22.0067 N   0  0  0  0  0  0
  -24.9381  -15.6098   21.1254 N   0  0  0  0  0  0
  -30.6781  -14.3087   21.2814 O   0  0  0  0  0  0
  -21.7282   -6.9315   21.4211 O   0  0  0  0  0  0
  -22.0873  -14.5847   20.5872 O   0  0  0  0  0  0
  -24.6709  -31.8195   23.1692 C   0  0  0  0  0  0
  -25.9399  -32.4531   23.8118 C   0  0  1  0  0  0
  -26.9787  -26.8118   20.1211 C   0  0  0  0  0  0
  -25.6055  -33.8347   24.2019 N   0  0  0  0  0  0
  -23.4664  -30.4553   21.5290 C   0  0  2  0  0  0
  -24.8583  -28.8391   20.0912 C   0  0  0  0  0  0
  -22.7632  -29.4485   22.4771 C   0  0  0  0  0  0
  -18.0314  -28.1395   22.8467 C   0  0  0  0  0  0
  -24.1519  -36.7191   23.2637 C   0  0  0  0  0  0
  -26.0436  -30.5815   21.4043 C   0  0  0  0  0  0
  -26.0601  -29.1709   20.7297 C   0  0  0  0  0  0
  -27.1387  -28.1684   20.7211 C   0  0  0  0  0  0
  -25.7795  -26.6635   19.4296 C   0  0  0  0  0  0
  -24.7477  -27.6150   19.4246 C   0  0  0  0  0  0
  -23.6826  -29.8036   20.1427 C   0  0  0  0  0  0
  -25.4158  -36.2925   24.0283 C   0  0  1  0  0  0
  -20.5940  -28.3751   23.1185 C   0  0  2  0  0  0
  -20.6802  -26.9436   22.5394 C   0  0  0  0  0  0
  -19.5781  -26.6375   21.5201 C   0  0  0  0  0  0
  -18.1957  -26.7927   22.1611 C   0  0  0  0  0  0
  -19.1576  -28.8887   23.2821 C   0  0  0  0  0  0
  -18.9494  -30.1471   23.8867 C   0  0  0  0  0  0
  -17.6492  -30.6592   24.0554 C   0  0  0  0  0  0
  -25.9135  -34.9316   23.4962 C   0  0  0  0  0  0
  -16.5379  -29.9086   23.6340 C   0  0  0  0  0  0
  -16.7298  -28.6500   23.0368 C   0  0  0  0  0  0
  -26.4592  -31.6497   25.0679 C   0  0  0  0  0  0
  -25.3710  -31.3801   26.1346 C   0  0  0  0  0  0
  -27.0455  -30.2834   24.6467 C   0  0  0  0  0  0
  -27.6065  -32.4319   25.7496 C   0  0  0  0  0  0
  -27.5583  -37.1755   24.8460 C   0  0  0  0  0  0
  -21.4310  -29.3054   22.3537 N   0  0  0  0  0  0
  -26.4287  -37.3681   23.9397 N   0  0  0  0  0  0
  -24.7525  -30.9823   22.0846 N   0  0  0  0  0  0
  -23.4210  -28.8022   23.2966 O   0  0  0  0  0  0
  -27.8150  -25.5864   20.0940 O   0  0  0  0  0  0
  -26.5749  -34.8881   22.4559 O   0  0  0  0  0  0
  -23.5801  -32.1231   23.6798 O   0  0  0  0  0  0
  -27.4188   -9.4836   19.3168 C   0  0  0  0  0  0
  -26.1584   -9.6328   18.5142 C   0  0  0  0  0  0
  -26.0189  -23.0914   20.0383 C   0  0  0  0  0  0
  -28.1849  -22.7529   19.2513 C   0  0  0  0  0  0
  -25.8818  -21.4061   20.2596 C   0  0  0  0  0  0
  -28.0462  -21.0786   19.5094 C   0  0  0  0  0  0
  -28.0785  -14.9523   21.2107 C   0  0  0  0  0  0
  -27.1644  -10.7832   18.5752 C   0  0  0  0  0  0
  -27.2183  -15.6489   19.6145 C   0  0  1  0  0  0
  -26.3586  -14.3024   18.4593 C   0  0  2  0  0  0
  -25.5467  -15.8518   18.4042 C   0  0  1  0  0  0
  -26.9421  -12.1387   19.3764 C   0  0  2  0  0  0
  -27.4300  -23.9324   20.1253 C   0  0  1  0  0  0
  -26.6528  -20.2009   19.4125 C   0  0  1  0  0  0
  -26.5782  -17.0554   19.0520 C   0  0  1  0  0  0
  -25.0895  -16.2419   16.9989 C   0  0  0  0  0  0
  -28.3053  -13.1151   21.2720 N   0  0  0  0  0  0
  -26.4383  -18.5660   19.7658 O   0  0  0  0  0  0
  -31.7883  -13.6767   19.1442 H   0  0  0  0  0  0
  -31.8087  -11.9860   18.8279 H   0  0  0  0  0  0
  -30.4586  -12.2372   16.9108 H   0  0  0  0  0  0
  -30.7706  -13.9204   17.0758 H   0  0  0  0  0  0
  -28.1192  -12.6679   17.1225 H   0  0  0  0  0  0
  -28.6258  -14.2651   17.1340 H   0  0  0  0  0  0
  -29.1674  -14.5092   19.1927 H   0  0  0  0  0  0
  -29.5089  -11.3565   18.7841 H   0  0  0  0  0  0
  -28.9704  -11.3120   20.1771 H   0  0  0  0  0  0
  -25.2800   -9.6829   22.5917 H   0  0  0  0  0  0
  -24.0662   -7.5343   22.7456 H   0  0  0  0  0  0
  -21.1927   -8.9495   19.8740 H   0  0  0  0  0  0
  -22.4039  -11.0836   19.7153 H   0  0  0  0  0  0
  -21.2323   -7.6309   23.9853 H   0  0  0  0  0  0
  -21.1651   -6.0570   25.9088 H   0  0  0  0  0  0
  -22.0345   -2.7742   23.2749 H   0  0  0  0  0  0
  -22.2732  -12.0995   22.5158 H   0  0  0  0  0  0
  -20.8747  -13.0684   22.1584 H   0  0  0  0  0  0
  -24.0620  -16.1137   21.0881 H   0  0  0  0  0  0
  -25.7383  -16.1829   20.8824 H   0  0  0  0  0  0
  -26.7443  -32.4984   23.0793 H   0  0  0  0  0  0
  -25.0124  -33.9388   25.0120 H   0  0  0  0  0  0
  -22.7842  -31.2956   21.3819 H   0  0  0  0  0  0
  -23.3786  -35.9513   23.3236 H   0  0  0  0  0  0
  -24.3602  -36.8908   22.2064 H   0  0  0  0  0  0
  -23.7286  -37.6360   23.6743 H   0  0  0  0  0  0
  -26.2514  -31.3188   20.6279 H   0  0  0  0  0  0
  -26.9019  -30.6099   22.0635 H   0  0  0  0  0  0
  -28.0554  -28.3884   21.2489 H   0  0  0  0  0  0
  -25.5929  -25.7329   18.9128 H   0  0  0  0  0  0
  -23.8244  -27.3659   18.9155 H   0  0  0  0  0  0
  -23.8619  -30.5817   19.4000 H   0  0  0  0  0  0
  -22.7737  -29.2966   19.8132 H   0  0  0  0  0  0
  -25.1361  -36.1687   25.0774 H   0  0  0  0  0  0
  -21.0030  -28.3352   24.1307 H   0  0  0  0  0  0
  -20.5668  -26.2363   23.3627 H   0  0  0  0  0  0
  -21.6671  -26.7416   22.1209 H   0  0  0  0  0  0
  -19.6949  -25.6273   21.1260 H   0  0  0  0  0  0
  -19.6718  -27.3159   20.6710 H   0  0  0  0  0  0
  -17.4224  -26.6656   21.4018 H   0  0  0  0  0  0
  -18.0376  -26.0073   22.9017 H   0  0  0  0  0  0
  -19.7971  -30.7287   24.2231 H   0  0  0  0  0  0
  -17.5051  -31.6270   24.5155 H   0  0  0  0  0  0
  -15.5381  -30.2988   23.7677 H   0  0  0  0  0  0
  -15.8696  -28.0805   22.7123 H   0  0  0  0  0  0
  -24.5942  -30.7063   25.7726 H   0  0  0  0  0  0
  -24.8848  -32.3009   26.4568 H   0  0  0  0  0  0
  -25.7967  -30.9159   27.0252 H   0  0  0  0  0  0
  -26.3108  -29.6529   24.1452 H   0  0  0  0  0  0
  -27.3901  -29.7190   25.5142 H   0  0  0  0  0  0
  -27.9102  -30.3964   23.9930 H   0  0  0  0  0  0
  -27.2617  -33.3692   26.1882 H   0  0  0  0  0  0
  -28.3989  -32.6759   25.0406 H   0  0  0  0  0  0
  -28.0598  -31.8562   26.5580 H   0  0  0  0  0  0
  -28.2551  -38.0097   24.7520 H   0  0  0  0  0  0
  -28.1128  -36.2615   24.6264 H   0  0  0  0  0  0
  -27.2296  -37.1377   25.8862 H   0  0  0  0  0  0
  -20.9534  -29.8787   21.6730 H   0  0  0  0  0  0
  -26.0112  -38.2726   24.1402 H   0  0  0  0  0  0
  -28.2100   -8.8488   18.9178 H   0  0  0  0  0  0
  -27.3304   -9.4935   20.4029 H   0  0  0  0  0  0
  -25.2313   -9.6810   19.0776 H   0  0  0  0  0  0
  -26.0945   -9.0525   17.5964 H   0  0  0  0  0  0
  -25.3448  -23.5528   20.7638 H   0  0  0  0  0  0
  -25.5652  -23.3188   19.0738 H   0  0  0  0  0  0
  -27.9201  -22.9215   18.2053 H   0  0  0  0  0  0
  -29.2504  -22.9797   19.2892 H   0  0  0  0  0  0
  -24.8145  -21.1844   20.1989 H   0  0  0  0  0  0
  -26.1232  -21.2343   21.3095 H   0  0  0  0  0  0
  -28.4664  -20.8905   20.4990 H   0  0  0  0  0  0
  -28.7513  -20.6022   18.8261 H   0  0  0  0  0  0
  -27.4755  -15.1856   22.0935 H   0  0  0  0  0  0
  -28.9089  -15.6181   21.4368 H   0  0  0  0  0  0
  -27.7196  -10.8412   17.6489 H   0  0  0  0  0  0
  -28.0975  -16.0427   19.1043 H   0  0  0  0  0  0
  -26.5637  -14.2937   17.3917 H   0  0  0  0  0  0
  -24.5820  -15.7995   18.8882 H   0  0  0  0  0  0
  -25.9266  -11.7782   19.3757 H   0  0  0  0  0  0
  -27.7616  -23.7282   21.1442 H   0  0  0  0  0  0
  -26.2968  -20.2870   18.3839 H   0  0  0  0  0  0
  -27.1413  -17.3838   18.1708 H   0  0  0  0  0  0
  -25.9329  -16.4227   16.3305 H   0  0  0  0  0  0
  -24.4878  -17.1527   17.0177 H   0  0  0  0  0  0
  -24.4772  -15.4573   16.5561 H   0  0  0  0  0  0
  1 25  1  0  0  0
  1 30  2  0  0  0
  1 87  1  0  0  0
  2  3  1  0  0  0
  2 25  1  0  0  0
  2 89  1  0  0  0
  2 90  1  0  0  0
  3  4  1  0  0  0
  3 91  1  0  0  0
  3 92  1  0  0  0
  4  5  1  0  0  0
  4 93  1  0  0  0
  4 94  1  0  0  0
  5  6  1  0  0  0
  5 26  1  0  0  0
  5 95  1  0  0  0
  6 25  1  0  0  0
  6 96  1  0  0  0
  6 97  1  0  0  0
  7  8  2  0  0  0
  7 26  1  0  0  0
  7 29  1  0  0  0
  8  9  1  0  0  0
  8 22  1  0  0  0
  9 10  1  0  0  0
  9 27  2  0  0  0
 10 11  2  0  0  0
 10 15  1  0  0  0
 11 12  1  0  0  0
 11 98  1  0  0  0
 12 13  2  0  0  0
 12 99  1  0  0  0
 13 14  1  0  0  0
 13 31  1  0  0  0
 14 15  2  0  0  0
 14100  1  0  0  0
 15101  1  0  0  0
 16 17  2  0  0  0
 16 21  1  0  0  0
 16 31  1  0  0  0
 17 18  1  0  0  0
 17102  1  0  0  0
 18 19  2  0  0  0
 18103  1  0  0  0
 19 20  1  0  0  0
 19 24  1  0  0  0
 20 21  2  0  0  0
 20104  1  0  0  0
 21 23  1  0  0  0
 22 28  1  0  0  0
 22 32  2  0  0  0
 26 27  1  0  0  0
 28105  1  0  0  0
 28106  1  0  0  0
 29107  1  0  0  0
 29108  1  0  0  0
 33 34  1  0  0  0
 33 66  1  0  0  0
 33 70  2  0  0  0
 34 36  1  0  0  0
 34 59  1  0  0  0
 34109  1  0  0  0
 35 44  2  0  0  0
 35 45  1  0  0  0
 35 68  1  0  0  0
 36 56  1  0  0  0
 36110  1  0  0  0
 37 39  1  0  0  0
 37 47  1  0  0  0
 37 66  1  0  0  0
 37111  1  0  0  0
 38 43  2  0  0  0
 38 46  1  0  0  0
 38 47  1  0  0  0
 39 64  1  0  0  0
 39 67  2  0  0  0
 40 52  1  0  0  0
 40 53  2  0  0  0
 40 58  1  0  0  0
 41112  1  0  0  0
 41113  1  0  0  0
 41114  1  0  0  0
 41 48  1  0  0  0
 42 43  1  0  0  0
 42 66  1  0  0  0
 42115  1  0  0  0
 42116  1  0  0  0
 43 44  1  0  0  0
 44117  1  0  0  0
 45 46  2  0  0  0
 45118  1  0  0  0
 46119  1  0  0  0
 47120  1  0  0  0
 47121  1  0  0  0
 48 56  1  0  0  0
 48 65  1  0  0  0
 48122  1  0  0  0
 49 50  1  0  0  0
 49 53  1  0  0  0
 49 64  1  0  0  0
 49123  1  0  0  0
 50 51  1  0  0  0
 50124  1  0  0  0
 50125  1  0  0  0
 51 52  1  0  0  0
 51126  1  0  0  0
 51127  1  0  0  0
 52128  1  0  0  0
 52129  1  0  0  0
 53 54  1  0  0  0
 54 55  2  0  0  0
 54130  1  0  0  0
 55 57  1  0  0  0
 55131  1  0  0  0
 56 69  2  0  0  0
 57 58  2  0  0  0
 57132  1  0  0  0
 58133  1  0  0  0
 59 60  1  0  0  0
 59 61  1  0  0  0
 59 62  1  0  0  0
 60134  1  0  0  0
 60135  1  0  0  0
 60136  1  0  0  0
 61137  1  0  0  0
 61138  1  0  0  0
 61139  1  0  0  0
 62140  1  0  0  0
 62141  1  0  0  0
 62142  1  0  0  0
 63 65  1  0  0  0
 63143  1  0  0  0
 63144  1  0  0  0
 63145  1  0  0  0
 64146  1  0  0  0
 65147  1  0  0  0
 68 83  1  0  0  0
 71 72  1  0  0  0
 71148  1  0  0  0
 71149  1  0  0  0
 71 78  1  0  0  0
 72 78  1  0  0  0
 72150  1  0  0  0
 72151  1  0  0  0
 73 75  1  0  0  0
 73 83  1  0  0  0
 73152  1  0  0  0
 73153  1  0  0  0
 74 76  1  0  0  0
 74 83  1  0  0  0
 74154  1  0  0  0
 74155  1  0  0  0
 75 84  1  0  0  0
 75156  1  0  0  0
 75157  1  0  0  0
 76 84  1  0  0  0
 76158  1  0  0  0
 76159  1  0  0  0
 77 87  1  0  0  0
 77160  1  0  0  0
 77161  1  0  0  0
 77 79  1  0  0  0
 78 82  1  0  0  0
 78162  1  0  0  0
 79 80  1  0  0  0
 79 85  1  0  0  0
 79163  1  0  0  0
 80 81  1  0  0  0
 80 82  1  0  0  0
 80164  1  0  0  0
 81 85  1  0  0  0
 81 86  1  0  0  0
 81165  1  0  0  0
 82 87  1  0  0  0
 82166  1  0  0  0
 83167  1  0  0  0
 84 88  1  0  0  0
 84168  1  0  0  0
 85 88  1  0  0  0
 85169  1  0  0  0
 86170  1  0  0  0
 86171  1  0  0  0
 86172  1  0  0  0
M  ISO  4   1 100  68 101  83 101  87 100
M  END
> <chiral flag>
0

> <version>
0

> <s_m_source_file>
/data/baiqing/PycharmProjects/Reinvent-master-3.2/result/LINK_invent/BTK/process_docking_weight1_custom_sum_contain_oxygen_bond_distance_aromatic_linkinvent_7_9_3/rearranged_h_0145.sdf

> <i_m_source_file_index>
52

> <r_mmod_Potential_Energy-OPLS-2005>
13041.1376953125

> <r_mmod_Stretch_Energy-OPLS-2005>
6400.15625

> <r_mmod_Bend_Energy-OPLS-2005>
1593.07531738281

> <r_mmod_Torsional_Energy-OPLS-2005>
629.257080078125

> <r_mmod_Improper_Torsional_Energy-OPLS-2005>
47.641918182373

> <r_mmod_Van_der_Waal_Energy-OPLS-2005>
2714.27954101562

> <r_mmod_Electrostatic_Energy-OPLS-2005>
-334.402008056641

> <r_mmod_Solvation_Energy-OPLS-2005>
-207.576110839844

> <b_mmod_Minimization_Converged-OPLS-2005>
0

> <r_mmod_RMS_Derivative-OPLS-2005>
7.42183303833008

$$$$
53
                    3D
 Structure written by MMmdl.
176185  0  0  1  0            999 V2000
  -29.0196  -14.4329   19.4504 C   0  0  0  0  0  0
  -30.4335  -12.4853   19.3116 C   0  0  0  0  0  0
  -29.4363  -11.9857   18.2673 C   0  0  0  0  0  0
  -28.1748  -11.5710   19.0837 C   0  0  0  0  0  0
  -27.9359  -12.2826   20.5487 C   0  0  2  0  0  0
  -29.0041  -13.0100   21.2419 C   0  0  0  0  0  0
  -25.6573  -13.7726   21.2041 C   0  0  0  0  0  0
  -24.4954  -13.1071   21.4712 C   0  0  0  0  0  0
  -25.0044  -11.7589   21.3736 C   0  0  0  0  0  0
  -24.6307  -10.4917   21.1747 C   0  0  0  0  0  0
  -23.4620  -10.3653   22.1781 C   0  0  0  0  0  0
  -22.2947   -9.3959   21.9710 C   0  0  0  0  0  0
  -22.1358   -8.4176   20.8222 C   0  0  0  0  0  0
  -23.1652   -8.5466   19.6221 C   0  0  0  0  0  0
  -24.6025   -9.4940   19.7209 C   0  0  0  0  0  0
  -21.6666   -6.2912   22.3337 C   0  0  0  0  0  0
  -21.3854   -6.6977   23.6768 C   0  0  0  0  0  0
  -21.3693   -5.7980   24.7824 C   0  0  0  0  0  0
  -21.6190   -4.4253   24.6050 C   0  0  0  0  0  0
  -21.9000   -3.9761   23.3061 C   0  0  0  0  0  0
  -21.9215   -4.8793   22.2063 C   0  0  0  0  0  0
  -23.0589  -13.6444   21.5021 C   0  0  0  0  0  0
  -22.1588   -4.3406   20.9897 F   0  0  0  0  0  0
  -21.5799   -3.5576   25.6548 F   0  0  0  0  0  0
  -29.6389  -13.4363   20.0910 N   0  0  0  0  0  0
  -26.6126  -12.7166   20.9691 N   0  0  0  0  0  0
  -26.1271  -11.5772   21.0056 N   0  0  0  0  0  0
  -22.2464  -13.1593   22.4233 N   0  0  0  0  0  0
  -25.8836  -15.1407   21.0886 N   0  0  0  0  0  0
  -29.9782  -15.2667   19.3712 O   0  0  0  0  0  0
  -21.5232   -7.1407   21.1603 O   0  0  0  0  0  0
  -22.6388  -14.5219   20.7375 O   0  0  0  0  0  0
  -24.6458  -31.8518   23.2057 C   0  0  0  0  0  0
  -25.9265  -32.4718   23.8363 C   0  0  1  0  0  0
  -27.0307  -27.1065   20.0512 C   0  0  0  0  0  0
  -25.6033  -33.8530   24.2257 N   0  0  0  0  0  0
  -23.4340  -30.4993   21.5593 C   0  0  2  0  0  0
  -24.8415  -28.9700   20.0860 C   0  0  0  0  0  0
  -22.7541  -29.4619   22.4888 C   0  0  0  0  0  0
  -18.0304  -28.1393   22.8471 C   0  0  0  0  0  0
  -24.1500  -36.7249   23.2632 C   0  0  0  0  0  0
  -26.0024  -30.6971   21.4222 C   0  0  0  0  0  0
  -26.0321  -29.3230   20.7346 C   0  0  0  0  0  0
  -27.1408  -28.3895   20.7325 C   0  0  0  0  0  0
  -25.8736  -26.9533   19.2688 C   0  0  0  0  0  0
  -24.7748  -27.7997   19.3430 C   0  0  0  0  0  0
  -23.6418  -29.8859   20.1599 C   0  0  0  0  0  0
  -25.4134  -36.3042   24.0313 C   0  0  1  0  0  0
  -20.5918  -28.3712   23.1229 C   0  0  2  0  0  0
  -20.6794  -26.9425   22.5384 C   0  0  0  0  0  0
  -19.5761  -26.6385   21.5198 C   0  0  0  0  0  0
  -18.1945  -26.7932   22.1619 C   0  0  0  0  0  0
  -19.1562  -28.8868   23.2849 C   0  0  0  0  0  0
  -18.9479  -30.1465   23.8877 C   0  0  0  0  0  0
  -17.6476  -30.6587   24.0560 C   0  0  0  0  0  0
  -25.9096  -34.9417   23.5077 C   0  0  0  0  0  0
  -16.5366  -29.9083   23.6334 C   0  0  0  0  0  0
  -16.7290  -28.6503   23.0351 C   0  0  0  0  0  0
  -26.4565  -31.6577   25.0803 C   0  0  0  0  0  0
  -25.3735  -31.3774   26.1484 C   0  0  0  0  0  0
  -27.0425  -30.2952   24.6440 C   0  0  0  0  0  0
  -27.6102  -32.4338   25.7577 C   0  0  0  0  0  0
  -27.5583  -37.1792   24.8468 C   0  0  0  0  0  0
  -21.4245  -29.3063   22.3619 N   0  0  0  0  0  0
  -26.4295  -37.3756   23.9408 N   0  0  0  0  0  0
  -24.7159  -31.0370   22.1134 N   0  0  0  0  0  0
  -23.4221  -28.8087   23.2947 O   0  0  0  0  0  0
  -27.8644  -25.9393   20.1181 O   0  0  0  0  0  0
  -26.5652  -34.8894   22.4640 O   0  0  0  0  0  0
  -23.5591  -32.1440   23.7282 O   0  0  0  0  0  0
  -24.7068  -19.4185   21.1929 C   0  0  0  0  0  0
  -24.6315  -18.2364   20.4172 C   0  0  0  0  0  0
  -25.4632  -20.5497   20.8031 C   0  0  0  0  0  0
  -26.0847  -19.3208   18.8120 C   0  0  0  0  0  0
  -25.3175  -18.1063   19.1904 C   0  0  0  0  0  0
  -26.1920  -20.5783   19.5945 C   0  0  0  0  0  0
  -24.3170  -12.3965   18.9353 C   0  0  1  0  0  0
  -26.0401  -13.2968   18.4883 C   0  0  1  0  0  0
  -24.6056  -13.9332   18.2704 C   0  0  2  0  0  0
  -25.8002   -8.3247   22.2578 C   0  0  0  0  0  0
  -21.4612  -11.4332   20.2094 C   0  0  0  0  0  0
  -22.3530  -10.6538   18.3132 C   0  0  0  0  0  0
  -25.1566  -16.6989   18.3438 C   0  0  0  0  0  0
  -24.3691   -8.2855   21.5865 C   0  0  0  0  0  0
  -27.2255  -24.5719   19.6462 C   0  0  0  0  0  0
  -27.4009  -22.9656   20.0674 C   0  0  0  0  0  0
  -22.9200  -10.9180   19.8121 C   0  0  0  0  0  0
  -27.4964  -14.3439   18.9445 N   0  0  0  0  0  0
  -24.5143  -15.3743   18.9139 N   0  3  0  0  0  0
  -26.8889  -21.7968   19.1905 O   0  0  0  0  0  0
  -31.2990  -12.9674   18.8516 H   0  0  0  0  0  0
  -30.8010  -11.6700   19.9379 H   0  0  0  0  0  0
  -29.8491  -11.1277   17.7352 H   0  0  0  0  0  0
  -29.2044  -12.7154   17.4897 H   0  0  0  0  0  0
  -28.4316  -10.5460   19.3582 H   0  0  0  0  0  0
  -27.3125  -11.3032   18.4865 H   0  0  0  0  0  0
  -28.1994  -11.3891   21.1496 H   0  0  0  0  0  0
  -29.6921  -12.4050   21.8404 H   0  0  0  0  0  0
  -28.6535  -13.8241   21.8832 H   0  0  0  0  0  0
  -23.4407  -10.9835   23.0627 H   0  0  0  0  0  0
  -21.5785   -9.3553   22.7729 H   0  0  0  0  0  0
  -23.0897   -7.8471   18.8026 H   0  0  0  0  0  0
  -25.3120   -9.5910   18.9131 H   0  0  0  0  0  0
  -21.1164   -7.7187   23.8875 H   0  0  0  0  0  0
  -21.1360   -6.1677   25.7709 H   0  0  0  0  0  0
  -22.0886   -2.9274   23.1351 H   0  0  0  0  0  0
  -22.5643  -12.4789   23.0946 H   0  0  0  0  0  0
  -21.2992  -13.5028   22.4779 H   0  0  0  0  0  0
  -25.4327  -15.6580   21.8389 H   0  0  0  0  0  0
  -26.8759  -15.3531   21.1147 H   0  0  0  0  0  0
  -26.7295  -32.5253   23.1040 H   0  0  0  0  0  0
  -25.0184  -33.9666   25.0405 H   0  0  0  0  0  0
  -22.7369  -31.3315   21.4408 H   0  0  0  0  0  0
  -23.3779  -35.9564   23.3284 H   0  0  0  0  0  0
  -24.3582  -36.8888   22.2048 H   0  0  0  0  0  0
  -23.7233  -37.6435   23.6671 H   0  0  0  0  0  0
  -26.1902  -31.4600   20.6659 H   0  0  0  0  0  0
  -26.8662  -30.7111   22.0736 H   0  0  0  0  0  0
  -28.0279  -28.6121   21.3092 H   0  0  0  0  0  0
  -25.7251  -26.1346   18.5843 H   0  0  0  0  0  0
  -23.8847  -27.5631   18.7768 H   0  0  0  0  0  0
  -23.7922  -30.6878   19.4361 H   0  0  0  0  0  0
  -22.7429  -29.3601   19.8318 H   0  0  0  0  0  0
  -25.1319  -36.1883   25.0804 H   0  0  0  0  0  0
  -21.0009  -28.3295   24.1351 H   0  0  0  0  0  0
  -20.5699  -26.2327   23.3599 H   0  0  0  0  0  0
  -21.6661  -26.7447   22.1176 H   0  0  0  0  0  0
  -19.6925  -25.6293   21.1235 H   0  0  0  0  0  0
  -19.6694  -27.3188   20.6723 H   0  0  0  0  0  0
  -17.4212  -26.6667   21.4029 H   0  0  0  0  0  0
  -18.0360  -26.0084   22.9027 H   0  0  0  0  0  0
  -19.7956  -30.7287   24.2237 H   0  0  0  0  0  0
  -17.5031  -31.6264   24.5169 H   0  0  0  0  0  0
  -15.5366  -30.2978   23.7669 H   0  0  0  0  0  0
  -15.8692  -28.0817   22.7073 H   0  0  0  0  0  0
  -24.5955  -30.7070   25.7810 H   0  0  0  0  0  0
  -24.8876  -32.2950   26.4809 H   0  0  0  0  0  0
  -25.8011  -30.9029   27.0325 H   0  0  0  0  0  0
  -26.3054  -29.6670   24.1425 H   0  0  0  0  0  0
  -27.3958  -29.7272   25.5057 H   0  0  0  0  0  0
  -27.9019  -30.4154   23.9840 H   0  0  0  0  0  0
  -27.2718  -33.3675   26.2080 H   0  0  0  0  0  0
  -28.3953  -32.6827   25.0423 H   0  0  0  0  0  0
  -28.0725  -31.8505   26.5552 H   0  0  0  0  0  0
  -28.2594  -38.0094   24.7527 H   0  0  0  0  0  0
  -28.1090  -36.2627   24.6296 H   0  0  0  0  0  0
  -27.2295  -37.1434   25.8867 H   0  0  0  0  0  0
  -20.9427  -29.8849   21.6883 H   0  0  0  0  0  0
  -26.0166  -38.2826   24.1413 H   0  0  0  0  0  0
  -24.1497  -19.4623   22.1181 H   0  0  0  0  0  0
  -24.0208  -17.4244   20.7848 H   0  0  0  0  0  0
  -25.4343  -21.4181   21.4443 H   0  0  0  0  0  0
  -26.6114  -19.2916   17.8681 H   0  0  0  0  0  0
  -24.4630  -11.7166   18.1056 H   0  0  0  0  0  0
  -26.3566  -12.8526   17.5472 H   0  0  0  0  0  0
  -24.2754  -14.0463   17.2399 H   0  0  0  0  0  0
  -26.0591   -7.3552   22.6872 H   0  0  0  0  0  0
  -25.8458   -9.0484   23.0742 H   0  0  0  0  0  0
  -26.5832   -8.5804   21.5422 H   0  0  0  0  0  0
  -21.2341  -12.4145   19.7892 H   0  0  0  0  0  0
  -21.2214  -11.4632   21.2585 H   0  0  0  0  0  0
  -20.6473  -10.7778   19.8936 H   0  0  0  0  0  0
  -22.0383  -11.5782   17.8244 H   0  0  0  0  0  0
  -21.5173   -9.9544   18.2359 H   0  0  0  0  0  0
  -23.0974  -10.2228   17.6424 H   0  0  0  0  0  0
  -26.1573  -16.4481   17.9996 H   0  0  0  0  0  0
  -24.5988  -16.9391   17.4391 H   0  0  0  0  0  0
  -23.8621   -7.8308   22.4484 H   0  0  0  0  0  0
  -24.5344   -7.3586   21.0103 H   0  0  0  0  0  0
  -26.1613  -24.6245   19.8658 H   0  0  0  0  0  0
  -27.3295  -24.5888   18.5603 H   0  0  0  0  0  0
  -27.0269  -22.8480   21.0829 H   0  0  0  0  0  0
  -28.4730  -22.7901   20.1543 H   0  0  0  0  0  0
  -27.3446  -15.2527   18.5387 H   0  0  0  0  0  0
  -24.9985  -15.2685   19.8159 H   0  0  0  0  0  0
  -23.5485  -15.5515   19.1438 H   0  0  0  0  0  0
  1 25  1  0  0  0
  1 30  2  0  0  0
  1 88  1  0  0  0
  2  3  1  0  0  0
  2 25  1  0  0  0
  2 91  1  0  0  0
  2 92  1  0  0  0
  3  4  1  0  0  0
  3 93  1  0  0  0
  3 94  1  0  0  0
  4  5  1  0  0  0
  4 95  1  0  0  0
  4 96  1  0  0  0
  5  6  1  0  0  0
  5 26  1  0  0  0
  5 97  1  0  0  0
  6 25  1  0  0  0
  6 98  1  0  0  0
  6 99  1  0  0  0
  7  8  2  0  0  0
  7 26  1  0  0  0
  7 29  1  0  0  0
  8  9  1  0  0  0
  8 22  1  0  0  0
  9 10  1  0  0  0
  9 27  2  0  0  0
 10 11  2  0  0  0
 10 15  1  0  0  0
 11 12  1  0  0  0
 11100  1  0  0  0
 12 13  2  0  0  0
 12101  1  0  0  0
 13 14  1  0  0  0
 13 31  1  0  0  0
 14 15  2  0  0  0
 14102  1  0  0  0
 15103  1  0  0  0
 16 17  2  0  0  0
 16 21  1  0  0  0
 16 31  1  0  0  0
 17 18  1  0  0  0
 17104  1  0  0  0
 18 19  2  0  0  0
 18105  1  0  0  0
 19 20  1  0  0  0
 19 24  1  0  0  0
 20 21  2  0  0  0
 20106  1  0  0  0
 21 23  1  0  0  0
 22 28  1  0  0  0
 22 32  2  0  0  0
 26 27  1  0  0  0
 28107  1  0  0  0
 28108  1  0  0  0
 29109  1  0  0  0
 29110  1  0  0  0
 33 34  1  0  0  0
 33 66  1  0  0  0
 33 70  2  0  0  0
 34 36  1  0  0  0
 34 59  1  0  0  0
 34111  1  0  0  0
 35 44  2  0  0  0
 35 45  1  0  0  0
 35 68  1  0  0  0
 36 56  1  0  0  0
 36112  1  0  0  0
 37 39  1  0  0  0
 37 47  1  0  0  0
 37 66  1  0  0  0
 37113  1  0  0  0
 38 43  2  0  0  0
 38 46  1  0  0  0
 38 47  1  0  0  0
 39 64  1  0  0  0
 39 67  2  0  0  0
 40 52  1  0  0  0
 40 53  2  0  0  0
 40 58  1  0  0  0
 41114  1  0  0  0
 41115  1  0  0  0
 41116  1  0  0  0
 41 48  1  0  0  0
 42 43  1  0  0  0
 42 66  1  0  0  0
 42117  1  0  0  0
 42118  1  0  0  0
 43 44  1  0  0  0
 44119  1  0  0  0
 45 46  2  0  0  0
 45120  1  0  0  0
 46121  1  0  0  0
 47122  1  0  0  0
 47123  1  0  0  0
 48 56  1  0  0  0
 48 65  1  0  0  0
 48124  1  0  0  0
 49 50  1  0  0  0
 49 53  1  0  0  0
 49 64  1  0  0  0
 49125  1  0  0  0
 50 51  1  0  0  0
 50126  1  0  0  0
 50127  1  0  0  0
 51 52  1  0  0  0
 51128  1  0  0  0
 51129  1  0  0  0
 52130  1  0  0  0
 52131  1  0  0  0
 53 54  1  0  0  0
 54 55  2  0  0  0
 54132  1  0  0  0
 55 57  1  0  0  0
 55133  1  0  0  0
 56 69  2  0  0  0
 57 58  2  0  0  0
 57134  1  0  0  0
 58135  1  0  0  0
 59 60  1  0  0  0
 59 61  1  0  0  0
 59 62  1  0  0  0
 60136  1  0  0  0
 60137  1  0  0  0
 60138  1  0  0  0
 61139  1  0  0  0
 61140  1  0  0  0
 61141  1  0  0  0
 62142  1  0  0  0
 62143  1  0  0  0
 62144  1  0  0  0
 63 65  1  0  0  0
 63145  1  0  0  0
 63146  1  0  0  0
 63147  1  0  0  0
 64148  1  0  0  0
 65149  1  0  0  0
 68 85  1  0  0  0
 71 72  2  0  0  0
 71 73  1  0  0  0
 71150  1  0  0  0
 72 75  1  0  0  0
 72151  1  0  0  0
 73 76  2  0  0  0
 73152  1  0  0  0
 74 75  2  0  0  0
 74 76  1  0  0  0
 74153  1  0  0  0
 75 83  1  0  0  0
 76 90  1  0  0  0
 77 78  1  0  0  0
 77 79  1  0  0  0
 77 87  1  0  0  0
 77154  1  0  0  0
 78 79  1  0  0  0
 78 88  1  0  0  0
 78155  1  0  0  0
 79 89  1  0  0  0
 79156  1  0  0  0
 80 84  1  0  0  0
 80157  1  0  0  0
 80158  1  0  0  0
 80159  1  0  0  0
 81160  1  0  0  0
 81161  1  0  0  0
 81162  1  0  0  0
 81 87  1  0  0  0
 82 87  1  0  0  0
 82163  1  0  0  0
 82164  1  0  0  0
 82165  1  0  0  0
 83 89  1  0  0  0
 83166  1  0  0  0
 83167  1  0  0  0
 84 87  1  0  0  0
 84168  1  0  0  0
 84169  1  0  0  0
 85 86  1  0  0  0
 85170  1  0  0  0
 85171  1  0  0  0
 86 90  1  0  0  0
 86172  1  0  0  0
 86173  1  0  0  0
 88174  1  0  0  0
 89175  1  0  0  0
 89176  1  0  0  0
M  CHG  1  89   1
M  ISO  4   1 100  68 101  85 101  88 100
M  END
> <chiral flag>
0

> <version>
0

> <s_m_source_file>
/data/baiqing/PycharmProjects/Reinvent-master-3.2/result/LINK_invent/BTK/process_docking_weight1_custom_sum_contain_oxygen_bond_distance_aromatic_linkinvent_7_9_3/rearranged_h_0145.sdf

> <i_m_source_file_index>
53

> <r_mmod_Potential_Energy-OPLS-2005>
13244.939453125

> <r_mmod_Stretch_Energy-OPLS-2005>
6642.3125

> <r_mmod_Bend_Energy-OPLS-2005>
1401.07556152344

> <r_mmod_Torsional_Energy-OPLS-2005>
574.765563964844

> <r_mmod_Improper_Torsional_Energy-OPLS-2005>
39.5769500732422

> <r_mmod_Van_der_Waal_Energy-OPLS-2005>
2467.927734375

> <r_mmod_Electrostatic_Energy-OPLS-2005>
-450.639434814453

> <r_mmod_Solvation_Energy-OPLS-2005>
-420.698486328125

> <b_mmod_Minimization_Converged-OPLS-2005>
0

> <r_mmod_RMS_Derivative-OPLS-2005>
2.83576369285583

$$$$
54
                    3D
 Structure written by MMmdl.
161170  0  0  1  0            999 V2000
  -30.6377  -14.6060   20.5180 C   0  0  0  0  0  0
  -30.4369  -12.3740   19.4482 C   0  0  0  0  0  0
  -29.5058  -12.5078   18.2227 C   0  0  0  0  0  0
  -28.0282  -12.3506   18.6343 C   0  0  0  0  0  0
  -27.6567  -13.2140   19.8691 C   0  0  2  0  0  0
  -28.7009  -13.0487   20.9971 C   0  0  0  0  0  0
  -25.2559  -13.8161   20.5658 C   0  0  0  0  0  0
  -24.1829  -13.0434   20.9189 C   0  0  0  0  0  0
  -24.6396  -11.6905   20.8746 C   0  0  0  0  0  0
  -23.9063  -10.4290   21.0410 C   0  0  0  0  0  0
  -24.3613   -9.4205   21.9187 C   0  0  0  0  0  0
  -23.6288   -8.2242   22.0757 C   0  0  0  0  0  0
  -22.4271   -8.0281   21.3545 C   0  0  0  0  0  0
  -21.9908   -9.0253   20.4647 C   0  0  0  0  0  0
  -22.7237  -10.2133   20.3057 C   0  0  0  0  0  0
  -21.6852   -6.0733   22.5277 C   0  0  0  0  0  0
  -21.4014   -6.5638   23.8210 C   0  0  0  0  0  0
  -21.3659   -5.6792   24.9172 C   0  0  0  0  0  0
  -21.6044   -4.3054   24.7224 C   0  0  0  0  0  0
  -21.8819   -3.8145   23.4345 C   0  0  0  0  0  0
  -21.9192   -4.6962   22.3400 C   0  0  0  0  0  0
  -22.7850  -13.5230   21.1848 C   0  0  0  0  0  0
  -22.1660   -4.2147   21.0979 F   0  0  0  0  0  0
  -21.5629   -3.4539   25.7737 F   0  0  0  0  0  0
  -30.0215  -13.3856   20.4392 N   0  0  0  0  0  0
  -26.3003  -12.9344   20.3341 N   0  0  0  0  0  0
  -25.9329  -11.6502   20.5778 N   0  0  0  0  0  0
  -22.0488  -12.8227   22.0404 N   0  0  0  0  0  0
  -25.4242  -15.1872   20.4000 N   0  0  0  0  0  0
  -31.7873  -14.7749   20.1009 O   0  0  0  0  0  0
  -21.6638   -6.8876   21.4239 O   0  0  0  0  0  0
  -22.3536  -14.5537   20.6695 O   0  0  0  0  0  0
  -24.6237  -31.8617   23.2041 C   0  0  0  0  0  0
  -25.9097  -32.4788   23.8357 C   0  0  1  0  0  0
  -27.2267  -27.3427   20.1098 C   0  0  0  0  0  0
  -25.5920  -33.8588   24.2285 N   0  0  0  0  0  0
  -23.4158  -30.4860   21.5467 C   0  0  2  0  0  0
  -24.8621  -28.9457   20.1102 C   0  0  0  0  0  0
  -22.7461  -29.4631   22.4948 C   0  0  0  0  0  0
  -18.0284  -28.1382   22.8485 C   0  0  0  0  0  0
  -24.1490  -36.7297   23.2639 C   0  0  0  0  0  0
  -25.9553  -30.7993   21.3725 C   0  0  0  0  0  0
  -26.0297  -29.4294   20.7135 C   0  0  0  0  0  0
  -27.2144  -28.6390   20.7046 C   0  0  0  0  0  0
  -26.0350  -26.9078   19.4824 C   0  0  0  0  0  0
  -24.8656  -27.6892   19.4870 C   0  0  0  0  0  0
  -23.6286  -29.8221   20.1612 C   0  0  0  0  0  0
  -25.4116  -36.3088   24.0329 C   0  0  1  0  0  0
  -20.5883  -28.3681   23.1290 C   0  0  2  0  0  0
  -20.6777  -26.9407   22.5409 C   0  0  0  0  0  0
  -19.5752  -26.6384   21.5211 C   0  0  0  0  0  0
  -18.1930  -26.7924   22.1622 C   0  0  0  0  0  0
  -19.1536  -28.8847   23.2883 C   0  0  0  0  0  0
  -18.9462  -30.1451   23.8898 C   0  0  0  0  0  0
  -17.6464  -30.6585   24.0564 C   0  0  0  0  0  0
  -25.9050  -34.9457   23.5106 C   0  0  0  0  0  0
  -16.5355  -29.9084   23.6333 C   0  0  0  0  0  0
  -16.7272  -28.6504   23.0348 C   0  0  0  0  0  0
  -26.4490  -31.6590   25.0717 C   0  0  0  0  0  0
  -25.3726  -31.3717   26.1442 C   0  0  0  0  0  0
  -27.0339  -30.3023   24.6151 C   0  0  0  0  0  0
  -27.6046  -32.4328   25.7493 C   0  0  0  0  0  0
  -27.5582  -37.1804   24.8464 C   0  0  0  0  0  0
  -21.4178  -29.3040   22.3689 N   0  0  0  0  0  0
  -26.4296  -37.3781   23.9408 N   0  0  0  0  0  0
  -24.6837  -31.0646   22.0983 N   0  0  0  0  0  0
  -23.4195  -28.8169   23.3016 O   0  0  0  0  0  0
  -28.3555  -26.5149   20.1634 O   0  0  0  0  0  0
  -26.5616  -34.8920   22.4672 O   0  0  0  0  0  0
  -23.5406  -32.1407   23.7384 O   0  0  0  0  0  0
  -29.0834  -19.3305   21.4883 C   0  0  0  0  0  0
  -30.8899  -17.7706   20.0245 C   0  0  0  0  0  0
  -30.0414  -20.0098   20.6988 C   0  0  0  0  0  0
  -29.0349  -17.9069   21.5631 C   0  0  0  0  0  0
  -29.9530  -17.0875   20.8444 C   0  0  0  0  0  0
  -30.9392  -19.1930   19.9461 C   0  0  0  0  0  0
  -31.6419  -21.8960   20.2511 C   0  0  0  0  0  0
  -31.8987  -21.1431   18.9426 C   0  0  0  0  0  0
  -30.2409  -21.5643   20.7954 C   0  0  1  0  0  0
  -27.9935  -17.2662   22.4657 C   0  0  0  0  0  0
  -29.1277  -22.5338   20.2055 C   0  0  0  0  0  0
  -29.3172  -24.1005   20.4458 C   0  0  0  0  0  0
  -28.1618  -25.0666   19.9767 C   0  0  0  0  0  0
  -29.8545  -15.6338   20.9610 N   0  0  0  0  0  0
  -31.9364  -19.7361   19.1654 O   0  0  0  0  0  0
  -31.4786  -12.4942   19.1459 H   0  0  0  0  0  0
  -30.3656  -11.3738   19.8785 H   0  0  0  0  0  0
  -29.7643  -11.7622   17.4696 H   0  0  0  0  0  0
  -29.6531  -13.4811   17.7519 H   0  0  0  0  0  0
  -27.8595  -11.2965   18.8579 H   0  0  0  0  0  0
  -27.3741  -12.5904   17.7951 H   0  0  0  0  0  0
  -27.6822  -14.2531   19.5404 H   0  0  0  0  0  0
  -28.7047  -12.0221   21.3663 H   0  0  0  0  0  0
  -28.4479  -13.6684   21.8585 H   0  0  0  0  0  0
  -25.2757   -9.5682   22.4763 H   0  0  0  0  0  0
  -23.9995   -7.4635   22.7480 H   0  0  0  0  0  0
  -21.0839   -8.8771   19.8952 H   0  0  0  0  0  0
  -22.3695  -10.9671   19.6166 H   0  0  0  0  0  0
  -21.2008   -7.6146   23.9711 H   0  0  0  0  0  0
  -21.1481   -6.0523   25.9074 H   0  0  0  0  0  0
  -22.0599   -2.7607   23.2846 H   0  0  0  0  0  0
  -22.4096  -11.9883   22.4790 H   0  0  0  0  0  0
  -21.1111  -13.1264   22.2613 H   0  0  0  0  0  0
  -24.6504  -15.8361   20.4928 H   0  0  0  0  0  0
  -26.2609  -15.6210   20.0317 H   0  0  0  0  0  0
  -26.7161  -32.5466   23.1104 H   0  0  0  0  0  0
  -25.0066  -33.9736   25.0427 H   0  0  0  0  0  0
  -22.7086  -31.3059   21.4055 H   0  0  0  0  0  0
  -23.3755  -35.9627   23.3301 H   0  0  0  0  0  0
  -24.3584  -36.8917   22.2053 H   0  0  0  0  0  0
  -23.7240  -37.6497   23.6661 H   0  0  0  0  0  0
  -26.0841  -31.5644   20.6056 H   0  0  0  0  0  0
  -26.8368  -30.8468   22.0001 H   0  0  0  0  0  0
  -28.1105  -29.0052   21.1862 H   0  0  0  0  0  0
  -25.9776  -25.9496   18.9883 H   0  0  0  0  0  0
  -23.9710  -27.3129   19.0099 H   0  0  0  0  0  0
  -23.7436  -30.5993   19.4048 H   0  0  0  0  0  0
  -22.7494  -29.2493   19.8605 H   0  0  0  0  0  0
  -25.1297  -36.1944   25.0823 H   0  0  0  0  0  0
  -20.9976  -28.3253   24.1411 H   0  0  0  0  0  0
  -20.5688  -26.2286   23.3603 H   0  0  0  0  0  0
  -21.6644  -26.7444   22.1195 H   0  0  0  0  0  0
  -19.6916  -25.6296   21.1236 H   0  0  0  0  0  0
  -19.6693  -27.3200   20.6746 H   0  0  0  0  0  0
  -17.4200  -26.6672   21.4024 H   0  0  0  0  0  0
  -18.0331  -26.0065   22.9018 H   0  0  0  0  0  0
  -19.7939  -30.7267   24.2265 H   0  0  0  0  0  0
  -17.5018  -31.6265   24.5162 H   0  0  0  0  0  0
  -15.5355  -30.2988   23.7656 H   0  0  0  0  0  0
  -15.8671  -28.0828   22.7058 H   0  0  0  0  0  0
  -24.5902  -30.7070   25.7762 H   0  0  0  0  0  0
  -24.8916  -32.2880   26.4874 H   0  0  0  0  0  0
  -25.8047  -30.8884   27.0211 H   0  0  0  0  0  0
  -26.2908  -29.6772   24.1183 H   0  0  0  0  0  0
  -27.4063  -29.7275   25.4641 H   0  0  0  0  0  0
  -27.8761  -30.4324   23.9352 H   0  0  0  0  0  0
  -27.2649  -33.3625   26.2069 H   0  0  0  0  0  0
  -28.3857  -32.6894   25.0325 H   0  0  0  0  0  0
  -28.0710  -31.8455   26.5412 H   0  0  0  0  0  0
  -28.2591  -38.0109   24.7523 H   0  0  0  0  0  0
  -28.1088  -36.2640   24.6282 H   0  0  0  0  0  0
  -27.2298  -37.1439   25.8865 H   0  0  0  0  0  0
  -20.9349  -29.8766   21.6908 H   0  0  0  0  0  0
  -26.0179  -38.2856   24.1412 H   0  0  0  0  0  0
  -28.3997  -19.9172   22.0861 H   0  0  0  0  0  0
  -31.6057  -17.2078   19.4437 H   0  0  0  0  0  0
  -31.7988  -22.9641   20.1214 H   0  0  0  0  0  0
  -32.3932  -21.5813   20.9768 H   0  0  0  0  0  0
  -32.8572  -21.4483   18.5214 H   0  0  0  0  0  0
  -31.1375  -21.3809   18.1983 H   0  0  0  0  0  0
  -30.2701  -21.7788   21.8649 H   0  0  0  0  0  0
  -27.3663  -18.0145   22.9509 H   0  0  0  0  0  0
  -28.4757  -16.6795   23.2481 H   0  0  0  0  0  0
  -27.3398  -16.6083   21.8945 H   0  0  0  0  0  0
  -28.1700  -22.2437   20.6388 H   0  0  0  0  0  0
  -29.0282  -22.3516   19.1351 H   0  0  0  0  0  0
  -30.2246  -24.4346   19.9461 H   0  0  0  0  0  0
  -29.4871  -24.2684   21.5097 H   0  0  0  0  0  0
  -27.2588  -24.7570   20.5054 H   0  0  0  0  0  0
  -27.9826  -24.8849   18.9163 H   0  0  0  0  0  0
  -28.9916  -15.3096   21.3681 H   0  0  0  0  0  0
  1 25  1  0  0  0
  1 30  2  0  0  0
  1 84  1  0  0  0
  2  3  1  0  0  0
  2 25  1  0  0  0
  2 86  1  0  0  0
  2 87  1  0  0  0
  3  4  1  0  0  0
  3 88  1  0  0  0
  3 89  1  0  0  0
  4  5  1  0  0  0
  4 90  1  0  0  0
  4 91  1  0  0  0
  5  6  1  0  0  0
  5 26  1  0  0  0
  5 92  1  0  0  0
  6 25  1  0  0  0
  6 93  1  0  0  0
  6 94  1  0  0  0
  7  8  2  0  0  0
  7 26  1  0  0  0
  7 29  1  0  0  0
  8  9  1  0  0  0
  8 22  1  0  0  0
  9 10  1  0  0  0
  9 27  2  0  0  0
 10 11  2  0  0  0
 10 15  1  0  0  0
 11 12  1  0  0  0
 11 95  1  0  0  0
 12 13  2  0  0  0
 12 96  1  0  0  0
 13 14  1  0  0  0
 13 31  1  0  0  0
 14 15  2  0  0  0
 14 97  1  0  0  0
 15 98  1  0  0  0
 16 17  2  0  0  0
 16 21  1  0  0  0
 16 31  1  0  0  0
 17 18  1  0  0  0
 17 99  1  0  0  0
 18 19  2  0  0  0
 18100  1  0  0  0
 19 20  1  0  0  0
 19 24  1  0  0  0
 20 21  2  0  0  0
 20101  1  0  0  0
 21 23  1  0  0  0
 22 28  1  0  0  0
 22 32  2  0  0  0
 26 27  1  0  0  0
 28102  1  0  0  0
 28103  1  0  0  0
 29104  1  0  0  0
 29105  1  0  0  0
 33 34  1  0  0  0
 33 66  1  0  0  0
 33 70  2  0  0  0
 34 36  1  0  0  0
 34 59  1  0  0  0
 34106  1  0  0  0
 35 44  2  0  0  0
 35 45  1  0  0  0
 35 68  1  0  0  0
 36 56  1  0  0  0
 36107  1  0  0  0
 37 39  1  0  0  0
 37 47  1  0  0  0
 37 66  1  0  0  0
 37108  1  0  0  0
 38 43  2  0  0  0
 38 46  1  0  0  0
 38 47  1  0  0  0
 39 64  1  0  0  0
 39 67  2  0  0  0
 40 52  1  0  0  0
 40 53  2  0  0  0
 40 58  1  0  0  0
 41109  1  0  0  0
 41110  1  0  0  0
 41111  1  0  0  0
 41 48  1  0  0  0
 42 43  1  0  0  0
 42 66  1  0  0  0
 42112  1  0  0  0
 42113  1  0  0  0
 43 44  1  0  0  0
 44114  1  0  0  0
 45 46  2  0  0  0
 45115  1  0  0  0
 46116  1  0  0  0
 47117  1  0  0  0
 47118  1  0  0  0
 48 56  1  0  0  0
 48 65  1  0  0  0
 48119  1  0  0  0
 49 50  1  0  0  0
 49 53  1  0  0  0
 49 64  1  0  0  0
 49120  1  0  0  0
 50 51  1  0  0  0
 50121  1  0  0  0
 50122  1  0  0  0
 51 52  1  0  0  0
 51123  1  0  0  0
 51124  1  0  0  0
 52125  1  0  0  0
 52126  1  0  0  0
 53 54  1  0  0  0
 54 55  2  0  0  0
 54127  1  0  0  0
 55 57  1  0  0  0
 55128  1  0  0  0
 56 69  2  0  0  0
 57 58  2  0  0  0
 57129  1  0  0  0
 58130  1  0  0  0
 59 60  1  0  0  0
 59 61  1  0  0  0
 59 62  1  0  0  0
 60131  1  0  0  0
 60132  1  0  0  0
 60133  1  0  0  0
 61134  1  0  0  0
 61135  1  0  0  0
 61136  1  0  0  0
 62137  1  0  0  0
 62138  1  0  0  0
 62139  1  0  0  0
 63 65  1  0  0  0
 63140  1  0  0  0
 63141  1  0  0  0
 63142  1  0  0  0
 64143  1  0  0  0
 65144  1  0  0  0
 68 83  1  0  0  0
 71 73  2  0  0  0
 71 74  1  0  0  0
 71145  1  0  0  0
 72 75  1  0  0  0
 72 76  2  0  0  0
 72146  1  0  0  0
 73 76  1  0  0  0
 73 79  1  0  0  0
 74 75  2  0  0  0
 74 80  1  0  0  0
 75 84  1  0  0  0
 76 85  1  0  0  0
 77 78  1  0  0  0
 77 79  1  0  0  0
 77147  1  0  0  0
 77148  1  0  0  0
 78 85  1  0  0  0
 78149  1  0  0  0
 78150  1  0  0  0
 79 81  1  0  0  0
 79151  1  0  0  0
 80152  1  0  0  0
 80153  1  0  0  0
 80154  1  0  0  0
 81 82  1  0  0  0
 81155  1  0  0  0
 81156  1  0  0  0
 82 83  1  0  0  0
 82157  1  0  0  0
 82158  1  0  0  0
 83159  1  0  0  0
 83160  1  0  0  0
 84161  1  0  0  0
M  ISO  4   1 100  68 101  83 101  84 100
M  END
> <chiral flag>
0

> <version>
0

> <s_m_source_file>
/data/baiqing/PycharmProjects/Reinvent-master-3.2/result/LINK_invent/BTK/process_docking_weight1_custom_sum_contain_oxygen_bond_distance_aromatic_linkinvent_7_9_3/rearranged_h_0145.sdf

> <i_m_source_file_index>
54

> <r_mmod_Potential_Energy-OPLS-2005>
12.9838647842407

> <r_mmod_Stretch_Energy-OPLS-2005>
72.4474792480469

> <r_mmod_Bend_Energy-OPLS-2005>
132.761581420898

> <r_mmod_Torsional_Energy-OPLS-2005>
218.112869262695

> <r_mmod_Improper_Torsional_Energy-OPLS-2005>
4.34722280502319

> <r_mmod_Van_der_Waal_Energy-OPLS-2005>
155.514343261719

> <r_mmod_Electrostatic_Energy-OPLS-2005>
-396.293975830078

> <r_mmod_Solvation_Energy-OPLS-2005>
-212.004425048828

> <b_mmod_Minimization_Converged-OPLS-2005>
0

> <r_mmod_RMS_Derivative-OPLS-2005>
0.368394374847412

$$$$
55
                    3D
 Structure written by MMmdl.
168178  0  0  1  0            999 V2000
  -28.4423  -13.5224   19.1788 C   0  0  0  0  0  0
  -30.5762  -12.5885   19.4982 C   0  0  0  0  0  0
  -29.7942  -11.3648   19.1537 C   0  0  0  0  0  0
  -28.9162  -11.2154   20.4965 C   0  0  0  0  0  0
  -28.1777  -12.5602   21.4778 C   0  0  2  0  0  0
  -29.2197  -13.5387   21.4025 C   0  0  0  0  0  0
  -25.8427  -14.3816   21.1669 C   0  0  0  0  0  0
  -24.5896  -13.8106   21.2678 C   0  0  0  0  0  0
  -25.0390  -12.6558   20.5186 C   0  0  0  0  0  0
  -24.2729  -10.5500   19.5507 C   0  0  0  0  0  0
  -24.5855   -9.1880   20.3833 C   0  0  0  0  0  0
  -23.8344   -8.2303   21.2063 C   0  0  0  0  0  0
  -22.4617   -8.1163   21.0312 C   0  0  0  0  0  0
  -22.0248   -9.0456   20.0616 C   0  0  0  0  0  0
  -22.8855   -9.9964   19.3539 C   0  0  0  0  0  0
  -21.7618   -6.1853   22.4968 C   0  0  0  0  0  0
  -21.4681   -6.6347   23.8063 C   0  0  0  0  0  0
  -21.3955   -5.7292   24.8903 C   0  0  0  0  0  0
  -21.6141   -4.3526   24.6858 C   0  0  0  0  0  0
  -21.8962   -3.8851   23.3901 C   0  0  0  0  0  0
  -21.9578   -4.7875   22.3067 C   0  0  0  0  0  0
  -23.1685  -14.3250   21.6593 C   0  0  0  0  0  0
  -22.1745   -4.2898   21.0660 F   0  0  0  0  0  0
  -21.5533   -3.4856   25.7278 F   0  0  0  0  0  0
  -29.5005  -13.4427   20.0262 N   0  0  0  0  0  0
  -26.7532  -13.3171   21.4230 N   0  0  0  0  0  0
  -25.7635  -12.6794   21.7236 N   0  0  0  0  0  0
  -22.3831  -13.5347   22.4222 N   0  0  0  0  0  0
  -26.2038  -15.6647   20.9691 N   0  0  0  0  0  0
  -29.0860  -14.4385   18.5827 O   0  0  0  0  0  0
  -21.6381   -7.0407   21.4020 O   0  0  0  0  0  0
  -22.5762  -15.1401   20.9580 O   0  0  0  0  0  0
  -24.6691  -31.8277   23.1810 C   0  0  0  0  0  0
  -25.9403  -32.4568   23.8195 C   0  0  1  0  0  0
  -26.8573  -26.8250   20.0603 C   0  0  0  0  0  0
  -25.6083  -33.8400   24.2084 N   0  0  0  0  0  0
  -23.4549  -30.4786   21.5458 C   0  0  2  0  0  0
  -24.8203  -28.8927   20.0713 C   0  0  0  0  0  0
  -22.7606  -29.4533   22.4808 C   0  0  0  0  0  0
  -18.0309  -28.1393   22.8471 C   0  0  0  0  0  0
  -24.1504  -36.7185   23.2641 C   0  0  0  0  0  0
  -26.0346  -30.5836   21.4162 C   0  0  0  0  0  0
  -26.0298  -29.1852   20.7160 C   0  0  0  0  0  0
  -27.0805  -28.1576   20.6883 C   0  0  0  0  0  0
  -25.6714  -26.7237   19.3568 C   0  0  0  0  0  0
  -24.6735  -27.6989   19.3686 C   0  0  0  0  0  0
  -23.6587  -29.8645   20.1451 C   0  0  0  0  0  0
  -25.4150  -36.2963   24.0298 C   0  0  1  0  0  0
  -20.5936  -28.3743   23.1188 C   0  0  2  0  0  0
  -20.6799  -26.9437   22.5386 C   0  0  0  0  0  0
  -19.5773  -26.6374   21.5200 C   0  0  0  0  0  0
  -18.1951  -26.7927   22.1613 C   0  0  0  0  0  0
  -19.1570  -28.8887   23.2823 C   0  0  0  0  0  0
  -18.9484  -30.1475   23.8867 C   0  0  0  0  0  0
  -17.6481  -30.6596   24.0558 C   0  0  0  0  0  0
  -25.9141  -34.9350   23.5001 C   0  0  0  0  0  0
  -16.5372  -29.9089   23.6339 C   0  0  0  0  0  0
  -16.7292  -28.6500   23.0374 C   0  0  0  0  0  0
  -26.4595  -31.6530   25.0753 C   0  0  0  0  0  0
  -25.3703  -31.3817   26.1402 C   0  0  0  0  0  0
  -27.0470  -30.2869   24.6571 C   0  0  0  0  0  0
  -27.6086  -32.4343   25.7549 C   0  0  0  0  0  0
  -27.5590  -37.1749   24.8455 C   0  0  0  0  0  0
  -21.4293  -29.3058   22.3549 N   0  0  0  0  0  0
  -26.4281  -37.3720   23.9425 N   0  0  0  0  0  0
  -24.7472  -30.9916   22.0976 N   0  0  0  0  0  0
  -23.4217  -28.8018   23.2934 O   0  0  0  0  0  0
  -27.5709  -25.5403   19.9898 O   0  0  0  0  0  0
  -26.5735  -34.8887   22.4582 O   0  0  0  0  0  0
  -23.5791  -32.1337   23.6932 O   0  0  0  0  0  0
  -23.2414  -17.5202   18.5472 C   0  0  0  0  0  0
  -23.0299  -18.9401   18.5156 C   0  0  0  0  0  0
  -25.4741  -18.1483   19.0428 C   0  0  0  0  0  0
  -24.4956  -16.9344   18.8188 C   0  0  0  0  0  0
  -25.1957  -19.6707   19.0926 C   0  0  0  0  0  0
  -23.8447  -11.1960   21.6156 C   0  0  0  0  0  0
  -27.7859  -18.5228   17.9880 C   0  0  0  0  0  0
  -27.7702  -17.0573   18.2837 C   0  0  0  0  0  0
  -22.8501  -12.5141   19.8656 C   0  0  0  0  0  0
  -26.3927  -10.9123   20.3436 C   0  0  0  0  0  0
  -25.7573  -13.0772   18.1833 C   0  0  0  0  0  0
  -26.9528  -17.9730   19.1412 C   0  0  0  0  0  0
  -24.0539  -13.7873   18.6496 C   0  0  2  0  0  0
  -26.9173  -23.9816   20.1404 C   0  0  0  0  0  0
  -26.1151  -22.5543   19.2769 C   0  0  0  0  0  0
  -23.9164  -19.9561   18.7826 N   0  0  0  0  0  0
  -27.0749  -12.4764   19.1269 N   0  0  0  0  0  0
  -24.6883  -15.3736   18.8671 O   0  0  0  0  0  0
  -26.1111  -20.8832   19.4504 O   0  0  0  0  0  0
  -31.0896  -13.0032   18.6264 H   0  0  0  0  0  0
  -31.3350  -12.3957   20.2586 H   0  0  0  0  0  0
  -30.4726  -10.5131   19.0841 H   0  0  0  0  0  0
  -29.2461  -11.3387   18.2082 H   0  0  0  0  0  0
  -29.7275  -10.9909   21.1893 H   0  0  0  0  0  0
  -28.5999  -10.1778   20.5316 H   0  0  0  0  0  0
  -28.1992  -12.1873   22.5060 H   0  0  0  0  0  0
  -30.0868  -13.2799   22.0084 H   0  0  0  0  0  0
  -28.8819  -14.5385   21.6915 H   0  0  0  0  0  0
  -25.5663   -8.8799   20.6969 H   0  0  0  0  0  0
  -24.3594   -7.4821   21.7835 H   0  0  0  0  0  0
  -21.0203   -8.9075   19.6860 H   0  0  0  0  0  0
  -22.3882  -10.3106   18.4470 H   0  0  0  0  0  0
  -21.2680   -7.6829   23.9753 H   0  0  0  0  0  0
  -21.1670   -6.0921   25.8831 H   0  0  0  0  0  0
  -22.0532   -2.8290   23.2231 H   0  0  0  0  0  0
  -22.7548  -12.7045   22.8552 H   0  0  0  0  0  0
  -21.4021  -13.7563   22.5074 H   0  0  0  0  0  0
  -25.5472  -16.4110   20.7845 H   0  0  0  0  0  0
  -27.1574  -15.9899   21.0313 H   0  0  0  0  0  0
  -26.7438  -32.4979   23.0849 H   0  0  0  0  0  0
  -25.0181  -33.9471   25.0208 H   0  0  0  0  0  0
  -22.7705  -31.3212   21.4232 H   0  0  0  0  0  0
  -23.3824  -35.9454   23.3218 H   0  0  0  0  0  0
  -24.3595  -36.8925   22.2075 H   0  0  0  0  0  0
  -23.7191  -37.6318   23.6750 H   0  0  0  0  0  0
  -26.2578  -31.3370   20.6599 H   0  0  0  0  0  0
  -26.8886  -30.5852   22.0818 H   0  0  0  0  0  0
  -28.0039  -28.3353   21.2235 H   0  0  0  0  0  0
  -25.4518  -25.8145   18.8156 H   0  0  0  0  0  0
  -23.7537  -27.4993   18.8372 H   0  0  0  0  0  0
  -23.8427  -30.6636   19.4252 H   0  0  0  0  0  0
  -22.7389  -29.3820   19.8093 H   0  0  0  0  0  0
  -25.1337  -36.1759   25.0792 H   0  0  0  0  0  0
  -21.0020  -28.3342   24.1314 H   0  0  0  0  0  0
  -20.5685  -26.2364   23.3620 H   0  0  0  0  0  0
  -21.6666  -26.7441   22.1188 H   0  0  0  0  0  0
  -19.6954  -25.6270   21.1270 H   0  0  0  0  0  0
  -19.6706  -27.3153   20.6702 H   0  0  0  0  0  0
  -17.4215  -26.6649   21.4022 H   0  0  0  0  0  0
  -18.0373  -26.0072   22.9015 H   0  0  0  0  0  0
  -19.7965  -30.7287   24.2229 H   0  0  0  0  0  0
  -17.5046  -31.6278   24.5159 H   0  0  0  0  0  0
  -15.5376  -30.2992   23.7688 H   0  0  0  0  0  0
  -15.8680  -28.0810   22.7135 H   0  0  0  0  0  0
  -24.5915  -30.7115   25.7742 H   0  0  0  0  0  0
  -24.8852  -32.3021   26.4661 H   0  0  0  0  0  0
  -25.7932  -30.9118   27.0292 H   0  0  0  0  0  0
  -26.3121  -29.6516   24.1614 H   0  0  0  0  0  0
  -27.3956  -29.7284   25.5270 H   0  0  0  0  0  0
  -27.9112  -30.3990   24.0023 H   0  0  0  0  0  0
  -27.2661  -33.3703   26.1976 H   0  0  0  0  0  0
  -28.3978  -32.6807   25.0433 H   0  0  0  0  0  0
  -28.0665  -31.8572   26.5594 H   0  0  0  0  0  0
  -28.2535  -38.0119   24.7602 H   0  0  0  0  0  0
  -28.1164  -36.2654   24.6159 H   0  0  0  0  0  0
  -27.2320  -37.1240   25.8856 H   0  0  0  0  0  0
  -20.9498  -29.8821   21.6780 H   0  0  0  0  0  0
  -26.0125  -38.2768   24.1479 H   0  0  0  0  0  0
  -22.4078  -16.8654   18.3401 H   0  0  0  0  0  0
  -22.0445  -19.2910   18.2508 H   0  0  0  0  0  0
  -23.1927  -10.3967   21.9335 H   0  0  0  0  0  0
  -23.9127  -11.6299   22.6160 H   0  0  0  0  0  0
  -27.2957  -18.8092   17.0587 H   0  0  0  0  0  0
  -28.7201  -19.0388   18.2018 H   0  0  0  0  0  0
  -28.6963  -16.7031   18.7166 H   0  0  0  0  0  0
  -27.2483  -16.3869   17.6039 H   0  0  0  0  0  0
  -21.8823  -12.9304   20.1438 H   0  0  0  0  0  0
  -22.2870  -12.1174   19.0393 H   0  0  0  0  0  0
  -26.6168  -10.1284   19.6096 H   0  0  0  0  0  0
  -26.8665  -10.5501   21.2605 H   0  0  0  0  0  0
  -26.2180  -13.8207   17.5333 H   0  0  0  0  0  0
  -25.5461  -12.2505   17.5084 H   0  0  0  0  0  0
  -27.3091  -18.2085   20.1414 H   0  0  0  0  0  0
  -23.4925  -13.8920   17.7193 H   0  0  0  0  0  0
  -27.8151  -23.4903   20.5164 H   0  0  0  0  0  0
  -26.3015  -24.0957   21.0298 H   0  0  0  0  0  0
  -26.4266  -22.6679   18.2392 H   0  0  0  0  0  0
  -25.0581  -22.8143   19.2481 H   0  0  0  0  0  0
  1 25  1  0  0  0
  1 30  2  0  0  0
  1 87  1  0  0  0
  2  3  1  0  0  0
  2 25  1  0  0  0
  2 90  1  0  0  0
  2 91  1  0  0  0
  3  4  1  0  0  0
  3 92  1  0  0  0
  3 93  1  0  0  0
  4  5  1  0  0  0
  4 94  1  0  0  0
  4 95  1  0  0  0
  5  6  1  0  0  0
  5 26  1  0  0  0
  5 96  1  0  0  0
  6 25  1  0  0  0
  6 97  1  0  0  0
  6 98  1  0  0  0
  7  8  2  0  0  0
  7 26  1  0  0  0
  7 29  1  0  0  0
  8  9  1  0  0  0
  8 22  1  0  0  0
  9 10  1  0  0  0
  9 27  2  0  0  0
 10 11  2  0  0  0
 10 15  1  0  0  0
 11 12  1  0  0  0
 11 99  1  0  0  0
 12 13  2  0  0  0
 12100  1  0  0  0
 13 14  1  0  0  0
 13 31  1  0  0  0
 14 15  2  0  0  0
 14101  1  0  0  0
 15102  1  0  0  0
 16 17  2  0  0  0
 16 21  1  0  0  0
 16 31  1  0  0  0
 17 18  1  0  0  0
 17103  1  0  0  0
 18 19  2  0  0  0
 18104  1  0  0  0
 19 20  1  0  0  0
 19 24  1  0  0  0
 20 21  2  0  0  0
 20105  1  0  0  0
 21 23  1  0  0  0
 22 28  1  0  0  0
 22 32  2  0  0  0
 26 27  1  0  0  0
 28106  1  0  0  0
 28107  1  0  0  0
 29108  1  0  0  0
 29109  1  0  0  0
 33 34  1  0  0  0
 33 66  1  0  0  0
 33 70  2  0  0  0
 34 36  1  0  0  0
 34 59  1  0  0  0
 34110  1  0  0  0
 35 44  2  0  0  0
 35 45  1  0  0  0
 35 68  1  0  0  0
 36 56  1  0  0  0
 36111  1  0  0  0
 37 39  1  0  0  0
 37 47  1  0  0  0
 37 66  1  0  0  0
 37112  1  0  0  0
 38 43  2  0  0  0
 38 46  1  0  0  0
 38 47  1  0  0  0
 39 64  1  0  0  0
 39 67  2  0  0  0
 40 52  1  0  0  0
 40 53  2  0  0  0
 40 58  1  0  0  0
 41113  1  0  0  0
 41114  1  0  0  0
 41115  1  0  0  0
 41 48  1  0  0  0
 42 43  1  0  0  0
 42 66  1  0  0  0
 42116  1  0  0  0
 42117  1  0  0  0
 43 44  1  0  0  0
 44118  1  0  0  0
 45 46  2  0  0  0
 45119  1  0  0  0
 46120  1  0  0  0
 47121  1  0  0  0
 47122  1  0  0  0
 48 56  1  0  0  0
 48 65  1  0  0  0
 48123  1  0  0  0
 49 50  1  0  0  0
 49 53  1  0  0  0
 49 64  1  0  0  0
 49124  1  0  0  0
 50 51  1  0  0  0
 50125  1  0  0  0
 50126  1  0  0  0
 51 52  1  0  0  0
 51127  1  0  0  0
 51128  1  0  0  0
 52129  1  0  0  0
 52130  1  0  0  0
 53 54  1  0  0  0
 54 55  2  0  0  0
 54131  1  0  0  0
 55 57  1  0  0  0
 55132  1  0  0  0
 56 69  2  0  0  0
 57 58  2  0  0  0
 57133  1  0  0  0
 58134  1  0  0  0
 59 60  1  0  0  0
 59 61  1  0  0  0
 59 62  1  0  0  0
 60135  1  0  0  0
 60136  1  0  0  0
 60137  1  0  0  0
 61138  1  0  0  0
 61139  1  0  0  0
 61140  1  0  0  0
 62141  1  0  0  0
 62142  1  0  0  0
 62143  1  0  0  0
 63 65  1  0  0  0
 63144  1  0  0  0
 63145  1  0  0  0
 63146  1  0  0  0
 64147  1  0  0  0
 65148  1  0  0  0
 68 84  1  0  0  0
 71 72  2  0  0  0
 71 74  1  0  0  0
 71149  1  0  0  0
 72 86  1  0  0  0
 72150  1  0  0  0
 73 74  2  0  0  0
 73 75  1  0  0  0
 73 82  1  0  0  0
 74 88  1  0  0  0
 75 86  2  0  0  0
 75 89  1  0  0  0
 76 79  1  0  0  0
 76 80  1  0  0  0
 76151  1  0  0  0
 76152  1  0  0  0
 77 78  1  0  0  0
 77 82  1  0  0  0
 77153  1  0  0  0
 77154  1  0  0  0
 78 82  1  0  0  0
 78155  1  0  0  0
 78156  1  0  0  0
 79 83  1  0  0  0
 79157  1  0  0  0
 79158  1  0  0  0
 80 87  1  0  0  0
 80159  1  0  0  0
 80160  1  0  0  0
 81 83  1  0  0  0
 81 87  1  0  0  0
 81161  1  0  0  0
 81162  1  0  0  0
 82163  1  0  0  0
 83 88  1  0  0  0
 83164  1  0  0  0
 84 85  1  0  0  0
 84165  1  0  0  0
 84166  1  0  0  0
 85 89  1  0  0  0
 85167  1  0  0  0
 85168  1  0  0  0
M  ISO  4   1 100  68 101  84 101  87 100
M  END
> <chiral flag>
0

> <version>
0

> <s_m_source_file>
/data/baiqing/PycharmProjects/Reinvent-master-3.2/result/LINK_invent/BTK/process_docking_weight1_custom_sum_contain_oxygen_bond_distance_aromatic_linkinvent_7_9_3/rearranged_h_0145.sdf

> <i_m_source_file_index>
55

> <r_mmod_Potential_Energy-OPLS-2005>
17047.837890625

> <r_mmod_Stretch_Energy-OPLS-2005>
6941.43212890625

> <r_mmod_Bend_Energy-OPLS-2005>
1820.78234863281

> <r_mmod_Torsional_Energy-OPLS-2005>
749.52392578125

> <r_mmod_Improper_Torsional_Energy-OPLS-2005>
69.8936996459961

> <r_mmod_Van_der_Waal_Energy-OPLS-2005>
2971.31958007812

> <r_mmod_Electrostatic_Energy-OPLS-2005>
-486.22265625

> <r_mmod_Solvation_Energy-OPLS-2005>
-204.269714355469

> <b_mmod_Minimization_Converged-OPLS-2005>
0

> <r_mmod_RMS_Derivative-OPLS-2005>
8.23211193084717

$$$$
56
                    3D
 Structure written by MMmdl.
164173  0  0  1  0            999 V2000
  -30.6638  -14.5728   20.5000 C   0  0  0  0  0  0
  -30.4204  -12.3493   19.4512 C   0  0  0  0  0  0
  -29.4966  -12.5008   18.2226 C   0  0  0  0  0  0
  -28.0195  -12.3486   18.6353 C   0  0  0  0  0  0
  -27.6505  -13.2176   19.8673 C   0  0  2  0  0  0
  -28.6946  -13.0682   20.9968 C   0  0  0  0  0  0
  -25.2534  -13.8182   20.5683 C   0  0  0  0  0  0
  -24.1815  -13.0429   20.9202 C   0  0  0  0  0  0
  -24.6400  -11.6912   20.8745 C   0  0  0  0  0  0
  -23.9082  -10.4284   21.0417 C   0  0  0  0  0  0
  -24.3640   -9.4198   21.9183 C   0  0  0  0  0  0
  -23.6319   -8.2235   22.0740 C   0  0  0  0  0  0
  -22.4291   -8.0280   21.3543 C   0  0  0  0  0  0
  -21.9934   -9.0247   20.4639 C   0  0  0  0  0  0
  -22.7261  -10.2130   20.3065 C   0  0  0  0  0  0
  -21.6850   -6.0756   22.5285 C   0  0  0  0  0  0
  -21.4005   -6.5654   23.8218 C   0  0  0  0  0  0
  -21.3658   -5.6801   24.9173 C   0  0  0  0  0  0
  -21.6054   -4.3068   24.7220 C   0  0  0  0  0  0
  -21.8818   -3.8166   23.4335 C   0  0  0  0  0  0
  -21.9186   -4.6987   22.3392 C   0  0  0  0  0  0
  -22.7839  -13.5201   21.1881 C   0  0  0  0  0  0
  -22.1662   -4.2176   21.0969 F   0  0  0  0  0  0
  -21.5636   -3.4547   25.7732 F   0  0  0  0  0  0
  -30.0165  -13.3728   20.4327 N   0  0  0  0  0  0
  -26.2974  -12.9374   20.3360 N   0  0  0  0  0  0
  -25.9323  -11.6520   20.5790 N   0  0  0  0  0  0
  -22.0517  -12.8138   22.0448 N   0  0  0  0  0  0
  -25.4167  -15.1902   20.4049 N   0  0  0  0  0  0
  -31.8237  -14.7128   20.1083 O   0  0  0  0  0  0
  -21.6642   -6.8889   21.4246 O   0  0  0  0  0  0
  -22.3496  -14.5500   20.6747 O   0  0  0  0  0  0
  -24.6166  -31.8641   23.2081 C   0  0  0  0  0  0
  -25.9027  -32.4809   23.8397 C   0  0  1  0  0  0
  -27.2265  -27.3759   20.0963 C   0  0  0  0  0  0
  -25.5862  -33.8620   24.2293 N   0  0  0  0  0  0
  -23.4099  -30.4886   21.5477 C   0  0  2  0  0  0
  -24.8559  -28.9542   20.1062 C   0  0  0  0  0  0
  -22.7415  -29.4626   22.4923 C   0  0  0  0  0  0
  -18.0274  -28.1375   22.8495 C   0  0  0  0  0  0
  -24.1485  -36.7326   23.2637 C   0  0  0  0  0  0
  -25.9458  -30.8078   21.3783 C   0  0  0  0  0  0
  -26.0174  -29.4414   20.7168 C   0  0  0  0  0  0
  -27.1985  -28.6542   20.7183 C   0  0  0  0  0  0
  -26.0481  -26.9306   19.4598 C   0  0  0  0  0  0
  -24.8693  -27.7002   19.4751 C   0  0  0  0  0  0
  -23.6216  -29.8275   20.1597 C   0  0  0  0  0  0
  -25.4110  -36.3110   24.0317 C   0  0  1  0  0  0
  -20.5865  -28.3677   23.1287 C   0  0  2  0  0  0
  -20.6753  -26.9402   22.5413 C   0  0  0  0  0  0
  -19.5737  -26.6374   21.5206 C   0  0  0  0  0  0
  -18.1919  -26.7926   22.1619 C   0  0  0  0  0  0
  -19.1524  -28.8837   23.2899 C   0  0  0  0  0  0
  -18.9450  -30.1432   23.8929 C   0  0  0  0  0  0
  -17.6452  -30.6582   24.0570 C   0  0  0  0  0  0
  -25.9037  -34.9475   23.5106 C   0  0  0  0  0  0
  -16.5341  -29.9087   23.6331 C   0  0  0  0  0  0
  -16.7263  -28.6497   23.0369 C   0  0  0  0  0  0
  -26.4442  -31.6628   25.0762 C   0  0  0  0  0  0
  -25.3688  -31.3760   26.1502 C   0  0  0  0  0  0
  -27.0304  -30.3058   24.6230 C   0  0  0  0  0  0
  -27.6004  -32.4393   25.7515 C   0  0  0  0  0  0
  -27.5588  -37.1808   24.8444 C   0  0  0  0  0  0
  -21.4129  -29.3046   22.3679 N   0  0  0  0  0  0
  -26.4292  -37.3796   23.9396 N   0  0  0  0  0  0
  -24.6753  -31.0693   22.1021 N   0  0  0  0  0  0
  -23.4159  -28.8147   23.2966 O   0  0  0  0  0  0
  -28.3627  -26.5801   20.2012 O   0  0  0  0  0  0
  -26.5628  -34.8930   22.4685 O   0  0  0  0  0  0
  -23.5338  -32.1412   23.7416 O   0  0  0  0  0  0
  -27.3722  -22.0723   22.2420 C   0  0  0  0  0  0
  -27.4788  -23.1471   21.3480 C   0  0  0  0  0  0
  -28.0091  -20.8279   22.0172 C   0  0  0  0  0  0
  -28.2625  -23.0309   20.1924 C   0  0  0  0  0  0
  -29.0037  -21.8142   19.9975 C   0  0  0  0  0  0
  -28.8680  -20.6795   20.8769 C   0  0  0  0  0  0
  -26.7743  -18.6290   22.8207 C   0  0  0  0  0  0
  -26.4425  -19.6830   23.8378 C   0  0  0  0  0  0
  -27.7490  -19.7663   23.0606 C   0  0  0  0  0  0
  -29.9397  -21.7039   18.8020 C   0  0  0  0  0  0
  -28.0797  -24.1293   19.1099 C   0  0  0  0  0  0
  -30.2751  -17.0735   20.4747 C   0  0  0  0  0  0
  -28.7179  -25.5705   19.2190 C   0  0  0  0  0  0
  -29.2868  -18.1794   20.9895 C   0  0  0  0  0  0
  -29.9055  -15.6606   20.7904 N   0  0  0  0  0  0
  -29.6165  -19.5289   20.5540 O   0  0  0  0  0  0
  -31.4664  -12.4436   19.1538 H   0  0  0  0  0  0
  -30.3225  -11.3517   19.8839 H   0  0  0  0  0  0
  -29.7492  -11.7593   17.4640 H   0  0  0  0  0  0
  -29.6510  -13.4770   17.7610 H   0  0  0  0  0  0
  -27.8475  -11.2959   18.8601 H   0  0  0  0  0  0
  -27.3656  -12.5839   17.7947 H   0  0  0  0  0  0
  -27.6699  -14.2535   19.5282 H   0  0  0  0  0  0
  -28.6841  -12.0538   21.3993 H   0  0  0  0  0  0
  -28.4553  -13.7210   21.8371 H   0  0  0  0  0  0
  -25.2806   -9.5667   22.4739 H   0  0  0  0  0  0
  -24.0045   -7.4617   22.7436 H   0  0  0  0  0  0
  -21.0879   -8.8765   19.8922 H   0  0  0  0  0  0
  -22.3739  -10.9668   19.6173 H   0  0  0  0  0  0
  -21.1984   -7.6159   23.9724 H   0  0  0  0  0  0
  -21.1494   -6.0530   25.9073 H   0  0  0  0  0  0
  -22.0595   -2.7632   23.2819 H   0  0  0  0  0  0
  -22.4212  -11.9830   22.4832 H   0  0  0  0  0  0
  -21.1113  -13.1096   22.2675 H   0  0  0  0  0  0
  -24.6341  -15.8293   20.4931 H   0  0  0  0  0  0
  -26.2527  -15.6358   20.0519 H   0  0  0  0  0  0
  -26.7087  -32.5489   23.1149 H   0  0  0  0  0  0
  -24.9944  -33.9797   25.0388 H   0  0  0  0  0  0
  -22.7036  -31.3091   21.4073 H   0  0  0  0  0  0
  -23.3743  -35.9668   23.3306 H   0  0  0  0  0  0
  -24.3567  -36.8971   22.2052 H   0  0  0  0  0  0
  -23.7257  -37.6521   23.6687 H   0  0  0  0  0  0
  -26.0818  -31.5752   20.6155 H   0  0  0  0  0  0
  -26.8260  -30.8474   22.0101 H   0  0  0  0  0  0
  -28.0889  -29.0172   21.2137 H   0  0  0  0  0  0
  -25.9987  -25.9774   18.9687 H   0  0  0  0  0  0
  -23.9771  -27.3189   18.9997 H   0  0  0  0  0  0
  -23.7329  -30.6083   19.4058 H   0  0  0  0  0  0
  -22.7437  -29.2530   19.8571 H   0  0  0  0  0  0
  -25.1298  -36.1966   25.0813 H   0  0  0  0  0  0
  -20.9977  -28.3262   24.1403 H   0  0  0  0  0  0
  -20.5626  -26.2300   23.3618 H   0  0  0  0  0  0
  -21.6625  -26.7418   22.1231 H   0  0  0  0  0  0
  -19.6895  -25.6280   21.1255 H   0  0  0  0  0  0
  -19.6674  -27.3165   20.6717 H   0  0  0  0  0  0
  -17.4182  -26.6688   21.4027 H   0  0  0  0  0  0
  -18.0325  -26.0050   22.8990 H   0  0  0  0  0  0
  -19.7916  -30.7240   24.2334 H   0  0  0  0  0  0
  -17.4999  -31.6275   24.5150 H   0  0  0  0  0  0
  -15.5341  -30.3002   23.7620 H   0  0  0  0  0  0
  -15.8663  -28.0802   22.7104 H   0  0  0  0  0  0
  -24.5818  -30.7168   25.7821 H   0  0  0  0  0  0
  -24.8926  -32.2924   26.5002 H   0  0  0  0  0  0
  -25.8000  -30.8861   27.0239 H   0  0  0  0  0  0
  -26.2884  -29.6813   24.1242 H   0  0  0  0  0  0
  -27.3955  -29.7327   25.4762 H   0  0  0  0  0  0
  -27.8780  -30.4350   23.9502 H   0  0  0  0  0  0
  -27.2583  -33.3649   26.2174 H   0  0  0  0  0  0
  -28.3756  -32.7060   25.0313 H   0  0  0  0  0  0
  -28.0764  -31.8501   26.5367 H   0  0  0  0  0  0
  -28.2594  -38.0119   24.7505 H   0  0  0  0  0  0
  -28.1104  -36.2641   24.6254 H   0  0  0  0  0  0
  -27.2308  -37.1449   25.8852 H   0  0  0  0  0  0
  -20.9267  -29.8817   21.6956 H   0  0  0  0  0  0
  -26.0176  -38.2876   24.1400 H   0  0  0  0  0  0
  -26.7459  -22.2133   23.1106 H   0  0  0  0  0  0
  -26.9046  -24.0481   21.5265 H   0  0  0  0  0  0
  -26.1971  -18.6355   21.8975 H   0  0  0  0  0  0
  -27.0373  -17.6442   23.2015 H   0  0  0  0  0  0
  -26.4883  -19.3810   24.8815 H   0  0  0  0  0  0
  -25.6141  -20.3406   23.5831 H   0  0  0  0  0  0
  -28.6510  -19.5809   23.6420 H   0  0  0  0  0  0
  -29.3989  -21.3643   17.9183 H   0  0  0  0  0  0
  -30.7587  -21.0088   18.9880 H   0  0  0  0  0  0
  -30.4044  -22.6657   18.5801 H   0  0  0  0  0  0
  -27.0078  -24.2050   18.9539 H   0  0  0  0  0  0
  -28.4188  -23.7213   18.1586 H   0  0  0  0  0  0
  -31.2683  -17.2768   20.8801 H   0  0  0  0  0  0
  -30.3694  -17.1594   19.3920 H   0  0  0  0  0  0
  -28.6041  -26.0487   18.2453 H   0  0  0  0  0  0
  -29.7926  -25.4306   19.3296 H   0  0  0  0  0  0
  -29.3237  -18.1115   22.0714 H   0  0  0  0  0  0
  -28.2755  -17.9472   20.6547 H   0  0  0  0  0  0
  -28.9574  -15.4840   21.0858 H   0  0  0  0  0  0
  1 25  1  0  0  0
  1 30  2  0  0  0
  1 85  1  0  0  0
  2  3  1  0  0  0
  2 25  1  0  0  0
  2 87  1  0  0  0
  2 88  1  0  0  0
  3  4  1  0  0  0
  3 89  1  0  0  0
  3 90  1  0  0  0
  4  5  1  0  0  0
  4 91  1  0  0  0
  4 92  1  0  0  0
  5  6  1  0  0  0
  5 26  1  0  0  0
  5 93  1  0  0  0
  6 25  1  0  0  0
  6 94  1  0  0  0
  6 95  1  0  0  0
  7  8  2  0  0  0
  7 26  1  0  0  0
  7 29  1  0  0  0
  8  9  1  0  0  0
  8 22  1  0  0  0
  9 10  1  0  0  0
  9 27  2  0  0  0
 10 11  2  0  0  0
 10 15  1  0  0  0
 11 12  1  0  0  0
 11 96  1  0  0  0
 12 13  2  0  0  0
 12 97  1  0  0  0
 13 14  1  0  0  0
 13 31  1  0  0  0
 14 15  2  0  0  0
 14 98  1  0  0  0
 15 99  1  0  0  0
 16 17  2  0  0  0
 16 21  1  0  0  0
 16 31  1  0  0  0
 17 18  1  0  0  0
 17100  1  0  0  0
 18 19  2  0  0  0
 18101  1  0  0  0
 19 20  1  0  0  0
 19 24  1  0  0  0
 20 21  2  0  0  0
 20102  1  0  0  0
 21 23  1  0  0  0
 22 28  1  0  0  0
 22 32  2  0  0  0
 26 27  1  0  0  0
 28103  1  0  0  0
 28104  1  0  0  0
 29105  1  0  0  0
 29106  1  0  0  0
 33 34  1  0  0  0
 33 66  1  0  0  0
 33 70  2  0  0  0
 34 36  1  0  0  0
 34 59  1  0  0  0
 34107  1  0  0  0
 35 44  2  0  0  0
 35 45  1  0  0  0
 35 68  1  0  0  0
 36 56  1  0  0  0
 36108  1  0  0  0
 37 39  1  0  0  0
 37 47  1  0  0  0
 37 66  1  0  0  0
 37109  1  0  0  0
 38 43  2  0  0  0
 38 46  1  0  0  0
 38 47  1  0  0  0
 39 64  1  0  0  0
 39 67  2  0  0  0
 40 52  1  0  0  0
 40 53  2  0  0  0
 40 58  1  0  0  0
 41110  1  0  0  0
 41111  1  0  0  0
 41112  1  0  0  0
 41 48  1  0  0  0
 42 43  1  0  0  0
 42 66  1  0  0  0
 42113  1  0  0  0
 42114  1  0  0  0
 43 44  1  0  0  0
 44115  1  0  0  0
 45 46  2  0  0  0
 45116  1  0  0  0
 46117  1  0  0  0
 47118  1  0  0  0
 47119  1  0  0  0
 48 56  1  0  0  0
 48 65  1  0  0  0
 48120  1  0  0  0
 49 50  1  0  0  0
 49 53  1  0  0  0
 49 64  1  0  0  0
 49121  1  0  0  0
 50 51  1  0  0  0
 50122  1  0  0  0
 50123  1  0  0  0
 51 52  1  0  0  0
 51124  1  0  0  0
 51125  1  0  0  0
 52126  1  0  0  0
 52127  1  0  0  0
 53 54  1  0  0  0
 54 55  2  0  0  0
 54128  1  0  0  0
 55 57  1  0  0  0
 55129  1  0  0  0
 56 69  2  0  0  0
 57 58  2  0  0  0
 57130  1  0  0  0
 58131  1  0  0  0
 59 60  1  0  0  0
 59 61  1  0  0  0
 59 62  1  0  0  0
 60132  1  0  0  0
 60133  1  0  0  0
 60134  1  0  0  0
 61135  1  0  0  0
 61136  1  0  0  0
 61137  1  0  0  0
 62138  1  0  0  0
 62139  1  0  0  0
 62140  1  0  0  0
 63 65  1  0  0  0
 63141  1  0  0  0
 63142  1  0  0  0
 63143  1  0  0  0
 64144  1  0  0  0
 65145  1  0  0  0
 68 83  1  0  0  0
 71 72  2  0  0  0
 71 73  1  0  0  0
 71146  1  0  0  0
 72 74  1  0  0  0
 72147  1  0  0  0
 73 76  2  0  0  0
 73 79  1  0  0  0
 74 75  2  0  0  0
 74 81  1  0  0  0
 75 76  1  0  0  0
 75 80  1  0  0  0
 76 86  1  0  0  0
 77 78  1  0  0  0
 77 79  1  0  0  0
 77148  1  0  0  0
 77149  1  0  0  0
 78 79  1  0  0  0
 78150  1  0  0  0
 78151  1  0  0  0
 79152  1  0  0  0
 80153  1  0  0  0
 80154  1  0  0  0
 80155  1  0  0  0
 81 83  1  0  0  0
 81156  1  0  0  0
 81157  1  0  0  0
 82 84  1  0  0  0
 82 85  1  0  0  0
 82158  1  0  0  0
 82159  1  0  0  0
 83160  1  0  0  0
 83161  1  0  0  0
 84 86  1  0  0  0
 84162  1  0  0  0
 84163  1  0  0  0
 85164  1  0  0  0
M  ISO  4   1 100  68 101  83 101  85 100
M  END
> <chiral flag>
0

> <version>
0

> <s_m_source_file>
/data/baiqing/PycharmProjects/Reinvent-master-3.2/result/LINK_invent/BTK/process_docking_weight1_custom_sum_contain_oxygen_bond_distance_aromatic_linkinvent_7_9_3/rearranged_h_0145.sdf

> <i_m_source_file_index>
56

> <r_mmod_Potential_Energy-OPLS-2005>
24.9210338592529

> <r_mmod_Stretch_Energy-OPLS-2005>
62.6733283996582

> <r_mmod_Bend_Energy-OPLS-2005>
168.472152709961

> <r_mmod_Torsional_Energy-OPLS-2005>
237.572479248047

> <r_mmod_Improper_Torsional_Energy-OPLS-2005>
7.2689414024353

> <r_mmod_Van_der_Waal_Energy-OPLS-2005>
151.188171386719

> <r_mmod_Electrostatic_Energy-OPLS-2005>
-421.871887207031

> <r_mmod_Solvation_Energy-OPLS-2005>
-212.386077880859

> <b_mmod_Minimization_Converged-OPLS-2005>
0

> <r_mmod_RMS_Derivative-OPLS-2005>
2.53569197654724

$$$$
57
                    3D
 Structure written by MMmdl.
156165  0  0  1  0            999 V2000
  -30.6691  -14.6046   20.4706 C   0  0  0  0  0  0
  -30.4169  -12.3646   19.4554 C   0  0  0  0  0  0
  -29.4983  -12.4816   18.2217 C   0  0  0  0  0  0
  -28.0213  -12.3348   18.6355 C   0  0  0  0  0  0
  -27.6458  -13.2213   19.8541 C   0  0  2  0  0  0
  -28.6904  -13.1099   20.9864 C   0  0  0  0  0  0
  -25.2534  -13.8191   20.5694 C   0  0  0  0  0  0
  -24.1811  -13.0442   20.9198 C   0  0  0  0  0  0
  -24.6391  -11.6920   20.8754 C   0  0  0  0  0  0
  -23.9068  -10.4295   21.0409 C   0  0  0  0  0  0
  -24.3620   -9.4210   21.9185 C   0  0  0  0  0  0
  -23.6296   -8.2245   22.0756 C   0  0  0  0  0  0
  -22.4277   -8.0281   21.3548 C   0  0  0  0  0  0
  -21.9912   -9.0254   20.4647 C   0  0  0  0  0  0
  -22.7242  -10.2134   20.3056 C   0  0  0  0  0  0
  -21.6852   -6.0734   22.5278 C   0  0  0  0  0  0
  -21.4010   -6.5641   23.8211 C   0  0  0  0  0  0
  -21.3661   -5.6795   24.9178 C   0  0  0  0  0  0
  -21.6044   -4.3057   24.7224 C   0  0  0  0  0  0
  -21.8822   -3.8149   23.4346 C   0  0  0  0  0  0
  -21.9191   -4.6964   22.3403 C   0  0  0  0  0  0
  -22.7834  -13.5225   21.1861 C   0  0  0  0  0  0
  -22.1663   -4.2149   21.0978 F   0  0  0  0  0  0
  -21.5629   -3.4542   25.7740 F   0  0  0  0  0  0
  -30.0030  -13.4136   20.4064 N   0  0  0  0  0  0
  -26.2952  -12.9378   20.3296 N   0  0  0  0  0  0
  -25.9312  -11.6529   20.5762 N   0  0  0  0  0  0
  -22.0485  -12.8207   22.0420 N   0  0  0  0  0  0
  -25.4233  -15.1911   20.4108 N   0  0  0  0  0  0
  -31.8573  -14.6849   20.1507 O   0  0  0  0  0  0
  -21.6643   -6.8877   21.4241 O   0  0  0  0  0  0
  -22.3519  -14.5535   20.6718 O   0  0  0  0  0  0
  -24.6216  -31.8621   23.2033 C   0  0  0  0  0  0
  -25.9076  -32.4790   23.8356 C   0  0  1  0  0  0
  -27.2208  -27.3538   20.1185 C   0  0  0  0  0  0
  -25.5917  -33.8587   24.2283 N   0  0  0  0  0  0
  -23.4138  -30.4830   21.5461 C   0  0  2  0  0  0
  -24.8592  -28.9348   20.1157 C   0  0  0  0  0  0
  -22.7449  -29.4624   22.4961 C   0  0  0  0  0  0
  -18.0274  -28.1377   22.8485 C   0  0  0  0  0  0
  -24.1492  -36.7296   23.2643 C   0  0  0  0  0  0
  -25.9496  -30.8031   21.3674 C   0  0  0  0  0  0
  -26.0253  -29.4312   20.7136 C   0  0  0  0  0  0
  -27.2146  -28.6520   20.7015 C   0  0  0  0  0  0
  -26.0371  -26.8871   19.5148 C   0  0  0  0  0  0
  -24.8634  -27.6667   19.5098 C   0  0  0  0  0  0
  -23.6262  -29.8137   20.1620 C   0  0  0  0  0  0
  -25.4115  -36.3089   24.0332 C   0  0  1  0  0  0
  -20.5872  -28.3678   23.1292 C   0  0  2  0  0  0
  -20.6768  -26.9406   22.5413 C   0  0  0  0  0  0
  -19.5746  -26.6378   21.5213 C   0  0  0  0  0  0
  -18.1919  -26.7925   22.1617 C   0  0  0  0  0  0
  -19.1530  -28.8844   23.2882 C   0  0  0  0  0  0
  -18.9458  -30.1446   23.8896 C   0  0  0  0  0  0
  -17.6463  -30.6588   24.0560 C   0  0  0  0  0  0
  -25.9049  -34.9455   23.5109 C   0  0  0  0  0  0
  -16.5354  -29.9087   23.6331 C   0  0  0  0  0  0
  -16.7265  -28.6501   23.0356 C   0  0  0  0  0  0
  -26.4479  -31.6591   25.0714 C   0  0  0  0  0  0
  -25.3727  -31.3709   26.1456 C   0  0  0  0  0  0
  -27.0330  -30.3028   24.6143 C   0  0  0  0  0  0
  -27.6044  -32.4328   25.7474 C   0  0  0  0  0  0
  -27.5578  -37.1797   24.8463 C   0  0  0  0  0  0
  -21.4164  -29.3035   22.3691 N   0  0  0  0  0  0
  -26.4298  -37.3775   23.9401 N   0  0  0  0  0  0
  -24.6803  -31.0661   22.0962 N   0  0  0  0  0  0
  -23.4183  -28.8173   23.3035 O   0  0  0  0  0  0
  -28.3478  -26.5426   20.1029 O   0  0  0  0  0  0
  -26.5625  -34.8928   22.4680 O   0  0  0  0  0  0
  -23.5389  -32.1407   23.7383 O   0  0  0  0  0  0
  -29.6587  -19.2756   19.3034 C   0  0  0  0  0  0
  -29.1473  -19.0202   21.6170 C   0  0  0  0  0  0
  -29.6941  -18.4454   20.4505 C   0  0  0  0  0  0
  -29.1588  -20.6088   19.3695 C   0  0  0  0  0  0
  -28.6879  -21.1261   20.6075 C   0  0  0  0  0  0
  -26.8997  -23.0821   20.2662 C   0  0  0  0  0  0
  -28.1547  -22.5628   20.9200 C   0  0  2  0  0  0
  -28.1660  -23.9097   20.1205 C   0  0  2  0  0  0
  -29.1755  -21.4489   18.1042 C   0  0  0  0  0  0
  -30.5260  -17.1149   20.4552 C   0  0  0  0  0  0
  -28.2767  -25.2867   20.8533 C   0  0  0  0  0  0
  -28.6607  -20.2927   21.6830 N   0  0  0  0  0  0
  -29.9397  -15.7487   20.6578 N   0  0  0  0  0  0
  -31.4626  -12.4545   19.1574 H   0  0  0  0  0  0
  -30.3235  -11.3798   19.9155 H   0  0  0  0  0  0
  -29.7562  -11.7177   17.4871 H   0  0  0  0  0  0
  -29.6525  -13.4436   17.7315 H   0  0  0  0  0  0
  -27.8541  -11.2844   18.8781 H   0  0  0  0  0  0
  -27.3682  -12.5581   17.7910 H   0  0  0  0  0  0
  -27.6569  -14.2507   19.4949 H   0  0  0  0  0  0
  -28.6919  -12.1069   21.4155 H   0  0  0  0  0  0
  -28.4515  -13.7913   21.8046 H   0  0  0  0  0  0
  -25.2762   -9.5685   22.4764 H   0  0  0  0  0  0
  -24.0002   -7.4635   22.7477 H   0  0  0  0  0  0
  -21.0844   -8.8775   19.8948 H   0  0  0  0  0  0
  -22.3701  -10.9676   19.6169 H   0  0  0  0  0  0
  -21.2006   -7.6150   23.9714 H   0  0  0  0  0  0
  -21.1478   -6.0527   25.9078 H   0  0  0  0  0  0
  -22.0599   -2.7609   23.2849 H   0  0  0  0  0  0
  -22.4109  -11.9854   22.4776 H   0  0  0  0  0  0
  -21.1108  -13.1228   22.2650 H   0  0  0  0  0  0
  -24.6567  -15.8445   20.5264 H   0  0  0  0  0  0
  -26.2684  -15.6314   20.0699 H   0  0  0  0  0  0
  -26.7143  -32.5478   23.1103 H   0  0  0  0  0  0
  -25.0038  -33.9731   25.0415 H   0  0  0  0  0  0
  -22.7073  -31.3025   21.4025 H   0  0  0  0  0  0
  -23.3755  -35.9628   23.3315 H   0  0  0  0  0  0
  -24.3571  -36.8912   22.2055 H   0  0  0  0  0  0
  -23.7249  -37.6502   23.6661 H   0  0  0  0  0  0
  -26.0741  -31.5681   20.6002 H   0  0  0  0  0  0
  -26.8313  -30.8535   21.9937 H   0  0  0  0  0  0
  -28.1171  -29.0292   21.1621 H   0  0  0  0  0  0
  -26.0230  -25.9120   19.0489 H   0  0  0  0  0  0
  -23.9676  -27.2799   19.0437 H   0  0  0  0  0  0
  -23.7416  -30.5880   19.4023 H   0  0  0  0  0  0
  -22.7460  -29.2387   19.8658 H   0  0  0  0  0  0
  -25.1290  -36.1945   25.0825 H   0  0  0  0  0  0
  -20.9952  -28.3264   24.1420 H   0  0  0  0  0  0
  -20.5683  -26.2290   23.3609 H   0  0  0  0  0  0
  -21.6637  -26.7450   22.1197 H   0  0  0  0  0  0
  -19.6920  -25.6291   21.1243 H   0  0  0  0  0  0
  -19.6697  -27.3198   20.6742 H   0  0  0  0  0  0
  -17.4194  -26.6676   21.4017 H   0  0  0  0  0  0
  -18.0309  -26.0071   22.9015 H   0  0  0  0  0  0
  -19.7948  -30.7240   24.2284 H   0  0  0  0  0  0
  -17.5033  -31.6277   24.5151 H   0  0  0  0  0  0
  -15.5356  -30.2989   23.7666 H   0  0  0  0  0  0
  -15.8662  -28.0818   22.7080 H   0  0  0  0  0  0
  -24.5902  -30.7059   25.7776 H   0  0  0  0  0  0
  -24.8918  -32.2872   26.4899 H   0  0  0  0  0  0
  -25.8069  -30.8873   27.0220 H   0  0  0  0  0  0
  -26.2891  -29.6762   24.1208 H   0  0  0  0  0  0
  -27.4094  -29.7293   25.4617 H   0  0  0  0  0  0
  -27.8727  -30.4325   23.9308 H   0  0  0  0  0  0
  -27.2657  -33.3624   26.2062 H   0  0  0  0  0  0
  -28.3845  -32.6901   25.0296 H   0  0  0  0  0  0
  -28.0732  -31.8457   26.5386 H   0  0  0  0  0  0
  -28.2593  -38.0095   24.7509 H   0  0  0  0  0  0
  -28.1080  -36.2626   24.6295 H   0  0  0  0  0  0
  -27.2295  -37.1452   25.8867 H   0  0  0  0  0  0
  -20.9343  -29.8761   21.6906 H   0  0  0  0  0  0
  -26.0189  -38.2853   24.1415 H   0  0  0  0  0  0
  -30.0743  -18.9110   18.3741 H   0  0  0  0  0  0
  -29.1625  -18.4720   22.5478 H   0  0  0  0  0  0
  -26.1185  -23.4517   20.9267 H   0  0  0  0  0  0
  -26.5377  -22.5780   19.3735 H   0  0  0  0  0  0
  -28.2080  -22.7004   21.9982 H   0  0  0  0  0  0
  -28.6711  -23.8924   19.1607 H   0  0  0  0  0  0
  -29.4144  -20.8432   17.2286 H   0  0  0  0  0  0
  -29.9273  -22.2342   18.1723 H   0  0  0  0  0  0
  -28.2027  -21.9035   17.9219 H   0  0  0  0  0  0
  -31.2972  -17.2427   21.2173 H   0  0  0  0  0  0
  -31.0749  -17.0917   19.5117 H   0  0  0  0  0  0
  -29.2051  -25.2477   21.4233 H   0  0  0  0  0  0
  -27.4919  -25.3484   21.6093 H   0  0  0  0  0  0
  -28.9542  -15.6606   20.8501 H   0  0  0  0  0  0
  1 25  1  0  0  0
  1 30  2  0  0  0
  1 83  1  0  0  0
  2  3  1  0  0  0
  2 25  1  0  0  0
  2 84  1  0  0  0
  2 85  1  0  0  0
  3  4  1  0  0  0
  3 86  1  0  0  0
  3 87  1  0  0  0
  4  5  1  0  0  0
  4 88  1  0  0  0
  4 89  1  0  0  0
  5  6  1  0  0  0
  5 26  1  0  0  0
  5 90  1  0  0  0
  6 25  1  0  0  0
  6 91  1  0  0  0
  6 92  1  0  0  0
  7  8  2  0  0  0
  7 26  1  0  0  0
  7 29  1  0  0  0
  8  9  1  0  0  0
  8 22  1  0  0  0
  9 10  1  0  0  0
  9 27  2  0  0  0
 10 11  2  0  0  0
 10 15  1  0  0  0
 11 12  1  0  0  0
 11 93  1  0  0  0
 12 13  2  0  0  0
 12 94  1  0  0  0
 13 14  1  0  0  0
 13 31  1  0  0  0
 14 15  2  0  0  0
 14 95  1  0  0  0
 15 96  1  0  0  0
 16 17  2  0  0  0
 16 21  1  0  0  0
 16 31  1  0  0  0
 17 18  1  0  0  0
 17 97  1  0  0  0
 18 19  2  0  0  0
 18 98  1  0  0  0
 19 20  1  0  0  0
 19 24  1  0  0  0
 20 21  2  0  0  0
 20 99  1  0  0  0
 21 23  1  0  0  0
 22 28  1  0  0  0
 22 32  2  0  0  0
 26 27  1  0  0  0
 28100  1  0  0  0
 28101  1  0  0  0
 29102  1  0  0  0
 29103  1  0  0  0
 33 34  1  0  0  0
 33 66  1  0  0  0
 33 70  2  0  0  0
 34 36  1  0  0  0
 34 59  1  0  0  0
 34104  1  0  0  0
 35 44  2  0  0  0
 35 45  1  0  0  0
 35 68  1  0  0  0
 36 56  1  0  0  0
 36105  1  0  0  0
 37 39  1  0  0  0
 37 47  1  0  0  0
 37 66  1  0  0  0
 37106  1  0  0  0
 38 43  2  0  0  0
 38 46  1  0  0  0
 38 47  1  0  0  0
 39 64  1  0  0  0
 39 67  2  0  0  0
 40 52  1  0  0  0
 40 53  2  0  0  0
 40 58  1  0  0  0
 41107  1  0  0  0
 41108  1  0  0  0
 41109  1  0  0  0
 41 48  1  0  0  0
 42 43  1  0  0  0
 42 66  1  0  0  0
 42110  1  0  0  0
 42111  1  0  0  0
 43 44  1  0  0  0
 44112  1  0  0  0
 45 46  2  0  0  0
 45113  1  0  0  0
 46114  1  0  0  0
 47115  1  0  0  0
 47116  1  0  0  0
 48 56  1  0  0  0
 48 65  1  0  0  0
 48117  1  0  0  0
 49 50  1  0  0  0
 49 53  1  0  0  0
 49 64  1  0  0  0
 49118  1  0  0  0
 50 51  1  0  0  0
 50119  1  0  0  0
 50120  1  0  0  0
 51 52  1  0  0  0
 51121  1  0  0  0
 51122  1  0  0  0
 52123  1  0  0  0
 52124  1  0  0  0
 53 54  1  0  0  0
 54 55  2  0  0  0
 54125  1  0  0  0
 55 57  1  0  0  0
 55126  1  0  0  0
 56 69  2  0  0  0
 57 58  2  0  0  0
 57127  1  0  0  0
 58128  1  0  0  0
 59 60  1  0  0  0
 59 61  1  0  0  0
 59 62  1  0  0  0
 60129  1  0  0  0
 60130  1  0  0  0
 60131  1  0  0  0
 61132  1  0  0  0
 61133  1  0  0  0
 61134  1  0  0  0
 62135  1  0  0  0
 62136  1  0  0  0
 62137  1  0  0  0
 63 65  1  0  0  0
 63138  1  0  0  0
 63139  1  0  0  0
 63140  1  0  0  0
 64141  1  0  0  0
 65142  1  0  0  0
 68 81  1  0  0  0
 71 73  2  0  0  0
 71 74  1  0  0  0
 71143  1  0  0  0
 72 73  1  0  0  0
 72 82  2  0  0  0
 72144  1  0  0  0
 73 80  1  0  0  0
 74 75  2  0  0  0
 74 79  1  0  0  0
 75 82  1  0  0  0
 75 77  1  0  0  0
 76 77  1  0  0  0
 76 78  1  0  0  0
 76145  1  0  0  0
 76146  1  0  0  0
 77 78  1  0  0  0
 77147  1  0  0  0
 78 81  1  0  0  0
 78148  1  0  0  0
 79149  1  0  0  0
 79150  1  0  0  0
 79151  1  0  0  0
 80 83  1  0  0  0
 80152  1  0  0  0
 80153  1  0  0  0
 81154  1  0  0  0
 81155  1  0  0  0
 83156  1  0  0  0
M  ISO  4   1 100  68 101  81 101  83 100
M  END
> <chiral flag>
0

> <version>
0

> <s_m_source_file>
/data/baiqing/PycharmProjects/Reinvent-master-3.2/result/LINK_invent/BTK/process_docking_weight1_custom_sum_contain_oxygen_bond_distance_aromatic_linkinvent_7_9_3/rearranged_h_0145.sdf

> <i_m_source_file_index>
57

> <r_mmod_Potential_Energy-OPLS-2005>
-73.7254638671875

> <r_mmod_Stretch_Energy-OPLS-2005>
66.2027740478516

> <r_mmod_Bend_Energy-OPLS-2005>
143.722732543945

> <r_mmod_Torsional_Energy-OPLS-2005>
265.613189697266

> <r_mmod_Improper_Torsional_Energy-OPLS-2005>
7.04350805282593

> <r_mmod_Van_der_Waal_Energy-OPLS-2005>
141.827835083008

> <r_mmod_Electrostatic_Energy-OPLS-2005>
-518.481323242188

> <r_mmod_Solvation_Energy-OPLS-2005>
-218.727874755859

> <b_mmod_Minimization_Converged-OPLS-2005>
0

> <r_mmod_RMS_Derivative-OPLS-2005>
1.48142158985138

$$$$
58
                    3D
 Structure written by MMmdl.
168176  0  0  1  0            999 V2000
  -30.7258  -14.4479   20.6182 C   0  0  0  0  0  0
  -30.4207  -12.3137   19.4097 C   0  0  0  0  0  0
  -29.4874  -12.5121   18.1991 C   0  0  0  0  0  0
  -28.0115  -12.3658   18.6174 C   0  0  0  0  0  0
  -27.6610  -13.2052   19.8744 C   0  0  2  0  0  0
  -28.7030  -12.9822   20.9924 C   0  0  0  0  0  0
  -25.2584  -13.8156   20.5680 C   0  0  0  0  0  0
  -24.1838  -13.0433   20.9185 C   0  0  0  0  0  0
  -24.6391  -11.6900   20.8739 C   0  0  0  0  0  0
  -23.9061  -10.4287   21.0409 C   0  0  0  0  0  0
  -24.3614   -9.4203   21.9185 C   0  0  0  0  0  0
  -23.6290   -8.2240   22.0752 C   0  0  0  0  0  0
  -22.4273   -8.0280   21.3544 C   0  0  0  0  0  0
  -21.9910   -9.0253   20.4646 C   0  0  0  0  0  0
  -22.7235  -10.2132   20.3057 C   0  0  0  0  0  0
  -21.6852   -6.0738   22.5280 C   0  0  0  0  0  0
  -21.4012   -6.5642   23.8212 C   0  0  0  0  0  0
  -21.3658   -5.6794   24.9175 C   0  0  0  0  0  0
  -21.6048   -4.3055   24.7227 C   0  0  0  0  0  0
  -21.8820   -3.8147   23.4346 C   0  0  0  0  0  0
  -21.9190   -4.6965   22.3403 C   0  0  0  0  0  0
  -22.7862  -13.5231   21.1852 C   0  0  0  0  0  0
  -22.1662   -4.2150   21.0979 F   0  0  0  0  0  0
  -21.5629   -3.4538   25.7741 F   0  0  0  0  0  0
  -30.0343  -13.2898   20.4407 N   0  0  0  0  0  0
  -26.3019  -12.9325   20.3366 N   0  0  0  0  0  0
  -25.9316  -11.6486   20.5769 N   0  0  0  0  0  0
  -22.0508  -12.8218   22.0406 N   0  0  0  0  0  0
  -25.4315  -15.1874   20.4084 N   0  0  0  0  0  0
  -31.8199  -14.6670   20.0927 O   0  0  0  0  0  0
  -21.6636   -6.8877   21.4239 O   0  0  0  0  0  0
  -22.3551  -14.5544   20.6706 O   0  0  0  0  0  0
  -24.6138  -31.8671   23.2112 C   0  0  0  0  0  0
  -25.9029  -32.4822   23.8405 C   0  0  1  0  0  0
  -27.2332  -27.4287   20.0971 C   0  0  0  0  0  0
  -25.5887  -33.8621   24.2332 N   0  0  0  0  0  0
  -23.4030  -30.4901   21.5514 C   0  0  2  0  0  0
  -24.8497  -28.9547   20.1157 C   0  0  0  0  0  0
  -22.7408  -29.4650   22.4999 C   0  0  0  0  0  0
  -18.0267  -28.1365   22.8492 C   0  0  0  0  0  0
  -24.1487  -36.7316   23.2642 C   0  0  0  0  0  0
  -25.9327  -30.8277   21.3691 C   0  0  0  0  0  0
  -26.0089  -29.4617   20.7167 C   0  0  0  0  0  0
  -27.2037  -28.7039   20.7083 C   0  0  0  0  0  0
  -26.0602  -26.9428   19.4789 C   0  0  0  0  0  0
  -24.8688  -27.6933   19.4959 C   0  0  0  0  0  0
  -23.6115  -29.8220   20.1663 C   0  0  0  0  0  0
  -25.4109  -36.3112   24.0340 C   0  0  1  0  0  0
  -20.5859  -28.3654   23.1314 C   0  0  2  0  0  0
  -20.6762  -26.9391   22.5417 C   0  0  0  0  0  0
  -19.5745  -26.6378   21.5210 C   0  0  0  0  0  0
  -18.1918  -26.7915   22.1616 C   0  0  0  0  0  0
  -19.1517  -28.8827   23.2900 C   0  0  0  0  0  0
  -18.9448  -30.1432   23.8911 C   0  0  0  0  0  0
  -17.6455  -30.6581   24.0557 C   0  0  0  0  0  0
  -25.9035  -34.9474   23.5136 C   0  0  0  0  0  0
  -16.5344  -29.9082   23.6327 C   0  0  0  0  0  0
  -16.7258  -28.6493   23.0358 C   0  0  0  0  0  0
  -26.4463  -31.6606   25.0737 C   0  0  0  0  0  0
  -25.3736  -31.3688   26.1489 C   0  0  0  0  0  0
  -27.0316  -30.3050   24.6130 C   0  0  0  0  0  0
  -27.6042  -32.4336   25.7486 C   0  0  0  0  0  0
  -27.5581  -37.1806   24.8464 C   0  0  0  0  0  0
  -21.4137  -29.3024   22.3728 N   0  0  0  0  0  0
  -26.4296  -37.3793   23.9411 N   0  0  0  0  0  0
  -24.6677  -31.0768   22.1014 N   0  0  0  0  0  0
  -23.4178  -28.8191   23.3043 O   0  0  0  0  0  0
  -28.3931  -26.6778   20.0895 O   0  0  0  0  0  0
  -26.5601  -34.8924   22.4703 O   0  0  0  0  0  0
  -23.5326  -32.1435   23.7495 O   0  0  0  0  0  0
  -29.1428  -23.0492   19.9638 C   0  0  0  0  0  0
  -29.1739  -24.4299   19.6799 C   0  0  0  0  0  0
  -27.5014  -24.7926   21.3788 C   0  0  0  0  0  0
  -28.2806  -22.5045   20.9497 C   0  0  0  0  0  0
  -27.4075  -23.3988   21.6681 C   0  0  0  0  0  0
  -28.3460  -25.3217   20.3805 C   0  0  0  0  0  0
  -25.3416  -24.0621   23.0936 C   0  0  0  0  0  0
  -27.0807  -22.6131   24.0689 C   0  0  0  0  0  0
  -25.4844  -21.7633   22.2706 C   0  0  0  0  0  0
  -28.2957  -20.9735   21.1725 C   0  0  0  0  0  0
  -30.7396  -16.6277   21.8624 C   0  0  0  0  0  0
  -29.5691  -20.1584   20.8038 C   0  0  0  0  0  0
  -30.6263  -17.8639   20.9230 C   0  0  0  0  0  0
  -26.3649  -22.9474   22.7429 C   0  0  0  0  0  0
  -30.1206  -15.3851   21.3701 N   0  0  0  0  0  0
  -29.4581  -18.7316   21.2302 N   0  3  0  0  0  0
  -31.4633  -12.4179   19.1038 H   0  0  0  0  0  0
  -30.3270  -11.2999   19.8019 H   0  0  0  0  0  0
  -29.7252  -11.7902   17.4167 H   0  0  0  0  0  0
  -29.6506  -13.4995   17.7644 H   0  0  0  0  0  0
  -27.8276  -11.3095   18.8162 H   0  0  0  0  0  0
  -27.3553  -12.6369   17.7890 H   0  0  0  0  0  0
  -27.7076  -14.2536   19.5793 H   0  0  0  0  0  0
  -28.6813  -11.9445   21.3286 H   0  0  0  0  0  0
  -28.4561  -13.5736   21.8742 H   0  0  0  0  0  0
  -25.2758   -9.5679   22.4754 H   0  0  0  0  0  0
  -24.0002   -7.4633   22.7470 H   0  0  0  0  0  0
  -21.0844   -8.8774   19.8951 H   0  0  0  0  0  0
  -22.3697  -10.9674   19.6165 H   0  0  0  0  0  0
  -21.2004   -7.6147   23.9718 H   0  0  0  0  0  0
  -21.1481   -6.0524   25.9082 H   0  0  0  0  0  0
  -22.0598   -2.7611   23.2848 H   0  0  0  0  0  0
  -22.4124  -11.9866   22.4769 H   0  0  0  0  0  0
  -21.1130  -13.1242   22.2631 H   0  0  0  0  0  0
  -24.6623  -15.8416   20.5055 H   0  0  0  0  0  0
  -26.2804  -15.6200   20.0674 H   0  0  0  0  0  0
  -26.7095  -32.5526   23.1164 H   0  0  0  0  0  0
  -25.0030  -33.9793   25.0467 H   0  0  0  0  0  0
  -22.6912  -31.3065   21.4129 H   0  0  0  0  0  0
  -23.3750  -35.9647   23.3315 H   0  0  0  0  0  0
  -24.3568  -36.8930   22.2053 H   0  0  0  0  0  0
  -23.7240  -37.6524   23.6652 H   0  0  0  0  0  0
  -26.0516  -31.5928   20.6007 H   0  0  0  0  0  0
  -26.8171  -30.8771   21.9920 H   0  0  0  0  0  0
  -28.1006  -29.0883   21.1742 H   0  0  0  0  0  0
  -26.0645  -25.9775   18.9933 H   0  0  0  0  0  0
  -23.9783  -27.2982   19.0269 H   0  0  0  0  0  0
  -23.7185  -30.5964   19.4062 H   0  0  0  0  0  0
  -22.7359  -29.2408   19.8730 H   0  0  0  0  0  0
  -25.1284  -36.1978   25.0831 H   0  0  0  0  0  0
  -20.9941  -28.3223   24.1441 H   0  0  0  0  0  0
  -20.5664  -26.2266   23.3604 H   0  0  0  0  0  0
  -21.6634  -26.7437   22.1219 H   0  0  0  0  0  0
  -19.6916  -25.6295   21.1229 H   0  0  0  0  0  0
  -19.6687  -27.3193   20.6743 H   0  0  0  0  0  0
  -17.4194  -26.6664   21.4010 H   0  0  0  0  0  0
  -18.0315  -26.0048   22.9000 H   0  0  0  0  0  0
  -19.7928  -30.7230   24.2301 H   0  0  0  0  0  0
  -17.5017  -31.6266   24.5147 H   0  0  0  0  0  0
  -15.5344  -30.2987   23.7654 H   0  0  0  0  0  0
  -15.8654  -28.0813   22.7082 H   0  0  0  0  0  0
  -24.5910  -30.7039   25.7814 H   0  0  0  0  0  0
  -24.8922  -32.2831   26.4965 H   0  0  0  0  0  0
  -25.8096  -30.8832   27.0230 H   0  0  0  0  0  0
  -26.2873  -29.6780   24.1206 H   0  0  0  0  0  0
  -27.4117  -29.7307   25.4590 H   0  0  0  0  0  0
  -27.8688  -30.4384   23.9274 H   0  0  0  0  0  0
  -27.2673  -33.3636   26.2075 H   0  0  0  0  0  0
  -28.3825  -32.6903   25.0288 H   0  0  0  0  0  0
  -28.0740  -31.8464   26.5384 H   0  0  0  0  0  0
  -28.2599  -38.0105   24.7525 H   0  0  0  0  0  0
  -28.1083  -36.2639   24.6281 H   0  0  0  0  0  0
  -27.2299  -37.1447   25.8866 H   0  0  0  0  0  0
  -20.9300  -29.8748   21.6957 H   0  0  0  0  0  0
  -26.0192  -38.2875   24.1411 H   0  0  0  0  0  0
  -29.7967  -22.4109   19.3882 H   0  0  0  0  0  0
  -29.8404  -24.8049   18.9152 H   0  0  0  0  0  0
  -26.9012  -25.5160   21.9033 H   0  0  0  0  0  0
  -25.8052  -24.9101   23.5986 H   0  0  0  0  0  0
  -24.5753  -23.7045   23.7826 H   0  0  0  0  0  0
  -24.8222  -24.4304   22.2071 H   0  0  0  0  0  0
  -27.6273  -23.4800   24.4429 H   0  0  0  0  0  0
  -27.7997  -21.8030   23.9932 H   0  0  0  0  0  0
  -26.3664  -22.3237   24.8406 H   0  0  0  0  0  0
  -25.0831  -21.9426   21.2725 H   0  0  0  0  0  0
  -24.6315  -21.6105   22.9331 H   0  0  0  0  0  0
  -25.9852  -20.8018   22.2633 H   0  0  0  0  0  0
  -27.4569  -20.5592   20.6119 H   0  0  0  0  0  0
  -28.1158  -20.7699   22.2200 H   0  0  0  0  0  0
  -30.3380  -16.8535   22.8510 H   0  0  0  0  0  0
  -31.7987  -16.4278   22.0373 H   0  0  0  0  0  0
  -30.4395  -20.6055   21.2867 H   0  0  0  0  0  0
  -29.7445  -20.1898   19.7279 H   0  0  0  0  0  0
  -30.6323  -17.5767   19.8708 H   0  0  0  0  0  0
  -31.5260  -18.4629   21.0725 H   0  0  0  0  0  0
  -29.2136  -15.1401   21.7400 H   0  0  0  0  0  0
  -28.6391  -18.3194   20.8130 H   0  0  0  0  0  0
  -29.3259  -18.7215   22.2284 H   0  0  0  0  0  0
  1 25  1  0  0  0
  1 30  2  0  0  0
  1 85  1  0  0  0
  2  3  1  0  0  0
  2 25  1  0  0  0
  2 87  1  0  0  0
  2 88  1  0  0  0
  3  4  1  0  0  0
  3 89  1  0  0  0
  3 90  1  0  0  0
  4  5  1  0  0  0
  4 91  1  0  0  0
  4 92  1  0  0  0
  5  6  1  0  0  0
  5 26  1  0  0  0
  5 93  1  0  0  0
  6 25  1  0  0  0
  6 94  1  0  0  0
  6 95  1  0  0  0
  7  8  2  0  0  0
  7 26  1  0  0  0
  7 29  1  0  0  0
  8  9  1  0  0  0
  8 22  1  0  0  0
  9 10  1  0  0  0
  9 27  2  0  0  0
 10 11  2  0  0  0
 10 15  1  0  0  0
 11 12  1  0  0  0
 11 96  1  0  0  0
 12 13  2  0  0  0
 12 97  1  0  0  0
 13 14  1  0  0  0
 13 31  1  0  0  0
 14 15  2  0  0  0
 14 98  1  0  0  0
 15 99  1  0  0  0
 16 17  2  0  0  0
 16 21  1  0  0  0
 16 31  1  0  0  0
 17 18  1  0  0  0
 17100  1  0  0  0
 18 19  2  0  0  0
 18101  1  0  0  0
 19 20  1  0  0  0
 19 24  1  0  0  0
 20 21  2  0  0  0
 20102  1  0  0  0
 21 23  1  0  0  0
 22 28  1  0  0  0
 22 32  2  0  0  0
 26 27  1  0  0  0
 28103  1  0  0  0
 28104  1  0  0  0
 29105  1  0  0  0
 29106  1  0  0  0
 33 34  1  0  0  0
 33 66  1  0  0  0
 33 70  2  0  0  0
 34 36  1  0  0  0
 34 59  1  0  0  0
 34107  1  0  0  0
 35 44  2  0  0  0
 35 45  1  0  0  0
 35 68  1  0  0  0
 36 56  1  0  0  0
 36108  1  0  0  0
 37 39  1  0  0  0
 37 47  1  0  0  0
 37 66  1  0  0  0
 37109  1  0  0  0
 38 43  2  0  0  0
 38 46  1  0  0  0
 38 47  1  0  0  0
 39 64  1  0  0  0
 39 67  2  0  0  0
 40 52  1  0  0  0
 40 53  2  0  0  0
 40 58  1  0  0  0
 41110  1  0  0  0
 41111  1  0  0  0
 41112  1  0  0  0
 41 48  1  0  0  0
 42 43  1  0  0  0
 42 66  1  0  0  0
 42113  1  0  0  0
 42114  1  0  0  0
 43 44  1  0  0  0
 44115  1  0  0  0
 45 46  2  0  0  0
 45116  1  0  0  0
 46117  1  0  0  0
 47118  1  0  0  0
 47119  1  0  0  0
 48 56  1  0  0  0
 48 65  1  0  0  0
 48120  1  0  0  0
 49 50  1  0  0  0
 49 53  1  0  0  0
 49 64  1  0  0  0
 49121  1  0  0  0
 50 51  1  0  0  0
 50122  1  0  0  0
 50123  1  0  0  0
 51 52  1  0  0  0
 51124  1  0  0  0
 51125  1  0  0  0
 52126  1  0  0  0
 52127  1  0  0  0
 53 54  1  0  0  0
 54 55  2  0  0  0
 54128  1  0  0  0
 55 57  1  0  0  0
 55129  1  0  0  0
 56 69  2  0  0  0
 57 58  2  0  0  0
 57130  1  0  0  0
 58131  1  0  0  0
 59 60  1  0  0  0
 59 61  1  0  0  0
 59 62  1  0  0  0
 60132  1  0  0  0
 60133  1  0  0  0
 60134  1  0  0  0
 61135  1  0  0  0
 61136  1  0  0  0
 61137  1  0  0  0
 62138  1  0  0  0
 62139  1  0  0  0
 62140  1  0  0  0
 63 65  1  0  0  0
 63141  1  0  0  0
 63142  1  0  0  0
 63143  1  0  0  0
 64144  1  0  0  0
 65145  1  0  0  0
 68 76  1  0  0  0
 71 72  2  0  0  0
 71 74  1  0  0  0
 71146  1  0  0  0
 72 76  1  0  0  0
 72147  1  0  0  0
 73 75  1  0  0  0
 73 76  2  0  0  0
 73148  1  0  0  0
 74 75  2  0  0  0
 74 80  1  0  0  0
 75 84  1  0  0  0
 77149  1  0  0  0
 77150  1  0  0  0
 77151  1  0  0  0
 77 84  1  0  0  0
 78 84  1  0  0  0
 78152  1  0  0  0
 78153  1  0  0  0
 78154  1  0  0  0
 79 84  1  0  0  0
 79155  1  0  0  0
 79156  1  0  0  0
 79157  1  0  0  0
 80 82  1  0  0  0
 80158  1  0  0  0
 80159  1  0  0  0
 81 83  1  0  0  0
 81 85  1  0  0  0
 81160  1  0  0  0
 81161  1  0  0  0
 82 86  1  0  0  0
 82162  1  0  0  0
 82163  1  0  0  0
 83 86  1  0  0  0
 83164  1  0  0  0
 83165  1  0  0  0
 85166  1  0  0  0
 86167  1  0  0  0
 86168  1  0  0  0
M  CHG  1  86   1
M  ISO  4   1 100  68 101  76 101  85 100
M  END
> <chiral flag>
0

> <version>
0

> <s_m_source_file>
/data/baiqing/PycharmProjects/Reinvent-master-3.2/result/LINK_invent/BTK/process_docking_weight1_custom_sum_contain_oxygen_bond_distance_aromatic_linkinvent_7_9_3/rearranged_h_0145.sdf

> <i_m_source_file_index>
58

> <r_mmod_Potential_Energy-OPLS-2005>
-243.158325195312

> <r_mmod_Stretch_Energy-OPLS-2005>
47.7898597717285

> <r_mmod_Bend_Energy-OPLS-2005>
115.043670654297

> <r_mmod_Torsional_Energy-OPLS-2005>
235.729141235352

> <r_mmod_Improper_Torsional_Energy-OPLS-2005>
2.24769425392151

> <r_mmod_Van_der_Waal_Energy-OPLS-2005>
169.544372558594

> <r_mmod_Electrostatic_Energy-OPLS-2005>
-346.433898925781

> <r_mmod_Solvation_Energy-OPLS-2005>
-478.114471435547

> <b_mmod_Minimization_Converged-OPLS-2005>
0

> <r_mmod_RMS_Derivative-OPLS-2005>
1.09730803966522

$$$$
59
                    3D
 Structure written by MMmdl.
162170  0  0  1  0            999 V2000
  -30.7563  -14.4607   20.5170 C   0  0  0  0  0  0
  -30.4027  -12.2895   19.4395 C   0  0  0  0  0  0
  -29.4901  -12.4794   18.2131 C   0  0  0  0  0  0
  -28.0117  -12.3553   18.6252 C   0  0  0  0  0  0
  -27.6519  -13.2174   19.8658 C   0  0  2  0  0  0
  -28.6987  -13.0637   20.9948 C   0  0  0  0  0  0
  -25.2428  -13.8049   20.5578 C   0  0  0  0  0  0
  -24.1767  -13.0335   20.9236 C   0  0  0  0  0  0
  -24.6390  -11.6841   20.8809 C   0  0  0  0  0  0
  -23.9073  -10.4235   21.0442 C   0  0  0  0  0  0
  -24.3618   -9.4152   21.9214 C   0  0  0  0  0  0
  -23.6281   -8.2199   22.0767 C   0  0  0  0  0  0
  -22.4270   -8.0256   21.3543 C   0  0  0  0  0  0
  -21.9914   -9.0237   20.4651 C   0  0  0  0  0  0
  -22.7253  -10.2107   20.3072 C   0  0  0  0  0  0
  -21.6844   -6.0728   22.5276 C   0  0  0  0  0  0
  -21.4000   -6.5632   23.8209 C   0  0  0  0  0  0
  -21.3656   -5.6786   24.9172 C   0  0  0  0  0  0
  -21.6042   -4.3050   24.7223 C   0  0  0  0  0  0
  -21.8823   -3.8143   23.4345 C   0  0  0  0  0  0
  -21.9188   -4.6956   22.3399 C   0  0  0  0  0  0
  -22.7795  -13.5156   21.1867 C   0  0  0  0  0  0
  -22.1663   -4.2140   21.0979 F   0  0  0  0  0  0
  -21.5634   -3.4535   25.7742 F   0  0  0  0  0  0
  -30.0283  -13.3173   20.4231 N   0  0  0  0  0  0
  -26.2965  -12.9328   20.3359 N   0  0  0  0  0  0
  -25.9330  -11.6478   20.5844 N   0  0  0  0  0  0
  -22.0428  -12.8183   22.0444 N   0  0  0  0  0  0
  -25.3824  -15.1693   20.3645 N   0  0  0  0  0  0
  -31.9387  -14.5129   20.1770 O   0  0  0  0  0  0
  -21.6621   -6.8867   21.4239 O   0  0  0  0  0  0
  -22.3500  -14.5466   20.6701 O   0  0  0  0  0  0
  -24.6108  -31.8696   23.2123 C   0  0  0  0  0  0
  -25.9013  -32.4838   23.8415 C   0  0  1  0  0  0
  -27.2419  -27.4670   20.1061 C   0  0  0  0  0  0
  -25.5895  -33.8636   24.2343 N   0  0  0  0  0  0
  -23.4000  -30.4907   21.5505 C   0  0  2  0  0  0
  -24.8513  -28.9599   20.1161 C   0  0  0  0  0  0
  -22.7403  -29.4654   22.4998 C   0  0  0  0  0  0
  -18.0276  -28.1355   22.8472 C   0  0  0  0  0  0
  -24.1502  -36.7331   23.2636 C   0  0  0  0  0  0
  -25.9230  -30.8479   21.3609 C   0  0  0  0  0  0
  -26.0060  -29.4829   20.7125 C   0  0  0  0  0  0
  -27.2067  -28.7426   20.7063 C   0  0  0  0  0  0
  -26.0778  -26.9475   19.5056 C   0  0  0  0  0  0
  -24.8808  -27.6898   19.5098 C   0  0  0  0  0  0
  -23.6091  -29.8200   20.1654 C   0  0  0  0  0  0
  -25.4119  -36.3130   24.0342 C   0  0  1  0  0  0
  -20.5864  -28.3646   23.1311 C   0  0  2  0  0  0
  -20.6785  -26.9389   22.5406 C   0  0  0  0  0  0
  -19.5765  -26.6363   21.5196 C   0  0  0  0  0  0
  -18.1935  -26.7907   22.1598 C   0  0  0  0  0  0
  -19.1522  -28.8817   23.2888 C   0  0  0  0  0  0
  -18.9455  -30.1425   23.8892 C   0  0  0  0  0  0
  -17.6460  -30.6569   24.0547 C   0  0  0  0  0  0
  -25.9034  -34.9485   23.5136 C   0  0  0  0  0  0
  -16.5346  -29.9061   23.6324 C   0  0  0  0  0  0
  -16.7264  -28.6479   23.0331 C   0  0  0  0  0  0
  -26.4462  -31.6614   25.0722 C   0  0  0  0  0  0
  -25.3732  -31.3715   26.1470 C   0  0  0  0  0  0
  -27.0286  -30.3072   24.6051 C   0  0  0  0  0  0
  -27.6047  -32.4340   25.7474 C   0  0  0  0  0  0
  -27.5599  -37.1823   24.8455 C   0  0  0  0  0  0
  -21.4135  -29.3014   22.3726 N   0  0  0  0  0  0
  -26.4308  -37.3805   23.9402 N   0  0  0  0  0  0
  -24.6623  -31.0822   22.1008 N   0  0  0  0  0  0
  -23.4171  -28.8197   23.3038 O   0  0  0  0  0  0
  -28.4023  -26.7362   20.0975 O   0  0  0  0  0  0
  -26.5576  -34.8923   22.4690 O   0  0  0  0  0  0
  -23.5304  -32.1425   23.7540 O   0  0  0  0  0  0
  -27.9776  -19.6622   21.0518 C   0  0  0  0  0  0
  -28.5239  -18.3926   20.7841 C   0  0  0  0  0  0
  -29.9298  -18.2114   20.8676 C   0  0  0  0  0  0
  -30.6959  -19.3457   21.2650 C   0  0  0  0  0  0
  -28.8308  -20.7321   21.3389 C   0  0  0  0  0  0
  -27.5820  -17.2925   20.3551 C   0  0  0  0  0  0
  -32.2056  -19.2970   21.4353 C   0  0  0  0  0  0
  -30.8168  -17.0682   18.8312 C   0  0  0  0  0  0
  -28.2803  -24.3705   20.8062 C   0  0  0  0  0  0
  -28.5477  -25.8513   21.2164 C   0  0  0  0  0  0
  -29.1533  -23.1042   21.0849 C   0  0  0  0  0  0
  -30.6456  -16.9329   20.3638 C   0  0  2  0  0  0
  -30.1608  -20.5688   21.4809 N   0  0  0  0  0  0
  -30.0771  -15.6097   20.7220 N   0  0  0  0  0  0
  -28.3039  -22.0042   21.4303 O   0  0  0  0  0  0
  -31.4502  -12.3461   19.1403 H   0  0  0  0  0  0
  -30.2700  -11.2954   19.8683 H   0  0  0  0  0  0
  -29.7266  -11.7351   17.4506 H   0  0  0  0  0  0
  -29.6721  -13.4551   17.7580 H   0  0  0  0  0  0
  -27.8216  -11.3033   18.8403 H   0  0  0  0  0  0
  -27.3639  -12.6143   17.7877 H   0  0  0  0  0  0
  -27.6755  -14.2560   19.5373 H   0  0  0  0  0  0
  -28.6675  -12.0575   21.4159 H   0  0  0  0  0  0
  -28.4820  -13.7445   21.8202 H   0  0  0  0  0  0
  -25.2756   -9.5623   22.4801 H   0  0  0  0  0  0
  -23.9975   -7.4583   22.7486 H   0  0  0  0  0  0
  -21.0847   -8.8767   19.8954 H   0  0  0  0  0  0
  -22.3724  -10.9659   19.6187 H   0  0  0  0  0  0
  -21.1986   -7.6138   23.9708 H   0  0  0  0  0  0
  -21.1477   -6.0517   25.9075 H   0  0  0  0  0  0
  -22.0607   -2.7605   23.2847 H   0  0  0  0  0  0
  -22.4021  -11.9851   22.4861 H   0  0  0  0  0  0
  -21.1048  -13.1234   22.2621 H   0  0  0  0  0  0
  -24.5722  -15.7784   20.3927 H   0  0  0  0  0  0
  -26.1610  -15.5711   19.8631 H   0  0  0  0  0  0
  -26.7099  -32.5556   23.1202 H   0  0  0  0  0  0
  -25.0095  -33.9823   25.0512 H   0  0  0  0  0  0
  -22.6873  -31.3067   21.4115 H   0  0  0  0  0  0
  -23.3762  -35.9672   23.3299 H   0  0  0  0  0  0
  -24.3610  -36.8930   22.2058 H   0  0  0  0  0  0
  -23.7246  -37.6537   23.6638 H   0  0  0  0  0  0
  -26.0244  -31.6164   20.5934 H   0  0  0  0  0  0
  -26.8147  -30.9060   21.9738 H   0  0  0  0  0  0
  -28.1021  -29.1412   21.1628 H   0  0  0  0  0  0
  -26.0987  -25.9714   19.0423 H   0  0  0  0  0  0
  -23.9936  -27.2810   19.0462 H   0  0  0  0  0  0
  -23.7166  -30.5929   19.4034 H   0  0  0  0  0  0
  -22.7358  -29.2364   19.8686 H   0  0  0  0  0  0
  -25.1300  -36.2022   25.0839 H   0  0  0  0  0  0
  -20.9961  -28.3228   24.1429 H   0  0  0  0  0  0
  -20.5721  -26.2250   23.3593 H   0  0  0  0  0  0
  -21.6654  -26.7470   22.1176 H   0  0  0  0  0  0
  -19.6940  -25.6272   21.1221 H   0  0  0  0  0  0
  -19.6719  -27.3182   20.6735 H   0  0  0  0  0  0
  -17.4222  -26.6659   21.3980 H   0  0  0  0  0  0
  -18.0333  -26.0033   22.8986 H   0  0  0  0  0  0
  -19.7934  -30.7227   24.2274 H   0  0  0  0  0  0
  -17.5011  -31.6257   24.5140 H   0  0  0  0  0  0
  -15.5342  -30.2951   23.7656 H   0  0  0  0  0  0
  -15.8667  -28.0798   22.7043 H   0  0  0  0  0  0
  -24.5895  -30.7076   25.7797 H   0  0  0  0  0  0
  -24.8927  -32.2873   26.4933 H   0  0  0  0  0  0
  -25.8091  -30.8869   27.0211 H   0  0  0  0  0  0
  -26.2813  -29.6848   24.1111 H   0  0  0  0  0  0
  -27.4085  -29.7299   25.4487 H   0  0  0  0  0  0
  -27.8638  -30.4422   23.9169 H   0  0  0  0  0  0
  -27.2671  -33.3637   26.2073 H   0  0  0  0  0  0
  -28.3840  -32.6903   25.0280 H   0  0  0  0  0  0
  -28.0718  -31.8431   26.5359 H   0  0  0  0  0  0
  -28.2605  -38.0140   24.7531 H   0  0  0  0  0  0
  -28.1116  -36.2667   24.6257 H   0  0  0  0  0  0
  -27.2312  -37.1427   25.8857 H   0  0  0  0  0  0
  -20.9308  -29.8701   21.6913 H   0  0  0  0  0  0
  -26.0214  -38.2887   24.1403 H   0  0  0  0  0  0
  -26.9152  -19.8401   20.9604 H   0  0  0  0  0  0
  -26.5786  -17.6838   20.1856 H   0  0  0  0  0  0
  -27.5209  -16.5434   21.1426 H   0  0  0  0  0  0
  -27.9054  -16.8210   19.4282 H   0  0  0  0  0  0
  -32.6969  -19.0593   20.4914 H   0  0  0  0  0  0
  -32.4812  -18.5441   22.1737 H   0  0  0  0  0  0
  -32.6041  -20.2496   21.7860 H   0  0  0  0  0  0
  -31.3306  -17.9965   18.5787 H   0  0  0  0  0  0
  -29.8594  -17.0810   18.3124 H   0  0  0  0  0  0
  -31.4082  -16.2633   18.3959 H   0  0  0  0  0  0
  -28.0984  -24.2605   21.8767 H   0  0  0  0  0  0
  -29.1233  -24.6096   20.1575 H   0  0  0  0  0  0
  -29.5595  -25.9719   21.6140 H   0  0  0  0  0  0
  -27.8893  -26.1818   22.0279 H   0  0  0  0  0  0
  -29.8834  -23.2787   21.8811 H   0  0  0  0  0  0
  -29.7291  -22.8041   20.2008 H   0  0  0  0  0  0
  -31.6443  -16.9279   20.7992 H   0  0  0  0  0  0
  -29.1051  -15.5507   20.9788 H   0  0  0  0  0  0
  1 25  1  0  0  0
  1 30  2  0  0  0
  1 84  1  0  0  0
  2  3  1  0  0  0
  2 25  1  0  0  0
  2 86  1  0  0  0
  2 87  1  0  0  0
  3  4  1  0  0  0
  3 88  1  0  0  0
  3 89  1  0  0  0
  4  5  1  0  0  0
  4 90  1  0  0  0
  4 91  1  0  0  0
  5  6  1  0  0  0
  5 26  1  0  0  0
  5 92  1  0  0  0
  6 25  1  0  0  0
  6 93  1  0  0  0
  6 94  1  0  0  0
  7  8  2  0  0  0
  7 26  1  0  0  0
  7 29  1  0  0  0
  8  9  1  0  0  0
  8 22  1  0  0  0
  9 10  1  0  0  0
  9 27  2  0  0  0
 10 11  2  0  0  0
 10 15  1  0  0  0
 11 12  1  0  0  0
 11 95  1  0  0  0
 12 13  2  0  0  0
 12 96  1  0  0  0
 13 14  1  0  0  0
 13 31  1  0  0  0
 14 15  2  0  0  0
 14 97  1  0  0  0
 15 98  1  0  0  0
 16 17  2  0  0  0
 16 21  1  0  0  0
 16 31  1  0  0  0
 17 18  1  0  0  0
 17 99  1  0  0  0
 18 19  2  0  0  0
 18100  1  0  0  0
 19 20  1  0  0  0
 19 24  1  0  0  0
 20 21  2  0  0  0
 20101  1  0  0  0
 21 23  1  0  0  0
 22 28  1  0  0  0
 22 32  2  0  0  0
 26 27  1  0  0  0
 28102  1  0  0  0
 28103  1  0  0  0
 29104  1  0  0  0
 29105  1  0  0  0
 33 34  1  0  0  0
 33 66  1  0  0  0
 33 70  2  0  0  0
 34 36  1  0  0  0
 34 59  1  0  0  0
 34106  1  0  0  0
 35 44  2  0  0  0
 35 45  1  0  0  0
 35 68  1  0  0  0
 36 56  1  0  0  0
 36107  1  0  0  0
 37 39  1  0  0  0
 37 47  1  0  0  0
 37 66  1  0  0  0
 37108  1  0  0  0
 38 43  2  0  0  0
 38 46  1  0  0  0
 38 47  1  0  0  0
 39 64  1  0  0  0
 39 67  2  0  0  0
 40 52  1  0  0  0
 40 53  2  0  0  0
 40 58  1  0  0  0
 41109  1  0  0  0
 41110  1  0  0  0
 41111  1  0  0  0
 41 48  1  0  0  0
 42 43  1  0  0  0
 42 66  1  0  0  0
 42112  1  0  0  0
 42113  1  0  0  0
 43 44  1  0  0  0
 44114  1  0  0  0
 45 46  2  0  0  0
 45115  1  0  0  0
 46116  1  0  0  0
 47117  1  0  0  0
 47118  1  0  0  0
 48 56  1  0  0  0
 48 65  1  0  0  0
 48119  1  0  0  0
 49 50  1  0  0  0
 49 53  1  0  0  0
 49 64  1  0  0  0
 49120  1  0  0  0
 50 51  1  0  0  0
 50121  1  0  0  0
 50122  1  0  0  0
 51 52  1  0  0  0
 51123  1  0  0  0
 51124  1  0  0  0
 52125  1  0  0  0
 52126  1  0  0  0
 53 54  1  0  0  0
 54 55  2  0  0  0
 54127  1  0  0  0
 55 57  1  0  0  0
 55128  1  0  0  0
 56 69  2  0  0  0
 57 58  2  0  0  0
 57129  1  0  0  0
 58130  1  0  0  0
 59 60  1  0  0  0
 59 61  1  0  0  0
 59 62  1  0  0  0
 60131  1  0  0  0
 60132  1  0  0  0
 60133  1  0  0  0
 61134  1  0  0  0
 61135  1  0  0  0
 61136  1  0  0  0
 62137  1  0  0  0
 62138  1  0  0  0
 62139  1  0  0  0
 63 65  1  0  0  0
 63140  1  0  0  0
 63141  1  0  0  0
 63142  1  0  0  0
 64143  1  0  0  0
 65144  1  0  0  0
 68 80  1  0  0  0
 71 72  2  0  0  0
 71 75  1  0  0  0
 71145  1  0  0  0
 72 73  1  0  0  0
 72 76  1  0  0  0
 73 74  2  0  0  0
 73 82  1  0  0  0
 74 77  1  0  0  0
 74 83  1  0  0  0
 75 83  2  0  0  0
 75 85  1  0  0  0
 76146  1  0  0  0
 76147  1  0  0  0
 76148  1  0  0  0
 77149  1  0  0  0
 77150  1  0  0  0
 77151  1  0  0  0
 78152  1  0  0  0
 78153  1  0  0  0
 78154  1  0  0  0
 78 82  1  0  0  0
 79 80  1  0  0  0
 79 81  1  0  0  0
 79155  1  0  0  0
 79156  1  0  0  0
 80157  1  0  0  0
 80158  1  0  0  0
 81 85  1  0  0  0
 81159  1  0  0  0
 81160  1  0  0  0
 82 84  1  0  0  0
 82161  1  0  0  0
 84162  1  0  0  0
M  ISO  4   1 100  68 101  80 101  84 100
M  END
> <chiral flag>
0

> <version>
0

> <s_m_source_file>
/data/baiqing/PycharmProjects/Reinvent-master-3.2/result/LINK_invent/BTK/process_docking_weight1_custom_sum_contain_oxygen_bond_distance_aromatic_linkinvent_7_9_3/rearranged_h_0145.sdf

> <i_m_source_file_index>
59

> <r_mmod_Potential_Energy-OPLS-2005>
93.0030975341797

> <r_mmod_Stretch_Energy-OPLS-2005>
39.7249298095703

> <r_mmod_Bend_Energy-OPLS-2005>
325.449645996094

> <r_mmod_Torsional_Energy-OPLS-2005>
241.727325439453

> <r_mmod_Improper_Torsional_Energy-OPLS-2005>
9.31255054473877

> <r_mmod_Van_der_Waal_Energy-OPLS-2005>
185.351852416992

> <r_mmod_Electrostatic_Energy-OPLS-2005>
-519.69091796875

> <r_mmod_Solvation_Energy-OPLS-2005>
-208.898132324219

> <b_mmod_Minimization_Converged-OPLS-2005>
0

> <r_mmod_RMS_Derivative-OPLS-2005>
1.70211613178253

$$$$
60
                    3D
 Structure written by MMmdl.
174184  0  0  1  0            999 V2000
  -30.6430  -14.6653   20.4672 C   0  0  0  0  0  0
  -30.4253  -12.4052   19.4572 C   0  0  0  0  0  0
  -29.5030  -12.4979   18.2238 C   0  0  0  0  0  0
  -28.0279  -12.3377   18.6387 C   0  0  0  0  0  0
  -27.6451  -13.2280   19.8523 C   0  0  2  0  0  0
  -28.6914  -13.1331   20.9844 C   0  0  0  0  0  0
  -25.2534  -13.8203   20.5699 C   0  0  0  0  0  0
  -24.1811  -13.0448   20.9185 C   0  0  0  0  0  0
  -24.6397  -11.6925   20.8733 C   0  0  0  0  0  0
  -23.9083  -10.4290   21.0409 C   0  0  0  0  0  0
  -24.3637   -9.4201   21.9185 C   0  0  0  0  0  0
  -23.6302   -8.2244   22.0756 C   0  0  0  0  0  0
  -22.4279   -8.0291   21.3549 C   0  0  0  0  0  0
  -21.9924   -9.0263   20.4645 C   0  0  0  0  0  0
  -22.7258  -10.2140   20.3053 C   0  0  0  0  0  0
  -21.6856   -6.0736   22.5280 C   0  0  0  0  0  0
  -21.4021   -6.5645   23.8215 C   0  0  0  0  0  0
  -21.3654   -5.6798   24.9178 C   0  0  0  0  0  0
  -21.6044   -4.3061   24.7231 C   0  0  0  0  0  0
  -21.8823   -3.8148   23.4355 C   0  0  0  0  0  0
  -21.9190   -4.6961   22.3407 C   0  0  0  0  0  0
  -22.7824  -13.5218   21.1854 C   0  0  0  0  0  0
  -22.1652   -4.2144   21.0981 F   0  0  0  0  0  0
  -21.5624   -3.4548   25.7747 F   0  0  0  0  0  0
  -29.9968  -13.4581   20.3998 N   0  0  0  0  0  0
  -26.2955  -12.9404   20.3292 N   0  0  0  0  0  0
  -25.9332  -11.6548   20.5763 N   0  0  0  0  0  0
  -22.0472  -12.8209   22.0411 N   0  0  0  0  0  0
  -25.4260  -15.1927   20.4159 N   0  0  0  0  0  0
  -31.8335  -14.7552   20.1511 O   0  0  0  0  0  0
  -21.6637   -6.8892   21.4248 O   0  0  0  0  0  0
  -22.3502  -14.5509   20.6675 O   0  0  0  0  0  0
  -24.6272  -31.8593   23.2015 C   0  0  0  0  0  0
  -25.9116  -32.4779   23.8350 C   0  0  1  0  0  0
  -27.2228  -27.3061   20.1169 C   0  0  0  0  0  0
  -25.5930  -33.8579   24.2275 N   0  0  0  0  0  0
  -23.4215  -30.4828   21.5450 C   0  0  2  0  0  0
  -24.8670  -28.9357   20.1143 C   0  0  0  0  0  0
  -22.7479  -29.4620   22.4933 C   0  0  0  0  0  0
  -18.0288  -28.1390   22.8487 C   0  0  0  0  0  0
  -24.1489  -36.7289   23.2637 C   0  0  0  0  0  0
  -25.9643  -30.7863   21.3740 C   0  0  0  0  0  0
  -26.0383  -29.4129   20.7153 C   0  0  0  0  0  0
  -27.2201  -28.6114   20.7031 C   0  0  0  0  0  0
  -26.0240  -26.8827   19.4978 C   0  0  0  0  0  0
  -24.8625  -27.6767   19.4972 C   0  0  0  0  0  0
  -23.6366  -29.8181   20.1608 C   0  0  0  0  0  0
  -25.4115  -36.3078   24.0326 C   0  0  1  0  0  0
  -20.5888  -28.3692   23.1284 C   0  0  2  0  0  0
  -20.6780  -26.9416   22.5409 C   0  0  0  0  0  0
  -19.5752  -26.6388   21.5215 C   0  0  0  0  0  0
  -18.1934  -26.7934   22.1628 C   0  0  0  0  0  0
  -19.1539  -28.8858   23.2882 C   0  0  0  0  0  0
  -18.9462  -30.1461   23.8896 C   0  0  0  0  0  0
  -17.6462  -30.6592   24.0564 C   0  0  0  0  0  0
  -25.9053  -34.9450   23.5098 C   0  0  0  0  0  0
  -16.5354  -29.9089   23.6333 C   0  0  0  0  0  0
  -16.7276  -28.6507   23.0354 C   0  0  0  0  0  0
  -26.4499  -31.6592   25.0722 C   0  0  0  0  0  0
  -25.3730  -31.3733   26.1446 C   0  0  0  0  0  0
  -27.0342  -30.3013   24.6186 C   0  0  0  0  0  0
  -27.6054  -32.4327   25.7494 C   0  0  0  0  0  0
  -27.5581  -37.1797   24.8462 C   0  0  0  0  0  0
  -21.4192  -29.3046   22.3673 N   0  0  0  0  0  0
  -26.4290  -37.3775   23.9412 N   0  0  0  0  0  0
  -24.6902  -31.0592   22.0971 N   0  0  0  0  0  0
  -23.4198  -28.8162   23.3017 O   0  0  0  0  0  0
  -28.3460  -26.4599   20.1498 O   0  0  0  0  0  0
  -26.5623  -34.8916   22.4662 O   0  0  0  0  0  0
  -23.5435  -32.1396   23.7337 O   0  0  0  0  0  0
  -31.4913  -21.4192   23.7913 C   0  0  0  0  0  0
  -30.8356  -19.1153   23.4753 C   0  0  0  0  0  0
  -30.0830  -19.4391   22.2864 C   0  0  0  0  0  0
  -31.6982  -20.0711   24.0573 C   0  0  0  0  0  0
  -30.4582  -21.8048   22.9342 C   0  0  0  0  0  0
  -29.8591  -20.8769   22.0296 C   0  0  0  0  0  0
  -29.2764  -17.4141   24.7801 C   0  0  0  0  0  0
  -30.2577  -17.9722   25.7632 C   0  0  0  0  0  0
  -29.9053  -18.2149   19.9371 C   0  0  0  0  0  0
  -29.7192  -16.7454   19.4484 C   0  0  0  0  0  0
  -29.9913  -16.7323   21.7361 C   0  0  0  0  0  0
  -30.6497  -17.8562   24.2978 C   0  0  0  0  0  0
  -29.5257  -18.2217   21.4141 C   0  0  2  0  0  0
  -32.7578  -19.7062   25.0880 C   0  0  0  0  0  0
  -29.9417  -23.2090   23.1794 C   0  0  0  0  0  0
  -29.4345  -24.0640   20.1984 C   0  0  0  0  0  0
  -28.1415  -24.9845   20.1282 C   0  0  0  0  0  0
  -29.4168  -22.4471   20.0972 C   0  0  0  0  0  0
  -29.8730  -15.8113   20.5821 N   0  0  0  0  0  0
  -28.9725  -21.4294   21.0840 O   0  0  0  0  0  0
  -31.4685  -12.5121   19.1567 H   0  0  0  0  0  0
  -30.3477  -11.4236   19.9282 H   0  0  0  0  0  0
  -29.7712  -11.7335   17.4925 H   0  0  0  0  0  0
  -29.6439  -13.4600   17.7283 H   0  0  0  0  0  0
  -27.8698  -11.2879   18.8902 H   0  0  0  0  0  0
  -27.3734  -12.5489   17.7915 H   0  0  0  0  0  0
  -27.6488  -14.2553   19.4881 H   0  0  0  0  0  0
  -28.7092  -12.1332   21.4202 H   0  0  0  0  0  0
  -28.4453  -13.8198   21.7959 H   0  0  0  0  0  0
  -25.2788   -9.5670   22.4757 H   0  0  0  0  0  0
  -24.0001   -7.4641   22.7484 H   0  0  0  0  0  0
  -21.0849   -8.8796   19.8955 H   0  0  0  0  0  0
  -22.3724  -10.9685   19.6164 H   0  0  0  0  0  0
  -21.2022   -7.6157   23.9721 H   0  0  0  0  0  0
  -21.1465   -6.0526   25.9080 H   0  0  0  0  0  0
  -22.0603   -2.7610   23.2858 H   0  0  0  0  0  0
  -22.4099  -11.9877   22.4807 H   0  0  0  0  0  0
  -21.1089  -13.1231   22.2624 H   0  0  0  0  0  0
  -24.6677  -15.8547   20.5384 H   0  0  0  0  0  0
  -26.2940  -15.6301   20.1334 H   0  0  0  0  0  0
  -26.7182  -32.5444   23.1098 H   0  0  0  0  0  0
  -25.0077  -33.9728   25.0421 H   0  0  0  0  0  0
  -22.7159  -31.3037   21.4010 H   0  0  0  0  0  0
  -23.3755  -35.9616   23.3293 H   0  0  0  0  0  0
  -24.3578  -36.8918   22.2052 H   0  0  0  0  0  0
  -23.7242  -37.6486   23.6668 H   0  0  0  0  0  0
  -26.0970  -31.5504   20.6068 H   0  0  0  0  0  0
  -26.8442  -30.8345   22.0044 H   0  0  0  0  0  0
  -28.1206  -28.9739   21.1792 H   0  0  0  0  0  0
  -25.9500  -25.9248   19.0084 H   0  0  0  0  0  0
  -23.9639  -27.3050   19.0245 H   0  0  0  0  0  0
  -23.7590  -30.5946   19.4046 H   0  0  0  0  0  0
  -22.7564  -29.2490   19.8570 H   0  0  0  0  0  0
  -25.1296  -36.1923   25.0820 H   0  0  0  0  0  0
  -20.9981  -28.3269   24.1406 H   0  0  0  0  0  0
  -20.5695  -26.2300   23.3606 H   0  0  0  0  0  0
  -21.6648  -26.7457   22.1195 H   0  0  0  0  0  0
  -19.6916  -25.6299   21.1248 H   0  0  0  0  0  0
  -19.6694  -27.3195   20.6744 H   0  0  0  0  0  0
  -17.4204  -26.6684   21.4030 H   0  0  0  0  0  0
  -18.0333  -26.0076   22.9024 H   0  0  0  0  0  0
  -19.7936  -30.7279   24.2265 H   0  0  0  0  0  0
  -17.5016  -31.6272   24.5167 H   0  0  0  0  0  0
  -15.5355  -30.2994   23.7654 H   0  0  0  0  0  0
  -15.8677  -28.0827   22.7072 H   0  0  0  0  0  0
  -24.5891  -30.7105   25.7767 H   0  0  0  0  0  0
  -24.8943  -32.2904   26.4886 H   0  0  0  0  0  0
  -25.8047  -30.8888   27.0214 H   0  0  0  0  0  0
  -26.2921  -29.6762   24.1210 H   0  0  0  0  0  0
  -27.4032  -29.7271   25.4695 H   0  0  0  0  0  0
  -27.8792  -30.4290   23.9418 H   0  0  0  0  0  0
  -27.2663  -33.3621   26.2078 H   0  0  0  0  0  0
  -28.3864  -32.6899   25.0327 H   0  0  0  0  0  0
  -28.0729  -31.8453   26.5408 H   0  0  0  0  0  0
  -28.2586  -38.0107   24.7524 H   0  0  0  0  0  0
  -28.1090  -36.2637   24.6269 H   0  0  0  0  0  0
  -27.2299  -37.1420   25.8864 H   0  0  0  0  0  0
  -20.9366  -29.8762   21.6879 H   0  0  0  0  0  0
  -26.0167  -38.2844   24.1428 H   0  0  0  0  0  0
  -32.0159  -22.1604   24.3794 H   0  0  0  0  0  0
  -28.4218  -18.0326   24.5106 H   0  0  0  0  0  0
  -29.0744  -16.3481   24.8576 H   0  0  0  0  0  0
  -30.7055  -17.2723   26.4650 H   0  0  0  0  0  0
  -30.0315  -18.9573   26.1675 H   0  0  0  0  0  0
  -29.3262  -18.9318   19.3535 H   0  0  0  0  0  0
  -30.9558  -18.4914   19.8381 H   0  0  0  0  0  0
  -28.7118  -16.6157   19.0509 H   0  0  0  0  0  0
  -30.4099  -16.5221   18.6329 H   0  0  0  0  0  0
  -29.4209  -16.2877   22.5456 H   0  0  0  0  0  0
  -31.0509  -16.7300   21.9930 H   0  0  0  0  0  0
  -31.4148  -17.1100   24.0932 H   0  0  0  0  0  0
  -28.4369  -18.2544   21.4840 H   0  0  0  0  0  0
  -33.6319  -20.3477   24.9731 H   0  0  0  0  0  0
  -33.1020  -18.6780   24.9753 H   0  0  0  0  0  0
  -32.3786  -19.8387   26.1013 H   0  0  0  0  0  0
  -29.7368  -23.3313   24.2436 H   0  0  0  0  0  0
  -28.9957  -23.4087   22.6799 H   0  0  0  0  0  0
  -30.6960  -23.9546   22.9301 H   0  0  0  0  0  0
  -30.0811  -24.4185   20.9881 H   0  0  0  0  0  0
  -30.0003  -24.3646   19.3160 H   0  0  0  0  0  0
  -27.4765  -24.7184   20.9503 H   0  0  0  0  0  0
  -27.6312  -24.7024   19.2093 H   0  0  0  0  0  0
  -30.4365  -22.1550   19.8404 H   0  0  0  0  0  0
  -28.8460  -22.2140   19.1977 H   0  0  0  0  0  0
  1 25  1  0  0  0
  1 30  2  0  0  0
  1 89  1  0  0  0
  2  3  1  0  0  0
  2 25  1  0  0  0
  2 91  1  0  0  0
  2 92  1  0  0  0
  3  4  1  0  0  0
  3 93  1  0  0  0
  3 94  1  0  0  0
  4  5  1  0  0  0
  4 95  1  0  0  0
  4 96  1  0  0  0
  5  6  1  0  0  0
  5 26  1  0  0  0
  5 97  1  0  0  0
  6 25  1  0  0  0
  6 98  1  0  0  0
  6 99  1  0  0  0
  7  8  2  0  0  0
  7 26  1  0  0  0
  7 29  1  0  0  0
  8  9  1  0  0  0
  8 22  1  0  0  0
  9 10  1  0  0  0
  9 27  2  0  0  0
 10 11  2  0  0  0
 10 15  1  0  0  0
 11 12  1  0  0  0
 11100  1  0  0  0
 12 13  2  0  0  0
 12101  1  0  0  0
 13 14  1  0  0  0
 13 31  1  0  0  0
 14 15  2  0  0  0
 14102  1  0  0  0
 15103  1  0  0  0
 16 17  2  0  0  0
 16 21  1  0  0  0
 16 31  1  0  0  0
 17 18  1  0  0  0
 17104  1  0  0  0
 18 19  2  0  0  0
 18105  1  0  0  0
 19 20  1  0  0  0
 19 24  1  0  0  0
 20 21  2  0  0  0
 20106  1  0  0  0
 21 23  1  0  0  0
 22 28  1  0  0  0
 22 32  2  0  0  0
 26 27  1  0  0  0
 28107  1  0  0  0
 28108  1  0  0  0
 29109  1  0  0  0
 29110  1  0  0  0
 33 34  1  0  0  0
 33 66  1  0  0  0
 33 70  2  0  0  0
 34 36  1  0  0  0
 34 59  1  0  0  0
 34111  1  0  0  0
 35 44  2  0  0  0
 35 45  1  0  0  0
 35 68  1  0  0  0
 36 56  1  0  0  0
 36112  1  0  0  0
 37 39  1  0  0  0
 37 47  1  0  0  0
 37 66  1  0  0  0
 37113  1  0  0  0
 38 43  2  0  0  0
 38 46  1  0  0  0
 38 47  1  0  0  0
 39 64  1  0  0  0
 39 67  2  0  0  0
 40 52  1  0  0  0
 40 53  2  0  0  0
 40 58  1  0  0  0
 41114  1  0  0  0
 41115  1  0  0  0
 41116  1  0  0  0
 41 48  1  0  0  0
 42 43  1  0  0  0
 42 66  1  0  0  0
 42117  1  0  0  0
 42118  1  0  0  0
 43 44  1  0  0  0
 44119  1  0  0  0
 45 46  2  0  0  0
 45120  1  0  0  0
 46121  1  0  0  0
 47122  1  0  0  0
 47123  1  0  0  0
 48 56  1  0  0  0
 48 65  1  0  0  0
 48124  1  0  0  0
 49 50  1  0  0  0
 49 53  1  0  0  0
 49 64  1  0  0  0
 49125  1  0  0  0
 50 51  1  0  0  0
 50126  1  0  0  0
 50127  1  0  0  0
 51 52  1  0  0  0
 51128  1  0  0  0
 51129  1  0  0  0
 52130  1  0  0  0
 52131  1  0  0  0
 53 54  1  0  0  0
 54 55  2  0  0  0
 54132  1  0  0  0
 55 57  1  0  0  0
 55133  1  0  0  0
 56 69  2  0  0  0
 57 58  2  0  0  0
 57134  1  0  0  0
 58135  1  0  0  0
 59 60  1  0  0  0
 59 61  1  0  0  0
 59 62  1  0  0  0
 60136  1  0  0  0
 60137  1  0  0  0
 60138  1  0  0  0
 61139  1  0  0  0
 61140  1  0  0  0
 61141  1  0  0  0
 62142  1  0  0  0
 62143  1  0  0  0
 62144  1  0  0  0
 63 65  1  0  0  0
 63145  1  0  0  0
 63146  1  0  0  0
 63147  1  0  0  0
 64148  1  0  0  0
 65149  1  0  0  0
 68 87  1  0  0  0
 71 74  2  0  0  0
 71 75  1  0  0  0
 71150  1  0  0  0
 72 73  2  0  0  0
 72 74  1  0  0  0
 72 82  1  0  0  0
 73 76  1  0  0  0
 73 83  1  0  0  0
 74 84  1  0  0  0
 75 76  2  0  0  0
 75 85  1  0  0  0
 76 90  1  0  0  0
 77 78  1  0  0  0
 77 82  1  0  0  0
 77151  1  0  0  0
 77152  1  0  0  0
 78 82  1  0  0  0
 78153  1  0  0  0
 78154  1  0  0  0
 79 80  1  0  0  0
 79 83  1  0  0  0
 79155  1  0  0  0
 79156  1  0  0  0
 80 89  1  0  0  0
 80157  1  0  0  0
 80158  1  0  0  0
 81 83  1  0  0  0
 81 89  1  0  0  0
 81159  1  0  0  0
 81160  1  0  0  0
 82161  1  0  0  0
 83162  1  0  0  0
 84163  1  0  0  0
 84164  1  0  0  0
 84165  1  0  0  0
 85166  1  0  0  0
 85167  1  0  0  0
 85168  1  0  0  0
 86 87  1  0  0  0
 86 88  1  0  0  0
 86169  1  0  0  0
 86170  1  0  0  0
 87171  1  0  0  0
 87172  1  0  0  0
 88 90  1  0  0  0
 88173  1  0  0  0
 88174  1  0  0  0
M  ISO  4   1 100  68 101  87 101  89 100
M  END
> <chiral flag>
0

> <version>
0

> <s_m_source_file>
/data/baiqing/PycharmProjects/Reinvent-master-3.2/result/LINK_invent/BTK/process_docking_weight1_custom_sum_contain_oxygen_bond_distance_aromatic_linkinvent_7_9_3/rearranged_h_0145.sdf

> <i_m_source_file_index>
60

> <r_mmod_Potential_Energy-OPLS-2005>
495.838653564453

> <r_mmod_Stretch_Energy-OPLS-2005>
114.353500366211

> <r_mmod_Bend_Energy-OPLS-2005>
233.132965087891

> <r_mmod_Torsional_Energy-OPLS-2005>
450.719573974609

> <r_mmod_Improper_Torsional_Energy-OPLS-2005>
14.8320178985596

> <r_mmod_Van_der_Waal_Energy-OPLS-2005>
160.125747680664

> <r_mmod_Electrostatic_Energy-OPLS-2005>
-336.608489990234

> <r_mmod_Solvation_Energy-OPLS-2005>
-197.654327392578

> <b_mmod_Minimization_Converged-OPLS-2005>
0

> <r_mmod_RMS_Derivative-OPLS-2005>
1.44086706638336

$$$$
61
                    3D
 Structure written by MMmdl.
165173  0  0  1  0            999 V2000
  -30.6116  -14.7012   20.5504 C   0  0  0  0  0  0
  -30.4431  -12.4423   19.4630 C   0  0  0  0  0  0
  -29.5111  -12.5150   18.2314 C   0  0  0  0  0  0
  -28.0365  -12.3306   18.6406 C   0  0  0  0  0  0
  -27.6474  -13.2176   19.8502 C   0  0  2  0  0  0
  -28.6866  -13.0983   20.9825 C   0  0  0  0  0  0
  -25.2550  -13.8168   20.5676 C   0  0  0  0  0  0
  -24.1821  -13.0433   20.9189 C   0  0  0  0  0  0
  -24.6393  -11.6906   20.8737 C   0  0  0  0  0  0
  -23.9068  -10.4290   21.0406 C   0  0  0  0  0  0
  -24.3620   -9.4203   21.9185 C   0  0  0  0  0  0
  -23.6292   -8.2240   22.0752 C   0  0  0  0  0  0
  -22.4278   -8.0277   21.3541 C   0  0  0  0  0  0
  -21.9913   -9.0252   20.4642 C   0  0  0  0  0  0
  -22.7244  -10.2129   20.3052 C   0  0  0  0  0  0
  -21.6853   -6.0736   22.5278 C   0  0  0  0  0  0
  -21.4011   -6.5641   23.8211 C   0  0  0  0  0  0
  -21.3655   -5.6793   24.9173 C   0  0  0  0  0  0
  -21.6049   -4.3057   24.7231 C   0  0  0  0  0  0
  -21.8817   -3.8148   23.4350 C   0  0  0  0  0  0
  -21.9187   -4.6961   22.3403 C   0  0  0  0  0  0
  -22.7844  -13.5228   21.1855 C   0  0  0  0  0  0
  -22.1661   -4.2149   21.0985 F   0  0  0  0  0  0
  -21.5624   -3.4542   25.7741 F   0  0  0  0  0  0
  -30.0000  -13.4698   20.4326 N   0  0  0  0  0  0
  -26.2957  -12.9343   20.3241 N   0  0  0  0  0  0
  -25.9313  -11.6502   20.5722 N   0  0  0  0  0  0
  -22.0492  -12.8213   22.0412 N   0  0  0  0  0  0
  -25.4281  -15.1887   20.4110 N   0  0  0  0  0  0
  -31.7561  -14.8440   20.1068 O   0  0  0  0  0  0
  -21.6633   -6.8882   21.4243 O   0  0  0  0  0  0
  -22.3535  -14.5538   20.6713 O   0  0  0  0  0  0
  -24.6275  -31.8560   23.1995 C   0  0  0  0  0  0
  -25.9103  -32.4757   23.8349 C   0  0  1  0  0  0
  -27.2255  -27.2917   20.1425 C   0  0  0  0  0  0
  -25.5909  -33.8561   24.2257 N   0  0  0  0  0  0
  -23.4226  -30.4775   21.5425 C   0  0  2  0  0  0
  -24.8728  -28.9215   20.1182 C   0  0  0  0  0  0
  -22.7491  -29.4585   22.4925 C   0  0  0  0  0  0
  -18.0287  -28.1354   22.8464 C   0  0  0  0  0  0
  -24.1480  -36.7301   23.2636 C   0  0  0  0  0  0
  -25.9653  -30.7837   21.3709 C   0  0  0  0  0  0
  -26.0432  -29.4069   20.7153 C   0  0  0  0  0  0
  -27.2284  -28.6077   20.7072 C   0  0  0  0  0  0
  -26.0329  -26.8542   19.5318 C   0  0  0  0  0  0
  -24.8704  -27.6526   19.5155 C   0  0  0  0  0  0
  -23.6406  -29.8068   20.1605 C   0  0  0  0  0  0
  -25.4107  -36.3077   24.0314 C   0  0  1  0  0  0
  -20.5892  -28.3657   23.1269 C   0  0  2  0  0  0
  -20.6775  -26.9372   22.5402 C   0  0  0  0  0  0
  -19.5751  -26.6352   21.5191 C   0  0  0  0  0  0
  -18.1929  -26.7896   22.1602 C   0  0  0  0  0  0
  -19.1544  -28.8829   23.2855 C   0  0  0  0  0  0
  -18.9463  -30.1428   23.8866 C   0  0  0  0  0  0
  -17.6463  -30.6554   24.0547 C   0  0  0  0  0  0
  -25.9039  -34.9441   23.5096 C   0  0  0  0  0  0
  -16.5357  -29.9042   23.6328 C   0  0  0  0  0  0
  -16.7280  -28.6466   23.0342 C   0  0  0  0  0  0
  -26.4483  -31.6592   25.0743 C   0  0  0  0  0  0
  -25.3709  -31.3730   26.1478 C   0  0  0  0  0  0
  -27.0344  -30.3016   24.6215 C   0  0  0  0  0  0
  -27.6044  -32.4348   25.7513 C   0  0  0  0  0  0
  -27.5570  -37.1806   24.8452 C   0  0  0  0  0  0
  -21.4202  -29.3020   22.3684 N   0  0  0  0  0  0
  -26.4286  -37.3770   23.9394 N   0  0  0  0  0  0
  -24.6912  -31.0554   22.0951 N   0  0  0  0  0  0
  -23.4217  -28.8116   23.2996 O   0  0  0  0  0  0
  -28.3405  -26.4372   20.1378 O   0  0  0  0  0  0
  -26.5620  -34.8907   22.4663 O   0  0  0  0  0  0
  -23.5433  -32.1365   23.7305 O   0  0  0  0  0  0
  -31.5875  -17.8678   21.0161 C   0  0  0  0  0  0
  -31.0740  -20.2450   20.7166 C   0  0  0  0  0  0
  -30.2418  -17.4867   20.8204 C   0  0  0  0  0  0
  -29.3084  -18.5724   20.5413 C   0  0  0  0  0  0
  -32.0071  -19.2139   20.9900 C   0  0  0  0  0  0
  -29.7072  -19.9717   20.4973 C   0  0  0  0  0  0
  -27.8424  -18.2400   20.3300 C   0  0  0  0  0  0
  -35.1428  -20.7200   22.1860 C   0  0  0  0  0  0
  -29.8752  -15.8644   22.7096 C   0  0  0  0  0  0
  -28.6175  -23.7276   19.9811 C   0  0  0  0  0  0
  -33.7342  -20.7702   21.5931 C   0  0  0  0  0  0
  -28.2267  -25.0844   20.7599 C   0  0  0  0  0  0
  -28.8887  -22.3832   20.8337 C   0  0  0  0  0  0
  -29.8392  -15.9754   21.1685 C   0  0  2  0  0  0
  -33.3375  -19.4433   21.2684 O   0  0  0  0  0  0
  -28.8193  -21.0402   20.1892 O   0  0  0  0  0  0
  -31.4811  -12.5816   19.1577 H   0  0  0  0  0  0
  -30.4019  -11.4525   19.9206 H   0  0  0  0  0  0
  -29.7919  -11.7523   17.5043 H   0  0  0  0  0  0
  -29.6364  -13.4774   17.7337 H   0  0  0  0  0  0
  -27.8946  -11.2792   18.8952 H   0  0  0  0  0  0
  -27.3776  -12.5304   17.7948 H   0  0  0  0  0  0
  -27.6587  -14.2469   19.4920 H   0  0  0  0  0  0
  -28.7140  -12.0786   21.3713 H   0  0  0  0  0  0
  -28.3878  -13.7235   21.8208 H   0  0  0  0  0  0
  -25.2763   -9.5673   22.4756 H   0  0  0  0  0  0
  -23.9994   -7.4635   22.7477 H   0  0  0  0  0  0
  -21.0842   -8.8783   19.8950 H   0  0  0  0  0  0
  -22.3716  -10.9670   19.6157 H   0  0  0  0  0  0
  -21.2011   -7.6142   23.9723 H   0  0  0  0  0  0
  -21.1475   -6.0518   25.9078 H   0  0  0  0  0  0
  -22.0601   -2.7609   23.2857 H   0  0  0  0  0  0
  -22.4118  -11.9875   22.4792 H   0  0  0  0  0  0
  -21.1114  -13.1229   22.2627 H   0  0  0  0  0  0
  -24.6652  -15.8461   20.5295 H   0  0  0  0  0  0
  -26.2792  -15.6235   20.0812 H   0  0  0  0  0  0
  -26.7180  -32.5416   23.1111 H   0  0  0  0  0  0
  -25.0069  -33.9706   25.0419 H   0  0  0  0  0  0
  -22.7152  -31.2970   21.3953 H   0  0  0  0  0  0
  -23.3738  -35.9633   23.3289 H   0  0  0  0  0  0
  -24.3575  -36.8953   22.2055 H   0  0  0  0  0  0
  -23.7252  -37.6501   23.6687 H   0  0  0  0  0  0
  -26.0944  -31.5462   20.6018 H   0  0  0  0  0  0
  -26.8455  -30.8386   21.9996 H   0  0  0  0  0  0
  -28.1343  -28.9817   21.1635 H   0  0  0  0  0  0
  -25.9957  -25.8753   19.0743 H   0  0  0  0  0  0
  -23.9704  -27.2753   19.0495 H   0  0  0  0  0  0
  -23.7597  -30.5812   19.4013 H   0  0  0  0  0  0
  -22.7593  -29.2386   19.8578 H   0  0  0  0  0  0
  -25.1284  -36.1934   25.0806 H   0  0  0  0  0  0
  -20.9974  -28.3227   24.1394 H   0  0  0  0  0  0
  -20.5645  -26.2251   23.3601 H   0  0  0  0  0  0
  -21.6645  -26.7374   22.1205 H   0  0  0  0  0  0
  -19.6903  -25.6259   21.1228 H   0  0  0  0  0  0
  -19.6690  -27.3150   20.6714 H   0  0  0  0  0  0
  -17.4196  -26.6645   21.4007 H   0  0  0  0  0  0
  -18.0322  -26.0020   22.8984 H   0  0  0  0  0  0
  -19.7940  -30.7250   24.2220 H   0  0  0  0  0  0
  -17.5012  -31.6238   24.5145 H   0  0  0  0  0  0
  -15.5352  -30.2932   23.7654 H   0  0  0  0  0  0
  -15.8681  -28.0776   22.7063 H   0  0  0  0  0  0
  -24.5862  -30.7100   25.7815 H   0  0  0  0  0  0
  -24.8916  -32.2891   26.4935 H   0  0  0  0  0  0
  -25.8031  -30.8886   27.0243 H   0  0  0  0  0  0
  -26.2939  -29.6761   24.1218 H   0  0  0  0  0  0
  -27.4030  -29.7277   25.4730 H   0  0  0  0  0  0
  -27.8794  -30.4309   23.9450 H   0  0  0  0  0  0
  -27.2661  -33.3658   26.2071 H   0  0  0  0  0  0
  -28.3863  -32.6911   25.0350 H   0  0  0  0  0  0
  -28.0698  -31.8493   26.5451 H   0  0  0  0  0  0
  -28.2578  -38.0108   24.7514 H   0  0  0  0  0  0
  -28.1093  -36.2655   24.6280 H   0  0  0  0  0  0
  -27.2294  -37.1453   25.8852 H   0  0  0  0  0  0
  -20.9387  -29.8785   21.6924 H   0  0  0  0  0  0
  -26.0168  -38.2839   24.1419 H   0  0  0  0  0  0
  -32.3193  -17.1129   21.2656 H   0  0  0  0  0  0
  -31.4088  -21.2672   20.6499 H   0  0  0  0  0  0
  -27.7261  -17.5266   19.5133 H   0  0  0  0  0  0
  -27.2541  -19.1226   20.0796 H   0  0  0  0  0  0
  -27.4192  -17.8075   21.2367 H   0  0  0  0  0  0
  -35.4886  -21.7195   22.4495 H   0  0  0  0  0  0
  -35.8539  -20.2964   21.4772 H   0  0  0  0  0  0
  -35.1648  -20.1125   23.0911 H   0  0  0  0  0  0
  -29.0966  -16.4806   23.1593 H   0  0  0  0  0  0
  -30.8317  -16.2037   23.1078 H   0  0  0  0  0  0
  -29.7373  -14.8485   23.0754 H   0  0  0  0  0  0
  -29.5059  -23.9212   19.3812 H   0  0  0  0  0  0
  -27.8237  -23.5236   19.2630 H   0  0  0  0  0  0
  -33.7257  -21.3978   20.7011 H   0  0  0  0  0  0
  -33.0563  -21.2121   22.3259 H   0  0  0  0  0  0
  -28.8775  -25.1351   21.6339 H   0  0  0  0  0  0
  -27.2270  -24.9589   21.1781 H   0  0  0  0  0  0
  -28.1269  -22.3478   21.6131 H   0  0  0  0  0  0
  -29.8180  -22.5128   21.3855 H   0  0  0  0  0  0
  -28.8058  -15.8491   20.8545 H   0  0  0  0  0  0
  1 25  1  0  0  0
  1 30  2  0  0  0
  1 84  1  0  0  0
  2  3  1  0  0  0
  2 25  1  0  0  0
  2 87  1  0  0  0
  2 88  1  0  0  0
  3  4  1  0  0  0
  3 89  1  0  0  0
  3 90  1  0  0  0
  4  5  1  0  0  0
  4 91  1  0  0  0
  4 92  1  0  0  0
  5  6  1  0  0  0
  5 26  1  0  0  0
  5 93  1  0  0  0
  6 25  1  0  0  0
  6 94  1  0  0  0
  6 95  1  0  0  0
  7  8  2  0  0  0
  7 26  1  0  0  0
  7 29  1  0  0  0
  8  9  1  0  0  0
  8 22  1  0  0  0
  9 10  1  0  0  0
  9 27  2  0  0  0
 10 11  2  0  0  0
 10 15  1  0  0  0
 11 12  1  0  0  0
 11 96  1  0  0  0
 12 13  2  0  0  0
 12 97  1  0  0  0
 13 14  1  0  0  0
 13 31  1  0  0  0
 14 15  2  0  0  0
 14 98  1  0  0  0
 15 99  1  0  0  0
 16 17  2  0  0  0
 16 21  1  0  0  0
 16 31  1  0  0  0
 17 18  1  0  0  0
 17100  1  0  0  0
 18 19  2  0  0  0
 18101  1  0  0  0
 19 20  1  0  0  0
 19 24  1  0  0  0
 20 21  2  0  0  0
 20102  1  0  0  0
 21 23  1  0  0  0
 22 28  1  0  0  0
 22 32  2  0  0  0
 26 27  1  0  0  0
 28103  1  0  0  0
 28104  1  0  0  0
 29105  1  0  0  0
 29106  1  0  0  0
 33 34  1  0  0  0
 33 66  1  0  0  0
 33 70  2  0  0  0
 34 36  1  0  0  0
 34 59  1  0  0  0
 34107  1  0  0  0
 35 44  2  0  0  0
 35 45  1  0  0  0
 35 68  1  0  0  0
 36 56  1  0  0  0
 36108  1  0  0  0
 37 39  1  0  0  0
 37 47  1  0  0  0
 37 66  1  0  0  0
 37109  1  0  0  0
 38 43  2  0  0  0
 38 46  1  0  0  0
 38 47  1  0  0  0
 39 64  1  0  0  0
 39 67  2  0  0  0
 40 52  1  0  0  0
 40 53  2  0  0  0
 40 58  1  0  0  0
 41110  1  0  0  0
 41111  1  0  0  0
 41112  1  0  0  0
 41 48  1  0  0  0
 42 43  1  0  0  0
 42 66  1  0  0  0
 42113  1  0  0  0
 42114  1  0  0  0
 43 44  1  0  0  0
 44115  1  0  0  0
 45 46  2  0  0  0
 45116  1  0  0  0
 46117  1  0  0  0
 47118  1  0  0  0
 47119  1  0  0  0
 48 56  1  0  0  0
 48 65  1  0  0  0
 48120  1  0  0  0
 49 50  1  0  0  0
 49 53  1  0  0  0
 49 64  1  0  0  0
 49121  1  0  0  0
 50 51  1  0  0  0
 50122  1  0  0  0
 50123  1  0  0  0
 51 52  1  0  0  0
 51124  1  0  0  0
 51125  1  0  0  0
 52126  1  0  0  0
 52127  1  0  0  0
 53 54  1  0  0  0
 54 55  2  0  0  0
 54128  1  0  0  0
 55 57  1  0  0  0
 55129  1  0  0  0
 56 69  2  0  0  0
 57 58  2  0  0  0
 57130  1  0  0  0
 58131  1  0  0  0
 59 60  1  0  0  0
 59 61  1  0  0  0
 59 62  1  0  0  0
 60132  1  0  0  0
 60133  1  0  0  0
 60134  1  0  0  0
 61135  1  0  0  0
 61136  1  0  0  0
 61137  1  0  0  0
 62138  1  0  0  0
 62139  1  0  0  0
 62140  1  0  0  0
 63 65  1  0  0  0
 63141  1  0  0  0
 63142  1  0  0  0
 63143  1  0  0  0
 64144  1  0  0  0
 65145  1  0  0  0
 68 82  1  0  0  0
 71 73  2  0  0  0
 71 75  1  0  0  0
 71146  1  0  0  0
 72 75  2  0  0  0
 72 76  1  0  0  0
 72147  1  0  0  0
 73 74  1  0  0  0
 73 84  1  0  0  0
 74 76  2  0  0  0
 74 77  1  0  0  0
 75 85  1  0  0  0
 76 86  1  0  0  0
 77148  1  0  0  0
 77149  1  0  0  0
 77150  1  0  0  0
 78 81  1  0  0  0
 78151  1  0  0  0
 78152  1  0  0  0
 78153  1  0  0  0
 79154  1  0  0  0
 79155  1  0  0  0
 79156  1  0  0  0
 79 84  1  0  0  0
 80 82  1  0  0  0
 80 83  1  0  0  0
 80157  1  0  0  0
 80158  1  0  0  0
 81 85  1  0  0  0
 81159  1  0  0  0
 81160  1  0  0  0
 82161  1  0  0  0
 82162  1  0  0  0
 83 86  1  0  0  0
 83163  1  0  0  0
 83164  1  0  0  0
 84165  1  0  0  0
M  ISO  4   1 100  68 101  82 101  84 100
M  END
> <chiral flag>
0

> <version>
0

> <s_m_source_file>
/data/baiqing/PycharmProjects/Reinvent-master-3.2/result/LINK_invent/BTK/process_docking_weight1_custom_sum_contain_oxygen_bond_distance_aromatic_linkinvent_7_9_3/rearranged_h_0145.sdf

> <i_m_source_file_index>
61

> <r_mmod_Potential_Energy-OPLS-2005>
204.589324951172

> <r_mmod_Stretch_Energy-OPLS-2005>
118.656890869141

> <r_mmod_Bend_Energy-OPLS-2005>
174.911087036133

> <r_mmod_Torsional_Energy-OPLS-2005>
221.112854003906

> <r_mmod_Improper_Torsional_Energy-OPLS-2005>
3.68586587905884

> <r_mmod_Van_der_Waal_Energy-OPLS-2005>
140.582824707031

> <r_mmod_Electrostatic_Energy-OPLS-2005>
-314.425659179688

> <r_mmod_Solvation_Energy-OPLS-2005>
-202.483428955078

> <b_mmod_Minimization_Converged-OPLS-2005>
0

> <r_mmod_RMS_Derivative-OPLS-2005>
1.64998281002045

$$$$
62
                    3D
 Structure written by MMmdl.
171180  0  0  1  0            999 V2000
  -30.7240  -14.4465   20.5688 C   0  0  0  0  0  0
  -30.4123  -12.2901   19.4224 C   0  0  0  0  0  0
  -29.4897  -12.4929   18.2042 C   0  0  0  0  0  0
  -28.0116  -12.3552   18.6203 C   0  0  0  0  0  0
  -27.6615  -13.2058   19.8715 C   0  0  2  0  0  0
  -28.7035  -12.9983   20.9964 C   0  0  0  0  0  0
  -25.2624  -13.8180   20.5697 C   0  0  0  0  0  0
  -24.1870  -13.0458   20.9200 C   0  0  0  0  0  0
  -24.6407  -11.6920   20.8760 C   0  0  0  0  0  0
  -23.9065  -10.4307   21.0424 C   0  0  0  0  0  0
  -24.3621   -9.4212   21.9186 C   0  0  0  0  0  0
  -23.6300   -8.2250   22.0757 C   0  0  0  0  0  0
  -22.4271   -8.0290   21.3551 C   0  0  0  0  0  0
  -21.9915   -9.0265   20.4645 C   0  0  0  0  0  0
  -22.7244  -10.2143   20.3065 C   0  0  0  0  0  0
  -21.6853   -6.0750   22.5278 C   0  0  0  0  0  0
  -21.4004   -6.5663   23.8207 C   0  0  0  0  0  0
  -21.3656   -5.6814   24.9171 C   0  0  0  0  0  0
  -21.6049   -4.3083   24.7218 C   0  0  0  0  0  0
  -21.8813   -3.8166   23.4341 C   0  0  0  0  0  0
  -21.9190   -4.6986   22.3400 C   0  0  0  0  0  0
  -22.7879  -13.5248   21.1841 C   0  0  0  0  0  0
  -22.1657   -4.2176   21.0973 F   0  0  0  0  0  0
  -21.5616   -3.4554   25.7721 F   0  0  0  0  0  0
  -30.0348  -13.2831   20.4383 N   0  0  0  0  0  0
  -26.3037  -12.9337   20.3376 N   0  0  0  0  0  0
  -25.9335  -11.6494   20.5806 N   0  0  0  0  0  0
  -22.0525  -12.8239   22.0395 N   0  0  0  0  0  0
  -25.4388  -15.1887   20.4068 N   0  0  0  0  0  0
  -31.8489  -14.6153   20.0931 O   0  0  0  0  0  0
  -21.6640   -6.8887   21.4241 O   0  0  0  0  0  0
  -22.3574  -14.5572   20.6720 O   0  0  0  0  0  0
  -24.6128  -31.8741   23.2088 C   0  0  0  0  0  0
  -25.9049  -32.4818   23.8382 C   0  0  1  0  0  0
  -27.2401  -27.4520   20.1039 C   0  0  0  0  0  0
  -25.5955  -33.8625   24.2344 N   0  0  0  0  0  0
  -23.4040  -30.4919   21.5495 C   0  0  2  0  0  0
  -24.8519  -28.9574   20.1136 C   0  0  0  0  0  0
  -22.7407  -29.4704   22.5010 C   0  0  0  0  0  0
  -18.0260  -28.1398   22.8423 C   0  0  0  0  0  0
  -24.1492  -36.7295   23.2617 C   0  0  0  0  0  0
  -25.9255  -30.8409   21.3603 C   0  0  0  0  0  0
  -26.0079  -29.4734   20.7158 C   0  0  0  0  0  0
  -27.2054  -28.7258   20.7163 C   0  0  0  0  0  0
  -26.0783  -26.9520   19.4836 C   0  0  0  0  0  0
  -24.8820  -27.6952   19.4949 C   0  0  0  0  0  0
  -23.6123  -29.8206   20.1636 C   0  0  0  0  0  0
  -25.4112  -36.3105   24.0331 C   0  0  1  0  0  0
  -20.5833  -28.3707   23.1332 C   0  0  2  0  0  0
  -20.6694  -26.9376   22.5607 C   0  0  0  0  0  0
  -19.5785  -26.6326   21.5316 C   0  0  0  0  0  0
  -18.1903  -26.7912   22.1593 C   0  0  0  0  0  0
  -19.1513  -28.8876   23.2832 C   0  0  0  0  0  0
  -18.9429  -30.1477   23.8844 C   0  0  0  0  0  0
  -17.6426  -30.6593   24.0493 C   0  0  0  0  0  0
  -25.9064  -34.9471   23.5139 C   0  0  0  0  0  0
  -16.5307  -29.9105   23.6247 C   0  0  0  0  0  0
  -16.7252  -28.6533   23.0273 C   0  0  0  0  0  0
  -26.4444  -31.6571   25.0689 C   0  0  0  0  0  0
  -25.3688  -31.3657   26.1386 C   0  0  0  0  0  0
  -27.0208  -30.3022   24.6005 C   0  0  0  0  0  0
  -27.6031  -32.4221   25.7527 C   0  0  0  0  0  0
  -27.5582  -37.1789   24.8454 C   0  0  0  0  0  0
  -21.4151  -29.2999   22.3688 N   0  0  0  0  0  0
  -26.4298  -37.3781   23.9405 N   0  0  0  0  0  0
  -24.6656  -31.0810   22.0997 N   0  0  0  0  0  0
  -23.4165  -28.8319   23.3119 O   0  0  0  0  0  0
  -28.3650  -26.6633   20.1164 O   0  0  0  0  0  0
  -26.5605  -34.8936   22.4687 O   0  0  0  0  0  0
  -23.5323  -32.1545   23.7477 O   0  0  0  0  0  0
  -29.4100  -21.6955   20.7937 C   0  0  0  0  0  0
  -28.1140  -20.4604   22.1964 C   0  0  0  0  0  0
  -29.1598  -20.3929   21.3184 C   0  0  0  0  0  0
  -28.5037  -22.5233   21.3983 C   0  0  0  0  0  0
  -24.0120  -22.3201   22.8313 C   0  0  0  0  0  0
  -24.4743  -23.7431   22.9841 C   0  0  0  0  0  0
  -25.3951  -22.7190   22.3565 C   0  0  0  0  0  0
  -29.8066  -24.6697   23.0067 C   0  0  0  0  0  0
  -30.6180  -24.7616   20.6270 C   0  0  0  0  0  0
  -26.6439  -22.2956   23.1117 C   0  0  0  0  0  0
  -29.4348  -17.9062   21.3335 C   0  0  0  0  0  0
  -30.5367  -16.8602   21.0682 C   0  0  0  0  0  0
  -28.8043  -26.3186   21.4357 C   0  0  0  0  0  0
  -29.3823  -24.8772   21.5381 C   0  0  0  0  0  0
  -27.6966  -21.7824   22.2519 N   0  0  0  0  0  0
  -29.9008  -19.2482   20.9846 N   0  0  0  0  0  0
  -28.3440  -23.9007   21.1784 N   0  0  0  0  0  0
  -30.0528  -15.4767   21.1087 N   0  0  0  0  0  0
  -31.4604  -12.3656   19.1249 H   0  0  0  0  0  0
  -30.2839  -11.2850   19.8263 H   0  0  0  0  0  0
  -29.7293  -11.7656   17.4278 H   0  0  0  0  0  0
  -29.6598  -13.4788   17.7678 H   0  0  0  0  0  0
  -27.8298  -11.3030   18.8362 H   0  0  0  0  0  0
  -27.3539  -12.6121   17.7872 H   0  0  0  0  0  0
  -27.7066  -14.2512   19.5656 H   0  0  0  0  0  0
  -28.6686  -11.9708   21.3668 H   0  0  0  0  0  0
  -28.4751  -13.6255   21.8585 H   0  0  0  0  0  0
  -25.2764   -9.5727   22.4760 H   0  0  0  0  0  0
  -24.0017   -7.4665   22.7506 H   0  0  0  0  0  0
  -21.0832   -8.8799   19.8963 H   0  0  0  0  0  0
  -22.3697  -10.9699   19.6192 H   0  0  0  0  0  0
  -21.1993   -7.6163   23.9715 H   0  0  0  0  0  0
  -21.1484   -6.0540   25.9071 H   0  0  0  0  0  0
  -22.0596   -2.7630   23.2833 H   0  0  0  0  0  0
  -22.4094  -11.9851   22.4742 H   0  0  0  0  0  0
  -21.1171  -13.1309   22.2642 H   0  0  0  0  0  0
  -24.6786  -15.8517   20.5105 H   0  0  0  0  0  0
  -26.2968  -15.6187   20.0844 H   0  0  0  0  0  0
  -26.7130  -32.5544   23.1177 H   0  0  0  0  0  0
  -25.0100  -33.9794   25.0483 H   0  0  0  0  0  0
  -22.6938  -31.3111   21.4122 H   0  0  0  0  0  0
  -23.3730  -35.9640   23.3282 H   0  0  0  0  0  0
  -24.3617  -36.8909   22.2031 H   0  0  0  0  0  0
  -23.7259  -37.6526   23.6604 H   0  0  0  0  0  0
  -26.0315  -31.6012   20.5852 H   0  0  0  0  0  0
  -26.8172  -30.9025   21.9718 H   0  0  0  0  0  0
  -28.0958  -29.1185   21.1885 H   0  0  0  0  0  0
  -26.1029  -25.9806   19.0104 H   0  0  0  0  0  0
  -23.9955  -27.2932   19.0257 H   0  0  0  0  0  0
  -23.7224  -30.5910   19.4006 H   0  0  0  0  0  0
  -22.7352  -29.2417   19.8676 H   0  0  0  0  0  0
  -25.1284  -36.1997   25.0815 H   0  0  0  0  0  0
  -20.9840  -28.3344   24.1499 H   0  0  0  0  0  0
  -20.5341  -26.2378   23.3883 H   0  0  0  0  0  0
  -21.6613  -26.7254   22.1657 H   0  0  0  0  0  0
  -19.6945  -25.6189   21.1437 H   0  0  0  0  0  0
  -19.6897  -27.3135   20.6837 H   0  0  0  0  0  0
  -17.4256  -26.6692   21.3888 H   0  0  0  0  0  0
  -18.0215  -26.0057   22.9011 H   0  0  0  0  0  0
  -19.7902  -30.7288   24.2232 H   0  0  0  0  0  0
  -17.4965  -31.6279   24.5093 H   0  0  0  0  0  0
  -15.5316  -30.3043   23.7602 H   0  0  0  0  0  0
  -15.8639  -28.0907   22.6920 H   0  0  0  0  0  0
  -25.8019  -30.8930   27.0205 H   0  0  0  0  0  0
  -24.5965  -30.6895   25.7707 H   0  0  0  0  0  0
  -24.8744  -32.2782   26.4731 H   0  0  0  0  0  0
  -27.3795  -29.7148   25.4463 H   0  0  0  0  0  0
  -27.8657  -30.4284   23.9228 H   0  0  0  0  0  0
  -26.2713  -29.6912   24.0952 H   0  0  0  0  0  0
  -27.2652  -33.3482   26.2209 H   0  0  0  0  0  0
  -28.3826  -32.6887   25.0368 H   0  0  0  0  0  0
  -28.0715  -31.8251   26.5380 H   0  0  0  0  0  0
  -28.2610  -38.0074   24.7506 H   0  0  0  0  0  0
  -28.1078  -36.2616   24.6276 H   0  0  0  0  0  0
  -27.2287  -37.1455   25.8853 H   0  0  0  0  0  0
  -20.9348  -29.8598   21.6794 H   0  0  0  0  0  0
  -26.0194  -38.2870   24.1391 H   0  0  0  0  0  0
  -30.1521  -21.9911   20.0654 H   0  0  0  0  0  0
  -27.6268  -19.7069   22.8004 H   0  0  0  0  0  0
  -23.9369  -21.7122   23.7310 H   0  0  0  0  0  0
  -23.2556  -22.1191   22.0735 H   0  0  0  0  0  0
  -24.7139  -24.0969   23.9854 H   0  0  0  0  0  0
  -24.0421  -24.4875   22.3191 H   0  0  0  0  0  0
  -25.5276  -22.8005   21.2776 H   0  0  0  0  0  0
  -28.9658  -24.8030   23.6891 H   0  0  0  0  0  0
  -30.5758  -25.3838   23.3042 H   0  0  0  0  0  0
  -30.2135  -23.6746   23.1888 H   0  0  0  0  0  0
  -31.3169  -25.5756   20.8183 H   0  0  0  0  0  0
  -30.3542  -24.8088   19.5700 H   0  0  0  0  0  0
  -31.1753  -23.8413   20.7943 H   0  0  0  0  0  0
  -27.0454  -23.1550   23.6500 H   0  0  0  0  0  0
  -26.3908  -21.5405   23.8593 H   0  0  0  0  0  0
  -29.1316  -17.8618   22.3792 H   0  0  0  0  0  0
  -28.5513  -17.6860   20.7333 H   0  0  0  0  0  0
  -31.3509  -16.9740   21.7840 H   0  0  0  0  0  0
  -30.9689  -17.0465   20.0808 H   0  0  0  0  0  0
  -29.5605  -27.0419   21.7444 H   0  0  0  0  0  0
  -27.9873  -26.4179   22.1554 H   0  0  0  0  0  0
  -30.6255  -19.3284   20.2750 H   0  0  0  0  0  0
  -27.4255  -24.2295   21.4591 H   0  0  0  0  0  0
  -29.1239  -15.3030   21.4638 H   0  0  0  0  0  0
  1 25  1  0  0  0
  1 30  2  0  0  0
  1 88  1  0  0  0
  2  3  1  0  0  0
  2 25  1  0  0  0
  2 89  1  0  0  0
  2 90  1  0  0  0
  3  4  1  0  0  0
  3 91  1  0  0  0
  3 92  1  0  0  0
  4  5  1  0  0  0
  4 93  1  0  0  0
  4 94  1  0  0  0
  5  6  1  0  0  0
  5 26  1  0  0  0
  5 95  1  0  0  0
  6 25  1  0  0  0
  6 96  1  0  0  0
  6 97  1  0  0  0
  7  8  2  0  0  0
  7 26  1  0  0  0
  7 29  1  0  0  0
  8  9  1  0  0  0
  8 22  1  0  0  0
  9 10  1  0  0  0
  9 27  2  0  0  0
 10 11  2  0  0  0
 10 15  1  0  0  0
 11 12  1  0  0  0
 11 98  1  0  0  0
 12 13  2  0  0  0
 12 99  1  0  0  0
 13 14  1  0  0  0
 13 31  1  0  0  0
 14 15  2  0  0  0
 14100  1  0  0  0
 15101  1  0  0  0
 16 17  2  0  0  0
 16 21  1  0  0  0
 16 31  1  0  0  0
 17 18  1  0  0  0
 17102  1  0  0  0
 18 19  2  0  0  0
 18103  1  0  0  0
 19 20  1  0  0  0
 19 24  1  0  0  0
 20 21  2  0  0  0
 20104  1  0  0  0
 21 23  1  0  0  0
 22 28  1  0  0  0
 22 32  2  0  0  0
 26 27  1  0  0  0
 28105  1  0  0  0
 28106  1  0  0  0
 29107  1  0  0  0
 29108  1  0  0  0
 33 34  1  0  0  0
 33 66  1  0  0  0
 33 70  2  0  0  0
 34 36  1  0  0  0
 34 59  1  0  0  0
 34109  1  0  0  0
 35 44  2  0  0  0
 35 45  1  0  0  0
 35 68  1  0  0  0
 36 56  1  0  0  0
 36110  1  0  0  0
 37 39  1  0  0  0
 37 47  1  0  0  0
 37 66  1  0  0  0
 37111  1  0  0  0
 38 43  2  0  0  0
 38 46  1  0  0  0
 38 47  1  0  0  0
 39 64  1  0  0  0
 39 67  2  0  0  0
 40 52  1  0  0  0
 40 53  2  0  0  0
 40 58  1  0  0  0
 41112  1  0  0  0
 41113  1  0  0  0
 41114  1  0  0  0
 41 48  1  0  0  0
 42 43  1  0  0  0
 42 66  1  0  0  0
 42115  1  0  0  0
 42116  1  0  0  0
 43 44  1  0  0  0
 44117  1  0  0  0
 45 46  2  0  0  0
 45118  1  0  0  0
 46119  1  0  0  0
 47120  1  0  0  0
 47121  1  0  0  0
 48 56  1  0  0  0
 48 65  1  0  0  0
 48122  1  0  0  0
 49 50  1  0  0  0
 49 53  1  0  0  0
 49 64  1  0  0  0
 49123  1  0  0  0
 50 51  1  0  0  0
 50124  1  0  0  0
 50125  1  0  0  0
 51 52  1  0  0  0
 51126  1  0  0  0
 51127  1  0  0  0
 52128  1  0  0  0
 52129  1  0  0  0
 53 54  1  0  0  0
 54 55  2  0  0  0
 54130  1  0  0  0
 55 57  1  0  0  0
 55131  1  0  0  0
 56 69  2  0  0  0
 57 58  2  0  0  0
 57132  1  0  0  0
 58133  1  0  0  0
 59 60  1  0  0  0
 59 61  1  0  0  0
 59 62  1  0  0  0
 60134  1  0  0  0
 60135  1  0  0  0
 60136  1  0  0  0
 61137  1  0  0  0
 61138  1  0  0  0
 61139  1  0  0  0
 62140  1  0  0  0
 62141  1  0  0  0
 62142  1  0  0  0
 63 65  1  0  0  0
 63143  1  0  0  0
 63144  1  0  0  0
 63145  1  0  0  0
 64146  1  0  0  0
 65147  1  0  0  0
 68 83  1  0  0  0
 71 73  1  0  0  0
 71 74  2  0  0  0
 71148  1  0  0  0
 72 73  2  0  0  0
 72 85  1  0  0  0
 72149  1  0  0  0
 73 86  1  0  0  0
 74 85  1  0  0  0
 74 87  1  0  0  0
 75 76  1  0  0  0
 75 77  1  0  0  0
 75150  1  0  0  0
 75151  1  0  0  0
 76 77  1  0  0  0
 76152  1  0  0  0
 76153  1  0  0  0
 77 80  1  0  0  0
 77154  1  0  0  0
 78155  1  0  0  0
 78156  1  0  0  0
 78157  1  0  0  0
 78 84  1  0  0  0
 79 84  1  0  0  0
 79158  1  0  0  0
 79159  1  0  0  0
 79160  1  0  0  0
 80 85  1  0  0  0
 80161  1  0  0  0
 80162  1  0  0  0
 81 82  1  0  0  0
 81 86  1  0  0  0
 81163  1  0  0  0
 81164  1  0  0  0
 82 88  1  0  0  0
 82165  1  0  0  0
 82166  1  0  0  0
 83 84  1  0  0  0
 83167  1  0  0  0
 83168  1  0  0  0
 84 87  1  0  0  0
 86169  1  0  0  0
 87170  1  0  0  0
 88171  1  0  0  0
M  ISO  4   1 100  68 101  83 101  88 100
M  END
> <chiral flag>
0

> <version>
0

> <s_m_source_file>
/data/baiqing/PycharmProjects/Reinvent-master-3.2/result/LINK_invent/BTK/process_docking_weight1_custom_sum_contain_oxygen_bond_distance_aromatic_linkinvent_7_9_3/rearranged_h_0145.sdf

> <i_m_source_file_index>
62

> <r_mmod_Potential_Energy-OPLS-2005>
-96.0678100585938

> <r_mmod_Stretch_Energy-OPLS-2005>
33.4773826599121

> <r_mmod_Bend_Energy-OPLS-2005>
116.971527099609

> <r_mmod_Torsional_Energy-OPLS-2005>
296.543518066406

> <r_mmod_Improper_Torsional_Energy-OPLS-2005>
8.72453880310059

> <r_mmod_Van_der_Waal_Energy-OPLS-2005>
123.006896972656

> <r_mmod_Electrostatic_Energy-OPLS-2005>
-460.619384765625

> <r_mmod_Solvation_Energy-OPLS-2005>
-226.443588256836

> <b_mmod_Minimization_Converged-OPLS-2005>
0

> <r_mmod_RMS_Derivative-OPLS-2005>
4.66938209533691

$$$$
63
                    3D
 Structure written by MMmdl.
169178  0  0  1  0            999 V2000
  -30.6952  -14.5145   20.5065 C   0  0  0  0  0  0
  -30.4168  -12.3181   19.4262 C   0  0  0  0  0  0
  -29.4918  -12.4932   18.2044 C   0  0  0  0  0  0
  -28.0126  -12.3597   18.6183 C   0  0  0  0  0  0
  -27.6536  -13.2169   19.8639 C   0  0  2  0  0  0
  -28.7013  -13.0500   20.9874 C   0  0  0  0  0  0
  -25.2574  -13.8189   20.5702 C   0  0  0  0  0  0
  -24.1836  -13.0448   20.9185 C   0  0  0  0  0  0
  -24.6401  -11.6919   20.8731 C   0  0  0  0  0  0
  -23.9078  -10.4298   21.0394 C   0  0  0  0  0  0
  -24.3627   -9.4215   21.9176 C   0  0  0  0  0  0
  -23.6303   -8.2247   22.0753 C   0  0  0  0  0  0
  -22.4282   -8.0282   21.3547 C   0  0  0  0  0  0
  -21.9911   -9.0252   20.4646 C   0  0  0  0  0  0
  -22.7240  -10.2131   20.3055 C   0  0  0  0  0  0
  -21.6859   -6.0744   22.5281 C   0  0  0  0  0  0
  -21.4014   -6.5638   23.8214 C   0  0  0  0  0  0
  -21.3661   -5.6794   24.9182 C   0  0  0  0  0  0
  -21.6049   -4.3062   24.7228 C   0  0  0  0  0  0
  -21.8821   -3.8162   23.4345 C   0  0  0  0  0  0
  -21.9192   -4.6975   22.3402 C   0  0  0  0  0  0
  -22.7856  -13.5232   21.1839 C   0  0  0  0  0  0
  -22.1659   -4.2163   21.0975 F   0  0  0  0  0  0
  -21.5629   -3.4541   25.7743 F   0  0  0  0  0  0
  -30.0220  -13.3351   20.4130 N   0  0  0  0  0  0
  -26.3007  -12.9368   20.3355 N   0  0  0  0  0  0
  -25.9333  -11.6522   20.5778 N   0  0  0  0  0  0
  -22.0494  -12.8227   22.0396 N   0  0  0  0  0  0
  -25.4312  -15.1904   20.4131 N   0  0  0  0  0  0
  -31.8769  -14.6244   20.1634 O   0  0  0  0  0  0
  -21.6645   -6.8882   21.4243 O   0  0  0  0  0  0
  -22.3542  -14.5537   20.6686 O   0  0  0  0  0  0
  -24.6163  -31.8678   23.2099 C   0  0  0  0  0  0
  -25.9038  -32.4836   23.8405 C   0  0  1  0  0  0
  -27.2240  -27.4138   20.0954 C   0  0  0  0  0  0
  -25.5875  -33.8634   24.2324 N   0  0  0  0  0  0
  -23.4060  -30.4920   21.5520 C   0  0  2  0  0  0
  -24.8500  -28.9605   20.1144 C   0  0  0  0  0  0
  -22.7422  -29.4655   22.4991 C   0  0  0  0  0  0
  -18.0270  -28.1386   22.8489 C   0  0  0  0  0  0
  -24.1482  -36.7318   23.2640 C   0  0  0  0  0  0
  -25.9389  -30.8261   21.3684 C   0  0  0  0  0  0
  -26.0149  -29.4627   20.7081 C   0  0  0  0  0  0
  -27.2085  -28.7003   20.6887 C   0  0  0  0  0  0
  -26.0389  -26.9380   19.4869 C   0  0  0  0  0  0
  -24.8583  -27.6993   19.4989 C   0  0  0  0  0  0
  -23.6142  -29.8283   20.1658 C   0  0  0  0  0  0
  -25.4109  -36.3128   24.0333 C   0  0  1  0  0  0
  -20.5861  -28.3665   23.1305 C   0  0  2  0  0  0
  -20.6759  -26.9399   22.5413 C   0  0  0  0  0  0
  -19.5743  -26.6387   21.5203 C   0  0  0  0  0  0
  -18.1918  -26.7935   22.1610 C   0  0  0  0  0  0
  -19.1524  -28.8842   23.2898 C   0  0  0  0  0  0
  -18.9455  -30.1444   23.8919 C   0  0  0  0  0  0
  -17.6458  -30.6589   24.0568 C   0  0  0  0  0  0
  -25.9030  -34.9489   23.5133 C   0  0  0  0  0  0
  -16.5345  -29.9100   23.6329 C   0  0  0  0  0  0
  -16.7258  -28.6513   23.0352 C   0  0  0  0  0  0
  -26.4445  -31.6635   25.0754 C   0  0  0  0  0  0
  -25.3685  -31.3767   26.1490 C   0  0  0  0  0  0
  -27.0276  -30.3072   24.6165 C   0  0  0  0  0  0
  -27.6027  -32.4364   25.7497 C   0  0  0  0  0  0
  -27.5591  -37.1811   24.8457 C   0  0  0  0  0  0
  -21.4148  -29.3035   22.3720 N   0  0  0  0  0  0
  -26.4302  -37.3808   23.9404 N   0  0  0  0  0  0
  -24.6723  -31.0759   22.1011 N   0  0  0  0  0  0
  -23.4188  -28.8187   23.3029 O   0  0  0  0  0  0
  -28.3659  -26.6321   20.1327 O   0  0  0  0  0  0
  -26.5614  -34.8936   22.4710 O   0  0  0  0  0  0
  -23.5344  -32.1439   23.7467 O   0  0  0  0  0  0
  -28.7956  -17.4505   21.9296 C   0  0  0  0  0  0
  -29.9527  -16.4149   21.8515 C   0  0  0  0  0  0
  -29.9614  -16.5501   19.4446 C   0  0  0  0  0  0
  -28.5479  -21.8419   20.3375 C   0  0  0  0  0  0
  -30.1047  -21.9529   21.6466 C   0  0  0  0  0  0
  -28.7116  -18.4153   20.7136 C   0  0  2  0  0  0
  -28.7697  -17.5368   19.4329 C   0  0  1  0  0  0
  -29.0153  -22.9713   21.2762 C   0  0  1  0  0  0
  -28.6963  -18.3408   18.1226 C   0  0  0  0  0  0
  -30.0870  -25.1605   21.9599 C   0  0  0  0  0  0
  -29.7304  -19.6118   20.7750 C   0  0  0  0  0  0
  -28.1333  -25.2187   20.3447 C   0  0  0  0  0  0
  -29.3740  -24.4139   20.8190 C   0  0  2  0  0  0
  -29.9238  -15.6336   20.6033 N   0  0  0  0  0  0
  -29.1510  -20.8913   21.2928 N   0  3  2  0  0  0
  -31.4618  -12.4089   19.1231 H   0  0  0  0  0  0
  -30.3125  -11.3186   19.8507 H   0  0  0  0  0  0
  -29.7325  -11.7543   17.4387 H   0  0  0  0  0  0
  -29.6615  -13.4691   17.7473 H   0  0  0  0  0  0
  -27.8206  -11.3053   18.8224 H   0  0  0  0  0  0
  -27.3660  -12.6275   17.7820 H   0  0  0  0  0  0
  -27.6785  -14.2577   19.5401 H   0  0  0  0  0  0
  -28.6835  -12.0348   21.3860 H   0  0  0  0  0  0
  -28.4800  -13.7142   21.8248 H   0  0  0  0  0  0
  -25.2772   -9.5692   22.4753 H   0  0  0  0  0  0
  -24.0020   -7.4644   22.7462 H   0  0  0  0  0  0
  -21.0848   -8.8763   19.8948 H   0  0  0  0  0  0
  -22.3691  -10.9671   19.6170 H   0  0  0  0  0  0
  -21.1996   -7.6142   23.9723 H   0  0  0  0  0  0
  -21.1482   -6.0526   25.9086 H   0  0  0  0  0  0
  -22.0598   -2.7626   23.2848 H   0  0  0  0  0  0
  -22.4110  -11.9893   22.4798 H   0  0  0  0  0  0
  -21.1110  -13.1256   22.2573 H   0  0  0  0  0  0
  -24.6707  -15.8515   20.5277 H   0  0  0  0  0  0
  -26.2996  -15.6262   20.1313 H   0  0  0  0  0  0
  -26.7112  -32.5532   23.1167 H   0  0  0  0  0  0
  -24.9988  -33.9808   25.0445 H   0  0  0  0  0  0
  -22.6956  -31.3094   21.4128 H   0  0  0  0  0  0
  -23.3756  -35.9637   23.3309 H   0  0  0  0  0  0
  -24.3570  -36.8935   22.2052 H   0  0  0  0  0  0
  -23.7216  -37.6513   23.6657 H   0  0  0  0  0  0
  -26.0613  -31.5958   20.6058 H   0  0  0  0  0  0
  -26.8226  -30.8718   21.9930 H   0  0  0  0  0  0
  -28.1081  -29.0811   21.1522 H   0  0  0  0  0  0
  -26.0069  -25.9750   18.9988 H   0  0  0  0  0  0
  -23.9633  -27.3092   19.0343 H   0  0  0  0  0  0
  -23.7242  -30.6045   19.4072 H   0  0  0  0  0  0
  -22.7381  -29.2485   19.8693 H   0  0  0  0  0  0
  -25.1292  -36.2003   25.0826 H   0  0  0  0  0  0
  -20.9945  -28.3232   24.1427 H   0  0  0  0  0  0
  -20.5626  -26.2282   23.3605 H   0  0  0  0  0  0
  -21.6633  -26.7428   22.1220 H   0  0  0  0  0  0
  -19.6897  -25.6297   21.1236 H   0  0  0  0  0  0
  -19.6689  -27.3191   20.6728 H   0  0  0  0  0  0
  -17.4184  -26.6682   21.4014 H   0  0  0  0  0  0
  -18.0319  -26.0071   22.8998 H   0  0  0  0  0  0
  -19.7928  -30.7252   24.2305 H   0  0  0  0  0  0
  -17.5013  -31.6270   24.5163 H   0  0  0  0  0  0
  -15.5348  -30.3011   23.7642 H   0  0  0  0  0  0
  -15.8654  -28.0832   22.7079 H   0  0  0  0  0  0
  -24.5821  -30.7171   25.7806 H   0  0  0  0  0  0
  -24.8909  -32.2936   26.4960 H   0  0  0  0  0  0
  -25.7987  -30.8891   27.0246 H   0  0  0  0  0  0
  -26.2844  -29.6858   24.1156 H   0  0  0  0  0  0
  -27.3959  -29.7300   25.4656 H   0  0  0  0  0  0
  -27.8717  -30.4391   23.9393 H   0  0  0  0  0  0
  -27.2653  -33.3644   26.2129 H   0  0  0  0  0  0
  -28.3785  -32.6974   25.0285 H   0  0  0  0  0  0
  -28.0760  -31.8468   26.5360 H   0  0  0  0  0  0
  -28.2612  -38.0109   24.7529 H   0  0  0  0  0  0
  -28.1093  -36.2647   24.6259 H   0  0  0  0  0  0
  -27.2315  -37.1435   25.8862 H   0  0  0  0  0  0
  -20.9318  -29.8773   21.6951 H   0  0  0  0  0  0
  -26.0202  -38.2891   24.1414 H   0  0  0  0  0  0
  -28.8621  -18.0153   22.8604 H   0  0  0  0  0  0
  -27.8567  -16.8973   21.9979 H   0  0  0  0  0  0
  -29.8902  -15.7417   22.7088 H   0  0  0  0  0  0
  -30.9165  -16.9213   21.9334 H   0  0  0  0  0  0
  -30.9069  -17.0953   19.4359 H   0  0  0  0  0  0
  -29.9415  -15.9670   18.5210 H   0  0  0  0  0  0
  -29.0372  -21.8546   19.3610 H   0  0  0  0  0  0
  -27.4656  -21.7454   20.2406 H   0  0  0  0  0  0
  -30.4019  -21.9570   22.6955 H   0  0  0  0  0  0
  -30.9732  -21.9925   20.9847 H   0  0  0  0  0  0
  -27.7143  -18.8583   20.7270 H   0  0  0  0  0  0
  -27.8667  -16.9233   19.4419 H   0  0  0  0  0  0
  -28.3065  -23.0347   22.1070 H   0  0  0  0  0  0
  -29.6238  -18.8693   17.9039 H   0  0  0  0  0  0
  -27.8887  -19.0736   18.1485 H   0  0  0  0  0  0
  -28.5046  -17.6803   17.2763 H   0  0  0  0  0  0
  -31.0015  -24.6501   22.2629 H   0  0  0  0  0  0
  -29.4470  -25.2439   22.8393 H   0  0  0  0  0  0
  -30.3676  -26.1707   21.6612 H   0  0  0  0  0  0
  -30.1898  -19.8090   19.8095 H   0  0  0  0  0  0
  -30.5593  -19.3322   21.4248 H   0  0  0  0  0  0
  -27.3461  -25.1017   21.0931 H   0  0  0  0  0  0
  -27.7669  -24.7616   19.4250 H   0  0  0  0  0  0
  -30.0705  -24.3622   19.9805 H   0  0  0  0  0  0
  -28.5365  -20.7267   22.0757 H   0  0  0  0  0  0
  1 25  1  0  0  0
  1 30  2  0  0  0
  1 84  1  0  0  0
  2  3  1  0  0  0
  2 25  1  0  0  0
  2 86  1  0  0  0
  2 87  1  0  0  0
  3  4  1  0  0  0
  3 88  1  0  0  0
  3 89  1  0  0  0
  4  5  1  0  0  0
  4 90  1  0  0  0
  4 91  1  0  0  0
  5  6  1  0  0  0
  5 26  1  0  0  0
  5 92  1  0  0  0
  6 25  1  0  0  0
  6 93  1  0  0  0
  6 94  1  0  0  0
  7  8  2  0  0  0
  7 26  1  0  0  0
  7 29  1  0  0  0
  8  9  1  0  0  0
  8 22  1  0  0  0
  9 10  1  0  0  0
  9 27  2  0  0  0
 10 11  2  0  0  0
 10 15  1  0  0  0
 11 12  1  0  0  0
 11 95  1  0  0  0
 12 13  2  0  0  0
 12 96  1  0  0  0
 13 14  1  0  0  0
 13 31  1  0  0  0
 14 15  2  0  0  0
 14 97  1  0  0  0
 15 98  1  0  0  0
 16 17  2  0  0  0
 16 21  1  0  0  0
 16 31  1  0  0  0
 17 18  1  0  0  0
 17 99  1  0  0  0
 18 19  2  0  0  0
 18100  1  0  0  0
 19 20  1  0  0  0
 19 24  1  0  0  0
 20 21  2  0  0  0
 20101  1  0  0  0
 21 23  1  0  0  0
 22 28  1  0  0  0
 22 32  2  0  0  0
 26 27  1  0  0  0
 28102  1  0  0  0
 28103  1  0  0  0
 29104  1  0  0  0
 29105  1  0  0  0
 33 34  1  0  0  0
 33 66  1  0  0  0
 33 70  2  0  0  0
 34 36  1  0  0  0
 34 59  1  0  0  0
 34106  1  0  0  0
 35 44  2  0  0  0
 35 45  1  0  0  0
 35 68  1  0  0  0
 36 56  1  0  0  0
 36107  1  0  0  0
 37 39  1  0  0  0
 37 47  1  0  0  0
 37 66  1  0  0  0
 37108  1  0  0  0
 38 43  2  0  0  0
 38 46  1  0  0  0
 38 47  1  0  0  0
 39 64  1  0  0  0
 39 67  2  0  0  0
 40 52  1  0  0  0
 40 53  2  0  0  0
 40 58  1  0  0  0
 41109  1  0  0  0
 41110  1  0  0  0
 41111  1  0  0  0
 41 48  1  0  0  0
 42 43  1  0  0  0
 42 66  1  0  0  0
 42112  1  0  0  0
 42113  1  0  0  0
 43 44  1  0  0  0
 44114  1  0  0  0
 45 46  2  0  0  0
 45115  1  0  0  0
 46116  1  0  0  0
 47117  1  0  0  0
 47118  1  0  0  0
 48 56  1  0  0  0
 48 65  1  0  0  0
 48119  1  0  0  0
 49 50  1  0  0  0
 49 53  1  0  0  0
 49 64  1  0  0  0
 49120  1  0  0  0
 50 51  1  0  0  0
 50121  1  0  0  0
 50122  1  0  0  0
 51 52  1  0  0  0
 51123  1  0  0  0
 51124  1  0  0  0
 52125  1  0  0  0
 52126  1  0  0  0
 53 54  1  0  0  0
 54 55  2  0  0  0
 54127  1  0  0  0
 55 57  1  0  0  0
 55128  1  0  0  0
 56 69  2  0  0  0
 57 58  2  0  0  0
 57129  1  0  0  0
 58130  1  0  0  0
 59 60  1  0  0  0
 59 61  1  0  0  0
 59 62  1  0  0  0
 60131  1  0  0  0
 60132  1  0  0  0
 60133  1  0  0  0
 61134  1  0  0  0
 61135  1  0  0  0
 61136  1  0  0  0
 62137  1  0  0  0
 62138  1  0  0  0
 62139  1  0  0  0
 63 65  1  0  0  0
 63140  1  0  0  0
 63141  1  0  0  0
 63142  1  0  0  0
 64143  1  0  0  0
 65144  1  0  0  0
 68 82  1  0  0  0
 71 72  1  0  0  0
 71 76  1  0  0  0
 71145  1  0  0  0
 71146  1  0  0  0
 72 84  1  0  0  0
 72147  1  0  0  0
 72148  1  0  0  0
 73 77  1  0  0  0
 73 84  1  0  0  0
 73149  1  0  0  0
 73150  1  0  0  0
 74 85  1  0  0  0
 74151  1  0  0  0
 74152  1  0  0  0
 74 78  1  0  0  0
 75 78  1  0  0  0
 75 85  1  0  0  0
 75153  1  0  0  0
 75154  1  0  0  0
 76 77  1  0  0  0
 76 81  1  0  0  0
 76155  1  0  0  0
 77 79  1  0  0  0
 77156  1  0  0  0
 78 83  1  0  0  0
 78157  1  0  0  0
 79158  1  0  0  0
 79159  1  0  0  0
 79160  1  0  0  0
 80161  1  0  0  0
 80162  1  0  0  0
 80163  1  0  0  0
 80 83  1  0  0  0
 81164  1  0  0  0
 81165  1  0  0  0
 81 85  1  0  0  0
 82 83  1  0  0  0
 82166  1  0  0  0
 82167  1  0  0  0
 83168  1  0  0  0
 85169  1  0  0  0
M  CHG  1  85   1
M  ISO  4   1 100  68 101  82 101  84 100
M  END
> <chiral flag>
0

> <version>
0

> <s_m_source_file>
/data/baiqing/PycharmProjects/Reinvent-master-3.2/result/LINK_invent/BTK/process_docking_weight1_custom_sum_contain_oxygen_bond_distance_aromatic_linkinvent_7_9_3/rearranged_h_0145.sdf

> <i_m_source_file_index>
63

> <r_mmod_Potential_Energy-OPLS-2005>
133.165420532227

> <r_mmod_Stretch_Energy-OPLS-2005>
45.6847648620605

> <r_mmod_Bend_Energy-OPLS-2005>
130.266174316406

> <r_mmod_Torsional_Energy-OPLS-2005>
384.097930908203

> <r_mmod_Improper_Torsional_Energy-OPLS-2005>
15.0144462585449

> <r_mmod_Van_der_Waal_Energy-OPLS-2005>
129.59309387207

> <r_mmod_Electrostatic_Energy-OPLS-2005>
-163.657165527344

> <r_mmod_Solvation_Energy-OPLS-2005>
-430.289733886719

> <b_mmod_Minimization_Converged-OPLS-2005>
0

> <r_mmod_RMS_Derivative-OPLS-2005>
1.55843997001648

$$$$
64
                    3D
 Structure written by MMmdl.
163172  0  0  1  0            999 V2000
  -30.7027  -14.4883   20.5329 C   0  0  0  0  0  0
  -30.4135  -12.3012   19.4333 C   0  0  0  0  0  0
  -29.4933  -12.4888   18.2098 C   0  0  0  0  0  0
  -28.0120  -12.3629   18.6197 C   0  0  0  0  0  0
  -27.6571  -13.2139   19.8699 C   0  0  2  0  0  0
  -28.6999  -13.0261   20.9937 C   0  0  0  0  0  0
  -25.2565  -13.8186   20.5698 C   0  0  0  0  0  0
  -24.1817  -13.0452   20.9177 C   0  0  0  0  0  0
  -24.6390  -11.6921   20.8750 C   0  0  0  0  0  0
  -23.9068  -10.4302   21.0416 C   0  0  0  0  0  0
  -24.3621   -9.4206   21.9185 C   0  0  0  0  0  0
  -23.6301   -8.2238   22.0746 C   0  0  0  0  0  0
  -22.4278   -8.0287   21.3542 C   0  0  0  0  0  0
  -21.9916   -9.0267   20.4651 C   0  0  0  0  0  0
  -22.7242  -10.2145   20.3064 C   0  0  0  0  0  0
  -21.6854   -6.0745   22.5283 C   0  0  0  0  0  0
  -21.4024   -6.5646   23.8219 C   0  0  0  0  0  0
  -21.3655   -5.6796   24.9176 C   0  0  0  0  0  0
  -21.6035   -4.3058   24.7223 C   0  0  0  0  0  0
  -21.8818   -3.8153   23.4346 C   0  0  0  0  0  0
  -21.9186   -4.6972   22.3403 C   0  0  0  0  0  0
  -22.7838  -13.5248   21.1829 C   0  0  0  0  0  0
  -22.1653   -4.2163   21.0982 F   0  0  0  0  0  0
  -21.5618   -3.4539   25.7732 F   0  0  0  0  0  0
  -30.0247  -13.3132   20.4259 N   0  0  0  0  0  0
  -26.3004  -12.9369   20.3376 N   0  0  0  0  0  0
  -25.9320  -11.6522   20.5780 N   0  0  0  0  0  0
  -22.0465  -12.8260   22.0393 N   0  0  0  0  0  0
  -25.4307  -15.1902   20.4124 N   0  0  0  0  0  0
  -31.8639  -14.6198   20.1360 O   0  0  0  0  0  0
  -21.6634   -6.8887   21.4247 O   0  0  0  0  0  0
  -22.3528  -14.5546   20.6658 O   0  0  0  0  0  0
  -24.6177  -31.8673   23.2091 C   0  0  0  0  0  0
  -25.9057  -32.4822   23.8393 C   0  0  1  0  0  0
  -27.2279  -27.4085   20.0926 C   0  0  0  0  0  0
  -25.5905  -33.8618   24.2322 N   0  0  0  0  0  0
  -23.4051  -30.4930   21.5517 C   0  0  2  0  0  0
  -24.8487  -28.9605   20.1149 C   0  0  0  0  0  0
  -22.7420  -29.4656   22.4979 C   0  0  0  0  0  0
  -18.0271  -28.1376   22.8481 C   0  0  0  0  0  0
  -24.1485  -36.7305   23.2639 C   0  0  0  0  0  0
  -25.9385  -30.8274   21.3645 C   0  0  0  0  0  0
  -26.0148  -29.4617   20.7071 C   0  0  0  0  0  0
  -27.2079  -28.6967   20.6865 C   0  0  0  0  0  0
  -26.0358  -26.9341   19.4934 C   0  0  0  0  0  0
  -24.8563  -27.6980   19.5043 C   0  0  0  0  0  0
  -23.6136  -29.8306   20.1656 C   0  0  0  0  0  0
  -25.4109  -36.3109   24.0337 C   0  0  1  0  0  0
  -20.5863  -28.3667   23.1310 C   0  0  2  0  0  0
  -20.6761  -26.9404   22.5411 C   0  0  0  0  0  0
  -19.5748  -26.6385   21.5200 C   0  0  0  0  0  0
  -18.1922  -26.7923   22.1611 C   0  0  0  0  0  0
  -19.1519  -28.8837   23.2894 C   0  0  0  0  0  0
  -18.9449  -30.1437   23.8911 C   0  0  0  0  0  0
  -17.6452  -30.6585   24.0559 C   0  0  0  0  0  0
  -25.9038  -34.9474   23.5128 C   0  0  0  0  0  0
  -16.5343  -29.9084   23.6325 C   0  0  0  0  0  0
  -16.7259  -28.6501   23.0349 C   0  0  0  0  0  0
  -26.4481  -31.6601   25.0720 C   0  0  0  0  0  0
  -25.3741  -31.3690   26.1459 C   0  0  0  0  0  0
  -27.0320  -30.3053   24.6087 C   0  0  0  0  0  0
  -27.6063  -32.4316   25.7477 C   0  0  0  0  0  0
  -27.5579  -37.1810   24.8463 C   0  0  0  0  0  0
  -21.4145  -29.3039   22.3722 N   0  0  0  0  0  0
  -26.4294  -37.3796   23.9405 N   0  0  0  0  0  0
  -24.6722  -31.0763   22.1005 N   0  0  0  0  0  0
  -23.4190  -28.8191   23.3022 O   0  0  0  0  0  0
  -28.3882  -26.6471   20.1105 O   0  0  0  0  0  0
  -26.5598  -34.8929   22.4688 O   0  0  0  0  0  0
  -23.5360  -32.1429   23.7481 O   0  0  0  0  0  0
  -31.6573  -22.4623   20.1202 C   0  0  0  0  0  0
  -30.1221  -20.7744   20.9601 C   0  0  0  0  0  0
  -32.7152  -21.5322   20.1582 C   0  0  0  0  0  0
  -32.4850  -20.2151   20.6289 C   0  0  0  0  0  0
  -31.1853  -19.8351   21.0520 C   0  0  0  0  0  0
  -30.3452  -22.1068   20.5121 C   0  0  0  0  0  0
  -30.1251  -16.8356   20.0496 C   0  0  0  0  0  0
  -30.1039  -16.2992   22.0864 C   0  0  0  0  0  0
  -29.9531  -17.6277   21.3378 C   0  0  0  0  0  0
  -34.0928  -21.9874   19.7008 C   0  0  0  0  0  0
  -33.6230  -19.1941   20.6881 C   0  0  0  0  0  0
  -28.2252  -25.2082   20.0808 C   0  0  0  0  0  0
  -29.5400  -24.4063   20.2407 C   0  0  0  0  0  0
  -29.9483  -15.5789   20.8136 N   0  0  0  0  0  0
  -31.0428  -18.5582   21.6337 N   0  0  0  0  0  0
  -29.2822  -23.0036   20.4815 O   0  0  0  0  0  0
  -31.4616  -12.3782   19.1385 H   0  0  0  0  0  0
  -30.2968  -11.3015   19.8547 H   0  0  0  0  0  0
  -29.7320  -11.7492   17.4451 H   0  0  0  0  0  0
  -29.6697  -13.4655   17.7561 H   0  0  0  0  0  0
  -27.8157  -11.3099   18.8221 H   0  0  0  0  0  0
  -27.3655  -12.6323   17.7832 H   0  0  0  0  0  0
  -27.6931  -14.2582   19.5569 H   0  0  0  0  0  0
  -28.6717  -12.0054   21.3785 H   0  0  0  0  0  0
  -28.4742  -13.6737   21.8426 H   0  0  0  0  0  0
  -25.2769   -9.5675   22.4761 H   0  0  0  0  0  0
  -24.0010   -7.4623   22.7460 H   0  0  0  0  0  0
  -21.0833   -8.8798   19.8974 H   0  0  0  0  0  0
  -22.3698  -10.9689   19.6180 H   0  0  0  0  0  0
  -21.2038   -7.6157   23.9730 H   0  0  0  0  0  0
  -21.1471   -6.0520   25.9076 H   0  0  0  0  0  0
  -22.0600   -2.7621   23.2833 H   0  0  0  0  0  0
  -22.4078  -11.9957   22.4843 H   0  0  0  0  0  0
  -21.1081  -13.1310   22.2570 H   0  0  0  0  0  0
  -24.6743  -15.8545   20.5336 H   0  0  0  0  0  0
  -26.3016  -15.6261   20.1365 H   0  0  0  0  0  0
  -26.7122  -32.5531   23.1150 H   0  0  0  0  0  0
  -25.0054  -33.9781   25.0465 H   0  0  0  0  0  0
  -22.6943  -31.3105   21.4144 H   0  0  0  0  0  0
  -23.3751  -35.9634   23.3312 H   0  0  0  0  0  0
  -24.3571  -36.8910   22.2050 H   0  0  0  0  0  0
  -23.7233  -37.6511   23.6647 H   0  0  0  0  0  0
  -26.0531  -31.5956   20.5982 H   0  0  0  0  0  0
  -26.8260  -30.8781   21.9838 H   0  0  0  0  0  0
  -28.1091  -29.0833   21.1427 H   0  0  0  0  0  0
  -25.9846  -25.9740   19.0043 H   0  0  0  0  0  0
  -23.9604  -27.3077   19.0407 H   0  0  0  0  0  0
  -23.7257  -30.6073   19.4081 H   0  0  0  0  0  0
  -22.7361  -29.2540   19.8674 H   0  0  0  0  0  0
  -25.1287  -36.1972   25.0831 H   0  0  0  0  0  0
  -20.9948  -28.3231   24.1434 H   0  0  0  0  0  0
  -20.5647  -26.2277   23.3596 H   0  0  0  0  0  0
  -21.6637  -26.7439   22.1220 H   0  0  0  0  0  0
  -19.6911  -25.6295   21.1228 H   0  0  0  0  0  0
  -19.6693  -27.3198   20.6730 H   0  0  0  0  0  0
  -17.4193  -26.6664   21.4013 H   0  0  0  0  0  0
  -18.0332  -26.0062   22.9006 H   0  0  0  0  0  0
  -19.7925  -30.7239   24.2305 H   0  0  0  0  0  0
  -17.5012  -31.6271   24.5152 H   0  0  0  0  0  0
  -15.5345  -30.2996   23.7641 H   0  0  0  0  0  0
  -15.8656  -28.0824   22.7067 H   0  0  0  0  0  0
  -24.5905  -30.7062   25.7772 H   0  0  0  0  0  0
  -24.8940  -32.2836   26.4945 H   0  0  0  0  0  0
  -25.8083  -30.8812   27.0193 H   0  0  0  0  0  0
  -26.2865  -29.6806   24.1152 H   0  0  0  0  0  0
  -27.4122  -29.7296   25.4533 H   0  0  0  0  0  0
  -27.8683  -30.4395   23.9222 H   0  0  0  0  0  0
  -27.2698  -33.3610   26.2085 H   0  0  0  0  0  0
  -28.3852  -32.6885   25.0284 H   0  0  0  0  0  0
  -28.0754  -31.8414   26.5359 H   0  0  0  0  0  0
  -28.2606  -38.0100   24.7509 H   0  0  0  0  0  0
  -28.1065  -36.2630   24.6292 H   0  0  0  0  0  0
  -27.2293  -37.1470   25.8866 H   0  0  0  0  0  0
  -20.9300  -29.8778   21.6958 H   0  0  0  0  0  0
  -26.0180  -38.2875   24.1403 H   0  0  0  0  0  0
  -31.8852  -23.4593   19.7752 H   0  0  0  0  0  0
  -29.1322  -20.4907   21.2858 H   0  0  0  0  0  0
  -31.1033  -16.9656   19.5818 H   0  0  0  0  0  0
  -29.3316  -17.0264   19.3261 H   0  0  0  0  0  0
  -29.3008  -16.1143   22.8018 H   0  0  0  0  0  0
  -31.0783  -16.1552   22.5588 H   0  0  0  0  0  0
  -28.9558  -18.0562   21.4472 H   0  0  0  0  0  0
  -34.0852  -23.0223   19.3580 H   0  0  0  0  0  0
  -34.4462  -21.3731   18.8719 H   0  0  0  0  0  0
  -34.8120  -21.9192   20.5180 H   0  0  0  0  0  0
  -34.5820  -19.5760   20.3463 H   0  0  0  0  0  0
  -33.3842  -18.3336   20.0611 H   0  0  0  0  0  0
  -33.7701  -18.8413   21.7097 H   0  0  0  0  0  0
  -27.5401  -24.9191   20.8795 H   0  0  0  0  0  0
  -27.7798  -24.8899   19.1389 H   0  0  0  0  0  0
  -30.1198  -24.8075   21.0726 H   0  0  0  0  0  0
  -30.1202  -24.5516   19.3291 H   0  0  0  0  0  0
  -31.9285  -18.0924   21.7967 H   0  0  0  0  0  0
  1 25  1  0  0  0
  1 30  2  0  0  0
  1 84  1  0  0  0
  2  3  1  0  0  0
  2 25  1  0  0  0
  2 87  1  0  0  0
  2 88  1  0  0  0
  3  4  1  0  0  0
  3 89  1  0  0  0
  3 90  1  0  0  0
  4  5  1  0  0  0
  4 91  1  0  0  0
  4 92  1  0  0  0
  5  6  1  0  0  0
  5 26  1  0  0  0
  5 93  1  0  0  0
  6 25  1  0  0  0
  6 94  1  0  0  0
  6 95  1  0  0  0
  7  8  2  0  0  0
  7 26  1  0  0  0
  7 29  1  0  0  0
  8  9  1  0  0  0
  8 22  1  0  0  0
  9 10  1  0  0  0
  9 27  2  0  0  0
 10 11  2  0  0  0
 10 15  1  0  0  0
 11 12  1  0  0  0
 11 96  1  0  0  0
 12 13  2  0  0  0
 12 97  1  0  0  0
 13 14  1  0  0  0
 13 31  1  0  0  0
 14 15  2  0  0  0
 14 98  1  0  0  0
 15 99  1  0  0  0
 16 17  2  0  0  0
 16 21  1  0  0  0
 16 31  1  0  0  0
 17 18  1  0  0  0
 17100  1  0  0  0
 18 19  2  0  0  0
 18101  1  0  0  0
 19 20  1  0  0  0
 19 24  1  0  0  0
 20 21  2  0  0  0
 20102  1  0  0  0
 21 23  1  0  0  0
 22 28  1  0  0  0
 22 32  2  0  0  0
 26 27  1  0  0  0
 28103  1  0  0  0
 28104  1  0  0  0
 29105  1  0  0  0
 29106  1  0  0  0
 33 34  1  0  0  0
 33 66  1  0  0  0
 33 70  2  0  0  0
 34 36  1  0  0  0
 34 59  1  0  0  0
 34107  1  0  0  0
 35 44  2  0  0  0
 35 45  1  0  0  0
 35 68  1  0  0  0
 36 56  1  0  0  0
 36108  1  0  0  0
 37 39  1  0  0  0
 37 47  1  0  0  0
 37 66  1  0  0  0
 37109  1  0  0  0
 38 43  2  0  0  0
 38 46  1  0  0  0
 38 47  1  0  0  0
 39 64  1  0  0  0
 39 67  2  0  0  0
 40 52  1  0  0  0
 40 53  2  0  0  0
 40 58  1  0  0  0
 41110  1  0  0  0
 41111  1  0  0  0
 41112  1  0  0  0
 41 48  1  0  0  0
 42 43  1  0  0  0
 42 66  1  0  0  0
 42113  1  0  0  0
 42114  1  0  0  0
 43 44  1  0  0  0
 44115  1  0  0  0
 45 46  2  0  0  0
 45116  1  0  0  0
 46117  1  0  0  0
 47118  1  0  0  0
 47119  1  0  0  0
 48 56  1  0  0  0
 48 65  1  0  0  0
 48120  1  0  0  0
 49 50  1  0  0  0
 49 53  1  0  0  0
 49 64  1  0  0  0
 49121  1  0  0  0
 50 51  1  0  0  0
 50122  1  0  0  0
 50123  1  0  0  0
 51 52  1  0  0  0
 51124  1  0  0  0
 51125  1  0  0  0
 52126  1  0  0  0
 52127  1  0  0  0
 53 54  1  0  0  0
 54 55  2  0  0  0
 54128  1  0  0  0
 55 57  1  0  0  0
 55129  1  0  0  0
 56 69  2  0  0  0
 57 58  2  0  0  0
 57130  1  0  0  0
 58131  1  0  0  0
 59 60  1  0  0  0
 59 61  1  0  0  0
 59 62  1  0  0  0
 60132  1  0  0  0
 60133  1  0  0  0
 60134  1  0  0  0
 61135  1  0  0  0
 61136  1  0  0  0
 61137  1  0  0  0
 62138  1  0  0  0
 62139  1  0  0  0
 62140  1  0  0  0
 63 65  1  0  0  0
 63141  1  0  0  0
 63142  1  0  0  0
 63143  1  0  0  0
 64144  1  0  0  0
 65145  1  0  0  0
 68 82  1  0  0  0
 71 73  2  0  0  0
 71 76  1  0  0  0
 71146  1  0  0  0
 72 75  1  0  0  0
 72 76  2  0  0  0
 72147  1  0  0  0
 73 74  1  0  0  0
 73 80  1  0  0  0
 74 75  2  0  0  0
 74 81  1  0  0  0
 75 85  1  0  0  0
 76 86  1  0  0  0
 77 79  1  0  0  0
 77 84  1  0  0  0
 77148  1  0  0  0
 77149  1  0  0  0
 78 79  1  0  0  0
 78 84  1  0  0  0
 78150  1  0  0  0
 78151  1  0  0  0
 79 85  1  0  0  0
 79152  1  0  0  0
 80153  1  0  0  0
 80154  1  0  0  0
 80155  1  0  0  0
 81156  1  0  0  0
 81157  1  0  0  0
 81158  1  0  0  0
 82 83  1  0  0  0
 82159  1  0  0  0
 82160  1  0  0  0
 83 86  1  0  0  0
 83161  1  0  0  0
 83162  1  0  0  0
 85163  1  0  0  0
M  ISO  4   1 100  68 101  82 101  84 100
M  END
> <chiral flag>
0

> <version>
0

> <s_m_source_file>
/data/baiqing/PycharmProjects/Reinvent-master-3.2/result/LINK_invent/BTK/process_docking_weight1_custom_sum_contain_oxygen_bond_distance_aromatic_linkinvent_7_9_3/rearranged_h_0145.sdf

> <i_m_source_file_index>
64

> <r_mmod_Potential_Energy-OPLS-2005>
57.0916061401367

> <r_mmod_Stretch_Energy-OPLS-2005>
44.9678077697754

> <r_mmod_Bend_Energy-OPLS-2005>
120.454399108887

> <r_mmod_Torsional_Energy-OPLS-2005>
269.005798339844

> <r_mmod_Improper_Torsional_Energy-OPLS-2005>
17.1944408416748

> <r_mmod_Van_der_Waal_Energy-OPLS-2005>
163.88591003418

> <r_mmod_Electrostatic_Energy-OPLS-2005>
-373.944732666016

> <r_mmod_Solvation_Energy-OPLS-2005>
-202.592727661133

> <b_mmod_Minimization_Converged-OPLS-2005>
0

> <r_mmod_RMS_Derivative-OPLS-2005>
1.5430748462677

$$$$
65
                    3D
 Structure written by MMmdl.
172181  0  0  1  0            999 V2000
  -30.5840  -14.8101   20.4213 C   0  0  0  0  0  0
  -30.4396  -12.4922   19.4917 C   0  0  0  0  0  0
  -29.5089  -12.4810   18.2583 C   0  0  0  0  0  0
  -28.0413  -12.2620   18.6760 C   0  0  0  0  0  0
  -27.6133  -13.1757   19.8494 C   0  0  2  0  0  0
  -28.6699  -13.2241   20.9766 C   0  0  0  0  0  0
  -25.2494  -13.7922   20.5967 C   0  0  0  0  0  0
  -24.1746  -13.0256   20.9420 C   0  0  0  0  0  0
  -24.6261  -11.6718   20.8868 C   0  0  0  0  0  0
  -23.8917  -10.4145   21.0458 C   0  0  0  0  0  0
  -24.3495   -9.4077   21.9231 C   0  0  0  0  0  0
  -23.6219   -8.2086   22.0759 C   0  0  0  0  0  0
  -22.4202   -8.0152   21.3534 C   0  0  0  0  0  0
  -21.9802   -9.0112   20.4634 C   0  0  0  0  0  0
  -22.7098  -10.2019   20.3081 C   0  0  0  0  0  0
  -21.6811   -6.0637   22.5282 C   0  0  0  0  0  0
  -21.3971   -6.5573   23.8202 C   0  0  0  0  0  0
  -21.3691   -5.6747   24.9182 C   0  0  0  0  0  0
  -21.6089   -4.3020   24.7268 C   0  0  0  0  0  0
  -21.8815   -3.8079   23.4393 C   0  0  0  0  0  0
  -21.9173   -4.6858   22.3420 C   0  0  0  0  0  0
  -22.7805  -13.5141   21.2012 C   0  0  0  0  0  0
  -22.1647   -4.2031   21.1002 F   0  0  0  0  0  0
  -21.5673   -3.4539   25.7804 F   0  0  0  0  0  0
  -29.9739  -13.5706   20.3943 N   0  0  0  0  0  0
  -26.2794  -12.8991   20.3415 N   0  0  0  0  0  0
  -25.9153  -11.6203   20.5799 N   0  0  0  0  0  0
  -22.0364  -12.8154   22.0511 N   0  0  0  0  0  0
  -25.4127  -15.1647   20.4507 N   0  0  0  0  0  0
  -31.8005  -14.8887   20.2273 O   0  0  0  0  0  0
  -21.6588   -6.8752   21.4235 O   0  0  0  0  0  0
  -22.3543  -14.5452   20.6809 O   0  0  0  0  0  0
  -24.6217  -31.8600   23.2002 C   0  0  0  0  0  0
  -25.9049  -32.4796   23.8341 C   0  0  1  0  0  0
  -27.2469  -27.3162   20.1851 C   0  0  0  0  0  0
  -25.5849  -33.8588   24.2276 N   0  0  0  0  0  0
  -23.4204  -30.4791   21.5386 C   0  0  2  0  0  0
  -24.8805  -28.9197   20.1209 C   0  0  0  0  0  0
  -22.7471  -29.4620   22.4924 C   0  0  0  0  0  0
  -18.0300  -28.1399   22.8501 C   0  0  0  0  0  0
  -24.1492  -36.7309   23.2646 C   0  0  0  0  0  0
  -25.9567  -30.7970   21.3681 C   0  0  0  0  0  0
  -26.0422  -29.4148   20.7295 C   0  0  0  0  0  0
  -27.2280  -28.6291   20.7454 C   0  0  0  0  0  0
  -26.0695  -26.8624   19.5545 C   0  0  0  0  0  0
  -24.8975  -27.6480   19.5208 C   0  0  0  0  0  0
  -23.6446  -29.7991   20.1586 C   0  0  0  0  0  0
  -25.4112  -36.3109   24.0351 C   0  0  1  0  0  0
  -20.5901  -28.3668   23.1307 C   0  0  2  0  0  0
  -20.6787  -26.9405   22.5411 C   0  0  0  0  0  0
  -19.5752  -26.6390   21.5228 C   0  0  0  0  0  0
  -18.1935  -26.7934   22.1647 C   0  0  0  0  0  0
  -19.1557  -28.8859   23.2891 C   0  0  0  0  0  0
  -18.9465  -30.1462   23.8913 C   0  0  0  0  0  0
  -17.6466  -30.6597   24.0579 C   0  0  0  0  0  0
  -25.9018  -34.9459   23.5131 C   0  0  0  0  0  0
  -16.5362  -29.9098   23.6349 C   0  0  0  0  0  0
  -16.7284  -28.6520   23.0360 C   0  0  0  0  0  0
  -26.4430  -31.6589   25.0690 C   0  0  0  0  0  0
  -25.3665  -31.3721   26.1436 C   0  0  0  0  0  0
  -27.0270  -30.3035   24.6077 C   0  0  0  0  0  0
  -27.6025  -32.4296   25.7446 C   0  0  0  0  0  0
  -27.5595  -37.1831   24.8461 C   0  0  0  0  0  0
  -21.4173  -29.3046   22.3721 N   0  0  0  0  0  0
  -26.4297  -37.3791   23.9415 N   0  0  0  0  0  0
  -24.6848  -31.0616   22.0938 N   0  0  0  0  0  0
  -23.4196  -28.8190   23.3021 O   0  0  0  0  0  0
  -28.3700  -26.4836   20.2046 O   0  0  0  0  0  0
  -26.5621  -34.8917   22.4716 O   0  0  0  0  0  0
  -23.5385  -32.1371   23.7333 O   0  0  0  0  0  0
  -28.7754  -16.2315   19.3200 C   0  0  0  0  0  0
  -29.9691  -17.3885   21.0357 C   0  0  0  0  0  0
  -29.7476  -16.1371   20.3299 C   0  0  0  0  0  0
  -27.9151  -18.3928   20.1335 C   0  0  0  0  0  0
  -27.8035  -17.2550   19.2881 C   0  0  0  0  0  0
  -29.1275  -18.5668   20.8686 C   0  0  0  0  0  0
  -29.7645  -24.8266   21.1854 C   0  0  0  0  0  0
  -28.8418  -23.7989   20.5742 C   0  0  2  0  0  0
  -28.3179  -25.2411   21.0162 C   0  0  2  0  0  0
  -26.0376  -18.9739   21.7334 C   0  0  0  0  0  0
  -25.4444  -21.1788   19.1370 C   0  0  0  0  0  0
  -24.3715  -18.9260   19.3089 C   0  0  0  0  0  0
  -26.9286  -16.9698   17.1149 C   0  0  0  0  0  0
  -28.7018  -22.4083   21.3417 C   0  0  0  0  0  0
  -29.4406  -21.0949   20.7614 C   0  0  0  0  0  0
  -26.7149  -19.3402   20.3960 C   0  0  2  0  0  0
  -25.7219  -19.6664   19.2272 C   0  0  0  0  0  0
  -26.6922  -17.0743   18.5096 O   0  0  0  0  0  0
  -29.3937  -19.8060   21.5140 O   0  0  0  0  0  0
  -31.4691  -12.6534   19.1672 H   0  0  0  0  0  0
  -30.4256  -11.5340   20.0161 H   0  0  0  0  0  0
  -29.8155  -11.6951   17.5681 H   0  0  0  0  0  0
  -29.6038  -13.4204   17.7128 H   0  0  0  0  0  0
  -27.9454  -11.2197   18.9781 H   0  0  0  0  0  0
  -27.3698  -12.3979   17.8273 H   0  0  0  0  0  0
  -27.4959  -14.1413   19.4038 H   0  0  0  0  0  0
  -28.7292  -12.2664   21.4984 H   0  0  0  0  0  0
  -28.3807  -13.9671   21.7224 H   0  0  0  0  0  0
  -25.2602   -9.5590   22.4861 H   0  0  0  0  0  0
  -23.9940   -7.4447   22.7481 H   0  0  0  0  0  0
  -21.0733   -8.8596   19.8929 H   0  0  0  0  0  0
  -22.3526  -10.9576   19.6219 H   0  0  0  0  0  0
  -21.1915   -7.6078   23.9670 H   0  0  0  0  0  0
  -21.1578   -6.0504   25.9092 H   0  0  0  0  0  0
  -22.0582   -2.7538   23.2950 H   0  0  0  0  0  0
  -22.3880  -11.9780   22.4919 H   0  0  0  0  0  0
  -21.0977  -13.1243   22.2636 H   0  0  0  0  0  0
  -24.6260  -15.7962   20.5425 H   0  0  0  0  0  0
  -26.2277  -15.6169   20.0527 H   0  0  0  0  0  0
  -26.7139  -32.5528   23.1133 H   0  0  0  0  0  0
  -24.9970  -33.9710   25.0407 H   0  0  0  0  0  0
  -22.7107  -31.2957   21.3868 H   0  0  0  0  0  0
  -23.3752  -35.9643   23.3293 H   0  0  0  0  0  0
  -24.3587  -36.8904   22.2055 H   0  0  0  0  0  0
  -23.7215  -37.6507   23.6641 H   0  0  0  0  0  0
  -26.0718  -31.5509   20.5891 H   0  0  0  0  0  0
  -26.8431  -30.8670   21.9869 H   0  0  0  0  0  0
  -28.1202  -29.0090   21.2260 H   0  0  0  0  0  0
  -26.0666  -25.8830   19.0995 H   0  0  0  0  0  0
  -24.0108  -27.2600   19.0387 H   0  0  0  0  0  0
  -23.7731  -30.5677   19.3927 H   0  0  0  0  0  0
  -22.7656  -29.2235   19.8632 H   0  0  0  0  0  0
  -25.1312  -36.1954   25.0848 H   0  0  0  0  0  0
  -21.0023  -28.3234   24.1408 H   0  0  0  0  0  0
  -20.5680  -26.2295   23.3595 H   0  0  0  0  0  0
  -21.6661  -26.7441   22.1234 H   0  0  0  0  0  0
  -19.6878  -25.6288   21.1281 H   0  0  0  0  0  0
  -19.6684  -27.3209   20.6765 H   0  0  0  0  0  0
  -17.4214  -26.6721   21.4030 H   0  0  0  0  0  0
  -18.0308  -26.0054   22.9031 H   0  0  0  0  0  0
  -19.7923  -30.7293   24.2289 H   0  0  0  0  0  0
  -17.5011  -31.6270   24.5179 H   0  0  0  0  0  0
  -15.5361  -30.3011   23.7620 H   0  0  0  0  0  0
  -15.8693  -28.0835   22.7055 H   0  0  0  0  0  0
  -24.5821  -30.7078   25.7765 H   0  0  0  0  0  0
  -24.8869  -32.2888   26.4885 H   0  0  0  0  0  0
  -25.7997  -30.8869   27.0194 H   0  0  0  0  0  0
  -26.2835  -29.6795   24.1114 H   0  0  0  0  0  0
  -27.4022  -29.7253   25.4522 H   0  0  0  0  0  0
  -27.8658  -30.4372   23.9256 H   0  0  0  0  0  0
  -27.2706  -33.3615   26.2058 H   0  0  0  0  0  0
  -28.3841  -32.6836   25.0261 H   0  0  0  0  0  0
  -28.0698  -31.8363   26.5316 H   0  0  0  0  0  0
  -28.2665  -38.0099   24.7555 H   0  0  0  0  0  0
  -28.1073  -36.2647   24.6281 H   0  0  0  0  0  0
  -27.2328  -37.1473   25.8870 H   0  0  0  0  0  0
  -20.9319  -29.8761   21.6955 H   0  0  0  0  0  0
  -26.0179  -38.2873   24.1386 H   0  0  0  0  0  0
  -28.7191  -15.4357   18.5952 H   0  0  0  0  0  0
  -30.8068  -17.4504   21.7149 H   0  0  0  0  0  0
  -30.5120  -25.2631   20.5273 H   0  0  0  0  0  0
  -30.1103  -24.6566   22.2049 H   0  0  0  0  0  0
  -28.8584  -23.6808   19.4926 H   0  0  0  0  0  0
  -27.7486  -25.3607   21.9375 H   0  0  0  0  0  0
  -26.7534  -19.0166   22.5535 H   0  0  0  0  0  0
  -25.6246  -17.9648   21.7199 H   0  0  0  0  0  0
  -25.2354  -19.6677   21.9837 H   0  0  0  0  0  0
  -24.7323  -21.4107   18.3434 H   0  0  0  0  0  0
  -26.3603  -21.7332   18.9232 H   0  0  0  0  0  0
  -25.0279  -21.5639   20.0681 H   0  0  0  0  0  0
  -23.7658  -19.1172   18.4224 H   0  0  0  0  0  0
  -23.7875  -19.2507   20.1686 H   0  0  0  0  0  0
  -24.4973  -17.8493   19.3854 H   0  0  0  0  0  0
  -25.9740  -16.8398   16.6078 H   0  0  0  0  0  0
  -27.5582  -16.1201   16.8531 H   0  0  0  0  0  0
  -27.3876  -17.8821   16.7303 H   0  0  0  0  0  0
  -27.6363  -22.2065   21.4346 H   0  0  0  0  0  0
  -29.0455  -22.5561   22.3672 H   0  0  0  0  0  0
  -30.5004  -21.3393   20.6886 H   0  0  0  0  0  0
  -29.1153  -20.9346   19.7322 H   0  0  0  0  0  0
  -27.1494  -20.3005   20.6022 H   0  0  0  0  0  0
  -26.1869  -19.4220   18.2735 H   0  0  0  0  0  0
  1 25  1  0  0  0
  1 30  2  0  0  0
  1 73  1  0  0  0
  2  3  1  0  0  0
  2 25  1  0  0  0
  2 90  1  0  0  0
  2 91  1  0  0  0
  3  4  1  0  0  0
  3 92  1  0  0  0
  3 93  1  0  0  0
  4  5  1  0  0  0
  4 94  1  0  0  0
  4 95  1  0  0  0
  5  6  1  0  0  0
  5 26  1  0  0  0
  5 96  1  0  0  0
  6 25  1  0  0  0
  6 97  1  0  0  0
  6 98  1  0  0  0
  7  8  2  0  0  0
  7 26  1  0  0  0
  7 29  1  0  0  0
  8  9  1  0  0  0
  8 22  1  0  0  0
  9 10  1  0  0  0
  9 27  2  0  0  0
 10 11  2  0  0  0
 10 15  1  0  0  0
 11 12  1  0  0  0
 11 99  1  0  0  0
 12 13  2  0  0  0
 12100  1  0  0  0
 13 14  1  0  0  0
 13 31  1  0  0  0
 14 15  2  0  0  0
 14101  1  0  0  0
 15102  1  0  0  0
 16 17  2  0  0  0
 16 21  1  0  0  0
 16 31  1  0  0  0
 17 18  1  0  0  0
 17103  1  0  0  0
 18 19  2  0  0  0
 18104  1  0  0  0
 19 20  1  0  0  0
 19 24  1  0  0  0
 20 21  2  0  0  0
 20105  1  0  0  0
 21 23  1  0  0  0
 22 28  1  0  0  0
 22 32  2  0  0  0
 26 27  1  0  0  0
 28106  1  0  0  0
 28107  1  0  0  0
 29108  1  0  0  0
 29109  1  0  0  0
 33 34  1  0  0  0
 33 66  1  0  0  0
 33 70  2  0  0  0
 34 36  1  0  0  0
 34 59  1  0  0  0
 34110  1  0  0  0
 35 44  2  0  0  0
 35 45  1  0  0  0
 35 68  1  0  0  0
 36 56  1  0  0  0
 36111  1  0  0  0
 37 39  1  0  0  0
 37 47  1  0  0  0
 37 66  1  0  0  0
 37112  1  0  0  0
 38 43  2  0  0  0
 38 46  1  0  0  0
 38 47  1  0  0  0
 39 64  1  0  0  0
 39 67  2  0  0  0
 40 52  1  0  0  0
 40 53  2  0  0  0
 40 58  1  0  0  0
 41113  1  0  0  0
 41114  1  0  0  0
 41115  1  0  0  0
 41 48  1  0  0  0
 42 43  1  0  0  0
 42 66  1  0  0  0
 42116  1  0  0  0
 42117  1  0  0  0
 43 44  1  0  0  0
 44118  1  0  0  0
 45 46  2  0  0  0
 45119  1  0  0  0
 46120  1  0  0  0
 47121  1  0  0  0
 47122  1  0  0  0
 48 56  1  0  0  0
 48 65  1  0  0  0
 48123  1  0  0  0
 49 50  1  0  0  0
 49 53  1  0  0  0
 49 64  1  0  0  0
 49124  1  0  0  0
 50 51  1  0  0  0
 50125  1  0  0  0
 50126  1  0  0  0
 51 52  1  0  0  0
 51127  1  0  0  0
 51128  1  0  0  0
 52129  1  0  0  0
 52130  1  0  0  0
 53 54  1  0  0  0
 54 55  2  0  0  0
 54131  1  0  0  0
 55 57  1  0  0  0
 55132  1  0  0  0
 56 69  2  0  0  0
 57 58  2  0  0  0
 57133  1  0  0  0
 58134  1  0  0  0
 59 60  1  0  0  0
 59 61  1  0  0  0
 59 62  1  0  0  0
 60135  1  0  0  0
 60136  1  0  0  0
 60137  1  0  0  0
 61138  1  0  0  0
 61139  1  0  0  0
 61140  1  0  0  0
 62141  1  0  0  0
 62142  1  0  0  0
 62143  1  0  0  0
 63 65  1  0  0  0
 63144  1  0  0  0
 63145  1  0  0  0
 63146  1  0  0  0
 64147  1  0  0  0
 65148  1  0  0  0
 68 79  1  0  0  0
 71 73  2  0  0  0
 71 75  1  0  0  0
 71149  1  0  0  0
 72 73  1  0  0  0
 72 76  2  0  0  0
 72150  1  0  0  0
 74 75  2  0  0  0
 74 76  1  0  0  0
 74 86  1  0  0  0
 75 88  1  0  0  0
 76 89  1  0  0  0
 77 78  1  0  0  0
 77 79  1  0  0  0
 77151  1  0  0  0
 77152  1  0  0  0
 78 79  1  0  0  0
 78 84  1  0  0  0
 78153  1  0  0  0
 79154  1  0  0  0
 80155  1  0  0  0
 80156  1  0  0  0
 80157  1  0  0  0
 80 86  1  0  0  0
 81158  1  0  0  0
 81159  1  0  0  0
 81160  1  0  0  0
 81 87  1  0  0  0
 82 87  1  0  0  0
 82161  1  0  0  0
 82162  1  0  0  0
 82163  1  0  0  0
 83 88  1  0  0  0
 83164  1  0  0  0
 83165  1  0  0  0
 83166  1  0  0  0
 84 85  1  0  0  0
 84167  1  0  0  0
 84168  1  0  0  0
 85 89  1  0  0  0
 85169  1  0  0  0
 85170  1  0  0  0
 86 87  1  0  0  0
 86171  1  0  0  0
 87172  1  0  0  0
M  ISO  4   1 100  68 101  73 100  79 101
M  END
> <chiral flag>
0

> <version>
0

> <s_m_source_file>
/data/baiqing/PycharmProjects/Reinvent-master-3.2/result/LINK_invent/BTK/process_docking_weight1_custom_sum_contain_oxygen_bond_distance_aromatic_linkinvent_7_9_3/rearranged_h_0145.sdf

> <i_m_source_file_index>
65

> <r_mmod_Potential_Energy-OPLS-2005>
385.172485351562

> <r_mmod_Stretch_Energy-OPLS-2005>
117.242713928223

> <r_mmod_Bend_Energy-OPLS-2005>
184.860290527344

> <r_mmod_Torsional_Energy-OPLS-2005>
365.798583984375

> <r_mmod_Improper_Torsional_Energy-OPLS-2005>
10.687029838562

> <r_mmod_Van_der_Waal_Energy-OPLS-2005>
141.296463012695

> <r_mmod_Electrostatic_Energy-OPLS-2005>
-354.968811035156

> <r_mmod_Solvation_Energy-OPLS-2005>
-176.640899658203

> <b_mmod_Minimization_Converged-OPLS-2005>
0

> <r_mmod_RMS_Derivative-OPLS-2005>
5.26955413818359

$$$$
66
                    3D
 Structure written by MMmdl.
176186  0  0  1  0            999 V2000
  -30.7263  -14.6112   20.4442 C   0  0  0  0  0  0
  -30.4208  -12.3855   19.4134 C   0  0  0  0  0  0
  -29.4770  -12.4457   18.1970 C   0  0  0  0  0  0
  -28.0190  -12.2234   18.6433 C   0  0  0  0  0  0
  -27.6259  -13.1351   19.8266 C   0  0  2  0  0  0
  -28.6978  -13.1325   20.9485 C   0  0  0  0  0  0
  -25.2540  -13.7924   20.5656 C   0  0  0  0  0  0
  -24.1776  -13.0312   20.9252 C   0  0  0  0  0  0
  -24.6277  -11.6763   20.8835 C   0  0  0  0  0  0
  -23.8948  -10.4210   21.0483 C   0  0  0  0  0  0
  -24.3546   -9.4135   21.9233 C   0  0  0  0  0  0
  -23.6248   -8.2169   22.0770 C   0  0  0  0  0  0
  -22.4238   -8.0227   21.3545 C   0  0  0  0  0  0
  -21.9855   -9.0195   20.4650 C   0  0  0  0  0  0
  -22.7162  -10.2079   20.3088 C   0  0  0  0  0  0
  -21.6824   -6.0723   22.5292 C   0  0  0  0  0  0
  -21.3978   -6.5630   23.8223 C   0  0  0  0  0  0
  -21.3646   -5.6783   24.9186 C   0  0  0  0  0  0
  -21.6045   -4.3056   24.7233 C   0  0  0  0  0  0
  -21.8822   -3.8148   23.4353 C   0  0  0  0  0  0
  -21.9184   -4.6955   22.3412 C   0  0  0  0  0  0
  -22.7829  -13.5201   21.1895 C   0  0  0  0  0  0
  -22.1660   -4.2148   21.0986 F   0  0  0  0  0  0
  -21.5632   -3.4541   25.7746 F   0  0  0  0  0  0
  -29.9950  -13.4554   20.3334 N   0  0  0  0  0  0
  -26.2856  -12.8922   20.3267 N   0  0  0  0  0  0
  -25.9161  -11.6190   20.5851 N   0  0  0  0  0  0
  -22.0428  -12.8219   22.0433 N   0  0  0  0  0  0
  -25.4219  -15.1627   20.3918 N   0  0  0  0  0  0
  -31.9482  -14.5747   20.3076 O   0  0  0  0  0  0
  -21.6598   -6.8842   21.4253 O   0  0  0  0  0  0
  -22.3561  -14.5541   20.6757 O   0  0  0  0  0  0
  -24.6102  -31.8684   23.2108 C   0  0  0  0  0  0
  -25.9000  -32.4828   23.8405 C   0  0  1  0  0  0
  -27.2613  -27.4532   20.1214 C   0  0  0  0  0  0
  -25.5878  -33.8624   24.2347 N   0  0  0  0  0  0
  -23.4002  -30.4871   21.5481 C   0  0  2  0  0  0
  -24.8573  -28.9542   20.1157 C   0  0  0  0  0  0
  -22.7406  -29.4630   22.4986 C   0  0  0  0  0  0
  -18.0272  -28.1365   22.8481 C   0  0  0  0  0  0
  -24.1485  -36.7301   23.2647 C   0  0  0  0  0  0
  -25.9228  -30.8434   21.3603 C   0  0  0  0  0  0
  -26.0081  -29.4746   20.7192 C   0  0  0  0  0  0
  -27.2092  -28.7336   20.7239 C   0  0  0  0  0  0
  -26.0994  -26.9523   19.4977 C   0  0  0  0  0  0
  -24.8968  -27.6889   19.5000 C   0  0  0  0  0  0
  -23.6131  -29.8136   20.1632 C   0  0  0  0  0  0
  -25.4104  -36.3116   24.0356 C   0  0  1  0  0  0
  -20.5861  -28.3631   23.1332 C   0  0  2  0  0  0
  -20.6751  -26.9369   22.5416 C   0  0  0  0  0  0
  -19.5736  -26.6363   21.5206 C   0  0  0  0  0  0
  -18.1915  -26.7907   22.1611 C   0  0  0  0  0  0
  -19.1523  -28.8814   23.2901 C   0  0  0  0  0  0
  -18.9450  -30.1420   23.8913 C   0  0  0  0  0  0
  -17.6457  -30.6569   24.0566 C   0  0  0  0  0  0
  -25.9021  -34.9479   23.5149 C   0  0  0  0  0  0
  -16.5349  -29.9075   23.6322 C   0  0  0  0  0  0
  -16.7259  -28.6496   23.0332 C   0  0  0  0  0  0
  -26.4452  -31.6598   25.0714 C   0  0  0  0  0  0
  -25.3742  -31.3700   26.1479 C   0  0  0  0  0  0
  -27.0276  -30.3060   24.6021 C   0  0  0  0  0  0
  -27.6025  -32.4321   25.7468 C   0  0  0  0  0  0
  -27.5580  -37.1806   24.8473 C   0  0  0  0  0  0
  -21.4130  -29.3021   22.3759 N   0  0  0  0  0  0
  -26.4294  -37.3794   23.9417 N   0  0  0  0  0  0
  -24.6624  -31.0803   22.0998 N   0  0  0  0  0  0
  -23.4204  -28.8162   23.3002 O   0  0  0  0  0  0
  -28.3985  -26.6682   20.0932 O   0  0  0  0  0  0
  -26.5568  -34.8924   22.4700 O   0  0  0  0  0  0
  -23.5296  -32.1396   23.7523 O   0  0  0  0  0  0
  -31.8110  -19.1573   20.0606 C   0  0  0  0  0  0
  -30.4000  -19.1745   22.0313 C   0  0  0  0  0  0
  -31.1566  -19.8861   21.0760 C   0  0  0  0  0  0
  -31.6024  -17.7680   19.8978 C   0  0  0  0  0  0
  -30.2010  -17.7812   21.9070 C   0  0  0  0  0  0
  -30.7405  -17.0726   20.7956 C   0  0  0  0  0  0
  -28.3035  -17.4183   19.3613 C   0  0  0  0  0  0
  -28.4839  -16.2440   18.4482 C   0  0  0  0  0  0
  -30.0639  -22.0033   20.1859 C   0  0  0  0  0  0
  -31.1392  -22.1235   22.4144 C   0  0  0  0  0  0
  -30.1603  -23.5402   20.0427 C   0  0  0  0  0  0
  -31.2694  -23.6554   22.2521 C   0  0  0  0  0  0
  -31.2029  -21.4226   21.0461 C   0  0  1  0  0  0
  -28.7538  -16.0743   19.9415 C   0  0  0  0  0  0
  -32.2238  -17.1059   18.6753 C   0  0  0  0  0  0
  -29.2859  -17.1040   22.9157 C   0  0  0  0  0  0
  -30.4233  -25.7273   21.1830 C   0  0  0  0  0  0
  -29.1410  -26.5835   21.3175 C   0  0  0  0  0  0
  -30.1033  -15.8426   20.4045 N   0  0  0  0  0  0
  -30.2335  -24.2498   21.3514 N   0  3  1  0  0  0
  -31.4545  -12.4993   19.0804 H   0  0  0  0  0  0
  -30.3671  -11.4123   19.9025 H   0  0  0  0  0  0
  -29.7592  -11.6873   17.4651 H   0  0  0  0  0  0
  -29.5730  -13.4090   17.6928 H   0  0  0  0  0  0
  -27.9144  -11.1771   18.9339 H   0  0  0  0  0  0
  -27.3386  -12.3746   17.8042 H   0  0  0  0  0  0
  -27.5536  -14.0855   19.3399 H   0  0  0  0  0  0
  -28.7430  -12.1539   21.4268 H   0  0  0  0  0  0
  -28.4496  -13.8419   21.7383 H   0  0  0  0  0  0
  -25.2697   -9.5616   22.4798 H   0  0  0  0  0  0
  -23.9962   -7.4553   22.7474 H   0  0  0  0  0  0
  -21.0794   -8.8717   19.8942 H   0  0  0  0  0  0
  -22.3654  -10.9633   19.6192 H   0  0  0  0  0  0
  -21.1947   -7.6133   23.9725 H   0  0  0  0  0  0
  -21.1462   -6.0513   25.9084 H   0  0  0  0  0  0
  -22.0610   -2.7612   23.2861 H   0  0  0  0  0  0
  -22.4010  -11.9867   22.4830 H   0  0  0  0  0  0
  -21.1055  -13.1278   22.2626 H   0  0  0  0  0  0
  -24.6478  -15.8109   20.4892 H   0  0  0  0  0  0
  -26.2522  -15.5948   20.0125 H   0  0  0  0  0  0
  -26.7082  -32.5569   23.1183 H   0  0  0  0  0  0
  -25.0105  -33.9792   25.0539 H   0  0  0  0  0  0
  -22.6866  -31.3009   21.4054 H   0  0  0  0  0  0
  -23.3757  -35.9623   23.3307 H   0  0  0  0  0  0
  -24.3583  -36.8895   22.2062 H   0  0  0  0  0  0
  -23.7212  -37.6502   23.6638 H   0  0  0  0  0  0
  -26.0217  -31.6066   20.5869 H   0  0  0  0  0  0
  -26.8157  -30.9105   21.9705 H   0  0  0  0  0  0
  -28.0863  -29.1670   21.1813 H   0  0  0  0  0  0
  -26.1245  -25.9821   19.0237 H   0  0  0  0  0  0
  -24.0155  -27.2789   19.0273 H   0  0  0  0  0  0
  -23.7189  -30.5868   19.4020 H   0  0  0  0  0  0
  -22.7415  -29.2280   19.8667 H   0  0  0  0  0  0
  -25.1282  -36.1992   25.0850 H   0  0  0  0  0  0
  -20.9939  -28.3173   24.1453 H   0  0  0  0  0  0
  -20.5631  -26.2237   23.3589 H   0  0  0  0  0  0
  -21.6627  -26.7386   22.1221 H   0  0  0  0  0  0
  -19.6889  -25.6274   21.1227 H   0  0  0  0  0  0
  -19.6697  -27.3187   20.6750 H   0  0  0  0  0  0
  -17.4181  -26.6671   21.4009 H   0  0  0  0  0  0
  -18.0296  -26.0040   22.8995 H   0  0  0  0  0  0
  -19.7932  -30.7237   24.2287 H   0  0  0  0  0  0
  -17.5014  -31.6255   24.5152 H   0  0  0  0  0  0
  -15.5352  -30.2997   23.7625 H   0  0  0  0  0  0
  -15.8652  -28.0840   22.7020 H   0  0  0  0  0  0
  -24.5891  -30.7067   25.7825 H   0  0  0  0  0  0
  -24.8971  -32.2877   26.4950 H   0  0  0  0  0  0
  -25.8116  -30.8854   27.0222 H   0  0  0  0  0  0
  -26.2797  -29.6835   24.1098 H   0  0  0  0  0  0
  -27.4119  -29.7260   25.4420 H   0  0  0  0  0  0
  -27.8595  -30.4405   23.9098 H   0  0  0  0  0  0
  -27.2628  -33.3617   26.2042 H   0  0  0  0  0  0
  -28.3836  -32.6888   25.0301 H   0  0  0  0  0  0
  -28.0683  -31.8456   26.5391 H   0  0  0  0  0  0
  -28.2599  -38.0104   24.7522 H   0  0  0  0  0  0
  -28.1078  -36.2633   24.6301 H   0  0  0  0  0  0
  -27.2303  -37.1459   25.8880 H   0  0  0  0  0  0
  -20.9262  -29.8786   21.7041 H   0  0  0  0  0  0
  -26.0192  -38.2874   24.1428 H   0  0  0  0  0  0
  -32.4100  -19.6892   19.3336 H   0  0  0  0  0  0
  -29.8946  -19.7029   22.8261 H   0  0  0  0  0  0
  -27.2830  -17.7326   19.5773 H   0  0  0  0  0  0
  -29.0031  -18.2390   19.2200 H   0  0  0  0  0  0
  -29.3346  -16.2731   17.7719 H   0  0  0  0  0  0
  -27.5747  -15.8342   18.0122 H   0  0  0  0  0  0
  -30.0909  -21.5553   19.1920 H   0  0  0  0  0  0
  -29.0993  -21.7295   20.6153 H   0  0  0  0  0  0
  -30.1991  -21.9002   22.9206 H   0  0  0  0  0  0
  -31.9368  -21.7537   23.0595 H   0  0  0  0  0  0
  -29.2994  -23.9109   19.4832 H   0  0  0  0  0  0
  -31.0440  -23.7830   19.4503 H   0  0  0  0  0  0
  -32.2626  -23.8945   21.8674 H   0  0  0  0  0  0
  -31.2011  -24.1220   23.2357 H   0  0  0  0  0  0
  -32.1557  -21.6951   20.5862 H   0  0  0  0  0  0
  -27.9854  -15.7143   20.6159 H   0  0  0  0  0  0
  -32.4635  -17.8391   17.9041 H   0  0  0  0  0  0
  -31.5622  -16.3711   18.2205 H   0  0  0  0  0  0
  -33.1493  -16.6012   18.9523 H   0  0  0  0  0  0
  -29.3746  -17.5729   23.8960 H   0  0  0  0  0  0
  -29.5280  -16.0478   23.0351 H   0  0  0  0  0  0
  -28.2458  -17.1876   22.5980 H   0  0  0  0  0  0
  -31.0975  -26.0742   21.9679 H   0  0  0  0  0  0
  -30.9425  -25.9656   20.2539 H   0  0  0  0  0  0
  -29.4685  -27.5807   21.6088 H   0  0  0  0  0  0
  -28.5081  -26.2155   22.1271 H   0  0  0  0  0  0
  -29.3454  -24.1132   21.8134 H   0  0  0  0  0  0
  1 25  1  0  0  0
  1 30  2  0  0  0
  1 89  1  0  0  0
  2  3  1  0  0  0
  2 25  1  0  0  0
  2 91  1  0  0  0
  2 92  1  0  0  0
  3  4  1  0  0  0
  3 93  1  0  0  0
  3 94  1  0  0  0
  4  5  1  0  0  0
  4 95  1  0  0  0
  4 96  1  0  0  0
  5  6  1  0  0  0
  5 26  1  0  0  0
  5 97  1  0  0  0
  6 25  1  0  0  0
  6 98  1  0  0  0
  6 99  1  0  0  0
  7  8  2  0  0  0
  7 26  1  0  0  0
  7 29  1  0  0  0
  8  9  1  0  0  0
  8 22  1  0  0  0
  9 10  1  0  0  0
  9 27  2  0  0  0
 10 11  2  0  0  0
 10 15  1  0  0  0
 11 12  1  0  0  0
 11100  1  0  0  0
 12 13  2  0  0  0
 12101  1  0  0  0
 13 14  1  0  0  0
 13 31  1  0  0  0
 14 15  2  0  0  0
 14102  1  0  0  0
 15103  1  0  0  0
 16 17  2  0  0  0
 16 21  1  0  0  0
 16 31  1  0  0  0
 17 18  1  0  0  0
 17104  1  0  0  0
 18 19  2  0  0  0
 18105  1  0  0  0
 19 20  1  0  0  0
 19 24  1  0  0  0
 20 21  2  0  0  0
 20106  1  0  0  0
 21 23  1  0  0  0
 22 28  1  0  0  0
 22 32  2  0  0  0
 26 27  1  0  0  0
 28107  1  0  0  0
 28108  1  0  0  0
 29109  1  0  0  0
 29110  1  0  0  0
 33 34  1  0  0  0
 33 66  1  0  0  0
 33 70  2  0  0  0
 34 36  1  0  0  0
 34 59  1  0  0  0
 34111  1  0  0  0
 35 44  2  0  0  0
 35 45  1  0  0  0
 35 68  1  0  0  0
 36 56  1  0  0  0
 36112  1  0  0  0
 37 39  1  0  0  0
 37 47  1  0  0  0
 37 66  1  0  0  0
 37113  1  0  0  0
 38 43  2  0  0  0
 38 46  1  0  0  0
 38 47  1  0  0  0
 39 64  1  0  0  0
 39 67  2  0  0  0
 40 52  1  0  0  0
 40 53  2  0  0  0
 40 58  1  0  0  0
 41114  1  0  0  0
 41115  1  0  0  0
 41116  1  0  0  0
 41 48  1  0  0  0
 42 43  1  0  0  0
 42 66  1  0  0  0
 42117  1  0  0  0
 42118  1  0  0  0
 43 44  1  0  0  0
 44119  1  0  0  0
 45 46  2  0  0  0
 45120  1  0  0  0
 46121  1  0  0  0
 47122  1  0  0  0
 47123  1  0  0  0
 48 56  1  0  0  0
 48 65  1  0  0  0
 48124  1  0  0  0
 49 50  1  0  0  0
 49 53  1  0  0  0
 49 64  1  0  0  0
 49125  1  0  0  0
 50 51  1  0  0  0
 50126  1  0  0  0
 50127  1  0  0  0
 51 52  1  0  0  0
 51128  1  0  0  0
 51129  1  0  0  0
 52130  1  0  0  0
 52131  1  0  0  0
 53 54  1  0  0  0
 54 55  2  0  0  0
 54132  1  0  0  0
 55 57  1  0  0  0
 55133  1  0  0  0
 56 69  2  0  0  0
 57 58  2  0  0  0
 57134  1  0  0  0
 58135  1  0  0  0
 59 60  1  0  0  0
 59 61  1  0  0  0
 59 62  1  0  0  0
 60136  1  0  0  0
 60137  1  0  0  0
 60138  1  0  0  0
 61139  1  0  0  0
 61140  1  0  0  0
 61141  1  0  0  0
 62142  1  0  0  0
 62143  1  0  0  0
 62144  1  0  0  0
 63 65  1  0  0  0
 63145  1  0  0  0
 63146  1  0  0  0
 63147  1  0  0  0
 64148  1  0  0  0
 65149  1  0  0  0
 68 88  1  0  0  0
 71 73  2  0  0  0
 71 74  1  0  0  0
 71150  1  0  0  0
 72 73  1  0  0  0
 72 75  2  0  0  0
 72151  1  0  0  0
 73 83  1  0  0  0
 74 76  2  0  0  0
 74 85  1  0  0  0
 75 76  1  0  0  0
 75 86  1  0  0  0
 76 89  1  0  0  0
 77 78  1  0  0  0
 77 84  1  0  0  0
 77152  1  0  0  0
 77153  1  0  0  0
 78 84  1  0  0  0
 78154  1  0  0  0
 78155  1  0  0  0
 79 81  1  0  0  0
 79 83  1  0  0  0
 79156  1  0  0  0
 79157  1  0  0  0
 80 82  1  0  0  0
 80 83  1  0  0  0
 80158  1  0  0  0
 80159  1  0  0  0
 81 90  1  0  0  0
 81160  1  0  0  0
 81161  1  0  0  0
 82 90  1  0  0  0
 82162  1  0  0  0
 82163  1  0  0  0
 83164  1  0  0  0
 84 89  1  0  0  0
 84165  1  0  0  0
 85166  1  0  0  0
 85167  1  0  0  0
 85168  1  0  0  0
 86169  1  0  0  0
 86170  1  0  0  0
 86171  1  0  0  0
 87 88  1  0  0  0
 87172  1  0  0  0
 87173  1  0  0  0
 87 90  1  0  0  0
 88174  1  0  0  0
 88175  1  0  0  0
 90176  1  0  0  0
M  CHG  1  90   1
M  ISO  4   1 100  68 101  88 101  89 100
M  END
> <chiral flag>
0

> <version>
0

> <s_m_source_file>
/data/baiqing/PycharmProjects/Reinvent-master-3.2/result/LINK_invent/BTK/process_docking_weight1_custom_sum_contain_oxygen_bond_distance_aromatic_linkinvent_7_9_3/rearranged_h_0145.sdf

> <i_m_source_file_index>
66

> <r_mmod_Potential_Energy-OPLS-2005>
231.447235107422

> <r_mmod_Stretch_Energy-OPLS-2005>
48.7439231872559

> <r_mmod_Bend_Energy-OPLS-2005>
134.178100585938

> <r_mmod_Torsional_Energy-OPLS-2005>
440.3134765625

> <r_mmod_Improper_Torsional_Energy-OPLS-2005>
11.502908706665

> <r_mmod_Van_der_Waal_Energy-OPLS-2005>
169.178298950195

> <r_mmod_Electrostatic_Energy-OPLS-2005>
-215.518402099609

> <r_mmod_Solvation_Energy-OPLS-2005>
-404.411529541016

> <b_mmod_Minimization_Converged-OPLS-2005>
0

> <r_mmod_RMS_Derivative-OPLS-2005>
2.02008581161499

$$$$
67
                    3D
 Structure written by MMmdl.
157166  0  0  1  0            999 V2000
  -30.6838  -14.6509   20.4872 C   0  0  0  0  0  0
  -30.4181  -12.4018   19.4668 C   0  0  0  0  0  0
  -29.4994  -12.4956   18.2309 C   0  0  0  0  0  0
  -28.0255  -12.3363   18.6470 C   0  0  0  0  0  0
  -27.6441  -13.2310   19.8570 C   0  0  2  0  0  0
  -28.6910  -13.1477   20.9909 C   0  0  0  0  0  0
  -25.2453  -13.8154   20.5593 C   0  0  0  0  0  0
  -24.1780  -13.0412   20.9205 C   0  0  0  0  0  0
  -24.6397  -11.6902   20.8787 C   0  0  0  0  0  0
  -23.9076  -10.4280   21.0435 C   0  0  0  0  0  0
  -24.3622   -9.4191   21.9207 C   0  0  0  0  0  0
  -23.6292   -8.2230   22.0762 C   0  0  0  0  0  0
  -22.4275   -8.0276   21.3546 C   0  0  0  0  0  0
  -21.9920   -9.0254   20.4652 C   0  0  0  0  0  0
  -22.7254  -10.2132   20.3074 C   0  0  0  0  0  0
  -21.6848   -6.0737   22.5279 C   0  0  0  0  0  0
  -21.4008   -6.5641   23.8213 C   0  0  0  0  0  0
  -21.3655   -5.6793   24.9175 C   0  0  0  0  0  0
  -21.6044   -4.3056   24.7227 C   0  0  0  0  0  0
  -21.8819   -3.8150   23.4350 C   0  0  0  0  0  0
  -21.9191   -4.6966   22.3405 C   0  0  0  0  0  0
  -22.7800  -13.5198   21.1864 C   0  0  0  0  0  0
  -22.1658   -4.2152   21.0983 F   0  0  0  0  0  0
  -21.5632   -3.4541   25.7742 F   0  0  0  0  0  0
  -30.0008  -13.4629   20.4091 N   0  0  0  0  0  0
  -26.2944  -12.9399   20.3327 N   0  0  0  0  0  0
  -25.9343  -11.6544   20.5841 N   0  0  0  0  0  0
  -22.0455  -12.8196   22.0432 N   0  0  0  0  0  0
  -25.4007  -15.1832   20.3734 N   0  0  0  0  0  0
  -31.8666  -14.7088   20.1450 O   0  0  0  0  0  0
  -21.6633   -6.8879   21.4241 O   0  0  0  0  0  0
  -22.3480  -14.5506   20.6716 O   0  0  0  0  0  0
  -24.6288  -31.8596   23.2045 C   0  0  0  0  0  0
  -25.9132  -32.4776   23.8367 C   0  0  1  0  0  0
  -27.2134  -27.3061   20.1121 C   0  0  0  0  0  0
  -25.5936  -33.8576   24.2287 N   0  0  0  0  0  0
  -23.4207  -30.4878   21.5482 C   0  0  2  0  0  0
  -24.8644  -28.9485   20.1106 C   0  0  0  0  0  0
  -22.7483  -29.4630   22.4933 C   0  0  0  0  0  0
  -18.0291  -28.1375   22.8492 C   0  0  0  0  0  0
  -24.1483  -36.7287   23.2641 C   0  0  0  0  0  0
  -25.9659  -30.7878   21.3780 C   0  0  0  0  0  0
  -26.0381  -29.4167   20.7154 C   0  0  0  0  0  0
  -27.2166  -28.6088   20.7055 C   0  0  0  0  0  0
  -26.0119  -26.9016   19.4802 C   0  0  0  0  0  0
  -24.8547  -27.6968   19.4844 C   0  0  0  0  0  0
  -23.6349  -29.8305   20.1613 C   0  0  0  0  0  0
  -25.4107  -36.3079   24.0331 C   0  0  1  0  0  0
  -20.5892  -28.3680   23.1277 C   0  0  2  0  0  0
  -20.6776  -26.9401   22.5404 C   0  0  0  0  0  0
  -19.5751  -26.6374   21.5210 C   0  0  0  0  0  0
  -18.1931  -26.7916   22.1627 C   0  0  0  0  0  0
  -19.1544  -28.8847   23.2879 C   0  0  0  0  0  0
  -18.9467  -30.1456   23.8884 C   0  0  0  0  0  0
  -17.6465  -30.6579   24.0568 C   0  0  0  0  0  0
  -25.9049  -34.9450   23.5106 C   0  0  0  0  0  0
  -16.5359  -29.9074   23.6339 C   0  0  0  0  0  0
  -16.7276  -28.6495   23.0353 C   0  0  0  0  0  0
  -26.4503  -31.6585   25.0743 C   0  0  0  0  0  0
  -25.3726  -31.3727   26.1467 C   0  0  0  0  0  0
  -27.0352  -30.3005   24.6208 C   0  0  0  0  0  0
  -27.6058  -32.4326   25.7508 C   0  0  0  0  0  0
  -27.5577  -37.1798   24.8470 C   0  0  0  0  0  0
  -21.4195  -29.3043   22.3678 N   0  0  0  0  0  0
  -26.4283  -37.3777   23.9420 N   0  0  0  0  0  0
  -24.6910  -31.0609   22.1001 N   0  0  0  0  0  0
  -23.4204  -28.8158   23.3004 O   0  0  0  0  0  0
  -28.3134  -26.4262   20.1664 O   0  0  0  0  0  0
  -26.5615  -34.8920   22.4670 O   0  0  0  0  0  0
  -23.5449  -32.1396   23.7372 O   0  0  0  0  0  0
  -28.4995  -20.3077   21.7148 C   0  0  0  0  0  0
  -30.3000  -19.6532   19.8053 C   0  0  0  0  0  0
  -28.9621  -18.9590   21.6693 C   0  0  0  0  0  0
  -29.8936  -18.5868   20.6643 C   0  0  0  0  0  0
  -28.9698  -21.2940   20.8178 C   0  0  0  0  0  0
  -27.4564  -16.9478   22.3662 C   0  0  0  0  0  0
  -27.1313  -18.0515   23.3399 C   0  0  0  0  0  0
  -28.5044  -17.9752   22.7051 C   0  0  0  0  0  0
  -30.6316  -17.1862   20.5620 C   0  0  0  0  0  0
  -28.0127  -24.9708   20.0642 C   0  0  0  0  0  0
  -29.0737  -23.8104   20.3301 C   0  0  0  0  0  0
  -29.8728  -20.9535   19.8704 N   0  0  0  0  0  0
  -29.9998  -15.8207   20.7305 N   0  0  0  0  0  0
  -28.4585  -22.6061   20.9026 O   0  0  0  0  0  0
  -31.4627  -12.4926   19.1641 H   0  0  0  0  0  0
  -30.3321  -11.4219   19.9392 H   0  0  0  0  0  0
  -29.7664  -11.7289   17.5025 H   0  0  0  0  0  0
  -29.6419  -13.4563   17.7333 H   0  0  0  0  0  0
  -27.8707  -11.2872   18.9023 H   0  0  0  0  0  0
  -27.3679  -12.5421   17.8018 H   0  0  0  0  0  0
  -27.6463  -14.2569   19.4880 H   0  0  0  0  0  0
  -28.7055  -12.1509   21.4339 H   0  0  0  0  0  0
  -28.4441  -13.8378   21.7988 H   0  0  0  0  0  0
  -25.2765   -9.5663   22.4787 H   0  0  0  0  0  0
  -23.9999   -7.4614   22.7475 H   0  0  0  0  0  0
  -21.0855   -8.8779   19.8949 H   0  0  0  0  0  0
  -22.3720  -10.9676   19.6185 H   0  0  0  0  0  0
  -21.1993   -7.6146   23.9720 H   0  0  0  0  0  0
  -21.1474   -6.0521   25.9076 H   0  0  0  0  0  0
  -22.0602   -2.7613   23.2849 H   0  0  0  0  0  0
  -22.4073  -11.9858   22.4820 H   0  0  0  0  0  0
  -21.1081  -13.1229   22.2665 H   0  0  0  0  0  0
  -24.6201  -15.8255   20.4551 H   0  0  0  0  0  0
  -26.2309  -15.6156   19.9911 H   0  0  0  0  0  0
  -26.7203  -32.5439   23.1114 H   0  0  0  0  0  0
  -25.0098  -33.9725   25.0441 H   0  0  0  0  0  0
  -22.7165  -31.3105   21.4088 H   0  0  0  0  0  0
  -23.3748  -35.9617   23.3301 H   0  0  0  0  0  0
  -24.3574  -36.8904   22.2055 H   0  0  0  0  0  0
  -23.7230  -37.6487   23.6660 H   0  0  0  0  0  0
  -26.1027  -31.5545   20.6139 H   0  0  0  0  0  0
  -26.8450  -30.8308   22.0094 H   0  0  0  0  0  0
  -28.1146  -28.9628   21.1922 H   0  0  0  0  0  0
  -25.9189  -25.9506   18.9809 H   0  0  0  0  0  0
  -23.9559  -27.3332   19.0060 H   0  0  0  0  0  0
  -23.7569  -30.6118   19.4103 H   0  0  0  0  0  0
  -22.7534  -29.2648   19.8540 H   0  0  0  0  0  0
  -25.1281  -36.1926   25.0819 H   0  0  0  0  0  0
  -20.9990  -28.3243   24.1395 H   0  0  0  0  0  0
  -20.5678  -26.2285   23.3599 H   0  0  0  0  0  0
  -21.6644  -26.7424   22.1193 H   0  0  0  0  0  0
  -19.6912  -25.6285   21.1241 H   0  0  0  0  0  0
  -19.6685  -27.3190   20.6743 H   0  0  0  0  0  0
  -17.4198  -26.6676   21.4030 H   0  0  0  0  0  0
  -18.0331  -26.0047   22.9009 H   0  0  0  0  0  0
  -19.7945  -30.7291   24.2223 H   0  0  0  0  0  0
  -17.5018  -31.6256   24.5176 H   0  0  0  0  0  0
  -15.5360  -30.2976   23.7665 H   0  0  0  0  0  0
  -15.8674  -28.0822   22.7056 H   0  0  0  0  0  0
  -24.5900  -30.7075   25.7800 H   0  0  0  0  0  0
  -24.8924  -32.2898   26.4891 H   0  0  0  0  0  0
  -25.8044  -30.8907   27.0246 H   0  0  0  0  0  0
  -26.2938  -29.6749   24.1227 H   0  0  0  0  0  0
  -27.4042  -29.7266   25.4720 H   0  0  0  0  0  0
  -27.8806  -30.4289   23.9444 H   0  0  0  0  0  0
  -27.2666  -33.3634   26.2064 H   0  0  0  0  0  0
  -28.3872  -32.6871   25.0333 H   0  0  0  0  0  0
  -28.0718  -31.8464   26.5438 H   0  0  0  0  0  0
  -28.2587  -38.0104   24.7523 H   0  0  0  0  0  0
  -28.1075  -36.2633   24.6274 H   0  0  0  0  0  0
  -27.2304  -37.1422   25.8877 H   0  0  0  0  0  0
  -20.9366  -29.8778   21.6906 H   0  0  0  0  0  0
  -26.0159  -38.2848   24.1428 H   0  0  0  0  0  0
  -27.7901  -20.6077   22.4732 H   0  0  0  0  0  0
  -31.0405  -19.4631   19.0422 H   0  0  0  0  0  0
  -27.0115  -17.0145   21.3778 H   0  0  0  0  0  0
  -27.5623  -15.9449   22.7749 H   0  0  0  0  0  0
  -27.0404  -17.7701   24.3868 H   0  0  0  0  0  0
  -26.4293  -18.8092   22.9985 H   0  0  0  0  0  0
  -29.3323  -17.6656   23.3407 H   0  0  0  0  0  0
  -31.4543  -17.2354   21.2776 H   0  0  0  0  0  0
  -31.1179  -17.1754   19.5845 H   0  0  0  0  0  0
  -27.1884  -24.7843   20.7545 H   0  0  0  0  0  0
  -27.6263  -24.7654   19.0666 H   0  0  0  0  0  0
  -29.8192  -24.1596   21.0443 H   0  0  0  0  0  0
  -29.6083  -23.5814   19.4080 H   0  0  0  0  0  0
  -29.0174  -15.7632   20.9484 H   0  0  0  0  0  0
  1 25  1  0  0  0
  1 30  2  0  0  0
  1 83  1  0  0  0
  2  3  1  0  0  0
  2 25  1  0  0  0
  2 85  1  0  0  0
  2 86  1  0  0  0
  3  4  1  0  0  0
  3 87  1  0  0  0
  3 88  1  0  0  0
  4  5  1  0  0  0
  4 89  1  0  0  0
  4 90  1  0  0  0
  5  6  1  0  0  0
  5 26  1  0  0  0
  5 91  1  0  0  0
  6 25  1  0  0  0
  6 92  1  0  0  0
  6 93  1  0  0  0
  7  8  2  0  0  0
  7 26  1  0  0  0
  7 29  1  0  0  0
  8  9  1  0  0  0
  8 22  1  0  0  0
  9 10  1  0  0  0
  9 27  2  0  0  0
 10 11  2  0  0  0
 10 15  1  0  0  0
 11 12  1  0  0  0
 11 94  1  0  0  0
 12 13  2  0  0  0
 12 95  1  0  0  0
 13 14  1  0  0  0
 13 31  1  0  0  0
 14 15  2  0  0  0
 14 96  1  0  0  0
 15 97  1  0  0  0
 16 17  2  0  0  0
 16 21  1  0  0  0
 16 31  1  0  0  0
 17 18  1  0  0  0
 17 98  1  0  0  0
 18 19  2  0  0  0
 18 99  1  0  0  0
 19 20  1  0  0  0
 19 24  1  0  0  0
 20 21  2  0  0  0
 20100  1  0  0  0
 21 23  1  0  0  0
 22 28  1  0  0  0
 22 32  2  0  0  0
 26 27  1  0  0  0
 28101  1  0  0  0
 28102  1  0  0  0
 29103  1  0  0  0
 29104  1  0  0  0
 33 34  1  0  0  0
 33 66  1  0  0  0
 33 70  2  0  0  0
 34 36  1  0  0  0
 34 59  1  0  0  0
 34105  1  0  0  0
 35 44  2  0  0  0
 35 45  1  0  0  0
 35 68  1  0  0  0
 36 56  1  0  0  0
 36106  1  0  0  0
 37 39  1  0  0  0
 37 47  1  0  0  0
 37 66  1  0  0  0
 37107  1  0  0  0
 38 43  2  0  0  0
 38 46  1  0  0  0
 38 47  1  0  0  0
 39 64  1  0  0  0
 39 67  2  0  0  0
 40 52  1  0  0  0
 40 53  2  0  0  0
 40 58  1  0  0  0
 41108  1  0  0  0
 41109  1  0  0  0
 41110  1  0  0  0
 41 48  1  0  0  0
 42 43  1  0  0  0
 42 66  1  0  0  0
 42111  1  0  0  0
 42112  1  0  0  0
 43 44  1  0  0  0
 44113  1  0  0  0
 45 46  2  0  0  0
 45114  1  0  0  0
 46115  1  0  0  0
 47116  1  0  0  0
 47117  1  0  0  0
 48 56  1  0  0  0
 48 65  1  0  0  0
 48118  1  0  0  0
 49 50  1  0  0  0
 49 53  1  0  0  0
 49 64  1  0  0  0
 49119  1  0  0  0
 50 51  1  0  0  0
 50120  1  0  0  0
 50121  1  0  0  0
 51 52  1  0  0  0
 51122  1  0  0  0
 51123  1  0  0  0
 52124  1  0  0  0
 52125  1  0  0  0
 53 54  1  0  0  0
 54 55  2  0  0  0
 54126  1  0  0  0
 55 57  1  0  0  0
 55127  1  0  0  0
 56 69  2  0  0  0
 57 58  2  0  0  0
 57128  1  0  0  0
 58129  1  0  0  0
 59 60  1  0  0  0
 59 61  1  0  0  0
 59 62  1  0  0  0
 60130  1  0  0  0
 60131  1  0  0  0
 60132  1  0  0  0
 61133  1  0  0  0
 61134  1  0  0  0
 61135  1  0  0  0
 62136  1  0  0  0
 62137  1  0  0  0
 62138  1  0  0  0
 63 65  1  0  0  0
 63139  1  0  0  0
 63140  1  0  0  0
 63141  1  0  0  0
 64142  1  0  0  0
 65143  1  0  0  0
 68 80  1  0  0  0
 71 73  2  0  0  0
 71 75  1  0  0  0
 71144  1  0  0  0
 72 74  2  0  0  0
 72 82  1  0  0  0
 72145  1  0  0  0
 73 74  1  0  0  0
 73 78  1  0  0  0
 74 79  1  0  0  0
 75 82  2  0  0  0
 75 84  1  0  0  0
 76 77  1  0  0  0
 76 78  1  0  0  0
 76146  1  0  0  0
 76147  1  0  0  0
 77 78  1  0  0  0
 77148  1  0  0  0
 77149  1  0  0  0
 78150  1  0  0  0
 79 83  1  0  0  0
 79151  1  0  0  0
 79152  1  0  0  0
 80 81  1  0  0  0
 80153  1  0  0  0
 80154  1  0  0  0
 81 84  1  0  0  0
 81155  1  0  0  0
 81156  1  0  0  0
 83157  1  0  0  0
M  ISO  4   1 100  68 101  80 101  83 100
M  END
> <chiral flag>
0

> <version>
0

> <s_m_source_file>
/data/baiqing/PycharmProjects/Reinvent-master-3.2/result/LINK_invent/BTK/process_docking_weight1_custom_sum_contain_oxygen_bond_distance_aromatic_linkinvent_7_9_3/rearranged_h_0145.sdf

> <i_m_source_file_index>
67

> <r_mmod_Potential_Energy-OPLS-2005>
-74.8661346435547

> <r_mmod_Stretch_Energy-OPLS-2005>
84.8569717407227

> <r_mmod_Bend_Energy-OPLS-2005>
169.993209838867

> <r_mmod_Torsional_Energy-OPLS-2005>
227.018676757812

> <r_mmod_Improper_Torsional_Energy-OPLS-2005>
6.0457615852356

> <r_mmod_Van_der_Waal_Energy-OPLS-2005>
147.824432373047

> <r_mmod_Electrostatic_Energy-OPLS-2005>
-555.190795898438

> <r_mmod_Solvation_Energy-OPLS-2005>
-213.68000793457

> <b_mmod_Minimization_Converged-OPLS-2005>
0

> <r_mmod_RMS_Derivative-OPLS-2005>
0.864815771579742

$$$$
68
                    3D
 Structure written by MMmdl.
192203  0  0  1  0            999 V2000
  -30.6969  -14.5350   20.5461 C   0  0  0  0  0  0
  -30.4220  -12.3370   19.4516 C   0  0  0  0  0  0
  -29.5025  -12.4932   18.2227 C   0  0  0  0  0  0
  -28.0262  -12.3315   18.6314 C   0  0  0  0  0  0
  -27.6541  -13.1951   19.8640 C   0  0  2  0  0  0
  -28.6941  -13.0564   21.0008 C   0  0  0  0  0  0
  -25.2542  -13.8074   20.5716 C   0  0  0  0  0  0
  -24.1800  -13.0358   20.9202 C   0  0  0  0  0  0
  -24.6366  -11.6843   20.8741 C   0  0  0  0  0  0
  -23.9041  -10.4238   21.0406 C   0  0  0  0  0  0
  -24.3609   -9.4169   21.9191 C   0  0  0  0  0  0
  -23.6284   -8.2214   22.0754 C   0  0  0  0  0  0
  -22.4270   -8.0265   21.3537 C   0  0  0  0  0  0
  -21.9899   -9.0231   20.4638 C   0  0  0  0  0  0
  -22.7218  -10.2106   20.3047 C   0  0  0  0  0  0
  -21.6846   -6.0734   22.5282 C   0  0  0  0  0  0
  -21.4005   -6.5634   23.8212 C   0  0  0  0  0  0
  -21.3660   -5.6788   24.9176 C   0  0  0  0  0  0
  -21.6043   -4.3059   24.7227 C   0  0  0  0  0  0
  -21.8816   -3.8141   23.4344 C   0  0  0  0  0  0
  -21.9188   -4.6956   22.3404 C   0  0  0  0  0  0
  -22.7837  -13.5190   21.1860 C   0  0  0  0  0  0
  -22.1664   -4.2143   21.0983 F   0  0  0  0  0  0
  -21.5639   -3.4537   25.7740 F   0  0  0  0  0  0
  -30.0241  -13.3536   20.4450 N   0  0  0  0  0  0
  -26.2970  -12.9249   20.3319 N   0  0  0  0  0  0
  -25.9285  -11.6417   20.5749 N   0  0  0  0  0  0
  -22.0468  -12.8197   22.0419 N   0  0  0  0  0  0
  -25.4129  -15.1785   20.4209 N   0  0  0  0  0  0
  -31.8433  -14.6653   20.1115 O   0  0  0  0  0  0
  -21.6627   -6.8866   21.4237 O   0  0  0  0  0  0
  -22.3526  -14.5489   20.6691 O   0  0  0  0  0  0
  -24.6146  -31.8663   23.2115 C   0  0  0  0  0  0
  -25.9035  -32.4804   23.8406 C   0  0  1  0  0  0
  -27.2422  -27.4340   20.1135 C   0  0  0  0  0  0
  -25.5867  -33.8597   24.2314 N   0  0  0  0  0  0
  -23.4046  -30.4911   21.5500 C   0  0  2  0  0  0
  -24.8544  -28.9502   20.1274 C   0  0  0  0  0  0
  -22.7418  -29.4623   22.4950 C   0  0  0  0  0  0
  -18.0271  -28.1371   22.8467 C   0  0  0  0  0  0
  -24.1498  -36.7331   23.2641 C   0  0  0  0  0  0
  -25.9324  -30.8346   21.3648 C   0  0  0  0  0  0
  -26.0120  -29.4626   20.7260 C   0  0  0  0  0  0
  -27.2096  -28.7126   20.7186 C   0  0  0  0  0  0
  -26.0727  -26.9399   19.4999 C   0  0  0  0  0  0
  -24.8760  -27.6839   19.5153 C   0  0  0  0  0  0
  -23.6197  -29.8199   20.1660 C   0  0  0  0  0  0
  -25.4108  -36.3093   24.0328 C   0  0  1  0  0  0
  -20.5872  -28.3639   23.1292 C   0  0  2  0  0  0
  -20.6773  -26.9365   22.5399 C   0  0  0  0  0  0
  -19.5750  -26.6359   21.5195 C   0  0  0  0  0  0
  -18.1913  -26.7908   22.1591 C   0  0  0  0  0  0
  -19.1524  -28.8809   23.2870 C   0  0  0  0  0  0
  -18.9454  -30.1431   23.8870 C   0  0  0  0  0  0
  -17.6461  -30.6566   24.0566 C   0  0  0  0  0  0
  -25.9027  -34.9445   23.5117 C   0  0  0  0  0  0
  -16.5353  -29.9084   23.6313 C   0  0  0  0  0  0
  -16.7259  -28.6504   23.0300 C   0  0  0  0  0  0
  -26.4473  -31.6618   25.0744 C   0  0  0  0  0  0
  -25.3738  -31.3728   26.1510 C   0  0  0  0  0  0
  -27.0326  -30.3075   24.6118 C   0  0  0  0  0  0
  -27.6023  -32.4395   25.7481 C   0  0  0  0  0  0
  -27.5585  -37.1811   24.8450 C   0  0  0  0  0  0
  -21.4148  -29.3012   22.3723 N   0  0  0  0  0  0
  -26.4299  -37.3780   23.9385 N   0  0  0  0  0  0
  -24.6689  -31.0779   22.1007 N   0  0  0  0  0  0
  -23.4183  -28.8121   23.2975 O   0  0  0  0  0  0
  -28.4260  -26.7482   19.9771 O   0  0  0  0  0  0
  -26.5603  -34.8880   22.4685 O   0  0  0  0  0  0
  -23.5350  -32.1397   23.7517 O   0  0  0  0  0  0
  -27.4604  -17.0215   17.1070 C   0  0  0  0  0  0
  -28.9346  -17.3552   16.8581 C   0  0  0  0  0  0
  -26.9854  -17.7177   18.3853 C   0  0  0  0  0  0
  -29.8045  -16.9251   18.0497 C   0  0  0  0  0  0
  -27.8485  -17.3116   19.5891 C   0  0  0  0  0  0
  -32.5500  -22.4101   23.0391 C   0  0  0  0  0  0
  -32.5623  -20.9055   23.1920 C   0  0  0  0  0  0
  -30.2349  -23.5278   20.3943 C   0  0  0  0  0  0
  -28.0983  -23.2613   21.6898 C   0  0  0  0  0  0
  -30.0407  -25.0562   20.2367 C   0  0  0  0  0  0
  -27.6554  -24.4988   20.8544 C   0  0  0  0  0  0
  -28.0522  -19.9805   22.0616 C   0  0  0  0  0  0
  -28.5603  -18.7202   22.7638 C   0  0  0  0  0  0
  -31.6761  -21.5519   22.1494 C   0  0  0  0  0  0
  -29.6339  -23.0179   21.7232 C   0  0  1  0  0  0
  -29.3608  -17.5659   19.3928 C   0  0  0  0  0  0
  -28.7171  -25.6160   20.8109 C   0  0  2  0  0  0
  -29.4955  -20.3274   21.6640 C   0  0  1  0  0  0
  -31.4944  -17.2349   22.8281 C   0  0  0  0  0  0
  -30.1504  -21.6163   22.2528 C   0  0  1  0  0  0
  -30.2611  -17.0485   20.5690 C   0  0  1  0  0  0
  -30.7832  -18.0253   21.7154 C   0  0  1  0  0  0
  -29.9777  -15.6198   20.9372 N   0  0  0  0  0  0
  -29.9074  -19.0727   22.3543 N   0  3  2  0  0  0
  -31.4683  -12.4242   19.1560 H   0  0  0  0  0  0
  -30.3199  -11.3386   19.8810 H   0  0  0  0  0  0
  -29.7611  -11.7552   17.4622 H   0  0  0  0  0  0
  -29.6557  -13.4707   17.7650 H   0  0  0  0  0  0
  -27.8559  -11.2771   18.8559 H   0  0  0  0  0  0
  -27.3736  -12.5731   17.7910 H   0  0  0  0  0  0
  -27.6773  -14.2158   19.5055 H   0  0  0  0  0  0
  -28.6828  -12.0436   21.4055 H   0  0  0  0  0  0
  -28.4452  -13.7134   21.8367 H   0  0  0  0  0  0
  -25.2749   -9.5661   22.4768 H   0  0  0  0  0  0
  -23.9987   -7.4603   22.7482 H   0  0  0  0  0  0
  -21.0831   -8.8740   19.8959 H   0  0  0  0  0  0
  -22.3669  -10.9652   19.6165 H   0  0  0  0  0  0
  -21.1988   -7.6136   23.9709 H   0  0  0  0  0  0
  -21.1500   -6.0525   25.9080 H   0  0  0  0  0  0
  -22.0596   -2.7604   23.2844 H   0  0  0  0  0  0
  -22.4078  -11.9838   22.4777 H   0  0  0  0  0  0
  -21.1083  -13.1225   22.2615 H   0  0  0  0  0  0
  -24.6355  -15.8177   20.5350 H   0  0  0  0  0  0
  -26.2351  -15.6235   20.0392 H   0  0  0  0  0  0
  -26.7113  -32.5522   23.1178 H   0  0  0  0  0  0
  -24.9948  -33.9762   25.0422 H   0  0  0  0  0  0
  -22.6943  -31.3065   21.4063 H   0  0  0  0  0  0
  -23.3730  -35.9706   23.3314 H   0  0  0  0  0  0
  -24.3612  -36.8962   22.2070 H   0  0  0  0  0  0
  -23.7303  -37.6539   23.6684 H   0  0  0  0  0  0
  -26.0456  -31.5998   20.5955 H   0  0  0  0  0  0
  -26.8208  -30.8919   21.9815 H   0  0  0  0  0  0
  -28.1137  -29.1167   21.1544 H   0  0  0  0  0  0
  -26.0939  -25.9854   18.9940 H   0  0  0  0  0  0
  -23.9894  -27.2884   19.0389 H   0  0  0  0  0  0
  -23.7376  -30.5954   19.4086 H   0  0  0  0  0  0
  -22.7468  -29.2433   19.8569 H   0  0  0  0  0  0
  -25.1298  -36.1976   25.0838 H   0  0  0  0  0  0
  -20.9951  -28.3232   24.1419 H   0  0  0  0  0  0
  -20.5690  -26.2235   23.3600 H   0  0  0  0  0  0
  -21.6641  -26.7416   22.1173 H   0  0  0  0  0  0
  -19.6922  -25.6272   21.1219 H   0  0  0  0  0  0
  -19.6717  -27.3162   20.6736 H   0  0  0  0  0  0
  -17.4189  -26.6639   21.3990 H   0  0  0  0  0  0
  -18.0328  -26.0054   22.8992 H   0  0  0  0  0  0
  -19.7937  -30.7229   24.2236 H   0  0  0  0  0  0
  -17.5023  -31.6258   24.5162 H   0  0  0  0  0  0
  -15.5345  -30.2975   23.7673 H   0  0  0  0  0  0
  -15.8648  -28.0859   22.6986 H   0  0  0  0  0  0
  -24.5873  -30.7130   25.7844 H   0  0  0  0  0  0
  -24.8961  -32.2903   26.4942 H   0  0  0  0  0  0
  -25.8084  -30.8894   27.0272 H   0  0  0  0  0  0
  -26.2873  -29.6808   24.1207 H   0  0  0  0  0  0
  -27.4162  -29.7366   25.4572 H   0  0  0  0  0  0
  -27.8679  -30.4395   23.9244 H   0  0  0  0  0  0
  -27.2601  -33.3678   26.2074 H   0  0  0  0  0  0
  -28.3798  -32.6996   25.0293 H   0  0  0  0  0  0
  -28.0736  -31.8540   26.5387 H   0  0  0  0  0  0
  -28.2558  -38.0144   24.7473 H   0  0  0  0  0  0
  -28.1122  -36.2651   24.6298 H   0  0  0  0  0  0
  -27.2292  -37.1472   25.8853 H   0  0  0  0  0  0
  -20.9320  -29.8807   21.6998 H   0  0  0  0  0  0
  -26.0187  -38.2852   24.1423 H   0  0  0  0  0  0
  -27.3301  -15.9418   17.1959 H   0  0  0  0  0  0
  -26.8494  -17.3367   16.2605 H   0  0  0  0  0  0
  -29.0460  -18.4291   16.6900 H   0  0  0  0  0  0
  -29.2801  -16.8587   15.9507 H   0  0  0  0  0  0
  -25.9406  -17.4666   18.5735 H   0  0  0  0  0  0
  -27.0228  -18.8005   18.2560 H   0  0  0  0  0  0
  -30.8378  -17.1994   17.8310 H   0  0  0  0  0  0
  -29.7838  -15.8374   18.1242 H   0  0  0  0  0  0
  -27.6986  -16.2606   19.7814 H   0  0  0  0  0  0
  -27.4468  -17.8187   20.4544 H   0  0  0  0  0  0
  -33.4104  -22.8901   22.5769 H   0  0  0  0  0  0
  -32.0799  -22.9797   23.8385 H   0  0  0  0  0  0
  -32.1147  -20.5016   24.0982 H   0  0  0  0  0  0
  -33.4469  -20.3804   22.8383 H   0  0  0  0  0  0
  -31.3013  -23.3304   20.3100 H   0  0  0  0  0  0
  -29.7562  -23.0087   19.5607 H   0  0  0  0  0  0
  -27.5768  -22.4089   21.2598 H   0  0  0  0  0  0
  -27.7298  -23.3635   22.7112 H   0  0  0  0  0  0
  -30.1125  -25.2938   19.1734 H   0  0  0  0  0  0
  -30.8634  -25.5887   20.7150 H   0  0  0  0  0  0
  -26.7109  -24.8750   21.2498 H   0  0  0  0  0  0
  -27.4560  -24.1839   19.8312 H   0  0  0  0  0  0
  -27.6002  -20.6745   22.7719 H   0  0  0  0  0  0
  -27.3983  -19.8163   21.2078 H   0  0  0  0  0  0
  -28.2072  -17.7623   22.3938 H   0  0  0  0  0  0
  -28.4604  -18.7659   23.8493 H   0  0  0  0  0  0
  -32.0260  -21.4134   21.1265 H   0  0  0  0  0  0
  -30.0083  -23.7231   22.4682 H   0  0  0  0  0  0
  -29.5132  -18.6342   19.2659 H   0  0  0  0  0  0
  -28.8821  -25.9721   21.8283 H   0  0  0  0  0  0
  -29.6291  -20.2669   20.5879 H   0  0  0  0  0  0
  -32.2211  -16.5354   22.4156 H   0  0  0  0  0  0
  -30.7844  -16.6608   23.4256 H   0  0  0  0  0  0
  -32.0408  -17.8959   23.4999 H   0  0  0  0  0  0
  -29.9121  -21.6259   23.3184 H   0  0  0  0  0  0
  -31.2163  -16.9710   20.0489 H   0  0  0  0  0  0
  -31.5710  -18.6253   21.2541 H   0  0  0  0  0  0
  -29.0603  -15.4170   21.3037 H   0  0  0  0  0  0
  -30.3903  -19.3519   23.1955 H   0  0  0  0  0  0
  1 25  1  0  0  0
  1 30  2  0  0  0
  1 93  1  0  0  0
  2  3  1  0  0  0
  2 25  1  0  0  0
  2 95  1  0  0  0
  2 96  1  0  0  0
  3  4  1  0  0  0
  3 97  1  0  0  0
  3 98  1  0  0  0
  4  5  1  0  0  0
  4 99  1  0  0  0
  4100  1  0  0  0
  5  6  1  0  0  0
  5 26  1  0  0  0
  5101  1  0  0  0
  6 25  1  0  0  0
  6102  1  0  0  0
  6103  1  0  0  0
  7  8  2  0  0  0
  7 26  1  0  0  0
  7 29  1  0  0  0
  8  9  1  0  0  0
  8 22  1  0  0  0
  9 10  1  0  0  0
  9 27  2  0  0  0
 10 11  2  0  0  0
 10 15  1  0  0  0
 11 12  1  0  0  0
 11104  1  0  0  0
 12 13  2  0  0  0
 12105  1  0  0  0
 13 14  1  0  0  0
 13 31  1  0  0  0
 14 15  2  0  0  0
 14106  1  0  0  0
 15107  1  0  0  0
 16 17  2  0  0  0
 16 21  1  0  0  0
 16 31  1  0  0  0
 17 18  1  0  0  0
 17108  1  0  0  0
 18 19  2  0  0  0
 18109  1  0  0  0
 19 20  1  0  0  0
 19 24  1  0  0  0
 20 21  2  0  0  0
 20110  1  0  0  0
 21 23  1  0  0  0
 22 28  1  0  0  0
 22 32  2  0  0  0
 26 27  1  0  0  0
 28111  1  0  0  0
 28112  1  0  0  0
 29113  1  0  0  0
 29114  1  0  0  0
 33 34  1  0  0  0
 33 66  1  0  0  0
 33 70  2  0  0  0
 34 36  1  0  0  0
 34 59  1  0  0  0
 34115  1  0  0  0
 35 44  2  0  0  0
 35 45  1  0  0  0
 35 68  1  0  0  0
 36 56  1  0  0  0
 36116  1  0  0  0
 37 39  1  0  0  0
 37 47  1  0  0  0
 37 66  1  0  0  0
 37117  1  0  0  0
 38 43  2  0  0  0
 38 46  1  0  0  0
 38 47  1  0  0  0
 39 64  1  0  0  0
 39 67  2  0  0  0
 40 52  1  0  0  0
 40 53  2  0  0  0
 40 58  1  0  0  0
 41118  1  0  0  0
 41119  1  0  0  0
 41120  1  0  0  0
 41 48  1  0  0  0
 42 43  1  0  0  0
 42 66  1  0  0  0
 42121  1  0  0  0
 42122  1  0  0  0
 43 44  1  0  0  0
 44123  1  0  0  0
 45 46  2  0  0  0
 45124  1  0  0  0
 46125  1  0  0  0
 47126  1  0  0  0
 47127  1  0  0  0
 48 56  1  0  0  0
 48 65  1  0  0  0
 48128  1  0  0  0
 49 50  1  0  0  0
 49 53  1  0  0  0
 49 64  1  0  0  0
 49129  1  0  0  0
 50 51  1  0  0  0
 50130  1  0  0  0
 50131  1  0  0  0
 51 52  1  0  0  0
 51132  1  0  0  0
 51133  1  0  0  0
 52134  1  0  0  0
 52135  1  0  0  0
 53 54  1  0  0  0
 54 55  2  0  0  0
 54136  1  0  0  0
 55 57  1  0  0  0
 55137  1  0  0  0
 56 69  2  0  0  0
 57 58  2  0  0  0
 57138  1  0  0  0
 58139  1  0  0  0
 59 60  1  0  0  0
 59 61  1  0  0  0
 59 62  1  0  0  0
 60140  1  0  0  0
 60141  1  0  0  0
 60142  1  0  0  0
 61143  1  0  0  0
 61144  1  0  0  0
 61145  1  0  0  0
 62146  1  0  0  0
 62147  1  0  0  0
 62148  1  0  0  0
 63 65  1  0  0  0
 63149  1  0  0  0
 63150  1  0  0  0
 63151  1  0  0  0
 64152  1  0  0  0
 65153  1  0  0  0
 68 87  1  0  0  0
 71 72  1  0  0  0
 71 73  1  0  0  0
 71154  1  0  0  0
 71155  1  0  0  0
 72 74  1  0  0  0
 72156  1  0  0  0
 72157  1  0  0  0
 73 75  1  0  0  0
 73158  1  0  0  0
 73159  1  0  0  0
 74160  1  0  0  0
 74161  1  0  0  0
 74 86  1  0  0  0
 75 86  1  0  0  0
 75162  1  0  0  0
 75163  1  0  0  0
 76 77  1  0  0  0
 76164  1  0  0  0
 76165  1  0  0  0
 76 84  1  0  0  0
 77 84  1  0  0  0
 77166  1  0  0  0
 77167  1  0  0  0
 78 80  1  0  0  0
 78168  1  0  0  0
 78169  1  0  0  0
 78 85  1  0  0  0
 79 81  1  0  0  0
 79 85  1  0  0  0
 79170  1  0  0  0
 79171  1  0  0  0
 80 87  1  0  0  0
 80172  1  0  0  0
 80173  1  0  0  0
 81 87  1  0  0  0
 81174  1  0  0  0
 81175  1  0  0  0
 82 83  1  0  0  0
 82176  1  0  0  0
 82177  1  0  0  0
 82 88  1  0  0  0
 83178  1  0  0  0
 83179  1  0  0  0
 83 94  1  0  0  0
 84180  1  0  0  0
 84 90  1  0  0  0
 85 90  1  0  0  0
 85181  1  0  0  0
 86 91  1  0  0  0
 86182  1  0  0  0
 87183  1  0  0  0
 88 90  1  0  0  0
 88 94  1  0  0  0
 88184  1  0  0  0
 89185  1  0  0  0
 89186  1  0  0  0
 89187  1  0  0  0
 89 92  1  0  0  0
 90188  1  0  0  0
 91 92  1  0  0  0
 91 93  1  0  0  0
 91189  1  0  0  0
 92 94  1  0  0  0
 92190  1  0  0  0
 93191  1  0  0  0
 94192  1  0  0  0
M  CHG  1  94   1
M  ISO  4   1 100  68 101  87 101  93 100
M  END
> <chiral flag>
0

> <version>
0

> <s_m_source_file>
/data/baiqing/PycharmProjects/Reinvent-master-3.2/result/LINK_invent/BTK/process_docking_weight1_custom_sum_contain_oxygen_bond_distance_aromatic_linkinvent_7_9_3/rearranged_h_0145.sdf

> <i_m_source_file_index>
68

> <r_mmod_Potential_Energy-OPLS-2005>
187.352554321289

> <r_mmod_Stretch_Energy-OPLS-2005>
57.137336730957

> <r_mmod_Bend_Energy-OPLS-2005>
204.286880493164

> <r_mmod_Torsional_Energy-OPLS-2005>
468.47119140625

> <r_mmod_Improper_Torsional_Energy-OPLS-2005>
6.37188625335693

> <r_mmod_Van_der_Waal_Energy-OPLS-2005>
126.486061096191

> <r_mmod_Electrostatic_Energy-OPLS-2005>
-279.665710449219

> <r_mmod_Solvation_Energy-OPLS-2005>
-413.704650878906

> <b_mmod_Minimization_Converged-OPLS-2005>
0

> <r_mmod_RMS_Derivative-OPLS-2005>
4.12835550308228

$$$$
69
                    3D
 Structure written by MMmdl.
171180  0  0  1  0            999 V2000
  -30.8036  -14.3518   20.7314 C   0  0  0  0  0  0
  -30.4189  -12.3111   19.3883 C   0  0  0  0  0  0
  -29.4859  -12.5118   18.1834 C   0  0  0  0  0  0
  -28.0138  -12.3576   18.6043 C   0  0  0  0  0  0
  -27.6634  -13.2018   19.8580 C   0  0  2  0  0  0
  -28.6996  -12.9757   20.9798 C   0  0  0  0  0  0
  -25.2606  -13.8144   20.5628 C   0  0  0  0  0  0
  -24.1861  -13.0431   20.9141 C   0  0  0  0  0  0
  -24.6410  -11.6897   20.8702 C   0  0  0  0  0  0
  -23.9074  -10.4295   21.0390 C   0  0  0  0  0  0
  -24.3629   -9.4205   21.9170 C   0  0  0  0  0  0
  -23.6295   -8.2240   22.0742 C   0  0  0  0  0  0
  -22.4270   -8.0289   21.3533 C   0  0  0  0  0  0
  -21.9926   -9.0262   20.4627 C   0  0  0  0  0  0
  -22.7257  -10.2132   20.3035 C   0  0  0  0  0  0
  -21.6850   -6.0746   22.5282 C   0  0  0  0  0  0
  -21.4002   -6.5641   23.8221 C   0  0  0  0  0  0
  -21.3651   -5.6785   24.9174 C   0  0  0  0  0  0
  -21.6053   -4.3055   24.7221 C   0  0  0  0  0  0
  -21.8814   -3.8153   23.4340 C   0  0  0  0  0  0
  -21.9190   -4.6972   22.3399 C   0  0  0  0  0  0
  -22.7888  -13.5233   21.1821 C   0  0  0  0  0  0
  -22.1660   -4.2165   21.0975 F   0  0  0  0  0  0
  -21.5633   -3.4539   25.7731 F   0  0  0  0  0  0
  -30.0451  -13.2592   20.4483 N   0  0  0  0  0  0
  -26.3034  -12.9311   20.3259 N   0  0  0  0  0  0
  -25.9319  -11.6479   20.5683 N   0  0  0  0  0  0
  -22.0526  -12.8229   22.0374 N   0  0  0  0  0  0
  -25.4367  -15.1865   20.4028 N   0  0  0  0  0  0
  -31.7938  -14.6770   20.0745 O   0  0  0  0  0  0
  -21.6624   -6.8892   21.4240 O   0  0  0  0  0  0
  -22.3570  -14.5546   20.6674 O   0  0  0  0  0  0
  -24.6141  -31.8711   23.2100 C   0  0  0  0  0  0
  -25.9042  -32.4834   23.8423 C   0  0  1  0  0  0
  -27.2267  -27.4559   20.0753 C   0  0  0  0  0  0
  -25.5878  -33.8647   24.2301 N   0  0  0  0  0  0
  -23.4000  -30.4966   21.5530 C   0  0  2  0  0  0
  -24.8425  -28.9657   20.1110 C   0  0  0  0  0  0
  -22.7425  -29.4708   22.5039 C   0  0  0  0  0  0
  -18.0241  -28.1446   22.8427 C   0  0  0  0  0  0
  -24.1493  -36.7326   23.2621 C   0  0  0  0  0  0
  -25.9320  -30.8322   21.3733 C   0  0  0  0  0  0
  -26.0020  -29.4748   20.7094 C   0  0  0  0  0  0
  -27.1997  -28.7294   20.6790 C   0  0  0  0  0  0
  -26.0550  -26.9619   19.4564 C   0  0  0  0  0  0
  -24.8644  -27.7110   19.4759 C   0  0  0  0  0  0
  -23.6034  -29.8268   20.1688 C   0  0  0  0  0  0
  -25.4117  -36.3115   24.0307 C   0  0  1  0  0  0
  -20.5835  -28.3718   23.1296 C   0  0  2  0  0  0
  -20.6765  -26.9480   22.5384 C   0  0  0  0  0  0
  -19.5730  -26.6444   21.5193 C   0  0  0  0  0  0
  -18.1896  -26.7992   22.1605 C   0  0  0  0  0  0
  -19.1490  -28.8896   23.2835 C   0  0  0  0  0  0
  -18.9463  -30.1496   23.8867 C   0  0  0  0  0  0
  -17.6469  -30.6622   24.0610 C   0  0  0  0  0  0
  -25.9053  -34.9492   23.5107 C   0  0  0  0  0  0
  -16.5350  -29.9125   23.6377 C   0  0  0  0  0  0
  -16.7237  -28.6578   23.0307 C   0  0  0  0  0  0
  -26.4434  -31.6668   25.0795 C   0  0  0  0  0  0
  -25.3634  -31.3858   26.1513 C   0  0  0  0  0  0
  -27.0290  -30.3086   24.6281 C   0  0  0  0  0  0
  -27.6001  -32.4450   25.7530 C   0  0  0  0  0  0
  -27.5578  -37.1789   24.8436 C   0  0  0  0  0  0
  -21.4155  -29.3091   22.3764 N   0  0  0  0  0  0
  -26.4299  -37.3795   23.9379 N   0  0  0  0  0  0
  -24.6674  -31.0806   22.1016 N   0  0  0  0  0  0
  -23.4222  -28.8280   23.3093 O   0  0  0  0  0  0
  -28.4008  -26.7362   20.1086 O   0  0  0  0  0  0
  -26.5673  -34.8944   22.4708 O   0  0  0  0  0  0
  -23.5311  -32.1481   23.7452 O   0  0  0  0  0  0
  -27.4145  -20.1602   22.6794 C   0  0  0  0  0  0
  -26.8680  -21.3019   22.0652 C   0  0  0  0  0  0
  -29.0084  -22.4347   22.2708 C   0  0  0  0  0  0
  -28.7540  -20.1533   23.1244 C   0  0  0  0  0  0
  -27.6443  -22.4650   21.8933 C   0  0  0  0  0  0
  -29.5713  -21.2869   22.8879 C   0  0  0  0  0  0
  -28.4236  -18.1854   24.9125 C   0  0  0  0  0  0
  -29.2878  -18.9585   23.9197 C   0  0  1  0  0  0
  -29.6446  -17.5710   23.3567 C   0  0  1  0  0  0
  -31.4264  -18.0172   21.5880 C   0  0  0  0  0  0
  -31.7173  -22.3633   23.1348 C   0  0  0  0  0  0
  -31.4111  -15.7490   22.7195 C   0  0  0  0  0  0
  -28.3068  -25.3098   20.2331 C   0  0  0  0  0  0
  -27.5945  -24.8639   21.5329 C   0  0  0  0  0  0
  -31.0817  -17.2574   22.8784 C   0  0  2  0  0  0
  -30.4871  -14.9691   21.8831 N   0  0  0  0  0  0
  -29.3488  -17.0730   24.7147 N   0  3  0  0  0  0
  -30.8904  -21.2180   23.2911 O   0  0  0  0  0  0
  -27.0070  -23.5714   21.3723 O   0  0  0  0  0  0
  -31.4593  -12.4161   19.0791 H   0  0  0  0  0  0
  -30.3317  -11.2905   19.7670 H   0  0  0  0  0  0
  -29.7252  -11.7884   17.4020 H   0  0  0  0  0  0
  -29.6467  -13.4982   17.7463 H   0  0  0  0  0  0
  -27.8374  -11.2996   18.8112 H   0  0  0  0  0  0
  -27.3561  -12.6158   17.7728 H   0  0  0  0  0  0
  -27.7127  -14.2511   19.5591 H   0  0  0  0  0  0
  -28.6603  -11.9385   21.3176 H   0  0  0  0  0  0
  -28.4310  -13.5785   21.8469 H   0  0  0  0  0  0
  -25.2795   -9.5654   22.4736 H   0  0  0  0  0  0
  -24.0005   -7.4618   22.7458 H   0  0  0  0  0  0
  -21.0872   -8.8785   19.8921 H   0  0  0  0  0  0
  -22.3757  -10.9660   19.6125 H   0  0  0  0  0  0
  -21.1978   -7.6151   23.9722 H   0  0  0  0  0  0
  -21.1479   -6.0518   25.9080 H   0  0  0  0  0  0
  -22.0601   -2.7621   23.2833 H   0  0  0  0  0  0
  -22.4153  -11.9908   22.4801 H   0  0  0  0  0  0
  -21.1093  -13.1184   22.2474 H   0  0  0  0  0  0
  -24.6709  -15.8452   20.4974 H   0  0  0  0  0  0
  -26.2913  -15.6162   20.0728 H   0  0  0  0  0  0
  -26.7115  -32.5536   23.1194 H   0  0  0  0  0  0
  -24.9964  -33.9863   25.0395 H   0  0  0  0  0  0
  -22.6816  -31.3085   21.4129 H   0  0  0  0  0  0
  -23.3768  -35.9654   23.3291 H   0  0  0  0  0  0
  -24.3534  -36.8962   22.2021 H   0  0  0  0  0  0
  -23.7272  -37.6511   23.6701 H   0  0  0  0  0  0
  -26.0673  -31.6088   20.6197 H   0  0  0  0  0  0
  -26.8124  -30.8644   22.0049 H   0  0  0  0  0  0
  -28.1015  -29.1199   21.1295 H   0  0  0  0  0  0
  -26.0485  -26.0161   18.9352 H   0  0  0  0  0  0
  -23.9811  -27.3313   18.9791 H   0  0  0  0  0  0
  -23.6919  -30.6023   19.4071 H   0  0  0  0  0  0
  -22.7299  -29.2366   19.8854 H   0  0  0  0  0  0
  -25.1302  -36.1961   25.0799 H   0  0  0  0  0  0
  -20.9837  -28.3335   24.1446 H   0  0  0  0  0  0
  -20.5681  -26.2388   23.3583 H   0  0  0  0  0  0
  -21.6641  -26.7571   22.1158 H   0  0  0  0  0  0
  -19.6934  -25.6349   21.1207 H   0  0  0  0  0  0
  -19.6653  -27.3276   20.6725 H   0  0  0  0  0  0
  -17.4157  -26.6672   21.4013 H   0  0  0  0  0  0
  -18.0325  -26.0160   22.9040 H   0  0  0  0  0  0
  -19.7958  -30.7299   24.2209 H   0  0  0  0  0  0
  -17.5046  -31.6272   24.5279 H   0  0  0  0  0  0
  -15.5351  -30.3020   23.7748 H   0  0  0  0  0  0
  -15.8641  -28.0936   22.6965 H   0  0  0  0  0  0
  -24.5693  -30.7369   25.7800 H   0  0  0  0  0  0
  -24.8954  -32.3057   26.5040 H   0  0  0  0  0  0
  -25.7859  -30.8881   27.0253 H   0  0  0  0  0  0
  -26.2913  -29.6858   24.1192 H   0  0  0  0  0  0
  -27.3821  -29.7341   25.4852 H   0  0  0  0  0  0
  -27.8872  -30.4332   23.9671 H   0  0  0  0  0  0
  -27.2612  -33.3784   26.2073 H   0  0  0  0  0  0
  -28.3803  -32.6987   25.0337 H   0  0  0  0  0  0
  -28.0719  -31.8627   26.5442 H   0  0  0  0  0  0
  -28.2575  -38.0094   24.7531 H   0  0  0  0  0  0
  -28.1108  -36.2639   24.6263 H   0  0  0  0  0  0
  -27.2296  -37.1416   25.8830 H   0  0  0  0  0  0
  -20.9388  -29.8798   21.6935 H   0  0  0  0  0  0
  -26.0197  -38.2888   24.1377 H   0  0  0  0  0  0
  -26.7762  -19.3028   22.8334 H   0  0  0  0  0  0
  -25.8324  -21.2956   21.7563 H   0  0  0  0  0  0
  -29.6211  -23.3038   22.0862 H   0  0  0  0  0  0
  -27.4206  -17.9467   24.5578 H   0  0  0  0  0  0
  -28.4023  -18.6024   25.9199 H   0  0  0  0  0  0
  -30.1434  -19.3336   24.4876 H   0  0  0  0  0  0
  -28.8794  -17.2253   22.6605 H   0  0  0  0  0  0
  -31.3126  -19.0928   21.7184 H   0  0  0  0  0  0
  -30.7923  -17.7132   20.7568 H   0  0  0  0  0  0
  -32.4623  -17.8414   21.2977 H   0  0  0  0  0  0
  -32.7086  -22.1449   23.5298 H   0  0  0  0  0  0
  -31.3272  -23.2197   23.6883 H   0  0  0  0  0  0
  -31.8424  -22.6292   22.0857 H   0  0  0  0  0  0
  -31.4155  -15.2807   23.7046 H   0  0  0  0  0  0
  -32.4376  -15.6368   22.3647 H   0  0  0  0  0  0
  -27.8170  -24.8837   19.3620 H   0  0  0  0  0  0
  -29.3158  -24.8967   20.2014 H   0  0  0  0  0  0
  -26.7588  -25.5276   21.7559 H   0  0  0  0  0  0
  -28.2445  -24.9563   22.4030 H   0  0  0  0  0  0
  -31.7779  -17.6398   23.6280 H   0  0  0  0  0  0
  -29.6499  -14.6209   22.3226 H   0  0  0  0  0  0
  -28.8980  -16.1737   24.7542 H   0  0  0  0  0  0
  -30.1284  -17.1270   25.3503 H   0  0  0  0  0  0
  1 25  1  0  0  0
  1 30  2  0  0  0
  1 86  1  0  0  0
  2  3  1  0  0  0
  2 25  1  0  0  0
  2 90  1  0  0  0
  2 91  1  0  0  0
  3  4  1  0  0  0
  3 92  1  0  0  0
  3 93  1  0  0  0
  4  5  1  0  0  0
  4 94  1  0  0  0
  4 95  1  0  0  0
  5  6  1  0  0  0
  5 26  1  0  0  0
  5 96  1  0  0  0
  6 25  1  0  0  0
  6 97  1  0  0  0
  6 98  1  0  0  0
  7  8  2  0  0  0
  7 26  1  0  0  0
  7 29  1  0  0  0
  8  9  1  0  0  0
  8 22  1  0  0  0
  9 10  1  0  0  0
  9 27  2  0  0  0
 10 11  2  0  0  0
 10 15  1  0  0  0
 11 12  1  0  0  0
 11 99  1  0  0  0
 12 13  2  0  0  0
 12100  1  0  0  0
 13 14  1  0  0  0
 13 31  1  0  0  0
 14 15  2  0  0  0
 14101  1  0  0  0
 15102  1  0  0  0
 16 17  2  0  0  0
 16 21  1  0  0  0
 16 31  1  0  0  0
 17 18  1  0  0  0
 17103  1  0  0  0
 18 19  2  0  0  0
 18104  1  0  0  0
 19 20  1  0  0  0
 19 24  1  0  0  0
 20 21  2  0  0  0
 20105  1  0  0  0
 21 23  1  0  0  0
 22 28  1  0  0  0
 22 32  2  0  0  0
 26 27  1  0  0  0
 28106  1  0  0  0
 28107  1  0  0  0
 29108  1  0  0  0
 29109  1  0  0  0
 33 34  1  0  0  0
 33 66  1  0  0  0
 33 70  2  0  0  0
 34 36  1  0  0  0
 34 59  1  0  0  0
 34110  1  0  0  0
 35 44  2  0  0  0
 35 45  1  0  0  0
 35 68  1  0  0  0
 36 56  1  0  0  0
 36111  1  0  0  0
 37 39  1  0  0  0
 37 47  1  0  0  0
 37 66  1  0  0  0
 37112  1  0  0  0
 38 43  2  0  0  0
 38 46  1  0  0  0
 38 47  1  0  0  0
 39 64  1  0  0  0
 39 67  2  0  0  0
 40 52  1  0  0  0
 40 53  2  0  0  0
 40 58  1  0  0  0
 41113  1  0  0  0
 41114  1  0  0  0
 41115  1  0  0  0
 41 48  1  0  0  0
 42 43  1  0  0  0
 42 66  1  0  0  0
 42116  1  0  0  0
 42117  1  0  0  0
 43 44  1  0  0  0
 44118  1  0  0  0
 45 46  2  0  0  0
 45119  1  0  0  0
 46120  1  0  0  0
 47121  1  0  0  0
 47122  1  0  0  0
 48 56  1  0  0  0
 48 65  1  0  0  0
 48123  1  0  0  0
 49 50  1  0  0  0
 49 53  1  0  0  0
 49 64  1  0  0  0
 49124  1  0  0  0
 50 51  1  0  0  0
 50125  1  0  0  0
 50126  1  0  0  0
 51 52  1  0  0  0
 51127  1  0  0  0
 51128  1  0  0  0
 52129  1  0  0  0
 52130  1  0  0  0
 53 54  1  0  0  0
 54 55  2  0  0  0
 54131  1  0  0  0
 55 57  1  0  0  0
 55132  1  0  0  0
 56 69  2  0  0  0
 57 58  2  0  0  0
 57133  1  0  0  0
 58134  1  0  0  0
 59 60  1  0  0  0
 59 61  1  0  0  0
 59 62  1  0  0  0
 60135  1  0  0  0
 60136  1  0  0  0
 60137  1  0  0  0
 61138  1  0  0  0
 61139  1  0  0  0
 61140  1  0  0  0
 62141  1  0  0  0
 62142  1  0  0  0
 62143  1  0  0  0
 63 65  1  0  0  0
 63144  1  0  0  0
 63145  1  0  0  0
 63146  1  0  0  0
 64147  1  0  0  0
 65148  1  0  0  0
 68 83  1  0  0  0
 71 72  2  0  0  0
 71 74  1  0  0  0
 71149  1  0  0  0
 72 75  1  0  0  0
 72150  1  0  0  0
 73 75  2  0  0  0
 73 76  1  0  0  0
 73151  1  0  0  0
 74 76  2  0  0  0
 74 78  1  0  0  0
 75 89  1  0  0  0
 76 88  1  0  0  0
 77 78  1  0  0  0
 77 87  1  0  0  0
 77152  1  0  0  0
 77153  1  0  0  0
 78 79  1  0  0  0
 78154  1  0  0  0
 79 85  1  0  0  0
 79 87  1  0  0  0
 79155  1  0  0  0
 80156  1  0  0  0
 80157  1  0  0  0
 80158  1  0  0  0
 80 85  1  0  0  0
 81 88  1  0  0  0
 81159  1  0  0  0
 81160  1  0  0  0
 81161  1  0  0  0
 82 85  1  0  0  0
 82 86  1  0  0  0
 82162  1  0  0  0
 82163  1  0  0  0
 83 84  1  0  0  0
 83164  1  0  0  0
 83165  1  0  0  0
 84 89  1  0  0  0
 84166  1  0  0  0
 84167  1  0  0  0
 85168  1  0  0  0
 86169  1  0  0  0
 87170  1  0  0  0
 87171  1  0  0  0
M  CHG  1  87   1
M  ISO  4   1 100  68 101  83 101  86 100
M  END
> <chiral flag>
0

> <version>
0

> <s_m_source_file>
/data/baiqing/PycharmProjects/Reinvent-master-3.2/result/LINK_invent/BTK/process_docking_weight1_custom_sum_contain_oxygen_bond_distance_aromatic_linkinvent_7_9_3/rearranged_h_0145.sdf

> <i_m_source_file_index>
69

> <r_mmod_Potential_Energy-OPLS-2005>
-227.859725952148

> <r_mmod_Stretch_Energy-OPLS-2005>
38.1837043762207

> <r_mmod_Bend_Energy-OPLS-2005>
133.558410644531

> <r_mmod_Torsional_Energy-OPLS-2005>
254.470458984375

> <r_mmod_Improper_Torsional_Energy-OPLS-2005>
4.07217168807983

> <r_mmod_Van_der_Waal_Energy-OPLS-2005>
163.42561340332

> <r_mmod_Electrostatic_Energy-OPLS-2005>
-322.680236816406

> <r_mmod_Solvation_Energy-OPLS-2005>
-509.502655029297

> <b_mmod_Minimization_Converged-OPLS-2005>
0

> <r_mmod_RMS_Derivative-OPLS-2005>
4.67241048812866

$$$$
70
                    3D
 Structure written by MMmdl.
159168  0  0  1  0            999 V2000
  -30.6264  -14.5702   20.4932 C   0  0  0  0  0  0
  -30.4356  -12.3414   19.4479 C   0  0  0  0  0  0
  -29.5066  -12.4981   18.2214 C   0  0  0  0  0  0
  -28.0254  -12.3450   18.6264 C   0  0  0  0  0  0
  -27.6557  -13.2038   19.8644 C   0  0  2  0  0  0
  -28.6983  -13.0193   20.9898 C   0  0  0  0  0  0
  -25.2589  -13.8155   20.5676 C   0  0  0  0  0  0
  -24.1833  -13.0441   20.9177 C   0  0  0  0  0  0
  -24.6381  -11.6905   20.8738 C   0  0  0  0  0  0
  -23.9046  -10.4293   21.0407 C   0  0  0  0  0  0
  -24.3607   -9.4212   21.9182 C   0  0  0  0  0  0
  -23.6286   -8.2247   22.0754 C   0  0  0  0  0  0
  -22.4270   -8.0279   21.3543 C   0  0  0  0  0  0
  -21.9898   -9.0251   20.4649 C   0  0  0  0  0  0
  -22.7221  -10.2131   20.3055 C   0  0  0  0  0  0
  -21.6850   -6.0729   22.5280 C   0  0  0  0  0  0
  -21.4016   -6.5637   23.8212 C   0  0  0  0  0  0
  -21.3661   -5.6791   24.9175 C   0  0  0  0  0  0
  -21.6041   -4.3052   24.7225 C   0  0  0  0  0  0
  -21.8822   -3.8142   23.4349 C   0  0  0  0  0  0
  -21.9195   -4.6957   22.3405 C   0  0  0  0  0  0
  -22.7859  -13.5252   21.1854 C   0  0  0  0  0  0
  -22.1663   -4.2145   21.0981 F   0  0  0  0  0  0
  -21.5629   -3.4537   25.7737 F   0  0  0  0  0  0
  -30.0226  -13.3456   20.4438 N   0  0  0  0  0  0
  -26.2998  -12.9305   20.3314 N   0  0  0  0  0  0
  -25.9300  -11.6475   20.5746 N   0  0  0  0  0  0
  -22.0496  -12.8244   22.0411 N   0  0  0  0  0  0
  -25.4340  -15.1873   20.4126 N   0  0  0  0  0  0
  -31.8084  -14.7118   20.1634 O   0  0  0  0  0  0
  -21.6638   -6.8872   21.4241 O   0  0  0  0  0  0
  -22.3550  -14.5563   20.6710 O   0  0  0  0  0  0
  -24.6178  -31.8654   23.2078 C   0  0  0  0  0  0
  -25.9062  -32.4805   23.8377 C   0  0  1  0  0  0
  -27.2357  -27.3931   20.1154 C   0  0  0  0  0  0
  -25.5913  -33.8601   24.2315 N   0  0  0  0  0  0
  -23.4084  -30.4859   21.5481 C   0  0  2  0  0  0
  -24.8584  -28.9391   20.1237 C   0  0  0  0  0  0
  -22.7416  -29.4651   22.4986 C   0  0  0  0  0  0
  -18.0283  -28.1357   22.8494 C   0  0  0  0  0  0
  -24.1487  -36.7307   23.2637 C   0  0  0  0  0  0
  -25.9399  -30.8155   21.3687 C   0  0  0  0  0  0
  -26.0189  -29.4420   20.7268 C   0  0  0  0  0  0
  -27.2129  -28.6749   20.7232 C   0  0  0  0  0  0
  -26.0627  -26.9158   19.5002 C   0  0  0  0  0  0
  -24.8758  -27.6749   19.5080 C   0  0  0  0  0  0
  -23.6215  -29.8111   20.1658 C   0  0  0  0  0  0
  -25.4109  -36.3098   24.0332 C   0  0  1  0  0  0
  -20.5873  -28.3668   23.1315 C   0  0  2  0  0  0
  -20.6788  -26.9413   22.5397 C   0  0  0  0  0  0
  -19.5764  -26.6390   21.5201 C   0  0  0  0  0  0
  -18.1938  -26.7912   22.1611 C   0  0  0  0  0  0
  -19.1524  -28.8825   23.2904 C   0  0  0  0  0  0
  -18.9444  -30.1430   23.8909 C   0  0  0  0  0  0
  -17.6444  -30.6568   24.0553 C   0  0  0  0  0  0
  -25.9035  -34.9463   23.5118 C   0  0  0  0  0  0
  -16.5343  -29.9057   23.6321 C   0  0  0  0  0  0
  -16.7268  -28.6471   23.0349 C   0  0  0  0  0  0
  -26.4477  -31.6593   25.0714 C   0  0  0  0  0  0
  -25.3737  -31.3709   26.1457 C   0  0  0  0  0  0
  -27.0315  -30.3033   24.6110 C   0  0  0  0  0  0
  -27.6055  -32.4307   25.7476 C   0  0  0  0  0  0
  -27.5577  -37.1813   24.8465 C   0  0  0  0  0  0
  -21.4139  -29.3053   22.3733 N   0  0  0  0  0  0
  -26.4293  -37.3780   23.9401 N   0  0  0  0  0  0
  -24.6733  -31.0712   22.0998 N   0  0  0  0  0  0
  -23.4171  -28.8187   23.3039 O   0  0  0  0  0  0
  -28.3875  -26.6340   20.0130 O   0  0  0  0  0  0
  -26.5594  -34.8922   22.4679 O   0  0  0  0  0  0
  -23.5366  -32.1426   23.7457 O   0  0  0  0  0  0
  -29.8087  -19.8343   20.5167 C   0  0  0  0  0  0
  -28.0797  -20.8332   21.8535 C   0  0  0  0  0  0
  -29.5033  -18.5606   21.0829 C   0  0  0  0  0  0
  -29.0950  -21.0091   20.8932 C   0  0  0  0  0  0
  -28.4972  -18.5482   22.0747 C   0  0  0  0  0  0
  -29.6588  -16.6211   19.3878 C   0  0  0  0  0  0
  -30.2290  -17.2824   20.6107 C   0  0  2  0  0  0
  -29.7243  -15.8027   20.6641 C   0  0  2  0  0  0
  -27.1472  -17.3524   23.6802 C   0  0  0  0  0  0
  -27.9233  -24.2819   21.0083 C   0  0  0  0  0  0
  -28.6623  -25.6614   21.0454 C   0  0  0  0  0  0
  -28.3671  -23.1796   19.9909 C   0  0  0  0  0  0
  -27.7992  -19.6496   22.4364 N   0  0  0  0  0  0
  -29.4234  -22.2599   20.3693 O   0  0  0  0  0  0
  -28.2023  -17.3672   22.7217 O   0  0  0  0  0  0
  -31.4798  -12.4555   19.1513 H   0  0  0  0  0  0
  -30.3530  -11.3378   19.8677 H   0  0  0  0  0  0
  -29.7614  -11.7610   17.4589 H   0  0  0  0  0  0
  -29.6631  -13.4761   17.7636 H   0  0  0  0  0  0
  -27.8498  -11.2911   18.8439 H   0  0  0  0  0  0
  -27.3746  -12.5926   17.7874 H   0  0  0  0  0  0
  -27.6838  -14.2421   19.5379 H   0  0  0  0  0  0
  -28.6909  -11.9872   21.3428 H   0  0  0  0  0  0
  -28.4579  -13.6201   21.8673 H   0  0  0  0  0  0
  -25.2757   -9.5690   22.4751 H   0  0  0  0  0  0
  -24.0000   -7.4637   22.7472 H   0  0  0  0  0  0
  -21.0827   -8.8769   19.8954 H   0  0  0  0  0  0
  -22.3685  -10.9667   19.6162 H   0  0  0  0  0  0
  -21.2011   -7.6143   23.9716 H   0  0  0  0  0  0
  -21.1476   -6.0518   25.9077 H   0  0  0  0  0  0
  -22.0600   -2.7605   23.2850 H   0  0  0  0  0  0
  -22.4110  -11.9903   22.4796 H   0  0  0  0  0  0
  -21.1117  -13.1277   22.2621 H   0  0  0  0  0  0
  -24.6692  -15.8443   20.5206 H   0  0  0  0  0  0
  -26.2902  -15.6235   20.0958 H   0  0  0  0  0  0
  -26.7127  -32.5509   23.1138 H   0  0  0  0  0  0
  -25.0081  -33.9751   25.0475 H   0  0  0  0  0  0
  -22.6997  -31.3038   21.4034 H   0  0  0  0  0  0
  -23.3738  -35.9650   23.3309 H   0  0  0  0  0  0
  -24.3586  -36.8913   22.2049 H   0  0  0  0  0  0
  -23.7258  -37.6524   23.6644 H   0  0  0  0  0  0
  -26.0541  -31.5744   20.5934 H   0  0  0  0  0  0
  -26.8270  -30.8767   21.9868 H   0  0  0  0  0  0
  -28.1139  -29.0639   21.1767 H   0  0  0  0  0  0
  -26.0721  -25.9554   19.0042 H   0  0  0  0  0  0
  -23.9869  -27.2849   19.0312 H   0  0  0  0  0  0
  -23.7327  -30.5806   19.4012 H   0  0  0  0  0  0
  -22.7453  -29.2299   19.8714 H   0  0  0  0  0  0
  -25.1290  -36.1954   25.0825 H   0  0  0  0  0  0
  -20.9964  -28.3218   24.1432 H   0  0  0  0  0  0
  -20.5720  -26.2264   23.3574 H   0  0  0  0  0  0
  -21.6660  -26.7484   22.1171 H   0  0  0  0  0  0
  -19.6939  -25.6311   21.1206 H   0  0  0  0  0  0
  -19.6691  -27.3218   20.6743 H   0  0  0  0  0  0
  -17.4218  -26.6686   21.4002 H   0  0  0  0  0  0
  -18.0336  -26.0027   22.8979 H   0  0  0  0  0  0
  -19.7916  -30.7246   24.2290 H   0  0  0  0  0  0
  -17.4991  -31.6259   24.5125 H   0  0  0  0  0  0
  -15.5344  -30.2961   23.7618 H   0  0  0  0  0  0
  -15.8674  -28.0784   22.7067 H   0  0  0  0  0  0
  -24.5904  -30.7063   25.7791 H   0  0  0  0  0  0
  -24.8934  -32.2868   26.4905 H   0  0  0  0  0  0
  -25.8084  -30.8872   27.0216 H   0  0  0  0  0  0
  -26.2871  -29.6789   24.1152 H   0  0  0  0  0  0
  -27.4072  -29.7269   25.4579 H   0  0  0  0  0  0
  -27.8708  -30.4346   23.9274 H   0  0  0  0  0  0
  -27.2677  -33.3594   26.2084 H   0  0  0  0  0  0
  -28.3848  -32.6890   25.0292 H   0  0  0  0  0  0
  -28.0736  -31.8408   26.5369 H   0  0  0  0  0  0
  -28.2609  -38.0098   24.7494 H   0  0  0  0  0  0
  -28.1060  -36.2632   24.6307 H   0  0  0  0  0  0
  -27.2294  -37.1480   25.8870 H   0  0  0  0  0  0
  -20.9311  -29.8770   21.6946 H   0  0  0  0  0  0
  -26.0181  -38.2858   24.1395 H   0  0  0  0  0  0
  -30.5892  -19.9087   19.7739 H   0  0  0  0  0  0
  -27.4942  -21.6690   22.2031 H   0  0  0  0  0  0
  -30.3503  -16.3847   18.5798 H   0  0  0  0  0  0
  -28.6595  -16.8999   19.0584 H   0  0  0  0  0  0
  -31.3066  -17.4322   20.6385 H   0  0  0  0  0  0
  -28.7738  -15.6359   21.1567 H   0  0  0  0  0  0
  -27.0720  -16.3583   24.1212 H   0  0  0  0  0  0
  -26.1878  -17.5799   23.2135 H   0  0  0  0  0  0
  -27.3274  -18.0581   24.4926 H   0  0  0  0  0  0
  -26.8641  -24.4827   20.8497 H   0  0  0  0  0  0
  -27.9801  -23.8538   22.0078 H   0  0  0  0  0  0
  -29.7372  -25.4798   21.0456 H   0  0  0  0  0  0
  -28.4533  -26.1368   22.0052 H   0  0  0  0  0  0
  -28.6739  -23.6684   19.0654 H   0  0  0  0  0  0
  -27.4893  -22.5935   19.7129 H   0  0  0  0  0  0
  1 25  1  0  0  0
  1 30  2  0  0  0
  1 78  1  0  0  0
  2  3  1  0  0  0
  2 25  1  0  0  0
  2 86  1  0  0  0
  2 87  1  0  0  0
  3  4  1  0  0  0
  3 88  1  0  0  0
  3 89  1  0  0  0
  4  5  1  0  0  0
  4 90  1  0  0  0
  4 91  1  0  0  0
  5  6  1  0  0  0
  5 26  1  0  0  0
  5 92  1  0  0  0
  6 25  1  0  0  0
  6 93  1  0  0  0
  6 94  1  0  0  0
  7  8  2  0  0  0
  7 26  1  0  0  0
  7 29  1  0  0  0
  8  9  1  0  0  0
  8 22  1  0  0  0
  9 10  1  0  0  0
  9 27  2  0  0  0
 10 11  2  0  0  0
 10 15  1  0  0  0
 11 12  1  0  0  0
 11 95  1  0  0  0
 12 13  2  0  0  0
 12 96  1  0  0  0
 13 14  1  0  0  0
 13 31  1  0  0  0
 14 15  2  0  0  0
 14 97  1  0  0  0
 15 98  1  0  0  0
 16 17  2  0  0  0
 16 21  1  0  0  0
 16 31  1  0  0  0
 17 18  1  0  0  0
 17 99  1  0  0  0
 18 19  2  0  0  0
 18100  1  0  0  0
 19 20  1  0  0  0
 19 24  1  0  0  0
 20 21  2  0  0  0
 20101  1  0  0  0
 21 23  1  0  0  0
 22 28  1  0  0  0
 22 32  2  0  0  0
 26 27  1  0  0  0
 28102  1  0  0  0
 28103  1  0  0  0
 29104  1  0  0  0
 29105  1  0  0  0
 33 34  1  0  0  0
 33 66  1  0  0  0
 33 70  2  0  0  0
 34 36  1  0  0  0
 34 59  1  0  0  0
 34106  1  0  0  0
 35 44  2  0  0  0
 35 45  1  0  0  0
 35 68  1  0  0  0
 36 56  1  0  0  0
 36107  1  0  0  0
 37 39  1  0  0  0
 37 47  1  0  0  0
 37 66  1  0  0  0
 37108  1  0  0  0
 38 43  2  0  0  0
 38 46  1  0  0  0
 38 47  1  0  0  0
 39 64  1  0  0  0
 39 67  2  0  0  0
 40 52  1  0  0  0
 40 53  2  0  0  0
 40 58  1  0  0  0
 41109  1  0  0  0
 41110  1  0  0  0
 41111  1  0  0  0
 41 48  1  0  0  0
 42 43  1  0  0  0
 42 66  1  0  0  0
 42112  1  0  0  0
 42113  1  0  0  0
 43 44  1  0  0  0
 44114  1  0  0  0
 45 46  2  0  0  0
 45115  1  0  0  0
 46116  1  0  0  0
 47117  1  0  0  0
 47118  1  0  0  0
 48 56  1  0  0  0
 48 65  1  0  0  0
 48119  1  0  0  0
 49 50  1  0  0  0
 49 53  1  0  0  0
 49 64  1  0  0  0
 49120  1  0  0  0
 50 51  1  0  0  0
 50121  1  0  0  0
 50122  1  0  0  0
 51 52  1  0  0  0
 51123  1  0  0  0
 51124  1  0  0  0
 52125  1  0  0  0
 52126  1  0  0  0
 53 54  1  0  0  0
 54 55  2  0  0  0
 54127  1  0  0  0
 55 57  1  0  0  0
 55128  1  0  0  0
 56 69  2  0  0  0
 57 58  2  0  0  0
 57129  1  0  0  0
 58130  1  0  0  0
 59 60  1  0  0  0
 59 61  1  0  0  0
 59 62  1  0  0  0
 60131  1  0  0  0
 60132  1  0  0  0
 60133  1  0  0  0
 61134  1  0  0  0
 61135  1  0  0  0
 61136  1  0  0  0
 62137  1  0  0  0
 62138  1  0  0  0
 62139  1  0  0  0
 63 65  1  0  0  0
 63140  1  0  0  0
 63141  1  0  0  0
 63142  1  0  0  0
 64143  1  0  0  0
 65144  1  0  0  0
 68 81  1  0  0  0
 71 73  2  0  0  0
 71 74  1  0  0  0
 71145  1  0  0  0
 72 74  2  0  0  0
 72 83  1  0  0  0
 72146  1  0  0  0
 73 75  1  0  0  0
 73 77  1  0  0  0
 74 84  1  0  0  0
 75 83  2  0  0  0
 75 85  1  0  0  0
 76 77  1  0  0  0
 76 78  1  0  0  0
 76147  1  0  0  0
 76148  1  0  0  0
 77 78  1  0  0  0
 77149  1  0  0  0
 78150  1  0  0  0
 79 85  1  0  0  0
 79151  1  0  0  0
 79152  1  0  0  0
 79153  1  0  0  0
 80 81  1  0  0  0
 80 82  1  0  0  0
 80154  1  0  0  0
 80155  1  0  0  0
 81156  1  0  0  0
 81157  1  0  0  0
 82 84  1  0  0  0
 82158  1  0  0  0
 82159  1  0  0  0
M  ISO  4   1 100  68 101  78 100  81 101
M  END
> <chiral flag>
0

> <version>
0

> <s_m_source_file>
/data/baiqing/PycharmProjects/Reinvent-master-3.2/result/LINK_invent/BTK/process_docking_weight1_custom_sum_contain_oxygen_bond_distance_aromatic_linkinvent_7_9_3/rearranged_h_0145.sdf

> <i_m_source_file_index>
70

> <r_mmod_Potential_Energy-OPLS-2005>
-43.9456024169922

> <r_mmod_Stretch_Energy-OPLS-2005>
55.0132141113281

> <r_mmod_Bend_Energy-OPLS-2005>
137.208923339844

> <r_mmod_Torsional_Energy-OPLS-2005>
232.294143676758

> <r_mmod_Improper_Torsional_Energy-OPLS-2005>
7.15517711639404

> <r_mmod_Van_der_Waal_Energy-OPLS-2005>
146.407333374023

> <r_mmod_Electrostatic_Energy-OPLS-2005>
-445.102355957031

> <r_mmod_Solvation_Energy-OPLS-2005>
-201.976303100586

> <b_mmod_Minimization_Converged-OPLS-2005>
0

> <r_mmod_RMS_Derivative-OPLS-2005>
1.21410584449768

$$$$
71
                    3D
 Structure written by MMmdl.
162171  0  0  1  0            999 V2000
  -30.7174  -14.5219   20.6020 C   0  0  0  0  0  0
  -30.4199  -12.3485   19.4385 C   0  0  0  0  0  0
  -29.4923  -12.5142   18.2169 C   0  0  0  0  0  0
  -28.0172  -12.3624   18.6323 C   0  0  0  0  0  0
  -27.6567  -13.2184   19.8747 C   0  0  2  0  0  0
  -28.7003  -13.0399   21.0012 C   0  0  0  0  0  0
  -25.2555  -13.8181   20.5695 C   0  0  0  0  0  0
  -24.1825  -13.0437   20.9233 C   0  0  0  0  0  0
  -24.6403  -11.6917   20.8769 C   0  0  0  0  0  0
  -23.9070  -10.4289   21.0422 C   0  0  0  0  0  0
  -24.3620   -9.4197   21.9193 C   0  0  0  0  0  0
  -23.6295   -8.2227   22.0750 C   0  0  0  0  0  0
  -22.4280   -8.0273   21.3537 C   0  0  0  0  0  0
  -21.9913   -9.0252   20.4646 C   0  0  0  0  0  0
  -22.7248  -10.2135   20.3066 C   0  0  0  0  0  0
  -21.6844   -6.0733   22.5273 C   0  0  0  0  0  0
  -21.4020   -6.5639   23.8210 C   0  0  0  0  0  0
  -21.3661   -5.6796   24.9173 C   0  0  0  0  0  0
  -21.6042   -4.3056   24.7225 C   0  0  0  0  0  0
  -21.8819   -3.8150   23.4346 C   0  0  0  0  0  0
  -21.9196   -4.6959   22.3401 C   0  0  0  0  0  0
  -22.7850  -13.5220   21.1889 C   0  0  0  0  0  0
  -22.1663   -4.2149   21.0977 F   0  0  0  0  0  0
  -21.5626   -3.4542   25.7736 F   0  0  0  0  0  0
  -30.0270  -13.3534   20.4452 N   0  0  0  0  0  0
  -26.2999  -12.9369   20.3391 N   0  0  0  0  0  0
  -25.9335  -11.6515   20.5819 N   0  0  0  0  0  0
  -22.0504  -12.8185   22.0441 N   0  0  0  0  0  0
  -25.4225  -15.1878   20.3993 N   0  0  0  0  0  0
  -31.8333  -14.6891   20.1029 O   0  0  0  0  0  0
  -21.6635   -6.8873   21.4236 O   0  0  0  0  0  0
  -22.3525  -14.5516   20.6734 O   0  0  0  0  0  0
  -24.6160  -31.8636   23.2098 C   0  0  0  0  0  0
  -25.9036  -32.4788   23.8386 C   0  0  1  0  0  0
  -27.2301  -27.3726   20.1064 C   0  0  0  0  0  0
  -25.5896  -33.8599   24.2284 N   0  0  0  0  0  0
  -23.4075  -30.4813   21.5568 C   0  0  2  0  0  0
  -24.8544  -28.9460   20.1156 C   0  0  0  0  0  0
  -22.7421  -29.4578   22.5056 C   0  0  0  0  0  0
  -18.0241  -28.1335   22.8437 C   0  0  0  0  0  0
  -24.1500  -36.7316   23.2637 C   0  0  0  0  0  0
  -25.9436  -30.8037   21.3777 C   0  0  0  0  0  0
  -26.0180  -29.4355   20.7210 C   0  0  0  0  0  0
  -27.2075  -28.6578   20.7129 C   0  0  0  0  0  0
  -26.0444  -26.9265   19.4760 C   0  0  0  0  0  0
  -24.8648  -27.6912   19.4870 C   0  0  0  0  0  0
  -23.6197  -29.8193   20.1692 C   0  0  0  0  0  0
  -25.4119  -36.3094   24.0312 C   0  0  1  0  0  0
  -20.5836  -28.3605   23.1336 C   0  0  2  0  0  0
  -20.6755  -26.9346   22.5427 C   0  0  0  0  0  0
  -19.5756  -26.6344   21.5196 C   0  0  0  0  0  0
  -18.1913  -26.7870   22.1572 C   0  0  0  0  0  0
  -19.1493  -28.8787   23.2856 C   0  0  0  0  0  0
  -18.9434  -30.1411   23.8825 C   0  0  0  0  0  0
  -17.6442  -30.6541   24.0525 C   0  0  0  0  0  0
  -25.9044  -34.9466   23.5093 C   0  0  0  0  0  0
  -16.5326  -29.9040   23.6323 C   0  0  0  0  0  0
  -16.7234  -28.6484   23.0287 C   0  0  0  0  0  0
  -26.4456  -31.6584   25.0725 C   0  0  0  0  0  0
  -25.3740  -31.3678   26.1500 C   0  0  0  0  0  0
  -27.0284  -30.3016   24.6113 C   0  0  0  0  0  0
  -27.6024  -32.4353   25.7461 C   0  0  0  0  0  0
  -27.5579  -37.1813   24.8445 C   0  0  0  0  0  0
  -21.4153  -29.2972   22.3765 N   0  0  0  0  0  0
  -26.4281  -37.3798   23.9405 N   0  0  0  0  0  0
  -24.6739  -31.0662   22.1051 N   0  0  0  0  0  0
  -23.4159  -28.8129   23.3138 O   0  0  0  0  0  0
  -28.3690  -26.5682   20.1491 O   0  0  0  0  0  0
  -26.5619  -34.8901   22.4664 O   0  0  0  0  0  0
  -23.5339  -32.1477   23.7433 O   0  0  0  0  0  0
  -30.6886  -19.3403   21.1132 C   0  0  0  0  0  0
  -28.5212  -19.8064   21.2654 C   0  0  0  0  0  0
  -29.7325  -20.4061   21.0385 C   0  0  0  0  0  0
  -30.0675  -18.1444   21.4108 C   0  0  0  0  0  0
  -26.2857  -18.1378   24.0129 C   0  0  0  0  0  0
  -26.1621  -16.6498   23.7961 C   0  0  0  0  0  0
  -27.3917  -17.3814   23.3078 C   0  0  0  0  0  0
  -30.7136  -16.7889   21.7454 C   0  0  0  0  0  0
  -27.6183  -17.5313   21.8146 C   0  0  0  0  0  0
  -29.3332  -24.1855   20.4790 C   0  0  0  0  0  0
  -28.1476  -25.1262   20.0793 C   0  0  0  0  0  0
  -28.9161  -22.6862   20.7042 C   0  0  0  0  0  0
  -28.7073  -18.4446   21.4990 N   0  0  0  0  0  0
  -30.0967  -15.5214   21.2729 N   0  0  0  0  0  0
  -30.0167  -21.7539   20.8135 O   0  0  0  0  0  0
  -31.4639  -12.4449   19.1360 H   0  0  0  0  0  0
  -30.3282  -11.3450   19.8585 H   0  0  0  0  0  0
  -29.7414  -11.7824   17.4470 H   0  0  0  0  0  0
  -29.6475  -13.4970   17.7694 H   0  0  0  0  0  0
  -27.8402  -11.3083   18.8478 H   0  0  0  0  0  0
  -27.3625  -12.6184   17.7990 H   0  0  0  0  0  0
  -27.6882  -14.2615   19.5573 H   0  0  0  0  0  0
  -28.6924  -12.0131   21.3695 H   0  0  0  0  0  0
  -28.4509  -13.6594   21.8630 H   0  0  0  0  0  0
  -25.2760   -9.5655   22.4783 H   0  0  0  0  0  0
  -24.0002   -7.4602   22.7459 H   0  0  0  0  0  0
  -21.0848   -8.8782   19.8945 H   0  0  0  0  0  0
  -22.3715  -10.9682   19.6185 H   0  0  0  0  0  0
  -21.2019   -7.6155   23.9710 H   0  0  0  0  0  0
  -21.1484   -6.0529   25.9073 H   0  0  0  0  0  0
  -22.0601   -2.7610   23.2845 H   0  0  0  0  0  0
  -22.4129  -11.9829   22.4779 H   0  0  0  0  0  0
  -21.1133  -13.1196   22.2678 H   0  0  0  0  0  0
  -24.6461  -15.8352   20.4778 H   0  0  0  0  0  0
  -26.2519  -15.6068   20.0004 H   0  0  0  0  0  0
  -26.7081  -32.5450   23.1120 H   0  0  0  0  0  0
  -25.0053  -33.9771   25.0425 H   0  0  0  0  0  0
  -22.6927  -31.2947   21.4176 H   0  0  0  0  0  0
  -23.3737  -35.9669   23.3304 H   0  0  0  0  0  0
  -24.3577  -36.8953   22.2046 H   0  0  0  0  0  0
  -23.7295  -37.6522   23.6689 H   0  0  0  0  0  0
  -26.0652  -31.5658   20.6074 H   0  0  0  0  0  0
  -26.8294  -30.8547   21.9997 H   0  0  0  0  0  0
  -28.1001  -29.0254   21.1980 H   0  0  0  0  0  0
  -26.0041  -25.9791   18.9618 H   0  0  0  0  0  0
  -23.9767  -27.3052   19.0039 H   0  0  0  0  0  0
  -23.7281  -30.6016   19.4170 H   0  0  0  0  0  0
  -22.7445  -29.2430   19.8664 H   0  0  0  0  0  0
  -25.1308  -36.1934   25.0801 H   0  0  0  0  0  0
  -20.9819  -28.3166   24.1506 H   0  0  0  0  0  0
  -20.5660  -26.2205   23.3606 H   0  0  0  0  0  0
  -21.6638  -26.7429   22.1230 H   0  0  0  0  0  0
  -19.6950  -25.6263   21.1216 H   0  0  0  0  0  0
  -19.6714  -27.3156   20.6727 H   0  0  0  0  0  0
  -17.4203  -26.6558   21.3951 H   0  0  0  0  0  0
  -18.0315  -25.9995   22.8949 H   0  0  0  0  0  0
  -19.7929  -30.7222   24.2155 H   0  0  0  0  0  0
  -17.5024  -31.6218   24.5141 H   0  0  0  0  0  0
  -15.5333  -30.2918   23.7743 H   0  0  0  0  0  0
  -15.8623  -28.0842   22.6983 H   0  0  0  0  0  0
  -24.5935  -30.6955   25.7928 H   0  0  0  0  0  0
  -24.8854  -32.2787   26.4965 H   0  0  0  0  0  0
  -25.8148  -30.8909   27.0265 H   0  0  0  0  0  0
  -26.2821  -29.6773   24.1173 H   0  0  0  0  0  0
  -27.4056  -29.7247   25.4569 H   0  0  0  0  0  0
  -27.8671  -30.4312   23.9268 H   0  0  0  0  0  0
  -27.2618  -33.3662   26.2012 H   0  0  0  0  0  0
  -28.3816  -32.6922   25.0277 H   0  0  0  0  0  0
  -28.0701  -31.8489   26.5379 H   0  0  0  0  0  0
  -28.2603  -38.0114   24.7513 H   0  0  0  0  0  0
  -28.1076  -36.2642   24.6260 H   0  0  0  0  0  0
  -27.2279  -37.1461   25.8844 H   0  0  0  0  0  0
  -20.9353  -29.8698   21.6964 H   0  0  0  0  0  0
  -26.0138  -38.2855   24.1438 H   0  0  0  0  0  0
  -31.7595  -19.4498   21.0028 H   0  0  0  0  0  0
  -27.5275  -20.2312   21.3111 H   0  0  0  0  0  0
  -26.4636  -18.4740   25.0330 H   0  0  0  0  0  0
  -25.6598  -18.7940   23.4102 H   0  0  0  0  0  0
  -25.4541  -16.3033   23.0450 H   0  0  0  0  0  0
  -26.2782  -15.9993   24.6608 H   0  0  0  0  0  0
  -28.2996  -17.2016   23.8813 H   0  0  0  0  0  0
  -30.7601  -16.7086   22.8331 H   0  0  0  0  0  0
  -31.7593  -16.8264   21.4374 H   0  0  0  0  0  0
  -26.7047  -17.8888   21.3382 H   0  0  0  0  0  0
  -27.8103  -16.5551   21.3773 H   0  0  0  0  0  0
  -29.7971  -24.5629   21.3908 H   0  0  0  0  0  0
  -30.0987  -24.2392   19.7035 H   0  0  0  0  0  0
  -27.3029  -24.8735   20.7225 H   0  0  0  0  0  0
  -27.8556  -24.8635   19.0609 H   0  0  0  0  0  0
  -28.2750  -22.3625   19.8833 H   0  0  0  0  0  0
  -28.3188  -22.6307   21.6163 H   0  0  0  0  0  0
  -29.1806  -15.3029   21.6326 H   0  0  0  0  0  0
  1 25  1  0  0  0
  1 30  2  0  0  0
  1 84  1  0  0  0
  2  3  1  0  0  0
  2 25  1  0  0  0
  2 86  1  0  0  0
  2 87  1  0  0  0
  3  4  1  0  0  0
  3 88  1  0  0  0
  3 89  1  0  0  0
  4  5  1  0  0  0
  4 90  1  0  0  0
  4 91  1  0  0  0
  5  6  1  0  0  0
  5 26  1  0  0  0
  5 92  1  0  0  0
  6 25  1  0  0  0
  6 93  1  0  0  0
  6 94  1  0  0  0
  7  8  2  0  0  0
  7 26  1  0  0  0
  7 29  1  0  0  0
  8  9  1  0  0  0
  8 22  1  0  0  0
  9 10  1  0  0  0
  9 27  2  0  0  0
 10 11  2  0  0  0
 10 15  1  0  0  0
 11 12  1  0  0  0
 11 95  1  0  0  0
 12 13  2  0  0  0
 12 96  1  0  0  0
 13 14  1  0  0  0
 13 31  1  0  0  0
 14 15  2  0  0  0
 14 97  1  0  0  0
 15 98  1  0  0  0
 16 17  2  0  0  0
 16 21  1  0  0  0
 16 31  1  0  0  0
 17 18  1  0  0  0
 17 99  1  0  0  0
 18 19  2  0  0  0
 18100  1  0  0  0
 19 20  1  0  0  0
 19 24  1  0  0  0
 20 21  2  0  0  0
 20101  1  0  0  0
 21 23  1  0  0  0
 22 28  1  0  0  0
 22 32  2  0  0  0
 26 27  1  0  0  0
 28102  1  0  0  0
 28103  1  0  0  0
 29104  1  0  0  0
 29105  1  0  0  0
 33 34  1  0  0  0
 33 66  1  0  0  0
 33 70  2  0  0  0
 34 36  1  0  0  0
 34 59  1  0  0  0
 34106  1  0  0  0
 35 44  2  0  0  0
 35 45  1  0  0  0
 35 68  1  0  0  0
 36 56  1  0  0  0
 36107  1  0  0  0
 37 39  1  0  0  0
 37 47  1  0  0  0
 37 66  1  0  0  0
 37108  1  0  0  0
 38 43  2  0  0  0
 38 46  1  0  0  0
 38 47  1  0  0  0
 39 64  1  0  0  0
 39 67  2  0  0  0
 40 52  1  0  0  0
 40 53  2  0  0  0
 40 58  1  0  0  0
 41109  1  0  0  0
 41110  1  0  0  0
 41111  1  0  0  0
 41 48  1  0  0  0
 42 43  1  0  0  0
 42 66  1  0  0  0
 42112  1  0  0  0
 42113  1  0  0  0
 43 44  1  0  0  0
 44114  1  0  0  0
 45 46  2  0  0  0
 45115  1  0  0  0
 46116  1  0  0  0
 47117  1  0  0  0
 47118  1  0  0  0
 48 56  1  0  0  0
 48 65  1  0  0  0
 48119  1  0  0  0
 49 50  1  0  0  0
 49 53  1  0  0  0
 49 64  1  0  0  0
 49120  1  0  0  0
 50 51  1  0  0  0
 50121  1  0  0  0
 50122  1  0  0  0
 51 52  1  0  0  0
 51123  1  0  0  0
 51124  1  0  0  0
 52125  1  0  0  0
 52126  1  0  0  0
 53 54  1  0  0  0
 54 55  2  0  0  0
 54127  1  0  0  0
 55 57  1  0  0  0
 55128  1  0  0  0
 56 69  2  0  0  0
 57 58  2  0  0  0
 57129  1  0  0  0
 58130  1  0  0  0
 59 60  1  0  0  0
 59 61  1  0  0  0
 59 62  1  0  0  0
 60131  1  0  0  0
 60132  1  0  0  0
 60133  1  0  0  0
 61134  1  0  0  0
 61135  1  0  0  0
 61136  1  0  0  0
 62137  1  0  0  0
 62138  1  0  0  0
 62139  1  0  0  0
 63 65  1  0  0  0
 63140  1  0  0  0
 63141  1  0  0  0
 63142  1  0  0  0
 64143  1  0  0  0
 65144  1  0  0  0
 68 81  1  0  0  0
 71 73  1  0  0  0
 71 74  2  0  0  0
 71145  1  0  0  0
 72 73  2  0  0  0
 72 83  1  0  0  0
 72146  1  0  0  0
 73 85  1  0  0  0
 74 78  1  0  0  0
 74 83  1  0  0  0
 75 76  1  0  0  0
 75 77  1  0  0  0
 75147  1  0  0  0
 75148  1  0  0  0
 76 77  1  0  0  0
 76149  1  0  0  0
 76150  1  0  0  0
 77 79  1  0  0  0
 77151  1  0  0  0
 78 84  1  0  0  0
 78152  1  0  0  0
 78153  1  0  0  0
 79 83  1  0  0  0
 79154  1  0  0  0
 79155  1  0  0  0
 80 81  1  0  0  0
 80 82  1  0  0  0
 80156  1  0  0  0
 80157  1  0  0  0
 81158  1  0  0  0
 81159  1  0  0  0
 82 85  1  0  0  0
 82160  1  0  0  0
 82161  1  0  0  0
 84162  1  0  0  0
M  ISO  4   1 100  68 101  81 101  84 100
M  END
> <chiral flag>
0

> <version>
0

> <s_m_source_file>
/data/baiqing/PycharmProjects/Reinvent-master-3.2/result/LINK_invent/BTK/process_docking_weight1_custom_sum_contain_oxygen_bond_distance_aromatic_linkinvent_7_9_3/rearranged_h_0145.sdf

> <i_m_source_file_index>
71

> <r_mmod_Potential_Energy-OPLS-2005>
-69.7471237182617

> <r_mmod_Stretch_Energy-OPLS-2005>
51.4584617614746

> <r_mmod_Bend_Energy-OPLS-2005>
117.506500244141

> <r_mmod_Torsional_Energy-OPLS-2005>
250.784210205078

> <r_mmod_Improper_Torsional_Energy-OPLS-2005>
3.20687413215637

> <r_mmod_Van_der_Waal_Energy-OPLS-2005>
120.978004455566

> <r_mmod_Electrostatic_Energy-OPLS-2005>
-414.81982421875

> <r_mmod_Solvation_Energy-OPLS-2005>
-222.552337646484

> <b_mmod_Minimization_Converged-OPLS-2005>
0

> <r_mmod_RMS_Derivative-OPLS-2005>
2.99733018875122

$$$$
72
                    3D
 Structure written by MMmdl.
169178  0  0  1  0            999 V2000
  -30.5265  -14.9720   20.4192 C   0  0  0  0  0  0
  -30.4408  -12.6014   19.5087 C   0  0  0  0  0  0
  -29.5255  -12.5317   18.2638 C   0  0  0  0  0  0
  -28.0588  -12.3147   18.6801 C   0  0  0  0  0  0
  -27.6293  -13.2497   19.8401 C   0  0  2  0  0  0
  -28.6684  -13.2842   20.9816 C   0  0  0  0  0  0
  -25.2453  -13.8187   20.5684 C   0  0  0  0  0  0
  -24.1782  -13.0425   20.9245 C   0  0  0  0  0  0
  -24.6402  -11.6913   20.8770 C   0  0  0  0  0  0
  -23.9086  -10.4287   21.0418 C   0  0  0  0  0  0
  -24.3632   -9.4199   21.9194 C   0  0  0  0  0  0
  -23.6301   -8.2238   22.0759 C   0  0  0  0  0  0
  -22.4282   -8.0283   21.3548 C   0  0  0  0  0  0
  -21.9925   -9.0258   20.4646 C   0  0  0  0  0  0
  -22.7262  -10.2132   20.3058 C   0  0  0  0  0  0
  -21.6853   -6.0738   22.5284 C   0  0  0  0  0  0
  -21.4013   -6.5643   23.8217 C   0  0  0  0  0  0
  -21.3656   -5.6797   24.9179 C   0  0  0  0  0  0
  -21.6045   -4.3059   24.7231 C   0  0  0  0  0  0
  -21.8817   -3.8151   23.4350 C   0  0  0  0  0  0
  -21.9194   -4.6967   22.3407 C   0  0  0  0  0  0
  -22.7805  -13.5204   21.1896 C   0  0  0  0  0  0
  -22.1662   -4.2152   21.0983 F   0  0  0  0  0  0
  -21.5627   -3.4538   25.7740 F   0  0  0  0  0  0
  -29.9437  -13.7028   20.3864 N   0  0  0  0  0  0
  -26.2882  -12.9435   20.3231 N   0  0  0  0  0  0
  -25.9334  -11.6567   20.5751 N   0  0  0  0  0  0
  -22.0443  -12.8182   22.0437 N   0  0  0  0  0  0
  -25.4078  -15.1890   20.4026 N   0  0  0  0  0  0
  -31.7234  -15.0409   20.1199 O   0  0  0  0  0  0
  -21.6642   -6.8882   21.4244 O   0  0  0  0  0  0
  -22.3495  -14.5515   20.6749 O   0  0  0  0  0  0
  -24.6468  -31.8415   23.1865 C   0  0  0  0  0  0
  -25.9232  -32.4679   23.8265 C   0  0  1  0  0  0
  -27.2117  -27.1058   20.1563 C   0  0  0  0  0  0
  -25.5971  -33.8484   24.2183 N   0  0  0  0  0  0
  -23.4513  -30.4625   21.5310 C   0  0  2  0  0  0
  -24.8995  -28.8840   20.1115 C   0  0  0  0  0  0
  -22.7581  -29.4552   22.4838 C   0  0  0  0  0  0
  -18.0310  -28.1407   22.8496 C   0  0  0  0  0  0
  -24.1485  -36.7245   23.2644 C   0  0  0  0  0  0
  -26.0104  -30.7062   21.3894 C   0  0  0  0  0  0
  -26.0795  -29.3142   20.7324 C   0  0  0  0  0  0
  -27.2365  -28.4428   20.7352 C   0  0  0  0  0  0
  -26.0040  -26.7865   19.4949 C   0  0  0  0  0  0
  -24.8772  -27.6352   19.4761 C   0  0  0  0  0  0
  -23.6793  -29.7907   20.1517 C   0  0  0  0  0  0
  -25.4118  -36.3018   24.0315 C   0  0  1  0  0  0
  -20.5929  -28.3736   23.1229 C   0  0  2  0  0  0
  -20.6792  -26.9435   22.5405 C   0  0  0  0  0  0
  -19.5755  -26.6393   21.5220 C   0  0  0  0  0  0
  -18.1936  -26.7952   22.1632 C   0  0  0  0  0  0
  -19.1570  -28.8888   23.2854 C   0  0  0  0  0  0
  -18.9487  -30.1485   23.8879 C   0  0  0  0  0  0
  -17.6481  -30.6603   24.0568 C   0  0  0  0  0  0
  -25.9082  -34.9398   23.5060 C   0  0  0  0  0  0
  -16.5372  -29.9098   23.6347 C   0  0  0  0  0  0
  -16.7292  -28.6514   23.0375 C   0  0  0  0  0  0
  -26.4544  -31.6555   25.0711 C   0  0  0  0  0  0
  -25.3726  -31.3760   26.1401 C   0  0  0  0  0  0
  -27.0416  -30.2952   24.6314 C   0  0  0  0  0  0
  -27.6063  -32.4334   25.7506 C   0  0  0  0  0  0
  -27.5566  -37.1777   24.8464 C   0  0  0  0  0  0
  -21.4270  -29.3067   22.3599 N   0  0  0  0  0  0
  -26.4276  -37.3733   23.9410 N   0  0  0  0  0  0
  -24.7229  -31.0256   22.0905 N   0  0  0  0  0  0
  -23.4220  -28.8099   23.2989 O   0  0  0  0  0  0
  -28.2562  -26.1013   20.2180 O   0  0  0  0  0  0
  -26.5652  -34.8902   22.4630 O   0  0  0  0  0  0
  -23.5585  -32.1300   23.7078 O   0  0  0  0  0  0
  -28.6076  -18.6363   17.6377 C   0  0  0  0  0  0
  -27.8750  -18.4656   16.4484 C   0  0  0  0  0  0
  -25.8204  -18.3441   17.7401 C   0  0  0  0  0  0
  -27.9596  -18.6585   18.8951 C   0  0  0  0  0  0
  -26.5437  -18.5137   18.9412 C   0  0  0  0  0  0
  -26.4795  -18.3178   16.4992 C   0  0  0  0  0  0
  -30.8483  -18.4956   21.3426 C   0  0  0  0  0  0
  -30.4489  -20.0373   21.3895 C   0  0  0  0  0  0
  -28.8121  -18.8514   20.1522 C   0  0  1  0  0  0
  -29.9912  -17.7075   20.3092 C   0  0  2  0  0  0
  -29.4096  -20.3879   20.2851 C   0  0  1  0  0  0
  -25.7544  -18.5441   20.2416 C   0  0  0  0  0  0
  -27.6987  -21.5935   21.7336 C   0  0  0  0  0  0
  -28.9946  -23.2129   20.3093 C   0  0  0  0  0  0
  -27.9473  -24.5573   20.1911 C   0  0  0  0  0  0
  -29.7411  -16.1542   20.5816 N   0  0  0  0  0  0
  -28.4951  -21.6978   20.4875 N   0  3  1  0  0  0
  -25.7713  -18.1549   15.3572 F   0  0  0  0  0  0
  -31.4745  -12.7605   19.1993 H   0  0  0  0  0  0
  -30.4368  -11.6513   20.0456 H   0  0  0  0  0  0
  -29.8493  -11.7293   17.5997 H   0  0  0  0  0  0
  -29.6125  -13.4569   17.6921 H   0  0  0  0  0  0
  -27.9595  -11.2747   18.9928 H   0  0  0  0  0  0
  -27.3963  -12.4389   17.8229 H   0  0  0  0  0  0
  -27.5916  -14.2510   19.4096 H   0  0  0  0  0  0
  -28.7585  -12.3086   21.4626 H   0  0  0  0  0  0
  -28.3623  -13.9858   21.7593 H   0  0  0  0  0  0
  -25.2768   -9.5676   22.4775 H   0  0  0  0  0  0
  -24.0008   -7.4626   22.7472 H   0  0  0  0  0  0
  -21.0860   -8.8781   19.8943 H   0  0  0  0  0  0
  -22.3728  -10.9675   19.6168 H   0  0  0  0  0  0
  -21.2004   -7.6150   23.9724 H   0  0  0  0  0  0
  -21.1477   -6.0523   25.9083 H   0  0  0  0  0  0
  -22.0597   -2.7611   23.2852 H   0  0  0  0  0  0
  -22.4056  -11.9835   22.4808 H   0  0  0  0  0  0
  -21.1058  -13.1199   22.2638 H   0  0  0  0  0  0
  -24.6167  -15.8182   20.4715 H   0  0  0  0  0  0
  -26.2170  -15.6161   19.9730 H   0  0  0  0  0  0
  -26.7295  -32.5271   23.0989 H   0  0  0  0  0  0
  -25.0106  -33.9598   25.0329 H   0  0  0  0  0  0
  -22.7556  -31.2897   21.3738 H   0  0  0  0  0  0
  -23.3755  -35.9568   23.3289 H   0  0  0  0  0  0
  -24.3579  -36.8892   22.2064 H   0  0  0  0  0  0
  -23.7235  -37.6433   23.6695 H   0  0  0  0  0  0
  -26.1693  -31.4578   20.6153 H   0  0  0  0  0  0
  -26.8811  -30.7572   22.0316 H   0  0  0  0  0  0
  -28.1341  -28.7683   21.2434 H   0  0  0  0  0  0
  -25.8892  -25.8377   18.9955 H   0  0  0  0  0  0
  -23.9769  -27.3033   18.9770 H   0  0  0  0  0  0
  -23.8217  -30.5636   19.3951 H   0  0  0  0  0  0
  -22.7924  -29.2354   19.8387 H   0  0  0  0  0  0
  -25.1309  -36.1830   25.0807 H   0  0  0  0  0  0
  -21.0025  -28.3320   24.1346 H   0  0  0  0  0  0
  -20.5689  -26.2345   23.3630 H   0  0  0  0  0  0
  -21.6655  -26.7437   22.1191 H   0  0  0  0  0  0
  -19.6906  -25.6292   21.1267 H   0  0  0  0  0  0
  -19.6687  -27.3197   20.6743 H   0  0  0  0  0  0
  -17.4211  -26.6729   21.4028 H   0  0  0  0  0  0
  -18.0314  -26.0093   22.9022 H   0  0  0  0  0  0
  -19.7955  -30.7320   24.2233 H   0  0  0  0  0  0
  -17.5029  -31.6279   24.5173 H   0  0  0  0  0  0
  -15.5372  -30.2993   23.7676 H   0  0  0  0  0  0
  -15.8696  -28.0822   22.7102 H   0  0  0  0  0  0
  -24.5920  -30.7078   25.7742 H   0  0  0  0  0  0
  -24.8895  -32.2945   26.4738 H   0  0  0  0  0  0
  -25.8013  -30.9008   27.0233 H   0  0  0  0  0  0
  -26.3044  -29.6659   24.1315 H   0  0  0  0  0  0
  -27.4012  -29.7260   25.4894 H   0  0  0  0  0  0
  -27.8956  -30.4187   23.9655 H   0  0  0  0  0  0
  -27.2651  -33.3672   26.1995 H   0  0  0  0  0  0
  -28.3932  -32.6834   25.0377 H   0  0  0  0  0  0
  -28.0669  -31.8511   26.5499 H   0  0  0  0  0  0
  -28.2568  -38.0085   24.7515 H   0  0  0  0  0  0
  -28.1072  -36.2615   24.6285 H   0  0  0  0  0  0
  -27.2292  -37.1414   25.8868 H   0  0  0  0  0  0
  -20.9471  -29.8790   21.6794 H   0  0  0  0  0  0
  -26.0131  -38.2792   24.1425 H   0  0  0  0  0  0
  -29.6799  -18.7532   17.5679 H   0  0  0  0  0  0
  -28.3819  -18.4492   15.4953 H   0  0  0  0  0  0
  -24.7449  -18.2351   17.7595 H   0  0  0  0  0  0
  -30.7106  -18.0658   22.3358 H   0  0  0  0  0  0
  -31.9086  -18.3827   21.1100 H   0  0  0  0  0  0
  -31.3288  -20.6744   21.2995 H   0  0  0  0  0  0
  -30.0279  -20.2441   22.3726 H   0  0  0  0  0  0
  -28.1836  -18.6990   21.0253 H   0  0  0  0  0  0
  -30.5669  -17.7193   19.3831 H   0  0  0  0  0  0
  -29.9696  -20.5753   19.3685 H   0  0  0  0  0  0
  -24.7130  -18.2651   20.0773 H   0  0  0  0  0  0
  -25.7488  -19.5451   20.6679 H   0  0  0  0  0  0
  -26.1562  -17.8468   20.9761 H   0  0  0  0  0  0
  -27.3170  -20.5886   21.8976 H   0  0  0  0  0  0
  -26.8374  -22.2601   21.7080 H   0  0  0  0  0  0
  -28.3004  -21.8587   22.6032 H   0  0  0  0  0  0
  -29.6708  -23.4061   21.1420 H   0  0  0  0  0  0
  -29.6313  -23.2281   19.4249 H   0  0  0  0  0  0
  -27.1993  -24.4312   20.9734 H   0  0  0  0  0  0
  -27.4089  -24.3807   19.2615 H   0  0  0  0  0  0
  -28.7831  -15.9427   20.8204 H   0  0  0  0  0  0
  -27.8212  -21.5898   19.7414 H   0  0  0  0  0  0
  1 25  1  0  0  0
  1 30  2  0  0  0
  1 86  1  0  0  0
  2  3  1  0  0  0
  2 25  1  0  0  0
  2 89  1  0  0  0
  2 90  1  0  0  0
  3  4  1  0  0  0
  3 91  1  0  0  0
  3 92  1  0  0  0
  4  5  1  0  0  0
  4 93  1  0  0  0
  4 94  1  0  0  0
  5  6  1  0  0  0
  5 26  1  0  0  0
  5 95  1  0  0  0
  6 25  1  0  0  0
  6 96  1  0  0  0
  6 97  1  0  0  0
  7  8  2  0  0  0
  7 26  1  0  0  0
  7 29  1  0  0  0
  8  9  1  0  0  0
  8 22  1  0  0  0
  9 10  1  0  0  0
  9 27  2  0  0  0
 10 11  2  0  0  0
 10 15  1  0  0  0
 11 12  1  0  0  0
 11 98  1  0  0  0
 12 13  2  0  0  0
 12 99  1  0  0  0
 13 14  1  0  0  0
 13 31  1  0  0  0
 14 15  2  0  0  0
 14100  1  0  0  0
 15101  1  0  0  0
 16 17  2  0  0  0
 16 21  1  0  0  0
 16 31  1  0  0  0
 17 18  1  0  0  0
 17102  1  0  0  0
 18 19  2  0  0  0
 18103  1  0  0  0
 19 20  1  0  0  0
 19 24  1  0  0  0
 20 21  2  0  0  0
 20104  1  0  0  0
 21 23  1  0  0  0
 22 28  1  0  0  0
 22 32  2  0  0  0
 26 27  1  0  0  0
 28105  1  0  0  0
 28106  1  0  0  0
 29107  1  0  0  0
 29108  1  0  0  0
 33 34  1  0  0  0
 33 66  1  0  0  0
 33 70  2  0  0  0
 34 36  1  0  0  0
 34 59  1  0  0  0
 34109  1  0  0  0
 35 44  2  0  0  0
 35 45  1  0  0  0
 35 68  1  0  0  0
 36 56  1  0  0  0
 36110  1  0  0  0
 37 39  1  0  0  0
 37 47  1  0  0  0
 37 66  1  0  0  0
 37111  1  0  0  0
 38 43  2  0  0  0
 38 46  1  0  0  0
 38 47  1  0  0  0
 39 64  1  0  0  0
 39 67  2  0  0  0
 40 52  1  0  0  0
 40 53  2  0  0  0
 40 58  1  0  0  0
 41112  1  0  0  0
 41113  1  0  0  0
 41114  1  0  0  0
 41 48  1  0  0  0
 42 43  1  0  0  0
 42 66  1  0  0  0
 42115  1  0  0  0
 42116  1  0  0  0
 43 44  1  0  0  0
 44117  1  0  0  0
 45 46  2  0  0  0
 45118  1  0  0  0
 46119  1  0  0  0
 47120  1  0  0  0
 47121  1  0  0  0
 48 56  1  0  0  0
 48 65  1  0  0  0
 48122  1  0  0  0
 49 50  1  0  0  0
 49 53  1  0  0  0
 49 64  1  0  0  0
 49123  1  0  0  0
 50 51  1  0  0  0
 50124  1  0  0  0
 50125  1  0  0  0
 51 52  1  0  0  0
 51126  1  0  0  0
 51127  1  0  0  0
 52128  1  0  0  0
 52129  1  0  0  0
 53 54  1  0  0  0
 54 55  2  0  0  0
 54130  1  0  0  0
 55 57  1  0  0  0
 55131  1  0  0  0
 56 69  2  0  0  0
 57 58  2  0  0  0
 57132  1  0  0  0
 58133  1  0  0  0
 59 60  1  0  0  0
 59 61  1  0  0  0
 59 62  1  0  0  0
 60134  1  0  0  0
 60135  1  0  0  0
 60136  1  0  0  0
 61137  1  0  0  0
 61138  1  0  0  0
 61139  1  0  0  0
 62140  1  0  0  0
 62141  1  0  0  0
 62142  1  0  0  0
 63 65  1  0  0  0
 63143  1  0  0  0
 63144  1  0  0  0
 63145  1  0  0  0
 64146  1  0  0  0
 65147  1  0  0  0
 68 85  1  0  0  0
 71 72  2  0  0  0
 71 74  1  0  0  0
 71148  1  0  0  0
 72 76  1  0  0  0
 72149  1  0  0  0
 73 75  1  0  0  0
 73 76  2  0  0  0
 73150  1  0  0  0
 74 75  2  0  0  0
 74 79  1  0  0  0
 75 82  1  0  0  0
 76 88  1  0  0  0
 77 78  1  0  0  0
 77 80  1  0  0  0
 77151  1  0  0  0
 77152  1  0  0  0
 78153  1  0  0  0
 78154  1  0  0  0
 78 81  1  0  0  0
 79 80  1  0  0  0
 79 81  1  0  0  0
 79155  1  0  0  0
 80 86  1  0  0  0
 80156  1  0  0  0
 81 87  1  0  0  0
 81157  1  0  0  0
 82158  1  0  0  0
 82159  1  0  0  0
 82160  1  0  0  0
 83161  1  0  0  0
 83162  1  0  0  0
 83163  1  0  0  0
 83 87  1  0  0  0
 84 85  1  0  0  0
 84 87  1  0  0  0
 84164  1  0  0  0
 84165  1  0  0  0
 85166  1  0  0  0
 85167  1  0  0  0
 86168  1  0  0  0
 87169  1  0  0  0
M  CHG  1  87   1
M  ISO  4   1 100  68 101  85 101  86 100
M  END
> <chiral flag>
0

> <version>
0

> <s_m_source_file>
/data/baiqing/PycharmProjects/Reinvent-master-3.2/result/LINK_invent/BTK/process_docking_weight1_custom_sum_contain_oxygen_bond_distance_aromatic_linkinvent_7_9_3/rearranged_h_0145.sdf

> <i_m_source_file_index>
72

> <r_mmod_Potential_Energy-OPLS-2005>
549.410095214844

> <r_mmod_Stretch_Energy-OPLS-2005>
288.616455078125

> <r_mmod_Bend_Energy-OPLS-2005>
311.925903320312

> <r_mmod_Torsional_Energy-OPLS-2005>
278.706268310547

> <r_mmod_Improper_Torsional_Energy-OPLS-2005>
5.07562875747681

> <r_mmod_Van_der_Waal_Energy-OPLS-2005>
119.844444274902

> <r_mmod_Electrostatic_Energy-OPLS-2005>
-227.246810913086

> <r_mmod_Solvation_Energy-OPLS-2005>
-441.592803955078

> <b_mmod_Minimization_Converged-OPLS-2005>
0

> <r_mmod_RMS_Derivative-OPLS-2005>
1.25673222541809

$$$$
73
                    3D
 Structure written by MMmdl.
169178  0  0  1  0            999 V2000
  -30.6502  -14.5686   20.5798 C   0  0  0  0  0  0
  -30.4276  -12.3775   19.4201 C   0  0  0  0  0  0
  -29.4992  -12.5641   18.2010 C   0  0  0  0  0  0
  -28.0112  -12.4277   18.5927 C   0  0  0  0  0  0
  -27.6546  -13.2152   19.8853 C   0  0  2  0  0  0
  -28.7046  -12.9497   20.9830 C   0  0  0  0  0  0
  -25.2542  -13.8140   20.5709 C   0  0  0  0  0  0
  -24.1801  -13.0405   20.9160 C   0  0  0  0  0  0
  -24.6368  -11.6868   20.8680 C   0  0  0  0  0  0
  -23.9047  -10.4262   21.0369 C   0  0  0  0  0  0
  -24.3601   -9.4195   21.9173 C   0  0  0  0  0  0
  -23.6297   -8.2216   22.0755 C   0  0  0  0  0  0
  -22.4286   -8.0247   21.3534 C   0  0  0  0  0  0
  -21.9896   -9.0216   20.4647 C   0  0  0  0  0  0
  -22.7212  -10.2104   20.3035 C   0  0  0  0  0  0
  -21.6838   -6.0730   22.5298 C   0  0  0  0  0  0
  -21.3998   -6.5630   23.8231 C   0  0  0  0  0  0
  -21.3664   -5.6779   24.9193 C   0  0  0  0  0  0
  -21.6058   -4.3048   24.7223 C   0  0  0  0  0  0
  -21.8807   -3.8139   23.4344 C   0  0  0  0  0  0
  -21.9182   -4.6956   22.3404 C   0  0  0  0  0  0
  -22.7831  -13.5236   21.1829 C   0  0  0  0  0  0
  -22.1656   -4.2141   21.0980 F   0  0  0  0  0  0
  -21.5639   -3.4535   25.7743 F   0  0  0  0  0  0
  -30.0055  -13.3602   20.4418 N   0  0  0  0  0  0
  -26.2999  -12.9324   20.3417 N   0  0  0  0  0  0
  -25.9301  -11.6463   20.5707 N   0  0  0  0  0  0
  -22.0428  -12.8245   22.0372 N   0  0  0  0  0  0
  -25.4217  -15.1886   20.4184 N   0  0  0  0  0  0
  -31.8120  -14.6915   20.1796 O   0  0  0  0  0  0
  -21.6629   -6.8871   21.4255 O   0  0  0  0  0  0
  -22.3542  -14.5555   20.6708 O   0  0  0  0  0  0
  -24.6193  -31.8641   23.2081 C   0  0  0  0  0  0
  -25.9063  -32.4805   23.8383 C   0  0  1  0  0  0
  -27.2229  -27.3765   20.0995 C   0  0  0  0  0  0
  -25.5907  -33.8612   24.2304 N   0  0  0  0  0  0
  -23.4105  -30.4858   21.5498 C   0  0  2  0  0  0
  -24.8554  -28.9398   20.1204 C   0  0  0  0  0  0
  -22.7443  -29.4626   22.4986 C   0  0  0  0  0  0
  -18.0264  -28.1383   22.8490 C   0  0  0  0  0  0
  -24.1488  -36.7313   23.2639 C   0  0  0  0  0  0
  -25.9455  -30.8068   21.3717 C   0  0  0  0  0  0
  -26.0191  -29.4341   20.7234 C   0  0  0  0  0  0
  -27.2095  -28.6598   20.7091 C   0  0  0  0  0  0
  -26.0435  -26.9122   19.4841 C   0  0  0  0  0  0
  -24.8640  -27.6806   19.4963 C   0  0  0  0  0  0
  -23.6230  -29.8170   20.1657 C   0  0  0  0  0  0
  -25.4109  -36.3105   24.0333 C   0  0  1  0  0  0
  -20.5864  -28.3659   23.1326 C   0  0  2  0  0  0
  -20.6748  -26.9389   22.5437 C   0  0  0  0  0  0
  -19.5736  -26.6369   21.5228 C   0  0  0  0  0  0
  -18.1910  -26.7927   22.1620 C   0  0  0  0  0  0
  -19.1521  -28.8838   23.2902 C   0  0  0  0  0  0
  -18.9451  -30.1448   23.8903 C   0  0  0  0  0  0
  -17.6458  -30.6591   24.0560 C   0  0  0  0  0  0
  -25.9043  -34.9468   23.5112 C   0  0  0  0  0  0
  -16.5342  -29.9093   23.6328 C   0  0  0  0  0  0
  -16.7259  -28.6511   23.0344 C   0  0  0  0  0  0
  -26.4456  -31.6600   25.0733 C   0  0  0  0  0  0
  -25.3714  -31.3717   26.1480 C   0  0  0  0  0  0
  -27.0290  -30.3046   24.6122 C   0  0  0  0  0  0
  -27.6020  -32.4322   25.7508 C   0  0  0  0  0  0
  -27.5581  -37.1821   24.8456 C   0  0  0  0  0  0
  -21.4166  -29.3031   22.3742 N   0  0  0  0  0  0
  -26.4286  -37.3797   23.9406 N   0  0  0  0  0  0
  -24.6774  -31.0682   22.1008 N   0  0  0  0  0  0
  -23.4203  -28.8154   23.3017 O   0  0  0  0  0  0
  -28.3728  -26.6148   19.9857 O   0  0  0  0  0  0
  -26.5611  -34.8921   22.4679 O   0  0  0  0  0  0
  -23.5383  -32.1418   23.7432 O   0  0  0  0  0  0
  -30.0337  -22.2857   21.5449 C   0  0  0  0  0  0
  -30.7089  -21.2165   22.1537 C   0  0  0  0  0  0
  -28.6942  -20.6403   20.3831 C   0  0  0  0  0  0
  -29.0068  -22.0164   20.6296 C   0  0  0  0  0  0
  -29.4429  -19.6026   21.0407 C   0  0  0  0  0  0
  -28.8722  -17.3906   22.2605 C   0  0  0  0  0  0
  -29.0087  -15.8845   21.9884 C   0  0  0  0  0  0
  -29.1519  -18.0643   20.9189 C   0  0  2  0  0  0
  -30.2307  -17.0816   20.3329 C   0  0  2  0  0  0
  -27.5444  -20.2952   19.4435 C   0  0  0  0  0  0
  -29.1707  -16.7681   17.9810 C   0  0  0  0  0  0
  -30.9742  -18.5036   18.3330 C   0  0  0  0  0  0
  -28.5725  -25.5006   20.8940 C   0  0  0  0  0  0
  -27.7860  -24.1475   20.7208 C   0  0  0  0  0  0
  -30.4234  -17.1484   18.7891 C   0  0  0  0  0  0
  -30.4368  -19.9200   21.9011 N   0  0  0  0  0  0
  -29.8927  -15.7009   20.8235 N   0  0  0  0  0  0
  -28.3778  -23.0631   19.9551 O   0  0  0  0  0  0
  -31.4691  -12.5023   19.1193 H   0  0  0  0  0  0
  -30.3518  -11.3554   19.7956 H   0  0  0  0  0  0
  -29.7504  -11.8520   17.4148 H   0  0  0  0  0  0
  -29.6674  -13.5530   17.7734 H   0  0  0  0  0  0
  -27.7936  -11.3689   18.7274 H   0  0  0  0  0  0
  -27.3770  -12.7666   17.7698 H   0  0  0  0  0  0
  -27.6939  -14.2752   19.6414 H   0  0  0  0  0  0
  -28.7207  -11.8830   21.2165 H   0  0  0  0  0  0
  -28.4598  -13.4120   21.9319 H   0  0  0  0  0  0
  -25.2727   -9.5702   22.4770 H   0  0  0  0  0  0
  -23.9997   -7.4616   22.7488 H   0  0  0  0  0  0
  -21.0816   -8.8731   19.8985 H   0  0  0  0  0  0
  -22.3648  -10.9632   19.6154 H   0  0  0  0  0  0
  -21.1985   -7.6143   23.9733 H   0  0  0  0  0  0
  -21.1515   -6.0511   25.9107 H   0  0  0  0  0  0
  -22.0589   -2.7600   23.2818 H   0  0  0  0  0  0
  -22.3992  -11.9906   22.4774 H   0  0  0  0  0  0
  -21.1055  -13.1334   22.2545 H   0  0  0  0  0  0
  -24.6533  -15.8368   20.5575 H   0  0  0  0  0  0
  -26.2824  -15.6465   20.1511 H   0  0  0  0  0  0
  -26.7130  -32.5487   23.1138 H   0  0  0  0  0  0
  -25.0032  -33.9770   25.0429 H   0  0  0  0  0  0
  -22.7010  -31.3042   21.4089 H   0  0  0  0  0  0
  -23.3755  -35.9643   23.3293 H   0  0  0  0  0  0
  -24.3579  -36.8942   22.2055 H   0  0  0  0  0  0
  -23.7229  -37.6510   23.6661 H   0  0  0  0  0  0
  -26.0658  -31.5670   20.5989 H   0  0  0  0  0  0
  -26.8330  -30.8613   21.9910 H   0  0  0  0  0  0
  -28.1155  -29.0464   21.1546 H   0  0  0  0  0  0
  -26.0414  -25.9643   18.9659 H   0  0  0  0  0  0
  -23.9729  -27.3049   19.0110 H   0  0  0  0  0  0
  -23.7458  -30.5923   19.4097 H   0  0  0  0  0  0
  -22.7444  -29.2448   19.8624 H   0  0  0  0  0  0
  -25.1290  -36.1959   25.0829 H   0  0  0  0  0  0
  -20.9949  -28.3218   24.1451 H   0  0  0  0  0  0
  -20.5624  -26.2275   23.3632 H   0  0  0  0  0  0
  -21.6617  -26.7402   22.1251 H   0  0  0  0  0  0
  -19.6883  -25.6279   21.1262 H   0  0  0  0  0  0
  -19.6696  -27.3170   20.6757 H   0  0  0  0  0  0
  -17.4196  -26.6699   21.4006 H   0  0  0  0  0  0
  -18.0279  -26.0064   22.9007 H   0  0  0  0  0  0
  -19.7939  -30.7247   24.2278 H   0  0  0  0  0  0
  -17.5020  -31.6273   24.5160 H   0  0  0  0  0  0
  -15.5344  -30.2993   23.7653 H   0  0  0  0  0  0
  -15.8660  -28.0833   22.7041 H   0  0  0  0  0  0
  -24.5875  -30.7078   25.7814 H   0  0  0  0  0  0
  -24.8924  -32.2883   26.4939 H   0  0  0  0  0  0
  -25.8063  -30.8874   27.0235 H   0  0  0  0  0  0
  -26.2853  -29.6827   24.1132 H   0  0  0  0  0  0
  -27.4013  -29.7244   25.4570 H   0  0  0  0  0  0
  -27.8700  -30.4362   23.9311 H   0  0  0  0  0  0
  -27.2635  -33.3627   26.2066 H   0  0  0  0  0  0
  -28.3852  -32.6869   25.0360 H   0  0  0  0  0  0
  -28.0656  -31.8459   26.5447 H   0  0  0  0  0  0
  -28.2597  -38.0121   24.7506 H   0  0  0  0  0  0
  -28.1079  -36.2654   24.6272 H   0  0  0  0  0  0
  -27.2310  -37.1459   25.8863 H   0  0  0  0  0  0
  -20.9334  -29.8804   21.7006 H   0  0  0  0  0  0
  -26.0174  -38.2875   24.1415 H   0  0  0  0  0  0
  -30.3342  -23.2980   21.7718 H   0  0  0  0  0  0
  -31.4997  -21.4109   22.8623 H   0  0  0  0  0  0
  -29.6290  -17.6803   22.9905 H   0  0  0  0  0  0
  -27.9061  -17.6668   22.6826 H   0  0  0  0  0  0
  -28.0157  -15.5033   21.7552 H   0  0  0  0  0  0
  -29.3816  -15.3603   22.8709 H   0  0  0  0  0  0
  -28.2445  -17.9343   20.3306 H   0  0  0  0  0  0
  -31.1839  -17.3327   20.8037 H   0  0  0  0  0  0
  -27.0206  -21.1810   19.0843 H   0  0  0  0  0  0
  -26.8067  -19.6735   19.9525 H   0  0  0  0  0  0
  -27.9068  -19.7523   18.5718 H   0  0  0  0  0  0
  -28.6992  -15.8586   18.3474 H   0  0  0  0  0  0
  -29.4317  -16.5924   16.9370 H   0  0  0  0  0  0
  -28.4234  -17.5607   17.9989 H   0  0  0  0  0  0
  -31.8393  -18.7993   18.9291 H   0  0  0  0  0  0
  -30.2253  -19.2887   18.4170 H   0  0  0  0  0  0
  -31.2908  -18.4651   17.2911 H   0  0  0  0  0  0
  -29.6410  -25.2911   20.9000 H   0  0  0  0  0  0
  -28.3578  -25.8821   21.8926 H   0  0  0  0  0  0
  -26.7945  -24.3349   20.3121 H   0  0  0  0  0  0
  -27.5922  -23.7621   21.7233 H   0  0  0  0  0  0
  -31.1949  -16.4292   18.5159 H   0  0  0  0  0  0
  1 25  1  0  0  0
  1 30  2  0  0  0
  1 87  1  0  0  0
  2  3  1  0  0  0
  2 25  1  0  0  0
  2 89  1  0  0  0
  2 90  1  0  0  0
  3  4  1  0  0  0
  3 91  1  0  0  0
  3 92  1  0  0  0
  4  5  1  0  0  0
  4 93  1  0  0  0
  4 94  1  0  0  0
  5  6  1  0  0  0
  5 26  1  0  0  0
  5 95  1  0  0  0
  6 25  1  0  0  0
  6 96  1  0  0  0
  6 97  1  0  0  0
  7  8  2  0  0  0
  7 26  1  0  0  0
  7 29  1  0  0  0
  8  9  1  0  0  0
  8 22  1  0  0  0
  9 10  1  0  0  0
  9 27  2  0  0  0
 10 11  2  0  0  0
 10 15  1  0  0  0
 11 12  1  0  0  0
 11 98  1  0  0  0
 12 13  2  0  0  0
 12 99  1  0  0  0
 13 14  1  0  0  0
 13 31  1  0  0  0
 14 15  2  0  0  0
 14100  1  0  0  0
 15101  1  0  0  0
 16 17  2  0  0  0
 16 21  1  0  0  0
 16 31  1  0  0  0
 17 18  1  0  0  0
 17102  1  0  0  0
 18 19  2  0  0  0
 18103  1  0  0  0
 19 20  1  0  0  0
 19 24  1  0  0  0
 20 21  2  0  0  0
 20104  1  0  0  0
 21 23  1  0  0  0
 22 28  1  0  0  0
 22 32  2  0  0  0
 26 27  1  0  0  0
 28105  1  0  0  0
 28106  1  0  0  0
 29107  1  0  0  0
 29108  1  0  0  0
 33 34  1  0  0  0
 33 66  1  0  0  0
 33 70  2  0  0  0
 34 36  1  0  0  0
 34 59  1  0  0  0
 34109  1  0  0  0
 35 44  2  0  0  0
 35 45  1  0  0  0
 35 68  1  0  0  0
 36 56  1  0  0  0
 36110  1  0  0  0
 37 39  1  0  0  0
 37 47  1  0  0  0
 37 66  1  0  0  0
 37111  1  0  0  0
 38 43  2  0  0  0
 38 46  1  0  0  0
 38 47  1  0  0  0
 39 64  1  0  0  0
 39 67  2  0  0  0
 40 52  1  0  0  0
 40 53  2  0  0  0
 40 58  1  0  0  0
 41112  1  0  0  0
 41113  1  0  0  0
 41114  1  0  0  0
 41 48  1  0  0  0
 42 43  1  0  0  0
 42 66  1  0  0  0
 42115  1  0  0  0
 42116  1  0  0  0
 43 44  1  0  0  0
 44117  1  0  0  0
 45 46  2  0  0  0
 45118  1  0  0  0
 46119  1  0  0  0
 47120  1  0  0  0
 47121  1  0  0  0
 48 56  1  0  0  0
 48 65  1  0  0  0
 48122  1  0  0  0
 49 50  1  0  0  0
 49 53  1  0  0  0
 49 64  1  0  0  0
 49123  1  0  0  0
 50 51  1  0  0  0
 50124  1  0  0  0
 50125  1  0  0  0
 51 52  1  0  0  0
 51126  1  0  0  0
 51127  1  0  0  0
 52128  1  0  0  0
 52129  1  0  0  0
 53 54  1  0  0  0
 54 55  2  0  0  0
 54130  1  0  0  0
 55 57  1  0  0  0
 55131  1  0  0  0
 56 69  2  0  0  0
 57 58  2  0  0  0
 57132  1  0  0  0
 58133  1  0  0  0
 59 60  1  0  0  0
 59 61  1  0  0  0
 59 62  1  0  0  0
 60134  1  0  0  0
 60135  1  0  0  0
 60136  1  0  0  0
 61137  1  0  0  0
 61138  1  0  0  0
 61139  1  0  0  0
 62140  1  0  0  0
 62141  1  0  0  0
 62142  1  0  0  0
 63 65  1  0  0  0
 63143  1  0  0  0
 63144  1  0  0  0
 63145  1  0  0  0
 64146  1  0  0  0
 65147  1  0  0  0
 68 83  1  0  0  0
 71 72  2  0  0  0
 71 74  1  0  0  0
 71148  1  0  0  0
 72 86  1  0  0  0
 72149  1  0  0  0
 73 74  2  0  0  0
 73 75  1  0  0  0
 73 80  1  0  0  0
 74 88  1  0  0  0
 75 86  2  0  0  0
 75 78  1  0  0  0
 76 77  1  0  0  0
 76 78  1  0  0  0
 76150  1  0  0  0
 76151  1  0  0  0
 77 87  1  0  0  0
 77152  1  0  0  0
 77153  1  0  0  0
 78 79  1  0  0  0
 78154  1  0  0  0
 79 85  1  0  0  0
 79 87  1  0  0  0
 79155  1  0  0  0
 80156  1  0  0  0
 80157  1  0  0  0
 80158  1  0  0  0
 81159  1  0  0  0
 81160  1  0  0  0
 81161  1  0  0  0
 81 85  1  0  0  0
 82 85  1  0  0  0
 82162  1  0  0  0
 82163  1  0  0  0
 82164  1  0  0  0
 83 84  1  0  0  0
 83165  1  0  0  0
 83166  1  0  0  0
 84 88  1  0  0  0
 84167  1  0  0  0
 84168  1  0  0  0
 85169  1  0  0  0
M  ISO  4   1 100  68 101  83 101  87 100
M  END
> <chiral flag>
0

> <version>
0

> <s_m_source_file>
/data/baiqing/PycharmProjects/Reinvent-master-3.2/result/LINK_invent/BTK/process_docking_weight1_custom_sum_contain_oxygen_bond_distance_aromatic_linkinvent_7_9_3/rearranged_h_0145.sdf

> <i_m_source_file_index>
73

> <r_mmod_Potential_Energy-OPLS-2005>
88.9554977416992

> <r_mmod_Stretch_Energy-OPLS-2005>
66.7041168212891

> <r_mmod_Bend_Energy-OPLS-2005>
172.811569213867

> <r_mmod_Torsional_Energy-OPLS-2005>
351.009979248047

> <r_mmod_Improper_Torsional_Energy-OPLS-2005>
11.5295114517212

> <r_mmod_Van_der_Waal_Energy-OPLS-2005>
137.88020324707

> <r_mmod_Electrostatic_Energy-OPLS-2005>
-467.958801269531

> <r_mmod_Solvation_Energy-OPLS-2005>
-207.947265625

> <b_mmod_Minimization_Converged-OPLS-2005>
0

> <r_mmod_RMS_Derivative-OPLS-2005>
3.87870287895203

$$$$
74
                    3D
 Structure written by MMmdl.
180190  0  0  1  0            999 V2000
  -30.7017  -14.6780   20.4014 C   0  0  0  0  0  0
  -30.4110  -12.4048   19.4737 C   0  0  0  0  0  0
  -29.4980  -12.5055   18.2352 C   0  0  0  0  0  0
  -28.0341  -12.3242   18.6673 C   0  0  0  0  0  0
  -27.6428  -13.2439   19.8540 C   0  0  2  0  0  0
  -28.6918  -13.2120   20.9892 C   0  0  0  0  0  0
  -25.2482  -13.8234   20.5747 C   0  0  0  0  0  0
  -24.1779  -13.0421   20.9240 C   0  0  0  0  0  0
  -24.6412  -11.6933   20.8756 C   0  0  0  0  0  0
  -23.9116  -10.4276   21.0426 C   0  0  0  0  0  0
  -24.3671   -9.4179   21.9196 C   0  0  0  0  0  0
  -23.6314   -8.2240   22.0767 C   0  0  0  0  0  0
  -22.4296   -8.0298   21.3568 C   0  0  0  0  0  0
  -21.9946   -9.0279   20.4657 C   0  0  0  0  0  0
  -22.7310  -10.2129   20.3056 C   0  0  0  0  0  0
  -21.6837   -6.0763   22.5282 C   0  0  0  0  0  0
  -21.4041   -6.5645   23.8233 C   0  0  0  0  0  0
  -21.3696   -5.6790   24.9192 C   0  0  0  0  0  0
  -21.6037   -4.3056   24.7215 C   0  0  0  0  0  0
  -21.8799   -3.8160   23.4339 C   0  0  0  0  0  0
  -21.9180   -4.6989   22.3390 C   0  0  0  0  0  0
  -22.7812  -13.5223   21.1877 C   0  0  0  0  0  0
  -22.1628   -4.2185   21.0967 F   0  0  0  0  0  0
  -21.5628   -3.4521   25.7725 F   0  0  0  0  0  0
  -30.0162  -13.4866   20.4050 N   0  0  0  0  0  0
  -26.2956  -12.9481   20.3361 N   0  0  0  0  0  0
  -25.9350  -11.6594   20.5775 N   0  0  0  0  0  0
  -22.0453  -12.8219   22.0444 N   0  0  0  0  0  0
  -25.4059  -15.1968   20.4212 N   0  0  0  0  0  0
  -31.8633  -14.7033   20.0148 O   0  0  0  0  0  0
  -21.6631   -6.8917   21.4242 O   0  0  0  0  0  0
  -22.3502  -14.5539   20.6733 O   0  0  0  0  0  0
  -24.6281  -31.8581   23.2039 C   0  0  0  0  0  0
  -25.9142  -32.4750   23.8359 C   0  0  1  0  0  0
  -27.2123  -27.3092   20.1131 C   0  0  0  0  0  0
  -25.5974  -33.8560   24.2293 N   0  0  0  0  0  0
  -23.4233  -30.4819   21.5451 C   0  0  2  0  0  0
  -24.8653  -28.9361   20.1093 C   0  0  0  0  0  0
  -22.7503  -29.4597   22.4935 C   0  0  0  0  0  0
  -18.0294  -28.1379   22.8483 C   0  0  0  0  0  0
  -24.1476  -36.7256   23.2640 C   0  0  0  0  0  0
  -25.9656  -30.7756   21.3849 C   0  0  0  0  0  0
  -26.0331  -29.4075   20.7213 C   0  0  0  0  0  0
  -27.2091  -28.6017   20.7197 C   0  0  0  0  0  0
  -26.0267  -26.9018   19.4580 C   0  0  0  0  0  0
  -24.8625  -27.6899   19.4684 C   0  0  0  0  0  0
  -23.6380  -29.8193   20.1594 C   0  0  0  0  0  0
  -25.4102  -36.3070   24.0338 C   0  0  1  0  0  0
  -20.5897  -28.3676   23.1282 C   0  0  2  0  0  0
  -20.6775  -26.9403   22.5398 C   0  0  0  0  0  0
  -19.5750  -26.6383   21.5203 C   0  0  0  0  0  0
  -18.1935  -26.7918   22.1625 C   0  0  0  0  0  0
  -19.1549  -28.8850   23.2870 C   0  0  0  0  0  0
  -18.9468  -30.1450   23.8877 C   0  0  0  0  0  0
  -17.6465  -30.6573   24.0565 C   0  0  0  0  0  0
  -25.9043  -34.9438   23.5111 C   0  0  0  0  0  0
  -16.5355  -29.9062   23.6351 C   0  0  0  0  0  0
  -16.7277  -28.6494   23.0351 C   0  0  0  0  0  0
  -26.4521  -31.6569   25.0740 C   0  0  0  0  0  0
  -25.3753  -31.3730   26.1471 C   0  0  0  0  0  0
  -27.0367  -30.2978   24.6238 C   0  0  0  0  0  0
  -27.6077  -32.4308   25.7508 C   0  0  0  0  0  0
  -27.5571  -37.1792   24.8478 C   0  0  0  0  0  0
  -21.4214  -29.3027   22.3682 N   0  0  0  0  0  0
  -26.4283  -37.3766   23.9411 N   0  0  0  0  0  0
  -24.6902  -31.0560   22.1008 N   0  0  0  0  0  0
  -23.4212  -28.8164   23.3040 O   0  0  0  0  0  0
  -28.3295  -26.4629   20.1537 O   0  0  0  0  0  0
  -26.5585  -34.8925   22.4655 O   0  0  0  0  0  0
  -23.5440  -32.1422   23.7347 O   0  0  0  0  0  0
  -32.9375  -18.9738   22.2454 C   0  0  0  0  0  0
  -30.9988  -20.3802   22.3428 C   0  0  0  0  0  0
  -32.3106  -18.1646   21.2796 C   0  0  0  0  0  0
  -30.3808  -19.6660   21.2871 C   0  0  0  0  0  0
  -30.9416  -18.3711   20.9076 C   0  0  0  0  0  0
  -32.2377  -20.0000   22.8787 C   0  0  0  0  0  0
  -30.2321  -22.8693   25.0178 C   0  0  0  0  0  0
  -30.9739  -23.0071   26.3244 C   0  0  0  0  0  0
  -28.7787  -22.6459   19.1812 C   0  0  0  0  0  0
  -28.4306  -22.8116   21.6276 C   0  0  0  0  0  0
  -28.8951  -24.2126   19.0980 C   0  0  0  0  0  0
  -28.5909  -24.3724   21.5575 C   0  0  0  0  0  0
  -29.2343  -22.0236   20.5402 C   0  0  1  0  0  0
  -31.6629  -22.3930   25.1231 C   0  0  0  0  0  0
  -28.1366  -24.9912   20.2094 C   0  0  1  0  0  0
  -33.2286  -17.1625   20.6153 C   0  0  0  0  0  0
  -30.4300  -17.3850   18.5609 C   0  0  0  0  0  0
  -29.1654  -20.4048   20.6305 C   0  0  0  0  0  0
  -31.9811  -20.9125   25.0602 C   0  0  0  0  0  0
  -30.1602  -17.2770   20.0775 C   0  0  2  0  0  0
  -29.9923  -15.8411   20.5785 N   0  0  0  0  0  0
  -32.8282  -20.6329   23.9454 O   0  0  0  0  0  0
  -31.4584  -12.4671   19.1698 H   0  0  0  0  0  0
  -30.3012  -11.4352   19.9602 H   0  0  0  0  0  0
  -29.7710  -11.7496   17.5002 H   0  0  0  0  0  0
  -29.6316  -13.4724   17.7419 H   0  0  0  0  0  0
  -27.9174  -11.2801   18.9655 H   0  0  0  0  0  0
  -27.3562  -12.4754   17.8277 H   0  0  0  0  0  0
  -27.6294  -14.2606   19.4575 H   0  0  0  0  0  0
  -28.6735  -12.2531   21.5105 H   0  0  0  0  0  0
  -28.4376  -13.9644   21.7394 H   0  0  0  0  0  0
  -25.2803   -9.5625   22.4790 H   0  0  0  0  0  0
  -23.9982   -7.4627   22.7500 H   0  0  0  0  0  0
  -21.0878   -8.8869   19.8961 H   0  0  0  0  0  0
  -22.3831  -10.9699   19.6178 H   0  0  0  0  0  0
  -21.2047   -7.6159   23.9777 H   0  0  0  0  0  0
  -21.1546   -6.0494   25.9105 H   0  0  0  0  0  0
  -22.0539   -2.7610   23.2806 H   0  0  0  0  0  0
  -22.4068  -11.9909   22.4849 H   0  0  0  0  0  0
  -21.1098  -13.1311   22.2670 H   0  0  0  0  0  0
  -24.6261  -15.8339   20.5458 H   0  0  0  0  0  0
  -26.2473  -15.6594   20.1035 H   0  0  0  0  0  0
  -26.7196  -32.5409   23.1092 H   0  0  0  0  0  0
  -25.0222  -33.9676   25.0519 H   0  0  0  0  0  0
  -22.7170  -31.3015   21.4002 H   0  0  0  0  0  0
  -23.3762  -35.9569   23.3315 H   0  0  0  0  0  0
  -24.3566  -36.8844   22.2050 H   0  0  0  0  0  0
  -23.7206  -37.6464   23.6625 H   0  0  0  0  0  0
  -26.1093  -31.5379   20.6187 H   0  0  0  0  0  0
  -26.8418  -30.8119   22.0202 H   0  0  0  0  0  0
  -28.1026  -28.9495   21.2184 H   0  0  0  0  0  0
  -25.9731  -25.9685   18.9181 H   0  0  0  0  0  0
  -23.9706  -27.3299   18.9717 H   0  0  0  0  0  0
  -23.7629  -30.5937   19.3998 H   0  0  0  0  0  0
  -22.7587  -29.2459   19.8603 H   0  0  0  0  0  0
  -25.1282  -36.1924   25.0831 H   0  0  0  0  0  0
  -20.9962  -28.3223   24.1415 H   0  0  0  0  0  0
  -20.5685  -26.2278   23.3592 H   0  0  0  0  0  0
  -21.6643  -26.7431   22.1192 H   0  0  0  0  0  0
  -19.6909  -25.6305   21.1208 H   0  0  0  0  0  0
  -19.6682  -27.3222   20.6755 H   0  0  0  0  0  0
  -17.4209  -26.6689   21.4012 H   0  0  0  0  0  0
  -18.0324  -26.0051   22.9014 H   0  0  0  0  0  0
  -19.7933  -30.7280   24.2236 H   0  0  0  0  0  0
  -17.5009  -31.6254   24.5165 H   0  0  0  0  0  0
  -15.5353  -30.2949   23.7673 H   0  0  0  0  0  0
  -15.8683  -28.0798   22.7054 H   0  0  0  0  0  0
  -24.5945  -30.7035   25.7843 H   0  0  0  0  0  0
  -24.8927  -32.2893   26.4869 H   0  0  0  0  0  0
  -25.8097  -30.8969   27.0264 H   0  0  0  0  0  0
  -26.2955  -29.6715   24.1256 H   0  0  0  0  0  0
  -27.4036  -29.7251   25.4766 H   0  0  0  0  0  0
  -27.8840  -30.4254   23.9497 H   0  0  0  0  0  0
  -27.2699  -33.3622   26.2070 H   0  0  0  0  0  0
  -28.3909  -32.6838   25.0346 H   0  0  0  0  0  0
  -28.0724  -31.8444   26.5449 H   0  0  0  0  0  0
  -28.2619  -38.0063   24.7510 H   0  0  0  0  0  0
  -28.1038  -36.2600   24.6326 H   0  0  0  0  0  0
  -27.2287  -37.1474   25.8884 H   0  0  0  0  0  0
  -20.9417  -29.8746   21.6879 H   0  0  0  0  0  0
  -26.0171  -38.2840   24.1424 H   0  0  0  0  0  0
  -33.9675  -18.7909   22.5248 H   0  0  0  0  0  0
  -30.5436  -21.2788   22.7222 H   0  0  0  0  0  0
  -30.0590  -23.7572   24.4151 H   0  0  0  0  0  0
  -29.4535  -22.1108   24.9615 H   0  0  0  0  0  0
  -30.6840  -22.3516   27.1430 H   0  0  0  0  0  0
  -31.2852  -24.0085   26.6233 H   0  0  0  0  0  0
  -29.3744  -22.2119   18.3781 H   0  0  0  0  0  0
  -27.7489  -22.3528   18.9713 H   0  0  0  0  0  0
  -27.3724  -22.5553   21.5507 H   0  0  0  0  0  0
  -28.7225  -22.4806   22.6218 H   0  0  0  0  0  0
  -28.5267  -24.5426   18.1273 H   0  0  0  0  0  0
  -29.9485  -24.4911   19.1298 H   0  0  0  0  0  0
  -29.6317  -24.6409   21.7427 H   0  0  0  0  0  0
  -28.0173  -24.8324   22.3620 H   0  0  0  0  0  0
  -30.2841  -22.3016   20.6361 H   0  0  0  0  0  0
  -32.4374  -23.0168   24.6857 H   0  0  0  0  0  0
  -27.0858  -24.7206   20.1287 H   0  0  0  0  0  0
  -34.2334  -17.5742   20.5176 H   0  0  0  0  0  0
  -32.9193  -16.9458   19.6003 H   0  0  0  0  0  0
  -33.3120  -16.2490   21.1996 H   0  0  0  0  0  0
  -31.3797  -16.9624   18.2381 H   0  0  0  0  0  0
  -30.4345  -18.4306   18.2504 H   0  0  0  0  0  0
  -29.6542  -16.8834   17.9840 H   0  0  0  0  0  0
  -29.0544  -19.9970   19.6250 H   0  0  0  0  0  0
  -28.2685  -20.0981   21.1707 H   0  0  0  0  0  0
  -31.0623  -20.3205   25.0706 H   0  0  0  0  0  0
  -32.5326  -20.6331   25.9575 H   0  0  0  0  0  0
  -29.1294  -17.6187   20.1667 H   0  0  0  0  0  0
  -29.0595  -15.6585   20.9155 H   0  0  0  0  0  0
  1 25  1  0  0  0
  1 30  2  0  0  0
  1 91  1  0  0  0
  2  3  1  0  0  0
  2 25  1  0  0  0
  2 93  1  0  0  0
  2 94  1  0  0  0
  3  4  1  0  0  0
  3 95  1  0  0  0
  3 96  1  0  0  0
  4  5  1  0  0  0
  4 97  1  0  0  0
  4 98  1  0  0  0
  5  6  1  0  0  0
  5 26  1  0  0  0
  5 99  1  0  0  0
  6 25  1  0  0  0
  6100  1  0  0  0
  6101  1  0  0  0
  7  8  2  0  0  0
  7 26  1  0  0  0
  7 29  1  0  0  0
  8  9  1  0  0  0
  8 22  1  0  0  0
  9 10  1  0  0  0
  9 27  2  0  0  0
 10 11  2  0  0  0
 10 15  1  0  0  0
 11 12  1  0  0  0
 11102  1  0  0  0
 12 13  2  0  0  0
 12103  1  0  0  0
 13 14  1  0  0  0
 13 31  1  0  0  0
 14 15  2  0  0  0
 14104  1  0  0  0
 15105  1  0  0  0
 16 17  2  0  0  0
 16 21  1  0  0  0
 16 31  1  0  0  0
 17 18  1  0  0  0
 17106  1  0  0  0
 18 19  2  0  0  0
 18107  1  0  0  0
 19 20  1  0  0  0
 19 24  1  0  0  0
 20 21  2  0  0  0
 20108  1  0  0  0
 21 23  1  0  0  0
 22 28  1  0  0  0
 22 32  2  0  0  0
 26 27  1  0  0  0
 28109  1  0  0  0
 28110  1  0  0  0
 29111  1  0  0  0
 29112  1  0  0  0
 33 34  1  0  0  0
 33 66  1  0  0  0
 33 70  2  0  0  0
 34 36  1  0  0  0
 34 59  1  0  0  0
 34113  1  0  0  0
 35 44  2  0  0  0
 35 45  1  0  0  0
 35 68  1  0  0  0
 36 56  1  0  0  0
 36114  1  0  0  0
 37 39  1  0  0  0
 37 47  1  0  0  0
 37 66  1  0  0  0
 37115  1  0  0  0
 38 43  2  0  0  0
 38 46  1  0  0  0
 38 47  1  0  0  0
 39 64  1  0  0  0
 39 67  2  0  0  0
 40 52  1  0  0  0
 40 53  2  0  0  0
 40 58  1  0  0  0
 41116  1  0  0  0
 41117  1  0  0  0
 41118  1  0  0  0
 41 48  1  0  0  0
 42 43  1  0  0  0
 42 66  1  0  0  0
 42119  1  0  0  0
 42120  1  0  0  0
 43 44  1  0  0  0
 44121  1  0  0  0
 45 46  2  0  0  0
 45122  1  0  0  0
 46123  1  0  0  0
 47124  1  0  0  0
 47125  1  0  0  0
 48 56  1  0  0  0
 48 65  1  0  0  0
 48126  1  0  0  0
 49 50  1  0  0  0
 49 53  1  0  0  0
 49 64  1  0  0  0
 49127  1  0  0  0
 50 51  1  0  0  0
 50128  1  0  0  0
 50129  1  0  0  0
 51 52  1  0  0  0
 51130  1  0  0  0
 51131  1  0  0  0
 52132  1  0  0  0
 52133  1  0  0  0
 53 54  1  0  0  0
 54 55  2  0  0  0
 54134  1  0  0  0
 55 57  1  0  0  0
 55135  1  0  0  0
 56 69  2  0  0  0
 57 58  2  0  0  0
 57136  1  0  0  0
 58137  1  0  0  0
 59 60  1  0  0  0
 59 61  1  0  0  0
 59 62  1  0  0  0
 60138  1  0  0  0
 60139  1  0  0  0
 60140  1  0  0  0
 61141  1  0  0  0
 61142  1  0  0  0
 61143  1  0  0  0
 62144  1  0  0  0
 62145  1  0  0  0
 62146  1  0  0  0
 63 65  1  0  0  0
 63147  1  0  0  0
 63148  1  0  0  0
 63149  1  0  0  0
 64150  1  0  0  0
 65151  1  0  0  0
 68 85  1  0  0  0
 71 73  2  0  0  0
 71 76  1  0  0  0
 71152  1  0  0  0
 72 74  1  0  0  0
 72 76  2  0  0  0
 72153  1  0  0  0
 73 75  1  0  0  0
 73 86  1  0  0  0
 74 75  2  0  0  0
 74 88  1  0  0  0
 75 90  1  0  0  0
 76 92  1  0  0  0
 77 78  1  0  0  0
 77 84  1  0  0  0
 77154  1  0  0  0
 77155  1  0  0  0
 78 84  1  0  0  0
 78156  1  0  0  0
 78157  1  0  0  0
 79 81  1  0  0  0
 79 83  1  0  0  0
 79158  1  0  0  0
 79159  1  0  0  0
 80 82  1  0  0  0
 80 83  1  0  0  0
 80160  1  0  0  0
 80161  1  0  0  0
 81 85  1  0  0  0
 81162  1  0  0  0
 81163  1  0  0  0
 82 85  1  0  0  0
 82164  1  0  0  0
 82165  1  0  0  0
 83 88  1  0  0  0
 83166  1  0  0  0
 84 89  1  0  0  0
 84167  1  0  0  0
 85168  1  0  0  0
 86169  1  0  0  0
 86170  1  0  0  0
 86171  1  0  0  0
 87172  1  0  0  0
 87173  1  0  0  0
 87174  1  0  0  0
 87 90  1  0  0  0
 88175  1  0  0  0
 88176  1  0  0  0
 89 92  1  0  0  0
 89177  1  0  0  0
 89178  1  0  0  0
 90 91  1  0  0  0
 90179  1  0  0  0
 91180  1  0  0  0
M  ISO  4   1 100  68 101  85 101  91 100
M  END
> <chiral flag>
0

> <version>
0

> <s_m_source_file>
/data/baiqing/PycharmProjects/Reinvent-master-3.2/result/LINK_invent/BTK/process_docking_weight1_custom_sum_contain_oxygen_bond_distance_aromatic_linkinvent_7_9_3/rearranged_h_0145.sdf

> <i_m_source_file_index>
74

> <r_mmod_Potential_Energy-OPLS-2005>
222.123229980469

> <r_mmod_Stretch_Energy-OPLS-2005>
97.9348220825195

> <r_mmod_Bend_Energy-OPLS-2005>
177.78759765625

> <r_mmod_Torsional_Energy-OPLS-2005>
326.564453125

> <r_mmod_Improper_Torsional_Energy-OPLS-2005>
7.53650617599487

> <r_mmod_Van_der_Waal_Energy-OPLS-2005>
149.095718383789

> <r_mmod_Electrostatic_Energy-OPLS-2005>
-395.501190185547

> <r_mmod_Solvation_Energy-OPLS-2005>
-206.59944152832

> <b_mmod_Minimization_Converged-OPLS-2005>
0

> <r_mmod_RMS_Derivative-OPLS-2005>
5.22377967834473

$$$$
75
                    3D
 Structure written by MMmdl.
156165  0  0  1  0            999 V2000
  -30.6703  -14.6766   20.4946 C   0  0  0  0  0  0
  -30.4288  -12.4182   19.4740 C   0  0  0  0  0  0
  -29.5082  -12.4961   18.2369 C   0  0  0  0  0  0
  -28.0342  -12.3267   18.6552 C   0  0  0  0  0  0
  -27.6458  -13.2308   19.8554 C   0  0  2  0  0  0
  -28.6922  -13.1534   20.9895 C   0  0  0  0  0  0
  -25.2516  -13.8205   20.5720 C   0  0  0  0  0  0
  -24.1800  -13.0441   20.9220 C   0  0  0  0  0  0
  -24.6395  -11.6925   20.8758 C   0  0  0  0  0  0
  -23.9073  -10.4295   21.0412 C   0  0  0  0  0  0
  -24.3611   -9.4206   21.9197 C   0  0  0  0  0  0
  -23.6289   -8.2241   22.0754 C   0  0  0  0  0  0
  -22.4275   -8.0275   21.3541 C   0  0  0  0  0  0
  -21.9915   -9.0246   20.4647 C   0  0  0  0  0  0
  -22.7246  -10.2134   20.3063 C   0  0  0  0  0  0
  -21.6851   -6.0739   22.5282 C   0  0  0  0  0  0
  -21.4006   -6.5634   23.8215 C   0  0  0  0  0  0
  -21.3670   -5.6790   24.9180 C   0  0  0  0  0  0
  -21.6041   -4.3056   24.7238 C   0  0  0  0  0  0
  -21.8815   -3.8149   23.4355 C   0  0  0  0  0  0
  -21.9185   -4.6964   22.3406 C   0  0  0  0  0  0
  -22.7826  -13.5227   21.1880 C   0  0  0  0  0  0
  -22.1655   -4.2151   21.0990 F   0  0  0  0  0  0
  -21.5644   -3.4540   25.7751 F   0  0  0  0  0  0
  -30.0030  -13.4791   20.4118 N   0  0  0  0  0  0
  -26.2964  -12.9416   20.3326 N   0  0  0  0  0  0
  -25.9329  -11.6556   20.5775 N   0  0  0  0  0  0
  -22.0464  -12.8204   22.0423 N   0  0  0  0  0  0
  -25.4207  -15.1925   20.4155 N   0  0  0  0  0  0
  -31.8479  -14.7641   20.1432 O   0  0  0  0  0  0
  -21.6637   -6.8881   21.4241 O   0  0  0  0  0  0
  -22.3505  -14.5543   20.6749 O   0  0  0  0  0  0
  -24.6306  -31.8580   23.2032 C   0  0  0  0  0  0
  -25.9147  -32.4769   23.8370 C   0  0  1  0  0  0
  -27.2085  -27.2816   20.1175 C   0  0  0  0  0  0
  -25.5937  -33.8560   24.2280 N   0  0  0  0  0  0
  -23.4242  -30.4878   21.5483 C   0  0  2  0  0  0
  -24.8655  -28.9446   20.1131 C   0  0  0  0  0  0
  -22.7494  -29.4629   22.4936 C   0  0  0  0  0  0
  -18.0292  -28.1392   22.8486 C   0  0  0  0  0  0
  -24.1483  -36.7304   23.2645 C   0  0  0  0  0  0
  -25.9702  -30.7770   21.3823 C   0  0  0  0  0  0
  -26.0412  -29.4029   20.7217 C   0  0  0  0  0  0
  -27.2162  -28.5846   20.7155 C   0  0  0  0  0  0
  -26.0031  -26.8953   19.4793 C   0  0  0  0  0  0
  -24.8526  -27.6961   19.4834 C   0  0  0  0  0  0
  -23.6370  -29.8314   20.1620 C   0  0  0  0  0  0
  -25.4113  -36.3086   24.0325 C   0  0  1  0  0  0
  -20.5877  -28.3695   23.1267 C   0  0  2  0  0  0
  -20.6780  -26.9412   22.5401 C   0  0  0  0  0  0
  -19.5762  -26.6379   21.5207 C   0  0  0  0  0  0
  -18.1927  -26.7933   22.1607 C   0  0  0  0  0  0
  -19.1547  -28.8868   23.2863 C   0  0  0  0  0  0
  -18.9465  -30.1466   23.8900 C   0  0  0  0  0  0
  -17.6479  -30.6599   24.0559 C   0  0  0  0  0  0
  -25.9055  -34.9436   23.5101 C   0  0  0  0  0  0
  -16.5367  -29.9082   23.6338 C   0  0  0  0  0  0
  -16.7279  -28.6492   23.0367 C   0  0  0  0  0  0
  -26.4504  -31.6623   25.0778 C   0  0  0  0  0  0
  -25.3716  -31.3729   26.1500 C   0  0  0  0  0  0
  -27.0386  -30.3051   24.6264 C   0  0  0  0  0  0
  -27.6076  -32.4395   25.7523 C   0  0  0  0  0  0
  -27.5581  -37.1800   24.8455 C   0  0  0  0  0  0
  -21.4198  -29.3064   22.3683 N   0  0  0  0  0  0
  -26.4287  -37.3784   23.9403 N   0  0  0  0  0  0
  -24.6948  -31.0565   22.1002 N   0  0  0  0  0  0
  -23.4209  -28.8145   23.2998 O   0  0  0  0  0  0
  -28.3008  -26.3860   20.1803 O   0  0  0  0  0  0
  -26.5615  -34.8905   22.4653 O   0  0  0  0  0  0
  -23.5468  -32.1402   23.7358 O   0  0  0  0  0  0
  -28.2429  -22.9931   20.8899 C   0  0  0  0  0  0
  -29.0199  -23.7749   19.9553 C   0  0  0  0  0  0
  -28.5428  -21.6436   21.2307 C   0  0  0  0  0  0
  -30.0454  -23.1047   19.2735 C   0  0  0  0  0  0
  -29.6590  -21.0654   20.5334 C   0  0  0  0  0  0
  -27.2655  -24.1070   20.9890 C   0  0  0  0  0  0
  -28.0197  -24.9593   19.8231 C   0  0  1  0  0  0
  -27.7246  -20.8872   22.2580 C   0  0  0  0  0  0
  -30.7632  -23.7274   18.0984 C   0  0  0  0  0  0
  -30.5089  -17.2392   20.8049 C   0  0  0  0  0  0
  -29.5320  -18.5075   20.6691 C   0  0  0  0  0  0
  -30.3647  -21.8060   19.6086 N   0  0  0  0  0  0
  -29.9623  -15.8212   20.7840 N   0  0  0  0  0  0
  -26.2662  -24.2493   21.7021 O   0  0  0  0  0  0
  -30.2334  -19.7985   20.7897 O   0  0  0  0  0  0
  -31.4722  -12.5175   19.1749 H   0  0  0  0  0  0
  -30.3492  -11.4417   19.9543 H   0  0  0  0  0  0
  -29.7807  -11.7253   17.5148 H   0  0  0  0  0  0
  -29.6428  -13.4534   17.7325 H   0  0  0  0  0  0
  -27.8915  -11.2812   18.9260 H   0  0  0  0  0  0
  -27.3736  -12.5144   17.8072 H   0  0  0  0  0  0
  -27.6450  -14.2543   19.4769 H   0  0  0  0  0  0
  -28.7111  -12.1564   21.4302 H   0  0  0  0  0  0
  -28.4375  -13.8390   21.8006 H   0  0  0  0  0  0
  -25.2750   -9.5698   22.4788 H   0  0  0  0  0  0
  -24.0007   -7.4637   22.7471 H   0  0  0  0  0  0
  -21.0860   -8.8775   19.8945 H   0  0  0  0  0  0
  -22.3703  -10.9681   19.6177 H   0  0  0  0  0  0
  -21.1980   -7.6140   23.9724 H   0  0  0  0  0  0
  -21.1503   -6.0521   25.9087 H   0  0  0  0  0  0
  -22.0581   -2.7609   23.2859 H   0  0  0  0  0  0
  -22.4052  -11.9839   22.4798 H   0  0  0  0  0  0
  -21.1071  -13.1239   22.2647 H   0  0  0  0  0  0
  -24.6531  -15.8467   20.5257 H   0  0  0  0  0  0
  -26.2683  -15.6324   20.0799 H   0  0  0  0  0  0
  -26.7215  -32.5394   23.1119 H   0  0  0  0  0  0
  -25.0105  -33.9700   25.0438 H   0  0  0  0  0  0
  -22.7227  -31.3126   21.4104 H   0  0  0  0  0  0
  -23.3759  -35.9621   23.3297 H   0  0  0  0  0  0
  -24.3581  -36.8938   22.2062 H   0  0  0  0  0  0
  -23.7229  -37.6492   23.6685 H   0  0  0  0  0  0
  -26.1093  -31.5368   20.6131 H   0  0  0  0  0  0
  -26.8507  -30.8237   22.0106 H   0  0  0  0  0  0
  -28.1145  -28.9317   21.2073 H   0  0  0  0  0  0
  -25.8870  -25.9503   18.9770 H   0  0  0  0  0  0
  -23.9519  -27.3389   19.0040 H   0  0  0  0  0  0
  -23.7573  -30.6116   19.4112 H   0  0  0  0  0  0
  -22.7547  -29.2649   19.8582 H   0  0  0  0  0  0
  -25.1286  -36.1927   25.0819 H   0  0  0  0  0  0
  -20.9981  -28.3279   24.1379 H   0  0  0  0  0  0
  -20.5693  -26.2294   23.3594 H   0  0  0  0  0  0
  -21.6647  -26.7425   22.1185 H   0  0  0  0  0  0
  -19.6900  -25.6280   21.1247 H   0  0  0  0  0  0
  -19.6694  -27.3190   20.6734 H   0  0  0  0  0  0
  -17.4185  -26.6700   21.4009 H   0  0  0  0  0  0
  -18.0322  -26.0053   22.8985 H   0  0  0  0  0  0
  -19.7954  -30.7270   24.2266 H   0  0  0  0  0  0
  -17.5027  -31.6284   24.5158 H   0  0  0  0  0  0
  -15.5368  -30.2984   23.7677 H   0  0  0  0  0  0
  -15.8665  -28.0812   22.7103 H   0  0  0  0  0  0
  -24.5907  -30.7059   25.7832 H   0  0  0  0  0  0
  -24.8879  -32.2872   26.4969 H   0  0  0  0  0  0
  -25.8039  -30.8889   27.0265 H   0  0  0  0  0  0
  -26.2980  -29.6787   24.1285 H   0  0  0  0  0  0
  -27.4091  -29.7335   25.4777 H   0  0  0  0  0  0
  -27.8824  -30.4389   23.9496 H   0  0  0  0  0  0
  -27.2729  -33.3742   26.2047 H   0  0  0  0  0  0
  -28.3897  -32.6905   25.0352 H   0  0  0  0  0  0
  -28.0720  -31.8548   26.5471 H   0  0  0  0  0  0
  -28.2584  -38.0112   24.7561 H   0  0  0  0  0  0
  -28.1095  -36.2650   24.6230 H   0  0  0  0  0  0
  -27.2283  -37.1390   25.8850 H   0  0  0  0  0  0
  -20.9383  -29.8815   21.6905 H   0  0  0  0  0  0
  -26.0164  -38.2840   24.1471 H   0  0  0  0  0  0
  -27.5602  -24.8687   18.8409 H   0  0  0  0  0  0
  -27.0338  -21.5546   22.7782 H   0  0  0  0  0  0
  -28.3760  -20.4358   23.0086 H   0  0  0  0  0  0
  -27.1381  -20.1049   21.7763 H   0  0  0  0  0  0
  -30.2057  -24.5829   17.7169 H   0  0  0  0  0  0
  -30.8726  -23.0069   17.2887 H   0  0  0  0  0  0
  -31.7525  -24.0709   18.3955 H   0  0  0  0  0  0
  -31.0542  -17.3441   21.7448 H   0  0  0  0  0  0
  -31.2724  -17.3260   20.0273 H   0  0  0  0  0  0
  -28.7589  -18.4458   21.4331 H   0  0  0  0  0  0
  -29.0304  -18.4815   19.7010 H   0  0  0  0  0  0
  -28.9907  -15.7014   21.0258 H   0  0  0  0  0  0
  1 25  1  0  0  0
  1 30  2  0  0  0
  1 83  1  0  0  0
  2  3  1  0  0  0
  2 25  1  0  0  0
  2 86  1  0  0  0
  2 87  1  0  0  0
  3  4  1  0  0  0
  3 88  1  0  0  0
  3 89  1  0  0  0
  4  5  1  0  0  0
  4 90  1  0  0  0
  4 91  1  0  0  0
  5  6  1  0  0  0
  5 26  1  0  0  0
  5 92  1  0  0  0
  6 25  1  0  0  0
  6 93  1  0  0  0
  6 94  1  0  0  0
  7  8  2  0  0  0
  7 26  1  0  0  0
  7 29  1  0  0  0
  8  9  1  0  0  0
  8 22  1  0  0  0
  9 10  1  0  0  0
  9 27  2  0  0  0
 10 11  2  0  0  0
 10 15  1  0  0  0
 11 12  1  0  0  0
 11 95  1  0  0  0
 12 13  2  0  0  0
 12 96  1  0  0  0
 13 14  1  0  0  0
 13 31  1  0  0  0
 14 15  2  0  0  0
 14 97  1  0  0  0
 15 98  1  0  0  0
 16 17  2  0  0  0
 16 21  1  0  0  0
 16 31  1  0  0  0
 17 18  1  0  0  0
 17 99  1  0  0  0
 18 19  2  0  0  0
 18100  1  0  0  0
 19 20  1  0  0  0
 19 24  1  0  0  0
 20 21  2  0  0  0
 20101  1  0  0  0
 21 23  1  0  0  0
 22 28  1  0  0  0
 22 32  2  0  0  0
 26 27  1  0  0  0
 28102  1  0  0  0
 28103  1  0  0  0
 29104  1  0  0  0
 29105  1  0  0  0
 33 34  1  0  0  0
 33 66  1  0  0  0
 33 70  2  0  0  0
 34 36  1  0  0  0
 34 59  1  0  0  0
 34106  1  0  0  0
 35 44  2  0  0  0
 35 45  1  0  0  0
 35 68  1  0  0  0
 36 56  1  0  0  0
 36107  1  0  0  0
 37 39  1  0  0  0
 37 47  1  0  0  0
 37 66  1  0  0  0
 37108  1  0  0  0
 38 43  2  0  0  0
 38 46  1  0  0  0
 38 47  1  0  0  0
 39 64  1  0  0  0
 39 67  2  0  0  0
 40 52  1  0  0  0
 40 53  2  0  0  0
 40 58  1  0  0  0
 41109  1  0  0  0
 41110  1  0  0  0
 41111  1  0  0  0
 41 48  1  0  0  0
 42 43  1  0  0  0
 42 66  1  0  0  0
 42112  1  0  0  0
 42113  1  0  0  0
 43 44  1  0  0  0
 44114  1  0  0  0
 45 46  2  0  0  0
 45115  1  0  0  0
 46116  1  0  0  0
 47117  1  0  0  0
 47118  1  0  0  0
 48 56  1  0  0  0
 48 65  1  0  0  0
 48119  1  0  0  0
 49 50  1  0  0  0
 49 53  1  0  0  0
 49 64  1  0  0  0
 49120  1  0  0  0
 50 51  1  0  0  0
 50121  1  0  0  0
 50122  1  0  0  0
 51 52  1  0  0  0
 51123  1  0  0  0
 51124  1  0  0  0
 52125  1  0  0  0
 52126  1  0  0  0
 53 54  1  0  0  0
 54 55  2  0  0  0
 54127  1  0  0  0
 55 57  1  0  0  0
 55128  1  0  0  0
 56 69  2  0  0  0
 57 58  2  0  0  0
 57129  1  0  0  0
 58130  1  0  0  0
 59 60  1  0  0  0
 59 61  1  0  0  0
 59 62  1  0  0  0
 60131  1  0  0  0
 60132  1  0  0  0
 60133  1  0  0  0
 61134  1  0  0  0
 61135  1  0  0  0
 61136  1  0  0  0
 62137  1  0  0  0
 62138  1  0  0  0
 62139  1  0  0  0
 63 65  1  0  0  0
 63140  1  0  0  0
 63141  1  0  0  0
 63142  1  0  0  0
 64143  1  0  0  0
 65144  1  0  0  0
 68 77  1  0  0  0
 71 72  1  0  0  0
 71 73  2  0  0  0
 71 76  1  0  0  0
 72 74  2  0  0  0
 72 77  1  0  0  0
 73 75  1  0  0  0
 73 78  1  0  0  0
 74 79  1  0  0  0
 74 82  1  0  0  0
 75 82  2  0  0  0
 75 85  1  0  0  0
 76 77  1  0  0  0
 76 84  2  0  0  0
 77145  1  0  0  0
 78146  1  0  0  0
 78147  1  0  0  0
 78148  1  0  0  0
 79149  1  0  0  0
 79150  1  0  0  0
 79151  1  0  0  0
 80 81  1  0  0  0
 80 83  1  0  0  0
 80152  1  0  0  0
 80153  1  0  0  0
 81 85  1  0  0  0
 81154  1  0  0  0
 81155  1  0  0  0
 83156  1  0  0  0
M  ISO  4   1 100  68 101  77 101  83 100
M  END
> <chiral flag>
0

> <version>
0

> <s_m_source_file>
/data/baiqing/PycharmProjects/Reinvent-master-3.2/result/LINK_invent/BTK/process_docking_weight1_custom_sum_contain_oxygen_bond_distance_aromatic_linkinvent_7_9_3/rearranged_h_0145.sdf

> <i_m_source_file_index>
75

> <r_mmod_Potential_Energy-OPLS-2005>
331.481750488281

> <r_mmod_Stretch_Energy-OPLS-2005>
102.973167419434

> <r_mmod_Bend_Energy-OPLS-2005>
521.719055175781

> <r_mmod_Torsional_Energy-OPLS-2005>
271.170074462891

> <r_mmod_Improper_Torsional_Energy-OPLS-2005>
11.6733636856079

> <r_mmod_Van_der_Waal_Energy-OPLS-2005>
137.950164794922

> <r_mmod_Electrostatic_Energy-OPLS-2005>
-539.255065917969

> <r_mmod_Solvation_Energy-OPLS-2005>
-243.080505371094

> <b_mmod_Minimization_Converged-OPLS-2005>
0

> <r_mmod_RMS_Derivative-OPLS-2005>
3.74966812133789

$$$$
76
                    3D
 Structure written by MMmdl.
183194  0  0  1  0            999 V2000
  -30.8735  -14.3378   20.7103 C   0  0  0  0  0  0
  -30.3932  -12.2769   19.4526 C   0  0  0  0  0  0
  -29.4931  -12.5243   18.2287 C   0  0  0  0  0  0
  -28.0207  -12.3642   18.6286 C   0  0  0  0  0  0
  -27.6629  -13.2170   19.8691 C   0  0  2  0  0  0
  -28.6888  -13.0528   21.0128 C   0  0  0  0  0  0
  -25.2588  -13.8198   20.5683 C   0  0  0  0  0  0
  -24.1849  -13.0456   20.9172 C   0  0  0  0  0  0
  -24.6413  -11.6925   20.8726 C   0  0  0  0  0  0
  -23.9079  -10.4302   21.0395 C   0  0  0  0  0  0
  -24.3627   -9.4226   21.9188 C   0  0  0  0  0  0
  -23.6298   -8.2260   22.0762 C   0  0  0  0  0  0
  -22.4289   -8.0289   21.3549 C   0  0  0  0  0  0
  -21.9924   -9.0258   20.4647 C   0  0  0  0  0  0
  -22.7250  -10.2139   20.3050 C   0  0  0  0  0  0
  -21.6861   -6.0742   22.5282 C   0  0  0  0  0  0
  -21.4018   -6.5644   23.8208 C   0  0  0  0  0  0
  -21.3663   -5.6799   24.9171 C   0  0  0  0  0  0
  -21.6046   -4.3059   24.7220 C   0  0  0  0  0  0
  -21.8818   -3.8155   23.4346 C   0  0  0  0  0  0
  -21.9195   -4.6964   22.3397 C   0  0  0  0  0  0
  -22.7870  -13.5244   21.1843 C   0  0  0  0  0  0
  -22.1663   -4.2153   21.0977 F   0  0  0  0  0  0
  -21.5631   -3.4540   25.7732 F   0  0  0  0  0  0
  -30.0634  -13.2541   20.5136 N   0  0  0  0  0  0
  -26.3022  -12.9389   20.3314 N   0  0  0  0  0  0
  -25.9337  -11.6535   20.5735 N   0  0  0  0  0  0
  -22.0515  -12.8221   22.0392 N   0  0  0  0  0  0
  -25.4336  -15.1913   20.4142 N   0  0  0  0  0  0
  -31.7523  -14.6146   19.8869 O   0  0  0  0  0  0
  -21.6653   -6.8882   21.4240 O   0  0  0  0  0  0
  -22.3553  -14.5557   20.6709 O   0  0  0  0  0  0
  -24.6093  -31.8705   23.2118 C   0  0  0  0  0  0
  -25.9008  -32.4828   23.8421 C   0  0  1  0  0  0
  -27.2334  -27.4583   20.1028 C   0  0  0  0  0  0
  -25.5889  -33.8628   24.2353 N   0  0  0  0  0  0
  -23.3984  -30.4936   21.5474 C   0  0  2  0  0  0
  -24.8492  -28.9733   20.0996 C   0  0  0  0  0  0
  -22.7425  -29.4654   22.4957 C   0  0  0  0  0  0
  -18.0268  -28.1391   22.8491 C   0  0  0  0  0  0
  -24.1475  -36.7320   23.2632 C   0  0  0  0  0  0
  -25.9203  -30.8490   21.3546 C   0  0  0  0  0  0
  -26.0028  -29.4849   20.7052 C   0  0  0  0  0  0
  -27.1981  -28.7352   20.7123 C   0  0  0  0  0  0
  -26.0797  -26.9793   19.4517 C   0  0  0  0  0  0
  -24.8841  -27.7188   19.4652 C   0  0  0  0  0  0
  -23.6067  -29.8315   20.1572 C   0  0  0  0  0  0
  -25.4090  -36.3119   24.0347 C   0  0  1  0  0  0
  -20.5877  -28.3661   23.1343 C   0  0  2  0  0  0
  -20.6754  -26.9399   22.5428 C   0  0  0  0  0  0
  -19.5745  -26.6384   21.5228 C   0  0  0  0  0  0
  -18.1915  -26.7944   22.1610 C   0  0  0  0  0  0
  -19.1535  -28.8836   23.2904 C   0  0  0  0  0  0
  -18.9468  -30.1452   23.8907 C   0  0  0  0  0  0
  -17.6469  -30.6590   24.0574 C   0  0  0  0  0  0
  -25.9006  -34.9483   23.5138 C   0  0  0  0  0  0
  -16.5361  -29.9089   23.6313 C   0  0  0  0  0  0
  -16.7270  -28.6514   23.0320 C   0  0  0  0  0  0
  -26.4437  -31.6598   25.0732 C   0  0  0  0  0  0
  -25.3727  -31.3728   26.1494 C   0  0  0  0  0  0
  -27.0253  -30.3045   24.6052 C   0  0  0  0  0  0
  -27.6047  -32.4265   25.7494 C   0  0  0  0  0  0
  -27.5572  -37.1811   24.8480 C   0  0  0  0  0  0
  -21.4147  -29.3049   22.3756 N   0  0  0  0  0  0
  -26.4274  -37.3809   23.9426 N   0  0  0  0  0  0
  -24.6608  -31.0846   22.0981 N   0  0  0  0  0  0
  -23.4226  -28.8182   23.2957 O   0  0  0  0  0  0
  -28.3333  -26.6317   20.1523 O   0  0  0  0  0  0
  -26.5583  -34.8937   22.4707 O   0  0  0  0  0  0
  -23.5290  -32.1432   23.7532 O   0  0  0  0  0  0
  -26.1680  -18.6992   25.3604 C   0  0  0  0  0  0
  -26.5301  -17.3306   24.8243 C   0  0  0  0  0  0
  -25.5176  -24.5370   21.5310 C   0  0  0  0  0  0
  -25.5004  -24.5927   23.0407 C   0  0  0  0  0  0
  -31.4744  -17.1668   23.1545 C   0  0  0  0  0  0
  -29.5679  -15.7146   23.9391 C   0  0  0  0  0  0
  -27.3433  -21.6780   22.1532 C   0  0  0  0  0  0
  -31.5133  -16.3913   21.8275 C   0  0  0  0  0  0
  -30.4177  -14.6566   23.1884 C   0  0  0  0  0  0
  -27.5827  -18.4059   24.9190 C   0  0  0  0  0  0
  -26.5143  -25.4174   22.2665 C   0  0  0  0  0  0
  -30.0616  -17.1785   23.7457 C   0  0  0  0  0  0
  -28.7140  -21.3613   22.7071 C   0  0  1  0  0  0
  -28.1218  -22.7626   22.8550 C   0  0  1  0  0  0
  -29.0973  -18.0488   22.8894 C   0  0  0  0  0  0
  -28.7936  -20.4143   23.9070 C   0  0  0  0  0  0
  -28.8300  -26.3092   21.4655 C   0  0  0  0  0  0
  -28.1634  -19.0179   23.6530 C   0  0  2  0  0  0
  -28.0492  -25.2085   22.2664 C   0  0  2  0  0  0
  -30.7550  -15.1140   21.8274 N   0  0  0  0  0  0
  -28.5297  -23.8328   21.9089 N   0  3  0  0  0  0
  -31.4455  -12.3078   19.1623 H   0  0  0  0  0  0
  -30.2365  -11.2686   19.8368 H   0  0  0  0  0  0
  -29.7413  -11.8250   17.4284 H   0  0  0  0  0  0
  -29.6678  -13.5267   17.8325 H   0  0  0  0  0  0
  -27.8426  -11.3081   18.8372 H   0  0  0  0  0  0
  -27.3702  -12.6245   17.7929 H   0  0  0  0  0  0
  -27.6996  -14.2587   19.5484 H   0  0  0  0  0  0
  -28.6139  -12.0649   21.4699 H   0  0  0  0  0  0
  -28.4072  -13.7753   21.7774 H   0  0  0  0  0  0
  -25.2759   -9.5708   22.4774 H   0  0  0  0  0  0
  -24.0007   -7.4659   22.7490 H   0  0  0  0  0  0
  -21.0862   -8.8773   19.8949 H   0  0  0  0  0  0
  -22.3709  -10.9676   19.6163 H   0  0  0  0  0  0
  -21.2012   -7.6153   23.9712 H   0  0  0  0  0  0
  -21.1490   -6.0529   25.9074 H   0  0  0  0  0  0
  -22.0596   -2.7611   23.2839 H   0  0  0  0  0  0
  -22.4121  -11.9851   22.4733 H   0  0  0  0  0  0
  -21.1135  -13.1249   22.2601 H   0  0  0  0  0  0
  -24.6771  -15.8543   20.5381 H   0  0  0  0  0  0
  -26.3002  -15.6290   20.1276 H   0  0  0  0  0  0
  -26.7083  -32.5570   23.1203 H   0  0  0  0  0  0
  -25.0156  -33.9829   25.0586 H   0  0  0  0  0  0
  -22.6843  -31.3080   21.4121 H   0  0  0  0  0  0
  -23.3743  -35.9649   23.3312 H   0  0  0  0  0  0
  -24.3556  -36.8905   22.2042 H   0  0  0  0  0  0
  -23.7215  -37.6526   23.6617 H   0  0  0  0  0  0
  -26.0184  -31.6119   20.5826 H   0  0  0  0  0  0
  -26.8131  -30.9174   21.9623 H   0  0  0  0  0  0
  -28.0787  -29.1396   21.1903 H   0  0  0  0  0  0
  -26.0964  -26.0072   18.9759 H   0  0  0  0  0  0
  -23.9993  -27.3267   18.9845 H   0  0  0  0  0  0
  -23.7094  -30.6087   19.3978 H   0  0  0  0  0  0
  -22.7293  -29.2521   19.8588 H   0  0  0  0  0  0
  -25.1264  -36.1986   25.0837 H   0  0  0  0  0  0
  -20.9981  -28.3196   24.1463 H   0  0  0  0  0  0
  -20.5682  -26.2252   23.3590 H   0  0  0  0  0  0
  -21.6614  -26.7452   22.1228 H   0  0  0  0  0  0
  -19.6896  -25.6302   21.1225 H   0  0  0  0  0  0
  -19.6681  -27.3210   20.6782 H   0  0  0  0  0  0
  -17.4195  -26.6728   21.3989 H   0  0  0  0  0  0
  -18.0265  -26.0104   22.9018 H   0  0  0  0  0  0
  -19.7944  -30.7261   24.2273 H   0  0  0  0  0  0
  -17.5027  -31.6270   24.5170 H   0  0  0  0  0  0
  -15.5360  -30.2989   23.7636 H   0  0  0  0  0  0
  -15.8664  -28.0838   22.7005 H   0  0  0  0  0  0
  -24.5890  -30.7055   25.7888 H   0  0  0  0  0  0
  -24.8908  -32.2911   26.4904 H   0  0  0  0  0  0
  -25.8101  -30.8946   27.0275 H   0  0  0  0  0  0
  -26.2795  -29.6860   24.1049 H   0  0  0  0  0  0
  -27.4012  -29.7211   25.4471 H   0  0  0  0  0  0
  -27.8627  -30.4419   23.9208 H   0  0  0  0  0  0
  -27.2719  -33.3613   26.2045 H   0  0  0  0  0  0
  -28.3907  -32.6749   25.0343 H   0  0  0  0  0  0
  -28.0661  -31.8383   26.5436 H   0  0  0  0  0  0
  -28.2607  -38.0103   24.7533 H   0  0  0  0  0  0
  -28.1040  -36.2628   24.6288 H   0  0  0  0  0  0
  -27.2289  -37.1477   25.8885 H   0  0  0  0  0  0
  -20.9271  -29.8807   21.7033 H   0  0  0  0  0  0
  -26.0164  -38.2878   24.1465 H   0  0  0  0  0  0
  -25.9861  -18.7899   26.4300 H   0  0  0  0  0  0
  -25.5555  -19.3373   24.7281 H   0  0  0  0  0  0
  -26.1866  -17.0660   23.8251 H   0  0  0  0  0  0
  -26.6072  -16.5026   25.5263 H   0  0  0  0  0  0
  -24.6918  -25.0204   21.0112 H   0  0  0  0  0  0
  -25.8625  -23.6190   21.0655 H   0  0  0  0  0  0
  -25.7985  -23.6975   23.5736 H   0  0  0  0  0  0
  -24.6703  -25.1262   23.5014 H   0  0  0  0  0  0
  -31.8434  -18.1814   23.0076 H   0  0  0  0  0  0
  -32.1646  -16.7110   23.8674 H   0  0  0  0  0  0
  -29.5823  -15.4729   25.0023 H   0  0  0  0  0  0
  -28.5232  -15.6243   23.6434 H   0  0  0  0  0  0
  -26.4686  -21.2905   22.6702 H   0  0  0  0  0  0
  -27.2719  -21.6798   21.0659 H   0  0  0  0  0  0
  -32.5628  -16.2147   21.5836 H   0  0  0  0  0  0
  -31.1151  -17.0300   21.0368 H   0  0  0  0  0  0
  -29.9430  -13.6779   23.2323 H   0  0  0  0  0  0
  -31.3571  -14.5057   23.7247 H   0  0  0  0  0  0
  -28.2979  -18.2968   25.7301 H   0  0  0  0  0  0
  -26.2609  -26.4737   22.3282 H   0  0  0  0  0  0
  -30.1639  -17.6357   24.7292 H   0  0  0  0  0  0
  -29.5023  -21.2211   21.9685 H   0  0  0  0  0  0
  -27.8891  -23.0911   23.8652 H   0  0  0  0  0  0
  -28.4838  -17.3911   22.2726 H   0  0  0  0  0  0
  -29.6595  -18.6377   22.1643 H   0  0  0  0  0  0
  -28.2852  -20.8964   24.7440 H   0  0  0  0  0  0
  -29.8328  -20.3124   24.2214 H   0  0  0  0  0  0
  -29.8769  -26.0225   21.3667 H   0  0  0  0  0  0
  -28.8637  -27.2138   22.0739 H   0  0  0  0  0  0
  -27.3088  -19.1678   22.9944 H   0  0  0  0  0  0
  -28.3620  -25.3536   23.3009 H   0  0  0  0  0  0
  -28.2408  -23.5990   20.9715 H   0  0  0  0  0  0
  -29.5387  -23.8487   21.9064 H   0  0  0  0  0  0
  1 25  1  0  0  0
  1 30  2  0  0  0
  1 90  1  0  0  0
  2  3  1  0  0  0
  2 25  1  0  0  0
  2 92  1  0  0  0
  2 93  1  0  0  0
  3  4  1  0  0  0
  3 94  1  0  0  0
  3 95  1  0  0  0
  4  5  1  0  0  0
  4 96  1  0  0  0
  4 97  1  0  0  0
  5  6  1  0  0  0
  5 26  1  0  0  0
  5 98  1  0  0  0
  6 25  1  0  0  0
  6 99  1  0  0  0
  6100  1  0  0  0
  7  8  2  0  0  0
  7 26  1  0  0  0
  7 29  1  0  0  0
  8  9  1  0  0  0
  8 22  1  0  0  0
  9 10  1  0  0  0
  9 27  2  0  0  0
 10 11  2  0  0  0
 10 15  1  0  0  0
 11 12  1  0  0  0
 11101  1  0  0  0
 12 13  2  0  0  0
 12102  1  0  0  0
 13 14  1  0  0  0
 13 31  1  0  0  0
 14 15  2  0  0  0
 14103  1  0  0  0
 15104  1  0  0  0
 16 17  2  0  0  0
 16 21  1  0  0  0
 16 31  1  0  0  0
 17 18  1  0  0  0
 17105  1  0  0  0
 18 19  2  0  0  0
 18106  1  0  0  0
 19 20  1  0  0  0
 19 24  1  0  0  0
 20 21  2  0  0  0
 20107  1  0  0  0
 21 23  1  0  0  0
 22 28  1  0  0  0
 22 32  2  0  0  0
 26 27  1  0  0  0
 28108  1  0  0  0
 28109  1  0  0  0
 29110  1  0  0  0
 29111  1  0  0  0
 33 34  1  0  0  0
 33 66  1  0  0  0
 33 70  2  0  0  0
 34 36  1  0  0  0
 34 59  1  0  0  0
 34112  1  0  0  0
 35 44  2  0  0  0
 35 45  1  0  0  0
 35 68  1  0  0  0
 36 56  1  0  0  0
 36113  1  0  0  0
 37 39  1  0  0  0
 37 47  1  0  0  0
 37 66  1  0  0  0
 37114  1  0  0  0
 38 43  2  0  0  0
 38 46  1  0  0  0
 38 47  1  0  0  0
 39 64  1  0  0  0
 39 67  2  0  0  0
 40 52  1  0  0  0
 40 53  2  0  0  0
 40 58  1  0  0  0
 41115  1  0  0  0
 41116  1  0  0  0
 41117  1  0  0  0
 41 48  1  0  0  0
 42 43  1  0  0  0
 42 66  1  0  0  0
 42118  1  0  0  0
 42119  1  0  0  0
 43 44  1  0  0  0
 44120  1  0  0  0
 45 46  2  0  0  0
 45121  1  0  0  0
 46122  1  0  0  0
 47123  1  0  0  0
 47124  1  0  0  0
 48 56  1  0  0  0
 48 65  1  0  0  0
 48125  1  0  0  0
 49 50  1  0  0  0
 49 53  1  0  0  0
 49 64  1  0  0  0
 49126  1  0  0  0
 50 51  1  0  0  0
 50127  1  0  0  0
 50128  1  0  0  0
 51 52  1  0  0  0
 51129  1  0  0  0
 51130  1  0  0  0
 52131  1  0  0  0
 52132  1  0  0  0
 53 54  1  0  0  0
 54 55  2  0  0  0
 54133  1  0  0  0
 55 57  1  0  0  0
 55134  1  0  0  0
 56 69  2  0  0  0
 57 58  2  0  0  0
 57135  1  0  0  0
 58136  1  0  0  0
 59 60  1  0  0  0
 59 61  1  0  0  0
 59 62  1  0  0  0
 60137  1  0  0  0
 60138  1  0  0  0
 60139  1  0  0  0
 61140  1  0  0  0
 61141  1  0  0  0
 61142  1  0  0  0
 62143  1  0  0  0
 62144  1  0  0  0
 62145  1  0  0  0
 63 65  1  0  0  0
 63146  1  0  0  0
 63147  1  0  0  0
 63148  1  0  0  0
 64149  1  0  0  0
 65150  1  0  0  0
 68 87  1  0  0  0
 71 72  1  0  0  0
 71151  1  0  0  0
 71152  1  0  0  0
 71 80  1  0  0  0
 72 80  1  0  0  0
 72153  1  0  0  0
 72154  1  0  0  0
 73 74  1  0  0  0
 73155  1  0  0  0
 73156  1  0  0  0
 73 81  1  0  0  0
 74 81  1  0  0  0
 74157  1  0  0  0
 74158  1  0  0  0
 75 78  1  0  0  0
 75 82  1  0  0  0
 75159  1  0  0  0
 75160  1  0  0  0
 76 79  1  0  0  0
 76 82  1  0  0  0
 76161  1  0  0  0
 76162  1  0  0  0
 77 83  1  0  0  0
 77 84  1  0  0  0
 77163  1  0  0  0
 77164  1  0  0  0
 78 90  1  0  0  0
 78165  1  0  0  0
 78166  1  0  0  0
 79 90  1  0  0  0
 79167  1  0  0  0
 79168  1  0  0  0
 80 88  1  0  0  0
 80169  1  0  0  0
 81 89  1  0  0  0
 81170  1  0  0  0
 82 85  1  0  0  0
 82171  1  0  0  0
 83 84  1  0  0  0
 83 86  1  0  0  0
 83172  1  0  0  0
 84 91  1  0  0  0
 84173  1  0  0  0
 85174  1  0  0  0
 85175  1  0  0  0
 85 88  1  0  0  0
 86 88  1  0  0  0
 86176  1  0  0  0
 86177  1  0  0  0
 87178  1  0  0  0
 87179  1  0  0  0
 87 89  1  0  0  0
 88180  1  0  0  0
 89 91  1  0  0  0
 89181  1  0  0  0
 91182  1  0  0  0
 91183  1  0  0  0
M  CHG  1  91   1
M  ISO  4   1 100  68 101  87 101  90 100
M  END
> <chiral flag>
0

> <version>
0

> <s_m_source_file>
/data/baiqing/PycharmProjects/Reinvent-master-3.2/result/LINK_invent/BTK/process_docking_weight1_custom_sum_contain_oxygen_bond_distance_aromatic_linkinvent_7_9_3/rearranged_h_0145.sdf

> <i_m_source_file_index>
76

> <r_mmod_Potential_Energy-OPLS-2005>
288.19921875

> <r_mmod_Stretch_Energy-OPLS-2005>
46.5436706542969

> <r_mmod_Bend_Energy-OPLS-2005>
145.355865478516

> <r_mmod_Torsional_Energy-OPLS-2005>
525.676818847656

> <r_mmod_Improper_Torsional_Energy-OPLS-2005>
3.33905458450317

> <r_mmod_Van_der_Waal_Energy-OPLS-2005>
146.622924804688

> <r_mmod_Electrostatic_Energy-OPLS-2005>
-183.696105957031

> <r_mmod_Solvation_Energy-OPLS-2005>
-412.980987548828

> <b_mmod_Minimization_Converged-OPLS-2005>
0

> <r_mmod_RMS_Derivative-OPLS-2005>
3.72274303436279

$$$$
77
                    3D
 Structure written by MMmdl.
164173  0  0  1  0            999 V2000
  -30.6283  -14.6020   20.5482 C   0  0  0  0  0  0
  -30.4449  -12.3814   19.4367 C   0  0  0  0  0  0
  -29.5017  -12.5019   18.2172 C   0  0  0  0  0  0
  -28.0262  -12.3402   18.6349 C   0  0  0  0  0  0
  -27.6581  -13.2054   19.8692 C   0  0  2  0  0  0
  -28.7030  -13.0205   20.9929 C   0  0  0  0  0  0
  -25.2594  -13.8146   20.5698 C   0  0  0  0  0  0
  -24.1838  -13.0434   20.9194 C   0  0  0  0  0  0
  -24.6382  -11.6898   20.8745 C   0  0  0  0  0  0
  -23.9044  -10.4289   21.0406 C   0  0  0  0  0  0
  -24.3604   -9.4202   21.9185 C   0  0  0  0  0  0
  -23.6286   -8.2242   22.0754 C   0  0  0  0  0  0
  -22.4271   -8.0278   21.3543 C   0  0  0  0  0  0
  -21.9902   -9.0247   20.4645 C   0  0  0  0  0  0
  -22.7225  -10.2126   20.3054 C   0  0  0  0  0  0
  -21.6846   -6.0741   22.5275 C   0  0  0  0  0  0
  -21.4005   -6.5643   23.8212 C   0  0  0  0  0  0
  -21.3654   -5.6796   24.9177 C   0  0  0  0  0  0
  -21.6045   -4.3058   24.7223 C   0  0  0  0  0  0
  -21.8820   -3.8148   23.4342 C   0  0  0  0  0  0
  -21.9194   -4.6968   22.3402 C   0  0  0  0  0  0
  -22.7864  -13.5242   21.1859 C   0  0  0  0  0  0
  -22.1662   -4.2157   21.0974 F   0  0  0  0  0  0
  -21.5634   -3.4537   25.7736 F   0  0  0  0  0  0
  -30.0217  -13.3781   20.4410 N   0  0  0  0  0  0
  -26.3009  -12.9304   20.3347 N   0  0  0  0  0  0
  -25.9303  -11.6471   20.5767 N   0  0  0  0  0  0
  -22.0491  -12.8227   22.0403 N   0  0  0  0  0  0
  -25.4353  -15.1868   20.4139 N   0  0  0  0  0  0
  -31.7677  -14.7981   20.1127 O   0  0  0  0  0  0
  -21.6628   -6.8874   21.4237 O   0  0  0  0  0  0
  -22.3561  -14.5559   20.6718 O   0  0  0  0  0  0
  -24.6251  -31.8579   23.2052 C   0  0  0  0  0  0
  -25.9101  -32.4766   23.8356 C   0  0  1  0  0  0
  -27.2227  -27.3328   20.1144 C   0  0  0  0  0  0
  -25.5921  -33.8571   24.2272 N   0  0  0  0  0  0
  -23.4191  -30.4835   21.5452 C   0  0  2  0  0  0
  -24.8655  -28.9453   20.1073 C   0  0  0  0  0  0
  -22.7476  -29.4614   22.4928 C   0  0  0  0  0  0
  -18.0265  -28.1362   22.8477 C   0  0  0  0  0  0
  -24.1490  -36.7289   23.2654 C   0  0  0  0  0  0
  -25.9609  -30.7930   21.3785 C   0  0  0  0  0  0
  -26.0327  -29.4242   20.7161 C   0  0  0  0  0  0
  -27.2133  -28.6281   20.7139 C   0  0  0  0  0  0
  -26.0367  -26.9119   19.4684 C   0  0  0  0  0  0
  -24.8691  -27.6942   19.4730 C   0  0  0  0  0  0
  -23.6344  -29.8235   20.1581 C   0  0  0  0  0  0
  -25.4102  -36.3061   24.0341 C   0  0  1  0  0  0
  -20.5888  -28.3651   23.1282 C   0  0  2  0  0  0
  -20.6756  -26.9374   22.5400 C   0  0  0  0  0  0
  -19.5732  -26.6360   21.5209 C   0  0  0  0  0  0
  -18.1908  -26.7910   22.1608 C   0  0  0  0  0  0
  -19.1538  -28.8816   23.2876 C   0  0  0  0  0  0
  -18.9477  -30.1436   23.8869 C   0  0  0  0  0  0
  -17.6474  -30.6567   24.0558 C   0  0  0  0  0  0
  -25.9041  -34.9449   23.5095 C   0  0  0  0  0  0
  -16.5360  -29.9065   23.6344 C   0  0  0  0  0  0
  -16.7266  -28.6499   23.0327 C   0  0  0  0  0  0
  -26.4484  -31.6592   25.0745 C   0  0  0  0  0  0
  -25.3741  -31.3712   26.1502 C   0  0  0  0  0  0
  -27.0363  -30.3025   24.6216 C   0  0  0  0  0  0
  -27.6044  -32.4348   25.7484 C   0  0  0  0  0  0
  -27.5580  -37.1780   24.8452 C   0  0  0  0  0  0
  -21.4191  -29.3032   22.3700 N   0  0  0  0  0  0
  -26.4262  -37.3778   23.9442 N   0  0  0  0  0  0
  -24.6862  -31.0623   22.0987 N   0  0  0  0  0  0
  -23.4216  -28.8130   23.2985 O   0  0  0  0  0  0
  -28.3413  -26.4928   20.1849 O   0  0  0  0  0  0
  -26.5623  -34.8929   22.4674 O   0  0  0  0  0  0
  -23.5404  -32.1363   23.7380 O   0  0  0  0  0  0
  -30.8242  -19.2627   20.3741 C   0  0  0  0  0  0
  -30.8631  -17.8367   20.3371 C   0  0  0  0  0  0
  -28.9064  -17.7764   21.7380 C   0  0  0  0  0  0
  -29.8434  -19.9840   21.1134 C   0  0  0  0  0  0
  -29.9048  -17.0553   21.0324 C   0  0  0  0  0  0
  -28.8630  -19.2079   21.7919 C   0  0  0  0  0  0
  -31.8041  -23.0110   22.4330 C   0  0  0  0  0  0
  -32.3429  -21.6022   22.4091 C   0  0  0  0  0  0
  -31.3597  -22.0508   21.3477 C   0  0  0  0  0  0
  -26.8905  -19.1724   23.1839 C   0  0  0  0  0  0
  -29.1809  -24.0648   20.6537 C   0  0  0  0  0  0
  -29.0117  -22.4952   20.4239 C   0  0  0  0  0  0
  -28.1473  -25.0442   19.9768 C   0  0  0  0  0  0
  -29.9196  -21.5479   21.3138 C   0  0  1  0  0  0
  -29.8394  -15.5969   21.0536 N   0  0  0  0  0  0
  -27.9095  -19.9012   22.5107 O   0  0  0  0  0  0
  -31.4803  -12.5263   19.1240 H   0  0  0  0  0  0
  -30.4008  -11.3760   19.8585 H   0  0  0  0  0  0
  -29.7569  -11.7481   17.4708 H   0  0  0  0  0  0
  -29.6413  -13.4698   17.7339 H   0  0  0  0  0  0
  -27.8653  -11.2854   18.8660 H   0  0  0  0  0  0
  -27.3650  -12.5677   17.7985 H   0  0  0  0  0  0
  -27.6887  -14.2455   19.5446 H   0  0  0  0  0  0
  -28.7110  -11.9818   21.3278 H   0  0  0  0  0  0
  -28.4442  -13.6058   21.8749 H   0  0  0  0  0  0
  -25.2751   -9.5690   22.4764 H   0  0  0  0  0  0
  -24.0002   -7.4630   22.7469 H   0  0  0  0  0  0
  -21.0840   -8.8758   19.8944 H   0  0  0  0  0  0
  -22.3680  -10.9670   19.6168 H   0  0  0  0  0  0
  -21.1978   -7.6149   23.9720 H   0  0  0  0  0  0
  -21.1478   -6.0521   25.9079 H   0  0  0  0  0  0
  -22.0602   -2.7615   23.2837 H   0  0  0  0  0  0
  -22.4092  -11.9876   22.4784 H   0  0  0  0  0  0
  -21.1117  -13.1271   22.2600 H   0  0  0  0  0  0
  -24.6720  -15.8451   20.5261 H   0  0  0  0  0  0
  -26.2822  -15.6204   20.0680 H   0  0  0  0  0  0
  -26.7185  -32.5422   23.1117 H   0  0  0  0  0  0
  -25.0075  -33.9706   25.0419 H   0  0  0  0  0  0
  -22.7138  -31.3035   21.4016 H   0  0  0  0  0  0
  -23.3772  -35.9606   23.3245 H   0  0  0  0  0  0
  -24.3600  -36.8945   22.2084 H   0  0  0  0  0  0
  -23.7214  -37.6464   23.6707 H   0  0  0  0  0  0
  -26.1020  -31.5613   20.6157 H   0  0  0  0  0  0
  -26.8380  -30.8286   22.0139 H   0  0  0  0  0  0
  -28.1069  -28.9834   21.2072 H   0  0  0  0  0  0
  -25.9830  -25.9605   18.9585 H   0  0  0  0  0  0
  -23.9805  -27.3206   18.9838 H   0  0  0  0  0  0
  -23.7573  -30.6031   19.4054 H   0  0  0  0  0  0
  -22.7542  -29.2552   19.8487 H   0  0  0  0  0  0
  -25.1271  -36.1895   25.0826 H   0  0  0  0  0  0
  -20.9959  -28.3206   24.1410 H   0  0  0  0  0  0
  -20.5625  -26.2261   23.3596 H   0  0  0  0  0  0
  -21.6623  -26.7361   22.1217 H   0  0  0  0  0  0
  -19.6894  -25.6276   21.1216 H   0  0  0  0  0  0
  -19.6682  -27.3202   20.6773 H   0  0  0  0  0  0
  -17.4180  -26.6671   21.4001 H   0  0  0  0  0  0
  -18.0276  -26.0029   22.8977 H   0  0  0  0  0  0
  -19.7961  -30.7258   24.2205 H   0  0  0  0  0  0
  -17.5039  -31.6244   24.5154 H   0  0  0  0  0  0
  -15.5364  -30.2953   23.7706 H   0  0  0  0  0  0
  -15.8653  -28.0838   22.7013 H   0  0  0  0  0  0
  -24.5925  -30.7028   25.7867 H   0  0  0  0  0  0
  -24.8961  -32.2875   26.4976 H   0  0  0  0  0  0
  -25.8120  -30.8888   27.0253 H   0  0  0  0  0  0
  -26.2961  -29.6732   24.1272 H   0  0  0  0  0  0
  -27.4097  -29.7305   25.4718 H   0  0  0  0  0  0
  -27.8785  -30.4310   23.9419 H   0  0  0  0  0  0
  -27.2649  -33.3647   26.2048 H   0  0  0  0  0  0
  -28.3843  -32.6893   25.0301 H   0  0  0  0  0  0
  -28.0736  -31.8500   26.5398 H   0  0  0  0  0  0
  -28.2524  -38.0150   24.7588 H   0  0  0  0  0  0
  -28.1123  -36.2682   24.6113 H   0  0  0  0  0  0
  -27.2322  -37.1219   25.8854 H   0  0  0  0  0  0
  -20.9351  -29.8798   21.6962 H   0  0  0  0  0  0
  -26.0116  -38.2822   24.1538 H   0  0  0  0  0  0
  -31.5984  -19.8036   19.8492 H   0  0  0  0  0  0
  -31.6513  -17.3551   19.7750 H   0  0  0  0  0  0
  -28.1656  -17.1965   22.2680 H   0  0  0  0  0  0
  -32.4660  -23.8247   22.1421 H   0  0  0  0  0  0
  -31.1038  -23.2516   23.2312 H   0  0  0  0  0  0
  -31.9865  -20.9157   23.1739 H   0  0  0  0  0  0
  -33.3846  -21.4764   22.1184 H   0  0  0  0  0  0
  -31.7899  -22.2025   20.3599 H   0  0  0  0  0  0
  -26.2216  -19.8718   23.6853 H   0  0  0  0  0  0
  -27.3045  -18.5141   23.9494 H   0  0  0  0  0  0
  -26.2888  -18.5850   22.4876 H   0  0  0  0  0  0
  -30.1767  -24.3524   20.3181 H   0  0  0  0  0  0
  -29.1628  -24.2567   21.7264 H   0  0  0  0  0  0
  -29.1915  -22.2766   19.3715 H   0  0  0  0  0  0
  -27.9713  -22.2218   20.6064 H   0  0  0  0  0  0
  -27.1701  -24.7386   20.3541 H   0  0  0  0  0  0
  -28.1399  -24.8576   18.9018 H   0  0  0  0  0  0
  -29.5568  -21.6991   22.3313 H   0  0  0  0  0  0
  -28.9822  -15.2289   21.4374 H   0  0  0  0  0  0
  1 25  1  0  0  0
  1 30  2  0  0  0
  1 85  1  0  0  0
  2  3  1  0  0  0
  2 25  1  0  0  0
  2 87  1  0  0  0
  2 88  1  0  0  0
  3  4  1  0  0  0
  3 89  1  0  0  0
  3 90  1  0  0  0
  4  5  1  0  0  0
  4 91  1  0  0  0
  4 92  1  0  0  0
  5  6  1  0  0  0
  5 26  1  0  0  0
  5 93  1  0  0  0
  6 25  1  0  0  0
  6 94  1  0  0  0
  6 95  1  0  0  0
  7  8  2  0  0  0
  7 26  1  0  0  0
  7 29  1  0  0  0
  8  9  1  0  0  0
  8 22  1  0  0  0
  9 10  1  0  0  0
  9 27  2  0  0  0
 10 11  2  0  0  0
 10 15  1  0  0  0
 11 12  1  0  0  0
 11 96  1  0  0  0
 12 13  2  0  0  0
 12 97  1  0  0  0
 13 14  1  0  0  0
 13 31  1  0  0  0
 14 15  2  0  0  0
 14 98  1  0  0  0
 15 99  1  0  0  0
 16 17  2  0  0  0
 16 21  1  0  0  0
 16 31  1  0  0  0
 17 18  1  0  0  0
 17100  1  0  0  0
 18 19  2  0  0  0
 18101  1  0  0  0
 19 20  1  0  0  0
 19 24  1  0  0  0
 20 21  2  0  0  0
 20102  1  0  0  0
 21 23  1  0  0  0
 22 28  1  0  0  0
 22 32  2  0  0  0
 26 27  1  0  0  0
 28103  1  0  0  0
 28104  1  0  0  0
 29105  1  0  0  0
 29106  1  0  0  0
 33 34  1  0  0  0
 33 66  1  0  0  0
 33 70  2  0  0  0
 34 36  1  0  0  0
 34 59  1  0  0  0
 34107  1  0  0  0
 35 44  2  0  0  0
 35 45  1  0  0  0
 35 68  1  0  0  0
 36 56  1  0  0  0
 36108  1  0  0  0
 37 39  1  0  0  0
 37 47  1  0  0  0
 37 66  1  0  0  0
 37109  1  0  0  0
 38 43  2  0  0  0
 38 46  1  0  0  0
 38 47  1  0  0  0
 39 64  1  0  0  0
 39 67  2  0  0  0
 40 52  1  0  0  0
 40 53  2  0  0  0
 40 58  1  0  0  0
 41110  1  0  0  0
 41111  1  0  0  0
 41112  1  0  0  0
 41 48  1  0  0  0
 42 43  1  0  0  0
 42 66  1  0  0  0
 42113  1  0  0  0
 42114  1  0  0  0
 43 44  1  0  0  0
 44115  1  0  0  0
 45 46  2  0  0  0
 45116  1  0  0  0
 46117  1  0  0  0
 47118  1  0  0  0
 47119  1  0  0  0
 48 56  1  0  0  0
 48 65  1  0  0  0
 48120  1  0  0  0
 49 50  1  0  0  0
 49 53  1  0  0  0
 49 64  1  0  0  0
 49121  1  0  0  0
 50 51  1  0  0  0
 50122  1  0  0  0
 50123  1  0  0  0
 51 52  1  0  0  0
 51124  1  0  0  0
 51125  1  0  0  0
 52126  1  0  0  0
 52127  1  0  0  0
 53 54  1  0  0  0
 54 55  2  0  0  0
 54128  1  0  0  0
 55 57  1  0  0  0
 55129  1  0  0  0
 56 69  2  0  0  0
 57 58  2  0  0  0
 57130  1  0  0  0
 58131  1  0  0  0
 59 60  1  0  0  0
 59 61  1  0  0  0
 59 62  1  0  0  0
 60132  1  0  0  0
 60133  1  0  0  0
 60134  1  0  0  0
 61135  1  0  0  0
 61136  1  0  0  0
 61137  1  0  0  0
 62138  1  0  0  0
 62139  1  0  0  0
 62140  1  0  0  0
 63 65  1  0  0  0
 63141  1  0  0  0
 63142  1  0  0  0
 63143  1  0  0  0
 64144  1  0  0  0
 65145  1  0  0  0
 68 83  1  0  0  0
 71 72  2  0  0  0
 71 74  1  0  0  0
 71146  1  0  0  0
 72 75  1  0  0  0
 72147  1  0  0  0
 73 75  2  0  0  0
 73 76  1  0  0  0
 73148  1  0  0  0
 74 76  2  0  0  0
 74 84  1  0  0  0
 75 85  1  0  0  0
 76 86  1  0  0  0
 77 78  1  0  0  0
 77149  1  0  0  0
 77150  1  0  0  0
 77 79  1  0  0  0
 78 79  1  0  0  0
 78151  1  0  0  0
 78152  1  0  0  0
 79 84  1  0  0  0
 79153  1  0  0  0
 80 86  1  0  0  0
 80154  1  0  0  0
 80155  1  0  0  0
 80156  1  0  0  0
 81 82  1  0  0  0
 81 83  1  0  0  0
 81157  1  0  0  0
 81158  1  0  0  0
 82159  1  0  0  0
 82160  1  0  0  0
 82 84  1  0  0  0
 83161  1  0  0  0
 83162  1  0  0  0
 84163  1  0  0  0
 85164  1  0  0  0
M  ISO  4   1 100  68 101  83 101  85 100
M  END
> <chiral flag>
0

> <version>
0

> <s_m_source_file>
/data/baiqing/PycharmProjects/Reinvent-master-3.2/result/LINK_invent/BTK/process_docking_weight1_custom_sum_contain_oxygen_bond_distance_aromatic_linkinvent_7_9_3/rearranged_h_0145.sdf

> <i_m_source_file_index>
77

> <r_mmod_Potential_Energy-OPLS-2005>
94.9789123535156

> <r_mmod_Stretch_Energy-OPLS-2005>
74.6211090087891

> <r_mmod_Bend_Energy-OPLS-2005>
140.647506713867

> <r_mmod_Torsional_Energy-OPLS-2005>
251.877059936523

> <r_mmod_Improper_Torsional_Energy-OPLS-2005>
3.66227793693542

> <r_mmod_Van_der_Waal_Energy-OPLS-2005>
149.867889404297

> <r_mmod_Electrostatic_Energy-OPLS-2005>
-361.254913330078

> <r_mmod_Solvation_Energy-OPLS-2005>
-205.115631103516

> <b_mmod_Minimization_Converged-OPLS-2005>
0

> <r_mmod_RMS_Derivative-OPLS-2005>
2.83174324035645

$$$$
78
                    3D
 Structure written by MMmdl.
190198  0  0  1  0            999 V2000
  -30.6984  -14.3949   20.6727 C   0  0  0  0  0  0
  -30.4297  -12.2904   19.3981 C   0  0  0  0  0  0
  -29.4886  -12.5048   18.1956 C   0  0  0  0  0  0
  -28.0122  -12.3531   18.6156 C   0  0  0  0  0  0
  -27.6664  -13.1848   19.8809 C   0  0  2  0  0  0
  -28.7027  -12.9045   20.9907 C   0  0  0  0  0  0
  -25.2614  -13.8122   20.5685 C   0  0  0  0  0  0
  -24.1840  -13.0436   20.9163 C   0  0  0  0  0  0
  -24.6353  -11.6881   20.8729 C   0  0  0  0  0  0
  -23.9020  -10.4292   21.0410 C   0  0  0  0  0  0
  -24.3585   -9.4215   21.9186 C   0  0  0  0  0  0
  -23.6269   -8.2238   22.0756 C   0  0  0  0  0  0
  -22.4267   -8.0266   21.3537 C   0  0  0  0  0  0
  -21.9879   -9.0242   20.4641 C   0  0  0  0  0  0
  -22.7192  -10.2125   20.3052 C   0  0  0  0  0  0
  -21.6840   -6.0726   22.5278 C   0  0  0  0  0  0
  -21.4016   -6.5636   23.8216 C   0  0  0  0  0  0
  -21.3652   -5.6784   24.9173 C   0  0  0  0  0  0
  -21.6052   -4.3048   24.7220 C   0  0  0  0  0  0
  -21.8812   -3.8145   23.4341 C   0  0  0  0  0  0
  -21.9198   -4.6965   22.3400 C   0  0  0  0  0  0
  -22.7867  -13.5249   21.1845 C   0  0  0  0  0  0
  -22.1659   -4.2144   21.0977 F   0  0  0  0  0  0
  -21.5629   -3.4539   25.7737 F   0  0  0  0  0  0
  -30.0329  -13.2313   20.4545 N   0  0  0  0  0  0
  -26.3036  -12.9240   20.3378 N   0  0  0  0  0  0
  -25.9279  -11.6430   20.5749 N   0  0  0  0  0  0
  -22.0493  -12.8252   22.0386 N   0  0  0  0  0  0
  -25.4405  -15.1829   20.4095 N   0  0  0  0  0  0
  -31.7903  -14.6382   20.1464 O   0  0  0  0  0  0
  -21.6626   -6.8868   21.4236 O   0  0  0  0  0  0
  -22.3568  -14.5578   20.6699 O   0  0  0  0  0  0
  -24.6111  -31.8727   23.2151 C   0  0  0  0  0  0
  -25.9033  -32.4843   23.8420 C   0  0  1  0  0  0
  -27.2184  -27.4666   20.0530 C   0  0  0  0  0  0
  -25.5904  -33.8639   24.2358 N   0  0  0  0  0  0
  -23.3948  -30.5030   21.5548 C   0  0  2  0  0  0
  -24.8292  -28.9716   20.1209 C   0  0  0  0  0  0
  -22.7390  -29.4694   22.4989 C   0  0  0  0  0  0
  -18.0272  -28.1341   22.8457 C   0  0  0  0  0  0
  -24.1478  -36.7290   23.2653 C   0  0  0  0  0  0
  -25.9266  -30.8404   21.3704 C   0  0  0  0  0  0
  -25.9932  -29.4795   20.7106 C   0  0  0  0  0  0
  -27.1894  -28.7316   20.6757 C   0  0  0  0  0  0
  -26.0213  -26.9509   19.5030 C   0  0  0  0  0  0
  -24.8320  -27.7013   19.5265 C   0  0  0  0  0  0
  -23.6001  -29.8494   20.1662 C   0  0  0  0  0  0
  -25.4092  -36.3119   24.0369 C   0  0  1  0  0  0
  -20.5857  -28.3641   23.1302 C   0  0  2  0  0  0
  -20.6755  -26.9388   22.5386 C   0  0  0  0  0  0
  -19.5743  -26.6367   21.5172 C   0  0  0  0  0  0
  -18.1923  -26.7872   22.1601 C   0  0  0  0  0  0
  -19.1521  -28.8799   23.2876 C   0  0  0  0  0  0
  -18.9464  -30.1407   23.8895 C   0  0  0  0  0  0
  -17.6472  -30.6556   24.0561 C   0  0  0  0  0  0
  -25.9019  -34.9487   23.5157 C   0  0  0  0  0  0
  -16.5360  -29.9064   23.6344 C   0  0  0  0  0  0
  -16.7258  -28.6489   23.0323 C   0  0  0  0  0  0
  -26.4462  -31.6603   25.0745 C   0  0  0  0  0  0
  -25.3749  -31.3752   26.1545 C   0  0  0  0  0  0
  -27.0253  -30.3039   24.6077 C   0  0  0  0  0  0
  -27.6037  -32.4335   25.7493 C   0  0  0  0  0  0
  -27.5570  -37.1790   24.8475 C   0  0  0  0  0  0
  -21.4123  -29.3034   22.3761 N   0  0  0  0  0  0
  -26.4272  -37.3803   23.9443 N   0  0  0  0  0  0
  -24.6620  -31.0853   22.1041 N   0  0  0  0  0  0
  -23.4208  -28.8217   23.2983 O   0  0  0  0  0  0
  -28.4244  -26.8040   19.9850 O   0  0  0  0  0  0
  -26.5583  -34.8936   22.4711 O   0  0  0  0  0  0
  -23.5316  -32.1466   23.7557 O   0  0  0  0  0  0
  -30.3203  -15.3317   23.0379 C   0  0  0  0  0  0
  -30.9501  -16.6454   23.5131 C   0  0  0  0  0  0
  -30.4529  -16.9285   21.1755 C   0  0  0  0  0  0
  -30.0204  -15.4913   21.5348 C   0  0  1  0  0  0
  -31.4472  -17.3934   22.2559 C   0  0  1  0  0  0
  -30.0530  -20.0846   28.5899 C   0  0  0  0  0  0
  -28.4713  -20.1440   26.6220 C   0  0  0  0  0  0
  -29.3795  -23.1951   17.4985 C   0  0  0  0  0  0
  -32.2622  -20.6854   24.1156 C   0  0  0  0  0  0
  -30.6172  -20.7895   21.0208 C   0  0  0  0  0  0
  -29.9450  -25.2880   18.8870 C   0  0  0  0  0  0
  -30.9656  -20.9032   24.9409 C   0  0  0  0  0  0
  -30.9415  -21.7112   19.8232 C   0  0  0  0  0  0
  -32.4874  -19.2809   23.5006 C   0  0  0  0  0  0
  -31.6737  -19.6727   21.1870 C   0  0  0  0  0  0
  -28.4811  -25.6007   19.2245 C   0  0  0  0  0  0
  -29.8315  -20.6277   27.1668 C   0  0  0  0  0  0
  -30.2498  -23.7966   18.6218 C   0  0  1  0  0  0
  -30.9723  -20.2639   26.2827 N   0  3  0  0  0  0
  -30.1919  -22.9921   19.8704 N   0  3  0  0  0  0
  -31.4979  -18.8818   22.4472 N   0  3  1  0  0  0
  -31.4697  -12.4160   19.0936 H   0  0  0  0  0  0
  -30.3529  -11.2652   19.7647 H   0  0  0  0  0  0
  -29.7247  -11.7919   17.4050 H   0  0  0  0  0  0
  -29.6502  -13.4968   17.7730 H   0  0  0  0  0  0
  -27.8341  -11.2945   18.8157 H   0  0  0  0  0  0
  -27.3506  -12.6204   17.7898 H   0  0  0  0  0  0
  -27.7299  -14.2377   19.6061 H   0  0  0  0  0  0
  -28.6732  -11.8488   21.2656 H   0  0  0  0  0  0
  -28.4554  -13.4319   21.9111 H   0  0  0  0  0  0
  -25.2728   -9.5697   22.4762 H   0  0  0  0  0  0
  -23.9987   -7.4633   22.7469 H   0  0  0  0  0  0
  -21.0817   -8.8750   19.8939 H   0  0  0  0  0  0
  -22.3653  -10.9669   19.6159 H   0  0  0  0  0  0
  -21.2000   -7.6140   23.9713 H   0  0  0  0  0  0
  -21.1480   -6.0516   25.9074 H   0  0  0  0  0  0
  -22.0601   -2.7605   23.2845 H   0  0  0  0  0  0
  -22.4074  -11.9904   22.4780 H   0  0  0  0  0  0
  -21.1104  -13.1289   22.2572 H   0  0  0  0  0  0
  -24.6804  -15.8451   20.5241 H   0  0  0  0  0  0
  -26.3007  -15.6191   20.1027 H   0  0  0  0  0  0
  -26.7104  -32.5545   23.1164 H   0  0  0  0  0  0
  -25.0083  -33.9831   25.0520 H   0  0  0  0  0  0
  -22.6782  -31.3179   21.4238 H   0  0  0  0  0  0
  -23.3754  -35.9609   23.3330 H   0  0  0  0  0  0
  -24.3572  -36.8850   22.2060 H   0  0  0  0  0  0
  -23.7193  -37.6494   23.6621 H   0  0  0  0  0  0
  -26.0469  -31.6167   20.6135 H   0  0  0  0  0  0
  -26.8103  -30.8758   21.9976 H   0  0  0  0  0  0
  -28.0974  -29.1328   21.1043 H   0  0  0  0  0  0
  -25.9701  -25.9771   19.0427 H   0  0  0  0  0  0
  -23.9329  -27.2904   19.0913 H   0  0  0  0  0  0
  -23.7220  -30.6358   19.4201 H   0  0  0  0  0  0
  -22.7161  -29.2892   19.8606 H   0  0  0  0  0  0
  -25.1252  -36.2003   25.0861 H   0  0  0  0  0  0
  -20.9913  -28.3157   24.1429 H   0  0  0  0  0  0
  -20.5601  -26.2249   23.3551 H   0  0  0  0  0  0
  -21.6636  -26.7377   22.1219 H   0  0  0  0  0  0
  -19.6923  -25.6279   21.1202 H   0  0  0  0  0  0
  -19.6684  -27.3181   20.6703 H   0  0  0  0  0  0
  -17.4168  -26.6583   21.4032 H   0  0  0  0  0  0
  -18.0364  -25.9993   22.8992 H   0  0  0  0  0  0
  -19.7958  -30.7231   24.2203 H   0  0  0  0  0  0
  -17.5058  -31.6243   24.5159 H   0  0  0  0  0  0
  -15.5378  -30.2988   23.7661 H   0  0  0  0  0  0
  -15.8642  -28.0867   22.6967 H   0  0  0  0  0  0
  -24.5847  -30.7166   25.7947 H   0  0  0  0  0  0
  -24.9059  -32.2947   26.5063 H   0  0  0  0  0  0
  -25.8139  -30.8883   27.0266 H   0  0  0  0  0  0
  -26.2770  -29.6864   24.1107 H   0  0  0  0  0  0
  -27.4003  -29.7230   25.4504 H   0  0  0  0  0  0
  -27.8629  -30.4368   23.9232 H   0  0  0  0  0  0
  -27.2619  -33.3612   26.2101 H   0  0  0  0  0  0
  -28.3814  -32.6921   25.0304 H   0  0  0  0  0  0
  -28.0722  -31.8445   26.5382 H   0  0  0  0  0  0
  -28.2587  -38.0091   24.7539 H   0  0  0  0  0  0
  -28.1071  -36.2614   24.6273 H   0  0  0  0  0  0
  -27.2330  -37.1431   25.8898 H   0  0  0  0  0  0
  -20.9229  -29.8825   21.7077 H   0  0  0  0  0  0
  -26.0173  -38.2891   24.1446 H   0  0  0  0  0  0
  -29.4037  -15.1298   23.5963 H   0  0  0  0  0  0
  -30.9881  -14.4913   23.2364 H   0  0  0  0  0  0
  -31.7456  -16.4509   24.2329 H   0  0  0  0  0  0
  -30.1864  -17.2299   24.0275 H   0  0  0  0  0  0
  -29.5680  -17.5659   21.1745 H   0  0  0  0  0  0
  -30.8769  -16.9904   20.1717 H   0  0  0  0  0  0
  -28.9445  -15.4610   21.3675 H   0  0  0  0  0  0
  -32.4416  -17.0260   21.9923 H   0  0  0  0  0  0
  -29.2459  -20.3970   29.2548 H   0  0  0  0  0  0
  -30.9843  -20.4522   29.0223 H   0  0  0  0  0  0
  -30.0813  -18.9941   28.6060 H   0  0  0  0  0  0
  -27.6662  -20.4264   27.3018 H   0  0  0  0  0  0
  -28.4378  -19.0592   26.5146 H   0  0  0  0  0  0
  -28.2268  -20.5902   25.6588 H   0  0  0  0  0  0
  -29.3133  -23.8658   16.6427 H   0  0  0  0  0  0
  -28.3633  -22.9879   17.8335 H   0  0  0  0  0  0
  -29.8024  -22.2639   17.1262 H   0  0  0  0  0  0
  -33.1212  -20.9290   24.7412 H   0  0  0  0  0  0
  -32.3012  -21.4307   23.3229 H   0  0  0  0  0  0
  -29.6261  -20.3505   20.8875 H   0  0  0  0  0  0
  -30.5586  -21.3915   21.9257 H   0  0  0  0  0  0
  -30.6111  -25.6682   19.6639 H   0  0  0  0  0  0
  -30.2026  -25.8627   17.9961 H   0  0  0  0  0  0
  -30.0943  -20.5844   24.3703 H   0  0  0  0  0  0
  -30.8437  -21.9768   25.0893 H   0  0  0  0  0  0
  -30.7237  -21.1758   18.8987 H   0  0  0  0  0  0
  -32.0079  -21.9484   19.8013 H   0  0  0  0  0  0
  -32.5269  -18.5545   24.3095 H   0  0  0  0  0  0
  -33.4852  -19.2426   23.0591 H   0  0  0  0  0  0
  -32.6679  -20.1198   21.1642 H   0  0  0  0  0  0
  -31.6467  -19.0411   20.3012 H   0  0  0  0  0  0
  -28.0126  -24.8119   19.8130 H   0  0  0  0  0  0
  -27.9395  -25.6801   18.2804 H   0  0  0  0  0  0
  -29.7997  -21.7168   27.2368 H   0  0  0  0  0  0
  -31.2857  -23.7738   18.2827 H   0  0  0  0  0  0
  -31.8094  -20.5686   26.7558 H   0  0  0  0  0  0
  -31.0197  -19.2603   26.2094 H   0  0  0  0  0  0
  -30.6015  -23.5516   20.6028 H   0  0  0  0  0  0
  -29.2321  -22.8133   20.1221 H   0  0  0  0  0  0
  -30.5744  -19.1065   22.7825 H   0  0  0  0  0  0
  1 25  1  0  0  0
  1 30  2  0  0  0
  1 74  1  0  0  0
  2  3  1  0  0  0
  2 25  1  0  0  0
  2 92  1  0  0  0
  2 93  1  0  0  0
  3  4  1  0  0  0
  3 94  1  0  0  0
  3 95  1  0  0  0
  4  5  1  0  0  0
  4 96  1  0  0  0
  4 97  1  0  0  0
  5  6  1  0  0  0
  5 26  1  0  0  0
  5 98  1  0  0  0
  6 25  1  0  0  0
  6 99  1  0  0  0
  6100  1  0  0  0
  7  8  2  0  0  0
  7 26  1  0  0  0
  7 29  1  0  0  0
  8  9  1  0  0  0
  8 22  1  0  0  0
  9 10  1  0  0  0
  9 27  2  0  0  0
 10 11  2  0  0  0
 10 15  1  0  0  0
 11 12  1  0  0  0
 11101  1  0  0  0
 12 13  2  0  0  0
 12102  1  0  0  0
 13 14  1  0  0  0
 13 31  1  0  0  0
 14 15  2  0  0  0
 14103  1  0  0  0
 15104  1  0  0  0
 16 17  2  0  0  0
 16 21  1  0  0  0
 16 31  1  0  0  0
 17 18  1  0  0  0
 17105  1  0  0  0
 18 19  2  0  0  0
 18106  1  0  0  0
 19 20  1  0  0  0
 19 24  1  0  0  0
 20 21  2  0  0  0
 20107  1  0  0  0
 21 23  1  0  0  0
 22 28  1  0  0  0
 22 32  2  0  0  0
 26 27  1  0  0  0
 28108  1  0  0  0
 28109  1  0  0  0
 29110  1  0  0  0
 29111  1  0  0  0
 33 34  1  0  0  0
 33 66  1  0  0  0
 33 70  2  0  0  0
 34 36  1  0  0  0
 34 59  1  0  0  0
 34112  1  0  0  0
 35 44  2  0  0  0
 35 45  1  0  0  0
 35 68  1  0  0  0
 36 56  1  0  0  0
 36113  1  0  0  0
 37 39  1  0  0  0
 37 47  1  0  0  0
 37 66  1  0  0  0
 37114  1  0  0  0
 38 43  2  0  0  0
 38 46  1  0  0  0
 38 47  1  0  0  0
 39 64  1  0  0  0
 39 67  2  0  0  0
 40 52  1  0  0  0
 40 53  2  0  0  0
 40 58  1  0  0  0
 41115  1  0  0  0
 41116  1  0  0  0
 41117  1  0  0  0
 41 48  1  0  0  0
 42 43  1  0  0  0
 42 66  1  0  0  0
 42118  1  0  0  0
 42119  1  0  0  0
 43 44  1  0  0  0
 44120  1  0  0  0
 45 46  2  0  0  0
 45121  1  0  0  0
 46122  1  0  0  0
 47123  1  0  0  0
 47124  1  0  0  0
 48 56  1  0  0  0
 48 65  1  0  0  0
 48125  1  0  0  0
 49 50  1  0  0  0
 49 53  1  0  0  0
 49 64  1  0  0  0
 49126  1  0  0  0
 50 51  1  0  0  0
 50127  1  0  0  0
 50128  1  0  0  0
 51 52  1  0  0  0
 51129  1  0  0  0
 51130  1  0  0  0
 52131  1  0  0  0
 52132  1  0  0  0
 53 54  1  0  0  0
 54 55  2  0  0  0
 54133  1  0  0  0
 55 57  1  0  0  0
 55134  1  0  0  0
 56 69  2  0  0  0
 57 58  2  0  0  0
 57135  1  0  0  0
 58136  1  0  0  0
 59 60  1  0  0  0
 59 61  1  0  0  0
 59 62  1  0  0  0
 60137  1  0  0  0
 60138  1  0  0  0
 60139  1  0  0  0
 61140  1  0  0  0
 61141  1  0  0  0
 61142  1  0  0  0
 62143  1  0  0  0
 62144  1  0  0  0
 62145  1  0  0  0
 63 65  1  0  0  0
 63146  1  0  0  0
 63147  1  0  0  0
 63148  1  0  0  0
 64149  1  0  0  0
 65150  1  0  0  0
 68 86  1  0  0  0
 71 72  1  0  0  0
 71 74  1  0  0  0
 71151  1  0  0  0
 71152  1  0  0  0
 72153  1  0  0  0
 72154  1  0  0  0
 72 75  1  0  0  0
 73 74  1  0  0  0
 73 75  1  0  0  0
 73155  1  0  0  0
 73156  1  0  0  0
 74157  1  0  0  0
 75 91  1  0  0  0
 75158  1  0  0  0
 76159  1  0  0  0
 76160  1  0  0  0
 76161  1  0  0  0
 76 87  1  0  0  0
 77 87  1  0  0  0
 77162  1  0  0  0
 77163  1  0  0  0
 77164  1  0  0  0
 78165  1  0  0  0
 78166  1  0  0  0
 78167  1  0  0  0
 78 88  1  0  0  0
 79 82  1  0  0  0
 79 84  1  0  0  0
 79168  1  0  0  0
 79169  1  0  0  0
 80 83  1  0  0  0
 80 85  1  0  0  0
 80170  1  0  0  0
 80171  1  0  0  0
 81 86  1  0  0  0
 81 88  1  0  0  0
 81172  1  0  0  0
 81173  1  0  0  0
 82 89  1  0  0  0
 82174  1  0  0  0
 82175  1  0  0  0
 83 90  1  0  0  0
 83176  1  0  0  0
 83177  1  0  0  0
 84178  1  0  0  0
 84179  1  0  0  0
 84 91  1  0  0  0
 85 91  1  0  0  0
 85180  1  0  0  0
 85181  1  0  0  0
 86182  1  0  0  0
 86183  1  0  0  0
 87 89  1  0  0  0
 87184  1  0  0  0
 88 90  1  0  0  0
 88185  1  0  0  0
 89186  1  0  0  0
 89187  1  0  0  0
 90188  1  0  0  0
 90189  1  0  0  0
 91190  1  0  0  0
M  CHG  3  89   1  90   1  91   1
M  ISO  4   1 100  68 101  74 100  86 101
M  END
> <chiral flag>
0

> <version>
0

> <s_m_source_file>
/data/baiqing/PycharmProjects/Reinvent-master-3.2/result/LINK_invent/BTK/process_docking_weight1_custom_sum_contain_oxygen_bond_distance_aromatic_linkinvent_7_9_3/rearranged_h_0145.sdf

> <i_m_source_file_index>
78

> <r_mmod_Potential_Energy-OPLS-2005>
-287.888885498047

> <r_mmod_Stretch_Energy-OPLS-2005>
38.6773300170898

> <r_mmod_Bend_Energy-OPLS-2005>
128.682205200195

> <r_mmod_Torsional_Energy-OPLS-2005>
277.867919921875

> <r_mmod_Improper_Torsional_Energy-OPLS-2005>
2.08969449996948

> <r_mmod_Van_der_Waal_Energy-OPLS-2005>
141.647476196289

> <r_mmod_Electrostatic_Energy-OPLS-2005>
761.36572265625

> <r_mmod_Solvation_Energy-OPLS-2005>
-1649.16870117188

> <b_mmod_Minimization_Converged-OPLS-2005>
0

> <r_mmod_RMS_Derivative-OPLS-2005>
4.21307754516602

$$$$
79
                    3D
 Structure written by MMmdl.
177187  0  0  1  0            999 V2000
  -30.7042  -14.4913   20.4601 C   0  0  0  0  0  0
  -30.4111  -12.2890   19.4245 C   0  0  0  0  0  0
  -29.4854  -12.4581   18.2028 C   0  0  0  0  0  0
  -28.0055  -12.3497   18.6207 C   0  0  0  0  0  0
  -27.6515  -13.2152   19.8610 C   0  0  2  0  0  0
  -28.7024  -13.0593   20.9824 C   0  0  0  0  0  0
  -25.2559  -13.8178   20.5696 C   0  0  0  0  0  0
  -24.1826  -13.0448   20.9195 C   0  0  0  0  0  0
  -24.6394  -11.6912   20.8762 C   0  0  0  0  0  0
  -23.9065  -10.4302   21.0414 C   0  0  0  0  0  0
  -24.3611   -9.4214   21.9191 C   0  0  0  0  0  0
  -23.6290   -8.2252   22.0756 C   0  0  0  0  0  0
  -22.4277   -8.0284   21.3542 C   0  0  0  0  0  0
  -21.9911   -9.0258   20.4646 C   0  0  0  0  0  0
  -22.7237  -10.2140   20.3061 C   0  0  0  0  0  0
  -21.6853   -6.0728   22.5279 C   0  0  0  0  0  0
  -21.4015   -6.5634   23.8210 C   0  0  0  0  0  0
  -21.3661   -5.6794   24.9174 C   0  0  0  0  0  0
  -21.6047   -4.3055   24.7227 C   0  0  0  0  0  0
  -21.8820   -3.8142   23.4346 C   0  0  0  0  0  0
  -21.9192   -4.6958   22.3401 C   0  0  0  0  0  0
  -22.7856  -13.5255   21.1858 C   0  0  0  0  0  0
  -22.1660   -4.2140   21.0981 F   0  0  0  0  0  0
  -21.5631   -3.4542   25.7734 F   0  0  0  0  0  0
  -30.0237  -13.3182   20.3972 N   0  0  0  0  0  0
  -26.3002  -12.9373   20.3386 N   0  0  0  0  0  0
  -25.9327  -11.6520   20.5817 N   0  0  0  0  0  0
  -22.0479  -12.8244   22.0384 N   0  0  0  0  0  0
  -25.4215  -15.1899   20.4038 N   0  0  0  0  0  0
  -31.9104  -14.5733   20.2103 O   0  0  0  0  0  0
  -21.6642   -6.8872   21.4239 O   0  0  0  0  0  0
  -22.3592  -14.5600   20.6729 O   0  0  0  0  0  0
  -24.6178  -31.8697   23.2116 C   0  0  0  0  0  0
  -25.9070  -32.4835   23.8405 C   0  0  1  0  0  0
  -27.2167  -27.4211   20.0836 C   0  0  0  0  0  0
  -25.5918  -33.8628   24.2324 N   0  0  0  0  0  0
  -23.4034  -30.4971   21.5567 C   0  0  2  0  0  0
  -24.8440  -28.9737   20.1098 C   0  0  0  0  0  0
  -22.7425  -29.4658   22.4996 C   0  0  0  0  0  0
  -18.0267  -28.1365   22.8489 C   0  0  0  0  0  0
  -24.1479  -36.7307   23.2639 C   0  0  0  0  0  0
  -25.9376  -30.8290   21.3691 C   0  0  0  0  0  0
  -26.0105  -29.4670   20.7074 C   0  0  0  0  0  0
  -27.2018  -28.7001   20.6912 C   0  0  0  0  0  0
  -26.0298  -26.9636   19.4586 C   0  0  0  0  0  0
  -24.8497  -27.7210   19.4814 C   0  0  0  0  0  0
  -23.6091  -29.8408   20.1674 C   0  0  0  0  0  0
  -25.4111  -36.3107   24.0320 C   0  0  1  0  0  0
  -20.5864  -28.3656   23.1311 C   0  0  2  0  0  0
  -20.6768  -26.9392   22.5412 C   0  0  0  0  0  0
  -19.5740  -26.6366   21.5212 C   0  0  0  0  0  0
  -18.1914  -26.7916   22.1609 C   0  0  0  0  0  0
  -19.1520  -28.8821   23.2898 C   0  0  0  0  0  0
  -18.9451  -30.1426   23.8907 C   0  0  0  0  0  0
  -17.6458  -30.6582   24.0559 C   0  0  0  0  0  0
  -25.9050  -34.9477   23.5118 C   0  0  0  0  0  0
  -16.5348  -29.9081   23.6332 C   0  0  0  0  0  0
  -16.7257  -28.6499   23.0357 C   0  0  0  0  0  0
  -26.4490  -31.6631   25.0745 C   0  0  0  0  0  0
  -25.3748  -31.3731   26.1490 C   0  0  0  0  0  0
  -27.0341  -30.3074   24.6136 C   0  0  0  0  0  0
  -27.6048  -32.4378   25.7514 C   0  0  0  0  0  0
  -27.5587  -37.1797   24.8460 C   0  0  0  0  0  0
  -21.4148  -29.3033   22.3732 N   0  0  0  0  0  0
  -26.4296  -37.3792   23.9403 N   0  0  0  0  0  0
  -24.6721  -31.0785   22.1038 N   0  0  0  0  0  0
  -23.4203  -28.8193   23.3024 O   0  0  0  0  0  0
  -28.3592  -26.6341   20.1270 O   0  0  0  0  0  0
  -26.5604  -34.8923   22.4677 O   0  0  0  0  0  0
  -23.5367  -32.1458   23.7510 O   0  0  0  0  0  0
  -27.7308  -22.4019   21.6796 C   0  0  0  0  0  0
  -28.8614  -21.7851   19.8643 C   0  0  0  0  0  0
  -28.6518  -22.8596   20.6932 C   0  0  0  0  0  0
  -27.3373  -21.1264   21.3805 C   0  0  0  0  0  0
  -29.0354  -17.3374   18.7244 C   0  0  0  0  0  0
  -28.7515  -17.6502   21.1735 C   0  0  0  0  0  0
  -25.1722  -20.9144   22.7902 C   0  0  0  0  0  0
  -30.1370  -16.3088   19.0172 C   0  0  0  0  0  0
  -29.8136  -16.5458   21.4193 C   0  0  0  0  0  0
  -26.3139  -20.2546   22.0455 C   0  0  1  0  0  0
  -28.9679  -18.3937   19.8385 C   0  0  0  0  0  0
  -24.8991  -20.1472   21.5166 C   0  0  1  0  0  0
  -30.5243  -24.3315   19.8048 C   0  0  0  0  0  0
  -22.8179  -18.8319   21.3197 C   0  0  0  0  0  0
  -27.9052  -19.4738   19.5136 C   0  0  0  0  0  0
  -28.1338  -25.2138   19.9854 C   0  0  0  0  0  0
  -29.2066  -24.2795   20.5905 C   0  0  1  0  0  0
  -28.0456  -20.7303   20.2534 N   0  0  0  0  0  0
  -29.9332  -15.5983   20.2969 N   0  0  0  0  0  0
  -24.2188  -18.8602   21.7778 N   0  3  0  0  0  0
  -31.4558  -12.3707   19.1197 H   0  0  0  0  0  0
  -30.2985  -11.2955   19.8613 H   0  0  0  0  0  0
  -29.7130  -11.6997   17.4524 H   0  0  0  0  0  0
  -29.6636  -13.4189   17.7203 H   0  0  0  0  0  0
  -27.8046  -11.2995   18.8338 H   0  0  0  0  0  0
  -27.3590  -12.6166   17.7834 H   0  0  0  0  0  0
  -27.6736  -14.2528   19.5290 H   0  0  0  0  0  0
  -28.6727  -12.0562   21.4102 H   0  0  0  0  0  0
  -28.4951  -13.7505   21.8008 H   0  0  0  0  0  0
  -25.2749   -9.5688   22.4774 H   0  0  0  0  0  0
  -23.9993   -7.4638   22.7480 H   0  0  0  0  0  0
  -21.0850   -8.8780   19.8949 H   0  0  0  0  0  0
  -22.3698  -10.9679   19.6176 H   0  0  0  0  0  0
  -21.2010   -7.6145   23.9707 H   0  0  0  0  0  0
  -21.1485   -6.0522   25.9072 H   0  0  0  0  0  0
  -22.0596   -2.7604   23.2850 H   0  0  0  0  0  0
  -22.4059  -11.9880   22.4753 H   0  0  0  0  0  0
  -21.1102  -13.1293   22.2596 H   0  0  0  0  0  0
  -24.5971  -15.7668   20.3013 H   0  0  0  0  0  0
  -26.2531  -15.5874   19.9865 H   0  0  0  0  0  0
  -26.7154  -32.5544   23.1172 H   0  0  0  0  0  0
  -25.0094  -33.9792   25.0491 H   0  0  0  0  0  0
  -22.6914  -31.3147   21.4255 H   0  0  0  0  0  0
  -23.3752  -35.9630   23.3307 H   0  0  0  0  0  0
  -24.3592  -36.8917   22.2059 H   0  0  0  0  0  0
  -23.7218  -37.6496   23.6672 H   0  0  0  0  0  0
  -26.0574  -31.6002   20.6067 H   0  0  0  0  0  0
  -26.8229  -30.8765   21.9908 H   0  0  0  0  0  0
  -28.1005  -29.0750   21.1629 H   0  0  0  0  0  0
  -25.9807  -26.0131   18.9480 H   0  0  0  0  0  0
  -23.9583  -27.3357   19.0070 H   0  0  0  0  0  0
  -23.7174  -30.6237   19.4150 H   0  0  0  0  0  0
  -22.7304  -29.2642   19.8697 H   0  0  0  0  0  0
  -25.1285  -36.1976   25.0808 H   0  0  0  0  0  0
  -20.9957  -28.3227   24.1430 H   0  0  0  0  0  0
  -20.5671  -26.2255   23.3587 H   0  0  0  0  0  0
  -21.6634  -26.7434   22.1189 H   0  0  0  0  0  0
  -19.6879  -25.6275   21.1230 H   0  0  0  0  0  0
  -19.6669  -27.3182   20.6747 H   0  0  0  0  0  0
  -17.4177  -26.6671   21.4012 H   0  0  0  0  0  0
  -18.0303  -26.0053   22.8996 H   0  0  0  0  0  0
  -19.7938  -30.7239   24.2271 H   0  0  0  0  0  0
  -17.5026  -31.6268   24.5159 H   0  0  0  0  0  0
  -15.5354  -30.2988   23.7649 H   0  0  0  0  0  0
  -15.8657  -28.0823   22.7055 H   0  0  0  0  0  0
  -24.5896  -30.7109   25.7823 H   0  0  0  0  0  0
  -24.8967  -32.2887   26.4987 H   0  0  0  0  0  0
  -25.8099  -30.8861   27.0226 H   0  0  0  0  0  0
  -26.2884  -29.6802   24.1227 H   0  0  0  0  0  0
  -27.4164  -29.7350   25.4601 H   0  0  0  0  0  0
  -27.8699  -30.4399   23.9256 H   0  0  0  0  0  0
  -27.2647  -33.3679   26.2090 H   0  0  0  0  0  0
  -28.3858  -32.6950   25.0346 H   0  0  0  0  0  0
  -28.0723  -31.8518   26.5429 H   0  0  0  0  0  0
  -28.2574  -38.0127   24.7577 H   0  0  0  0  0  0
  -28.1106  -36.2662   24.6210 H   0  0  0  0  0  0
  -27.2317  -37.1354   25.8862 H   0  0  0  0  0  0
  -20.9308  -29.8789   21.6981 H   0  0  0  0  0  0
  -26.0180  -38.2847   24.1469 H   0  0  0  0  0  0
  -27.3387  -22.9845   22.5021 H   0  0  0  0  0  0
  -29.4826  -21.6879   18.9832 H   0  0  0  0  0  0
  -28.0741  -16.8332   18.6165 H   0  0  0  0  0  0
  -29.2385  -17.8145   17.7641 H   0  0  0  0  0  0
  -28.7789  -18.3621   21.9981 H   0  0  0  0  0  0
  -27.7574  -17.2010   21.1840 H   0  0  0  0  0  0
  -25.0809  -21.9978   22.7416 H   0  0  0  0  0  0
  -24.8895  -20.4752   23.7452 H   0  0  0  0  0  0
  -31.1091  -16.8076   19.0214 H   0  0  0  0  0  0
  -30.1696  -15.5961   18.1918 H   0  0  0  0  0  0
  -29.5657  -16.0066   22.3342 H   0  0  0  0  0  0
  -30.7864  -17.0108   21.5904 H   0  0  0  0  0  0
  -26.7671  -19.3845   22.5155 H   0  0  0  0  0  0
  -29.9370  -18.8923   19.8788 H   0  0  0  0  0  0
  -24.6291  -20.6612   20.5959 H   0  0  0  0  0  0
  -31.2796  -23.6971   20.2692 H   0  0  0  0  0  0
  -30.9163  -25.3484   19.7684 H   0  0  0  0  0  0
  -30.3858  -23.9938   18.7774 H   0  0  0  0  0  0
  -22.3565  -17.8766   21.5676 H   0  0  0  0  0  0
  -22.7580  -18.9678   20.2400 H   0  0  0  0  0  0
  -22.2360  -19.6213   21.7942 H   0  0  0  0  0  0
  -26.8983  -19.0768   19.6441 H   0  0  0  0  0  0
  -27.9709  -19.7319   18.4565 H   0  0  0  0  0  0
  -27.2043  -24.9581   20.4975 H   0  0  0  0  0  0
  -27.9954  -24.9670   18.9316 H   0  0  0  0  0  0
  -29.4022  -24.6124   21.6107 H   0  0  0  0  0  0
  -24.2351  -18.6623   22.7652 H   0  0  0  0  0  0
  -24.7138  -18.1182   21.3101 H   0  0  0  0  0  0
  1 25  1  0  0  0
  1 30  2  0  0  0
  1 89  1  0  0  0
  2  3  1  0  0  0
  2 25  1  0  0  0
  2 91  1  0  0  0
  2 92  1  0  0  0
  3  4  1  0  0  0
  3 93  1  0  0  0
  3 94  1  0  0  0
  4  5  1  0  0  0
  4 95  1  0  0  0
  4 96  1  0  0  0
  5  6  1  0  0  0
  5 26  1  0  0  0
  5 97  1  0  0  0
  6 25  1  0  0  0
  6 98  1  0  0  0
  6 99  1  0  0  0
  7  8  2  0  0  0
  7 26  1  0  0  0
  7 29  1  0  0  0
  8  9  1  0  0  0
  8 22  1  0  0  0
  9 10  1  0  0  0
  9 27  2  0  0  0
 10 11  2  0  0  0
 10 15  1  0  0  0
 11 12  1  0  0  0
 11100  1  0  0  0
 12 13  2  0  0  0
 12101  1  0  0  0
 13 14  1  0  0  0
 13 31  1  0  0  0
 14 15  2  0  0  0
 14102  1  0  0  0
 15103  1  0  0  0
 16 17  2  0  0  0
 16 21  1  0  0  0
 16 31  1  0  0  0
 17 18  1  0  0  0
 17104  1  0  0  0
 18 19  2  0  0  0
 18105  1  0  0  0
 19 20  1  0  0  0
 19 24  1  0  0  0
 20 21  2  0  0  0
 20106  1  0  0  0
 21 23  1  0  0  0
 22 28  1  0  0  0
 22 32  2  0  0  0
 26 27  1  0  0  0
 28107  1  0  0  0
 28108  1  0  0  0
 29109  1  0  0  0
 29110  1  0  0  0
 33 34  1  0  0  0
 33 66  1  0  0  0
 33 70  2  0  0  0
 34 36  1  0  0  0
 34 59  1  0  0  0
 34111  1  0  0  0
 35 44  2  0  0  0
 35 45  1  0  0  0
 35 68  1  0  0  0
 36 56  1  0  0  0
 36112  1  0  0  0
 37 39  1  0  0  0
 37 47  1  0  0  0
 37 66  1  0  0  0
 37113  1  0  0  0
 38 43  2  0  0  0
 38 46  1  0  0  0
 38 47  1  0  0  0
 39 64  1  0  0  0
 39 67  2  0  0  0
 40 52  1  0  0  0
 40 53  2  0  0  0
 40 58  1  0  0  0
 41114  1  0  0  0
 41115  1  0  0  0
 41116  1  0  0  0
 41 48  1  0  0  0
 42 43  1  0  0  0
 42 66  1  0  0  0
 42117  1  0  0  0
 42118  1  0  0  0
 43 44  1  0  0  0
 44119  1  0  0  0
 45 46  2  0  0  0
 45120  1  0  0  0
 46121  1  0  0  0
 47122  1  0  0  0
 47123  1  0  0  0
 48 56  1  0  0  0
 48 65  1  0  0  0
 48124  1  0  0  0
 49 50  1  0  0  0
 49 53  1  0  0  0
 49 64  1  0  0  0
 49125  1  0  0  0
 50 51  1  0  0  0
 50126  1  0  0  0
 50127  1  0  0  0
 51 52  1  0  0  0
 51128  1  0  0  0
 51129  1  0  0  0
 52130  1  0  0  0
 52131  1  0  0  0
 53 54  1  0  0  0
 54 55  2  0  0  0
 54132  1  0  0  0
 55 57  1  0  0  0
 55133  1  0  0  0
 56 69  2  0  0  0
 57 58  2  0  0  0
 57134  1  0  0  0
 58135  1  0  0  0
 59 60  1  0  0  0
 59 61  1  0  0  0
 59 62  1  0  0  0
 60136  1  0  0  0
 60137  1  0  0  0
 60138  1  0  0  0
 61139  1  0  0  0
 61140  1  0  0  0
 61141  1  0  0  0
 62142  1  0  0  0
 62143  1  0  0  0
 62144  1  0  0  0
 63 65  1  0  0  0
 63145  1  0  0  0
 63146  1  0  0  0
 63147  1  0  0  0
 64148  1  0  0  0
 65149  1  0  0  0
 68 86  1  0  0  0
 71 73  1  0  0  0
 71 74  2  0  0  0
 71150  1  0  0  0
 72 73  2  0  0  0
 72 88  1  0  0  0
 72151  1  0  0  0
 73 87  1  0  0  0
 74 88  1  0  0  0
 74 80  1  0  0  0
 75 78  1  0  0  0
 75 81  1  0  0  0
 75152  1  0  0  0
 75153  1  0  0  0
 76 79  1  0  0  0
 76 81  1  0  0  0
 76154  1  0  0  0
 76155  1  0  0  0
 77 80  1  0  0  0
 77 82  1  0  0  0
 77156  1  0  0  0
 77157  1  0  0  0
 78 89  1  0  0  0
 78158  1  0  0  0
 78159  1  0  0  0
 79 89  1  0  0  0
 79160  1  0  0  0
 79161  1  0  0  0
 80 82  1  0  0  0
 80162  1  0  0  0
 81 85  1  0  0  0
 81163  1  0  0  0
 82 90  1  0  0  0
 82164  1  0  0  0
 83165  1  0  0  0
 83166  1  0  0  0
 83167  1  0  0  0
 83 87  1  0  0  0
 84 90  1  0  0  0
 84168  1  0  0  0
 84169  1  0  0  0
 84170  1  0  0  0
 85 88  1  0  0  0
 85171  1  0  0  0
 85172  1  0  0  0
 86 87  1  0  0  0
 86173  1  0  0  0
 86174  1  0  0  0
 87175  1  0  0  0
 90176  1  0  0  0
 90177  1  0  0  0
M  CHG  1  90   1
M  ISO  4   1 100  68 101  86 101  89 100
M  END
> <chiral flag>
0

> <version>
0

> <s_m_source_file>
/data/baiqing/PycharmProjects/Reinvent-master-3.2/result/LINK_invent/BTK/process_docking_weight1_custom_sum_contain_oxygen_bond_distance_aromatic_linkinvent_7_9_3/rearranged_h_0145.sdf

> <i_m_source_file_index>
79

> <r_mmod_Potential_Energy-OPLS-2005>
30.2008018493652

> <r_mmod_Stretch_Energy-OPLS-2005>
38.462043762207

> <r_mmod_Bend_Energy-OPLS-2005>
111.062484741211

> <r_mmod_Torsional_Energy-OPLS-2005>
391.959442138672

> <r_mmod_Improper_Torsional_Energy-OPLS-2005>
22.1776733398438

> <r_mmod_Van_der_Waal_Energy-OPLS-2005>
121.785713195801

> <r_mmod_Electrostatic_Energy-OPLS-2005>
-211.514694213867

> <r_mmod_Solvation_Energy-OPLS-2005>
-470.080108642578

> <b_mmod_Minimization_Converged-OPLS-2005>
0

> <r_mmod_RMS_Derivative-OPLS-2005>
2.09313678741455

$$$$
80
                    3D
 Structure written by MMmdl.
164173  0  0  1  0            999 V2000
  -30.7121  -14.3359   20.7225 C   0  0  0  0  0  0
  -30.4331  -12.2808   19.3847 C   0  0  0  0  0  0
  -29.4879  -12.5361   18.1926 C   0  0  0  0  0  0
  -28.0102  -12.3907   18.6006 C   0  0  0  0  0  0
  -27.6740  -13.1803   19.8887 C   0  0  2  0  0  0
  -28.7032  -12.8513   20.9905 C   0  0  0  0  0  0
  -25.2662  -13.8131   20.5578 C   0  0  0  0  0  0
  -24.1863  -13.0444   20.9090 C   0  0  0  0  0  0
  -24.6389  -11.6903   20.8704 C   0  0  0  0  0  0
  -23.9060  -10.4291   21.0380 C   0  0  0  0  0  0
  -24.3625   -9.4231   21.9175 C   0  0  0  0  0  0
  -23.6299   -8.2279   22.0760 C   0  0  0  0  0  0
  -22.4283   -8.0314   21.3558 C   0  0  0  0  0  0
  -21.9905   -9.0267   20.4661 C   0  0  0  0  0  0
  -22.7231  -10.2138   20.3045 C   0  0  0  0  0  0
  -21.6873   -6.0761   22.5268 C   0  0  0  0  0  0
  -21.4038   -6.5666   23.8200 C   0  0  0  0  0  0
  -21.3641   -5.6800   24.9151 C   0  0  0  0  0  0
  -21.6034   -4.3067   24.7203 C   0  0  0  0  0  0
  -21.8821   -3.8176   23.4327 C   0  0  0  0  0  0
  -21.9208   -4.6993   22.3394 C   0  0  0  0  0  0
  -22.7902  -13.5294   21.1767 C   0  0  0  0  0  0
  -22.1674   -4.2178   21.0972 F   0  0  0  0  0  0
  -21.5607   -3.4556   25.7718 F   0  0  0  0  0  0
  -30.0529  -13.1760   20.4815 N   0  0  0  0  0  0
  -26.3078  -12.9236   20.3350 N   0  0  0  0  0  0
  -25.9319  -11.6419   20.5724 N   0  0  0  0  0  0
  -22.0572  -12.8247   22.0343 N   0  0  0  0  0  0
  -25.4453  -15.1828   20.3956 N   0  0  0  0  0  0
  -31.6880  -14.7303   20.0746 O   0  0  0  0  0  0
  -21.6663   -6.8912   21.4230 O   0  0  0  0  0  0
  -22.3594  -14.5622   20.6657 O   0  0  0  0  0  0
  -24.6071  -31.8716   23.2153 C   0  0  0  0  0  0
  -25.8985  -32.4872   23.8428 C   0  0  1  0  0  0
  -27.2437  -27.4900   20.0949 C   0  0  0  0  0  0
  -25.5869  -33.8672   24.2372 N   0  0  0  0  0  0
  -23.3943  -30.4945   21.5536 C   0  0  2  0  0  0
  -24.8464  -28.9654   20.1200 C   0  0  0  0  0  0
  -22.7368  -29.4675   22.5007 C   0  0  0  0  0  0
  -18.0268  -28.1374   22.8460 C   0  0  0  0  0  0
  -24.1482  -36.7325   23.2638 C   0  0  0  0  0  0
  -25.9167  -30.8561   21.3597 C   0  0  0  0  0  0
  -25.9994  -29.4926   20.7136 C   0  0  0  0  0  0
  -27.2018  -28.7580   20.7083 C   0  0  0  0  0  0
  -26.0834  -26.9696   19.4881 C   0  0  0  0  0  0
  -24.8781  -27.6987   19.5071 C   0  0  0  0  0  0
  -23.6042  -29.8248   20.1688 C   0  0  0  0  0  0
  -25.4101  -36.3154   24.0346 C   0  0  1  0  0  0
  -20.5849  -28.3662   23.1301 C   0  0  2  0  0  0
  -20.6763  -26.9395   22.5407 C   0  0  0  0  0  0
  -19.5766  -26.6394   21.5182 C   0  0  0  0  0  0
  -18.1925  -26.7917   22.1591 C   0  0  0  0  0  0
  -19.1510  -28.8838   23.2886 C   0  0  0  0  0  0
  -18.9419  -30.1430   23.8918 C   0  0  0  0  0  0
  -17.6428  -30.6572   24.0542 C   0  0  0  0  0  0
  -25.9027  -34.9513   23.5167 C   0  0  0  0  0  0
  -16.5332  -29.9067   23.6297 C   0  0  0  0  0  0
  -16.7246  -28.6488   23.0313 C   0  0  0  0  0  0
  -26.4445  -31.6626   25.0727 C   0  0  0  0  0  0
  -25.3717  -31.3698   26.1480 C   0  0  0  0  0  0
  -27.0276  -30.3084   24.6048 C   0  0  0  0  0  0
  -27.6053  -32.4320   25.7463 C   0  0  0  0  0  0
  -27.5586  -37.1822   24.8476 C   0  0  0  0  0  0
  -21.4112  -29.3039   22.3725 N   0  0  0  0  0  0
  -26.4308  -37.3809   23.9407 N   0  0  0  0  0  0
  -24.6569  -31.0871   22.1017 N   0  0  0  0  0  0
  -23.4162  -28.8214   23.3043 O   0  0  0  0  0  0
  -28.4009  -26.7569   20.0764 O   0  0  0  0  0  0
  -26.5583  -34.8940   22.4729 O   0  0  0  0  0  0
  -23.5274  -32.1431   23.7583 O   0  0  0  0  0  0
  -27.0093  -22.2779   21.8434 C   0  0  0  0  0  0
  -28.8176  -20.6863   23.1337 C   0  0  0  0  0  0
  -26.8572  -20.8851   21.7194 C   0  0  0  0  0  0
  -27.8215  -20.0673   22.3530 C   0  0  0  0  0  0
  -28.1107  -22.8034   22.5525 C   0  0  0  0  0  0
  -24.3249  -20.8911   21.0607 C   0  0  0  0  0  0
  -24.6270  -19.4914   21.5329 C   0  0  0  0  0  0
  -25.7195  -20.3299   20.9067 C   0  0  0  0  0  0
  -28.8021  -16.8669   20.8993 C   0  0  0  0  0  0
  -30.0080  -16.4802   21.7789 C   0  0  0  0  0  0
  -28.4152  -18.3453   20.9252 C   0  0  0  0  0  0
  -28.7471  -26.1972   21.3446 C   0  0  0  0  0  0
  -27.8411  -24.9916   21.6368 C   0  0  0  0  0  0
  -28.9769  -22.0227   23.2215 N   0  0  0  0  0  0
  -30.1693  -15.0336   21.7272 N   0  0  0  0  0  0
  -27.8562  -18.7079   22.1843 O   0  0  0  0  0  0
  -28.4338  -24.1385   22.6124 O   0  0  0  0  0  0
  -31.4698  -12.4264   19.0782 H   0  0  0  0  0  0
  -30.3602  -11.2455   19.7246 H   0  0  0  0  0  0
  -29.7230  -11.8471   17.3812 H   0  0  0  0  0  0
  -29.6557  -13.5426   17.8096 H   0  0  0  0  0  0
  -27.8102  -11.3288   18.7526 H   0  0  0  0  0  0
  -27.3549  -12.7082   17.7889 H   0  0  0  0  0  0
  -27.7523  -14.2416   19.6602 H   0  0  0  0  0  0
  -28.6668  -11.7871   21.2310 H   0  0  0  0  0  0
  -28.4328  -13.3438   21.9237 H   0  0  0  0  0  0
  -25.2781   -9.5691   22.4739 H   0  0  0  0  0  0
  -24.0033   -7.4661   22.7456 H   0  0  0  0  0  0
  -21.0853   -8.8769   19.8957 H   0  0  0  0  0  0
  -22.3702  -10.9676   19.6152 H   0  0  0  0  0  0
  -21.2058   -7.6174   23.9721 H   0  0  0  0  0  0
  -21.1440   -6.0522   25.9044 H   0  0  0  0  0  0
  -22.0622   -2.7648   23.2801 H   0  0  0  0  0  0
  -22.4238  -11.9892   22.4658 H   0  0  0  0  0  0
  -21.1205  -13.1243   22.2649 H   0  0  0  0  0  0
  -24.6959  -15.8539   20.5236 H   0  0  0  0  0  0
  -26.3077  -15.6080   20.0747 H   0  0  0  0  0  0
  -26.7071  -32.5623   23.1222 H   0  0  0  0  0  0
  -25.0023  -33.9828   25.0519 H   0  0  0  0  0  0
  -22.6795  -31.3074   21.4130 H   0  0  0  0  0  0
  -23.3753  -35.9666   23.3349 H   0  0  0  0  0  0
  -24.3576  -36.8882   22.2051 H   0  0  0  0  0  0
  -23.7233  -37.6538   23.6616 H   0  0  0  0  0  0
  -26.0179  -31.6241   20.5918 H   0  0  0  0  0  0
  -26.8083  -30.9180   21.9724 H   0  0  0  0  0  0
  -28.0992  -29.1620   21.1587 H   0  0  0  0  0  0
  -26.1154  -26.0014   19.0090 H   0  0  0  0  0  0
  -23.9917  -27.2813   19.0501 H   0  0  0  0  0  0
  -23.7113  -30.5986   19.4067 H   0  0  0  0  0  0
  -22.7292  -29.2414   19.8724 H   0  0  0  0  0  0
  -25.1289  -36.2044   25.0841 H   0  0  0  0  0  0
  -20.9928  -28.3223   24.1424 H   0  0  0  0  0  0
  -20.5675  -26.2243   23.3574 H   0  0  0  0  0  0
  -21.6629  -26.7468   22.1176 H   0  0  0  0  0  0
  -19.6944  -25.6295   21.1211 H   0  0  0  0  0  0
  -19.6708  -27.3209   20.6695 H   0  0  0  0  0  0
  -17.4220  -26.6645   21.3977 H   0  0  0  0  0  0
  -18.0308  -26.0050   22.8974 H   0  0  0  0  0  0
  -19.7885  -30.7213   24.2330 H   0  0  0  0  0  0
  -17.4971  -31.6244   24.5157 H   0  0  0  0  0  0
  -15.5327  -30.2987   23.7586 H   0  0  0  0  0  0
  -15.8639  -28.0816   22.7018 H   0  0  0  0  0  0
  -24.5878  -30.7084   25.7778 H   0  0  0  0  0  0
  -24.8928  -32.2847   26.4977 H   0  0  0  0  0  0
  -25.8059  -30.8799   27.0203 H   0  0  0  0  0  0
  -26.2811  -29.6849   24.1121 H   0  0  0  0  0  0
  -27.4093  -29.7320   25.4485 H   0  0  0  0  0  0
  -27.8627  -30.4437   23.9170 H   0  0  0  0  0  0
  -27.2713  -33.3594   26.2119 H   0  0  0  0  0  0
  -28.3810  -32.6907   25.0248 H   0  0  0  0  0  0
  -28.0789  -31.8391   26.5294 H   0  0  0  0  0  0
  -28.2645  -38.0070   24.7495 H   0  0  0  0  0  0
  -28.1028  -36.2614   24.6361 H   0  0  0  0  0  0
  -27.2296  -37.1559   25.8869 H   0  0  0  0  0  0
  -20.9273  -29.8706   21.6906 H   0  0  0  0  0  0
  -26.0220  -38.2910   24.1361 H   0  0  0  0  0  0
  -26.2919  -22.9215   21.3577 H   0  0  0  0  0  0
  -29.5482  -20.0904   23.6590 H   0  0  0  0  0  0
  -24.1611  -21.6425   21.8288 H   0  0  0  0  0  0
  -23.7139  -20.9960   20.1654 H   0  0  0  0  0  0
  -24.1970  -18.6783   20.9473 H   0  0  0  0  0  0
  -24.6703  -19.3245   22.6077 H   0  0  0  0  0  0
  -26.0364  -20.0756   19.8966 H   0  0  0  0  0  0
  -27.9364  -16.2752   21.1956 H   0  0  0  0  0  0
  -29.0204  -16.5997   19.8639 H   0  0  0  0  0  0
  -29.8238  -16.7731   22.8140 H   0  0  0  0  0  0
  -30.9174  -16.9928   21.4632 H   0  0  0  0  0  0
  -29.2811  -18.9631   20.6758 H   0  0  0  0  0  0
  -27.6719  -18.5111   20.1436 H   0  0  0  0  0  0
  -29.7812  -25.8609   21.2742 H   0  0  0  0  0  0
  -28.7190  -26.9291   22.1536 H   0  0  0  0  0  0
  -27.7159  -24.4631   20.6902 H   0  0  0  0  0  0
  -26.8548  -25.3103   21.9755 H   0  0  0  0  0  0
  -29.4935  -14.5033   22.2607 H   0  0  0  0  0  0
  1 25  1  0  0  0
  1 30  2  0  0  0
  1 85  1  0  0  0
  2  3  1  0  0  0
  2 25  1  0  0  0
  2 88  1  0  0  0
  2 89  1  0  0  0
  3  4  1  0  0  0
  3 90  1  0  0  0
  3 91  1  0  0  0
  4  5  1  0  0  0
  4 92  1  0  0  0
  4 93  1  0  0  0
  5  6  1  0  0  0
  5 26  1  0  0  0
  5 94  1  0  0  0
  6 25  1  0  0  0
  6 95  1  0  0  0
  6 96  1  0  0  0
  7  8  2  0  0  0
  7 26  1  0  0  0
  7 29  1  0  0  0
  8  9  1  0  0  0
  8 22  1  0  0  0
  9 10  1  0  0  0
  9 27  2  0  0  0
 10 11  2  0  0  0
 10 15  1  0  0  0
 11 12  1  0  0  0
 11 97  1  0  0  0
 12 13  2  0  0  0
 12 98  1  0  0  0
 13 14  1  0  0  0
 13 31  1  0  0  0
 14 15  2  0  0  0
 14 99  1  0  0  0
 15100  1  0  0  0
 16 17  2  0  0  0
 16 21  1  0  0  0
 16 31  1  0  0  0
 17 18  1  0  0  0
 17101  1  0  0  0
 18 19  2  0  0  0
 18102  1  0  0  0
 19 20  1  0  0  0
 19 24  1  0  0  0
 20 21  2  0  0  0
 20103  1  0  0  0
 21 23  1  0  0  0
 22 28  1  0  0  0
 22 32  2  0  0  0
 26 27  1  0  0  0
 28104  1  0  0  0
 28105  1  0  0  0
 29106  1  0  0  0
 29107  1  0  0  0
 33 34  1  0  0  0
 33 66  1  0  0  0
 33 70  2  0  0  0
 34 36  1  0  0  0
 34 59  1  0  0  0
 34108  1  0  0  0
 35 44  2  0  0  0
 35 45  1  0  0  0
 35 68  1  0  0  0
 36 56  1  0  0  0
 36109  1  0  0  0
 37 39  1  0  0  0
 37 47  1  0  0  0
 37 66  1  0  0  0
 37110  1  0  0  0
 38 43  2  0  0  0
 38 46  1  0  0  0
 38 47  1  0  0  0
 39 64  1  0  0  0
 39 67  2  0  0  0
 40 52  1  0  0  0
 40 53  2  0  0  0
 40 58  1  0  0  0
 41111  1  0  0  0
 41112  1  0  0  0
 41113  1  0  0  0
 41 48  1  0  0  0
 42 43  1  0  0  0
 42 66  1  0  0  0
 42114  1  0  0  0
 42115  1  0  0  0
 43 44  1  0  0  0
 44116  1  0  0  0
 45 46  2  0  0  0
 45117  1  0  0  0
 46118  1  0  0  0
 47119  1  0  0  0
 47120  1  0  0  0
 48 56  1  0  0  0
 48 65  1  0  0  0
 48121  1  0  0  0
 49 50  1  0  0  0
 49 53  1  0  0  0
 49 64  1  0  0  0
 49122  1  0  0  0
 50 51  1  0  0  0
 50123  1  0  0  0
 50124  1  0  0  0
 51 52  1  0  0  0
 51125  1  0  0  0
 51126  1  0  0  0
 52127  1  0  0  0
 52128  1  0  0  0
 53 54  1  0  0  0
 54 55  2  0  0  0
 54129  1  0  0  0
 55 57  1  0  0  0
 55130  1  0  0  0
 56 69  2  0  0  0
 57 58  2  0  0  0
 57131  1  0  0  0
 58132  1  0  0  0
 59 60  1  0  0  0
 59 61  1  0  0  0
 59 62  1  0  0  0
 60133  1  0  0  0
 60134  1  0  0  0
 60135  1  0  0  0
 61136  1  0  0  0
 61137  1  0  0  0
 61138  1  0  0  0
 62139  1  0  0  0
 62140  1  0  0  0
 62141  1  0  0  0
 63 65  1  0  0  0
 63142  1  0  0  0
 63143  1  0  0  0
 63144  1  0  0  0
 64145  1  0  0  0
 65146  1  0  0  0
 68 82  1  0  0  0
 71 73  2  0  0  0
 71 75  1  0  0  0
 71147  1  0  0  0
 72 74  2  0  0  0
 72 84  1  0  0  0
 72148  1  0  0  0
 73 74  1  0  0  0
 73 78  1  0  0  0
 74 86  1  0  0  0
 75 84  2  0  0  0
 75 87  1  0  0  0
 76 77  1  0  0  0
 76 78  1  0  0  0
 76149  1  0  0  0
 76150  1  0  0  0
 77 78  1  0  0  0
 77151  1  0  0  0
 77152  1  0  0  0
 78153  1  0  0  0
 79 80  1  0  0  0
 79 81  1  0  0  0
 79154  1  0  0  0
 79155  1  0  0  0
 80 85  1  0  0  0
 80156  1  0  0  0
 80157  1  0  0  0
 81 86  1  0  0  0
 81158  1  0  0  0
 81159  1  0  0  0
 82 83  1  0  0  0
 82160  1  0  0  0
 82161  1  0  0  0
 83 87  1  0  0  0
 83162  1  0  0  0
 83163  1  0  0  0
 85164  1  0  0  0
M  ISO  4   1 100  68 101  82 101  85 100
M  END
> <chiral flag>
0

> <version>
0

> <s_m_source_file>
/data/baiqing/PycharmProjects/Reinvent-master-3.2/result/LINK_invent/BTK/process_docking_weight1_custom_sum_contain_oxygen_bond_distance_aromatic_linkinvent_7_9_3/rearranged_h_0145.sdf

> <i_m_source_file_index>
80

> <r_mmod_Potential_Energy-OPLS-2005>
-170.566177368164

> <r_mmod_Stretch_Energy-OPLS-2005>
30.533411026001

> <r_mmod_Bend_Energy-OPLS-2005>
92.6611557006836

> <r_mmod_Torsional_Energy-OPLS-2005>
294.077941894531

> <r_mmod_Improper_Torsional_Energy-OPLS-2005>
3.94771909713745

> <r_mmod_Van_der_Waal_Energy-OPLS-2005>
154.618850708008

> <r_mmod_Electrostatic_Energy-OPLS-2005>
-528.392883300781

> <r_mmod_Solvation_Energy-OPLS-2005>
-227.224594116211

> <b_mmod_Minimization_Converged-OPLS-2005>
0

> <r_mmod_RMS_Derivative-OPLS-2005>
4.31102132797241

$$$$
81
                    3D
 Structure written by MMmdl.
177187  0  0  1  0            999 V2000
  -30.8370  -14.5483   20.4521 C   0  0  0  0  0  0
  -30.4051  -12.3550   19.4008 C   0  0  0  0  0  0
  -29.4705  -12.4626   18.1831 C   0  0  0  0  0  0
  -28.0030  -12.3001   18.6308 C   0  0  0  0  0  0
  -27.6384  -13.1970   19.8396 C   0  0  2  0  0  0
  -28.7263  -13.1312   20.9485 C   0  0  0  0  0  0
  -25.2559  -13.8110   20.5813 C   0  0  0  0  0  0
  -24.1777  -13.0355   20.9292 C   0  0  0  0  0  0
  -24.6325  -11.6872   20.8803 C   0  0  0  0  0  0
  -23.9021  -10.4270   21.0434 C   0  0  0  0  0  0
  -24.3591   -9.4204   21.9206 C   0  0  0  0  0  0
  -23.6273   -8.2238   22.0766 C   0  0  0  0  0  0
  -22.4272   -8.0290   21.3547 C   0  0  0  0  0  0
  -21.9911   -9.0266   20.4657 C   0  0  0  0  0  0
  -22.7227  -10.2137   20.3071 C   0  0  0  0  0  0
  -21.6863   -6.0750   22.5291 C   0  0  0  0  0  0
  -21.3987   -6.5631   23.8224 C   0  0  0  0  0  0
  -21.3658   -5.6790   24.9196 C   0  0  0  0  0  0
  -21.6038   -4.3052   24.7239 C   0  0  0  0  0  0
  -21.8820   -3.8149   23.4357 C   0  0  0  0  0  0
  -21.9176   -4.6972   22.3411 C   0  0  0  0  0  0
  -22.7814  -13.5235   21.1900 C   0  0  0  0  0  0
  -22.1656   -4.2152   21.0991 F   0  0  0  0  0  0
  -21.5653   -3.4533   25.7747 F   0  0  0  0  0  0
  -30.0210  -13.4458   20.3221 N   0  0  0  0  0  0
  -26.2926  -12.9238   20.3396 N   0  0  0  0  0  0
  -25.9264  -11.6410   20.5860 N   0  0  0  0  0  0
  -22.0358  -12.8261   22.0438 N   0  0  0  0  0  0
  -25.4221  -15.1808   20.4286 N   0  0  0  0  0  0
  -32.0470  -14.4144   20.3022 O   0  0  0  0  0  0
  -21.6622   -6.8895   21.4257 O   0  0  0  0  0  0
  -22.3527  -14.5505   20.6712 O   0  0  0  0  0  0
  -24.6125  -31.8767   23.2153 C   0  0  0  0  0  0
  -25.9019  -32.4860   23.8453 C   0  0  1  0  0  0
  -27.2204  -27.4260   20.0772 C   0  0  0  0  0  0
  -25.5888  -33.8650   24.2402 N   0  0  0  0  0  0
  -23.4015  -30.5034   21.5556 C   0  0  2  0  0  0
  -24.8421  -28.9628   20.1251 C   0  0  0  0  0  0
  -22.7414  -29.4735   22.4981 C   0  0  0  0  0  0
  -18.0299  -28.1364   22.8532 C   0  0  0  0  0  0
  -24.1470  -36.7305   23.2645 C   0  0  0  0  0  0
  -25.9333  -30.8344   21.3690 C   0  0  0  0  0  0
  -26.0082  -29.4668   20.7123 C   0  0  0  0  0  0
  -27.2014  -28.7081   20.6820 C   0  0  0  0  0  0
  -26.0190  -26.9313   19.5126 C   0  0  0  0  0  0
  -24.8410  -27.6955   19.5284 C   0  0  0  0  0  0
  -23.6134  -29.8394   20.1689 C   0  0  0  0  0  0
  -25.4076  -36.3109   24.0372 C   0  0  1  0  0  0
  -20.5877  -28.3716   23.1282 C   0  0  2  0  0  0
  -20.6757  -26.9444   22.5386 C   0  0  0  0  0  0
  -19.5716  -26.6393   21.5205 C   0  0  0  0  0  0
  -18.1917  -26.7901   22.1656 C   0  0  0  0  0  0
  -19.1545  -28.8839   23.2914 C   0  0  0  0  0  0
  -18.9487  -30.1424   23.8940 C   0  0  0  0  0  0
  -17.6496  -30.6572   24.0582 C   0  0  0  0  0  0
  -25.9023  -34.9476   23.5185 C   0  0  0  0  0  0
  -16.5391  -29.9089   23.6275 C   0  0  0  0  0  0
  -16.7298  -28.6476   23.0375 C   0  0  0  0  0  0
  -26.4444  -31.6596   25.0737 C   0  0  0  0  0  0
  -25.3724  -31.3718   26.1509 C   0  0  0  0  0  0
  -27.0286  -30.3024   24.6112 C   0  0  0  0  0  0
  -27.6027  -32.4317   25.7483 C   0  0  0  0  0  0
  -27.5567  -37.1807   24.8471 C   0  0  0  0  0  0
  -21.4151  -29.3113   22.3698 N   0  0  0  0  0  0
  -26.4274  -37.3786   23.9420 N   0  0  0  0  0  0
  -24.6676  -31.0833   22.1078 N   0  0  0  0  0  0
  -23.4153  -28.8260   23.3041 O   0  0  0  0  0  0
  -28.4000  -26.7031   20.0490 O   0  0  0  0  0  0
  -26.5597  -34.8932   22.4732 O   0  0  0  0  0  0
  -23.5315  -32.1556   23.7559 O   0  0  0  0  0  0
  -29.7537  -20.7874   23.0697 C   0  0  0  0  0  0
  -28.0773  -19.8156   21.0786 C   0  0  0  0  0  0
  -29.9183  -19.4462   22.6352 C   0  0  0  0  0  0
  -28.7571  -21.6145   22.5358 C   0  0  0  0  0  0
  -28.9760  -18.9023   21.7038 C   0  0  0  0  0  0
  -28.0028  -21.1786   21.4382 C   0  0  0  0  0  0
  -31.2139  -18.6669   24.7814 C   0  0  0  0  0  0
  -32.2575  -19.2939   23.8961 C   0  0  0  0  0  0
  -27.1168  -17.3520   18.7928 C   0  0  0  0  0  0
  -28.3885  -18.0530   18.3182 C   0  0  0  0  0  0
  -31.0202  -18.6412   23.2770 C   0  0  0  0  0  0
  -28.4554  -16.7052   18.9810 C   0  0  0  0  0  0
  -28.3934  -22.8845   23.2734 C   0  0  0  0  0  0
  -31.3245  -16.9191   19.9708 C   0  0  0  0  0  0
  -28.7016  -17.3664   21.6119 C   0  0  0  0  0  0
  -27.9193  -24.3172   20.5023 C   0  0  0  0  0  0
  -28.3989  -25.3738   19.4943 C   0  0  0  0  0  0
  -27.5177  -22.9429   19.9073 C   0  0  0  0  0  0
  -29.0221  -16.4221   20.3846 C   0  0  1  0  0  0
  -30.3762  -15.8509   20.3693 N   0  0  0  0  0  0
  -27.0506  -21.9987   20.8749 O   0  0  0  0  0  0
  -31.4452  -12.4062   19.0772 H   0  0  0  0  0  0
  -30.3007  -11.3769   19.8774 H   0  0  0  0  0  0
  -29.7185  -11.7112   17.4312 H   0  0  0  0  0  0
  -29.6211  -13.4277   17.6964 H   0  0  0  0  0  0
  -27.8549  -11.2537   18.8942 H   0  0  0  0  0  0
  -27.3322  -12.4956   17.7918 H   0  0  0  0  0  0
  -27.6078  -14.1892   19.4079 H   0  0  0  0  0  0
  -28.7525  -12.1266   21.3706 H   0  0  0  0  0  0
  -28.5160  -13.7917   21.7922 H   0  0  0  0  0  0
  -25.2721   -9.5711   22.4787 H   0  0  0  0  0  0
  -24.0003   -7.4632   22.7460 H   0  0  0  0  0  0
  -21.0856   -8.8788   19.8932 H   0  0  0  0  0  0
  -22.3702  -10.9695   19.6171 H   0  0  0  0  0  0
  -21.1957   -7.6134   23.9746 H   0  0  0  0  0  0
  -21.1484   -6.0501   25.9098 H   0  0  0  0  0  0
  -22.0586   -2.7610   23.2847 H   0  0  0  0  0  0
  -22.3876  -11.9941   22.4942 H   0  0  0  0  0  0
  -21.0953  -13.1331   22.2471 H   0  0  0  0  0  0
  -24.6554  -15.8368   20.5468 H   0  0  0  0  0  0
  -26.2725  -15.6274   20.1042 H   0  0  0  0  0  0
  -26.7090  -32.5552   23.1236 H   0  0  0  0  0  0
  -24.9968  -33.9839   25.0505 H   0  0  0  0  0  0
  -22.6906  -31.3188   21.4168 H   0  0  0  0  0  0
  -23.3730  -35.9639   23.3318 H   0  0  0  0  0  0
  -24.3570  -36.8902   22.2052 H   0  0  0  0  0  0
  -23.7243  -37.6525   23.6649 H   0  0  0  0  0  0
  -26.0488  -31.6118   20.6090 H   0  0  0  0  0  0
  -26.8156  -30.8835   21.9969 H   0  0  0  0  0  0
  -28.1051  -29.1126   21.1158 H   0  0  0  0  0  0
  -25.9508  -25.9543   19.0572 H   0  0  0  0  0  0
  -23.9390  -27.3085   19.0769 H   0  0  0  0  0  0
  -23.7363  -30.6155   19.4148 H   0  0  0  0  0  0
  -22.7320  -29.2785   19.8604 H   0  0  0  0  0  0
  -25.1246  -36.1986   25.0876 H   0  0  0  0  0  0
  -21.0050  -28.3301   24.1384 H   0  0  0  0  0  0
  -20.5595  -26.2409   23.3644 H   0  0  0  0  0  0
  -21.6632  -26.7407   22.1238 H   0  0  0  0  0  0
  -19.6875  -25.6306   21.1232 H   0  0  0  0  0  0
  -19.6549  -27.3188   20.6715 H   0  0  0  0  0  0
  -17.4182  -26.6716   21.4064 H   0  0  0  0  0  0
  -18.0311  -25.9989   22.8993 H   0  0  0  0  0  0
  -19.7968  -30.7210   24.2359 H   0  0  0  0  0  0
  -17.5060  -31.6238   24.5202 H   0  0  0  0  0  0
  -15.5390  -30.3045   23.7490 H   0  0  0  0  0  0
  -15.8723  -28.0758   22.7135 H   0  0  0  0  0  0
  -24.5893  -30.7061   25.7852 H   0  0  0  0  0  0
  -24.8917  -32.2898   26.4911 H   0  0  0  0  0  0
  -25.8075  -30.8917   27.0289 H   0  0  0  0  0  0
  -26.2852  -29.6812   24.1113 H   0  0  0  0  0  0
  -27.4013  -29.7206   25.4552 H   0  0  0  0  0  0
  -27.8692  -30.4325   23.9292 H   0  0  0  0  0  0
  -27.2643  -33.3619   26.2074 H   0  0  0  0  0  0
  -28.3817  -32.6912   25.0292 H   0  0  0  0  0  0
  -28.0742  -31.8455   26.5411 H   0  0  0  0  0  0
  -28.2601  -38.0088   24.7496 H   0  0  0  0  0  0
  -28.1059  -36.2625   24.6309 H   0  0  0  0  0  0
  -27.2312  -37.1481   25.8889 H   0  0  0  0  0  0
  -20.9340  -29.8915   21.6966 H   0  0  0  0  0  0
  -26.0168  -38.2868   24.1391 H   0  0  0  0  0  0
  -30.3247  -21.1873   23.8969 H   0  0  0  0  0  0
  -27.3289  -19.4674   20.3920 H   0  0  0  0  0  0
  -30.6507  -19.3539   25.4130 H   0  0  0  0  0  0
  -31.4939  -17.7347   25.2570 H   0  0  0  0  0  0
  -33.1992  -18.7527   23.8926 H   0  0  0  0  0  0
  -32.3565  -20.3822   23.9047 H   0  0  0  0  0  0
  -26.4714  -16.8793   18.0582 H   0  0  0  0  0  0
  -26.6026  -17.6659   19.6955 H   0  0  0  0  0  0
  -28.8464  -18.8593   18.8805 H   0  0  0  0  0  0
  -28.5912  -18.0884   17.2466 H   0  0  0  0  0  0
  -31.2150  -17.7177   22.7266 H   0  0  0  0  0  0
  -28.6460  -15.8922   18.2827 H   0  0  0  0  0  0
  -27.3830  -23.2164   23.0297 H   0  0  0  0  0  0
  -29.0987  -23.6919   23.0903 H   0  0  0  0  0  0
  -28.3781  -22.6611   24.3371 H   0  0  0  0  0  0
  -30.9156  -17.9243   20.0903 H   0  0  0  0  0  0
  -31.5415  -16.8137   18.9089 H   0  0  0  0  0  0
  -32.2764  -16.8857   20.5039 H   0  0  0  0  0  0
  -27.6229  -17.2671   21.7643 H   0  0  0  0  0  0
  -29.1121  -16.8885   22.5053 H   0  0  0  0  0  0
  -27.1215  -24.7016   21.1389 H   0  0  0  0  0  0
  -28.7899  -24.1867   21.1270 H   0  0  0  0  0  0
  -27.8888  -25.3019   18.5362 H   0  0  0  0  0  0
  -29.4335  -25.1354   19.2528 H   0  0  0  0  0  0
  -28.3307  -22.4990   19.3357 H   0  0  0  0  0  0
  -26.6807  -23.0794   19.2250 H   0  0  0  0  0  0
  -28.4230  -15.5895   20.6976 H   0  0  0  0  0  0
  1 25  1  0  0  0
  1 30  2  0  0  0
  1 90  1  0  0  0
  2  3  1  0  0  0
  2 25  1  0  0  0
  2 92  1  0  0  0
  2 93  1  0  0  0
  3  4  1  0  0  0
  3 94  1  0  0  0
  3 95  1  0  0  0
  4  5  1  0  0  0
  4 96  1  0  0  0
  4 97  1  0  0  0
  5  6  1  0  0  0
  5 26  1  0  0  0
  5 98  1  0  0  0
  6 25  1  0  0  0
  6 99  1  0  0  0
  6100  1  0  0  0
  7  8  2  0  0  0
  7 26  1  0  0  0
  7 29  1  0  0  0
  8  9  1  0  0  0
  8 22  1  0  0  0
  9 10  1  0  0  0
  9 27  2  0  0  0
 10 11  2  0  0  0
 10 15  1  0  0  0
 11 12  1  0  0  0
 11101  1  0  0  0
 12 13  2  0  0  0
 12102  1  0  0  0
 13 14  1  0  0  0
 13 31  1  0  0  0
 14 15  2  0  0  0
 14103  1  0  0  0
 15104  1  0  0  0
 16 17  2  0  0  0
 16 21  1  0  0  0
 16 31  1  0  0  0
 17 18  1  0  0  0
 17105  1  0  0  0
 18 19  2  0  0  0
 18106  1  0  0  0
 19 20  1  0  0  0
 19 24  1  0  0  0
 20 21  2  0  0  0
 20107  1  0  0  0
 21 23  1  0  0  0
 22 28  1  0  0  0
 22 32  2  0  0  0
 26 27  1  0  0  0
 28108  1  0  0  0
 28109  1  0  0  0
 29110  1  0  0  0
 29111  1  0  0  0
 33 34  1  0  0  0
 33 66  1  0  0  0
 33 70  2  0  0  0
 34 36  1  0  0  0
 34 59  1  0  0  0
 34112  1  0  0  0
 35 44  2  0  0  0
 35 45  1  0  0  0
 35 68  1  0  0  0
 36 56  1  0  0  0
 36113  1  0  0  0
 37 39  1  0  0  0
 37 47  1  0  0  0
 37 66  1  0  0  0
 37114  1  0  0  0
 38 43  2  0  0  0
 38 46  1  0  0  0
 38 47  1  0  0  0
 39 64  1  0  0  0
 39 67  2  0  0  0
 40 52  1  0  0  0
 40 53  2  0  0  0
 40 58  1  0  0  0
 41115  1  0  0  0
 41116  1  0  0  0
 41117  1  0  0  0
 41 48  1  0  0  0
 42 43  1  0  0  0
 42 66  1  0  0  0
 42118  1  0  0  0
 42119  1  0  0  0
 43 44  1  0  0  0
 44120  1  0  0  0
 45 46  2  0  0  0
 45121  1  0  0  0
 46122  1  0  0  0
 47123  1  0  0  0
 47124  1  0  0  0
 48 56  1  0  0  0
 48 65  1  0  0  0
 48125  1  0  0  0
 49 50  1  0  0  0
 49 53  1  0  0  0
 49 64  1  0  0  0
 49126  1  0  0  0
 50 51  1  0  0  0
 50127  1  0  0  0
 50128  1  0  0  0
 51 52  1  0  0  0
 51129  1  0  0  0
 51130  1  0  0  0
 52131  1  0  0  0
 52132  1  0  0  0
 53 54  1  0  0  0
 54 55  2  0  0  0
 54133  1  0  0  0
 55 57  1  0  0  0
 55134  1  0  0  0
 56 69  2  0  0  0
 57 58  2  0  0  0
 57135  1  0  0  0
 58136  1  0  0  0
 59 60  1  0  0  0
 59 61  1  0  0  0
 59 62  1  0  0  0
 60137  1  0  0  0
 60138  1  0  0  0
 60139  1  0  0  0
 61140  1  0  0  0
 61141  1  0  0  0
 61142  1  0  0  0
 62143  1  0  0  0
 62144  1  0  0  0
 62145  1  0  0  0
 63 65  1  0  0  0
 63146  1  0  0  0
 63147  1  0  0  0
 63148  1  0  0  0
 64149  1  0  0  0
 65150  1  0  0  0
 68 87  1  0  0  0
 71 73  2  0  0  0
 71 74  1  0  0  0
 71151  1  0  0  0
 72 75  2  0  0  0
 72 76  1  0  0  0
 72152  1  0  0  0
 73 75  1  0  0  0
 73 81  1  0  0  0
 74 76  2  0  0  0
 74 83  1  0  0  0
 75 85  1  0  0  0
 76 91  1  0  0  0
 77 78  1  0  0  0
 77 81  1  0  0  0
 77153  1  0  0  0
 77154  1  0  0  0
 78 81  1  0  0  0
 78155  1  0  0  0
 78156  1  0  0  0
 79 80  1  0  0  0
 79157  1  0  0  0
 79158  1  0  0  0
 79 82  1  0  0  0
 80 82  1  0  0  0
 80159  1  0  0  0
 80160  1  0  0  0
 81161  1  0  0  0
 82 89  1  0  0  0
 82162  1  0  0  0
 83163  1  0  0  0
 83164  1  0  0  0
 83165  1  0  0  0
 84 90  1  0  0  0
 84166  1  0  0  0
 84167  1  0  0  0
 84168  1  0  0  0
 85169  1  0  0  0
 85170  1  0  0  0
 85 89  1  0  0  0
 86 87  1  0  0  0
 86 88  1  0  0  0
 86171  1  0  0  0
 86172  1  0  0  0
 87173  1  0  0  0
 87174  1  0  0  0
 88 91  1  0  0  0
 88175  1  0  0  0
 88176  1  0  0  0
 89 90  1  0  0  0
 89177  1  0  0  0
M  ISO  4   1 100  68 101  87 101  90 100
M  END
> <chiral flag>
0

> <version>
0

> <s_m_source_file>
/data/baiqing/PycharmProjects/Reinvent-master-3.2/result/LINK_invent/BTK/process_docking_weight1_custom_sum_contain_oxygen_bond_distance_aromatic_linkinvent_7_9_3/rearranged_h_0145.sdf

> <i_m_source_file_index>
81

> <r_mmod_Potential_Energy-OPLS-2005>
391.309265136719

> <r_mmod_Stretch_Energy-OPLS-2005>
57.2984771728516

> <r_mmod_Bend_Energy-OPLS-2005>
206.869415283203

> <r_mmod_Torsional_Energy-OPLS-2005>
409.022583007812

> <r_mmod_Improper_Torsional_Energy-OPLS-2005>
14.6281185150146

> <r_mmod_Van_der_Waal_Energy-OPLS-2005>
173.236267089844

> <r_mmod_Electrostatic_Energy-OPLS-2005>
-332.279846191406

> <r_mmod_Solvation_Energy-OPLS-2005>
-188.894927978516

> <b_mmod_Minimization_Converged-OPLS-2005>
0

> <r_mmod_RMS_Derivative-OPLS-2005>
11.0441999435425

$$$$
82
                    3D
 Structure written by MMmdl.
171180  0  0  1  0            999 V2000
  -30.6167  -14.6973   20.4976 C   0  0  0  0  0  0
  -30.4417  -12.4299   19.4698 C   0  0  0  0  0  0
  -29.5143  -12.5086   18.2364 C   0  0  0  0  0  0
  -28.0376  -12.3403   18.6451 C   0  0  0  0  0  0
  -27.6506  -13.2251   19.8607 C   0  0  2  0  0  0
  -28.6941  -13.1175   20.9949 C   0  0  0  0  0  0
  -25.2553  -13.8184   20.5707 C   0  0  0  0  0  0
  -24.1830  -13.0434   20.9211 C   0  0  0  0  0  0
  -24.6406  -11.6910   20.8733 C   0  0  0  0  0  0
  -23.9068  -10.4290   21.0394 C   0  0  0  0  0  0
  -24.3618   -9.4208   21.9177 C   0  0  0  0  0  0
  -23.6294   -8.2239   22.0748 C   0  0  0  0  0  0
  -22.4275   -8.0279   21.3539 C   0  0  0  0  0  0
  -21.9911   -9.0249   20.4640 C   0  0  0  0  0  0
  -22.7237  -10.2133   20.3048 C   0  0  0  0  0  0
  -21.6850   -6.0742   22.5278 C   0  0  0  0  0  0
  -21.4016   -6.5638   23.8213 C   0  0  0  0  0  0
  -21.3660   -5.6791   24.9173 C   0  0  0  0  0  0
  -21.6043   -4.3052   24.7218 C   0  0  0  0  0  0
  -21.8821   -3.8148   23.4337 C   0  0  0  0  0  0
  -21.9193   -4.6969   22.3395 C   0  0  0  0  0  0
  -22.7849  -13.5218   21.1862 C   0  0  0  0  0  0
  -22.1661   -4.2160   21.0973 F   0  0  0  0  0  0
  -21.5626   -3.4531   25.7725 F   0  0  0  0  0  0
  -30.0038  -13.4696   20.4267 N   0  0  0  0  0  0
  -26.2983  -12.9377   20.3313 N   0  0  0  0  0  0
  -25.9339  -11.6525   20.5750 N   0  0  0  0  0  0
  -22.0487  -12.8215   22.0422 N   0  0  0  0  0  0
  -25.4231  -15.1913   20.4122 N   0  0  0  0  0  0
  -31.7816  -14.8439   20.1141 O   0  0  0  0  0  0
  -21.6635   -6.8882   21.4239 O   0  0  0  0  0  0
  -22.3531  -14.5515   20.6700 O   0  0  0  0  0  0
  -24.6296  -31.8572   23.2009 C   0  0  0  0  0  0
  -25.9129  -32.4769   23.8355 C   0  0  1  0  0  0
  -27.2193  -27.2966   20.1277 C   0  0  0  0  0  0
  -25.5925  -33.8579   24.2275 N   0  0  0  0  0  0
  -23.4247  -30.4809   21.5426 C   0  0  2  0  0  0
  -24.8729  -28.9329   20.1086 C   0  0  0  0  0  0
  -22.7504  -29.4615   22.4927 C   0  0  0  0  0  0
  -18.0307  -28.1374   22.8493 C   0  0  0  0  0  0
  -24.1486  -36.7287   23.2643 C   0  0  0  0  0  0
  -25.9686  -30.7830   21.3755 C   0  0  0  0  0  0
  -26.0434  -29.4079   20.7167 C   0  0  0  0  0  0
  -27.2248  -28.6026   20.7132 C   0  0  0  0  0  0
  -26.0332  -26.8840   19.4851 C   0  0  0  0  0  0
  -24.8702  -27.6778   19.4801 C   0  0  0  0  0  0
  -23.6416  -29.8162   20.1570 C   0  0  0  0  0  0
  -25.4115  -36.3088   24.0336 C   0  0  1  0  0  0
  -20.5903  -28.3691   23.1279 C   0  0  2  0  0  0
  -20.6796  -26.9390   22.5479 C   0  0  0  0  0  0
  -19.5787  -26.6309   21.5288 C   0  0  0  0  0  0
  -18.1959  -26.7890   22.1675 C   0  0  0  0  0  0
  -19.1555  -28.8854   23.2869 C   0  0  0  0  0  0
  -18.9489  -30.1457   23.8884 C   0  0  0  0  0  0
  -17.6487  -30.6586   24.0548 C   0  0  0  0  0  0
  -25.9048  -34.9454   23.5110 C   0  0  0  0  0  0
  -16.5379  -29.9079   23.6328 C   0  0  0  0  0  0
  -16.7292  -28.6491   23.0360 C   0  0  0  0  0  0
  -26.4503  -31.6591   25.0738 C   0  0  0  0  0  0
  -25.3742  -31.3717   26.1465 C   0  0  0  0  0  0
  -27.0358  -30.3012   24.6224 C   0  0  0  0  0  0
  -27.6064  -32.4332   25.7497 C   0  0  0  0  0  0
  -27.5586  -37.1804   24.8472 C   0  0  0  0  0  0
  -21.4216  -29.3024   22.3657 N   0  0  0  0  0  0
  -26.4292  -37.3783   23.9420 N   0  0  0  0  0  0
  -24.6931  -31.0569   22.0961 N   0  0  0  0  0  0
  -23.4220  -28.8181   23.3034 O   0  0  0  0  0  0
  -28.2986  -26.3956   20.1624 O   0  0  0  0  0  0
  -26.5620  -34.8922   22.4675 O   0  0  0  0  0  0
  -23.5454  -32.1392   23.7301 O   0  0  0  0  0  0
  -28.7483  -19.7925   21.7107 C   0  0  0  0  0  0
  -28.9659  -20.9935   20.9077 C   0  0  0  0  0  0
  -28.4679  -22.3186   21.3114 C   0  0  0  0  0  0
  -28.0227  -20.0320   22.9060 C   0  0  0  0  0  0
  -27.7615  -22.3273   22.5497 C   0  0  0  0  0  0
  -29.1250  -18.2506   21.5263 C   0  0  2  0  0  0
  -30.5390  -17.9246   22.0053 C   0  0  2  0  0  0
  -30.0833  -17.2461   20.7512 C   0  0  1  0  0  0
  -27.6152  -18.9400   23.8884 C   0  0  0  0  0  0
  -27.1094  -23.5215   23.2312 C   0  0  0  0  0  0
  -28.7733  -20.4776   18.4395 C   0  0  0  0  0  0
  -31.2560  -18.0585   24.4414 C   0  0  0  0  0  0
  -29.7142  -20.8406   19.5949 C   0  0  0  0  0  0
  -28.6961  -23.6681   20.4570 C   0  0  0  0  0  0
  -30.8170  -17.1495   23.2843 C   0  0  0  0  0  0
  -28.0484  -25.1006   20.8591 C   0  0  0  0  0  0
  -27.5709  -21.2300   23.2885 N   0  0  0  0  0  0
  -29.8306  -15.7749   20.8404 N   0  0  0  0  0  0
  -31.4821  -12.5620   19.1670 H   0  0  0  0  0  0
  -30.3896  -11.4432   19.9323 H   0  0  0  0  0  0
  -29.7907  -11.7445   17.5092 H   0  0  0  0  0  0
  -29.6489  -13.4695   17.7362 H   0  0  0  0  0  0
  -27.8808  -11.2891   18.8891 H   0  0  0  0  0  0
  -27.3848  -12.5562   17.7988 H   0  0  0  0  0  0
  -27.6579  -14.2542   19.5011 H   0  0  0  0  0  0
  -28.7186  -12.1043   21.3996 H   0  0  0  0  0  0
  -28.4307  -13.7689   21.8300 H   0  0  0  0  0  0
  -25.2763   -9.5691   22.4756 H   0  0  0  0  0  0
  -24.0009   -7.4630   22.7463 H   0  0  0  0  0  0
  -21.0845   -8.8760   19.8944 H   0  0  0  0  0  0
  -22.3685  -10.9672   19.6159 H   0  0  0  0  0  0
  -21.2011   -7.6148   23.9727 H   0  0  0  0  0  0
  -21.1486   -6.0513   25.9080 H   0  0  0  0  0  0
  -22.0606   -2.7613   23.2826 H   0  0  0  0  0  0
  -22.4086  -11.9881   22.4838 H   0  0  0  0  0  0
  -21.1101  -13.1256   22.2601 H   0  0  0  0  0  0
  -24.6487  -15.8377   20.5158 H   0  0  0  0  0  0
  -26.2592  -15.6337   20.0528 H   0  0  0  0  0  0
  -26.7212  -32.5418   23.1118 H   0  0  0  0  0  0
  -25.0084  -33.9719   25.0432 H   0  0  0  0  0  0
  -22.7200  -31.3017   21.3966 H   0  0  0  0  0  0
  -23.3746  -35.9617   23.3304 H   0  0  0  0  0  0
  -24.3576  -36.8916   22.2060 H   0  0  0  0  0  0
  -23.7241  -37.6493   23.6651 H   0  0  0  0  0  0
  -26.1047  -31.5476   20.6082 H   0  0  0  0  0  0
  -26.8464  -30.8269   22.0103 H   0  0  0  0  0  0
  -28.1230  -28.9594   21.1981 H   0  0  0  0  0  0
  -25.9954  -25.9179   19.0021 H   0  0  0  0  0  0
  -23.9766  -27.3091   18.9945 H   0  0  0  0  0  0
  -23.7667  -30.5931   19.4011 H   0  0  0  0  0  0
  -22.7596  -29.2505   19.8503 H   0  0  0  0  0  0
  -25.1296  -36.1942   25.0827 H   0  0  0  0  0  0
  -20.9989  -28.3304   24.1399 H   0  0  0  0  0  0
  -20.5652  -26.2347   23.3734 H   0  0  0  0  0  0
  -21.6683  -26.7373   22.1339 H   0  0  0  0  0  0
  -19.6950  -25.6187   21.1413 H   0  0  0  0  0  0
  -19.6730  -27.3047   20.6760 H   0  0  0  0  0  0
  -17.4243  -26.6602   21.4069 H   0  0  0  0  0  0
  -18.0336  -26.0060   22.9104 H   0  0  0  0  0  0
  -19.7966  -30.7271   24.2270 H   0  0  0  0  0  0
  -17.5047  -31.6271   24.5133 H   0  0  0  0  0  0
  -15.5386  -30.2987   23.7636 H   0  0  0  0  0  0
  -15.8700  -28.0791   22.7091 H   0  0  0  0  0  0
  -24.5917  -30.7062   25.7801 H   0  0  0  0  0  0
  -24.8920  -32.2867   26.4904 H   0  0  0  0  0  0
  -25.8077  -30.8898   27.0239 H   0  0  0  0  0  0
  -26.2950  -29.6736   24.1259 H   0  0  0  0  0  0
  -27.4054  -29.7294   25.4747 H   0  0  0  0  0  0
  -27.8812  -30.4283   23.9462 H   0  0  0  0  0  0
  -27.2683  -33.3636   26.2062 H   0  0  0  0  0  0
  -28.3865  -32.6898   25.0320 H   0  0  0  0  0  0
  -28.0738  -31.8474   26.5423 H   0  0  0  0  0  0
  -28.2616  -38.0092   24.7517 H   0  0  0  0  0  0
  -28.1068  -36.2626   24.6287 H   0  0  0  0  0  0
  -27.2297  -37.1463   25.8874 H   0  0  0  0  0  0
  -20.9403  -29.8757   21.6873 H   0  0  0  0  0  0
  -26.0171  -38.2860   24.1394 H   0  0  0  0  0  0
  -28.2664  -17.6704   21.8555 H   0  0  0  0  0  0
  -31.3006  -18.6782   21.8114 H   0  0  0  0  0  0
  -30.4887  -17.6039   19.8063 H   0  0  0  0  0  0
  -26.7861  -18.3644   23.4781 H   0  0  0  0  0  0
  -27.2791  -19.3543   24.8392 H   0  0  0  0  0  0
  -28.4281  -18.2573   24.1186 H   0  0  0  0  0  0
  -26.3357  -23.9769   22.6168 H   0  0  0  0  0  0
  -27.8466  -24.2499   23.5625 H   0  0  0  0  0  0
  -26.5927  -23.2178   24.1426 H   0  0  0  0  0  0
  -29.3297  -20.3514   17.5112 H   0  0  0  0  0  0
  -28.0233  -21.2524   18.2771 H   0  0  0  0  0  0
  -28.2475  -19.5450   18.6452 H   0  0  0  0  0  0
  -31.3891  -17.4833   25.3583 H   0  0  0  0  0  0
  -30.5343  -18.8505   24.6418 H   0  0  0  0  0  0
  -32.2104  -18.5374   24.2197 H   0  0  0  0  0  0
  -30.4807  -20.0732   19.7056 H   0  0  0  0  0  0
  -30.2585  -21.7546   19.3615 H   0  0  0  0  0  0
  -29.7749  -23.8078   20.3893 H   0  0  0  0  0  0
  -28.3690  -23.4483   19.4415 H   0  0  0  0  0  0
  -31.6074  -16.4249   23.0837 H   0  0  0  0  0  0
  -29.9341  -16.5748   23.5653 H   0  0  0  0  0  0
  -28.3762  -25.3377   21.8664 H   0  0  0  0  0  0
  -26.9732  -24.9531   20.8990 H   0  0  0  0  0  0
  -28.8945  -15.5249   21.1194 H   0  0  0  0  0  0
  1 25  1  0  0  0
  1 30  2  0  0  0
  1 88  1  0  0  0
  2  3  1  0  0  0
  2 25  1  0  0  0
  2 89  1  0  0  0
  2 90  1  0  0  0
  3  4  1  0  0  0
  3 91  1  0  0  0
  3 92  1  0  0  0
  4  5  1  0  0  0
  4 93  1  0  0  0
  4 94  1  0  0  0
  5  6  1  0  0  0
  5 26  1  0  0  0
  5 95  1  0  0  0
  6 25  1  0  0  0
  6 96  1  0  0  0
  6 97  1  0  0  0
  7  8  2  0  0  0
  7 26  1  0  0  0
  7 29  1  0  0  0
  8  9  1  0  0  0
  8 22  1  0  0  0
  9 10  1  0  0  0
  9 27  2  0  0  0
 10 11  2  0  0  0
 10 15  1  0  0  0
 11 12  1  0  0  0
 11 98  1  0  0  0
 12 13  2  0  0  0
 12 99  1  0  0  0
 13 14  1  0  0  0
 13 31  1  0  0  0
 14 15  2  0  0  0
 14100  1  0  0  0
 15101  1  0  0  0
 16 17  2  0  0  0
 16 21  1  0  0  0
 16 31  1  0  0  0
 17 18  1  0  0  0
 17102  1  0  0  0
 18 19  2  0  0  0
 18103  1  0  0  0
 19 20  1  0  0  0
 19 24  1  0  0  0
 20 21  2  0  0  0
 20104  1  0  0  0
 21 23  1  0  0  0
 22 28  1  0  0  0
 22 32  2  0  0  0
 26 27  1  0  0  0
 28105  1  0  0  0
 28106  1  0  0  0
 29107  1  0  0  0
 29108  1  0  0  0
 33 34  1  0  0  0
 33 66  1  0  0  0
 33 70  2  0  0  0
 34 36  1  0  0  0
 34 59  1  0  0  0
 34109  1  0  0  0
 35 44  2  0  0  0
 35 45  1  0  0  0
 35 68  1  0  0  0
 36 56  1  0  0  0
 36110  1  0  0  0
 37 39  1  0  0  0
 37 47  1  0  0  0
 37 66  1  0  0  0
 37111  1  0  0  0
 38 43  2  0  0  0
 38 46  1  0  0  0
 38 47  1  0  0  0
 39 64  1  0  0  0
 39 67  2  0  0  0
 40 52  1  0  0  0
 40 53  2  0  0  0
 40 58  1  0  0  0
 41112  1  0  0  0
 41113  1  0  0  0
 41114  1  0  0  0
 41 48  1  0  0  0
 42 43  1  0  0  0
 42 66  1  0  0  0
 42115  1  0  0  0
 42116  1  0  0  0
 43 44  1  0  0  0
 44117  1  0  0  0
 45 46  2  0  0  0
 45118  1  0  0  0
 46119  1  0  0  0
 47120  1  0  0  0
 47121  1  0  0  0
 48 56  1  0  0  0
 48 65  1  0  0  0
 48122  1  0  0  0
 49 50  1  0  0  0
 49 53  1  0  0  0
 49 64  1  0  0  0
 49123  1  0  0  0
 50 51  1  0  0  0
 50124  1  0  0  0
 50125  1  0  0  0
 51 52  1  0  0  0
 51126  1  0  0  0
 51127  1  0  0  0
 52128  1  0  0  0
 52129  1  0  0  0
 53 54  1  0  0  0
 54 55  2  0  0  0
 54130  1  0  0  0
 55 57  1  0  0  0
 55131  1  0  0  0
 56 69  2  0  0  0
 57 58  2  0  0  0
 57132  1  0  0  0
 58133  1  0  0  0
 59 60  1  0  0  0
 59 61  1  0  0  0
 59 62  1  0  0  0
 60134  1  0  0  0
 60135  1  0  0  0
 60136  1  0  0  0
 61137  1  0  0  0
 61138  1  0  0  0
 61139  1  0  0  0
 62140  1  0  0  0
 62141  1  0  0  0
 62142  1  0  0  0
 63 65  1  0  0  0
 63143  1  0  0  0
 63144  1  0  0  0
 63145  1  0  0  0
 64146  1  0  0  0
 65147  1  0  0  0
 68 86  1  0  0  0
 71 72  2  0  0  0
 71 74  1  0  0  0
 71 76  1  0  0  0
 72 73  1  0  0  0
 72 83  1  0  0  0
 73 75  2  0  0  0
 73 84  1  0  0  0
 74 79  1  0  0  0
 74 87  2  0  0  0
 75 80  1  0  0  0
 75 87  1  0  0  0
 76 77  1  0  0  0
 76 78  1  0  0  0
 76148  1  0  0  0
 77 78  1  0  0  0
 77 85  1  0  0  0
 77149  1  0  0  0
 78 88  1  0  0  0
 78150  1  0  0  0
 79151  1  0  0  0
 79152  1  0  0  0
 79153  1  0  0  0
 80154  1  0  0  0
 80155  1  0  0  0
 80156  1  0  0  0
 81 83  1  0  0  0
 81157  1  0  0  0
 81158  1  0  0  0
 81159  1  0  0  0
 82 85  1  0  0  0
 82160  1  0  0  0
 82161  1  0  0  0
 82162  1  0  0  0
 83163  1  0  0  0
 83164  1  0  0  0
 84 86  1  0  0  0
 84165  1  0  0  0
 84166  1  0  0  0
 85167  1  0  0  0
 85168  1  0  0  0
 86169  1  0  0  0
 86170  1  0  0  0
 88171  1  0  0  0
M  ISO  4   1 100  68 101  86 101  88 100
M  END
> <chiral flag>
0

> <version>
0

> <s_m_source_file>
/data/baiqing/PycharmProjects/Reinvent-master-3.2/result/LINK_invent/BTK/process_docking_weight1_custom_sum_contain_oxygen_bond_distance_aromatic_linkinvent_7_9_3/rearranged_h_0145.sdf

> <i_m_source_file_index>
82

> <r_mmod_Potential_Energy-OPLS-2005>
72.4102630615234

> <r_mmod_Stretch_Energy-OPLS-2005>
125.73274230957

> <r_mmod_Bend_Energy-OPLS-2005>
233.888137817383

> <r_mmod_Torsional_Energy-OPLS-2005>
293.781005859375

> <r_mmod_Improper_Torsional_Energy-OPLS-2005>
4.08663654327393

> <r_mmod_Van_der_Waal_Energy-OPLS-2005>
149.318115234375

> <r_mmod_Electrostatic_Energy-OPLS-2005>
-586.448059082031

> <r_mmod_Solvation_Energy-OPLS-2005>
-215.135055541992

> <b_mmod_Minimization_Converged-OPLS-2005>
0

> <r_mmod_RMS_Derivative-OPLS-2005>
2.11801338195801

$$$$
83
                    3D
 Structure written by MMmdl.
168177  0  0  1  0            999 V2000
  -30.5831  -14.6817   20.5448 C   0  0  0  0  0  0
  -30.4283  -12.4267   19.4653 C   0  0  0  0  0  0
  -29.4923  -12.5074   18.2381 C   0  0  0  0  0  0
  -28.0238  -12.3248   18.6624 C   0  0  0  0  0  0
  -27.6429  -13.2109   19.8770 C   0  0  2  0  0  0
  -28.6846  -13.0848   21.0110 C   0  0  0  0  0  0
  -25.2476  -13.8135   20.5902 C   0  0  0  0  0  0
  -24.1725  -13.0390   20.9265 C   0  0  0  0  0  0
  -24.6276  -11.6880   20.8772 C   0  0  0  0  0  0
  -23.8942  -10.4251   21.0421 C   0  0  0  0  0  0
  -24.3498   -9.4189   21.9208 C   0  0  0  0  0  0
  -23.6208   -8.2209   22.0764 C   0  0  0  0  0  0
  -22.4221   -8.0217   21.3531 C   0  0  0  0  0  0
  -21.9842   -9.0173   20.4640 C   0  0  0  0  0  0
  -22.7111  -10.2092   20.3048 C   0  0  0  0  0  0
  -21.6825   -6.0681   22.5279 C   0  0  0  0  0  0
  -21.4030   -6.5601   23.8213 C   0  0  0  0  0  0
  -21.3668   -5.6767   24.9186 C   0  0  0  0  0  0
  -21.6037   -4.3025   24.7247 C   0  0  0  0  0  0
  -21.8813   -3.8114   23.4372 C   0  0  0  0  0  0
  -21.9180   -4.6916   22.3427 C   0  0  0  0  0  0
  -22.7754  -13.5249   21.1842 C   0  0  0  0  0  0
  -22.1642   -4.2091   21.1009 F   0  0  0  0  0  0
  -21.5625   -3.4522   25.7776 F   0  0  0  0  0  0
  -29.9891  -13.4464   20.4493 N   0  0  0  0  0  0
  -26.2870  -12.9295   20.3443 N   0  0  0  0  0  0
  -25.9175  -11.6462   20.5782 N   0  0  0  0  0  0
  -22.0347  -12.8284   22.0421 N   0  0  0  0  0  0
  -25.4260  -15.1876   20.4624 N   0  0  0  0  0  0
  -31.7352  -14.8463   20.1329 O   0  0  0  0  0  0
  -21.6588   -6.8814   21.4240 O   0  0  0  0  0  0
  -22.3543  -14.5545   20.6647 O   0  0  0  0  0  0
  -24.6293  -31.8581   23.1959 C   0  0  0  0  0  0
  -25.9152  -32.4772   23.8283 C   0  0  1  0  0  0
  -27.2412  -27.2927   20.1345 C   0  0  0  0  0  0
  -25.5956  -33.8558   24.2225 N   0  0  0  0  0  0
  -23.4248  -30.4848   21.5385 C   0  0  2  0  0  0
  -24.8728  -28.9299   20.1030 C   0  0  0  0  0  0
  -22.7491  -29.4648   22.4900 C   0  0  0  0  0  0
  -18.0379  -28.1436   22.8345 C   0  0  0  0  0  0
  -24.1526  -36.7260   23.2635 C   0  0  0  0  0  0
  -25.9659  -30.7820   21.3735 C   0  0  0  0  0  0
  -26.0396  -29.4062   20.7146 C   0  0  0  0  0  0
  -27.2159  -28.5999   20.7178 C   0  0  0  0  0  0
  -26.0457  -26.8714   19.5006 C   0  0  0  0  0  0
  -24.8839  -27.6696   19.4816 C   0  0  0  0  0  0
  -23.6395  -29.8118   20.1540 C   0  0  0  0  0  0
  -25.4139  -36.3039   24.0325 C   0  0  1  0  0  0
  -20.5923  -28.3799   23.1354 C   0  0  2  0  0  0
  -20.6837  -26.9446   22.5709 C   0  0  0  0  0  0
  -19.6044  -26.6508   21.5230 C   0  0  0  0  0  0
  -18.2110  -26.8037   22.1352 C   0  0  0  0  0  0
  -19.1587  -28.8897   23.2859 C   0  0  0  0  0  0
  -18.9453  -30.1497   23.8900 C   0  0  0  0  0  0
  -17.6447  -30.6539   24.0609 C   0  0  0  0  0  0
  -25.9058  -34.9411   23.5032 C   0  0  0  0  0  0
  -16.5410  -29.8980   23.6365 C   0  0  0  0  0  0
  -16.7346  -28.6495   23.0222 C   0  0  0  0  0  0
  -26.4522  -31.6553   25.0639 C   0  0  0  0  0  0
  -25.3694  -31.3657   26.1306 C   0  0  0  0  0  0
  -27.0395  -30.2989   24.6046 C   0  0  0  0  0  0
  -27.6094  -32.4243   25.7408 C   0  0  0  0  0  0
  -27.5587  -37.1778   24.8476 C   0  0  0  0  0  0
  -21.4178  -29.3150   22.3687 N   0  0  0  0  0  0
  -26.4322  -37.3730   23.9390 N   0  0  0  0  0  0
  -24.6919  -31.0556   22.0939 N   0  0  0  0  0  0
  -23.4230  -28.8143   23.2922 O   0  0  0  0  0  0
  -28.3587  -26.4414   20.2595 O   0  0  0  0  0  0
  -26.5639  -34.8884   22.4613 O   0  0  0  0  0  0
  -23.5445  -32.1432   23.7263 O   0  0  0  0  0  0
  -28.7573  -23.2870   21.3470 C   0  0  0  0  0  0
  -28.8556  -21.8866   21.6915 C   0  0  0  0  0  0
  -28.7899  -22.6677   19.0481 C   0  0  0  0  0  0
  -28.6837  -23.7229   19.9959 C   0  0  0  0  0  0
  -28.8593  -21.2770   19.3729 C   0  0  0  0  0  0
  -28.8658  -20.8299   20.7255 C   0  0  0  0  0  0
  -24.7659  -19.1903   20.6437 C   0  0  0  0  0  0
  -24.8696  -19.1106   22.1793 C   0  0  0  0  0  0
  -26.1727  -18.9816   20.0966 C   0  0  0  0  0  0
  -26.3703  -18.9326   22.4916 C   0  0  0  0  0  0
  -27.0193  -19.5244   21.2338 C   0  0  0  0  0  0
  -28.8801  -20.2867   18.2138 C   0  0  0  0  0  0
  -28.5542  -25.2186   19.4405 C   0  0  0  0  0  0
  -30.0301  -17.2455   20.7143 C   0  0  0  0  0  0
  -29.3225  -18.3429   21.6693 C   0  0  0  0  0  0
  -29.7937  -15.7549   20.9251 N   0  0  0  0  0  0
  -28.4877  -19.4645   21.0608 N   0  0  0  0  0  0
  -31.4632  -12.5660   19.1461 H   0  0  0  0  0  0
  -30.3808  -11.4260   19.9061 H   0  0  0  0  0  0
  -29.7541  -11.7427   17.5014 H   0  0  0  0  0  0
  -29.6194  -13.4725   17.7444 H   0  0  0  0  0  0
  -27.8865  -11.2741   18.9260 H   0  0  0  0  0  0
  -27.3574  -12.5130   17.8175 H   0  0  0  0  0  0
  -27.6602  -14.2437   19.5286 H   0  0  0  0  0  0
  -28.7045  -12.0617   21.3954 H   0  0  0  0  0  0
  -28.4203  -13.7124   21.8642 H   0  0  0  0  0  0
  -25.2613   -9.5707   22.4803 H   0  0  0  0  0  0
  -23.9886   -7.4618   22.7495 H   0  0  0  0  0  0
  -21.0760   -8.8656   19.8947 H   0  0  0  0  0  0
  -22.3504  -10.9610   19.6166 H   0  0  0  0  0  0
  -21.2054   -7.6112   23.9695 H   0  0  0  0  0  0
  -21.1488   -6.0527   25.9090 H   0  0  0  0  0  0
  -22.0585   -2.7561   23.2913 H   0  0  0  0  0  0
  -22.3910  -11.9963   22.4853 H   0  0  0  0  0  0
  -21.0970  -13.1379   22.2526 H   0  0  0  0  0  0
  -24.6780  -15.8422   20.6605 H   0  0  0  0  0  0
  -26.2956  -15.6421   20.2290 H   0  0  0  0  0  0
  -26.7218  -32.5434   23.1025 H   0  0  0  0  0  0
  -25.0162  -33.9703   25.0393 H   0  0  0  0  0  0
  -22.7268  -31.3102   21.3907 H   0  0  0  0  0  0
  -23.3773  -35.9609   23.3308 H   0  0  0  0  0  0
  -24.3631  -36.8862   22.2050 H   0  0  0  0  0  0
  -23.7301  -37.6458   23.6664 H   0  0  0  0  0  0
  -26.0962  -31.5484   20.6060 H   0  0  0  0  0  0
  -26.8448  -30.8277   22.0047 H   0  0  0  0  0  0
  -28.1087  -28.9645   21.2066 H   0  0  0  0  0  0
  -25.9680  -25.8942   19.0520 H   0  0  0  0  0  0
  -23.9884  -27.3009   18.9983 H   0  0  0  0  0  0
  -23.7493  -30.5871   19.3933 H   0  0  0  0  0  0
  -22.7601  -29.2376   19.8626 H   0  0  0  0  0  0
  -25.1337  -36.1869   25.0827 H   0  0  0  0  0  0
  -21.0034  -28.3563   24.1454 H   0  0  0  0  0  0
  -20.5276  -26.2493   23.3959 H   0  0  0  0  0  0
  -21.6819  -26.7229   22.1855 H   0  0  0  0  0  0
  -19.7286  -25.6467   21.1241 H   0  0  0  0  0  0
  -19.7416  -27.3294   20.6800 H   0  0  0  0  0  0
  -18.0375  -26.0138   22.8632 H   0  0  0  0  0  0
  -17.4533  -26.6795   21.3585 H   0  0  0  0  0  0
  -19.7911  -30.7349   24.2250 H   0  0  0  0  0  0
  -17.5025  -31.6150   24.5318 H   0  0  0  0  0  0
  -15.5409  -30.2837   23.7786 H   0  0  0  0  0  0
  -15.8763  -28.0724   22.6970 H   0  0  0  0  0  0
  -24.5928  -30.7002   25.7526 H   0  0  0  0  0  0
  -24.8850  -32.2833   26.4645 H   0  0  0  0  0  0
  -25.7966  -30.8832   27.0102 H   0  0  0  0  0  0
  -26.2985  -29.6681   24.1150 H   0  0  0  0  0  0
  -27.4246  -29.7263   25.4483 H   0  0  0  0  0  0
  -27.8758  -30.4300   23.9177 H   0  0  0  0  0  0
  -27.2771  -33.3569   26.1940 H   0  0  0  0  0  0
  -28.3932  -32.6723   25.0248 H   0  0  0  0  0  0
  -28.0717  -31.8364   26.5333 H   0  0  0  0  0  0
  -28.2588  -38.0083   24.7494 H   0  0  0  0  0  0
  -28.1095  -36.2599   24.6360 H   0  0  0  0  0  0
  -27.2290  -37.1475   25.8874 H   0  0  0  0  0  0
  -20.9283  -29.9013   21.7066 H   0  0  0  0  0  0
  -26.0190  -38.2792   24.1372 H   0  0  0  0  0  0
  -28.7019  -24.0207   22.1347 H   0  0  0  0  0  0
  -28.8312  -21.6254   22.7405 H   0  0  0  0  0  0
  -28.7855  -22.9507   18.0057 H   0  0  0  0  0  0
  -24.4371  -20.1959   20.3592 H   0  0  0  0  0  0
  -24.0482  -18.5035   20.2032 H   0  0  0  0  0  0
  -24.2668  -18.3044   22.5922 H   0  0  0  0  0  0
  -24.4969  -20.0468   22.6066 H   0  0  0  0  0  0
  -26.2385  -19.5673   19.1865 H   0  0  0  0  0  0
  -26.3980  -17.9377   19.8777 H   0  0  0  0  0  0
  -26.5820  -17.8669   22.5852 H   0  0  0  0  0  0
  -26.6606  -19.4355   23.4155 H   0  0  0  0  0  0
  -26.7210  -20.5779   21.2837 H   0  0  0  0  0  0
  -29.5849  -19.4883   18.4218 H   0  0  0  0  0  0
  -29.1639  -20.7673   17.2762 H   0  0  0  0  0  0
  -27.9130  -19.8246   18.0399 H   0  0  0  0  0  0
  -27.8823  -25.1921   18.5887 H   0  0  0  0  0  0
  -29.5164  -25.4022   18.9610 H   0  0  0  0  0  0
  -31.1053  -17.4000   20.7843 H   0  0  0  0  0  0
  -29.7888  -17.4556   19.6768 H   0  0  0  0  0  0
  -30.0835  -18.8281   22.2921 H   0  0  0  0  0  0
  -28.7301  -17.7941   22.4099 H   0  0  0  0  0  0
  -28.8504  -15.5141   21.1956 H   0  0  0  0  0  0
  1 25  1  0  0  0
  1 30  2  0  0  0
  1 86  1  0  0  0
  2  3  1  0  0  0
  2 25  1  0  0  0
  2 88  1  0  0  0
  2 89  1  0  0  0
  3  4  1  0  0  0
  3 90  1  0  0  0
  3 91  1  0  0  0
  4  5  1  0  0  0
  4 92  1  0  0  0
  4 93  1  0  0  0
  5  6  1  0  0  0
  5 26  1  0  0  0
  5 94  1  0  0  0
  6 25  1  0  0  0
  6 95  1  0  0  0
  6 96  1  0  0  0
  7  8  2  0  0  0
  7 26  1  0  0  0
  7 29  1  0  0  0
  8  9  1  0  0  0
  8 22  1  0  0  0
  9 10  1  0  0  0
  9 27  2  0  0  0
 10 11  2  0  0  0
 10 15  1  0  0  0
 11 12  1  0  0  0
 11 97  1  0  0  0
 12 13  2  0  0  0
 12 98  1  0  0  0
 13 14  1  0  0  0
 13 31  1  0  0  0
 14 15  2  0  0  0
 14 99  1  0  0  0
 15100  1  0  0  0
 16 17  2  0  0  0
 16 21  1  0  0  0
 16 31  1  0  0  0
 17 18  1  0  0  0
 17101  1  0  0  0
 18 19  2  0  0  0
 18102  1  0  0  0
 19 20  1  0  0  0
 19 24  1  0  0  0
 20 21  2  0  0  0
 20103  1  0  0  0
 21 23  1  0  0  0
 22 28  1  0  0  0
 22 32  2  0  0  0
 26 27  1  0  0  0
 28104  1  0  0  0
 28105  1  0  0  0
 29106  1  0  0  0
 29107  1  0  0  0
 33 34  1  0  0  0
 33 66  1  0  0  0
 33 70  2  0  0  0
 34 36  1  0  0  0
 34 59  1  0  0  0
 34108  1  0  0  0
 35 44  2  0  0  0
 35 45  1  0  0  0
 35 68  1  0  0  0
 36 56  1  0  0  0
 36109  1  0  0  0
 37 39  1  0  0  0
 37 47  1  0  0  0
 37 66  1  0  0  0
 37110  1  0  0  0
 38 43  2  0  0  0
 38 46  1  0  0  0
 38 47  1  0  0  0
 39 64  1  0  0  0
 39 67  2  0  0  0
 40 52  1  0  0  0
 40 53  2  0  0  0
 40 58  1  0  0  0
 41111  1  0  0  0
 41112  1  0  0  0
 41113  1  0  0  0
 41 48  1  0  0  0
 42 43  1  0  0  0
 42 66  1  0  0  0
 42114  1  0  0  0
 42115  1  0  0  0
 43 44  1  0  0  0
 44116  1  0  0  0
 45 46  2  0  0  0
 45117  1  0  0  0
 46118  1  0  0  0
 47119  1  0  0  0
 47120  1  0  0  0
 48 56  1  0  0  0
 48 65  1  0  0  0
 48121  1  0  0  0
 49 50  1  0  0  0
 49 53  1  0  0  0
 49 64  1  0  0  0
 49122  1  0  0  0
 50 51  1  0  0  0
 50123  1  0  0  0
 50124  1  0  0  0
 51 52  1  0  0  0
 51125  1  0  0  0
 51126  1  0  0  0
 52127  1  0  0  0
 52128  1  0  0  0
 53 54  1  0  0  0
 54 55  2  0  0  0
 54129  1  0  0  0
 55 57  1  0  0  0
 55130  1  0  0  0
 56 69  2  0  0  0
 57 58  2  0  0  0
 57131  1  0  0  0
 58132  1  0  0  0
 59 60  1  0  0  0
 59 61  1  0  0  0
 59 62  1  0  0  0
 60133  1  0  0  0
 60134  1  0  0  0
 60135  1  0  0  0
 61136  1  0  0  0
 61137  1  0  0  0
 61138  1  0  0  0
 62139  1  0  0  0
 62140  1  0  0  0
 62141  1  0  0  0
 63 65  1  0  0  0
 63142  1  0  0  0
 63143  1  0  0  0
 63144  1  0  0  0
 64145  1  0  0  0
 65146  1  0  0  0
 68 83  1  0  0  0
 71 72  2  0  0  0
 71 74  1  0  0  0
 71147  1  0  0  0
 72 76  1  0  0  0
 72148  1  0  0  0
 73 74  2  0  0  0
 73 75  1  0  0  0
 73149  1  0  0  0
 74 83  1  0  0  0
 75 76  2  0  0  0
 75 82  1  0  0  0
 76 87  1  0  0  0
 77 78  1  0  0  0
 77 79  1  0  0  0
 77150  1  0  0  0
 77151  1  0  0  0
 78 80  1  0  0  0
 78152  1  0  0  0
 78153  1  0  0  0
 79 81  1  0  0  0
 79154  1  0  0  0
 79155  1  0  0  0
 80 81  1  0  0  0
 80156  1  0  0  0
 80157  1  0  0  0
 81 87  1  0  0  0
 81158  1  0  0  0
 82159  1  0  0  0
 82160  1  0  0  0
 82161  1  0  0  0
 83162  1  0  0  0
 83163  1  0  0  0
 84 85  1  0  0  0
 84 86  1  0  0  0
 84164  1  0  0  0
 84165  1  0  0  0
 85 87  1  0  0  0
 85166  1  0  0  0
 85167  1  0  0  0
 86168  1  0  0  0
M  ISO  4   1 100  68 101  83 101  86 100
M  END
> <chiral flag>
0

> <version>
0

> <s_m_source_file>
/data/baiqing/PycharmProjects/Reinvent-master-3.2/result/LINK_invent/BTK/process_docking_weight1_custom_sum_contain_oxygen_bond_distance_aromatic_linkinvent_7_9_3/rearranged_h_0145.sdf

> <i_m_source_file_index>
83

> <r_mmod_Potential_Energy-OPLS-2005>
249.442047119141

> <r_mmod_Stretch_Energy-OPLS-2005>
111.055107116699

> <r_mmod_Bend_Energy-OPLS-2005>
252.207931518555

> <r_mmod_Torsional_Energy-OPLS-2005>
325.439147949219

> <r_mmod_Improper_Torsional_Energy-OPLS-2005>
10.2878084182739

> <r_mmod_Van_der_Waal_Energy-OPLS-2005>
141.893188476562

> <r_mmod_Electrostatic_Energy-OPLS-2005>
-454.381378173828

> <r_mmod_Solvation_Energy-OPLS-2005>
-202.794036865234

> <b_mmod_Minimization_Converged-OPLS-2005>
0

> <r_mmod_RMS_Derivative-OPLS-2005>
9.98913764953613

$$$$
84
                    3D
 Structure written by MMmdl.
169178  0  0  1  0            999 V2000
  -30.7210  -14.3991   20.4951 C   0  0  0  0  0  0
  -30.4069  -12.2370   19.4213 C   0  0  0  0  0  0
  -29.4882  -12.4763   18.2045 C   0  0  0  0  0  0
  -28.0071  -12.3594   18.6170 C   0  0  0  0  0  0
  -27.6611  -13.1979   19.8762 C   0  0  2  0  0  0
  -28.7065  -12.9824   20.9984 C   0  0  0  0  0  0
  -25.2589  -13.8132   20.5687 C   0  0  0  0  0  0
  -24.1841  -13.0430   20.9211 C   0  0  0  0  0  0
  -24.6380  -11.6893   20.8779 C   0  0  0  0  0  0
  -23.9041  -10.4284   21.0428 C   0  0  0  0  0  0
  -24.3599   -9.4199   21.9193 C   0  0  0  0  0  0
  -23.6277   -8.2238   22.0765 C   0  0  0  0  0  0
  -22.4264   -8.0281   21.3552 C   0  0  0  0  0  0
  -21.9896   -9.0255   20.4656 C   0  0  0  0  0  0
  -22.7219  -10.2131   20.3063 C   0  0  0  0  0  0
  -21.6851   -6.0737   22.5286 C   0  0  0  0  0  0
  -21.4010   -6.5648   23.8220 C   0  0  0  0  0  0
  -21.3661   -5.6807   24.9185 C   0  0  0  0  0  0
  -21.6035   -4.3064   24.7229 C   0  0  0  0  0  0
  -21.8816   -3.8154   23.4352 C   0  0  0  0  0  0
  -21.9204   -4.6966   22.3413 C   0  0  0  0  0  0
  -22.7858  -13.5241   21.1854 C   0  0  0  0  0  0
  -22.1698   -4.2163   21.0988 F   0  0  0  0  0  0
  -21.5616   -3.4551   25.7740 F   0  0  0  0  0  0
  -30.0443  -13.2289   20.4394 N   0  0  0  0  0  0
  -26.3026  -12.9291   20.3402 N   0  0  0  0  0  0
  -25.9298  -11.6456   20.5796 N   0  0  0  0  0  0
  -22.0485  -12.8241   22.0399 N   0  0  0  0  0  0
  -25.4284  -15.1845   20.4053 N   0  0  0  0  0  0
  -31.8948  -14.5279   20.1425 O   0  0  0  0  0  0
  -21.6621   -6.8880   21.4251 O   0  0  0  0  0  0
  -22.3561  -14.5531   20.6670 O   0  0  0  0  0  0
  -24.6102  -31.8707   23.2128 C   0  0  0  0  0  0
  -25.9017  -32.4839   23.8410 C   0  0  1  0  0  0
  -27.2464  -27.4867   20.0664 C   0  0  0  0  0  0
  -25.5892  -33.8637   24.2342 N   0  0  0  0  0  0
  -23.3964  -30.4939   21.5519 C   0  0  2  0  0  0
  -24.8422  -28.9621   20.1183 C   0  0  0  0  0  0
  -22.7386  -29.4670   22.5006 C   0  0  0  0  0  0
  -18.0270  -28.1386   22.8495 C   0  0  0  0  0  0
  -24.1489  -36.7326   23.2637 C   0  0  0  0  0  0
  -25.9204  -30.8460   21.3624 C   0  0  0  0  0  0
  -25.9971  -29.4823   20.7135 C   0  0  0  0  0  0
  -27.1970  -28.7444   20.6984 C   0  0  0  0  0  0
  -26.0672  -26.9560   19.4938 C   0  0  0  0  0  0
  -24.8674  -27.6916   19.5153 C   0  0  0  0  0  0
  -23.6032  -29.8250   20.1664 C   0  0  0  0  0  0
  -25.4110  -36.3123   24.0337 C   0  0  1  0  0  0
  -20.5856  -28.3663   23.1329 C   0  0  2  0  0  0
  -20.6763  -26.9403   22.5423 C   0  0  0  0  0  0
  -19.5746  -26.6390   21.5217 C   0  0  0  0  0  0
  -18.1919  -26.7935   22.1619 C   0  0  0  0  0  0
  -19.1518  -28.8842   23.2914 C   0  0  0  0  0  0
  -18.9450  -30.1447   23.8925 C   0  0  0  0  0  0
  -17.6450  -30.6589   24.0572 C   0  0  0  0  0  0
  -25.9031  -34.9486   23.5137 C   0  0  0  0  0  0
  -16.5344  -29.9095   23.6326 C   0  0  0  0  0  0
  -16.7260  -28.6512   23.0342 C   0  0  0  0  0  0
  -26.4461  -31.6613   25.0729 C   0  0  0  0  0  0
  -25.3740  -31.3713   26.1490 C   0  0  0  0  0  0
  -27.0288  -30.3060   24.6087 C   0  0  0  0  0  0
  -27.6051  -32.4325   25.7476 C   0  0  0  0  0  0
  -27.5586  -37.1814   24.8461 C   0  0  0  0  0  0
  -21.4121  -29.3036   22.3741 N   0  0  0  0  0  0
  -26.4301  -37.3800   23.9404 N   0  0  0  0  0  0
  -24.6603  -31.0836   22.1015 N   0  0  0  0  0  0
  -23.4170  -28.8220   23.3043 O   0  0  0  0  0  0
  -28.4478  -26.8222   20.0585 O   0  0  0  0  0  0
  -26.5588  -34.8924   22.4693 O   0  0  0  0  0  0
  -23.5313  -32.1444   23.7550 O   0  0  0  0  0  0
  -29.0838  -18.4859   18.4009 C   0  0  0  0  0  0
  -31.4673  -18.7190   19.2726 C   0  0  0  0  0  0
  -28.8283  -17.3640   19.4225 C   0  0  0  0  0  0
  -31.1825  -17.6231   20.3117 C   0  0  0  0  0  0
  -27.5286  -24.1018   21.2913 C   0  0  0  0  0  0
  -27.5573  -22.5855   21.4623 C   0  0  0  0  0  0
  -30.1858  -19.4709   18.8607 C   0  0  2  0  0  0
  -30.1457  -16.6428   19.7407 C   0  0  1  0  0  0
  -28.1235  -23.8388   19.9051 C   0  0  1  0  0  0
  -29.7273  -20.4230   19.9817 C   0  0  0  0  0  0
  -29.2586  -24.6921   19.3307 C   0  0  0  0  0  0
  -28.6746  -21.4406   19.5239 C   0  0  0  0  0  0
  -28.8066  -26.0853   18.8953 C   0  0  0  0  0  0
  -29.9271  -15.4714   20.5874 N   0  0  0  0  0  0
  -28.6206  -22.5808   20.4595 N   0  3  2  0  0  0
  -31.4551  -12.2971   19.1236 H   0  0  0  0  0  0
  -30.2690  -11.2290   19.8157 H   0  0  0  0  0  0
  -29.7120  -11.7588   17.4155 H   0  0  0  0  0  0
  -29.6794  -13.4639   17.7820 H   0  0  0  0  0  0
  -27.8029  -11.3049   18.8083 H   0  0  0  0  0  0
  -27.3610  -12.6467   17.7859 H   0  0  0  0  0  0
  -27.6970  -14.2433   19.5702 H   0  0  0  0  0  0
  -28.6546  -11.9608   21.3779 H   0  0  0  0  0  0
  -28.5060  -13.6288   21.8542 H   0  0  0  0  0  0
  -25.2746   -9.5662   22.4767 H   0  0  0  0  0  0
  -23.9983   -7.4639   22.7499 H   0  0  0  0  0  0
  -21.0818   -8.8770   19.8978 H   0  0  0  0  0  0
  -22.3682  -10.9672   19.6173 H   0  0  0  0  0  0
  -21.1981   -7.6150   23.9708 H   0  0  0  0  0  0
  -21.1503   -6.0557   25.9087 H   0  0  0  0  0  0
  -22.0584   -2.7616   23.2864 H   0  0  0  0  0  0
  -22.4094  -11.9893   22.4781 H   0  0  0  0  0  0
  -21.1132  -13.1337   22.2612 H   0  0  0  0  0  0
  -24.6516  -15.8290   20.5007 H   0  0  0  0  0  0
  -26.2664  -15.6249   20.0487 H   0  0  0  0  0  0
  -26.7096  -32.5560   23.1185 H   0  0  0  0  0  0
  -25.0064  -33.9811   25.0502 H   0  0  0  0  0  0
  -22.6846  -31.3101   21.4132 H   0  0  0  0  0  0
  -23.3746  -35.9665   23.3311 H   0  0  0  0  0  0
  -24.3586  -36.8928   22.2050 H   0  0  0  0  0  0
  -23.7247  -37.6536   23.6645 H   0  0  0  0  0  0
  -26.0285  -31.6123   20.5934 H   0  0  0  0  0  0
  -26.8101  -30.9001   21.9773 H   0  0  0  0  0  0
  -28.0933  -29.1481   21.1486 H   0  0  0  0  0  0
  -26.0602  -25.9774   19.0367 H   0  0  0  0  0  0
  -23.9749  -27.2771   19.0667 H   0  0  0  0  0  0
  -23.7123  -30.5992   19.4059 H   0  0  0  0  0  0
  -22.7283  -29.2437   19.8704 H   0  0  0  0  0  0
  -25.1288  -36.1996   25.0832 H   0  0  0  0  0  0
  -20.9949  -28.3230   24.1446 H   0  0  0  0  0  0
  -20.5675  -26.2271   23.3608 H   0  0  0  0  0  0
  -21.6636  -26.7458   22.1212 H   0  0  0  0  0  0
  -19.6909  -25.6304   21.1237 H   0  0  0  0  0  0
  -19.6693  -27.3208   20.6754 H   0  0  0  0  0  0
  -17.4196  -26.6700   21.4010 H   0  0  0  0  0  0
  -18.0305  -26.0065   22.9002 H   0  0  0  0  0  0
  -19.7925  -30.7259   24.2303 H   0  0  0  0  0  0
  -17.5007  -31.6270   24.5173 H   0  0  0  0  0  0
  -15.5346  -30.3009   23.7632 H   0  0  0  0  0  0
  -15.8657  -28.0845   22.7036 H   0  0  0  0  0  0
  -24.5902  -30.7074   25.7826 H   0  0  0  0  0  0
  -24.8949  -32.2875   26.4957 H   0  0  0  0  0  0
  -25.8103  -30.8866   27.0233 H   0  0  0  0  0  0
  -26.2824  -29.6820   24.1160 H   0  0  0  0  0  0
  -27.4088  -29.7297   25.4532 H   0  0  0  0  0  0
  -27.8642  -30.4389   23.9208 H   0  0  0  0  0  0
  -27.2681  -33.3607   26.2102 H   0  0  0  0  0  0
  -28.3825  -32.6916   25.0277 H   0  0  0  0  0  0
  -28.0760  -31.8424   26.5347 H   0  0  0  0  0  0
  -28.2610  -38.0106   24.7508 H   0  0  0  0  0  0
  -28.1077  -36.2639   24.6290 H   0  0  0  0  0  0
  -27.2307  -37.1470   25.8865 H   0  0  0  0  0  0
  -20.9279  -29.8752   21.6962 H   0  0  0  0  0  0
  -26.0196  -38.2881   24.1402 H   0  0  0  0  0  0
  -28.1538  -19.0078   18.1758 H   0  0  0  0  0  0
  -29.3915  -18.0288   17.4585 H   0  0  0  0  0  0
  -31.9143  -18.2661   18.3862 H   0  0  0  0  0  0
  -32.2175  -19.4112   19.6578 H   0  0  0  0  0  0
  -28.1039  -16.6641   19.0045 H   0  0  0  0  0  0
  -28.3833  -17.7666   20.3328 H   0  0  0  0  0  0
  -30.8259  -18.0507   21.2492 H   0  0  0  0  0  0
  -32.1156  -17.1115   20.5464 H   0  0  0  0  0  0
  -28.2047  -24.6261   21.9694 H   0  0  0  0  0  0
  -26.5323  -24.5437   21.2884 H   0  0  0  0  0  0
  -26.6384  -22.0988   21.1315 H   0  0  0  0  0  0
  -27.8757  -22.2349   22.4449 H   0  0  0  0  0  0
  -30.4486  -20.0909   18.0011 H   0  0  0  0  0  0
  -30.5292  -16.2774   18.7840 H   0  0  0  0  0  0
  -27.3267  -23.6536   19.1800 H   0  0  0  0  0  0
  -30.6046  -20.9712   20.3298 H   0  0  0  0  0  0
  -29.3556  -19.8721   20.8462 H   0  0  0  0  0  0
  -29.7012  -24.1937   18.4667 H   0  0  0  0  0  0
  -30.0689  -24.8004   20.0531 H   0  0  0  0  0  0
  -27.6943  -20.9798   19.4020 H   0  0  0  0  0  0
  -28.9606  -21.8226   18.5434 H   0  0  0  0  0  0
  -28.0375  -26.0254   18.1266 H   0  0  0  0  0  0
  -29.6461  -26.6021   18.4292 H   0  0  0  0  0  0
  -28.9808  -15.2910   20.8836 H   0  0  0  0  0  0
  -29.5147  -22.7306   20.9015 H   0  0  0  0  0  0
  1 25  1  0  0  0
  1 30  2  0  0  0
  1 84  1  0  0  0
  2  3  1  0  0  0
  2 25  1  0  0  0
  2 86  1  0  0  0
  2 87  1  0  0  0
  3  4  1  0  0  0
  3 88  1  0  0  0
  3 89  1  0  0  0
  4  5  1  0  0  0
  4 90  1  0  0  0
  4 91  1  0  0  0
  5  6  1  0  0  0
  5 26  1  0  0  0
  5 92  1  0  0  0
  6 25  1  0  0  0
  6 93  1  0  0  0
  6 94  1  0  0  0
  7  8  2  0  0  0
  7 26  1  0  0  0
  7 29  1  0  0  0
  8  9  1  0  0  0
  8 22  1  0  0  0
  9 10  1  0  0  0
  9 27  2  0  0  0
 10 11  2  0  0  0
 10 15  1  0  0  0
 11 12  1  0  0  0
 11 95  1  0  0  0
 12 13  2  0  0  0
 12 96  1  0  0  0
 13 14  1  0  0  0
 13 31  1  0  0  0
 14 15  2  0  0  0
 14 97  1  0  0  0
 15 98  1  0  0  0
 16 17  2  0  0  0
 16 21  1  0  0  0
 16 31  1  0  0  0
 17 18  1  0  0  0
 17 99  1  0  0  0
 18 19  2  0  0  0
 18100  1  0  0  0
 19 20  1  0  0  0
 19 24  1  0  0  0
 20 21  2  0  0  0
 20101  1  0  0  0
 21 23  1  0  0  0
 22 28  1  0  0  0
 22 32  2  0  0  0
 26 27  1  0  0  0
 28102  1  0  0  0
 28103  1  0  0  0
 29104  1  0  0  0
 29105  1  0  0  0
 33 34  1  0  0  0
 33 66  1  0  0  0
 33 70  2  0  0  0
 34 36  1  0  0  0
 34 59  1  0  0  0
 34106  1  0  0  0
 35 44  2  0  0  0
 35 45  1  0  0  0
 35 68  1  0  0  0
 36 56  1  0  0  0
 36107  1  0  0  0
 37 39  1  0  0  0
 37 47  1  0  0  0
 37 66  1  0  0  0
 37108  1  0  0  0
 38 43  2  0  0  0
 38 46  1  0  0  0
 38 47  1  0  0  0
 39 64  1  0  0  0
 39 67  2  0  0  0
 40 52  1  0  0  0
 40 53  2  0  0  0
 40 58  1  0  0  0
 41109  1  0  0  0
 41110  1  0  0  0
 41111  1  0  0  0
 41 48  1  0  0  0
 42 43  1  0  0  0
 42 66  1  0  0  0
 42112  1  0  0  0
 42113  1  0  0  0
 43 44  1  0  0  0
 44114  1  0  0  0
 45 46  2  0  0  0
 45115  1  0  0  0
 46116  1  0  0  0
 47117  1  0  0  0
 47118  1  0  0  0
 48 56  1  0  0  0
 48 65  1  0  0  0
 48119  1  0  0  0
 49 50  1  0  0  0
 49 53  1  0  0  0
 49 64  1  0  0  0
 49120  1  0  0  0
 50 51  1  0  0  0
 50121  1  0  0  0
 50122  1  0  0  0
 51 52  1  0  0  0
 51123  1  0  0  0
 51124  1  0  0  0
 52125  1  0  0  0
 52126  1  0  0  0
 53 54  1  0  0  0
 54 55  2  0  0  0
 54127  1  0  0  0
 55 57  1  0  0  0
 55128  1  0  0  0
 56 69  2  0  0  0
 57 58  2  0  0  0
 57129  1  0  0  0
 58130  1  0  0  0
 59 60  1  0  0  0
 59 61  1  0  0  0
 59 62  1  0  0  0
 60131  1  0  0  0
 60132  1  0  0  0
 60133  1  0  0  0
 61134  1  0  0  0
 61135  1  0  0  0
 61136  1  0  0  0
 62137  1  0  0  0
 62138  1  0  0  0
 62139  1  0  0  0
 63 65  1  0  0  0
 63140  1  0  0  0
 63141  1  0  0  0
 63142  1  0  0  0
 64143  1  0  0  0
 65144  1  0  0  0
 68 83  1  0  0  0
 71 73  1  0  0  0
 71 77  1  0  0  0
 71145  1  0  0  0
 71146  1  0  0  0
 72 74  1  0  0  0
 72 77  1  0  0  0
 72147  1  0  0  0
 72148  1  0  0  0
 73 78  1  0  0  0
 73149  1  0  0  0
 73150  1  0  0  0
 74 78  1  0  0  0
 74151  1  0  0  0
 74152  1  0  0  0
 75 76  1  0  0  0
 75 79  1  0  0  0
 75153  1  0  0  0
 75154  1  0  0  0
 76 85  1  0  0  0
 76155  1  0  0  0
 76156  1  0  0  0
 77 80  1  0  0  0
 77157  1  0  0  0
 78 84  1  0  0  0
 78158  1  0  0  0
 79 81  1  0  0  0
 79 85  1  0  0  0
 79159  1  0  0  0
 80 82  1  0  0  0
 80160  1  0  0  0
 80161  1  0  0  0
 81 83  1  0  0  0
 81162  1  0  0  0
 81163  1  0  0  0
 82164  1  0  0  0
 82165  1  0  0  0
 82 85  1  0  0  0
 83166  1  0  0  0
 83167  1  0  0  0
 84168  1  0  0  0
 85169  1  0  0  0
M  CHG  1  85   1
M  ISO  4   1 100  68 101  83 101  84 100
M  END
> <chiral flag>
0

> <version>
0

> <s_m_source_file>
/data/baiqing/PycharmProjects/Reinvent-master-3.2/result/LINK_invent/BTK/process_docking_weight1_custom_sum_contain_oxygen_bond_distance_aromatic_linkinvent_7_9_3/rearranged_h_0145.sdf

> <i_m_source_file_index>
84

> <r_mmod_Potential_Energy-OPLS-2005>
-94.721076965332

> <r_mmod_Stretch_Energy-OPLS-2005>
29.7227821350098

> <r_mmod_Bend_Energy-OPLS-2005>
111.772560119629

> <r_mmod_Torsional_Energy-OPLS-2005>
287.315795898438

> <r_mmod_Improper_Torsional_Energy-OPLS-2005>
12.5581922531128

> <r_mmod_Van_der_Waal_Energy-OPLS-2005>
136.777847290039

> <r_mmod_Electrostatic_Energy-OPLS-2005>
-251.271499633789

> <r_mmod_Solvation_Energy-OPLS-2005>
-436.727966308594

> <b_mmod_Minimization_Converged-OPLS-2005>
0

> <r_mmod_RMS_Derivative-OPLS-2005>
1.68240141868591

$$$$
85
                    3D
 Structure written by MMmdl.
173183  0  0  1  0            999 V2000
  -30.6930  -14.6258   20.5717 C   0  0  0  0  0  0
  -30.4280  -12.4024   19.5039 C   0  0  0  0  0  0
  -29.5189  -12.5039   18.2617 C   0  0  0  0  0  0
  -28.0348  -12.3490   18.6453 C   0  0  0  0  0  0
  -27.6494  -13.2324   19.8629 C   0  0  2  0  0  0
  -28.6736  -13.1589   21.0097 C   0  0  0  0  0  0
  -25.2588  -13.8156   20.5642 C   0  0  0  0  0  0
  -24.1900  -13.0494   20.9239 C   0  0  0  0  0  0
  -24.6450  -11.6898   20.8853 C   0  0  0  0  0  0
  -23.9145  -10.4259   21.0523 C   0  0  0  0  0  0
  -24.3627   -9.4097   21.9268 C   0  0  0  0  0  0
  -23.6267   -8.2145   22.0686 C   0  0  0  0  0  0
  -22.4242   -8.0259   21.3473 C   0  0  0  0  0  0
  -21.9971   -9.0304   20.4585 C   0  0  0  0  0  0
  -22.7349  -10.2167   20.3115 C   0  0  0  0  0  0
  -21.6811   -6.0753   22.5340 C   0  0  0  0  0  0
  -21.4026   -6.5633   23.8312 C   0  0  0  0  0  0
  -21.3664   -5.6752   24.9253 C   0  0  0  0  0  0
  -21.6028   -4.3026   24.7270 C   0  0  0  0  0  0
  -21.8788   -3.8150   23.4385 C   0  0  0  0  0  0
  -21.9163   -4.6980   22.3443 C   0  0  0  0  0  0
  -22.7889  -13.5291   21.1915 C   0  0  0  0  0  0
  -22.1651   -4.2173   21.1034 F   0  0  0  0  0  0
  -21.5650   -3.4477   25.7776 F   0  0  0  0  0  0
  -30.0029  -13.4498   20.4543 N   0  0  0  0  0  0
  -26.3010  -12.9390   20.3311 N   0  0  0  0  0  0
  -25.9369  -11.6531   20.5825 N   0  0  0  0  0  0
  -22.0524  -12.8229   22.0418 N   0  0  0  0  0  0
  -25.4397  -15.1852   20.3779 N   0  0  0  0  0  0
  -31.8605  -14.7253   20.1785 O   0  0  0  0  0  0
  -21.6577   -6.8872   21.4261 O   0  0  0  0  0  0
  -22.3612  -14.5665   20.6760 O   0  0  0  0  0  0
  -24.6456  -31.8753   23.2168 C   0  0  0  0  0  0
  -25.9291  -32.4885   23.8493 C   0  0  1  0  0  0
  -27.1814  -27.3534   20.1091 C   0  0  0  0  0  0
  -25.6124  -33.8677   24.2453 N   0  0  0  0  0  0
  -23.4422  -30.5081   21.5817 C   0  0  2  0  0  0
  -24.8484  -28.9775   20.1053 C   0  0  0  0  0  0
  -22.7786  -29.4934   22.5306 C   0  0  0  0  0  0
  -17.9982  -28.1276   22.8741 C   0  0  0  0  0  0
  -24.1500  -36.7352   23.2611 C   0  0  0  0  0  0
  -25.9704  -30.7998   21.3813 C   0  0  0  0  0  0
  -26.0181  -29.4367   20.7201 C   0  0  0  0  0  0
  -27.1895  -28.6307   20.7274 C   0  0  0  0  0  0
  -26.0028  -26.9571   19.4305 C   0  0  0  0  0  0
  -24.8432  -27.7453   19.4385 C   0  0  0  0  0  0
  -23.6223  -29.8559   20.1825 C   0  0  0  0  0  0
  -25.4126  -36.3187   24.0341 C   0  0  1  0  0  0
  -20.4827  -28.4706   22.7669 C   0  0  2  0  0  0
  -20.6984  -26.9756   22.5312 C   0  0  0  0  0  0
  -19.5600  -26.4550   21.6300 C   0  0  0  0  0  0
  -18.1608  -26.7522   22.2182 C   0  0  0  0  0  0
  -19.1197  -28.9034   23.2480 C   0  0  0  0  0  0
  -18.9407  -30.1540   23.8758 C   0  0  0  0  0  0
  -17.6442  -30.6603   24.0797 C   0  0  0  0  0  0
  -25.9076  -34.9555   23.5169 C   0  0  0  0  0  0
  -16.5229  -29.9070   23.6765 C   0  0  0  0  0  0
  -16.7019  -28.6394   23.0940 C   0  0  0  0  0  0
  -26.4577  -31.6623   25.0814 C   0  0  0  0  0  0
  -25.3696  -31.3766   26.1413 C   0  0  0  0  0  0
  -27.0371  -30.3057   24.6240 C   0  0  0  0  0  0
  -27.6190  -32.4282   25.7561 C   0  0  0  0  0  0
  -27.5619  -37.1848   24.8475 C   0  0  0  0  0  0
  -21.4588  -29.4585   22.3934 N   0  0  0  0  0  0
  -26.4350  -37.3852   23.9377 N   0  0  0  0  0  0
  -24.7111  -31.0715   22.1190 N   0  0  0  0  0  0
  -23.4192  -28.7717   23.2954 O   0  0  0  0  0  0
  -28.2750  -26.4934   20.2032 O   0  0  0  0  0  0
  -26.5577  -34.9016   22.4697 O   0  0  0  0  0  0
  -23.5604  -32.1607   23.7442 O   0  0  0  0  0  0
  -27.7899  -18.8921   20.4439 C   0  0  0  0  0  0
  -26.9651  -19.7783   19.7132 C   0  0  0  0  0  0
  -29.3543  -20.7024   20.8423 C   0  0  0  0  0  0
  -31.9270  -19.6359   22.4381 C   0  0  0  0  0  0
  -32.5468  -19.9904   23.6077 C   0  0  0  0  0  0
  -29.0146  -19.3152   21.0102 C   0  0  0  0  0  0
  -27.3276  -21.1289   19.5221 C   0  0  0  0  0  0
  -28.5320  -21.5992   20.1034 C   0  0  0  0  0  0
  -30.7628  -18.7481   24.1038 C   0  0  0  0  0  0
  -29.5828  -18.1991   26.4197 C   0  0  0  0  0  0
  -30.3807  -16.9840   25.9821 C   0  0  0  0  0  0
  -29.8179  -17.9307   24.9497 C   0  0  0  0  0  0
  -25.9214  -21.4827   17.6171 C   0  0  0  0  0  0
  -30.5846  -17.1281   20.9646 C   0  0  0  0  0  0
  -27.9886  -25.0775   19.9678 C   0  0  0  0  0  0
  -28.9026  -23.9832   20.6109 C   0  0  0  0  0  0
  -29.8573  -18.2617   21.7996 C   0  0  1  0  0  0
  -30.8169  -18.8867   22.7615 N   0  0  0  0  0  0
  -31.8055  -19.4286   24.6070 N   0  3  0  0  0  0
  -30.0136  -15.7378   20.9845 N   0  0  0  0  0  0
  -26.5546  -22.0074   18.7861 O   0  0  0  0  0  0
  -29.0074  -22.8470   19.7319 O   0  0  0  0  0  0
  -31.4739  -12.5341   19.2131 H   0  0  0  0  0  0
  -30.3674  -11.4275   19.9843 H   0  0  0  0  0  0
  -29.7986  -11.7527   17.5274 H   0  0  0  0  0  0
  -29.6848  -13.4758   17.7945 H   0  0  0  0  0  0
  -27.8345  -11.3006   18.8641 H   0  0  0  0  0  0
  -27.3960  -12.5858   17.7961 H   0  0  0  0  0  0
  -27.6575  -14.2642   19.5007 H   0  0  0  0  0  0
  -28.6713  -12.1799   21.4847 H   0  0  0  0  0  0
  -28.3843  -13.8689   21.7901 H   0  0  0  0  0  0
  -25.2723   -9.5462   22.4928 H   0  0  0  0  0  0
  -23.9937   -7.4412   22.7263 H   0  0  0  0  0  0
  -21.0979   -8.8876   19.8776 H   0  0  0  0  0  0
  -22.3870  -10.9767   19.6252 H   0  0  0  0  0  0
  -21.2056   -7.6140   23.9893 H   0  0  0  0  0  0
  -21.1500   -6.0427   25.9165 H   0  0  0  0  0  0
  -22.0542   -2.7593   23.2892 H   0  0  0  0  0  0
  -22.4125  -11.9782   22.4571 H   0  0  0  0  0  0
  -21.1152  -13.1137   22.2785 H   0  0  0  0  0  0
  -24.6433  -15.8123   20.3683 H   0  0  0  0  0  0
  -26.1911  -15.5025   19.7868 H   0  0  0  0  0  0
  -26.7356  -32.5503   23.1241 H   0  0  0  0  0  0
  -25.0408  -33.9849   25.0693 H   0  0  0  0  0  0
  -22.7462  -31.3403   21.4487 H   0  0  0  0  0  0
  -23.3791  -35.9643   23.3272 H   0  0  0  0  0  0
  -24.3614  -36.8954   22.2027 H   0  0  0  0  0  0
  -23.7212  -37.6559   23.6582 H   0  0  0  0  0  0
  -26.0963  -31.5473   20.5980 H   0  0  0  0  0  0
  -26.8639  -30.8496   21.9892 H   0  0  0  0  0  0
  -28.0810  -28.9595   21.2398 H   0  0  0  0  0  0
  -25.9430  -26.0300   18.8774 H   0  0  0  0  0  0
  -23.9578  -27.4076   18.9174 H   0  0  0  0  0  0
  -23.7305  -30.6508   19.4449 H   0  0  0  0  0  0
  -22.7314  -29.2981   19.8825 H   0  0  0  0  0  0
  -25.1260  -36.2107   25.0826 H   0  0  0  0  0  0
  -20.1664  -28.6853   21.7449 H   0  0  0  0  0  0
  -20.7091  -26.4549   23.4863 H   0  0  0  0  0  0
  -21.6644  -26.7857   22.0661 H   0  0  0  0  0  0
  -19.6725  -25.3827   21.4652 H   0  0  0  0  0  0
  -19.6373  -26.9048   20.6366 H   0  0  0  0  0  0
  -17.4117  -26.6292   21.4360 H   0  0  0  0  0  0
  -17.9356  -25.9984   22.9717 H   0  0  0  0  0  0
  -19.7937  -30.7603   24.1508 H   0  0  0  0  0  0
  -17.5012  -31.6300   24.5325 H   0  0  0  0  0  0
  -15.5259  -30.3006   23.8218 H   0  0  0  0  0  0
  -15.8359  -28.0609   22.7972 H   0  0  0  0  0  0
  -24.5926  -30.7132   25.7605 H   0  0  0  0  0  0
  -24.8805  -32.2917   26.4751 H   0  0  0  0  0  0
  -25.7843  -30.8920   27.0255 H   0  0  0  0  0  0
  -26.2940  -29.6848   24.1227 H   0  0  0  0  0  0
  -27.4050  -29.7263   25.4712 H   0  0  0  0  0  0
  -27.8823  -30.4358   23.9483 H   0  0  0  0  0  0
  -27.2941  -33.3626   26.2144 H   0  0  0  0  0  0
  -28.3983  -32.6771   25.0341 H   0  0  0  0  0  0
  -28.0884  -31.8380   26.5441 H   0  0  0  0  0  0
  -28.2660  -38.0133   24.7538 H   0  0  0  0  0  0
  -28.1125  -36.2686   24.6267 H   0  0  0  0  0  0
  -27.2360  -37.1449   25.8896 H   0  0  0  0  0  0
  -21.1042  -30.1654   21.7676 H   0  0  0  0  0  0
  -26.0283  -38.2965   24.1269 H   0  0  0  0  0  0
  -27.4970  -17.8516   20.5386 H   0  0  0  0  0  0
  -26.0307  -19.4326   19.2947 H   0  0  0  0  0  0
  -30.2738  -21.1111   21.2363 H   0  0  0  0  0  0
  -32.2013  -19.8717   21.4230 H   0  0  0  0  0  0
  -33.4410  -20.5679   23.8194 H   0  0  0  0  0  0
  -30.1027  -19.0505   26.8521 H   0  0  0  0  0  0
  -28.5950  -18.0103   26.8440 H   0  0  0  0  0  0
  -29.9339  -15.9943   26.0844 H   0  0  0  0  0  0
  -31.4584  -17.0072   26.1318 H   0  0  0  0  0  0
  -28.9308  -17.6430   24.3951 H   0  0  0  0  0  0
  -26.6719  -20.9762   17.0027 H   0  0  0  0  0  0
  -25.0868  -20.8082   17.8556 H   0  0  0  0  0  0
  -25.5284  -22.2919   16.9869 H   0  0  0  0  0  0
  -30.7517  -17.4580   19.9437 H   0  0  0  0  0  0
  -31.5873  -17.0165   21.3827 H   0  0  0  0  0  0
  -26.9804  -24.8004   20.2952 H   0  0  0  0  0  0
  -28.0211  -24.9494   18.8841 H   0  0  0  0  0  0
  -28.5310  -23.7048   21.5987 H   0  0  0  0  0  0
  -29.9176  -24.3483   20.7605 H   0  0  0  0  0  0
  -29.1061  -17.7294   22.3694 H   0  0  0  0  0  0
  -32.0530  -19.4643   25.5901 H   0  0  0  0  0  0
  -29.0389  -15.6387   21.2310 H   0  0  0  0  0  0
  1 25  1  0  0  0
  1 30  2  0  0  0
  1 90  1  0  0  0
  2  3  1  0  0  0
  2 25  1  0  0  0
  2 93  1  0  0  0
  2 94  1  0  0  0
  3  4  1  0  0  0
  3 95  1  0  0  0
  3 96  1  0  0  0
  4  5  1  0  0  0
  4 97  1  0  0  0
  4 98  1  0  0  0
  5  6  1  0  0  0
  5 26  1  0  0  0
  5 99  1  0  0  0
  6 25  1  0  0  0
  6100  1  0  0  0
  6101  1  0  0  0
  7  8  2  0  0  0
  7 26  1  0  0  0
  7 29  1  0  0  0
  8  9  1  0  0  0
  8 22  1  0  0  0
  9 10  1  0  0  0
  9 27  2  0  0  0
 10 11  2  0  0  0
 10 15  1  0  0  0
 11 12  1  0  0  0
 11102  1  0  0  0
 12 13  2  0  0  0
 12103  1  0  0  0
 13 14  1  0  0  0
 13 31  1  0  0  0
 14 15  2  0  0  0
 14104  1  0  0  0
 15105  1  0  0  0
 16 17  2  0  0  0
 16 21  1  0  0  0
 16 31  1  0  0  0
 17 18  1  0  0  0
 17106  1  0  0  0
 18 19  2  0  0  0
 18107  1  0  0  0
 19 20  1  0  0  0
 19 24  1  0  0  0
 20 21  2  0  0  0
 20108  1  0  0  0
 21 23  1  0  0  0
 22 28  1  0  0  0
 22 32  2  0  0  0
 26 27  1  0  0  0
 28109  1  0  0  0
 28110  1  0  0  0
 29111  1  0  0  0
 29112  1  0  0  0
 33 34  1  0  0  0
 33 66  1  0  0  0
 33 70  2  0  0  0
 34 36  1  0  0  0
 34 59  1  0  0  0
 34113  1  0  0  0
 35 44  2  0  0  0
 35 45  1  0  0  0
 35 68  1  0  0  0
 36 56  1  0  0  0
 36114  1  0  0  0
 37 39  1  0  0  0
 37 47  1  0  0  0
 37 66  1  0  0  0
 37115  1  0  0  0
 38 43  2  0  0  0
 38 46  1  0  0  0
 38 47  1  0  0  0
 39 64  1  0  0  0
 39 67  2  0  0  0
 40 52  1  0  0  0
 40 53  2  0  0  0
 40 58  1  0  0  0
 41116  1  0  0  0
 41117  1  0  0  0
 41118  1  0  0  0
 41 48  1  0  0  0
 42 43  1  0  0  0
 42 66  1  0  0  0
 42119  1  0  0  0
 42120  1  0  0  0
 43 44  1  0  0  0
 44121  1  0  0  0
 45 46  2  0  0  0
 45122  1  0  0  0
 46123  1  0  0  0
 47124  1  0  0  0
 47125  1  0  0  0
 48 56  1  0  0  0
 48 65  1  0  0  0
 48126  1  0  0  0
 49 50  1  0  0  0
 49 53  1  0  0  0
 49 64  1  0  0  0
 49127  1  0  0  0
 50 51  1  0  0  0
 50128  1  0  0  0
 50129  1  0  0  0
 51 52  1  0  0  0
 51130  1  0  0  0
 51131  1  0  0  0
 52132  1  0  0  0
 52133  1  0  0  0
 53 54  1  0  0  0
 54 55  2  0  0  0
 54134  1  0  0  0
 55 57  1  0  0  0
 55135  1  0  0  0
 56 69  2  0  0  0
 57 58  2  0  0  0
 57136  1  0  0  0
 58137  1  0  0  0
 59 60  1  0  0  0
 59 61  1  0  0  0
 59 62  1  0  0  0
 60138  1  0  0  0
 60139  1  0  0  0
 60140  1  0  0  0
 61141  1  0  0  0
 61142  1  0  0  0
 61143  1  0  0  0
 62144  1  0  0  0
 62145  1  0  0  0
 62146  1  0  0  0
 63 65  1  0  0  0
 63147  1  0  0  0
 63148  1  0  0  0
 63149  1  0  0  0
 64150  1  0  0  0
 65151  1  0  0  0
 68 85  1  0  0  0
 71 72  2  0  0  0
 71 76  1  0  0  0
 71152  1  0  0  0
 72 77  1  0  0  0
 72153  1  0  0  0
 73 76  2  0  0  0
 73 78  1  0  0  0
 73154  1  0  0  0
 74 75  2  0  0  0
 74 88  1  0  0  0
 74155  1  0  0  0
 75 89  1  0  0  0
 75156  1  0  0  0
 76 87  1  0  0  0
 77 78  2  0  0  0
 77 91  1  0  0  0
 78 92  1  0  0  0
 79 88  1  0  0  0
 79 89  2  0  0  0
 79 82  1  0  0  0
 80 81  1  0  0  0
 80 82  1  0  0  0
 80157  1  0  0  0
 80158  1  0  0  0
 81 82  1  0  0  0
 81159  1  0  0  0
 81160  1  0  0  0
 82161  1  0  0  0
 83 91  1  0  0  0
 83162  1  0  0  0
 83163  1  0  0  0
 83164  1  0  0  0
 84 90  1  0  0  0
 84165  1  0  0  0
 84166  1  0  0  0
 84 87  1  0  0  0
 85 86  1  0  0  0
 85167  1  0  0  0
 85168  1  0  0  0
 86 92  1  0  0  0
 86169  1  0  0  0
 86170  1  0  0  0
 87 88  1  0  0  0
 87171  1  0  0  0
 89172  1  0  0  0
 90173  1  0  0  0
M  CHG  1  89   1
M  ISO  4   1 100  68 101  85 101  90 100
M  END
> <chiral flag>
0

> <version>
0

> <s_m_source_file>
/data/baiqing/PycharmProjects/Reinvent-master-3.2/result/LINK_invent/BTK/process_docking_weight1_custom_sum_contain_oxygen_bond_distance_aromatic_linkinvent_7_9_3/rearranged_h_0145.sdf

> <i_m_source_file_index>
85

> <r_mmod_Potential_Energy-OPLS-2005>
199.747055053711

> <r_mmod_Stretch_Energy-OPLS-2005>
62.3181533813477

> <r_mmod_Bend_Energy-OPLS-2005>
236.779846191406

> <r_mmod_Torsional_Energy-OPLS-2005>
337.775177001953

> <r_mmod_Improper_Torsional_Energy-OPLS-2005>
9.27746105194092

> <r_mmod_Van_der_Waal_Energy-OPLS-2005>
162.574920654297

> <r_mmod_Electrostatic_Energy-OPLS-2005>
-229.248107910156

> <r_mmod_Solvation_Energy-OPLS-2005>
-454.483032226562

> <b_mmod_Minimization_Converged-OPLS-2005>
0

> <r_mmod_RMS_Derivative-OPLS-2005>
11.6931943893433

$$$$
86
                    3D
 Structure written by MMmdl.
170179  0  0  1  0            999 V2000
  -30.7114  -14.4092   20.6465 C   0  0  0  0  0  0
  -30.4266  -12.3017   19.3889 C   0  0  0  0  0  0
  -29.4884  -12.5243   18.1862 C   0  0  0  0  0  0
  -28.0106  -12.3799   18.6033 C   0  0  0  0  0  0
  -27.6647  -13.1943   19.8791 C   0  0  2  0  0  0
  -28.7048  -12.9209   20.9875 C   0  0  0  0  0  0
  -25.2601  -13.8115   20.5686 C   0  0  0  0  0  0
  -24.1836  -13.0427   20.9182 C   0  0  0  0  0  0
  -24.6356  -11.6877   20.8728 C   0  0  0  0  0  0
  -23.9013  -10.4281   21.0398 C   0  0  0  0  0  0
  -24.3563   -9.4205   21.9183 C   0  0  0  0  0  0
  -23.6249   -8.2239   22.0752 C   0  0  0  0  0  0
  -22.4242   -8.0258   21.3534 C   0  0  0  0  0  0
  -21.9866   -9.0225   20.4651 C   0  0  0  0  0  0
  -22.7183  -10.2114   20.3055 C   0  0  0  0  0  0
  -21.6850   -6.0709   22.5271 C   0  0  0  0  0  0
  -21.4019   -6.5621   23.8207 C   0  0  0  0  0  0
  -21.3660   -5.6785   24.9169 C   0  0  0  0  0  0
  -21.6047   -4.3037   24.7231 C   0  0  0  0  0  0
  -21.8819   -3.8127   23.4359 C   0  0  0  0  0  0
  -21.9198   -4.6943   22.3409 C   0  0  0  0  0  0
  -22.7867  -13.5243   21.1849 C   0  0  0  0  0  0
  -22.1670   -4.2135   21.0990 F   0  0  0  0  0  0
  -21.5623   -3.4528   25.7743 F   0  0  0  0  0  0
  -30.0360  -13.2485   20.4412 N   0  0  0  0  0  0
  -26.3023  -12.9261   20.3366 N   0  0  0  0  0  0
  -25.9270  -11.6427   20.5734 N   0  0  0  0  0  0
  -22.0493  -12.8256   22.0406 N   0  0  0  0  0  0
  -25.4360  -15.1843   20.4113 N   0  0  0  0  0  0
  -31.8095  -14.6592   20.1403 O   0  0  0  0  0  0
  -21.6622   -6.8846   21.4231 O   0  0  0  0  0  0
  -22.3577  -14.5560   20.6691 O   0  0  0  0  0  0
  -24.6138  -31.8677   23.2112 C   0  0  0  0  0  0
  -25.9033  -32.4822   23.8388 C   0  0  1  0  0  0
  -27.2245  -27.4558   20.0775 C   0  0  0  0  0  0
  -25.5904  -33.8619   24.2327 N   0  0  0  0  0  0
  -23.3974  -30.4992   21.5490 C   0  0  2  0  0  0
  -24.8394  -28.9671   20.1069 C   0  0  0  0  0  0
  -22.7366  -29.4688   22.4932 C   0  0  0  0  0  0
  -18.0285  -28.1404   22.8493 C   0  0  0  0  0  0
  -24.1464  -36.7321   23.2630 C   0  0  0  0  0  0
  -25.9244  -30.8420   21.3585 C   0  0  0  0  0  0
  -26.0008  -29.4789   20.7010 C   0  0  0  0  0  0
  -27.1990  -28.7313   20.6806 C   0  0  0  0  0  0
  -26.0500  -26.9600   19.4713 C   0  0  0  0  0  0
  -24.8580  -27.7079   19.4857 C   0  0  0  0  0  0
  -23.6030  -29.8344   20.1616 C   0  0  0  0  0  0
  -25.4098  -36.3120   24.0330 C   0  0  1  0  0  0
  -20.5864  -28.3685   23.1311 C   0  0  2  0  0  0
  -20.6764  -26.9416   22.5406 C   0  0  0  0  0  0
  -19.5742  -26.6402   21.5198 C   0  0  0  0  0  0
  -18.1926  -26.7956   22.1621 C   0  0  0  0  0  0
  -19.1528  -28.8861   23.2917 C   0  0  0  0  0  0
  -18.9456  -30.1475   23.8916 C   0  0  0  0  0  0
  -17.6447  -30.6601   24.0591 C   0  0  0  0  0  0
  -25.9033  -34.9472   23.5121 C   0  0  0  0  0  0
  -16.5343  -29.9102   23.6334 C   0  0  0  0  0  0
  -16.7269  -28.6535   23.0326 C   0  0  0  0  0  0
  -26.4497  -31.6573   25.0692 C   0  0  0  0  0  0
  -25.3811  -31.3637   26.1470 C   0  0  0  0  0  0
  -27.0337  -30.3021   24.6069 C   0  0  0  0  0  0
  -27.6085  -32.4275   25.7452 C   0  0  0  0  0  0
  -27.5560  -37.1814   24.8469 C   0  0  0  0  0  0
  -21.4090  -29.3063   22.3708 N   0  0  0  0  0  0
  -26.4276  -37.3820   23.9415 N   0  0  0  0  0  0
  -24.6643  -31.0818   22.0998 N   0  0  0  0  0  0
  -23.4163  -28.8225   23.2951 O   0  0  0  0  0  0
  -28.3776  -26.7054   20.0968 O   0  0  0  0  0  0
  -26.5576  -34.8907   22.4674 O   0  0  0  0  0  0
  -23.5339  -32.1403   23.7535 O   0  0  0  0  0  0
  -27.6402  -21.1758   24.4476 C   0  0  0  0  0  0
  -27.1069  -22.2316   23.5156 C   0  0  0  0  0  0
  -30.7215  -19.0751   21.6047 C   0  0  0  0  0  0
  -28.6427  -18.1079   22.7477 C   0  0  0  0  0  0
  -30.6781  -17.6793   20.9391 C   0  0  0  0  0  0
  -29.5783  -16.9497   23.1367 C   0  0  0  0  0  0
  -27.4630  -20.8612   22.9754 C   0  0  0  0  0  0
  -29.4750  -19.3820   22.4830 C   0  0  2  0  0  0
  -30.5350  -16.5465   21.9874 C   0  0  1  0  0  0
  -28.3767  -24.2669   19.5583 C   0  0  0  0  0  0
  -28.2089  -25.3798   20.6186 C   0  0  0  0  0  0
  -27.7727  -22.9267   20.0331 C   0  0  0  0  0  0
  -28.2237  -20.6399   20.5504 C   0  0  0  0  0  0
  -28.6562  -20.6327   22.0469 C   0  0  1  0  0  0
  -30.0544  -15.2922   21.4116 N   0  0  0  0  0  0
  -28.6642  -21.8258   19.8793 O   0  0  0  0  0  0
  -31.4685  -12.4216   19.0863 H   0  0  0  0  0  0
  -30.3381  -11.2775   19.7535 H   0  0  0  0  0  0
  -29.7192  -11.8107   17.3947 H   0  0  0  0  0  0
  -29.6578  -13.5169   17.7640 H   0  0  0  0  0  0
  -27.8202  -11.3203   18.7757 H   0  0  0  0  0  0
  -27.3547  -12.6733   17.7836 H   0  0  0  0  0  0
  -27.7262  -14.2518   19.6170 H   0  0  0  0  0  0
  -28.6811  -11.8677   21.2737 H   0  0  0  0  0  0
  -28.4575  -13.4645   21.9002 H   0  0  0  0  0  0
  -25.2702   -9.5682   22.4766 H   0  0  0  0  0  0
  -23.9956   -7.4624   22.7453 H   0  0  0  0  0  0
  -21.0804   -8.8721   19.8952 H   0  0  0  0  0  0
  -22.3623  -10.9641   19.6161 H   0  0  0  0  0  0
  -21.2020   -7.6130   23.9718 H   0  0  0  0  0  0
  -21.1484   -6.0503   25.9076 H   0  0  0  0  0  0
  -22.0607   -2.7593   23.2856 H   0  0  0  0  0  0
  -22.4061  -11.9888   22.4801 H   0  0  0  0  0  0
  -21.1126  -13.1324   22.2613 H   0  0  0  0  0  0
  -24.6690  -15.8382   20.5172 H   0  0  0  0  0  0
  -26.2938  -15.6266   20.1043 H   0  0  0  0  0  0
  -26.7072  -32.5562   23.1131 H   0  0  0  0  0  0
  -25.0121  -33.9762   25.0520 H   0  0  0  0  0  0
  -22.6909  -31.3211   21.4107 H   0  0  0  0  0  0
  -23.3728  -35.9646   23.3331 H   0  0  0  0  0  0
  -24.3570  -36.8934   22.2031 H   0  0  0  0  0  0
  -23.7175  -37.6521   23.6640 H   0  0  0  0  0  0
  -26.0342  -31.6144   20.5945 H   0  0  0  0  0  0
  -26.8095  -30.8949   21.9787 H   0  0  0  0  0  0
  -28.0984  -29.1190   21.1394 H   0  0  0  0  0  0
  -26.0520  -25.9980   18.9826 H   0  0  0  0  0  0
  -23.9679  -27.3175   19.0120 H   0  0  0  0  0  0
  -23.7118  -30.6116   19.4039 H   0  0  0  0  0  0
  -22.7234  -29.2592   19.8646 H   0  0  0  0  0  0
  -25.1263  -36.1985   25.0820 H   0  0  0  0  0  0
  -21.0016  -28.3250   24.1406 H   0  0  0  0  0  0
  -20.5653  -26.2291   23.3602 H   0  0  0  0  0  0
  -21.6650  -26.7454   22.1220 H   0  0  0  0  0  0
  -19.6899  -25.6307   21.1244 H   0  0  0  0  0  0
  -19.6688  -27.3218   20.6733 H   0  0  0  0  0  0
  -17.4187  -26.6699   21.4031 H   0  0  0  0  0  0
  -18.0354  -26.0099   22.9025 H   0  0  0  0  0  0
  -19.7929  -30.7321   24.2259 H   0  0  0  0  0  0
  -17.4994  -31.6284   24.5204 H   0  0  0  0  0  0
  -15.5347  -30.3005   23.7657 H   0  0  0  0  0  0
  -15.8677  -28.0887   22.6963 H   0  0  0  0  0  0
  -24.6009  -30.6957   25.7823 H   0  0  0  0  0  0
  -24.8990  -32.2771   26.4932 H   0  0  0  0  0  0
  -25.8206  -30.8806   27.0205 H   0  0  0  0  0  0
  -26.2881  -29.6765   24.1151 H   0  0  0  0  0  0
  -27.4144  -29.7275   25.4518 H   0  0  0  0  0  0
  -27.8696  -30.4357   23.9208 H   0  0  0  0  0  0
  -27.2727  -33.3573   26.2046 H   0  0  0  0  0  0
  -28.3886  -32.6820   25.0275 H   0  0  0  0  0  0
  -28.0766  -31.8383   26.5353 H   0  0  0  0  0  0
  -28.2594  -38.0097   24.7550 H   0  0  0  0  0  0
  -28.1040  -36.2630   24.6277 H   0  0  0  0  0  0
  -27.2300  -37.1463   25.8882 H   0  0  0  0  0  0
  -20.9190  -29.8800   21.6990 H   0  0  0  0  0  0
  -26.0170  -38.2896   24.1471 H   0  0  0  0  0  0
  -26.9392  -20.7179   25.1415 H   0  0  0  0  0  0
  -28.6435  -21.3339   24.8379 H   0  0  0  0  0  0
  -27.7696  -23.0704   23.3101 H   0  0  0  0  0  0
  -26.0487  -22.4791   23.5762 H   0  0  0  0  0  0
  -30.8728  -19.8497   20.8529 H   0  0  0  0  0  0
  -31.6117  -19.1174   22.2339 H   0  0  0  0  0  0
  -27.9260  -18.2769   23.5515 H   0  0  0  0  0  0
  -28.0538  -17.8399   21.8684 H   0  0  0  0  0  0
  -31.5758  -17.5218   20.3396 H   0  0  0  0  0  0
  -29.8423  -17.6504   20.2389 H   0  0  0  0  0  0
  -29.0004  -16.0998   23.5011 H   0  0  0  0  0  0
  -30.1742  -17.2721   23.9922 H   0  0  0  0  0  0
  -26.6201  -20.2075   22.7547 H   0  0  0  0  0  0
  -29.8819  -19.6559   23.4575 H   0  0  0  0  0  0
  -31.5163  -16.3501   22.4249 H   0  0  0  0  0  0
  -29.4344  -24.1535   19.3169 H   0  0  0  0  0  0
  -27.8858  -24.5609   18.6295 H   0  0  0  0  0  0
  -28.9439  -25.2339   21.4102 H   0  0  0  0  0  0
  -27.2405  -25.2804   21.1169 H   0  0  0  0  0  0
  -26.8479  -22.7280   19.4899 H   0  0  0  0  0  0
  -27.4956  -23.0129   21.0782 H   0  0  0  0  0  0
  -27.1482  -20.4925   20.4287 H   0  0  0  0  0  0
  -28.6749  -19.7981   20.0258 H   0  0  0  0  0  0
  -29.3300  -21.4793   22.1881 H   0  0  0  0  0  0
  -29.1405  -14.9888   21.7123 H   0  0  0  0  0  0
  1 25  1  0  0  0
  1 30  2  0  0  0
  1 85  1  0  0  0
  2  3  1  0  0  0
  2 25  1  0  0  0
  2 87  1  0  0  0
  2 88  1  0  0  0
  3  4  1  0  0  0
  3 89  1  0  0  0
  3 90  1  0  0  0
  4  5  1  0  0  0
  4 91  1  0  0  0
  4 92  1  0  0  0
  5  6  1  0  0  0
  5 26  1  0  0  0
  5 93  1  0  0  0
  6 25  1  0  0  0
  6 94  1  0  0  0
  6 95  1  0  0  0
  7  8  2  0  0  0
  7 26  1  0  0  0
  7 29  1  0  0  0
  8  9  1  0  0  0
  8 22  1  0  0  0
  9 10  1  0  0  0
  9 27  2  0  0  0
 10 11  2  0  0  0
 10 15  1  0  0  0
 11 12  1  0  0  0
 11 96  1  0  0  0
 12 13  2  0  0  0
 12 97  1  0  0  0
 13 14  1  0  0  0
 13 31  1  0  0  0
 14 15  2  0  0  0
 14 98  1  0  0  0
 15 99  1  0  0  0
 16 17  2  0  0  0
 16 21  1  0  0  0
 16 31  1  0  0  0
 17 18  1  0  0  0
 17100  1  0  0  0
 18 19  2  0  0  0
 18101  1  0  0  0
 19 20  1  0  0  0
 19 24  1  0  0  0
 20 21  2  0  0  0
 20102  1  0  0  0
 21 23  1  0  0  0
 22 28  1  0  0  0
 22 32  2  0  0  0
 26 27  1  0  0  0
 28103  1  0  0  0
 28104  1  0  0  0
 29105  1  0  0  0
 29106  1  0  0  0
 33 34  1  0  0  0
 33 66  1  0  0  0
 33 70  2  0  0  0
 34 36  1  0  0  0
 34 59  1  0  0  0
 34107  1  0  0  0
 35 44  2  0  0  0
 35 45  1  0  0  0
 35 68  1  0  0  0
 36 56  1  0  0  0
 36108  1  0  0  0
 37 39  1  0  0  0
 37 47  1  0  0  0
 37 66  1  0  0  0
 37109  1  0  0  0
 38 43  2  0  0  0
 38 46  1  0  0  0
 38 47  1  0  0  0
 39 64  1  0  0  0
 39 67  2  0  0  0
 40 52  1  0  0  0
 40 53  2  0  0  0
 40 58  1  0  0  0
 41110  1  0  0  0
 41111  1  0  0  0
 41112  1  0  0  0
 41 48  1  0  0  0
 42 43  1  0  0  0
 42 66  1  0  0  0
 42113  1  0  0  0
 42114  1  0  0  0
 43 44  1  0  0  0
 44115  1  0  0  0
 45 46  2  0  0  0
 45116  1  0  0  0
 46117  1  0  0  0
 47118  1  0  0  0
 47119  1  0  0  0
 48 56  1  0  0  0
 48 65  1  0  0  0
 48120  1  0  0  0
 49 50  1  0  0  0
 49 53  1  0  0  0
 49 64  1  0  0  0
 49121  1  0  0  0
 50 51  1  0  0  0
 50122  1  0  0  0
 50123  1  0  0  0
 51 52  1  0  0  0
 51124  1  0  0  0
 51125  1  0  0  0
 52126  1  0  0  0
 52127  1  0  0  0
 53 54  1  0  0  0
 54 55  2  0  0  0
 54128  1  0  0  0
 55 57  1  0  0  0
 55129  1  0  0  0
 56 69  2  0  0  0
 57 58  2  0  0  0
 57130  1  0  0  0
 58131  1  0  0  0
 59 60  1  0  0  0
 59 61  1  0  0  0
 59 62  1  0  0  0
 60132  1  0  0  0
 60133  1  0  0  0
 60134  1  0  0  0
 61135  1  0  0  0
 61136  1  0  0  0
 61137  1  0  0  0
 62138  1  0  0  0
 62139  1  0  0  0
 62140  1  0  0  0
 63 65  1  0  0  0
 63141  1  0  0  0
 63142  1  0  0  0
 63143  1  0  0  0
 64144  1  0  0  0
 65145  1  0  0  0
 68 81  1  0  0  0
 71 72  1  0  0  0
 71146  1  0  0  0
 71147  1  0  0  0
 71 77  1  0  0  0
 72 77  1  0  0  0
 72148  1  0  0  0
 72149  1  0  0  0
 73 75  1  0  0  0
 73150  1  0  0  0
 73151  1  0  0  0
 73 78  1  0  0  0
 74 76  1  0  0  0
 74 78  1  0  0  0
 74152  1  0  0  0
 74153  1  0  0  0
 75 79  1  0  0  0
 75154  1  0  0  0
 75155  1  0  0  0
 76 79  1  0  0  0
 76156  1  0  0  0
 76157  1  0  0  0
 77 84  1  0  0  0
 77158  1  0  0  0
 78 84  1  0  0  0
 78159  1  0  0  0
 79 85  1  0  0  0
 79160  1  0  0  0
 80 81  1  0  0  0
 80 82  1  0  0  0
 80161  1  0  0  0
 80162  1  0  0  0
 81163  1  0  0  0
 81164  1  0  0  0
 82 86  1  0  0  0
 82165  1  0  0  0
 82166  1  0  0  0
 83 86  1  0  0  0
 83167  1  0  0  0
 83168  1  0  0  0
 83 84  1  0  0  0
 84169  1  0  0  0
 85170  1  0  0  0
M  ISO  4   1 100  68 101  81 101  85 100
M  END
> <chiral flag>
0

> <version>
0

> <s_m_source_file>
/data/baiqing/PycharmProjects/Reinvent-master-3.2/result/LINK_invent/BTK/process_docking_weight1_custom_sum_contain_oxygen_bond_distance_aromatic_linkinvent_7_9_3/rearranged_h_0145.sdf

> <i_m_source_file_index>
86

> <r_mmod_Potential_Energy-OPLS-2005>
64.9869995117188

> <r_mmod_Stretch_Energy-OPLS-2005>
36.3629608154297

> <r_mmod_Bend_Energy-OPLS-2005>
103.18236541748

> <r_mmod_Torsional_Energy-OPLS-2005>
326.880859375

> <r_mmod_Improper_Torsional_Energy-OPLS-2005>
1.98986744880676

> <r_mmod_Van_der_Waal_Energy-OPLS-2005>
146.432434082031

> <r_mmod_Electrostatic_Energy-OPLS-2005>
-360.038024902344

> <r_mmod_Solvation_Energy-OPLS-2005>
-199.806121826172

> <b_mmod_Minimization_Converged-OPLS-2005>
0

> <r_mmod_RMS_Derivative-OPLS-2005>
3.01240086555481

$$$$
87
                    3D
 Structure written by MMmdl.
174184  0  0  1  0            999 V2000
  -30.6316  -14.5635   20.4675 C   0  0  0  0  0  0
  -30.4378  -12.3283   19.4475 C   0  0  0  0  0  0
  -29.5128  -12.4474   18.2167 C   0  0  0  0  0  0
  -28.0264  -12.3324   18.6225 C   0  0  0  0  0  0
  -27.6565  -13.2033   19.8545 C   0  0  2  0  0  0
  -28.6968  -13.0341   20.9839 C   0  0  0  0  0  0
  -25.2594  -13.8152   20.5647 C   0  0  0  0  0  0
  -24.1845  -13.0435   20.9173 C   0  0  0  0  0  0
  -24.6378  -11.6900   20.8720 C   0  0  0  0  0  0
  -23.9042  -10.4293   21.0400 C   0  0  0  0  0  0
  -24.3597   -9.4216   21.9177 C   0  0  0  0  0  0
  -23.6292   -8.2246   22.0746 C   0  0  0  0  0  0
  -22.4266   -8.0281   21.3546 C   0  0  0  0  0  0
  -21.9892   -9.0251   20.4641 C   0  0  0  0  0  0
  -22.7215  -10.2132   20.3052 C   0  0  0  0  0  0
  -21.6850   -6.0740   22.5278 C   0  0  0  0  0  0
  -21.4013   -6.5642   23.8212 C   0  0  0  0  0  0
  -21.3654   -5.6789   24.9168 C   0  0  0  0  0  0
  -21.6045   -4.3057   24.7217 C   0  0  0  0  0  0
  -21.8821   -3.8150   23.4336 C   0  0  0  0  0  0
  -21.9195   -4.6973   22.3390 C   0  0  0  0  0  0
  -22.7868  -13.5251   21.1855 C   0  0  0  0  0  0
  -22.1667   -4.2162   21.0974 F   0  0  0  0  0  0
  -21.5630   -3.4535   25.7730 F   0  0  0  0  0  0
  -30.0186  -13.3491   20.4211 N   0  0  0  0  0  0
  -26.2995  -12.9305   20.3248 N   0  0  0  0  0  0
  -25.9297  -11.6478   20.5701 N   0  0  0  0  0  0
  -22.0486  -12.8245   22.0386 N   0  0  0  0  0  0
  -25.4374  -15.1864   20.4054 N   0  0  0  0  0  0
  -31.8225  -14.7148   20.1941 O   0  0  0  0  0  0
  -21.6642   -6.8874   21.4230 O   0  0  0  0  0  0
  -22.3582  -14.5569   20.6719 O   0  0  0  0  0  0
  -24.6167  -31.8656   23.2062 C   0  0  0  0  0  0
  -25.9052  -32.4803   23.8375 C   0  0  1  0  0  0
  -27.2339  -27.4046   20.1295 C   0  0  0  0  0  0
  -25.5898  -33.8602   24.2296 N   0  0  0  0  0  0
  -23.4070  -30.4884   21.5450 C   0  0  2  0  0  0
  -24.8564  -28.9431   20.1217 C   0  0  0  0  0  0
  -22.7431  -29.4654   22.4951 C   0  0  0  0  0  0
  -18.0285  -28.1410   22.8483 C   0  0  0  0  0  0
  -24.1497  -36.7307   23.2642 C   0  0  0  0  0  0
  -25.9369  -30.8255   21.3636 C   0  0  0  0  0  0
  -26.0149  -29.4526   20.7223 C   0  0  0  0  0  0
  -27.2099  -28.6915   20.7206 C   0  0  0  0  0  0
  -26.0609  -26.9110   19.5242 C   0  0  0  0  0  0
  -24.8746  -27.6721   19.5198 C   0  0  0  0  0  0
  -23.6209  -29.8171   20.1611 C   0  0  0  0  0  0
  -25.4113  -36.3085   24.0334 C   0  0  1  0  0  0
  -20.5881  -28.3690   23.1320 C   0  0  2  0  0  0
  -20.6767  -26.9420   22.5426 C   0  0  0  0  0  0
  -19.5740  -26.6400   21.5232 C   0  0  0  0  0  0
  -18.1919  -26.7948   22.1639 C   0  0  0  0  0  0
  -19.1534  -28.8863   23.2903 C   0  0  0  0  0  0
  -18.9456  -30.1468   23.8912 C   0  0  0  0  0  0
  -17.6452  -30.6597   24.0584 C   0  0  0  0  0  0
  -25.9037  -34.9456   23.5107 C   0  0  0  0  0  0
  -16.5344  -29.9103   23.6335 C   0  0  0  0  0  0
  -16.7274  -28.6540   23.0322 C   0  0  0  0  0  0
  -26.4467  -31.6585   25.0711 C   0  0  0  0  0  0
  -25.3732  -31.3695   26.1460 C   0  0  0  0  0  0
  -27.0303  -30.3027   24.6087 C   0  0  0  0  0  0
  -27.6042  -32.4308   25.7480 C   0  0  0  0  0  0
  -27.5579  -37.1802   24.8458 C   0  0  0  0  0  0
  -21.4152  -29.3051   22.3710 N   0  0  0  0  0  0
  -26.4282  -37.3777   23.9411 N   0  0  0  0  0  0
  -24.6710  -31.0750   22.0965 N   0  0  0  0  0  0
  -23.4190  -28.8196   23.2995 O   0  0  0  0  0  0
  -28.3998  -26.6711   20.0605 O   0  0  0  0  0  0
  -26.5606  -34.8914   22.4671 O   0  0  0  0  0  0
  -23.5351  -32.1413   23.7441 O   0  0  0  0  0  0
  -29.5823  -19.6315   19.0330 C   0  0  0  0  0  0
  -29.5266  -18.0742   20.9123 C   0  0  0  0  0  0
  -29.8570  -18.5372   18.2032 C   0  0  0  0  0  0
  -30.0013  -17.2378   18.6820 C   0  0  0  0  0  0
  -29.8463  -16.9541   20.0746 C   0  0  0  0  0  0
  -29.3663  -19.4066   20.4099 C   0  0  0  0  0  0
  -29.8686  -18.5784   16.7012 C   0  0  0  0  0  0
  -28.7782  -16.8718   13.1937 C   0  0  0  0  0  0
  -27.2976  -16.6564   13.3840 C   0  0  0  0  0  0
  -30.1131  -16.3117   17.4747 C   0  0  2  0  0  0
  -28.0887  -17.4212   14.4233 C   0  0  0  0  0  0
  -31.5343  -15.8102   17.1638 C   0  0  0  0  0  0
  -28.3350  -16.8191   15.7982 C   0  0  0  0  0  0
  -28.0559  -24.1772   20.4849 C   0  0  0  0  0  0
  -28.7968  -22.9479   21.1124 C   0  0  0  0  0  0
  -28.5644  -25.5666   20.9754 C   0  0  0  0  0  0
  -28.2024  -21.5503   20.7714 C   0  0  0  0  0  0
  -29.7943  -15.6196   20.6349 N   0  0  0  0  0  0
  -29.6829  -17.1552   16.3223 N   0  3  1  0  0  0
  -29.0018  -20.4426   21.2678 O   0  0  0  0  0  0
  -31.4830  -12.4391   19.1546 H   0  0  0  0  0  0
  -30.3569  -11.3330   19.8885 H   0  0  0  0  0  0
  -29.7590  -11.6717   17.4904 H   0  0  0  0  0  0
  -29.6917  -13.3856   17.7024 H   0  0  0  0  0  0
  -27.8364  -11.2824   18.8498 H   0  0  0  0  0  0
  -27.3812  -12.5796   17.7794 H   0  0  0  0  0  0
  -27.6821  -14.2396   19.5161 H   0  0  0  0  0  0
  -28.6860  -12.0090   21.3620 H   0  0  0  0  0  0
  -28.4568  -13.6673   21.8396 H   0  0  0  0  0  0
  -25.2741   -9.5725   22.4740 H   0  0  0  0  0  0
  -24.0022   -7.4644   22.7456 H   0  0  0  0  0  0
  -21.0837   -8.8770   19.8938 H   0  0  0  0  0  0
  -22.3682  -10.9672   19.6158 H   0  0  0  0  0  0
  -21.2004   -7.6151   23.9721 H   0  0  0  0  0  0
  -21.1469   -6.0516   25.9078 H   0  0  0  0  0  0
  -22.0605   -2.7619   23.2826 H   0  0  0  0  0  0
  -22.4089  -11.9902   22.4784 H   0  0  0  0  0  0
  -21.1094  -13.1283   22.2561 H   0  0  0  0  0  0
  -24.6776  -15.8472   20.5280 H   0  0  0  0  0  0
  -26.2894  -15.6197   20.0753 H   0  0  0  0  0  0
  -26.7133  -32.5512   23.1155 H   0  0  0  0  0  0
  -25.0034  -33.9759   25.0429 H   0  0  0  0  0  0
  -22.6969  -31.3053   21.4025 H   0  0  0  0  0  0
  -23.3740  -35.9657   23.3294 H   0  0  0  0  0  0
  -24.3590  -36.8923   22.2055 H   0  0  0  0  0  0
  -23.7275  -37.6520   23.6663 H   0  0  0  0  0  0
  -26.0504  -31.5845   20.5879 H   0  0  0  0  0  0
  -26.8248  -30.8840   21.9801 H   0  0  0  0  0  0
  -28.1100  -29.0860   21.1718 H   0  0  0  0  0  0
  -26.0701  -25.9406   19.0490 H   0  0  0  0  0  0
  -23.9845  -27.2747   19.0518 H   0  0  0  0  0  0
  -23.7381  -30.5899   19.4003 H   0  0  0  0  0  0
  -22.7438  -29.2398   19.8631 H   0  0  0  0  0  0
  -25.1290  -36.1926   25.0824 H   0  0  0  0  0  0
  -20.9995  -28.3260   24.1435 H   0  0  0  0  0  0
  -20.5691  -26.2291   23.3616 H   0  0  0  0  0  0
  -21.6632  -26.7460   22.1210 H   0  0  0  0  0  0
  -19.6884  -25.6311   21.1260 H   0  0  0  0  0  0
  -19.6681  -27.3219   20.6768 H   0  0  0  0  0  0
  -17.4192  -26.6720   21.4034 H   0  0  0  0  0  0
  -18.0298  -26.0107   22.9051 H   0  0  0  0  0  0
  -19.7925  -30.7297   24.2277 H   0  0  0  0  0  0
  -17.5005  -31.6272   24.5195 H   0  0  0  0  0  0
  -15.5344  -30.3005   23.7648 H   0  0  0  0  0  0
  -15.8685  -28.0886   22.6977 H   0  0  0  0  0  0
  -24.5888  -30.7070   25.7779 H   0  0  0  0  0  0
  -24.8956  -32.2860   26.4932 H   0  0  0  0  0  0
  -25.8080  -30.8827   27.0199 H   0  0  0  0  0  0
  -26.2848  -29.6790   24.1148 H   0  0  0  0  0  0
  -27.4081  -29.7251   25.4531 H   0  0  0  0  0  0
  -27.8675  -30.4335   23.9233 H   0  0  0  0  0  0
  -27.2656  -33.3586   26.2104 H   0  0  0  0  0  0
  -28.3836  -32.6906   25.0303 H   0  0  0  0  0  0
  -28.0748  -31.8417   26.5360 H   0  0  0  0  0  0
  -28.2574  -38.0117   24.7503 H   0  0  0  0  0  0
  -28.1087  -36.2641   24.6266 H   0  0  0  0  0  0
  -27.2300  -37.1439   25.8861 H   0  0  0  0  0  0
  -20.9308  -29.8786   21.6950 H   0  0  0  0  0  0
  -26.0153  -38.2842   24.1413 H   0  0  0  0  0  0
  -29.4996  -20.6124   18.5886 H   0  0  0  0  0  0
  -29.3566  -17.9060   21.9679 H   0  0  0  0  0  0
  -30.8405  -18.9308   16.3559 H   0  0  0  0  0  0
  -29.0991  -19.2426   16.3076 H   0  0  0  0  0  0
  -29.0908  -17.5882   12.4366 H   0  0  0  0  0  0
  -29.4281  -16.0048   13.3074 H   0  0  0  0  0  0
  -26.9741  -15.6437   13.6189 H   0  0  0  0  0  0
  -26.6196  -17.2250   12.7491 H   0  0  0  0  0  0
  -29.4279  -15.4812   17.6202 H   0  0  0  0  0  0
  -27.9240  -18.4974   14.4334 H   0  0  0  0  0  0
  -32.2472  -16.6334   17.1103 H   0  0  0  0  0  0
  -31.5579  -15.2875   16.2077 H   0  0  0  0  0  0
  -31.9111  -15.1002   17.8869 H   0  0  0  0  0  0
  -28.2341  -15.7357   15.7152 H   0  0  0  0  0  0
  -27.5573  -17.1543   16.4873 H   0  0  0  0  0  0
  -26.9856  -24.1072   20.6872 H   0  0  0  0  0  0
  -28.1631  -24.1265   19.4011 H   0  0  0  0  0  0
  -28.8211  -23.0541   22.1976 H   0  0  0  0  0  0
  -29.8368  -22.9682   20.7853 H   0  0  0  0  0  0
  -29.6391  -25.4906   21.1405 H   0  0  0  0  0  0
  -28.1418  -25.8069   21.9530 H   0  0  0  0  0  0
  -27.9783  -21.4986   19.7079 H   0  0  0  0  0  0
  -27.2252  -21.4695   21.2504 H   0  0  0  0  0  0
  -28.9184  -15.3765   21.0715 H   0  0  0  0  0  0
  -30.3192  -16.9649   15.5643 H   0  0  0  0  0  0
  1 25  1  0  0  0
  1 30  2  0  0  0
  1 88  1  0  0  0
  2  3  1  0  0  0
  2 25  1  0  0  0
  2 91  1  0  0  0
  2 92  1  0  0  0
  3  4  1  0  0  0
  3 93  1  0  0  0
  3 94  1  0  0  0
  4  5  1  0  0  0
  4 95  1  0  0  0
  4 96  1  0  0  0
  5  6  1  0  0  0
  5 26  1  0  0  0
  5 97  1  0  0  0
  6 25  1  0  0  0
  6 98  1  0  0  0
  6 99  1  0  0  0
  7  8  2  0  0  0
  7 26  1  0  0  0
  7 29  1  0  0  0
  8  9  1  0  0  0
  8 22  1  0  0  0
  9 10  1  0  0  0
  9 27  2  0  0  0
 10 11  2  0  0  0
 10 15  1  0  0  0
 11 12  1  0  0  0
 11100  1  0  0  0
 12 13  2  0  0  0
 12101  1  0  0  0
 13 14  1  0  0  0
 13 31  1  0  0  0
 14 15  2  0  0  0
 14102  1  0  0  0
 15103  1  0  0  0
 16 17  2  0  0  0
 16 21  1  0  0  0
 16 31  1  0  0  0
 17 18  1  0  0  0
 17104  1  0  0  0
 18 19  2  0  0  0
 18105  1  0  0  0
 19 20  1  0  0  0
 19 24  1  0  0  0
 20 21  2  0  0  0
 20106  1  0  0  0
 21 23  1  0  0  0
 22 28  1  0  0  0
 22 32  2  0  0  0
 26 27  1  0  0  0
 28107  1  0  0  0
 28108  1  0  0  0
 29109  1  0  0  0
 29110  1  0  0  0
 33 34  1  0  0  0
 33 66  1  0  0  0
 33 70  2  0  0  0
 34 36  1  0  0  0
 34 59  1  0  0  0
 34111  1  0  0  0
 35 44  2  0  0  0
 35 45  1  0  0  0
 35 68  1  0  0  0
 36 56  1  0  0  0
 36112  1  0  0  0
 37 39  1  0  0  0
 37 47  1  0  0  0
 37 66  1  0  0  0
 37113  1  0  0  0
 38 43  2  0  0  0
 38 46  1  0  0  0
 38 47  1  0  0  0
 39 64  1  0  0  0
 39 67  2  0  0  0
 40 52  1  0  0  0
 40 53  2  0  0  0
 40 58  1  0  0  0
 41114  1  0  0  0
 41115  1  0  0  0
 41116  1  0  0  0
 41 48  1  0  0  0
 42 43  1  0  0  0
 42 66  1  0  0  0
 42117  1  0  0  0
 42118  1  0  0  0
 43 44  1  0  0  0
 44119  1  0  0  0
 45 46  2  0  0  0
 45120  1  0  0  0
 46121  1  0  0  0
 47122  1  0  0  0
 47123  1  0  0  0
 48 56  1  0  0  0
 48 65  1  0  0  0
 48124  1  0  0  0
 49 50  1  0  0  0
 49 53  1  0  0  0
 49 64  1  0  0  0
 49125  1  0  0  0
 50 51  1  0  0  0
 50126  1  0  0  0
 50127  1  0  0  0
 51 52  1  0  0  0
 51128  1  0  0  0
 51129  1  0  0  0
 52130  1  0  0  0
 52131  1  0  0  0
 53 54  1  0  0  0
 54 55  2  0  0  0
 54132  1  0  0  0
 55 57  1  0  0  0
 55133  1  0  0  0
 56 69  2  0  0  0
 57 58  2  0  0  0
 57134  1  0  0  0
 58135  1  0  0  0
 59 60  1  0  0  0
 59 61  1  0  0  0
 59 62  1  0  0  0
 60136  1  0  0  0
 60137  1  0  0  0
 60138  1  0  0  0
 61139  1  0  0  0
 61140  1  0  0  0
 61141  1  0  0  0
 62142  1  0  0  0
 62143  1  0  0  0
 62144  1  0  0  0
 63 65  1  0  0  0
 63145  1  0  0  0
 63146  1  0  0  0
 63147  1  0  0  0
 64148  1  0  0  0
 65149  1  0  0  0
 68 86  1  0  0  0
 71 73  2  0  0  0
 71 76  1  0  0  0
 71150  1  0  0  0
 72 75  1  0  0  0
 72 76  2  0  0  0
 72151  1  0  0  0
 73 74  1  0  0  0
 73 77  1  0  0  0
 74 75  2  0  0  0
 74 80  1  0  0  0
 75 88  1  0  0  0
 76 90  1  0  0  0
 77 89  1  0  0  0
 77152  1  0  0  0
 77153  1  0  0  0
 78 79  1  0  0  0
 78 81  1  0  0  0
 78154  1  0  0  0
 78155  1  0  0  0
 79 81  1  0  0  0
 79156  1  0  0  0
 79157  1  0  0  0
 80 82  1  0  0  0
 80 89  1  0  0  0
 80158  1  0  0  0
 81 83  1  0  0  0
 81159  1  0  0  0
 82160  1  0  0  0
 82161  1  0  0  0
 82162  1  0  0  0
 83163  1  0  0  0
 83164  1  0  0  0
 83 89  1  0  0  0
 84 85  1  0  0  0
 84 86  1  0  0  0
 84165  1  0  0  0
 84166  1  0  0  0
 85 87  1  0  0  0
 85167  1  0  0  0
 85168  1  0  0  0
 86169  1  0  0  0
 86170  1  0  0  0
 87 90  1  0  0  0
 87171  1  0  0  0
 87172  1  0  0  0
 88173  1  0  0  0
 89174  1  0  0  0
M  CHG  1  89   1
M  ISO  4   1 100  68 101  86 101  88 100
M  END
> <chiral flag>
0

> <version>
0

> <s_m_source_file>
/data/baiqing/PycharmProjects/Reinvent-master-3.2/result/LINK_invent/BTK/process_docking_weight1_custom_sum_contain_oxygen_bond_distance_aromatic_linkinvent_7_9_3/rearranged_h_0145.sdf

> <i_m_source_file_index>
87

> <r_mmod_Potential_Energy-OPLS-2005>
12.3776035308838

> <r_mmod_Stretch_Energy-OPLS-2005>
51.9908485412598

> <r_mmod_Bend_Energy-OPLS-2005>
166.400848388672

> <r_mmod_Torsional_Energy-OPLS-2005>
349.295562744141

> <r_mmod_Improper_Torsional_Energy-OPLS-2005>
7.54184579849243

> <r_mmod_Van_der_Waal_Energy-OPLS-2005>
131.346130371094

> <r_mmod_Electrostatic_Energy-OPLS-2005>
-276.343200683594

> <r_mmod_Solvation_Energy-OPLS-2005>
-444.292877197266

> <b_mmod_Minimization_Converged-OPLS-2005>
0

> <r_mmod_RMS_Derivative-OPLS-2005>
2.6654794216156

$$$$
88
                    3D
 Structure written by MMmdl.
181192  0  0  1  0            999 V2000
  -30.0837  -13.0413   20.2322 C   0  0  0  0  0  0
  -30.6391  -11.6917   19.5811 C   0  0  0  0  0  0
  -29.9460  -12.3874   17.9737 C   0  0  0  0  0  0
  -29.1193  -13.9992   18.1253 C   0  0  0  0  0  0
  -28.3175  -14.4884   19.8358 C   0  0  2  0  0  0
  -29.7305  -14.2135   21.1365 C   0  0  0  0  0  0
  -24.8930  -14.0020   20.8687 C   0  0  0  0  0  0
  -23.9401  -13.0553   20.9734 C   0  0  0  0  0  0
  -24.5485  -11.8083   20.8818 C   0  0  0  0  0  0
  -23.9403  -10.4504   21.0027 C   0  0  0  0  0  0
  -24.4096   -9.4248   21.8601 C   0  0  0  0  0  0
  -23.6641   -8.2300   22.0387 C   0  0  0  0  0  0
  -22.4402   -8.0306   21.3609 C   0  0  0  0  0  0
  -21.9880   -9.0308   20.4895 C   0  0  0  0  0  0
  -22.7318  -10.2158   20.3014 C   0  0  0  0  0  0
  -21.6956   -6.0611   22.5274 C   0  0  0  0  0  0
  -21.4130   -6.5539   23.8180 C   0  0  0  0  0  0
  -21.3735   -5.6790   24.9177 C   0  0  0  0  0  0
  -21.6007   -4.3012   24.7317 C   0  0  0  0  0  0
  -21.8809   -3.8073   23.4434 C   0  0  0  0  0  0
  -21.9188   -4.6803   22.3436 C   0  0  0  0  0  0
  -22.5157  -13.3974   21.2151 C   0  0  0  0  0  0
  -22.1668   -4.1904   21.1033 F   0  0  0  0  0  0
  -21.5656   -3.4547   25.7909 F   0  0  0  0  0  0
  -30.5121  -12.6547   21.0413 N   0  0  0  0  0  0
  -26.1821  -13.5469   20.4518 N   0  0  0  0  0  0
  -25.8188  -12.0952   20.6524 N   0  0  0  0  0  0
  -21.8972  -12.7233   22.1640 N   0  0  0  0  0  0
  -24.5167  -15.2458   21.3168 N   0  0  0  0  0  0
  -31.1415  -13.8320   19.5804 O   0  0  0  0  0  0
  -21.6750   -6.8861   21.4306 O   0  0  0  0  0  0
  -22.0038  -14.3613   20.6520 O   0  0  0  0  0  0
  -24.6430  -31.8489   23.1917 C   0  0  0  0  0  0
  -25.9257  -32.4682   23.8226 C   0  0  1  0  0  0
  -27.1040  -27.1419   20.0894 C   0  0  0  0  0  0
  -25.6054  -33.8486   24.2160 N   0  0  0  0  0  0
  -23.4306  -30.4822   21.5430 C   0  0  2  0  0  0
  -24.8473  -28.9280   20.0890 C   0  0  0  0  0  0
  -22.7520  -29.4594   22.4895 C   0  0  0  0  0  0
  -18.0283  -28.1383   22.8438 C   0  0  0  0  0  0
  -24.1525  -36.7262   23.2629 C   0  0  0  0  0  0
  -25.9898  -30.7226   21.3812 C   0  0  0  0  0  0
  -26.0369  -29.3438   20.7045 C   0  0  0  0  0  0
  -27.1826  -28.4608   20.6895 C   0  0  0  0  0  0
  -25.9072  -26.8392   19.4288 C   0  0  0  0  0  0
  -24.7930  -27.6908   19.4352 C   0  0  0  0  0  0
  -23.6349  -29.8351   20.1527 C   0  0  0  0  0  0
  -25.4155  -36.3020   24.0298 C   0  0  1  0  0  0
  -20.5889  -28.3712   23.1259 C   0  0  2  0  0  0
  -20.6804  -26.9444   22.5379 C   0  0  0  0  0  0
  -19.5784  -26.6395   21.5179 C   0  0  0  0  0  0
  -18.1959  -26.7918   22.1590 C   0  0  0  0  0  0
  -19.1531  -28.8859   23.2834 C   0  0  0  0  0  0
  -18.9456  -30.1450   23.8872 C   0  0  0  0  0  0
  -17.6458  -30.6596   24.0540 C   0  0  0  0  0  0
  -25.9119  -34.9403   23.5031 C   0  0  0  0  0  0
  -16.5351  -29.9084   23.6328 C   0  0  0  0  0  0
  -16.7262  -28.6494   23.0353 C   0  0  0  0  0  0
  -26.4558  -31.6508   25.0646 C   0  0  0  0  0  0
  -25.3732  -31.3714   26.1329 C   0  0  0  0  0  0
  -27.0369  -30.2882   24.6201 C   0  0  0  0  0  0
  -27.6115  -32.4217   25.7440 C   0  0  0  0  0  0
  -27.5586  -37.1806   24.8465 C   0  0  0  0  0  0
  -21.4220  -29.3065   22.3674 N   0  0  0  0  0  0
  -26.4315  -37.3734   23.9380 N   0  0  0  0  0  0
  -24.7078  -31.0393   22.0921 N   0  0  0  0  0  0
  -23.4185  -28.8099   23.3009 O   0  0  0  0  0  0
  -28.0513  -26.0757   20.1134 O   0  0  0  0  0  0
  -26.5680  -34.8920   22.4599 O   0  0  0  0  0  0
  -23.5599  -32.1366   23.7256 O   0  0  0  0  0  0
  -26.1927  -20.5648   20.1585 C   0  0  0  0  0  0
  -26.6196  -21.9343   20.1920 C   0  0  0  0  0  0
  -24.7362  -20.4585   20.6617 C   0  0  0  0  0  0
  -27.2238  -17.8212   23.2638 C   0  0  0  0  0  0
  -26.8585  -19.1955   22.8184 C   0  0  0  0  0  0
  -27.2678  -15.0449   21.8956 C   0  0  0  0  0  0
  -26.4834  -14.6795   18.4596 C   0  0  0  0  0  0
  -28.6657  -23.7272   20.6669 C   0  0  0  0  0  0
  -27.8916  -13.0334   21.9320 C   0  0  0  0  0  0
  -27.3213  -12.6264   18.6978 C   0  0  0  0  0  0
  -23.8984  -19.3025   20.0744 C   0  0  0  0  0  0
  -25.6751  -18.7809   18.3745 C   0  0  0  0  0  0
  -26.6482  -19.0901   19.5603 C   0  0  2  0  0  0
  -27.6172  -23.1205   19.7722 C   0  0  2  0  0  0
  -26.4033  -17.9945   21.9738 C   0  0  0  0  0  0
  -26.5812  -16.0111   20.1478 C   0  0  0  0  0  0
  -27.4958  -24.6563   20.4113 C   0  0  2  0  0  0
  -23.3144  -18.0038   18.0754 C   0  0  0  0  0  0
  -26.9091  -17.6937   20.5048 C   0  0  1  0  0  0
  -28.5040  -12.3373   20.2847 N   0  0  0  0  0  0
  -24.2222  -19.0279   18.6556 N   0  3  1  0  0  0
  -31.6969  -11.4254   19.4241 H   0  0  0  0  0  0
  -30.2308  -10.6741   19.7614 H   0  0  0  0  0  0
  -29.4075  -11.5830   17.4721 H   0  0  0  0  0  0
  -30.7778  -12.5374   17.2854 H   0  0  0  0  0  0
  -28.5481  -14.1596   17.2121 H   0  0  0  0  0  0
  -29.8694  -14.7745   17.9300 H   0  0  0  0  0  0
  -28.5806  -15.5457   19.6609 H   0  0  0  0  0  0
  -29.6575  -14.4684   22.2001 H   0  0  0  0  0  0
  -30.3402  -15.1530   21.0919 H   0  0  0  0  0  0
  -25.3359   -9.5544   22.4015 H   0  0  0  0  0  0
  -24.0428   -7.4388   22.6763 H   0  0  0  0  0  0
  -21.0591   -8.9042   19.9442 H   0  0  0  0  0  0
  -22.3349  -10.9750   19.6457 H   0  0  0  0  0  0
  -21.2264   -7.6076   23.9452 H   0  0  0  0  0  0
  -21.1611   -6.0690   25.9037 H   0  0  0  0  0  0
  -22.0540   -2.7464   23.3067 H   0  0  0  0  0  0
  -22.3877  -11.9965   22.6712 H   0  0  0  0  0  0
  -20.9605  -12.9962   22.4332 H   0  0  0  0  0  0
  -25.1712  -16.0193   21.3436 H   0  0  0  0  0  0
  -23.6120  -15.4532   21.7347 H   0  0  0  0  0  0
  -26.7290  -32.5260   23.0913 H   0  0  0  0  0  0
  -25.0168  -33.9523   25.0285 H   0  0  0  0  0  0
  -22.7270  -31.3071   21.4070 H   0  0  0  0  0  0
  -23.3790  -35.9597   23.3306 H   0  0  0  0  0  0
  -24.3597  -36.8896   22.2038 H   0  0  0  0  0  0
  -23.7301  -37.6471   23.6665 H   0  0  0  0  0  0
  -26.1607  -31.4821   20.6203 H   0  0  0  0  0  0
  -26.8623  -30.7489   22.0238 H   0  0  0  0  0  0
  -28.0939  -28.7550   21.1878 H   0  0  0  0  0  0
  -25.8023  -25.8977   18.9137 H   0  0  0  0  0  0
  -23.8794  -27.3789   18.9446 H   0  0  0  0  0  0
  -23.7656  -30.6159   19.4040 H   0  0  0  0  0  0
  -22.7436  -29.2800   19.8526 H   0  0  0  0  0  0
  -25.1359  -36.1837   25.0794 H   0  0  0  0  0  0
  -20.9925  -28.3327   24.1398 H   0  0  0  0  0  0
  -20.5721  -26.2341   23.3579 H   0  0  0  0  0  0
  -21.6694  -26.7495   22.1186 H   0  0  0  0  0  0
  -19.6999  -25.6301   21.1229 H   0  0  0  0  0  0
  -19.6761  -27.3205   20.6710 H   0  0  0  0  0  0
  -17.4234  -26.6586   21.4002 H   0  0  0  0  0  0
  -18.0415  -26.0063   22.8995 H   0  0  0  0  0  0
  -19.7942  -30.7237   24.2279 H   0  0  0  0  0  0
  -17.5034  -31.6278   24.5143 H   0  0  0  0  0  0
  -15.5362  -30.2990   23.7688 H   0  0  0  0  0  0
  -15.8643  -28.0803   22.7131 H   0  0  0  0  0  0
  -24.5994  -30.6948   25.7673 H   0  0  0  0  0  0
  -24.8808  -32.2884   26.4571 H   0  0  0  0  0  0
  -25.8031  -30.9037   27.0193 H   0  0  0  0  0  0
  -26.3006  -29.6683   24.1061 H   0  0  0  0  0  0
  -27.3820  -29.7084   25.4767 H   0  0  0  0  0  0
  -27.8989  -30.4075   23.9637 H   0  0  0  0  0  0
  -27.2763  -33.3573   26.1925 H   0  0  0  0  0  0
  -28.4008  -32.6659   25.0313 H   0  0  0  0  0  0
  -28.0678  -31.8349   26.5413 H   0  0  0  0  0  0
  -28.2631  -38.0073   24.7489 H   0  0  0  0  0  0
  -28.1066  -36.2613   24.6357 H   0  0  0  0  0  0
  -27.2294  -37.1545   25.8864 H   0  0  0  0  0  0
  -20.9435  -29.8793   21.6862 H   0  0  0  0  0  0
  -26.0197  -38.2825   24.1325 H   0  0  0  0  0  0
  -25.8936  -22.4988   20.7637 H   0  0  0  0  0  0
  -24.2099  -21.3668   20.3509 H   0  0  0  0  0  0
  -24.6811  -20.4647   21.7511 H   0  0  0  0  0  0
  -26.7008  -17.4613   24.1529 H   0  0  0  0  0  0
  -28.2988  -17.6452   23.2657 H   0  0  0  0  0  0
  -27.6972  -19.8374   22.5209 H   0  0  0  0  0  0
  -26.1369  -19.6711   23.4863 H   0  0  0  0  0  0
  -28.0518  -15.6907   22.2713 H   0  0  0  0  0  0
  -26.5701  -15.1267   22.7294 H   0  0  0  0  0  0
  -25.4382  -14.5409   18.1710 H   0  0  0  0  0  0
  -26.8692  -15.2128   17.5884 H   0  0  0  0  0  0
  -29.6084  -23.9685   20.1741 H   0  0  0  0  0  0
  -28.7636  -23.3195   21.6676 H   0  0  0  0  0  0
  -27.1663  -12.4064   22.4481 H   0  0  0  0  0  0
  -28.6137  -12.8345   22.7315 H   0  0  0  0  0  0
  -27.5941  -12.2461   17.7237 H   0  0  0  0  0  0
  -26.5724  -11.8423   18.5859 H   0  0  0  0  0  0
  -22.8422  -19.5909   20.1393 H   0  0  0  0  0  0
  -24.0087  -18.3817   20.6453 H   0  0  0  0  0  0
  -25.8548  -17.7816   17.9719 H   0  0  0  0  0  0
  -25.9210  -19.4738   17.5668 H   0  0  0  0  0  0
  -27.6171  -19.2762   19.0943 H   0  0  0  0  0  0
  -27.8514  -23.0724   18.7134 H   0  0  0  0  0  0
  -25.3638  -17.7125   22.1515 H   0  0  0  0  0  0
  -25.6255  -16.4385   19.9017 H   0  0  0  0  0  0
  -26.7624  -24.7449   21.2118 H   0  0  0  0  0  0
  -22.2736  -18.1875   18.3674 H   0  0  0  0  0  0
  -23.5687  -16.9863   18.3946 H   0  0  0  0  0  0
  -23.3286  -18.0421   16.9858 H   0  0  0  0  0  0
  -27.9865  -17.7159   20.6305 H   0  0  0  0  0  0
  -23.9902  -19.8810   18.1661 H   0  0  0  0  0  0
  1 25  1  0  0  0
  1 30  2  0  0  0
  1 90  1  0  0  0
  2  3  1  0  0  0
  2 25  1  0  0  0
  2 92  1  0  0  0
  2 93  1  0  0  0
  3  4  1  0  0  0
  3 94  1  0  0  0
  3 95  1  0  0  0
  4  5  1  0  0  0
  4 96  1  0  0  0
  4 97  1  0  0  0
  5  6  1  0  0  0
  5 26  1  0  0  0
  5 98  1  0  0  0
  6 25  1  0  0  0
  6 99  1  0  0  0
  6100  1  0  0  0
  7  8  2  0  0  0
  7 26  1  0  0  0
  7 29  1  0  0  0
  8  9  1  0  0  0
  8 22  1  0  0  0
  9 10  1  0  0  0
  9 27  2  0  0  0
 10 11  2  0  0  0
 10 15  1  0  0  0
 11 12  1  0  0  0
 11101  1  0  0  0
 12 13  2  0  0  0
 12102  1  0  0  0
 13 14  1  0  0  0
 13 31  1  0  0  0
 14 15  2  0  0  0
 14103  1  0  0  0
 15104  1  0  0  0
 16 17  2  0  0  0
 16 21  1  0  0  0
 16 31  1  0  0  0
 17 18  1  0  0  0
 17105  1  0  0  0
 18 19  2  0  0  0
 18106  1  0  0  0
 19 20  1  0  0  0
 19 24  1  0  0  0
 20 21  2  0  0  0
 20107  1  0  0  0
 21 23  1  0  0  0
 22 28  1  0  0  0
 22 32  2  0  0  0
 26 27  1  0  0  0
 28108  1  0  0  0
 28109  1  0  0  0
 29110  1  0  0  0
 29111  1  0  0  0
 33 34  1  0  0  0
 33 66  1  0  0  0
 33 70  2  0  0  0
 34 36  1  0  0  0
 34 59  1  0  0  0
 34112  1  0  0  0
 35 44  2  0  0  0
 35 45  1  0  0  0
 35 68  1  0  0  0
 36 56  1  0  0  0
 36113  1  0  0  0
 37 39  1  0  0  0
 37 47  1  0  0  0
 37 66  1  0  0  0
 37114  1  0  0  0
 38 43  2  0  0  0
 38 46  1  0  0  0
 38 47  1  0  0  0
 39 64  1  0  0  0
 39 67  2  0  0  0
 40 52  1  0  0  0
 40 53  2  0  0  0
 40 58  1  0  0  0
 41115  1  0  0  0
 41116  1  0  0  0
 41117  1  0  0  0
 41 48  1  0  0  0
 42 43  1  0  0  0
 42 66  1  0  0  0
 42118  1  0  0  0
 42119  1  0  0  0
 43 44  1  0  0  0
 44120  1  0  0  0
 45 46  2  0  0  0
 45121  1  0  0  0
 46122  1  0  0  0
 47123  1  0  0  0
 47124  1  0  0  0
 48 56  1  0  0  0
 48 65  1  0  0  0
 48125  1  0  0  0
 49 50  1  0  0  0
 49 53  1  0  0  0
 49 64  1  0  0  0
 49126  1  0  0  0
 50 51  1  0  0  0
 50127  1  0  0  0
 50128  1  0  0  0
 51 52  1  0  0  0
 51129  1  0  0  0
 51130  1  0  0  0
 52131  1  0  0  0
 52132  1  0  0  0
 53 54  1  0  0  0
 54 55  2  0  0  0
 54133  1  0  0  0
 55 57  1  0  0  0
 55134  1  0  0  0
 56 69  2  0  0  0
 57 58  2  0  0  0
 57135  1  0  0  0
 58136  1  0  0  0
 59 60  1  0  0  0
 59 61  1  0  0  0
 59 62  1  0  0  0
 60137  1  0  0  0
 60138  1  0  0  0
 60139  1  0  0  0
 61140  1  0  0  0
 61141  1  0  0  0
 61142  1  0  0  0
 62143  1  0  0  0
 62144  1  0  0  0
 62145  1  0  0  0
 63 65  1  0  0  0
 63146  1  0  0  0
 63147  1  0  0  0
 63148  1  0  0  0
 64149  1  0  0  0
 65150  1  0  0  0
 68 87  1  0  0  0
 71 72  2  0  0  0
 71 73  1  0  0  0
 71 83  1  0  0  0
 72151  1  0  0  0
 72 84  1  0  0  0
 73 81  1  0  0  0
 73152  1  0  0  0
 73153  1  0  0  0
 74 75  1  0  0  0
 74154  1  0  0  0
 74155  1  0  0  0
 74 85  1  0  0  0
 75 85  1  0  0  0
 75156  1  0  0  0
 75157  1  0  0  0
 76 79  1  0  0  0
 76158  1  0  0  0
 76159  1  0  0  0
 76 86  1  0  0  0
 77 80  1  0  0  0
 77 86  1  0  0  0
 77160  1  0  0  0
 77161  1  0  0  0
 78 84  1  0  0  0
 78 87  1  0  0  0
 78162  1  0  0  0
 78163  1  0  0  0
 79 90  1  0  0  0
 79164  1  0  0  0
 79165  1  0  0  0
 80 90  1  0  0  0
 80166  1  0  0  0
 80167  1  0  0  0
 81 91  1  0  0  0
 81168  1  0  0  0
 81169  1  0  0  0
 82 91  1  0  0  0
 82170  1  0  0  0
 82171  1  0  0  0
 82 83  1  0  0  0
 83172  1  0  0  0
 83 89  1  0  0  0
 84 87  1  0  0  0
 84173  1  0  0  0
 85 89  1  0  0  0
 85174  1  0  0  0
 86 89  1  0  0  0
 86175  1  0  0  0
 87176  1  0  0  0
 88177  1  0  0  0
 88178  1  0  0  0
 88179  1  0  0  0
 88 91  1  0  0  0
 89180  1  0  0  0
 91181  1  0  0  0
M  CHG  1  91   1
M  ISO  4   1 100  68 101  87 101  90 100
M  END
> <chiral flag>
0

> <version>
0

> <s_m_source_file>
/data/baiqing/PycharmProjects/Reinvent-master-3.2/result/LINK_invent/BTK/process_docking_weight1_custom_sum_contain_oxygen_bond_distance_aromatic_linkinvent_7_9_3/rearranged_h_0145.sdf

> <i_m_source_file_index>
88

> <r_mmod_Potential_Energy-OPLS-2005>
11969.615234375

> <r_mmod_Stretch_Energy-OPLS-2005>
5615.27197265625

> <r_mmod_Bend_Energy-OPLS-2005>
1448.28918457031

> <r_mmod_Torsional_Energy-OPLS-2005>
577.061401367188

> <r_mmod_Improper_Torsional_Energy-OPLS-2005>
11.1275110244751

> <r_mmod_Van_der_Waal_Energy-OPLS-2005>
3104.1474609375

> <r_mmod_Electrostatic_Energy-OPLS-2005>
-151.346603393555

> <r_mmod_Solvation_Energy-OPLS-2005>
-437.941101074219

> <b_mmod_Minimization_Converged-OPLS-2005>
0

> <r_mmod_RMS_Derivative-OPLS-2005>
21.6215648651123

$$$$
89
                    3D
 Structure written by MMmdl.
174182  0  0  1  0            999 V2000
  -30.7627  -14.3842   20.6784 C   0  0  0  0  0  0
  -30.4158  -12.2987   19.4047 C   0  0  0  0  0  0
  -29.4867  -12.5262   18.1975 C   0  0  0  0  0  0
  -28.0115  -12.3763   18.6125 C   0  0  0  0  0  0
  -27.6646  -13.2042   19.8778 C   0  0  2  0  0  0
  -28.7011  -12.9613   20.9978 C   0  0  0  0  0  0
  -25.2597  -13.8160   20.5680 C   0  0  0  0  0  0
  -24.1846  -13.0445   20.9186 C   0  0  0  0  0  0
  -24.6386  -11.6907   20.8725 C   0  0  0  0  0  0
  -23.9047  -10.4297   21.0396 C   0  0  0  0  0  0
  -24.3598   -9.4219   21.9181 C   0  0  0  0  0  0
  -23.6285   -8.2252   22.0754 C   0  0  0  0  0  0
  -22.4269   -8.0282   21.3545 C   0  0  0  0  0  0
  -21.9901   -9.0249   20.4641 C   0  0  0  0  0  0
  -22.7218  -10.2135   20.3048 C   0  0  0  0  0  0
  -21.6855   -6.0732   22.5277 C   0  0  0  0  0  0
  -21.4012   -6.5635   23.8213 C   0  0  0  0  0  0
  -21.3659   -5.6787   24.9176 C   0  0  0  0  0  0
  -21.6047   -4.3049   24.7225 C   0  0  0  0  0  0
  -21.8817   -3.8144   23.4343 C   0  0  0  0  0  0
  -21.9192   -4.6960   22.3401 C   0  0  0  0  0  0
  -22.7868  -13.5252   21.1844 C   0  0  0  0  0  0
  -22.1663   -4.2147   21.0979 F   0  0  0  0  0  0
  -21.5633   -3.4531   25.7738 F   0  0  0  0  0  0
  -30.0446  -13.2512   20.4625 N   0  0  0  0  0  0
  -26.3028  -12.9325   20.3355 N   0  0  0  0  0  0
  -25.9311  -11.6485   20.5742 N   0  0  0  0  0  0
  -22.0490  -12.8245   22.0382 N   0  0  0  0  0  0
  -25.4336  -15.1879   20.4073 N   0  0  0  0  0  0
  -31.7773  -14.6728   20.0379 O   0  0  0  0  0  0
  -21.6641   -6.8873   21.4240 O   0  0  0  0  0  0
  -22.3572  -14.5568   20.6696 O   0  0  0  0  0  0
  -24.6130  -31.8698   23.2137 C   0  0  0  0  0  0
  -25.9032  -32.4831   23.8421 C   0  0  1  0  0  0
  -27.2322  -27.4433   20.0738 C   0  0  0  0  0  0
  -25.5894  -33.8632   24.2341 N   0  0  0  0  0  0
  -23.4003  -30.4958   21.5536 C   0  0  2  0  0  0
  -24.8444  -28.9646   20.1151 C   0  0  0  0  0  0
  -22.7397  -29.4672   22.4994 C   0  0  0  0  0  0
  -18.0267  -28.1373   22.8500 C   0  0  0  0  0  0
  -24.1482  -36.7316   23.2641 C   0  0  0  0  0  0
  -25.9302  -30.8308   21.3718 C   0  0  0  0  0  0
  -26.0030  -29.4654   20.7204 C   0  0  0  0  0  0
  -27.1932  -28.7035   20.7143 C   0  0  0  0  0  0
  -26.0524  -26.9586   19.4634 C   0  0  0  0  0  0
  -24.8619  -27.7066   19.4918 C   0  0  0  0  0  0
  -23.6086  -29.8335   20.1663 C   0  0  0  0  0  0
  -25.4104  -36.3116   24.0338 C   0  0  1  0  0  0
  -20.5859  -28.3660   23.1319 C   0  0  2  0  0  0
  -20.6762  -26.9399   22.5415 C   0  0  0  0  0  0
  -19.5739  -26.6385   21.5214 C   0  0  0  0  0  0
  -18.1917  -26.7923   22.1625 C   0  0  0  0  0  0
  -19.1519  -28.8830   23.2907 C   0  0  0  0  0  0
  -18.9449  -30.1439   23.8912 C   0  0  0  0  0  0
  -17.6453  -30.6585   24.0564 C   0  0  0  0  0  0
  -25.9032  -34.9480   23.5136 C   0  0  0  0  0  0
  -16.5344  -29.9090   23.6323 C   0  0  0  0  0  0
  -16.7258  -28.6504   23.0351 C   0  0  0  0  0  0
  -26.4468  -31.6611   25.0745 C   0  0  0  0  0  0
  -25.3740  -31.3691   26.1490 C   0  0  0  0  0  0
  -27.0318  -30.3063   24.6122 C   0  0  0  0  0  0
  -27.6031  -32.4345   25.7509 C   0  0  0  0  0  0
  -27.5575  -37.1816   24.8466 C   0  0  0  0  0  0
  -21.4127  -29.3035   22.3726 N   0  0  0  0  0  0
  -26.4289  -37.3798   23.9407 N   0  0  0  0  0  0
  -24.6658  -31.0803   22.1042 N   0  0  0  0  0  0
  -23.4172  -28.8207   23.3026 O   0  0  0  0  0  0
  -28.4081  -26.7200   20.0913 O   0  0  0  0  0  0
  -26.5598  -34.8924   22.4697 O   0  0  0  0  0  0
  -23.5322  -32.1459   23.7525 O   0  0  0  0  0  0
  -27.8235  -18.3206   23.0799 C   0  0  0  0  0  0
  -29.4109  -19.1258   21.4829 C   0  0  0  0  0  0
  -27.8160  -19.8533   23.1123 C   0  0  1  0  0  0
  -28.3442  -20.2206   21.7217 C   0  0  1  0  0  0
  -26.4342  -20.4371   23.4513 C   0  0  0  0  0  0
  -32.2319  -15.9583   23.0313 C   0  0  0  0  0  0
  -28.7268  -23.8200   17.5897 C   0  0  0  0  0  0
  -28.8408  -21.6897   21.5947 C   0  0  0  0  0  0
  -30.0613  -17.2574   23.0312 C   0  0  0  0  0  0
  -28.6211  -22.2968   20.1910 C   0  0  0  0  0  0
  -28.7704  -25.9715   18.9252 C   0  0  0  0  0  0
  -31.0080  -16.3673   22.1889 C   0  0  2  0  0  0
  -28.3809  -24.4662   18.9502 C   0  0  2  0  0  0
  -30.3248  -15.1671   21.6793 N   0  0  0  0  0  0
  -28.9823  -17.9195   22.2473 N   0  3  1  0  0  0
  -29.0014  -23.7334   20.0925 N   0  3  0  0  0  0
  -31.4602  -12.3953   19.1024 H   0  0  0  0  0  0
  -30.3115  -11.2784   19.7769 H   0  0  0  0  0  0
  -29.7242  -11.8202   17.4005 H   0  0  0  0  0  0
  -29.6553  -13.5225   17.7855 H   0  0  0  0  0  0
  -27.8237  -11.3181   18.7988 H   0  0  0  0  0  0
  -27.3577  -12.6598   17.7868 H   0  0  0  0  0  0
  -27.7189  -14.2563   19.5966 H   0  0  0  0  0  0
  -28.6641  -11.9213   21.3259 H   0  0  0  0  0  0
  -28.4436  -13.5476   21.8796 H   0  0  0  0  0  0
  -25.2738   -9.5707   22.4758 H   0  0  0  0  0  0
  -23.9996   -7.4646   22.7473 H   0  0  0  0  0  0
  -21.0837   -8.8753   19.8944 H   0  0  0  0  0  0
  -22.3667  -10.9666   19.6154 H   0  0  0  0  0  0
  -21.2002   -7.6142   23.9717 H   0  0  0  0  0  0
  -21.1487   -6.0516   25.9080 H   0  0  0  0  0  0
  -22.0597   -2.7603   23.2845 H   0  0  0  0  0  0
  -22.4089  -11.9899   22.4767 H   0  0  0  0  0  0
  -21.1100  -13.1268   22.2551 H   0  0  0  0  0  0
  -24.6520  -15.8310   20.4735 H   0  0  0  0  0  0
  -26.2574  -15.6050   19.9938 H   0  0  0  0  0  0
  -26.7098  -32.5548   23.1181 H   0  0  0  0  0  0
  -25.0048  -33.9805   25.0488 H   0  0  0  0  0  0
  -22.6883  -31.3123   21.4173 H   0  0  0  0  0  0
  -23.3741  -35.9653   23.3319 H   0  0  0  0  0  0
  -24.3565  -36.8924   22.2051 H   0  0  0  0  0  0
  -23.7243  -37.6527   23.6649 H   0  0  0  0  0  0
  -26.0468  -31.5954   20.6024 H   0  0  0  0  0  0
  -26.8174  -30.8824   21.9911 H   0  0  0  0  0  0
  -28.0864  -29.0860   21.1887 H   0  0  0  0  0  0
  -26.0169  -26.0063   18.9625 H   0  0  0  0  0  0
  -23.9693  -27.3144   19.0238 H   0  0  0  0  0  0
  -23.7212  -30.6115   19.4104 H   0  0  0  0  0  0
  -22.7313  -29.2574   19.8665 H   0  0  0  0  0  0
  -25.1281  -36.1988   25.0832 H   0  0  0  0  0  0
  -20.9951  -28.3234   24.1440 H   0  0  0  0  0  0
  -20.5679  -26.2269   23.3602 H   0  0  0  0  0  0
  -21.6632  -26.7453   22.1204 H   0  0  0  0  0  0
  -19.6903  -25.6301   21.1235 H   0  0  0  0  0  0
  -19.6677  -27.3200   20.6748 H   0  0  0  0  0  0
  -17.4191  -26.6675   21.4022 H   0  0  0  0  0  0
  -18.0309  -26.0056   22.9010 H   0  0  0  0  0  0
  -19.7924  -30.7249   24.2293 H   0  0  0  0  0  0
  -17.5010  -31.6265   24.5165 H   0  0  0  0  0  0
  -15.5346  -30.3000   23.7633 H   0  0  0  0  0  0
  -15.8657  -28.0829   22.7062 H   0  0  0  0  0  0
  -24.5904  -30.7055   25.7820 H   0  0  0  0  0  0
  -24.8935  -32.2834   26.4979 H   0  0  0  0  0  0
  -25.8099  -30.8827   27.0226 H   0  0  0  0  0  0
  -26.2873  -29.6815   24.1174 H   0  0  0  0  0  0
  -27.4103  -29.7305   25.4578 H   0  0  0  0  0  0
  -27.8695  -30.4402   23.9274 H   0  0  0  0  0  0
  -27.2638  -33.3638   26.2098 H   0  0  0  0  0  0
  -28.3826  -32.6928   25.0331 H   0  0  0  0  0  0
  -28.0711  -31.8474   26.5420 H   0  0  0  0  0  0
  -28.2595  -38.0113   24.7516 H   0  0  0  0  0  0
  -28.1074  -36.2641   24.6297 H   0  0  0  0  0  0
  -27.2285  -37.1475   25.8870 H   0  0  0  0  0  0
  -20.9279  -29.8774   21.6968 H   0  0  0  0  0  0
  -26.0183  -38.2880   24.1408 H   0  0  0  0  0  0
  -26.9221  -17.9505   22.5890 H   0  0  0  0  0  0
  -27.8300  -17.8963   24.0849 H   0  0  0  0  0  0
  -30.3834  -19.4700   21.8369 H   0  0  0  0  0  0
  -29.5238  -18.8950   20.4232 H   0  0  0  0  0  0
  -28.5360  -20.1848   23.8636 H   0  0  0  0  0  0
  -27.5283  -20.0574   21.0144 H   0  0  0  0  0  0
  -25.6799  -20.1333   22.7242 H   0  0  0  0  0  0
  -26.4503  -21.5266   23.4745 H   0  0  0  0  0  0
  -26.0999  -20.0981   24.4323 H   0  0  0  0  0  0
  -32.7648  -16.8353   23.4009 H   0  0  0  0  0  0
  -32.9459  -15.3742   22.4502 H   0  0  0  0  0  0
  -31.9419  -15.3616   23.8971 H   0  0  0  0  0  0
  -28.2716  -24.3752   16.7683 H   0  0  0  0  0  0
  -28.3591  -22.7975   17.5087 H   0  0  0  0  0  0
  -29.8032  -23.8056   17.4119 H   0  0  0  0  0  0
  -29.8891  -21.7660   21.8862 H   0  0  0  0  0  0
  -28.2972  -22.3092   22.3083 H   0  0  0  0  0  0
  -30.6278  -18.0197   23.5691 H   0  0  0  0  0  0
  -29.6206  -16.6283   23.8066 H   0  0  0  0  0  0
  -27.5651  -22.1962   19.9343 H   0  0  0  0  0  0
  -29.1780  -21.7228   19.4490 H   0  0  0  0  0  0
  -28.3573  -26.4531   18.0368 H   0  0  0  0  0  0
  -29.8518  -26.0575   18.8156 H   0  0  0  0  0  0
  -31.3699  -16.9532   21.3412 H   0  0  0  0  0  0
  -27.3048  -24.3783   19.0799 H   0  0  0  0  0  0
  -29.5224  -14.8205   22.1849 H   0  0  0  0  0  0
  -28.6349  -17.2369   21.5913 H   0  0  0  0  0  0
  -30.0073  -23.8094   20.0543 H   0  0  0  0  0  0
  -28.7063  -24.1985   20.9385 H   0  0  0  0  0  0
  1 25  1  0  0  0
  1 30  2  0  0  0
  1 84  1  0  0  0
  2  3  1  0  0  0
  2 25  1  0  0  0
  2 87  1  0  0  0
  2 88  1  0  0  0
  3  4  1  0  0  0
  3 89  1  0  0  0
  3 90  1  0  0  0
  4  5  1  0  0  0
  4 91  1  0  0  0
  4 92  1  0  0  0
  5  6  1  0  0  0
  5 26  1  0  0  0
  5 93  1  0  0  0
  6 25  1  0  0  0
  6 94  1  0  0  0
  6 95  1  0  0  0
  7  8  2  0  0  0
  7 26  1  0  0  0
  7 29  1  0  0  0
  8  9  1  0  0  0
  8 22  1  0  0  0
  9 10  1  0  0  0
  9 27  2  0  0  0
 10 11  2  0  0  0
 10 15  1  0  0  0
 11 12  1  0  0  0
 11 96  1  0  0  0
 12 13  2  0  0  0
 12 97  1  0  0  0
 13 14  1  0  0  0
 13 31  1  0  0  0
 14 15  2  0  0  0
 14 98  1  0  0  0
 15 99  1  0  0  0
 16 17  2  0  0  0
 16 21  1  0  0  0
 16 31  1  0  0  0
 17 18  1  0  0  0
 17100  1  0  0  0
 18 19  2  0  0  0
 18101  1  0  0  0
 19 20  1  0  0  0
 19 24  1  0  0  0
 20 21  2  0  0  0
 20102  1  0  0  0
 21 23  1  0  0  0
 22 28  1  0  0  0
 22 32  2  0  0  0
 26 27  1  0  0  0
 28103  1  0  0  0
 28104  1  0  0  0
 29105  1  0  0  0
 29106  1  0  0  0
 33 34  1  0  0  0
 33 66  1  0  0  0
 33 70  2  0  0  0
 34 36  1  0  0  0
 34 59  1  0  0  0
 34107  1  0  0  0
 35 44  2  0  0  0
 35 45  1  0  0  0
 35 68  1  0  0  0
 36 56  1  0  0  0
 36108  1  0  0  0
 37 39  1  0  0  0
 37 47  1  0  0  0
 37 66  1  0  0  0
 37109  1  0  0  0
 38 43  2  0  0  0
 38 46  1  0  0  0
 38 47  1  0  0  0
 39 64  1  0  0  0
 39 67  2  0  0  0
 40 52  1  0  0  0
 40 53  2  0  0  0
 40 58  1  0  0  0
 41110  1  0  0  0
 41111  1  0  0  0
 41112  1  0  0  0
 41 48  1  0  0  0
 42 43  1  0  0  0
 42 66  1  0  0  0
 42113  1  0  0  0
 42114  1  0  0  0
 43 44  1  0  0  0
 44115  1  0  0  0
 45 46  2  0  0  0
 45116  1  0  0  0
 46117  1  0  0  0
 47118  1  0  0  0
 47119  1  0  0  0
 48 56  1  0  0  0
 48 65  1  0  0  0
 48120  1  0  0  0
 49 50  1  0  0  0
 49 53  1  0  0  0
 49 64  1  0  0  0
 49121  1  0  0  0
 50 51  1  0  0  0
 50122  1  0  0  0
 50123  1  0  0  0
 51 52  1  0  0  0
 51124  1  0  0  0
 51125  1  0  0  0
 52126  1  0  0  0
 52127  1  0  0  0
 53 54  1  0  0  0
 54 55  2  0  0  0
 54128  1  0  0  0
 55 57  1  0  0  0
 55129  1  0  0  0
 56 69  2  0  0  0
 57 58  2  0  0  0
 57130  1  0  0  0
 58131  1  0  0  0
 59 60  1  0  0  0
 59 61  1  0  0  0
 59 62  1  0  0  0
 60132  1  0  0  0
 60133  1  0  0  0
 60134  1  0  0  0
 61135  1  0  0  0
 61136  1  0  0  0
 61137  1  0  0  0
 62138  1  0  0  0
 62139  1  0  0  0
 62140  1  0  0  0
 63 65  1  0  0  0
 63141  1  0  0  0
 63142  1  0  0  0
 63143  1  0  0  0
 64144  1  0  0  0
 65145  1  0  0  0
 68 81  1  0  0  0
 71 73  1  0  0  0
 71 85  1  0  0  0
 71146  1  0  0  0
 71147  1  0  0  0
 72 74  1  0  0  0
 72 85  1  0  0  0
 72148  1  0  0  0
 72149  1  0  0  0
 73 74  1  0  0  0
 73 75  1  0  0  0
 73150  1  0  0  0
 74 78  1  0  0  0
 74151  1  0  0  0
 75152  1  0  0  0
 75153  1  0  0  0
 75154  1  0  0  0
 76155  1  0  0  0
 76156  1  0  0  0
 76157  1  0  0  0
 76 82  1  0  0  0
 77158  1  0  0  0
 77159  1  0  0  0
 77160  1  0  0  0
 77 83  1  0  0  0
 78 80  1  0  0  0
 78161  1  0  0  0
 78162  1  0  0  0
 79 82  1  0  0  0
 79163  1  0  0  0
 79164  1  0  0  0
 79 85  1  0  0  0
 80 86  1  0  0  0
 80165  1  0  0  0
 80166  1  0  0  0
 81 83  1  0  0  0
 81167  1  0  0  0
 81168  1  0  0  0
 82 84  1  0  0  0
 82169  1  0  0  0
 83 86  1  0  0  0
 83170  1  0  0  0
 84171  1  0  0  0
 85172  1  0  0  0
 86173  1  0  0  0
 86174  1  0  0  0
M  CHG  2  85   1  86   1
M  ISO  4   1 100  68 101  81 101  84 100
M  END
> <chiral flag>
0

> <version>
0

> <s_m_source_file>
/data/baiqing/PycharmProjects/Reinvent-master-3.2/result/LINK_invent/BTK/process_docking_weight1_custom_sum_contain_oxygen_bond_distance_aromatic_linkinvent_7_9_3/rearranged_h_0145.sdf

> <i_m_source_file_index>
89

> <r_mmod_Potential_Energy-OPLS-2005>
-186.598587036133

> <r_mmod_Stretch_Energy-OPLS-2005>
36.5654830932617

> <r_mmod_Bend_Energy-OPLS-2005>
123.906028747559

> <r_mmod_Torsional_Energy-OPLS-2005>
316.468566894531

> <r_mmod_Improper_Torsional_Energy-OPLS-2005>
2.55236721038818

> <r_mmod_Van_der_Waal_Energy-OPLS-2005>
131.730758666992

> <r_mmod_Electrostatic_Energy-OPLS-2005>
79.0193939208984

> <r_mmod_Solvation_Energy-OPLS-2005>
-885.472778320312

> <b_mmod_Minimization_Converged-OPLS-2005>
0

> <r_mmod_RMS_Derivative-OPLS-2005>
0.80555123090744

$$$$
90
                    3D
 Structure written by MMmdl.
172181  0  0  1  0            999 V2000
  -30.7414  -14.5696   20.5121 C   0  0  0  0  0  0
  -30.3765  -12.3631   19.4508 C   0  0  0  0  0  0
  -29.4643  -12.4636   18.2168 C   0  0  0  0  0  0
  -27.9963  -12.2999   18.6382 C   0  0  0  0  0  0
  -27.6236  -13.2051   19.8427 C   0  0  2  0  0  0
  -28.6667  -13.0966   20.9707 C   0  0  0  0  0  0
  -25.2467  -13.8137   20.5685 C   0  0  0  0  0  0
  -24.1714  -13.0412   20.9241 C   0  0  0  0  0  0
  -24.6270  -11.6914   20.8789 C   0  0  0  0  0  0
  -23.8928  -10.4304   21.0437 C   0  0  0  0  0  0
  -24.3541   -9.4243   21.9187 C   0  0  0  0  0  0
  -23.6269   -8.2254   22.0737 C   0  0  0  0  0  0
  -22.4252   -8.0272   21.3524 C   0  0  0  0  0  0
  -21.9824   -9.0226   20.4629 C   0  0  0  0  0  0
  -22.7111  -10.2146   20.3072 C   0  0  0  0  0  0
  -21.6824   -6.0786   22.5302 C   0  0  0  0  0  0
  -21.4039   -6.5699   23.8251 C   0  0  0  0  0  0
  -21.3631   -5.6827   24.9180 C   0  0  0  0  0  0
  -21.6000   -4.3085   24.7201 C   0  0  0  0  0  0
  -21.8796   -3.8200   23.4327 C   0  0  0  0  0  0
  -21.9192   -4.7029   22.3405 C   0  0  0  0  0  0
  -22.7778  -13.5273   21.1907 C   0  0  0  0  0  0
  -22.1669   -4.2229   21.0968 F   0  0  0  0  0  0
  -21.5572   -3.4561   25.7716 F   0  0  0  0  0  0
  -29.9709  -13.4392   20.3890 N   0  0  0  0  0  0
  -26.2792  -12.9245   20.3198 N   0  0  0  0  0  0
  -25.9152  -11.6431   20.5737 N   0  0  0  0  0  0
  -22.0406  -12.8281   22.0480 N   0  0  0  0  0  0
  -25.4239  -15.1824   20.4148 N   0  0  0  0  0  0
  -31.9267  -14.4910   20.1907 O   0  0  0  0  0  0
  -21.6597   -6.8906   21.4262 O   0  0  0  0  0  0
  -22.3531  -14.5578   20.6731 O   0  0  0  0  0  0
  -24.6350  -31.8659   23.2151 C   0  0  0  0  0  0
  -25.9176  -32.4862   23.8476 C   0  0  1  0  0  0
  -27.2461  -27.3646   20.0743 C   0  0  0  0  0  0
  -25.5975  -33.8643   24.2468 N   0  0  0  0  0  0
  -23.4302  -30.5026   21.5532 C   0  0  2  0  0  0
  -24.8738  -28.9555   20.1100 C   0  0  0  0  0  0
  -22.7559  -29.4700   22.4879 C   0  0  0  0  0  0
  -18.0311  -28.1391   22.8432 C   0  0  0  0  0  0
  -24.1482  -36.7308   23.2644 C   0  0  0  0  0  0
  -25.9764  -30.7980   21.3903 C   0  0  0  0  0  0
  -26.0416  -29.4349   20.7143 C   0  0  0  0  0  0
  -27.2270  -28.6526   20.6891 C   0  0  0  0  0  0
  -26.0380  -26.8999   19.5083 C   0  0  0  0  0  0
  -24.8754  -27.6905   19.4970 C   0  0  0  0  0  0
  -23.6481  -29.8500   20.1613 C   0  0  0  0  0  0
  -25.4092  -36.3197   24.0432 C   0  0  1  0  0  0
  -20.5940  -28.3772   23.1103 C   0  0  2  0  0  0
  -20.6759  -26.9443   22.5320 C   0  0  0  0  0  0
  -19.5748  -26.6385   21.5109 C   0  0  0  0  0  0
  -18.1941  -26.7929   22.1539 C   0  0  0  0  0  0
  -19.1585  -28.8868   23.2801 C   0  0  0  0  0  0
  -18.9490  -30.1427   23.8915 C   0  0  0  0  0  0
  -17.6503  -30.6550   24.0544 C   0  0  0  0  0  0
  -25.9041  -34.9535   23.5253 C   0  0  0  0  0  0
  -16.5388  -29.9071   23.6284 C   0  0  0  0  0  0
  -16.7319  -28.6463   23.0323 C   0  0  0  0  0  0
  -26.4518  -31.6644   25.0872 C   0  0  0  0  0  0
  -25.3704  -31.3693   26.1585 C   0  0  0  0  0  0
  -27.0399  -30.3082   24.6355 C   0  0  0  0  0  0
  -27.6177  -32.4346   25.7504 C   0  0  0  0  0  0
  -27.5635  -37.1835   24.8494 C   0  0  0  0  0  0
  -21.4266  -29.3153   22.3551 N   0  0  0  0  0  0
  -26.4334  -37.3857   23.9431 N   0  0  0  0  0  0
  -24.6992  -31.0743   22.1043 N   0  0  0  0  0  0
  -23.4261  -28.8158   23.2885 O   0  0  0  0  0  0
  -28.3962  -26.5703   20.0893 O   0  0  0  0  0  0
  -26.5580  -34.8990   22.4819 O   0  0  0  0  0  0
  -23.5525  -32.1386   23.7466 O   0  0  0  0  0  0
  -28.0672  -23.2666   20.2459 C   0  0  0  0  0  0
  -30.6273  -22.2735   19.8285 C   0  0  0  0  0  0
  -28.3956  -21.9660   20.7333 C   0  0  0  0  0  0
  -30.2965  -23.5655   19.3431 C   0  0  0  0  0  0
  -29.0073  -24.1086   19.5945 C   0  0  0  0  0  0
  -29.7079  -21.4492   20.5264 C   0  0  0  0  0  0
  -29.0004  -16.3418   21.2673 C   0  0  0  0  0  0
  -29.1319  -17.8287   21.7656 C   0  0  0  0  0  0
  -30.0198  -18.1856   19.4862 C   0  0  0  0  0  0
  -30.9158  -16.9504   19.8112 C   0  0  2  0  0  0
  -27.3296  -21.1940   21.5106 C   0  0  0  0  0  0
  -31.3504  -24.3250   18.5410 C   0  0  0  0  0  0
  -32.2229  -17.4027   20.5238 C   0  0  0  0  0  0
  -30.6025  -20.2624   22.5918 C   0  0  0  0  0  0
  -28.5926  -25.5210   19.0862 C   0  0  0  0  0  0
  -30.2407  -20.1017   21.1021 C   0  0  1  0  0  0
  -30.1875  -15.8444   20.5230 N   0  0  0  0  0  0
  -29.4726  -18.8482   20.7071 N   0  3  2  0  0  0
  -31.4161  -12.4239   19.1357 H   0  0  0  0  0  0
  -30.2715  -11.3889   19.9290 H   0  0  0  0  0  0
  -29.7316  -11.6936   17.4902 H   0  0  0  0  0  0
  -29.6054  -13.4221   17.7153 H   0  0  0  0  0  0
  -27.8452  -11.2508   18.9029 H   0  0  0  0  0  0
  -27.3268  -12.4970   17.7992 H   0  0  0  0  0  0
  -27.6238  -14.2243   19.4607 H   0  0  0  0  0  0
  -28.6899  -12.0699   21.3408 H   0  0  0  0  0  0
  -28.3946  -13.7072   21.8280 H   0  0  0  0  0  0
  -25.2687   -9.5771   22.4753 H   0  0  0  0  0  0
  -24.0012   -7.4640   22.7427 H   0  0  0  0  0  0
  -21.0751   -8.8682   19.8941 H   0  0  0  0  0  0
  -22.3489  -10.9679   19.6222 H   0  0  0  0  0  0
  -21.2092   -7.6227   23.9777 H   0  0  0  0  0  0
  -21.1443   -6.0560   25.9082 H   0  0  0  0  0  0
  -22.0599   -2.7674   23.2780 H   0  0  0  0  0  0
  -22.3981  -11.9945   22.4868 H   0  0  0  0  0  0
  -21.1048  -13.1347   22.2692 H   0  0  0  0  0  0
  -24.6560  -15.8357   20.5196 H   0  0  0  0  0  0
  -26.2609  -15.6047   20.0324 H   0  0  0  0  0  0
  -26.7303  -32.5555   23.1276 H   0  0  0  0  0  0
  -25.0241  -33.9719   25.0699 H   0  0  0  0  0  0
  -22.7293  -31.3300   21.4308 H   0  0  0  0  0  0
  -23.3839  -35.9552   23.3295 H   0  0  0  0  0  0
  -24.3593  -36.8869   22.2058 H   0  0  0  0  0  0
  -23.7101  -37.6484   23.6571 H   0  0  0  0  0  0
  -26.1643  -31.5681   20.6392 H   0  0  0  0  0  0
  -26.8277  -30.8061   22.0572 H   0  0  0  0  0  0
  -28.1251  -29.0345   21.1569 H   0  0  0  0  0  0
  -25.9628  -25.9009   19.1005 H   0  0  0  0  0  0
  -23.9840  -27.3124   19.0186 H   0  0  0  0  0  0
  -23.7740  -30.6464   19.4272 H   0  0  0  0  0  0
  -22.7541  -29.3070   19.8486 H   0  0  0  0  0  0
  -25.1242  -36.2169   25.0941 H   0  0  0  0  0  0
  -21.0101  -28.3400   24.1180 H   0  0  0  0  0  0
  -20.5459  -26.2463   23.3587 H   0  0  0  0  0  0
  -21.6636  -26.7289   22.1224 H   0  0  0  0  0  0
  -19.6864  -25.6268   21.1166 H   0  0  0  0  0  0
  -19.6636  -27.3131   20.6575 H   0  0  0  0  0  0
  -17.4167  -26.6661   21.3975 H   0  0  0  0  0  0
  -18.0382  -26.0063   22.8936 H   0  0  0  0  0  0
  -19.7978  -30.7187   24.2354 H   0  0  0  0  0  0
  -17.5044  -31.6217   24.5177 H   0  0  0  0  0  0
  -15.5369  -30.2948   23.7579 H   0  0  0  0  0  0
  -15.8730  -28.0747   22.7059 H   0  0  0  0  0  0
  -24.5884  -30.7107   25.7799 H   0  0  0  0  0  0
  -24.8885  -32.2785   26.5169 H   0  0  0  0  0  0
  -25.7956  -30.8696   27.0289 H   0  0  0  0  0  0
  -26.2987  -29.6789   24.1456 H   0  0  0  0  0  0
  -27.4161  -29.7439   25.4887 H   0  0  0  0  0  0
  -27.8825  -30.4410   23.9580 H   0  0  0  0  0  0
  -27.2944  -33.3649   26.2153 H   0  0  0  0  0  0
  -28.3809  -32.6893   25.0148 H   0  0  0  0  0  0
  -28.1066  -31.8459   26.5268 H   0  0  0  0  0  0
  -28.2748  -38.0077   24.7623 H   0  0  0  0  0  0
  -28.1085  -36.2655   24.6243 H   0  0  0  0  0  0
  -27.2388  -37.1383   25.8913 H   0  0  0  0  0  0
  -20.9474  -29.9027   21.6861 H   0  0  0  0  0  0
  -26.0335  -38.3018   24.1299 H   0  0  0  0  0  0
  -27.0591  -23.6277   20.3749 H   0  0  0  0  0  0
  -31.6330  -21.9066   19.6787 H   0  0  0  0  0  0
  -28.1339  -16.2628   20.6098 H   0  0  0  0  0  0
  -28.7877  -15.7280   22.1410 H   0  0  0  0  0  0
  -29.8956  -17.7910   22.5358 H   0  0  0  0  0  0
  -28.2095  -18.1280   22.2788 H   0  0  0  0  0  0
  -29.1756  -17.8647   18.8739 H   0  0  0  0  0  0
  -30.5471  -18.9080   18.8563 H   0  0  0  0  0  0
  -31.1958  -16.5425   18.8350 H   0  0  0  0  0  0
  -27.7467  -20.4736   22.2091 H   0  0  0  0  0  0
  -26.6371  -20.6605   20.8537 H   0  0  0  0  0  0
  -26.7226  -21.8779   22.1072 H   0  0  0  0  0  0
  -31.5626  -25.3076   18.9610 H   0  0  0  0  0  0
  -31.0285  -24.4659   17.5045 H   0  0  0  0  0  0
  -32.2947  -23.7782   18.5042 H   0  0  0  0  0  0
  -32.9615  -16.6018   20.6484 H   0  0  0  0  0  0
  -32.7275  -18.1896   19.9572 H   0  0  0  0  0  0
  -32.0361  -17.8038   21.5176 H   0  0  0  0  0  0
  -31.2375  -21.1430   22.7294 H   0  0  0  0  0  0
  -31.1954  -19.4224   22.9527 H   0  0  0  0  0  0
  -29.7353  -20.3898   23.2376 H   0  0  0  0  0  0
  -29.3929  -25.9206   18.4695 H   0  0  0  0  0  0
  -27.8020  -25.3715   18.3548 H   0  0  0  0  0  0
  -31.2260  -19.9869   20.6440 H   0  0  0  0  0  0
  -28.5901  -19.2286   20.4009 H   0  0  0  0  0  0
  1 25  1  0  0  0
  1 30  2  0  0  0
  1 87  1  0  0  0
  2  3  1  0  0  0
  2 25  1  0  0  0
  2 89  1  0  0  0
  2 90  1  0  0  0
  3  4  1  0  0  0
  3 91  1  0  0  0
  3 92  1  0  0  0
  4  5  1  0  0  0
  4 93  1  0  0  0
  4 94  1  0  0  0
  5  6  1  0  0  0
  5 26  1  0  0  0
  5 95  1  0  0  0
  6 25  1  0  0  0
  6 96  1  0  0  0
  6 97  1  0  0  0
  7  8  2  0  0  0
  7 26  1  0  0  0
  7 29  1  0  0  0
  8  9  1  0  0  0
  8 22  1  0  0  0
  9 10  1  0  0  0
  9 27  2  0  0  0
 10 11  2  0  0  0
 10 15  1  0  0  0
 11 12  1  0  0  0
 11 98  1  0  0  0
 12 13  2  0  0  0
 12 99  1  0  0  0
 13 14  1  0  0  0
 13 31  1  0  0  0
 14 15  2  0  0  0
 14100  1  0  0  0
 15101  1  0  0  0
 16 17  2  0  0  0
 16 21  1  0  0  0
 16 31  1  0  0  0
 17 18  1  0  0  0
 17102  1  0  0  0
 18 19  2  0  0  0
 18103  1  0  0  0
 19 20  1  0  0  0
 19 24  1  0  0  0
 20 21  2  0  0  0
 20104  1  0  0  0
 21 23  1  0  0  0
 22 28  1  0  0  0
 22 32  2  0  0  0
 26 27  1  0  0  0
 28105  1  0  0  0
 28106  1  0  0  0
 29107  1  0  0  0
 29108  1  0  0  0
 33 34  1  0  0  0
 33 66  1  0  0  0
 33 70  2  0  0  0
 34 36  1  0  0  0
 34 59  1  0  0  0
 34109  1  0  0  0
 35 44  2  0  0  0
 35 45  1  0  0  0
 35 68  1  0  0  0
 36 56  1  0  0  0
 36110  1  0  0  0
 37 39  1  0  0  0
 37 47  1  0  0  0
 37 66  1  0  0  0
 37111  1  0  0  0
 38 43  2  0  0  0
 38 46  1  0  0  0
 38 47  1  0  0  0
 39 64  1  0  0  0
 39 67  2  0  0  0
 40 52  1  0  0  0
 40 53  2  0  0  0
 40 58  1  0  0  0
 41112  1  0  0  0
 41113  1  0  0  0
 41114  1  0  0  0
 41 48  1  0  0  0
 42 43  1  0  0  0
 42 66  1  0  0  0
 42115  1  0  0  0
 42116  1  0  0  0
 43 44  1  0  0  0
 44117  1  0  0  0
 45 46  2  0  0  0
 45118  1  0  0  0
 46119  1  0  0  0
 47120  1  0  0  0
 47121  1  0  0  0
 48 56  1  0  0  0
 48 65  1  0  0  0
 48122  1  0  0  0
 49 50  1  0  0  0
 49 53  1  0  0  0
 49 64  1  0  0  0
 49123  1  0  0  0
 50 51  1  0  0  0
 50124  1  0  0  0
 50125  1  0  0  0
 51 52  1  0  0  0
 51126  1  0  0  0
 51127  1  0  0  0
 52128  1  0  0  0
 52129  1  0  0  0
 53 54  1  0  0  0
 54 55  2  0  0  0
 54130  1  0  0  0
 55 57  1  0  0  0
 55131  1  0  0  0
 56 69  2  0  0  0
 57 58  2  0  0  0
 57132  1  0  0  0
 58133  1  0  0  0
 59 60  1  0  0  0
 59 61  1  0  0  0
 59 62  1  0  0  0
 60134  1  0  0  0
 60135  1  0  0  0
 60136  1  0  0  0
 61137  1  0  0  0
 61138  1  0  0  0
 61139  1  0  0  0
 62140  1  0  0  0
 62141  1  0  0  0
 62142  1  0  0  0
 63 65  1  0  0  0
 63143  1  0  0  0
 63144  1  0  0  0
 63145  1  0  0  0
 64146  1  0  0  0
 65147  1  0  0  0
 68 85  1  0  0  0
 71 73  2  0  0  0
 71 75  1  0  0  0
 71148  1  0  0  0
 72 74  1  0  0  0
 72 76  2  0  0  0
 72149  1  0  0  0
 73 76  1  0  0  0
 73 81  1  0  0  0
 74 75  2  0  0  0
 74 82  1  0  0  0
 75 85  1  0  0  0
 76 86  1  0  0  0
 77 78  1  0  0  0
 77 87  1  0  0  0
 77150  1  0  0  0
 77151  1  0  0  0
 78152  1  0  0  0
 78153  1  0  0  0
 78 88  1  0  0  0
 79 80  1  0  0  0
 79 88  1  0  0  0
 79154  1  0  0  0
 79155  1  0  0  0
 80 83  1  0  0  0
 80 87  1  0  0  0
 80156  1  0  0  0
 81157  1  0  0  0
 81158  1  0  0  0
 81159  1  0  0  0
 82160  1  0  0  0
 82161  1  0  0  0
 82162  1  0  0  0
 83163  1  0  0  0
 83164  1  0  0  0
 83165  1  0  0  0
 84166  1  0  0  0
 84167  1  0  0  0
 84168  1  0  0  0
 84 86  1  0  0  0
 85169  1  0  0  0
 85170  1  0  0  0
 86 88  1  0  0  0
 86171  1  0  0  0
 88172  1  0  0  0
M  CHG  1  88   1
M  ISO  4   1 100  68 101  85 101  87 100
M  END
> <chiral flag>
0

> <version>
0

> <s_m_source_file>
/data/baiqing/PycharmProjects/Reinvent-master-3.2/result/LINK_invent/BTK/process_docking_weight1_custom_sum_contain_oxygen_bond_distance_aromatic_linkinvent_7_9_3/rearranged_h_0145.sdf

> <i_m_source_file_index>
90

> <r_mmod_Potential_Energy-OPLS-2005>
263.823577880859

> <r_mmod_Stretch_Energy-OPLS-2005>
76.8383712768555

> <r_mmod_Bend_Energy-OPLS-2005>
174.131225585938

> <r_mmod_Torsional_Energy-OPLS-2005>
399.951446533203

> <r_mmod_Improper_Torsional_Energy-OPLS-2005>
15.1212854385376

> <r_mmod_Van_der_Waal_Energy-OPLS-2005>
178.297821044922

> <r_mmod_Electrostatic_Energy-OPLS-2005>
-202.691589355469

> <r_mmod_Solvation_Energy-OPLS-2005>
-421.661956787109

> <b_mmod_Minimization_Converged-OPLS-2005>
0

> <r_mmod_RMS_Derivative-OPLS-2005>
9.6210470199585

$$$$
91
                    3D
 Structure written by MMmdl.
171179  0  0  1  0            999 V2000
  -30.7289  -14.4382   20.5995 C   0  0  0  0  0  0
  -30.4198  -12.2983   19.4110 C   0  0  0  0  0  0
  -29.4904  -12.5014   18.1985 C   0  0  0  0  0  0
  -28.0128  -12.3633   18.6149 C   0  0  0  0  0  0
  -27.6616  -13.2040   19.8709 C   0  0  2  0  0  0
  -28.7042  -12.9775   20.9890 C   0  0  0  0  0  0
  -25.2590  -13.8160   20.5671 C   0  0  0  0  0  0
  -24.1835  -13.0451   20.9166 C   0  0  0  0  0  0
  -24.6367  -11.6899   20.8714 C   0  0  0  0  0  0
  -23.9025  -10.4284   21.0374 C   0  0  0  0  0  0
  -24.3595   -9.4210   21.9167 C   0  0  0  0  0  0
  -23.6281   -8.2246   22.0748 C   0  0  0  0  0  0
  -22.4263   -8.0275   21.3544 C   0  0  0  0  0  0
  -21.9876   -9.0233   20.4646 C   0  0  0  0  0  0
  -22.7186  -10.2122   20.3037 C   0  0  0  0  0  0
  -21.6855   -6.0702   22.5263 C   0  0  0  0  0  0
  -21.4009   -6.5613   23.8188 C   0  0  0  0  0  0
  -21.3670   -5.6776   24.9162 C   0  0  0  0  0  0
  -21.6050   -4.3037   24.7223 C   0  0  0  0  0  0
  -21.8821   -3.8115   23.4344 C   0  0  0  0  0  0
  -21.9205   -4.6921   22.3399 C   0  0  0  0  0  0
  -22.7859  -13.5241   21.1836 C   0  0  0  0  0  0
  -22.1675   -4.2102   21.0971 F   0  0  0  0  0  0
  -21.5646   -3.4527   25.7740 F   0  0  0  0  0  0
  -30.0377  -13.2773   20.4388 N   0  0  0  0  0  0
  -26.3018  -12.9318   20.3359 N   0  0  0  0  0  0
  -25.9298  -11.6480   20.5741 N   0  0  0  0  0  0
  -22.0513  -12.8237   22.0412 N   0  0  0  0  0  0
  -25.4346  -15.1882   20.4053 N   0  0  0  0  0  0
  -31.8299  -14.6435   20.0811 O   0  0  0  0  0  0
  -21.6651   -6.8849   21.4222 O   0  0  0  0  0  0
  -22.3529  -14.5537   20.6672 O   0  0  0  0  0  0
  -24.6159  -31.8706   23.2130 C   0  0  0  0  0  0
  -25.9059  -32.4836   23.8422 C   0  0  1  0  0  0
  -27.2286  -27.4259   20.0726 C   0  0  0  0  0  0
  -25.5909  -33.8637   24.2335 N   0  0  0  0  0  0
  -23.4021  -30.4975   21.5551 C   0  0  2  0  0  0
  -24.8455  -28.9719   20.1171 C   0  0  0  0  0  0
  -22.7420  -29.4667   22.5003 C   0  0  0  0  0  0
  -18.0277  -28.1378   22.8482 C   0  0  0  0  0  0
  -24.1491  -36.7327   23.2634 C   0  0  0  0  0  0
  -25.9366  -30.8298   21.3704 C   0  0  0  0  0  0
  -26.0119  -29.4664   20.7132 C   0  0  0  0  0  0
  -27.2052  -28.7012   20.6914 C   0  0  0  0  0  0
  -26.0281  -26.9586   19.4767 C   0  0  0  0  0  0
  -24.8478  -27.7153   19.5019 C   0  0  0  0  0  0
  -23.6110  -29.8404   20.1681 C   0  0  0  0  0  0
  -25.4108  -36.3114   24.0327 C   0  0  1  0  0  0
  -20.5863  -28.3656   23.1328 C   0  0  2  0  0  0
  -20.6766  -26.9396   22.5423 C   0  0  0  0  0  0
  -19.5748  -26.6378   21.5216 C   0  0  0  0  0  0
  -18.1922  -26.7920   22.1626 C   0  0  0  0  0  0
  -19.1525  -28.8832   23.2895 C   0  0  0  0  0  0
  -18.9455  -30.1438   23.8907 C   0  0  0  0  0  0
  -17.6458  -30.6580   24.0561 C   0  0  0  0  0  0
  -25.9034  -34.9485   23.5121 C   0  0  0  0  0  0
  -16.5345  -29.9081   23.6335 C   0  0  0  0  0  0
  -16.7263  -28.6507   23.0334 C   0  0  0  0  0  0
  -26.4468  -31.6613   25.0752 C   0  0  0  0  0  0
  -25.3732  -31.3723   26.1499 C   0  0  0  0  0  0
  -27.0283  -30.3052   24.6124 C   0  0  0  0  0  0
  -27.6050  -32.4320   25.7517 C   0  0  0  0  0  0
  -27.5579  -37.1820   24.8459 C   0  0  0  0  0  0
  -21.4143  -29.3029   22.3744 N   0  0  0  0  0  0
  -26.4296  -37.3798   23.9400 N   0  0  0  0  0  0
  -24.6700  -31.0804   22.1038 N   0  0  0  0  0  0
  -23.4205  -28.8187   23.3020 O   0  0  0  0  0  0
  -28.3962  -26.6706   20.0650 O   0  0  0  0  0  0
  -26.5595  -34.8931   22.4681 O   0  0  0  0  0  0
  -23.5351  -32.1457   23.7529 O   0  0  0  0  0  0
  -30.1314  -20.8670   20.0426 C   0  0  0  0  0  0
  -30.0896  -21.8916   19.0465 C   0  0  0  0  0  0
  -31.0373  -21.5704   18.0917 C   0  0  0  0  0  0
  -31.0696  -19.9604   19.6554 C   0  0  0  0  0  0
  -31.4528  -23.7338   16.7799 C   0  0  0  0  0  0
  -30.3830  -21.7199   15.6677 C   0  0  0  0  0  0
  -29.9248  -17.3401   22.7956 C   0  0  0  0  0  0
  -32.7346  -19.6872   17.7777 C   0  0  0  0  0  0
  -29.0748  -23.0191   19.0214 C   0  0  0  0  0  0
  -29.4734  -24.3754   19.6664 C   0  0  0  0  0  0
  -30.4210  -17.6923   20.3278 C   0  0  0  0  0  0
  -28.2658  -25.3286   19.5606 C   0  0  0  0  0  0
  -31.3600  -22.2010   16.7541 C   0  0  0  0  0  0
  -30.6033  -16.7538   21.5478 C   0  0  2  0  0  0
  -31.6700  -20.3873   18.4886 N   0  0  0  0  0  0
  -31.3931  -18.7838   20.3326 N   0  0  0  0  0  0
  -30.0967  -15.3999   21.2905 N   0  0  0  0  0  0
  -31.4652  -12.3926   19.1108 H   0  0  0  0  0  0
  -30.3136  -11.2858   19.8057 H   0  0  0  0  0  0
  -29.7239  -11.7716   17.4215 H   0  0  0  0  0  0
  -29.6643  -13.4856   17.7601 H   0  0  0  0  0  0
  -27.8292  -11.3077   18.8163 H   0  0  0  0  0  0
  -27.3569  -12.6316   17.7843 H   0  0  0  0  0  0
  -27.7073  -14.2512   19.5710 H   0  0  0  0  0  0
  -28.6756  -11.9378   21.3200 H   0  0  0  0  0  0
  -28.4639  -13.5666   21.8757 H   0  0  0  0  0  0
  -25.2758   -9.5702   22.4723 H   0  0  0  0  0  0
  -24.0004   -7.4628   22.7458 H   0  0  0  0  0  0
  -21.0814   -8.8729   19.8943 H   0  0  0  0  0  0
  -22.3639  -10.9654   19.6136 H   0  0  0  0  0  0
  -21.1990   -7.6117   23.9678 H   0  0  0  0  0  0
  -21.1505   -6.0511   25.9067 H   0  0  0  0  0  0
  -22.0600   -2.7567   23.2867 H   0  0  0  0  0  0
  -22.4147  -11.9917   22.4843 H   0  0  0  0  0  0
  -21.1110  -13.1231   22.2576 H   0  0  0  0  0  0
  -24.6717  -15.8497   20.5027 H   0  0  0  0  0  0
  -26.2921  -15.6214   20.0868 H   0  0  0  0  0  0
  -26.7124  -32.5547   23.1184 H   0  0  0  0  0  0
  -25.0063  -33.9804   25.0478 H   0  0  0  0  0  0
  -22.6885  -31.3137   21.4201 H   0  0  0  0  0  0
  -23.3747  -35.9670   23.3313 H   0  0  0  0  0  0
  -24.3574  -36.8933   22.2047 H   0  0  0  0  0  0
  -23.7268  -37.6541   23.6644 H   0  0  0  0  0  0
  -26.0522  -31.5986   20.6048 H   0  0  0  0  0  0
  -26.8246  -30.8814   21.9888 H   0  0  0  0  0  0
  -28.1060  -29.0799   21.1535 H   0  0  0  0  0  0
  -25.9566  -26.0060   18.9752 H   0  0  0  0  0  0
  -23.9512  -27.3273   19.0400 H   0  0  0  0  0  0
  -23.7254  -30.6202   19.4148 H   0  0  0  0  0  0
  -22.7335  -29.2658   19.8650 H   0  0  0  0  0  0
  -25.1288  -36.1972   25.0820 H   0  0  0  0  0  0
  -20.9945  -28.3213   24.1451 H   0  0  0  0  0  0
  -20.5677  -26.2256   23.3595 H   0  0  0  0  0  0
  -21.6632  -26.7437   22.1205 H   0  0  0  0  0  0
  -19.6909  -25.6290   21.1234 H   0  0  0  0  0  0
  -19.6702  -27.3195   20.6749 H   0  0  0  0  0  0
  -17.4189  -26.6660   21.4025 H   0  0  0  0  0  0
  -18.0333  -26.0057   22.9025 H   0  0  0  0  0  0
  -19.7923  -30.7245   24.2287 H   0  0  0  0  0  0
  -17.5011  -31.6263   24.5149 H   0  0  0  0  0  0
  -15.5348  -30.2987   23.7646 H   0  0  0  0  0  0
  -15.8659  -28.0834   22.7037 H   0  0  0  0  0  0
  -24.5912  -30.7049   25.7845 H   0  0  0  0  0  0
  -24.8918  -32.2884   26.4939 H   0  0  0  0  0  0
  -25.8096  -30.8909   27.0264 H   0  0  0  0  0  0
  -26.2821  -29.6846   24.1143 H   0  0  0  0  0  0
  -27.4008  -29.7253   25.4579 H   0  0  0  0  0  0
  -27.8683  -30.4366   23.9298 H   0  0  0  0  0  0
  -27.2672  -33.3613   26.2118 H   0  0  0  0  0  0
  -28.3859  -32.6890   25.0344 H   0  0  0  0  0  0
  -28.0714  -31.8426   26.5421 H   0  0  0  0  0  0
  -28.2597  -38.0116   24.7490 H   0  0  0  0  0  0
  -28.1073  -36.2644   24.6296 H   0  0  0  0  0  0
  -27.2295  -37.1481   25.8863 H   0  0  0  0  0  0
  -20.9295  -29.8797   21.7008 H   0  0  0  0  0  0
  -26.0185  -38.2875   24.1402 H   0  0  0  0  0  0
  -29.5063  -20.7864   20.9209 H   0  0  0  0  0  0
  -32.1308  -24.0717   17.5631 H   0  0  0  0  0  0
  -30.4863  -24.2095   16.9334 H   0  0  0  0  0  0
  -31.8413  -24.1101   15.8334 H   0  0  0  0  0  0
  -30.4330  -20.6381   15.5431 H   0  0  0  0  0  0
  -30.6097  -22.1680   14.7009 H   0  0  0  0  0  0
  -29.3508  -21.9712   15.9173 H   0  0  0  0  0  0
  -30.2745  -18.3561   22.9827 H   0  0  0  0  0  0
  -30.1526  -16.7530   23.6858 H   0  0  0  0  0  0
  -28.8404  -17.3847   22.6817 H   0  0  0  0  0  0
  -33.5173  -20.3839   17.4798 H   0  0  0  0  0  0
  -32.3268  -19.1983   16.8931 H   0  0  0  0  0  0
  -33.1963  -18.9308   18.4097 H   0  0  0  0  0  0
  -28.1814  -22.6480   19.5247 H   0  0  0  0  0  0
  -28.7663  -23.1739   17.9877 H   0  0  0  0  0  0
  -30.3401  -24.8103   19.1716 H   0  0  0  0  0  0
  -29.7433  -24.2303   20.7127 H   0  0  0  0  0  0
  -29.3992  -18.0712   20.2781 H   0  0  0  0  0  0
  -30.5816  -17.1350   19.4022 H   0  0  0  0  0  0
  -27.4468  -24.8383   20.0914 H   0  0  0  0  0  0
  -27.9934  -25.3874   18.5058 H   0  0  0  0  0  0
  -32.3482  -21.8800   16.4292 H   0  0  0  0  0  0
  -31.6707  -16.6601   21.7583 H   0  0  0  0  0  0
  -32.3088  -18.4393   20.0602 H   0  0  0  0  0  0
  -29.1850  -15.1655   21.6548 H   0  0  0  0  0  0
  1 25  1  0  0  0
  1 30  2  0  0  0
  1 87  1  0  0  0
  2  3  1  0  0  0
  2 25  1  0  0  0
  2 88  1  0  0  0
  2 89  1  0  0  0
  3  4  1  0  0  0
  3 90  1  0  0  0
  3 91  1  0  0  0
  4  5  1  0  0  0
  4 92  1  0  0  0
  4 93  1  0  0  0
  5  6  1  0  0  0
  5 26  1  0  0  0
  5 94  1  0  0  0
  6 25  1  0  0  0
  6 95  1  0  0  0
  6 96  1  0  0  0
  7  8  2  0  0  0
  7 26  1  0  0  0
  7 29  1  0  0  0
  8  9  1  0  0  0
  8 22  1  0  0  0
  9 10  1  0  0  0
  9 27  2  0  0  0
 10 11  2  0  0  0
 10 15  1  0  0  0
 11 12  1  0  0  0
 11 97  1  0  0  0
 12 13  2  0  0  0
 12 98  1  0  0  0
 13 14  1  0  0  0
 13 31  1  0  0  0
 14 15  2  0  0  0
 14 99  1  0  0  0
 15100  1  0  0  0
 16 17  2  0  0  0
 16 21  1  0  0  0
 16 31  1  0  0  0
 17 18  1  0  0  0
 17101  1  0  0  0
 18 19  2  0  0  0
 18102  1  0  0  0
 19 20  1  0  0  0
 19 24  1  0  0  0
 20 21  2  0  0  0
 20103  1  0  0  0
 21 23  1  0  0  0
 22 28  1  0  0  0
 22 32  2  0  0  0
 26 27  1  0  0  0
 28104  1  0  0  0
 28105  1  0  0  0
 29106  1  0  0  0
 29107  1  0  0  0
 33 34  1  0  0  0
 33 66  1  0  0  0
 33 70  2  0  0  0
 34 36  1  0  0  0
 34 59  1  0  0  0
 34108  1  0  0  0
 35 44  2  0  0  0
 35 45  1  0  0  0
 35 68  1  0  0  0
 36 56  1  0  0  0
 36109  1  0  0  0
 37 39  1  0  0  0
 37 47  1  0  0  0
 37 66  1  0  0  0
 37110  1  0  0  0
 38 43  2  0  0  0
 38 46  1  0  0  0
 38 47  1  0  0  0
 39 64  1  0  0  0
 39 67  2  0  0  0
 40 52  1  0  0  0
 40 53  2  0  0  0
 40 58  1  0  0  0
 41111  1  0  0  0
 41112  1  0  0  0
 41113  1  0  0  0
 41 48  1  0  0  0
 42 43  1  0  0  0
 42 66  1  0  0  0
 42114  1  0  0  0
 42115  1  0  0  0
 43 44  1  0  0  0
 44116  1  0  0  0
 45 46  2  0  0  0
 45117  1  0  0  0
 46118  1  0  0  0
 47119  1  0  0  0
 47120  1  0  0  0
 48 56  1  0  0  0
 48 65  1  0  0  0
 48121  1  0  0  0
 49 50  1  0  0  0
 49 53  1  0  0  0
 49 64  1  0  0  0
 49122  1  0  0  0
 50 51  1  0  0  0
 50123  1  0  0  0
 50124  1  0  0  0
 51 52  1  0  0  0
 51125  1  0  0  0
 51126  1  0  0  0
 52127  1  0  0  0
 52128  1  0  0  0
 53 54  1  0  0  0
 54 55  2  0  0  0
 54129  1  0  0  0
 55 57  1  0  0  0
 55130  1  0  0  0
 56 69  2  0  0  0
 57 58  2  0  0  0
 57131  1  0  0  0
 58132  1  0  0  0
 59 60  1  0  0  0
 59 61  1  0  0  0
 59 62  1  0  0  0
 60133  1  0  0  0
 60134  1  0  0  0
 60135  1  0  0  0
 61136  1  0  0  0
 61137  1  0  0  0
 61138  1  0  0  0
 62139  1  0  0  0
 62140  1  0  0  0
 62141  1  0  0  0
 63 65  1  0  0  0
 63142  1  0  0  0
 63143  1  0  0  0
 63144  1  0  0  0
 64145  1  0  0  0
 65146  1  0  0  0
 68 82  1  0  0  0
 71 72  1  0  0  0
 71 74  2  0  0  0
 71147  1  0  0  0
 72 73  2  0  0  0
 72 79  1  0  0  0
 73 83  1  0  0  0
 73 85  1  0  0  0
 74 85  1  0  0  0
 74 86  1  0  0  0
 75148  1  0  0  0
 75149  1  0  0  0
 75150  1  0  0  0
 75 83  1  0  0  0
 76 83  1  0  0  0
 76151  1  0  0  0
 76152  1  0  0  0
 76153  1  0  0  0
 77154  1  0  0  0
 77155  1  0  0  0
 77156  1  0  0  0
 77 84  1  0  0  0
 78 85  1  0  0  0
 78157  1  0  0  0
 78158  1  0  0  0
 78159  1  0  0  0
 79 80  1  0  0  0
 79160  1  0  0  0
 79161  1  0  0  0
 80 82  1  0  0  0
 80162  1  0  0  0
 80163  1  0  0  0
 81 84  1  0  0  0
 81 86  1  0  0  0
 81164  1  0  0  0
 81165  1  0  0  0
 82166  1  0  0  0
 82167  1  0  0  0
 83168  1  0  0  0
 84 87  1  0  0  0
 84169  1  0  0  0
 86170  1  0  0  0
 87171  1  0  0  0
M  ISO  4   1 100  68 101  82 101  87 100
M  END
> <chiral flag>
0

> <version>
0

> <s_m_source_file>
/data/baiqing/PycharmProjects/Reinvent-master-3.2/result/LINK_invent/BTK/process_docking_weight1_custom_sum_contain_oxygen_bond_distance_aromatic_linkinvent_7_9_3/rearranged_h_0145.sdf

> <i_m_source_file_index>
91

> <r_mmod_Potential_Energy-OPLS-2005>
-195.83708190918

> <r_mmod_Stretch_Energy-OPLS-2005>
37.9579544067383

> <r_mmod_Bend_Energy-OPLS-2005>
113.594718933105

> <r_mmod_Torsional_Energy-OPLS-2005>
218.905090332031

> <r_mmod_Improper_Torsional_Energy-OPLS-2005>
8.12100219726562

> <r_mmod_Van_der_Waal_Energy-OPLS-2005>
139.031219482422

> <r_mmod_Electrostatic_Energy-OPLS-2005>
-513.674438476562

> <r_mmod_Solvation_Energy-OPLS-2005>
-211.556701660156

> <b_mmod_Minimization_Converged-OPLS-2005>
0

> <r_mmod_RMS_Derivative-OPLS-2005>
2.49422287940979

$$$$
92
                    3D
 Structure written by MMmdl.
165173  0  0  1  0            999 V2000
  -30.6817  -14.4850   20.5756 C   0  0  0  0  0  0
  -30.4287  -12.3131   19.4231 C   0  0  0  0  0  0
  -29.4966  -12.5089   18.2083 C   0  0  0  0  0  0
  -28.0172  -12.3672   18.6192 C   0  0  0  0  0  0
  -27.6632  -13.2035   19.8776 C   0  0  2  0  0  0
  -28.7038  -12.9721   20.9968 C   0  0  0  0  0  0
  -25.2599  -13.8155   20.5683 C   0  0  0  0  0  0
  -24.1844  -13.0438   20.9173 C   0  0  0  0  0  0
  -24.6390  -11.6903   20.8733 C   0  0  0  0  0  0
  -23.9054  -10.4292   21.0405 C   0  0  0  0  0  0
  -24.3609   -9.4208   21.9183 C   0  0  0  0  0  0
  -23.6288   -8.2243   22.0753 C   0  0  0  0  0  0
  -22.4271   -8.0281   21.3544 C   0  0  0  0  0  0
  -21.9904   -9.0252   20.4645 C   0  0  0  0  0  0
  -22.7229  -10.2133   20.3053 C   0  0  0  0  0  0
  -21.6851   -6.0736   22.5279 C   0  0  0  0  0  0
  -21.4012   -6.5639   23.8214 C   0  0  0  0  0  0
  -21.3659   -5.6793   24.9176 C   0  0  0  0  0  0
  -21.6045   -4.3056   24.7227 C   0  0  0  0  0  0
  -21.8820   -3.8148   23.4347 C   0  0  0  0  0  0
  -21.9192   -4.6963   22.3404 C   0  0  0  0  0  0
  -22.7867  -13.5240   21.1842 C   0  0  0  0  0  0
  -22.1661   -4.2150   21.0981 F   0  0  0  0  0  0
  -21.5630   -3.4539   25.7738 F   0  0  0  0  0  0
  -30.0364  -13.2902   20.4519 N   0  0  0  0  0  0
  -26.3030  -12.9316   20.3370 N   0  0  0  0  0  0
  -25.9316  -11.6480   20.5762 N   0  0  0  0  0  0
  -22.0505  -12.8231   22.0396 N   0  0  0  0  0  0
  -25.4337  -15.1875   20.4101 N   0  0  0  0  0  0
  -31.8085  -14.6710   20.1011 O   0  0  0  0  0  0
  -21.6636   -6.8878   21.4241 O   0  0  0  0  0  0
  -22.3555  -14.5549   20.6696 O   0  0  0  0  0  0
  -24.6154  -31.8677   23.2103 C   0  0  0  0  0  0
  -25.9047  -32.4819   23.8397 C   0  0  1  0  0  0
  -27.2346  -27.4214   20.0846 C   0  0  0  0  0  0
  -25.5904  -33.8619   24.2329 N   0  0  0  0  0  0
  -23.4032  -30.4922   21.5512 C   0  0  2  0  0  0
  -24.8480  -28.9575   20.1153 C   0  0  0  0  0  0
  -22.7412  -29.4660   22.4989 C   0  0  0  0  0  0
  -18.0271  -28.1375   22.8495 C   0  0  0  0  0  0
  -24.1487  -36.7310   23.2638 C   0  0  0  0  0  0
  -25.9343  -30.8257   21.3680 C   0  0  0  0  0  0
  -26.0086  -29.4587   20.7162 C   0  0  0  0  0  0
  -27.1994  -28.6938   20.7067 C   0  0  0  0  0  0
  -26.0477  -26.9380   19.4879 C   0  0  0  0  0  0
  -24.8620  -27.6943   19.5028 C   0  0  0  0  0  0
  -23.6115  -29.8262   20.1655 C   0  0  0  0  0  0
  -25.4109  -36.3109   24.0338 C   0  0  1  0  0  0
  -20.5863  -28.3663   23.1318 C   0  0  2  0  0  0
  -20.6761  -26.9399   22.5418 C   0  0  0  0  0  0
  -19.5741  -26.6384   21.5212 C   0  0  0  0  0  0
  -18.1918  -26.7922   22.1623 C   0  0  0  0  0  0
  -19.1522  -28.8835   23.2903 C   0  0  0  0  0  0
  -18.9449  -30.1441   23.8913 C   0  0  0  0  0  0
  -17.6453  -30.6585   24.0564 C   0  0  0  0  0  0
  -25.9038  -34.9475   23.5130 C   0  0  0  0  0  0
  -16.5343  -29.9088   23.6325 C   0  0  0  0  0  0
  -16.7261  -28.6501   23.0351 C   0  0  0  0  0  0
  -26.4474  -31.6598   25.0727 C   0  0  0  0  0  0
  -25.3738  -31.3694   26.1472 C   0  0  0  0  0  0
  -27.0312  -30.3043   24.6106 C   0  0  0  0  0  0
  -27.6051  -32.4318   25.7488 C   0  0  0  0  0  0
  -27.5581  -37.1809   24.8466 C   0  0  0  0  0  0
  -21.4139  -29.3033   22.3727 N   0  0  0  0  0  0
  -26.4294  -37.3795   23.9409 N   0  0  0  0  0  0
  -24.6692  -31.0768   22.1011 N   0  0  0  0  0  0
  -23.4182  -28.8202   23.3034 O   0  0  0  0  0  0
  -28.4140  -26.6949   20.1001 O   0  0  0  0  0  0
  -26.5600  -34.8926   22.4692 O   0  0  0  0  0  0
  -23.5345  -32.1441   23.7490 O   0  0  0  0  0  0
  -28.9933  -17.5978   21.6941 C   0  0  0  0  0  0
  -28.9604  -19.0108   21.6583 C   0  0  0  0  0  0
  -29.9997  -19.7112   20.9826 C   0  0  0  0  0  0
  -31.0145  -18.9032   20.3970 C   0  0  0  0  0  0
  -30.0368  -16.8765   21.0820 C   0  0  0  0  0  0
  -27.8035  -19.7042   22.3578 C   0  0  0  0  0  0
  -32.2133  -19.4894   19.6702 C   0  0  0  0  0  0
  -30.6946  -21.8460   22.2034 C   0  0  0  0  0  0
  -27.3403  -23.5387   18.4012 C   0  0  0  0  0  0
  -28.8186  -22.0354   20.4676 C   0  0  0  0  0  0
  -28.6064  -25.6124   19.1689 C   0  0  0  0  0  0
  -30.0944  -21.2653   20.9127 C   0  0  2  0  0  0
  -28.0634  -24.2075   19.5908 C   0  0  2  0  0  0
  -31.0206  -17.5501   20.4468 N   0  0  0  0  0  0
  -29.9523  -15.4529   21.1734 N   0  0  0  0  0  0
  -29.1508  -23.3657   20.0258 O   0  0  0  0  0  0
  -31.4716  -12.4208   19.1196 H   0  0  0  0  0  0
  -30.3384  -11.2996   19.8165 H   0  0  0  0  0  0
  -29.7373  -11.7850   17.4286 H   0  0  0  0  0  0
  -29.6626  -13.4949   17.7714 H   0  0  0  0  0  0
  -27.8275  -11.3106   18.8122 H   0  0  0  0  0  0
  -27.3669  -12.6441   17.7886 H   0  0  0  0  0  0
  -27.7100  -14.2528   19.5855 H   0  0  0  0  0  0
  -28.6834  -11.9301   21.3197 H   0  0  0  0  0  0
  -28.4572  -13.5502   21.8881 H   0  0  0  0  0  0
  -25.2758   -9.5685   22.4752 H   0  0  0  0  0  0
  -24.0002   -7.4635   22.7471 H   0  0  0  0  0  0
  -21.0837   -8.8769   19.8948 H   0  0  0  0  0  0
  -22.3689  -10.9672   19.6160 H   0  0  0  0  0  0
  -21.2003   -7.6147   23.9717 H   0  0  0  0  0  0
  -21.1481   -6.0523   25.9079 H   0  0  0  0  0  0
  -22.0599   -2.7609   23.2848 H   0  0  0  0  0  0
  -22.4113  -11.9884   22.4776 H   0  0  0  0  0  0
  -21.1124  -13.1260   22.2604 H   0  0  0  0  0  0
  -24.6672  -15.8431   20.5160 H   0  0  0  0  0  0
  -26.2855  -15.6262   20.0840 H   0  0  0  0  0  0
  -26.7113  -32.5527   23.1154 H   0  0  0  0  0  0
  -25.0056  -33.9781   25.0475 H   0  0  0  0  0  0
  -22.6922  -31.3094   21.4130 H   0  0  0  0  0  0
  -23.3750  -35.9642   23.3308 H   0  0  0  0  0  0
  -24.3577  -36.8918   22.2050 H   0  0  0  0  0  0
  -23.7238  -37.6516   23.6649 H   0  0  0  0  0  0
  -26.0507  -31.5901   20.5986 H   0  0  0  0  0  0
  -26.8210  -30.8780   21.9878 H   0  0  0  0  0  0
  -28.0953  -29.0784   21.1741 H   0  0  0  0  0  0
  -26.0075  -25.9720   19.0163 H   0  0  0  0  0  0
  -23.9674  -27.2985   19.0418 H   0  0  0  0  0  0
  -23.7209  -30.6013   19.4062 H   0  0  0  0  0  0
  -22.7347  -29.2474   19.8696 H   0  0  0  0  0  0
  -25.1284  -36.1975   25.0831 H   0  0  0  0  0  0
  -20.9954  -28.3226   24.1439 H   0  0  0  0  0  0
  -20.5665  -26.2268   23.3603 H   0  0  0  0  0  0
  -21.6633  -26.7441   22.1212 H   0  0  0  0  0  0
  -19.6904  -25.6301   21.1227 H   0  0  0  0  0  0
  -19.6682  -27.3205   20.6750 H   0  0  0  0  0  0
  -17.4191  -26.6677   21.4020 H   0  0  0  0  0  0
  -18.0314  -26.0056   22.9011 H   0  0  0  0  0  0
  -19.7928  -30.7248   24.2291 H   0  0  0  0  0  0
  -17.5012  -31.6267   24.5163 H   0  0  0  0  0  0
  -15.5345  -30.2997   23.7640 H   0  0  0  0  0  0
  -15.8659  -28.0825   22.7062 H   0  0  0  0  0  0
  -24.5927  -30.7023   25.7807 H   0  0  0  0  0  0
  -24.8908  -32.2843   26.4916 H   0  0  0  0  0  0
  -25.8097  -30.8873   27.0232 H   0  0  0  0  0  0
  -26.2860  -29.6799   24.1163 H   0  0  0  0  0  0
  -27.4090  -29.7282   25.4563 H   0  0  0  0  0  0
  -27.8691  -30.4366   23.9256 H   0  0  0  0  0  0
  -27.2676  -33.3614   26.2081 H   0  0  0  0  0  0
  -28.3850  -32.6881   25.0305 H   0  0  0  0  0  0
  -28.0729  -31.8430   26.5388 H   0  0  0  0  0  0
  -28.2603  -38.0102   24.7514 H   0  0  0  0  0  0
  -28.1073  -36.2634   24.6292 H   0  0  0  0  0  0
  -27.2298  -37.1461   25.8869 H   0  0  0  0  0  0
  -20.9297  -29.8759   21.6954 H   0  0  0  0  0  0
  -26.0184  -38.2874   24.1411 H   0  0  0  0  0  0
  -28.2015  -17.0640   22.2032 H   0  0  0  0  0  0
  -27.2821  -19.0201   23.0277 H   0  0  0  0  0  0
  -27.0752  -20.0587   21.6287 H   0  0  0  0  0  0
  -28.1372  -20.5416   22.9668 H   0  0  0  0  0  0
  -32.7480  -20.1905   20.3110 H   0  0  0  0  0  0
  -31.8980  -20.0101   18.7659 H   0  0  0  0  0  0
  -32.9218  -18.7157   19.3719 H   0  0  0  0  0  0
  -31.6739  -21.4133   22.4090 H   0  0  0  0  0  0
  -30.0651  -21.6620   23.0722 H   0  0  0  0  0  0
  -30.8283  -22.9251   22.1207 H   0  0  0  0  0  0
  -26.6134  -24.2025   17.9364 H   0  0  0  0  0  0
  -26.7831  -22.6530   18.7042 H   0  0  0  0  0  0
  -28.0480  -23.2468   17.6248 H   0  0  0  0  0  0
  -28.0853  -22.1069   21.2691 H   0  0  0  0  0  0
  -28.3660  -21.4741   19.6511 H   0  0  0  0  0  0
  -28.2034  -25.9122   18.2002 H   0  0  0  0  0  0
  -29.6790  -25.5314   18.9911 H   0  0  0  0  0  0
  -30.8037  -21.5070   20.1246 H   0  0  0  0  0  0
  -27.3538  -24.3319   20.4103 H   0  0  0  0  0  0
  -29.1084  -15.1089   21.6005 H   0  0  0  0  0  0
  1 25  1  0  0  0
  1 30  2  0  0  0
  1 85  1  0  0  0
  2  3  1  0  0  0
  2 25  1  0  0  0
  2 87  1  0  0  0
  2 88  1  0  0  0
  3  4  1  0  0  0
  3 89  1  0  0  0
  3 90  1  0  0  0
  4  5  1  0  0  0
  4 91  1  0  0  0
  4 92  1  0  0  0
  5  6  1  0  0  0
  5 26  1  0  0  0
  5 93  1  0  0  0
  6 25  1  0  0  0
  6 94  1  0  0  0
  6 95  1  0  0  0
  7  8  2  0  0  0
  7 26  1  0  0  0
  7 29  1  0  0  0
  8  9  1  0  0  0
  8 22  1  0  0  0
  9 10  1  0  0  0
  9 27  2  0  0  0
 10 11  2  0  0  0
 10 15  1  0  0  0
 11 12  1  0  0  0
 11 96  1  0  0  0
 12 13  2  0  0  0
 12 97  1  0  0  0
 13 14  1  0  0  0
 13 31  1  0  0  0
 14 15  2  0  0  0
 14 98  1  0  0  0
 15 99  1  0  0  0
 16 17  2  0  0  0
 16 21  1  0  0  0
 16 31  1  0  0  0
 17 18  1  0  0  0
 17100  1  0  0  0
 18 19  2  0  0  0
 18101  1  0  0  0
 19 20  1  0  0  0
 19 24  1  0  0  0
 20 21  2  0  0  0
 20102  1  0  0  0
 21 23  1  0  0  0
 22 28  1  0  0  0
 22 32  2  0  0  0
 26 27  1  0  0  0
 28103  1  0  0  0
 28104  1  0  0  0
 29105  1  0  0  0
 29106  1  0  0  0
 33 34  1  0  0  0
 33 66  1  0  0  0
 33 70  2  0  0  0
 34 36  1  0  0  0
 34 59  1  0  0  0
 34107  1  0  0  0
 35 44  2  0  0  0
 35 45  1  0  0  0
 35 68  1  0  0  0
 36 56  1  0  0  0
 36108  1  0  0  0
 37 39  1  0  0  0
 37 47  1  0  0  0
 37 66  1  0  0  0
 37109  1  0  0  0
 38 43  2  0  0  0
 38 46  1  0  0  0
 38 47  1  0  0  0
 39 64  1  0  0  0
 39 67  2  0  0  0
 40 52  1  0  0  0
 40 53  2  0  0  0
 40 58  1  0  0  0
 41110  1  0  0  0
 41111  1  0  0  0
 41112  1  0  0  0
 41 48  1  0  0  0
 42 43  1  0  0  0
 42 66  1  0  0  0
 42113  1  0  0  0
 42114  1  0  0  0
 43 44  1  0  0  0
 44115  1  0  0  0
 45 46  2  0  0  0
 45116  1  0  0  0
 46117  1  0  0  0
 47118  1  0  0  0
 47119  1  0  0  0
 48 56  1  0  0  0
 48 65  1  0  0  0
 48120  1  0  0  0
 49 50  1  0  0  0
 49 53  1  0  0  0
 49 64  1  0  0  0
 49121  1  0  0  0
 50 51  1  0  0  0
 50122  1  0  0  0
 50123  1  0  0  0
 51 52  1  0  0  0
 51124  1  0  0  0
 51125  1  0  0  0
 52126  1  0  0  0
 52127  1  0  0  0
 53 54  1  0  0  0
 54 55  2  0  0  0
 54128  1  0  0  0
 55 57  1  0  0  0
 55129  1  0  0  0
 56 69  2  0  0  0
 57 58  2  0  0  0
 57130  1  0  0  0
 58131  1  0  0  0
 59 60  1  0  0  0
 59 61  1  0  0  0
 59 62  1  0  0  0
 60132  1  0  0  0
 60133  1  0  0  0
 60134  1  0  0  0
 61135  1  0  0  0
 61136  1  0  0  0
 61137  1  0  0  0
 62138  1  0  0  0
 62139  1  0  0  0
 62140  1  0  0  0
 63 65  1  0  0  0
 63141  1  0  0  0
 63142  1  0  0  0
 63143  1  0  0  0
 64144  1  0  0  0
 65145  1  0  0  0
 68 81  1  0  0  0
 71 72  2  0  0  0
 71 75  1  0  0  0
 71146  1  0  0  0
 72 73  1  0  0  0
 72 76  1  0  0  0
 73 74  2  0  0  0
 73 82  1  0  0  0
 74 77  1  0  0  0
 74 84  1  0  0  0
 75 84  2  0  0  0
 75 85  1  0  0  0
 76147  1  0  0  0
 76148  1  0  0  0
 76149  1  0  0  0
 77150  1  0  0  0
 77151  1  0  0  0
 77152  1  0  0  0
 78153  1  0  0  0
 78154  1  0  0  0
 78155  1  0  0  0
 78 82  1  0  0  0
 79156  1  0  0  0
 79157  1  0  0  0
 79158  1  0  0  0
 79 83  1  0  0  0
 80 82  1  0  0  0
 80 86  1  0  0  0
 80159  1  0  0  0
 80160  1  0  0  0
 81 83  1  0  0  0
 81161  1  0  0  0
 81162  1  0  0  0
 82163  1  0  0  0
 83 86  1  0  0  0
 83164  1  0  0  0
 85165  1  0  0  0
M  ISO  4   1 100  68 101  81 101  85 100
M  END
> <chiral flag>
0

> <version>
0

> <s_m_source_file>
/data/baiqing/PycharmProjects/Reinvent-master-3.2/result/LINK_invent/BTK/process_docking_weight1_custom_sum_contain_oxygen_bond_distance_aromatic_linkinvent_7_9_3/rearranged_h_0145.sdf

> <i_m_source_file_index>
92

> <r_mmod_Potential_Energy-OPLS-2005>
-189.439224243164

> <r_mmod_Stretch_Energy-OPLS-2005>
45.6386909484863

> <r_mmod_Bend_Energy-OPLS-2005>
122.873886108398

> <r_mmod_Torsional_Energy-OPLS-2005>
198.797821044922

> <r_mmod_Improper_Torsional_Energy-OPLS-2005>
3.06998419761658

> <r_mmod_Van_der_Waal_Energy-OPLS-2005>
164.370742797852

> <r_mmod_Electrostatic_Energy-OPLS-2005>
-504.414947509766

> <r_mmod_Solvation_Energy-OPLS-2005>
-233.337799072266

> <b_mmod_Minimization_Converged-OPLS-2005>
0

> <r_mmod_RMS_Derivative-OPLS-2005>
0.335302531719208

$$$$
93
                    3D
 Structure written by MMmdl.
160169  0  0  1  0            999 V2000
  -30.5171  -14.9711   20.4036 C   0  0  0  0  0  0
  -30.4332  -12.6093   19.4902 C   0  0  0  0  0  0
  -29.5186  -12.5418   18.2493 C   0  0  0  0  0  0
  -28.0437  -12.3454   18.6540 C   0  0  0  0  0  0
  -27.6231  -13.2577   19.8367 C   0  0  2  0  0  0
  -28.6679  -13.2764   20.9700 C   0  0  0  0  0  0
  -25.2433  -13.8254   20.5823 C   0  0  0  0  0  0
  -24.1741  -13.0440   20.9287 C   0  0  0  0  0  0
  -24.6388  -11.6938   20.8752 C   0  0  0  0  0  0
  -23.9064  -10.4292   21.0367 C   0  0  0  0  0  0
  -24.3609   -9.4212   21.9160 C   0  0  0  0  0  0
  -23.6280   -8.2242   22.0725 C   0  0  0  0  0  0
  -22.4268   -8.0266   21.3516 C   0  0  0  0  0  0
  -21.9903   -9.0244   20.4632 C   0  0  0  0  0  0
  -22.7232  -10.2119   20.3028 C   0  0  0  0  0  0
  -21.6855   -6.0730   22.5278 C   0  0  0  0  0  0
  -21.4044   -6.5638   23.8220 C   0  0  0  0  0  0
  -21.3672   -5.6788   24.9179 C   0  0  0  0  0  0
  -21.6043   -4.3050   24.7235 C   0  0  0  0  0  0
  -21.8812   -3.8136   23.4354 C   0  0  0  0  0  0
  -21.9187   -4.6955   22.3403 C   0  0  0  0  0  0
  -22.7769  -13.5179   21.1934 C   0  0  0  0  0  0
  -22.1651   -4.2139   21.0986 F   0  0  0  0  0  0
  -21.5612   -3.4545   25.7752 F   0  0  0  0  0  0
  -29.9324  -13.7054   20.3650 N   0  0  0  0  0  0
  -26.2842  -12.9504   20.3246 N   0  0  0  0  0  0
  -25.9319  -11.6618   20.5685 N   0  0  0  0  0  0
  -22.0404  -12.8160   22.0487 N   0  0  0  0  0  0
  -25.4069  -15.1992   20.4399 N   0  0  0  0  0  0
  -31.7247  -15.0307   20.1548 O   0  0  0  0  0  0
  -21.6620   -6.8870   21.4236 O   0  0  0  0  0  0
  -22.3436  -14.5478   20.6772 O   0  0  0  0  0  0
  -24.6453  -31.8446   23.1923 C   0  0  0  0  0  0
  -25.9234  -32.4669   23.8296 C   0  0  1  0  0  0
  -27.1937  -27.1241   20.1364 C   0  0  0  0  0  0
  -25.5998  -33.8478   24.2198 N   0  0  0  0  0  0
  -23.4441  -30.4773   21.5318 C   0  0  2  0  0  0
  -24.8906  -28.9058   20.1038 C   0  0  0  0  0  0
  -22.7553  -29.4599   22.4757 C   0  0  0  0  0  0
  -18.0319  -28.1399   22.8477 C   0  0  0  0  0  0
  -24.1504  -36.7259   23.2627 C   0  0  0  0  0  0
  -26.0048  -30.7137   21.3931 C   0  0  0  0  0  0
  -26.0711  -29.3288   20.7259 C   0  0  0  0  0  0
  -27.2254  -28.4539   20.7278 C   0  0  0  0  0  0
  -25.9909  -26.8153   19.4666 C   0  0  0  0  0  0
  -24.8640  -27.6616   19.4600 C   0  0  0  0  0  0
  -23.6746  -29.8197   20.1473 C   0  0  0  0  0  0
  -25.4127  -36.3002   24.0286 C   0  0  1  0  0  0
  -20.5929  -28.3739   23.1184 C   0  0  2  0  0  0
  -20.6780  -26.9419   22.5381 C   0  0  0  0  0  0
  -19.5750  -26.6373   21.5194 C   0  0  0  0  0  0
  -18.1942  -26.7933   22.1620 C   0  0  0  0  0  0
  -19.1577  -28.8873   23.2841 C   0  0  0  0  0  0
  -18.9489  -30.1463   23.8887 C   0  0  0  0  0  0
  -17.6489  -30.6580   24.0564 C   0  0  0  0  0  0
  -25.9085  -34.9381   23.5026 C   0  0  0  0  0  0
  -16.5381  -29.9087   23.6321 C   0  0  0  0  0  0
  -16.7303  -28.6496   23.0348 C   0  0  0  0  0  0
  -26.4538  -31.6546   25.0742 C   0  0  0  0  0  0
  -25.3729  -31.3781   26.1450 C   0  0  0  0  0  0
  -27.0372  -30.2917   24.6343 C   0  0  0  0  0  0
  -27.6071  -32.4312   25.7541 C   0  0  0  0  0  0
  -27.5569  -37.1791   24.8445 C   0  0  0  0  0  0
  -21.4241  -29.3082   22.3538 N   0  0  0  0  0  0
  -26.4280  -37.3723   23.9391 N   0  0  0  0  0  0
  -24.7175  -31.0341   22.0938 N   0  0  0  0  0  0
  -23.4222  -28.8101   23.2844 O   0  0  0  0  0  0
  -28.2167  -26.1037   20.2065 O   0  0  0  0  0  0
  -26.5642  -34.8877   22.4601 O   0  0  0  0  0  0
  -23.5571  -32.1307   23.7155 O   0  0  0  0  0  0
  -27.8151  -18.7086   19.6358 C   0  0  0  0  0  0
  -29.2775  -20.4344   20.4467 C   0  0  0  0  0  0
  -27.0958  -21.1195   19.5775 C   0  0  0  0  0  0
  -29.0556  -18.9799   20.2237 C   0  0  0  0  0  0
  -26.8895  -19.7223   19.2902 C   0  0  0  0  0  0
  -28.3459  -21.5610   20.1407 C   0  0  0  0  0  0
  -25.2230  -22.9097   20.2509 C   0  0  0  0  0  0
  -24.5088  -21.8187   19.5281 C   0  0  0  0  0  0
  -25.9832  -22.0973   19.2202 C   0  0  0  0  0  0
  -25.6591  -19.2042   18.5450 C   0  0  0  0  0  0
  -28.7229  -23.1736   20.4052 C   0  0  0  0  0  0
  -30.0857  -17.7041   20.4710 C   0  0  0  0  0  0
  -27.8566  -24.5902   20.0395 C   0  0  0  0  0  0
  -29.7311  -16.1583   20.5191 N   0  0  0  0  0  0
  -31.4610  -12.7844   19.1676 H   0  0  0  0  0  0
  -30.4415  -11.6584   20.0268 H   0  0  0  0  0  0
  -29.8364  -11.7353   17.5859 H   0  0  0  0  0  0
  -29.6221  -13.4663   17.6789 H   0  0  0  0  0  0
  -27.9069  -11.2988   18.9223 H   0  0  0  0  0  0
  -27.3917  -12.5216   17.7966 H   0  0  0  0  0  0
  -27.5838  -14.2660   19.4254 H   0  0  0  0  0  0
  -28.7666  -12.2951   21.4408 H   0  0  0  0  0  0
  -28.3691  -13.9699   21.7557 H   0  0  0  0  0  0
  -25.2740   -9.5698   22.4764 H   0  0  0  0  0  0
  -23.9990   -7.4611   22.7440 H   0  0  0  0  0  0
  -21.0836   -8.8733   19.8939 H   0  0  0  0  0  0
  -22.3640  -10.9646   19.6147 H   0  0  0  0  0  0
  -21.2050   -7.6150   23.9724 H   0  0  0  0  0  0
  -21.1525   -6.0512   25.9076 H   0  0  0  0  0  0
  -22.0581   -2.7600   23.2843 H   0  0  0  0  0  0
  -22.4019  -11.9849   22.4904 H   0  0  0  0  0  0
  -21.1008  -13.1155   22.2661 H   0  0  0  0  0  0
  -24.6475  -15.8542   20.5952 H   0  0  0  0  0  0
  -26.2687  -15.6491   20.1600 H   0  0  0  0  0  0
  -26.7298  -32.5251   23.1022 H   0  0  0  0  0  0
  -25.0168  -33.9595   25.0352 H   0  0  0  0  0  0
  -22.7448  -31.3029   21.3803 H   0  0  0  0  0  0
  -23.3728  -35.9632   23.3248 H   0  0  0  0  0  0
  -24.3606  -36.8944   22.2059 H   0  0  0  0  0  0
  -23.7299  -37.6447   23.6710 H   0  0  0  0  0  0
  -26.1701  -31.4715   20.6260 H   0  0  0  0  0  0
  -26.8730  -30.7568   22.0390 H   0  0  0  0  0  0
  -28.1205  -28.7701   21.2449 H   0  0  0  0  0  0
  -25.8805  -25.8745   18.9511 H   0  0  0  0  0  0
  -23.9626  -27.3303   18.9629 H   0  0  0  0  0  0
  -23.8290  -30.6015   19.4024 H   0  0  0  0  0  0
  -22.7859  -29.2782   19.8226 H   0  0  0  0  0  0
  -25.1330  -36.1806   25.0772 H   0  0  0  0  0  0
  -21.0058  -28.3350   24.1291 H   0  0  0  0  0  0
  -20.5607  -26.2374   23.3625 H   0  0  0  0  0  0
  -21.6661  -26.7374   22.1227 H   0  0  0  0  0  0
  -19.6900  -25.6263   21.1275 H   0  0  0  0  0  0
  -19.6690  -27.3138   20.6686 H   0  0  0  0  0  0
  -17.4201  -26.6665   21.4037 H   0  0  0  0  0  0
  -18.0364  -26.0081   22.9032 H   0  0  0  0  0  0
  -19.7977  -30.7266   24.2247 H   0  0  0  0  0  0
  -17.5067  -31.6260   24.5170 H   0  0  0  0  0  0
  -15.5391  -30.3007   23.7615 H   0  0  0  0  0  0
  -15.8711  -28.0811   22.7064 H   0  0  0  0  0  0
  -24.5945  -30.7058   25.7805 H   0  0  0  0  0  0
  -24.8877  -32.2978   26.4753 H   0  0  0  0  0  0
  -25.8042  -30.9085   27.0304 H   0  0  0  0  0  0
  -26.2978  -29.6639   24.1351 H   0  0  0  0  0  0
  -27.3914  -29.7237   25.4954 H   0  0  0  0  0  0
  -27.8941  -30.4046   23.9693 H   0  0  0  0  0  0
  -27.2660  -33.3642   26.2043 H   0  0  0  0  0  0
  -28.3963  -32.6816   25.0436 H   0  0  0  0  0  0
  -28.0648  -31.8484   26.5546 H   0  0  0  0  0  0
  -28.2550  -38.0116   24.7487 H   0  0  0  0  0  0
  -28.1103  -36.2644   24.6279 H   0  0  0  0  0  0
  -27.2297  -37.1449   25.8847 H   0  0  0  0  0  0
  -20.9386  -29.8888   21.6834 H   0  0  0  0  0  0
  -26.0115  -38.2773   24.1411 H   0  0  0  0  0  0
  -27.5704  -17.6807   19.4017 H   0  0  0  0  0  0
  -30.2307  -20.7167   20.8753 H   0  0  0  0  0  0
  -25.4565  -22.7505   21.3014 H   0  0  0  0  0  0
  -24.9321  -23.9229   19.9808 H   0  0  0  0  0  0
  -23.7580  -22.1446   18.8080 H   0  0  0  0  0  0
  -24.2260  -20.9701   20.1503 H   0  0  0  0  0  0
  -26.1846  -22.5545   18.2523 H   0  0  0  0  0  0
  -25.9036  -18.3148   17.9593 H   0  0  0  0  0  0
  -25.2511  -19.9175   17.8304 H   0  0  0  0  0  0
  -24.8804  -18.9132   19.2510 H   0  0  0  0  0  0
  -29.7102  -23.2950   19.9604 H   0  0  0  0  0  0
  -28.9000  -23.2326   21.4787 H   0  0  0  0  0  0
  -30.6400  -17.9258   21.3856 H   0  0  0  0  0  0
  -30.8299  -17.7984   19.6776 H   0  0  0  0  0  0
  -26.9794  -24.5349   20.6710 H   0  0  0  0  0  0
  -27.5403  -24.4732   19.0044 H   0  0  0  0  0  0
  -28.7530  -15.9777   20.6841 H   0  0  0  0  0  0
  1 25  1  0  0  0
  1 30  2  0  0  0
  1 84  1  0  0  0
  2  3  1  0  0  0
  2 25  1  0  0  0
  2 85  1  0  0  0
  2 86  1  0  0  0
  3  4  1  0  0  0
  3 87  1  0  0  0
  3 88  1  0  0  0
  4  5  1  0  0  0
  4 89  1  0  0  0
  4 90  1  0  0  0
  5  6  1  0  0  0
  5 26  1  0  0  0
  5 91  1  0  0  0
  6 25  1  0  0  0
  6 92  1  0  0  0
  6 93  1  0  0  0
  7  8  2  0  0  0
  7 26  1  0  0  0
  7 29  1  0  0  0
  8  9  1  0  0  0
  8 22  1  0  0  0
  9 10  1  0  0  0
  9 27  2  0  0  0
 10 11  2  0  0  0
 10 15  1  0  0  0
 11 12  1  0  0  0
 11 94  1  0  0  0
 12 13  2  0  0  0
 12 95  1  0  0  0
 13 14  1  0  0  0
 13 31  1  0  0  0
 14 15  2  0  0  0
 14 96  1  0  0  0
 15 97  1  0  0  0
 16 17  2  0  0  0
 16 21  1  0  0  0
 16 31  1  0  0  0
 17 18  1  0  0  0
 17 98  1  0  0  0
 18 19  2  0  0  0
 18 99  1  0  0  0
 19 20  1  0  0  0
 19 24  1  0  0  0
 20 21  2  0  0  0
 20100  1  0  0  0
 21 23  1  0  0  0
 22 28  1  0  0  0
 22 32  2  0  0  0
 26 27  1  0  0  0
 28101  1  0  0  0
 28102  1  0  0  0
 29103  1  0  0  0
 29104  1  0  0  0
 33 34  1  0  0  0
 33 66  1  0  0  0
 33 70  2  0  0  0
 34 36  1  0  0  0
 34 59  1  0  0  0
 34105  1  0  0  0
 35 44  2  0  0  0
 35 45  1  0  0  0
 35 68  1  0  0  0
 36 56  1  0  0  0
 36106  1  0  0  0
 37 39  1  0  0  0
 37 47  1  0  0  0
 37 66  1  0  0  0
 37107  1  0  0  0
 38 43  2  0  0  0
 38 46  1  0  0  0
 38 47  1  0  0  0
 39 64  1  0  0  0
 39 67  2  0  0  0
 40 52  1  0  0  0
 40 53  2  0  0  0
 40 58  1  0  0  0
 41108  1  0  0  0
 41109  1  0  0  0
 41110  1  0  0  0
 41 48  1  0  0  0
 42 43  1  0  0  0
 42 66  1  0  0  0
 42111  1  0  0  0
 42112  1  0  0  0
 43 44  1  0  0  0
 44113  1  0  0  0
 45 46  2  0  0  0
 45114  1  0  0  0
 46115  1  0  0  0
 47116  1  0  0  0
 47117  1  0  0  0
 48 56  1  0  0  0
 48 65  1  0  0  0
 48118  1  0  0  0
 49 50  1  0  0  0
 49 53  1  0  0  0
 49 64  1  0  0  0
 49119  1  0  0  0
 50 51  1  0  0  0
 50120  1  0  0  0
 50121  1  0  0  0
 51 52  1  0  0  0
 51122  1  0  0  0
 51123  1  0  0  0
 52124  1  0  0  0
 52125  1  0  0  0
 53 54  1  0  0  0
 54 55  2  0  0  0
 54126  1  0  0  0
 55 57  1  0  0  0
 55127  1  0  0  0
 56 69  2  0  0  0
 57 58  2  0  0  0
 57128  1  0  0  0
 58129  1  0  0  0
 59 60  1  0  0  0
 59 61  1  0  0  0
 59 62  1  0  0  0
 60130  1  0  0  0
 60131  1  0  0  0
 60132  1  0  0  0
 61133  1  0  0  0
 61134  1  0  0  0
 61135  1  0  0  0
 62136  1  0  0  0
 62137  1  0  0  0
 62138  1  0  0  0
 63 65  1  0  0  0
 63139  1  0  0  0
 63140  1  0  0  0
 63141  1  0  0  0
 64142  1  0  0  0
 65143  1  0  0  0
 68 83  1  0  0  0
 71 74  2  0  0  0
 71 75  1  0  0  0
 71144  1  0  0  0
 72 74  1  0  0  0
 72 76  2  0  0  0
 72145  1  0  0  0
 73 75  2  0  0  0
 73 76  1  0  0  0
 73 79  1  0  0  0
 74 82  1  0  0  0
 75 80  1  0  0  0
 76 81  1  0  0  0
 77 78  1  0  0  0
 77 79  1  0  0  0
 77146  1  0  0  0
 77147  1  0  0  0
 78 79  1  0  0  0
 78148  1  0  0  0
 78149  1  0  0  0
 79150  1  0  0  0
 80151  1  0  0  0
 80152  1  0  0  0
 80153  1  0  0  0
 81 83  1  0  0  0
 81154  1  0  0  0
 81155  1  0  0  0
 82 84  1  0  0  0
 82156  1  0  0  0
 82157  1  0  0  0
 83158  1  0  0  0
 83159  1  0  0  0
 84160  1  0  0  0
M  ISO  4   1 100  68 101  83 101  84 100
M  END
> <chiral flag>
0

> <version>
0

> <s_m_source_file>
/data/baiqing/PycharmProjects/Reinvent-master-3.2/result/LINK_invent/BTK/process_docking_weight1_custom_sum_contain_oxygen_bond_distance_aromatic_linkinvent_7_9_3/rearranged_h_0145.sdf

> <i_m_source_file_index>
93

> <r_mmod_Potential_Energy-OPLS-2005>
516.951721191406

> <r_mmod_Stretch_Energy-OPLS-2005>
281.150085449219

> <r_mmod_Bend_Energy-OPLS-2005>
269.796600341797

> <r_mmod_Torsional_Energy-OPLS-2005>
233.189086914062

> <r_mmod_Improper_Torsional_Energy-OPLS-2005>
4.35045003890991

> <r_mmod_Van_der_Waal_Energy-OPLS-2005>
137.971115112305

> <r_mmod_Electrostatic_Energy-OPLS-2005>
-409.754547119141

> <r_mmod_Solvation_Energy-OPLS-2005>
-210.792495727539

> <b_mmod_Minimization_Converged-OPLS-2005>
0

> <r_mmod_RMS_Derivative-OPLS-2005>
4.58426761627197

$$$$
94
                    3D
 Structure written by MMmdl.
165174  0  0  1  0            999 V2000
  -30.6781  -14.5379   20.5365 C   0  0  0  0  0  0
  -30.4296  -12.3408   19.4352 C   0  0  0  0  0  0
  -29.4990  -12.4918   18.2134 C   0  0  0  0  0  0
  -28.0179  -12.3538   18.6240 C   0  0  0  0  0  0
  -27.6548  -13.2128   19.8678 C   0  0  2  0  0  0
  -28.7009  -13.0338   20.9919 C   0  0  0  0  0  0
  -25.2532  -13.8176   20.5680 C   0  0  0  0  0  0
  -24.1803  -13.0430   20.9192 C   0  0  0  0  0  0
  -24.6380  -11.6905   20.8739 C   0  0  0  0  0  0
  -23.9044  -10.4289   21.0410 C   0  0  0  0  0  0
  -24.3607   -9.4210   21.9191 C   0  0  0  0  0  0
  -23.6292   -8.2240   22.0756 C   0  0  0  0  0  0
  -22.4269   -8.0273   21.3555 C   0  0  0  0  0  0
  -21.9898   -9.0231   20.4644 C   0  0  0  0  0  0
  -22.7215  -10.2121   20.3050 C   0  0  0  0  0  0
  -21.6846   -6.0729   22.5285 C   0  0  0  0  0  0
  -21.4018   -6.5642   23.8221 C   0  0  0  0  0  0
  -21.3656   -5.6792   24.9182 C   0  0  0  0  0  0
  -21.6047   -4.3054   24.7232 C   0  0  0  0  0  0
  -21.8822   -3.8146   23.4354 C   0  0  0  0  0  0
  -21.9186   -4.6963   22.3405 C   0  0  0  0  0  0
  -22.7817  -13.5197   21.1844 C   0  0  0  0  0  0
  -22.1644   -4.2145   21.0991 F   0  0  0  0  0  0
  -21.5634   -3.4546   25.7749 F   0  0  0  0  0  0
  -30.0245  -13.3470   20.4282 N   0  0  0  0  0  0
  -26.2981  -12.9357   20.3355 N   0  0  0  0  0  0
  -25.9308  -11.6510   20.5780 N   0  0  0  0  0  0
  -22.0453  -12.8209   22.0436 N   0  0  0  0  0  0
  -25.4235  -15.1902   20.4045 N   0  0  0  0  0  0
  -31.8288  -14.7037   20.1230 O   0  0  0  0  0  0
  -21.6626   -6.8878   21.4252 O   0  0  0  0  0  0
  -22.3479  -14.5477   20.6655 O   0  0  0  0  0  0
  -24.6194  -31.8637   23.2045 C   0  0  0  0  0  0
  -25.9052  -32.4809   23.8370 C   0  0  1  0  0  0
  -27.2466  -27.3927   20.1088 C   0  0  0  0  0  0
  -25.5895  -33.8618   24.2298 N   0  0  0  0  0  0
  -23.4114  -30.4838   21.5470 C   0  0  2  0  0  0
  -24.8613  -28.9442   20.1124 C   0  0  0  0  0  0
  -22.7437  -29.4623   22.4997 C   0  0  0  0  0  0
  -18.0264  -28.1384   22.8473 C   0  0  0  0  0  0
  -24.1484  -36.7309   23.2648 C   0  0  0  0  0  0
  -25.9441  -30.8200   21.3603 C   0  0  0  0  0  0
  -26.0226  -29.4500   20.7088 C   0  0  0  0  0  0
  -27.2175  -28.6845   20.6960 C   0  0  0  0  0  0
  -26.0605  -26.9151   19.5020 C   0  0  0  0  0  0
  -24.8781  -27.6795   19.5030 C   0  0  0  0  0  0
  -23.6210  -29.8112   20.1639 C   0  0  0  0  0  0
  -25.4105  -36.3119   24.0340 C   0  0  1  0  0  0
  -20.5854  -28.3652   23.1325 C   0  0  2  0  0  0
  -20.6765  -26.9390   22.5422 C   0  0  0  0  0  0
  -19.5742  -26.6380   21.5221 C   0  0  0  0  0  0
  -18.1916  -26.7930   22.1623 C   0  0  0  0  0  0
  -19.1518  -28.8842   23.2886 C   0  0  0  0  0  0
  -18.9445  -30.1455   23.8883 C   0  0  0  0  0  0
  -17.6449  -30.6591   24.0560 C   0  0  0  0  0  0
  -25.9034  -34.9484   23.5121 C   0  0  0  0  0  0
  -16.5337  -29.9089   23.6336 C   0  0  0  0  0  0
  -16.7253  -28.6513   23.0338 C   0  0  0  0  0  0
  -26.4443  -31.6608   25.0736 C   0  0  0  0  0  0
  -25.3686  -31.3715   26.1473 C   0  0  0  0  0  0
  -27.0285  -30.3063   24.6123 C   0  0  0  0  0  0
  -27.6031  -32.4332   25.7482 C   0  0  0  0  0  0
  -27.5564  -37.1820   24.8464 C   0  0  0  0  0  0
  -21.4160  -29.3020   22.3735 N   0  0  0  0  0  0
  -26.4282  -37.3799   23.9407 N   0  0  0  0  0  0
  -24.6765  -31.0716   22.0951 N   0  0  0  0  0  0
  -23.4187  -28.8185   23.3068 O   0  0  0  0  0  0
  -28.4122  -26.6318   20.1476 O   0  0  0  0  0  0
  -26.5615  -34.8933   22.4704 O   0  0  0  0  0  0
  -23.5375  -32.1395   23.7419 O   0  0  0  0  0  0
  -28.8554  -22.0337   22.0323 C   0  0  0  0  0  0
  -29.5955  -20.6194   20.1999 C   0  0  0  0  0  0
  -28.5450  -20.8844   22.7915 C   0  0  0  0  0  0
  -29.2785  -19.4415   20.9398 C   0  0  0  0  0  0
  -29.3656  -21.9275   20.7186 C   0  0  0  0  0  0
  -28.7044  -19.5980   22.2218 C   0  0  0  0  0  0
  -28.8201  -21.8228   25.2337 C   0  0  0  0  0  0
  -28.7233  -20.3229   25.3384 C   0  0  0  0  0  0
  -28.0417  -21.0441   24.1974 C   0  0  0  0  0  0
  -26.9059  -18.2257   22.8077 C   0  0  0  0  0  0
  -29.4251  -18.0176   20.3399 C   0  0  0  0  0  0
  -30.3390  -17.0052   21.1154 C   0  0  0  0  0  0
  -28.2995  -25.1866   20.0226 C   0  0  0  0  0  0
  -29.5919  -24.3960   20.4047 C   0  0  0  0  0  0
  -29.9375  -15.5822   20.9717 N   0  0  0  0  0  0
  -28.2998  -18.4882   22.9184 O   0  0  0  0  0  0
  -29.6433  -23.0295   19.9128 O   0  0  0  0  0  0
  -31.4709  -12.4554   19.1290 H   0  0  0  0  0  0
  -30.3534  -11.3388   19.8585 H   0  0  0  0  0  0
  -29.7478  -11.7418   17.4600 H   0  0  0  0  0  0
  -29.6601  -13.4625   17.7418 H   0  0  0  0  0  0
  -27.8299  -11.2996   18.8322 H   0  0  0  0  0  0
  -27.3718  -12.6101   17.7827 H   0  0  0  0  0  0
  -27.6857  -14.2552   19.5503 H   0  0  0  0  0  0
  -28.6959  -12.0081   21.3624 H   0  0  0  0  0  0
  -28.4610  -13.6591   21.8541 H   0  0  0  0  0  0
  -25.2761   -9.5689   22.4760 H   0  0  0  0  0  0
  -24.0013   -7.4616   22.7453 H   0  0  0  0  0  0
  -21.0838   -8.8710   19.8936 H   0  0  0  0  0  0
  -22.3656  -10.9640   19.6149 H   0  0  0  0  0  0
  -21.2023   -7.6145   23.9734 H   0  0  0  0  0  0
  -21.1474   -6.0517   25.9085 H   0  0  0  0  0  0
  -22.0608   -2.7605   23.2839 H   0  0  0  0  0  0
  -22.4033  -11.9869   22.4858 H   0  0  0  0  0  0
  -21.1058  -13.1224   22.2595 H   0  0  0  0  0  0
  -24.6497  -15.8392   20.4978 H   0  0  0  0  0  0
  -26.2661  -15.6296   20.0597 H   0  0  0  0  0  0
  -26.7128  -32.5477   23.1127 H   0  0  0  0  0  0
  -25.0025  -33.9780   25.0430 H   0  0  0  0  0  0
  -22.7020  -31.3005   21.4033 H   0  0  0  0  0  0
  -23.3750  -35.9639   23.3321 H   0  0  0  0  0  0
  -24.3566  -36.8915   22.2056 H   0  0  0  0  0  0
  -23.7223  -37.6518   23.6647 H   0  0  0  0  0  0
  -26.0635  -31.5831   20.5901 H   0  0  0  0  0  0
  -26.8318  -30.8751   21.9784 H   0  0  0  0  0  0
  -28.1143  -29.0789   21.1540 H   0  0  0  0  0  0
  -26.0265  -25.9494   19.0213 H   0  0  0  0  0  0
  -23.9856  -27.2853   19.0372 H   0  0  0  0  0  0
  -23.7230  -30.5862   19.4016 H   0  0  0  0  0  0
  -22.7460  -29.2280   19.8708 H   0  0  0  0  0  0
  -25.1281  -36.1976   25.0829 H   0  0  0  0  0  0
  -20.9922  -28.3216   24.1456 H   0  0  0  0  0  0
  -20.5686  -26.2257   23.3606 H   0  0  0  0  0  0
  -21.6632  -26.7448   22.1198 H   0  0  0  0  0  0
  -19.6905  -25.6296   21.1239 H   0  0  0  0  0  0
  -19.6701  -27.3209   20.6766 H   0  0  0  0  0  0
  -17.4194  -26.6660   21.4024 H   0  0  0  0  0  0
  -18.0306  -26.0092   22.9031 H   0  0  0  0  0  0
  -19.7922  -30.7278   24.2239 H   0  0  0  0  0  0
  -17.5004  -31.6263   24.5171 H   0  0  0  0  0  0
  -15.5338  -30.2987   23.7685 H   0  0  0  0  0  0
  -15.8643  -28.0848   22.7045 H   0  0  0  0  0  0
  -24.5857  -30.7063   25.7779 H   0  0  0  0  0  0
  -24.8874  -32.2885   26.4902 H   0  0  0  0  0  0
  -25.8027  -30.8874   27.0232 H   0  0  0  0  0  0
  -26.2850  -29.6844   24.1130 H   0  0  0  0  0  0
  -27.4008  -29.7269   25.4570 H   0  0  0  0  0  0
  -27.8685  -30.4384   23.9310 H   0  0  0  0  0  0
  -27.2652  -33.3624   26.2061 H   0  0  0  0  0  0
  -28.3822  -32.6896   25.0299 H   0  0  0  0  0  0
  -28.0709  -31.8454   26.5382 H   0  0  0  0  0  0
  -28.2611  -38.0090   24.7526 H   0  0  0  0  0  0
  -28.1041  -36.2642   24.6280 H   0  0  0  0  0  0
  -27.2303  -37.1459   25.8873 H   0  0  0  0  0  0
  -20.9341  -29.8719   21.6926 H   0  0  0  0  0  0
  -26.0177  -38.2883   24.1407 H   0  0  0  0  0  0
  -28.6796  -22.9948   22.4880 H   0  0  0  0  0  0
  -29.9927  -20.5233   19.2003 H   0  0  0  0  0  0
  -29.7863  -22.2371   24.9549 H   0  0  0  0  0  0
  -28.2638  -22.3917   25.9765 H   0  0  0  0  0  0
  -28.1015  -19.9261   26.1371 H   0  0  0  0  0  0
  -29.6191  -19.7477   25.1106 H   0  0  0  0  0  0
  -26.9572  -21.1313   24.2231 H   0  0  0  0  0  0
  -26.6631  -17.3058   23.3379 H   0  0  0  0  0  0
  -26.6064  -18.0980   21.7673 H   0  0  0  0  0  0
  -26.3024  -19.0237   23.2393 H   0  0  0  0  0  0
  -29.7650  -18.0913   19.3059 H   0  0  0  0  0  0
  -28.4171  -17.6096   20.2771 H   0  0  0  0  0  0
  -30.3019  -17.2181   22.1830 H   0  0  0  0  0  0
  -31.3819  -17.1554   20.8321 H   0  0  0  0  0  0
  -27.4725  -24.8189   20.6309 H   0  0  0  0  0  0
  -28.0606  -24.9570   18.9839 H   0  0  0  0  0  0
  -29.8118  -24.4830   21.4691 H   0  0  0  0  0  0
  -30.4305  -24.8957   19.9185 H   0  0  0  0  0  0
  -28.9957  -15.3587   21.2553 H   0  0  0  0  0  0
  1 25  1  0  0  0
  1 30  2  0  0  0
  1 85  1  0  0  0
  2  3  1  0  0  0
  2 25  1  0  0  0
  2 88  1  0  0  0
  2 89  1  0  0  0
  3  4  1  0  0  0
  3 90  1  0  0  0
  3 91  1  0  0  0
  4  5  1  0  0  0
  4 92  1  0  0  0
  4 93  1  0  0  0
  5  6  1  0  0  0
  5 26  1  0  0  0
  5 94  1  0  0  0
  6 25  1  0  0  0
  6 95  1  0  0  0
  6 96  1  0  0  0
  7  8  2  0  0  0
  7 26  1  0  0  0
  7 29  1  0  0  0
  8  9  1  0  0  0
  8 22  1  0  0  0
  9 10  1  0  0  0
  9 27  2  0  0  0
 10 11  2  0  0  0
 10 15  1  0  0  0
 11 12  1  0  0  0
 11 97  1  0  0  0
 12 13  2  0  0  0
 12 98  1  0  0  0
 13 14  1  0  0  0
 13 31  1  0  0  0
 14 15  2  0  0  0
 14 99  1  0  0  0
 15100  1  0  0  0
 16 17  2  0  0  0
 16 21  1  0  0  0
 16 31  1  0  0  0
 17 18  1  0  0  0
 17101  1  0  0  0
 18 19  2  0  0  0
 18102  1  0  0  0
 19 20  1  0  0  0
 19 24  1  0  0  0
 20 21  2  0  0  0
 20103  1  0  0  0
 21 23  1  0  0  0
 22 28  1  0  0  0
 22 32  2  0  0  0
 26 27  1  0  0  0
 28104  1  0  0  0
 28105  1  0  0  0
 29106  1  0  0  0
 29107  1  0  0  0
 33 34  1  0  0  0
 33 66  1  0  0  0
 33 70  2  0  0  0
 34 36  1  0  0  0
 34 59  1  0  0  0
 34108  1  0  0  0
 35 44  2  0  0  0
 35 45  1  0  0  0
 35 68  1  0  0  0
 36 56  1  0  0  0
 36109  1  0  0  0
 37 39  1  0  0  0
 37 47  1  0  0  0
 37 66  1  0  0  0
 37110  1  0  0  0
 38 43  2  0  0  0
 38 46  1  0  0  0
 38 47  1  0  0  0
 39 64  1  0  0  0
 39 67  2  0  0  0
 40 52  1  0  0  0
 40 53  2  0  0  0
 40 58  1  0  0  0
 41111  1  0  0  0
 41112  1  0  0  0
 41113  1  0  0  0
 41 48  1  0  0  0
 42 43  1  0  0  0
 42 66  1  0  0  0
 42114  1  0  0  0
 42115  1  0  0  0
 43 44  1  0  0  0
 44116  1  0  0  0
 45 46  2  0  0  0
 45117  1  0  0  0
 46118  1  0  0  0
 47119  1  0  0  0
 47120  1  0  0  0
 48 56  1  0  0  0
 48 65  1  0  0  0
 48121  1  0  0  0
 49 50  1  0  0  0
 49 53  1  0  0  0
 49 64  1  0  0  0
 49122  1  0  0  0
 50 51  1  0  0  0
 50123  1  0  0  0
 50124  1  0  0  0
 51 52  1  0  0  0
 51125  1  0  0  0
 51126  1  0  0  0
 52127  1  0  0  0
 52128  1  0  0  0
 53 54  1  0  0  0
 54 55  2  0  0  0
 54129  1  0  0  0
 55 57  1  0  0  0
 55130  1  0  0  0
 56 69  2  0  0  0
 57 58  2  0  0  0
 57131  1  0  0  0
 58132  1  0  0  0
 59 60  1  0  0  0
 59 61  1  0  0  0
 59 62  1  0  0  0
 60133  1  0  0  0
 60134  1  0  0  0
 60135  1  0  0  0
 61136  1  0  0  0
 61137  1  0  0  0
 61138  1  0  0  0
 62139  1  0  0  0
 62140  1  0  0  0
 62141  1  0  0  0
 63 65  1  0  0  0
 63142  1  0  0  0
 63143  1  0  0  0
 63144  1  0  0  0
 64145  1  0  0  0
 65146  1  0  0  0
 68 83  1  0  0  0
 71 73  2  0  0  0
 71 75  1  0  0  0
 71147  1  0  0  0
 72 74  1  0  0  0
 72 75  2  0  0  0
 72148  1  0  0  0
 73 76  1  0  0  0
 73 79  1  0  0  0
 74 76  2  0  0  0
 74 81  1  0  0  0
 75 87  1  0  0  0
 76 86  1  0  0  0
 77 78  1  0  0  0
 77 79  1  0  0  0
 77149  1  0  0  0
 77150  1  0  0  0
 78 79  1  0  0  0
 78151  1  0  0  0
 78152  1  0  0  0
 79153  1  0  0  0
 80 86  1  0  0  0
 80154  1  0  0  0
 80155  1  0  0  0
 80156  1  0  0  0
 81 82  1  0  0  0
 81157  1  0  0  0
 81158  1  0  0  0
 82 85  1  0  0  0
 82159  1  0  0  0
 82160  1  0  0  0
 83 84  1  0  0  0
 83161  1  0  0  0
 83162  1  0  0  0
 84 87  1  0  0  0
 84163  1  0  0  0
 84164  1  0  0  0
 85165  1  0  0  0
M  ISO  4   1 100  68 101  83 101  85 100
M  END
> <chiral flag>
0

> <version>
0

> <s_m_source_file>
/data/baiqing/PycharmProjects/Reinvent-master-3.2/result/LINK_invent/BTK/process_docking_weight1_custom_sum_contain_oxygen_bond_distance_aromatic_linkinvent_7_9_3/rearranged_h_0145.sdf

> <i_m_source_file_index>
94

> <r_mmod_Potential_Energy-OPLS-2005>
-12.44215965271

> <r_mmod_Stretch_Energy-OPLS-2005>
52.0791549682617

> <r_mmod_Bend_Energy-OPLS-2005>
118.803359985352

> <r_mmod_Torsional_Energy-OPLS-2005>
263.738189697266

> <r_mmod_Improper_Torsional_Energy-OPLS-2005>
3.94119143486023

> <r_mmod_Van_der_Waal_Energy-OPLS-2005>
144.324966430664

> <r_mmod_Electrostatic_Energy-OPLS-2005>
-404.622955322266

> <r_mmod_Solvation_Energy-OPLS-2005>
-213.383285522461

> <b_mmod_Minimization_Converged-OPLS-2005>
0

> <r_mmod_RMS_Derivative-OPLS-2005>
3.06987404823303

$$$$
95
                    3D
 Structure written by MMmdl.
162170  0  0  1  0            999 V2000
  -30.5321  -14.9016   20.3753 C   0  0  0  0  0  0
  -30.4424  -12.5454   19.4841 C   0  0  0  0  0  0
  -29.5254  -12.4979   18.2426 C   0  0  0  0  0  0
  -28.0587  -12.2857   18.6680 C   0  0  0  0  0  0
  -27.6307  -13.2322   19.8189 C   0  0  2  0  0  0
  -28.6710  -13.2536   20.9589 C   0  0  0  0  0  0
  -25.2526  -13.8182   20.5649 C   0  0  0  0  0  0
  -24.1828  -13.0419   20.9207 C   0  0  0  0  0  0
  -24.6407  -11.6899   20.8724 C   0  0  0  0  0  0
  -23.9067  -10.4274   21.0401 C   0  0  0  0  0  0
  -24.3627   -9.4200   21.9186 C   0  0  0  0  0  0
  -23.6300   -8.2253   22.0752 C   0  0  0  0  0  0
  -22.4280   -8.0298   21.3544 C   0  0  0  0  0  0
  -21.9902   -9.0261   20.4643 C   0  0  0  0  0  0
  -22.7230  -10.2137   20.3051 C   0  0  0  0  0  0
  -21.6843   -6.0743   22.5285 C   0  0  0  0  0  0
  -21.4006   -6.5643   23.8218 C   0  0  0  0  0  0
  -21.3660   -5.6796   24.9187 C   0  0  0  0  0  0
  -21.6055   -4.3062   24.7220 C   0  0  0  0  0  0
  -21.8818   -3.8144   23.4347 C   0  0  0  0  0  0
  -21.9184   -4.6975   22.3403 C   0  0  0  0  0  0
  -22.7862  -13.5221   21.1893 C   0  0  0  0  0  0
  -22.1652   -4.2167   21.0980 F   0  0  0  0  0  0
  -21.5636   -3.4534   25.7724 F   0  0  0  0  0  0
  -29.9486  -13.6438   20.3549 N   0  0  0  0  0  0
  -26.2891  -12.9355   20.3107 N   0  0  0  0  0  0
  -25.9318  -11.6512   20.5651 N   0  0  0  0  0  0
  -22.0518  -12.8176   22.0436 N   0  0  0  0  0  0
  -25.4219  -15.1896   20.4038 N   0  0  0  0  0  0
  -31.7471  -14.9777   20.1642 O   0  0  0  0  0  0
  -21.6640   -6.8900   21.4249 O   0  0  0  0  0  0
  -22.3532  -14.5535   20.6788 O   0  0  0  0  0  0
  -24.6391  -31.8466   23.1894 C   0  0  0  0  0  0
  -25.9173  -32.4714   23.8267 C   0  0  1  0  0  0
  -27.1936  -27.1681   20.1009 C   0  0  0  0  0  0
  -25.5912  -33.8525   24.2194 N   0  0  0  0  0  0
  -23.4401  -30.4686   21.5380 C   0  0  2  0  0  0
  -24.8796  -28.9067   20.1004 C   0  0  0  0  0  0
  -22.7567  -29.4537   22.4906 C   0  0  0  0  0  0
  -18.0319  -28.1462   22.8408 C   0  0  0  0  0  0
  -24.1478  -36.7257   23.2641 C   0  0  0  0  0  0
  -25.9918  -30.7206   21.3857 C   0  0  0  0  0  0
  -26.0573  -29.3370   20.7256 C   0  0  0  0  0  0
  -27.2125  -28.4762   20.7235 C   0  0  0  0  0  0
  -25.9844  -26.8301   19.4533 C   0  0  0  0  0  0
  -24.8563  -27.6690   19.4497 C   0  0  0  0  0  0
  -23.6558  -29.8001   20.1565 C   0  0  0  0  0  0
  -25.4110  -36.3047   24.0324 C   0  0  1  0  0  0
  -20.5898  -28.3763   23.1292 C   0  0  2  0  0  0
  -20.6730  -26.9470   22.5418 C   0  0  0  0  0  0
  -19.5808  -26.6577   21.5069 C   0  0  0  0  0  0
  -18.1985  -26.8025   22.1500 C   0  0  0  0  0  0
  -19.1559  -28.8947   23.2833 C   0  0  0  0  0  0
  -18.9461  -30.1551   23.8820 C   0  0  0  0  0  0
  -17.6469  -30.6674   24.0471 C   0  0  0  0  0  0
  -25.9063  -34.9422   23.5067 C   0  0  0  0  0  0
  -16.5367  -29.9145   23.6238 C   0  0  0  0  0  0
  -16.7308  -28.6562   23.0255 C   0  0  0  0  0  0
  -26.4511  -31.6571   25.0689 C   0  0  0  0  0  0
  -25.3714  -31.3742   26.1397 C   0  0  0  0  0  0
  -27.0355  -30.2971   24.6226 C   0  0  0  0  0  0
  -27.6074  -32.4297   25.7460 C   0  0  0  0  0  0
  -27.5569  -37.1785   24.8465 C   0  0  0  0  0  0
  -21.4247  -29.3112   22.3720 N   0  0  0  0  0  0
  -26.4288  -37.3747   23.9407 N   0  0  0  0  0  0
  -24.7112  -31.0307   22.0938 N   0  0  0  0  0  0
  -23.4241  -28.8021   23.2973 O   0  0  0  0  0  0
  -28.2428  -26.1970   20.1777 O   0  0  0  0  0  0
  -26.5685  -34.8914   22.4670 O   0  0  0  0  0  0
  -23.5508  -32.1368   23.7100 O   0  0  0  0  0  0
  -28.6648  -21.3170   21.1129 C   0  0  0  0  0  0
  -28.4944  -22.7490   20.9189 C   0  0  0  0  0  0
  -28.7751  -20.3378   20.0674 C   0  0  0  0  0  0
  -28.6626  -20.9446   18.7692 C   0  0  0  0  0  0
  -28.5508  -22.3868   18.5611 C   0  0  0  0  0  0
  -28.4657  -23.3668   19.6277 C   0  0  0  0  0  0
  -28.2882  -23.6286   22.1361 C   0  0  0  0  0  0
  -28.5515  -19.9877   17.5784 C   0  0  0  0  0  0
  -28.4579  -22.8765   17.1141 C   0  0  0  0  0  0
  -30.9512  -17.9480   19.1568 C   0  0  0  0  0  0
  -28.7318  -18.7109   20.3374 C   0  0  0  0  0  0
  -28.3203  -24.9688   19.2708 C   0  0  0  0  0  0
  -29.9859  -17.6076   20.3078 C   0  0  1  0  0  0
  -29.7148  -16.0585   20.4068 N   0  0  0  0  0  0
  -31.4787  -12.6976   19.1805 H   0  0  0  0  0  0
  -30.4236  -11.5968   20.0240 H   0  0  0  0  0  0
  -29.8442  -11.7020   17.5668 H   0  0  0  0  0  0
  -29.6175  -13.4286   17.6813 H   0  0  0  0  0  0
  -27.9690  -11.2487   18.9982 H   0  0  0  0  0  0
  -27.3934  -12.3872   17.8097 H   0  0  0  0  0  0
  -27.5933  -14.2292   19.3777 H   0  0  0  0  0  0
  -28.7467  -12.2812   21.4487 H   0  0  0  0  0  0
  -28.3790  -13.9693   21.7301 H   0  0  0  0  0  0
  -25.2792   -9.5692   22.4727 H   0  0  0  0  0  0
  -24.0010   -7.4633   22.7467 H   0  0  0  0  0  0
  -21.0833   -8.8786   19.8934 H   0  0  0  0  0  0
  -22.3699  -10.9678   19.6159 H   0  0  0  0  0  0
  -21.1994   -7.6144   23.9741 H   0  0  0  0  0  0
  -21.1481   -6.0515   25.9099 H   0  0  0  0  0  0
  -22.0587   -2.7601   23.2828 H   0  0  0  0  0  0
  -22.4097  -11.9805   22.4787 H   0  0  0  0  0  0
  -21.1184  -13.1267   22.2689 H   0  0  0  0  0  0
  -24.6512  -15.8402   20.5123 H   0  0  0  0  0  0
  -26.2434  -15.6166   19.9948 H   0  0  0  0  0  0
  -26.7223  -32.5313   23.0982 H   0  0  0  0  0  0
  -24.9902  -33.9657   25.0228 H   0  0  0  0  0  0
  -22.7376  -31.2917   21.3874 H   0  0  0  0  0  0
  -23.3755  -35.9570   23.3272 H   0  0  0  0  0  0
  -24.3543  -36.8923   22.2058 H   0  0  0  0  0  0
  -23.7241  -37.6450   23.6688 H   0  0  0  0  0  0
  -26.1386  -31.4688   20.6064 H   0  0  0  0  0  0
  -26.8676  -30.7707   22.0227 H   0  0  0  0  0  0
  -28.1086  -28.7914   21.2393 H   0  0  0  0  0  0
  -25.8378  -25.8763   18.9731 H   0  0  0  0  0  0
  -23.9571  -27.3408   18.9481 H   0  0  0  0  0  0
  -23.7692  -30.5680   19.3882 H   0  0  0  0  0  0
  -22.7739  -29.2240   19.8701 H   0  0  0  0  0  0
  -25.1302  -36.1863   25.0821 H   0  0  0  0  0  0
  -20.9959  -28.3332   24.1416 H   0  0  0  0  0  0
  -20.5363  -26.2386   23.3604 H   0  0  0  0  0  0
  -21.6675  -26.7362   22.1515 H   0  0  0  0  0  0
  -19.7038  -25.6609   21.0835 H   0  0  0  0  0  0
  -19.6729  -27.3602   20.6771 H   0  0  0  0  0  0
  -18.0391  -26.0143   22.8858 H   0  0  0  0  0  0
  -17.4235  -26.6763   21.3930 H   0  0  0  0  0  0
  -19.7929  -30.7415   24.2136 H   0  0  0  0  0  0
  -17.5034  -31.6386   24.5027 H   0  0  0  0  0  0
  -15.5384  -30.3067   23.7496 H   0  0  0  0  0  0
  -15.8743  -28.0869   22.6914 H   0  0  0  0  0  0
  -24.5897  -30.7093   25.7695 H   0  0  0  0  0  0
  -24.8900  -32.2915   26.4774 H   0  0  0  0  0  0
  -25.8003  -30.8938   27.0202 H   0  0  0  0  0  0
  -26.2955  -29.6710   24.1237 H   0  0  0  0  0  0
  -27.3982  -29.7241   25.4763 H   0  0  0  0  0  0
  -27.8837  -30.4187   23.9504 H   0  0  0  0  0  0
  -27.2708  -33.3590   26.2048 H   0  0  0  0  0  0
  -28.3880  -32.6877   25.0297 H   0  0  0  0  0  0
  -28.0748  -31.8426   26.5372 H   0  0  0  0  0  0
  -28.2612  -38.0059   24.7504 H   0  0  0  0  0  0
  -28.1065  -36.2610   24.6310 H   0  0  0  0  0  0
  -27.2288  -37.1440   25.8870 H   0  0  0  0  0  0
  -20.9435  -29.9085   21.7166 H   0  0  0  0  0  0
  -26.0158  -38.2819   24.1397 H   0  0  0  0  0  0
  -28.6426  -20.9476   22.1284 H   0  0  0  0  0  0
  -28.3692  -23.0630   23.0632 H   0  0  0  0  0  0
  -27.2952  -24.0825   22.1048 H   0  0  0  0  0  0
  -29.0226  -24.4325   22.1508 H   0  0  0  0  0  0
  -28.6748  -20.4197   16.5891 H   0  0  0  0  0  0
  -27.5862  -19.4885   17.5864 H   0  0  0  0  0  0
  -29.3057  -19.2183   17.6308 H   0  0  0  0  0  0
  -29.2263  -22.4203   16.4930 H   0  0  0  0  0  0
  -28.6231  -23.9410   16.9781 H   0  0  0  0  0  0
  -27.4759  -22.6377   16.7026 H   0  0  0  0  0  0
  -31.1141  -19.0264   19.1039 H   0  0  0  0  0  0
  -30.5735  -17.6155   18.1883 H   0  0  0  0  0  0
  -31.9329  -17.4961   19.2875 H   0  0  0  0  0  0
  -27.9751  -18.3286   19.6531 H   0  0  0  0  0  0
  -28.2478  -18.6006   21.3097 H   0  0  0  0  0  0
  -27.5871  -25.0449   18.4734 H   0  0  0  0  0  0
  -29.2587  -25.1634   18.7473 H   0  0  0  0  0  0
  -30.5576  -17.8223   21.2123 H   0  0  0  0  0  0
  -28.7337  -15.8318   20.4997 H   0  0  0  0  0  0
  1 25  1  0  0  0
  1 30  2  0  0  0
  1 84  1  0  0  0
  2  3  1  0  0  0
  2 25  1  0  0  0
  2 85  1  0  0  0
  2 86  1  0  0  0
  3  4  1  0  0  0
  3 87  1  0  0  0
  3 88  1  0  0  0
  4  5  1  0  0  0
  4 89  1  0  0  0
  4 90  1  0  0  0
  5  6  1  0  0  0
  5 26  1  0  0  0
  5 91  1  0  0  0
  6 25  1  0  0  0
  6 92  1  0  0  0
  6 93  1  0  0  0
  7  8  2  0  0  0
  7 26  1  0  0  0
  7 29  1  0  0  0
  8  9  1  0  0  0
  8 22  1  0  0  0
  9 10  1  0  0  0
  9 27  2  0  0  0
 10 11  2  0  0  0
 10 15  1  0  0  0
 11 12  1  0  0  0
 11 94  1  0  0  0
 12 13  2  0  0  0
 12 95  1  0  0  0
 13 14  1  0  0  0
 13 31  1  0  0  0
 14 15  2  0  0  0
 14 96  1  0  0  0
 15 97  1  0  0  0
 16 17  2  0  0  0
 16 21  1  0  0  0
 16 31  1  0  0  0
 17 18  1  0  0  0
 17 98  1  0  0  0
 18 19  2  0  0  0
 18 99  1  0  0  0
 19 20  1  0  0  0
 19 24  1  0  0  0
 20 21  2  0  0  0
 20100  1  0  0  0
 21 23  1  0  0  0
 22 28  1  0  0  0
 22 32  2  0  0  0
 26 27  1  0  0  0
 28101  1  0  0  0
 28102  1  0  0  0
 29103  1  0  0  0
 29104  1  0  0  0
 33 34  1  0  0  0
 33 66  1  0  0  0
 33 70  2  0  0  0
 34 36  1  0  0  0
 34 59  1  0  0  0
 34105  1  0  0  0
 35 44  2  0  0  0
 35 45  1  0  0  0
 35 68  1  0  0  0
 36 56  1  0  0  0
 36106  1  0  0  0
 37 39  1  0  0  0
 37 47  1  0  0  0
 37 66  1  0  0  0
 37107  1  0  0  0
 38 43  2  0  0  0
 38 46  1  0  0  0
 38 47  1  0  0  0
 39 64  1  0  0  0
 39 67  2  0  0  0
 40 52  1  0  0  0
 40 53  2  0  0  0
 40 58  1  0  0  0
 41108  1  0  0  0
 41109  1  0  0  0
 41110  1  0  0  0
 41 48  1  0  0  0
 42 43  1  0  0  0
 42 66  1  0  0  0
 42111  1  0  0  0
 42112  1  0  0  0
 43 44  1  0  0  0
 44113  1  0  0  0
 45 46  2  0  0  0
 45114  1  0  0  0
 46115  1  0  0  0
 47116  1  0  0  0
 47117  1  0  0  0
 48 56  1  0  0  0
 48 65  1  0  0  0
 48118  1  0  0  0
 49 50  1  0  0  0
 49 53  1  0  0  0
 49 64  1  0  0  0
 49119  1  0  0  0
 50 51  1  0  0  0
 50120  1  0  0  0
 50121  1  0  0  0
 51 52  1  0  0  0
 51122  1  0  0  0
 51123  1  0  0  0
 52124  1  0  0  0
 52125  1  0  0  0
 53 54  1  0  0  0
 54 55  2  0  0  0
 54126  1  0  0  0
 55 57  1  0  0  0
 55127  1  0  0  0
 56 69  2  0  0  0
 57 58  2  0  0  0
 57128  1  0  0  0
 58129  1  0  0  0
 59 60  1  0  0  0
 59 61  1  0  0  0
 59 62  1  0  0  0
 60130  1  0  0  0
 60131  1  0  0  0
 60132  1  0  0  0
 61133  1  0  0  0
 61134  1  0  0  0
 61135  1  0  0  0
 62136  1  0  0  0
 62137  1  0  0  0
 62138  1  0  0  0
 63 65  1  0  0  0
 63139  1  0  0  0
 63140  1  0  0  0
 63141  1  0  0  0
 64142  1  0  0  0
 65143  1  0  0  0
 68 82  1  0  0  0
 71 72  2  0  0  0
 71 73  1  0  0  0
 71144  1  0  0  0
 72 76  1  0  0  0
 72 77  1  0  0  0
 73 74  2  0  0  0
 73 81  1  0  0  0
 74 75  1  0  0  0
 74 78  1  0  0  0
 75 76  2  0  0  0
 75 79  1  0  0  0
 76 82  1  0  0  0
 77145  1  0  0  0
 77146  1  0  0  0
 77147  1  0  0  0
 78148  1  0  0  0
 78149  1  0  0  0
 78150  1  0  0  0
 79151  1  0  0  0
 79152  1  0  0  0
 79153  1  0  0  0
 80154  1  0  0  0
 80155  1  0  0  0
 80156  1  0  0  0
 80 83  1  0  0  0
 81 83  1  0  0  0
 81157  1  0  0  0
 81158  1  0  0  0
 82159  1  0  0  0
 82160  1  0  0  0
 83 84  1  0  0  0
 83161  1  0  0  0
 84162  1  0  0  0
M  ISO  4   1 100  68 101  82 101  84 100
M  END
> <chiral flag>
0

> <version>
0

> <s_m_source_file>
/data/baiqing/PycharmProjects/Reinvent-master-3.2/result/LINK_invent/BTK/process_docking_weight1_custom_sum_contain_oxygen_bond_distance_aromatic_linkinvent_7_9_3/rearranged_h_0145.sdf

> <i_m_source_file_index>
95

> <r_mmod_Potential_Energy-OPLS-2005>
443.869812011719

> <r_mmod_Stretch_Energy-OPLS-2005>
209.022079467773

> <r_mmod_Bend_Energy-OPLS-2005>
255.355728149414

> <r_mmod_Torsional_Energy-OPLS-2005>
215.993530273438

> <r_mmod_Improper_Torsional_Energy-OPLS-2005>
7.38554859161377

> <r_mmod_Van_der_Waal_Energy-OPLS-2005>
153.636978149414

> <r_mmod_Electrostatic_Energy-OPLS-2005>
-362.531005859375

> <r_mmod_Solvation_Energy-OPLS-2005>
-205.696884155273

> <b_mmod_Minimization_Converged-OPLS-2005>
0

> <r_mmod_RMS_Derivative-OPLS-2005>
5.40765762329102

$$$$
96
                    3D
 Structure written by MMmdl.
180190  0  0  1  0            999 V2000
  -30.7644  -14.3021   20.6888 C   0  0  0  0  0  0
  -30.4049  -12.2464   19.3867 C   0  0  0  0  0  0
  -29.4765  -12.5116   18.1858 C   0  0  0  0  0  0
  -27.9981  -12.3869   18.6017 C   0  0  0  0  0  0
  -27.6639  -13.1923   19.8834 C   0  0  2  0  0  0
  -28.6979  -12.8985   20.9923 C   0  0  0  0  0  0
  -25.2589  -13.8151   20.5676 C   0  0  0  0  0  0
  -24.1838  -13.0430   20.9189 C   0  0  0  0  0  0
  -24.6374  -11.6892   20.8733 C   0  0  0  0  0  0
  -23.9057  -10.4280   21.0399 C   0  0  0  0  0  0
  -24.3612   -9.4206   21.9191 C   0  0  0  0  0  0
  -23.6283   -8.2245   22.0765 C   0  0  0  0  0  0
  -22.4282   -8.0276   21.3533 C   0  0  0  0  0  0
  -21.9913   -9.0252   20.4636 C   0  0  0  0  0  0
  -22.7238  -10.2127   20.3041 C   0  0  0  0  0  0
  -21.6848   -6.0736   22.5282 C   0  0  0  0  0  0
  -21.4014   -6.5646   23.8213 C   0  0  0  0  0  0
  -21.3656   -5.6802   24.9180 C   0  0  0  0  0  0
  -21.6039   -4.3061   24.7230 C   0  0  0  0  0  0
  -21.8819   -3.8152   23.4350 C   0  0  0  0  0  0
  -21.9200   -4.6966   22.3405 C   0  0  0  0  0  0
  -22.7859  -13.5228   21.1838 C   0  0  0  0  0  0
  -22.1668   -4.2147   21.0982 F   0  0  0  0  0  0
  -21.5623   -3.4551   25.7746 F   0  0  0  0  0  0
  -30.0431  -13.1803   20.4584 N   0  0  0  0  0  0
  -26.3015  -12.9290   20.3388 N   0  0  0  0  0  0
  -25.9282  -11.6457   20.5748 N   0  0  0  0  0  0
  -22.0504  -12.8189   22.0380 N   0  0  0  0  0  0
  -25.4342  -15.1861   20.4069 N   0  0  0  0  0  0
  -31.8163  -14.5784   20.0980 O   0  0  0  0  0  0
  -21.6628   -6.8881   21.4246 O   0  0  0  0  0  0
  -22.3540  -14.5545   20.6721 O   0  0  0  0  0  0
  -24.6017  -31.8744   23.2134 C   0  0  0  0  0  0
  -25.8970  -32.4845   23.8419 C   0  0  1  0  0  0
  -27.2825  -27.5206   20.0846 C   0  0  0  0  0  0
  -25.5878  -33.8647   24.2351 N   0  0  0  0  0  0
  -23.3869  -30.4899   21.5501 C   0  0  2  0  0  0
  -24.8419  -28.9480   20.1288 C   0  0  0  0  0  0
  -22.7325  -29.4677   22.5039 C   0  0  0  0  0  0
  -18.0248  -28.1359   22.8497 C   0  0  0  0  0  0
  -24.1497  -36.7309   23.2630 C   0  0  0  0  0  0
  -25.9014  -30.8583   21.3590 C   0  0  0  0  0  0
  -25.9838  -29.4899   20.7266 C   0  0  0  0  0  0
  -27.1891  -28.7755   20.7297 C   0  0  0  0  0  0
  -26.1182  -26.9594   19.5184 C   0  0  0  0  0  0
  -24.8963  -27.6690   19.5380 C   0  0  0  0  0  0
  -23.5958  -29.8038   20.1696 C   0  0  0  0  0  0
  -25.4112  -36.3122   24.0344 C   0  0  1  0  0  0
  -20.5823  -28.3637   23.1341 C   0  0  2  0  0  0
  -20.6737  -26.9379   22.5426 C   0  0  0  0  0  0
  -19.5723  -26.6371   21.5211 C   0  0  0  0  0  0
  -18.1895  -26.7914   22.1612 C   0  0  0  0  0  0
  -19.1490  -28.8817   23.2922 C   0  0  0  0  0  0
  -18.9430  -30.1432   23.8908 C   0  0  0  0  0  0
  -17.6434  -30.6568   24.0559 C   0  0  0  0  0  0
  -25.9032  -34.9492   23.5141 C   0  0  0  0  0  0
  -16.5324  -29.9069   23.6327 C   0  0  0  0  0  0
  -16.7244  -28.6494   23.0342 C   0  0  0  0  0  0
  -26.4440  -31.6577   25.0711 C   0  0  0  0  0  0
  -25.3726  -31.3638   26.1464 C   0  0  0  0  0  0
  -27.0277  -30.3039   24.6015 C   0  0  0  0  0  0
  -27.6012  -32.4271   25.7501 C   0  0  0  0  0  0
  -27.5584  -37.1831   24.8461 C   0  0  0  0  0  0
  -21.4072  -29.3011   22.3759 N   0  0  0  0  0  0
  -26.4289  -37.3810   23.9414 N   0  0  0  0  0  0
  -24.6465  -31.0899   22.0999 N   0  0  0  0  0  0
  -23.4138  -28.8253   23.3090 O   0  0  0  0  0  0
  -28.4928  -26.8774   19.9416 O   0  0  0  0  0  0
  -26.5587  -34.8925   22.4703 O   0  0  0  0  0  0
  -23.5241  -32.1501   23.7570 O   0  0  0  0  0  0
  -29.2411  -24.6470   17.8780 C   0  0  0  0  0  0
  -31.6665  -24.6112   17.8686 C   0  0  0  0  0  0
  -30.4253  -22.5686   18.4346 C   0  0  0  0  0  0
  -29.2043  -23.2796   18.2143 C   0  0  0  0  0  0
  -31.6614  -23.2471   18.2086 C   0  0  0  0  0  0
  -30.4619  -25.3228   17.7821 C   0  0  0  0  0  0
  -30.9266  -17.2465   22.5722 C   0  0  0  0  0  0
  -30.4977  -21.2126   20.5735 C   0  0  0  0  0  0
  -29.4573  -20.1039   18.6034 C   0  0  0  0  0  0
  -31.0588  -15.7184   22.6629 C   0  0  0  0  0  0
  -29.5162  -16.2756   20.9778 C   0  0  0  0  0  0
  -30.8830  -19.8469   21.1564 C   0  0  0  0  0  0
  -29.8524  -18.7375   19.1778 C   0  0  0  0  0  0
  -30.4853  -21.1565   19.0420 C   0  0  1  0  0  0
  -30.5169  -17.4179   21.1131 C   0  0  1  0  0  0
  -27.8172  -22.6841   18.3924 C   0  0  0  0  0  0
  -33.0213  -22.5912   18.4215 C   0  0  0  0  0  0
  -29.6001  -27.7848   19.7657 C   0  0  0  0  0  0
  -30.8234  -27.1926   19.0579 C   0  0  0  0  0  0
  -30.2257  -15.1523   21.5832 N   0  0  0  0  0  0
  -30.0127  -18.7395   20.6675 N   0  3  1  0  0  0
  -30.4772  -26.6863   17.7671 O   0  0  0  0  0  0
  -31.4500  -12.3356   19.0853 H   0  0  0  0  0  0
  -30.2857  -11.2203   19.7392 H   0  0  0  0  0  0
  -29.6894  -11.8083   17.3804 H   0  0  0  0  0  0
  -29.6672  -13.5070   17.7823 H   0  0  0  0  0  0
  -27.7860  -11.3304   18.7643 H   0  0  0  0  0  0
  -27.3523  -12.7055   17.7824 H   0  0  0  0  0  0
  -27.7310  -14.2479   19.6263 H   0  0  0  0  0  0
  -28.6455  -11.8477   21.2822 H   0  0  0  0  0  0
  -28.4547  -13.4532   21.8993 H   0  0  0  0  0  0
  -25.2759   -9.5689   22.4766 H   0  0  0  0  0  0
  -23.9995   -7.4645   22.7493 H   0  0  0  0  0  0
  -21.0852   -8.8760   19.8924 H   0  0  0  0  0  0
  -22.3708  -10.9667   19.6136 H   0  0  0  0  0  0
  -21.1997   -7.6159   23.9709 H   0  0  0  0  0  0
  -21.1481   -6.0542   25.9084 H   0  0  0  0  0  0
  -22.0606   -2.7616   23.2867 H   0  0  0  0  0  0
  -22.4145  -11.9825   22.4705 H   0  0  0  0  0  0
  -21.1100  -13.1160   22.2559 H   0  0  0  0  0  0
  -24.6667  -15.8445   20.4939 H   0  0  0  0  0  0
  -26.2787  -15.6124   20.0489 H   0  0  0  0  0  0
  -26.7051  -32.5602   23.1207 H   0  0  0  0  0  0
  -25.0107  -33.9855   25.0542 H   0  0  0  0  0  0
  -22.6705  -31.3016   21.4048 H   0  0  0  0  0  0
  -23.3779  -35.9617   23.3272 H   0  0  0  0  0  0
  -24.3598  -36.8956   22.2047 H   0  0  0  0  0  0
  -23.7233  -37.6493   23.6678 H   0  0  0  0  0  0
  -26.0008  -31.6180   20.5826 H   0  0  0  0  0  0
  -26.7926  -30.9227   21.9713 H   0  0  0  0  0  0
  -28.0498  -29.2222   21.2052 H   0  0  0  0  0  0
  -26.1702  -25.9956   19.0314 H   0  0  0  0  0  0
  -24.0164  -27.2343   19.0835 H   0  0  0  0  0  0
  -23.6913  -30.5705   19.3990 H   0  0  0  0  0  0
  -22.7281  -29.2067   19.8838 H   0  0  0  0  0  0
  -25.1276  -36.1995   25.0833 H   0  0  0  0  0  0
  -20.9902  -28.3194   24.1468 H   0  0  0  0  0  0
  -20.5628  -26.2235   23.3603 H   0  0  0  0  0  0
  -21.6619  -26.7426   22.1228 H   0  0  0  0  0  0
  -19.6889  -25.6293   21.1222 H   0  0  0  0  0  0
  -19.6660  -27.3200   20.6755 H   0  0  0  0  0  0
  -17.4169  -26.6674   21.3997 H   0  0  0  0  0  0
  -18.0273  -26.0035   22.8984 H   0  0  0  0  0  0
  -19.7909  -30.7253   24.2247 H   0  0  0  0  0  0
  -17.4995  -31.6246   24.5164 H   0  0  0  0  0  0
  -15.5332  -30.2976   23.7645 H   0  0  0  0  0  0
  -15.8644  -28.0839   22.7015 H   0  0  0  0  0  0
  -24.5838  -30.7077   25.7772 H   0  0  0  0  0  0
  -24.8995  -32.2782   26.5035 H   0  0  0  0  0  0
  -25.8081  -30.8678   27.0143 H   0  0  0  0  0  0
  -26.2836  -29.6842   24.0993 H   0  0  0  0  0  0
  -27.4008  -29.7208   25.4442 H   0  0  0  0  0  0
  -27.8676  -30.4395   23.9196 H   0  0  0  0  0  0
  -27.2624  -33.3547   26.2122 H   0  0  0  0  0  0
  -28.3819  -32.6854   25.0339 H   0  0  0  0  0  0
  -28.0669  -31.8353   26.5391 H   0  0  0  0  0  0
  -28.2574  -38.0154   24.7531 H   0  0  0  0  0  0
  -28.1107  -36.2687   24.6252 H   0  0  0  0  0  0
  -27.2302  -37.1421   25.8859 H   0  0  0  0  0  0
  -20.9212  -29.8727   21.6982 H   0  0  0  0  0  0
  -26.0172  -38.2883   24.1420 H   0  0  0  0  0  0
  -28.3254  -25.2159   17.7898 H   0  0  0  0  0  0
  -32.5990  -25.1496   17.7742 H   0  0  0  0  0  0
  -31.8578  -17.7520   22.8320 H   0  0  0  0  0  0
  -30.1419  -17.5990   23.2458 H   0  0  0  0  0  0
  -31.2242  -21.9507   20.9149 H   0  0  0  0  0  0
  -29.5296  -21.5383   20.9561 H   0  0  0  0  0  0
  -28.4549  -20.3143   18.9630 H   0  0  0  0  0  0
  -29.4107  -20.0456   17.5149 H   0  0  0  0  0  0
  -30.7463  -15.3386   23.6360 H   0  0  0  0  0  0
  -32.1086  -15.4387   22.5364 H   0  0  0  0  0  0
  -29.2209  -16.0854   19.9439 H   0  0  0  0  0  0
  -28.6014  -16.4640   21.5426 H   0  0  0  0  0  0
  -30.8389  -19.9065   22.2439 H   0  0  0  0  0  0
  -31.9214  -19.6270   20.9021 H   0  0  0  0  0  0
  -30.7832  -18.4136   18.7092 H   0  0  0  0  0  0
  -29.0966  -18.0126   18.8775 H   0  0  0  0  0  0
  -31.4300  -20.7192   18.7278 H   0  0  0  0  0  0
  -31.4005  -17.1959   20.5111 H   0  0  0  0  0  0
  -27.0372  -23.4297   18.2356 H   0  0  0  0  0  0
  -27.6801  -22.2987   19.4020 H   0  0  0  0  0  0
  -27.6377  -21.8985   17.6590 H   0  0  0  0  0  0
  -33.8357  -23.2566   18.1388 H   0  0  0  0  0  0
  -33.1339  -21.6913   17.8183 H   0  0  0  0  0  0
  -33.1646  -22.3366   19.4715 H   0  0  0  0  0  0
  -29.2957  -28.6599   19.1872 H   0  0  0  0  0  0
  -29.9254  -28.1413   20.7441 H   0  0  0  0  0  0
  -31.2885  -26.4524   19.7129 H   0  0  0  0  0  0
  -31.5723  -27.9731   18.9197 H   0  0  0  0  0  0
  -29.1006  -18.8812   21.0784 H   0  0  0  0  0  0
  1 25  1  0  0  0
  1 30  2  0  0  0
  1 90  1  0  0  0
  2  3  1  0  0  0
  2 25  1  0  0  0
  2 93  1  0  0  0
  2 94  1  0  0  0
  3  4  1  0  0  0
  3 95  1  0  0  0
  3 96  1  0  0  0
  4  5  1  0  0  0
  4 97  1  0  0  0
  4 98  1  0  0  0
  5  6  1  0  0  0
  5 26  1  0  0  0
  5 99  1  0  0  0
  6 25  1  0  0  0
  6100  1  0  0  0
  6101  1  0  0  0
  7  8  2  0  0  0
  7 26  1  0  0  0
  7 29  1  0  0  0
  8  9  1  0  0  0
  8 22  1  0  0  0
  9 10  1  0  0  0
  9 27  2  0  0  0
 10 11  2  0  0  0
 10 15  1  0  0  0
 11 12  1  0  0  0
 11102  1  0  0  0
 12 13  2  0  0  0
 12103  1  0  0  0
 13 14  1  0  0  0
 13 31  1  0  0  0
 14 15  2  0  0  0
 14104  1  0  0  0
 15105  1  0  0  0
 16 17  2  0  0  0
 16 21  1  0  0  0
 16 31  1  0  0  0
 17 18  1  0  0  0
 17106  1  0  0  0
 18 19  2  0  0  0
 18107  1  0  0  0
 19 20  1  0  0  0
 19 24  1  0  0  0
 20 21  2  0  0  0
 20108  1  0  0  0
 21 23  1  0  0  0
 22 28  1  0  0  0
 22 32  2  0  0  0
 26 27  1  0  0  0
 28109  1  0  0  0
 28110  1  0  0  0
 29111  1  0  0  0
 29112  1  0  0  0
 33 34  1  0  0  0
 33 66  1  0  0  0
 33 70  2  0  0  0
 34 36  1  0  0  0
 34 59  1  0  0  0
 34113  1  0  0  0
 35 44  2  0  0  0
 35 45  1  0  0  0
 35 68  1  0  0  0
 36 56  1  0  0  0
 36114  1  0  0  0
 37 39  1  0  0  0
 37 47  1  0  0  0
 37 66  1  0  0  0
 37115  1  0  0  0
 38 43  2  0  0  0
 38 46  1  0  0  0
 38 47  1  0  0  0
 39 64  1  0  0  0
 39 67  2  0  0  0
 40 52  1  0  0  0
 40 53  2  0  0  0
 40 58  1  0  0  0
 41116  1  0  0  0
 41117  1  0  0  0
 41118  1  0  0  0
 41 48  1  0  0  0
 42 43  1  0  0  0
 42 66  1  0  0  0
 42119  1  0  0  0
 42120  1  0  0  0
 43 44  1  0  0  0
 44121  1  0  0  0
 45 46  2  0  0  0
 45122  1  0  0  0
 46123  1  0  0  0
 47124  1  0  0  0
 47125  1  0  0  0
 48 56  1  0  0  0
 48 65  1  0  0  0
 48126  1  0  0  0
 49 50  1  0  0  0
 49 53  1  0  0  0
 49 64  1  0  0  0
 49127  1  0  0  0
 50 51  1  0  0  0
 50128  1  0  0  0
 50129  1  0  0  0
 51 52  1  0  0  0
 51130  1  0  0  0
 51131  1  0  0  0
 52132  1  0  0  0
 52133  1  0  0  0
 53 54  1  0  0  0
 54 55  2  0  0  0
 54134  1  0  0  0
 55 57  1  0  0  0
 55135  1  0  0  0
 56 69  2  0  0  0
 57 58  2  0  0  0
 57136  1  0  0  0
 58137  1  0  0  0
 59 60  1  0  0  0
 59 61  1  0  0  0
 59 62  1  0  0  0
 60138  1  0  0  0
 60139  1  0  0  0
 60140  1  0  0  0
 61141  1  0  0  0
 61142  1  0  0  0
 61143  1  0  0  0
 62144  1  0  0  0
 62145  1  0  0  0
 62146  1  0  0  0
 63 65  1  0  0  0
 63147  1  0  0  0
 63148  1  0  0  0
 63149  1  0  0  0
 64150  1  0  0  0
 65151  1  0  0  0
 68 88  1  0  0  0
 71 74  2  0  0  0
 71 76  1  0  0  0
 71152  1  0  0  0
 72 75  1  0  0  0
 72 76  2  0  0  0
 72153  1  0  0  0
 73 74  1  0  0  0
 73 75  2  0  0  0
 73 84  1  0  0  0
 74 86  1  0  0  0
 75 87  1  0  0  0
 76 92  1  0  0  0
 77 80  1  0  0  0
 77154  1  0  0  0
 77155  1  0  0  0
 77 85  1  0  0  0
 78 82  1  0  0  0
 78 84  1  0  0  0
 78156  1  0  0  0
 78157  1  0  0  0
 79 83  1  0  0  0
 79 84  1  0  0  0
 79158  1  0  0  0
 79159  1  0  0  0
 80 90  1  0  0  0
 80160  1  0  0  0
 80161  1  0  0  0
 81 85  1  0  0  0
 81 90  1  0  0  0
 81162  1  0  0  0
 81163  1  0  0  0
 82164  1  0  0  0
 82165  1  0  0  0
 82 91  1  0  0  0
 83 91  1  0  0  0
 83166  1  0  0  0
 83167  1  0  0  0
 84168  1  0  0  0
 85 91  1  0  0  0
 85169  1  0  0  0
 86170  1  0  0  0
 86171  1  0  0  0
 86172  1  0  0  0
 87173  1  0  0  0
 87174  1  0  0  0
 87175  1  0  0  0
 88 89  1  0  0  0
 88176  1  0  0  0
 88177  1  0  0  0
 89 92  1  0  0  0
 89178  1  0  0  0
 89179  1  0  0  0
 91180  1  0  0  0
M  CHG  1  91   1
M  ISO  4   1 100  68 101  88 101  90 100
M  END
> <chiral flag>
0

> <version>
0

> <s_m_source_file>
/data/baiqing/PycharmProjects/Reinvent-master-3.2/result/LINK_invent/BTK/process_docking_weight1_custom_sum_contain_oxygen_bond_distance_aromatic_linkinvent_7_9_3/rearranged_h_0145.sdf

> <i_m_source_file_index>
96

> <r_mmod_Potential_Energy-OPLS-2005>
155.665969848633

> <r_mmod_Stretch_Energy-OPLS-2005>
38.7388153076172

> <r_mmod_Bend_Energy-OPLS-2005>
158.688674926758

> <r_mmod_Torsional_Energy-OPLS-2005>
397.597961425781

> <r_mmod_Improper_Torsional_Energy-OPLS-2005>
9.10412788391113

> <r_mmod_Van_der_Waal_Energy-OPLS-2005>
189.079330444336

> <r_mmod_Electrostatic_Energy-OPLS-2005>
-212.608291625977

> <r_mmod_Solvation_Energy-OPLS-2005>
-435.352874755859

> <b_mmod_Minimization_Converged-OPLS-2005>
0

> <r_mmod_RMS_Derivative-OPLS-2005>
2.63735103607178

$$$$
