0
                    3D
 Structure written by MMmdl.
148157  0  0  1  0            999 V2000
  -30.4170  -15.4061   20.3505 C   0  0  0  0  0  0
  -30.4255  -12.9057   19.5463 C   0  0  0  0  0  0
  -29.5384  -12.6086   18.3093 C   0  0  0  0  0  0
  -28.0964  -12.3026   18.7399 C   0  0  0  0  0  0
  -27.6032  -13.2913   19.8234 C   0  0  2  0  0  0
  -28.6294  -13.5314   20.9548 C   0  0  0  0  0  0
  -25.2298  -13.8190   20.5714 C   0  0  0  0  0  0
  -24.1689  -13.0379   20.9252 C   0  0  0  0  0  0
  -24.6397  -11.6900   20.8772 C   0  0  0  0  0  0
  -23.9103  -10.4263   21.0410 C   0  0  0  0  0  0
  -24.3640   -9.4181   21.9190 C   0  0  0  0  0  0
  -23.6299   -8.2227   22.0758 C   0  0  0  0  0  0
  -22.4281   -8.0274   21.3546 C   0  0  0  0  0  0
  -21.9927   -9.0250   20.4645 C   0  0  0  0  0  0
  -22.7272  -10.2120   20.3056 C   0  0  0  0  0  0
  -21.6851   -6.0730   22.5279 C   0  0  0  0  0  0
  -21.4014   -6.5638   23.8212 C   0  0  0  0  0  0
  -21.3659   -5.6790   24.9174 C   0  0  0  0  0  0
  -21.6044   -4.3052   24.7224 C   0  0  0  0  0  0
  -21.8819   -3.8142   23.4347 C   0  0  0  0  0  0
  -21.9195   -4.6957   22.3402 C   0  0  0  0  0  0
  -22.7714  -13.5144   21.1903 C   0  0  0  0  0  0
  -22.1665   -4.2148   21.0977 F   0  0  0  0  0  0
  -21.5629   -3.4535   25.7738 F   0  0  0  0  0  0
  -29.8447  -14.0814   20.3218 N   0  0  0  0  0  0
  -26.2780  -12.9539   20.3247 N   0  0  0  0  0  0
  -25.9349  -11.6629   20.5753 N   0  0  0  0  0  0
  -22.0383  -12.8134   22.0468 N   0  0  0  0  0  0
  -25.3811  -15.1887   20.4061 N   0  0  0  0  0  0
  -31.6288  -15.3314   20.0859 O   0  0  0  0  0  0
  -21.6637   -6.8878   21.4243 O   0  0  0  0  0  0
  -22.3397  -14.5453   20.6754 O   0  0  0  0  0  0
  -24.6690  -31.8148   23.1625 C   0  0  0  0  0  0
  -25.9343  -32.4539   23.8115 C   0  0  1  0  0  0
  -27.2283  -26.8524   20.1906 C   0  0  0  0  0  0
  -25.5981  -33.8357   24.2018 N   0  0  0  0  0  0
  -23.4882  -30.4213   21.5124 C   0  0  2  0  0  0
  -24.9456  -28.7920   20.1085 C   0  0  0  0  0  0
  -22.7696  -29.4393   22.4747 C   0  0  0  0  0  0
  -18.0331  -28.1420   22.8463 C   0  0  0  0  0  0
  -24.1495  -36.7189   23.2651 C   0  0  0  0  0  0
  -26.0601  -30.5953   21.4057 C   0  0  0  0  0  0
  -26.1277  -29.1769   20.7515 C   0  0  0  0  0  0
  -27.2557  -28.2276   20.7700 C   0  0  0  0  0  0
  -26.0198  -26.6409   19.4868 C   0  0  0  0  0  0
  -24.9216  -27.5472   19.4550 C   0  0  0  0  0  0
  -23.7332  -29.7282   20.1413 C   0  0  0  0  0  0
  -25.4141  -36.2941   24.0292 C   0  0  1  0  0  0
  -20.5956  -28.3770   23.1171 C   0  0  2  0  0  0
  -20.6804  -26.9442   22.5404 C   0  0  0  0  0  0
  -19.5777  -26.6380   21.5216 C   0  0  0  0  0  0
  -18.1961  -26.7951   22.1623 C   0  0  0  0  0  0
  -19.1592  -28.8917   23.2803 C   0  0  0  0  0  0
  -18.9503  -30.1506   23.8843 C   0  0  0  0  0  0
  -17.6494  -30.6604   24.0557 C   0  0  0  0  0  0
  -25.9109  -34.9325   23.4983 C   0  0  0  0  0  0
  -16.5386  -29.9090   23.6346 C   0  0  0  0  0  0
  -16.7313  -28.6514   23.0360 C   0  0  0  0  0  0
  -26.4568  -31.6521   25.0682 C   0  0  0  0  0  0
  -25.3674  -31.3798   26.1326 C   0  0  0  0  0  0
  -27.0485  -30.2879   24.6480 C   0  0  0  0  0  0
  -27.6040  -32.4351   25.7496 C   0  0  0  0  0  0
  -27.5562  -37.1760   24.8471 C   0  0  0  0  0  0
  -21.4356  -29.3040   22.3503 N   0  0  0  0  0  0
  -26.4282  -37.3681   23.9396 N   0  0  0  0  0  0
  -24.7608  -30.9729   22.0803 N   0  0  0  0  0  0
  -23.4209  -28.7978   23.3029 O   0  0  0  0  0  0
  -28.2243  -25.7201   20.3255 O   0  0  0  0  0  0
  -26.5729  -34.8877   22.4587 O   0  0  0  0  0  0
  -23.5745  -32.1161   23.6671 O   0  0  0  0  0  0
  -29.2162  -19.3756   20.4239 C   0  0  0  0  0  0
  -30.0885  -18.1088   19.9502 C   0  0  0  0  0  0
  -29.2757  -20.8500   20.1265 C   0  0  0  0  0  0
  -27.2874  -17.6542   20.7753 C   0  0  0  0  0  0
  -28.3058  -18.6102   21.3275 C   0  0  1  0  0  0
  -28.5918  -17.0613   21.2953 C   0  0  2  0  0  0
  -28.6156  -22.4328   20.6426 C   0  0  0  0  0  0
  -28.2377  -24.0849   19.8877 C   0  0  0  0  0  0
  -29.7178  -16.7600   20.4241 N   0  0  0  0  0  0
  -31.0548  -18.2554   19.1965 O   0  0  0  0  0  0
  -31.4418  -13.1038   19.2045 H   0  0  0  0  0  0
  -30.5107  -12.0226   20.1814 H   0  0  0  0  0  0
  -29.9452  -11.7742   17.7366 H   0  0  0  0  0  0
  -29.5460  -13.4722   17.6433 H   0  0  0  0  0  0
  -28.0797  -11.2873   19.1378 H   0  0  0  0  0  0
  -27.4281  -12.3072   17.8780 H   0  0  0  0  0  0
  -27.4966  -14.2416   19.2981 H   0  0  0  0  0  0
  -28.8299  -12.6169   21.5149 H   0  0  0  0  0  0
  -28.2347  -14.2496   21.6732 H   0  0  0  0  0  0
  -25.2782   -9.5656   22.4770 H   0  0  0  0  0  0
  -23.9998   -7.4620   22.7484 H   0  0  0  0  0  0
  -21.0853   -8.8780   19.8952 H   0  0  0  0  0  0
  -22.3734  -10.9663   19.6166 H   0  0  0  0  0  0
  -21.2003   -7.6147   23.9716 H   0  0  0  0  0  0
  -21.1481   -6.0519   25.9079 H   0  0  0  0  0  0
  -22.0596   -2.7603   23.2847 H   0  0  0  0  0  0
  -22.4022  -11.9807   22.4862 H   0  0  0  0  0  0
  -21.1005  -13.1152   22.2698 H   0  0  0  0  0  0
  -24.6059  -15.8319   20.5212 H   0  0  0  0  0  0
  -26.2328  -15.6388   20.0990 H   0  0  0  0  0  0
  -26.7415  -32.5052   23.0824 H   0  0  0  0  0  0
  -25.0059  -33.9411   25.0123 H   0  0  0  0  0  0
  -22.8060  -31.2551   21.3334 H   0  0  0  0  0  0
  -23.3760  -35.9516   23.3299 H   0  0  0  0  0  0
  -24.3558  -36.8854   22.2066 H   0  0  0  0  0  0
  -23.7256  -37.6374   23.6724 H   0  0  0  0  0  0
  -26.2473  -31.3313   20.6229 H   0  0  0  0  0  0
  -26.9167  -30.6561   22.0648 H   0  0  0  0  0  0
  -28.1425  -28.5178   21.3157 H   0  0  0  0  0  0
  -25.8804  -25.6916   18.9913 H   0  0  0  0  0  0
  -24.0261  -27.2470   18.9285 H   0  0  0  0  0  0
  -23.8937  -30.4933   19.3807 H   0  0  0  0  0  0
  -22.8417  -29.1851   19.8225 H   0  0  0  0  0  0
  -25.1345  -36.1726   25.0783 H   0  0  0  0  0  0
  -21.0047  -28.3395   24.1292 H   0  0  0  0  0  0
  -20.5682  -26.2390   23.3656 H   0  0  0  0  0  0
  -21.6666  -26.7410   22.1211 H   0  0  0  0  0  0
  -19.6935  -25.6274   21.1283 H   0  0  0  0  0  0
  -19.6716  -27.3158   20.6721 H   0  0  0  0  0  0
  -17.4228  -26.6694   21.4031 H   0  0  0  0  0  0
  -18.0357  -26.0109   22.9034 H   0  0  0  0  0  0
  -19.7979  -30.7338   24.2183 H   0  0  0  0  0  0
  -17.5047  -31.6274   24.5175 H   0  0  0  0  0  0
  -15.5383  -30.2974   23.7703 H   0  0  0  0  0  0
  -15.8717  -28.0817   22.7099 H   0  0  0  0  0  0
  -24.5867  -30.7138   25.7630 H   0  0  0  0  0  0
  -24.8855  -32.3011   26.4608 H   0  0  0  0  0  0
  -25.7887  -30.9054   27.0198 H   0  0  0  0  0  0
  -26.3174  -29.6524   24.1472 H   0  0  0  0  0  0
  -27.3971  -29.7278   25.5166 H   0  0  0  0  0  0
  -27.9127  -30.4037   23.9938 H   0  0  0  0  0  0
  -27.2591  -33.3697   26.1927 H   0  0  0  0  0  0
  -28.3931  -32.6839   25.0389 H   0  0  0  0  0  0
  -28.0622  -31.8580   26.5537 H   0  0  0  0  0  0
  -28.2583  -38.0050   24.7476 H   0  0  0  0  0  0
  -28.1053  -36.2570   24.6358 H   0  0  0  0  0  0
  -27.2265  -37.1472   25.8872 H   0  0  0  0  0  0
  -20.9634  -29.8705   21.6596 H   0  0  0  0  0  0
  -26.0124  -38.2742   24.1381 H   0  0  0  0  0  0
  -30.0777  -21.0485   19.4293 H   0  0  0  0  0  0
  -27.1160  -17.6598   19.6997 H   0  0  0  0  0  0
  -26.3922  -17.5150   21.3783 H   0  0  0  0  0  0
  -28.1141  -19.0797   22.2905 H   0  0  0  0  0  0
  -28.5561  -16.5444   22.2530 H   0  0  0  0  0  0
  -29.3504  -22.7021   21.4014 H   0  0  0  0  0  0
  -27.7325  -22.1747   21.2277 H   0  0  0  0  0  0
  -27.2773  -23.9363   19.3965 H   0  0  0  0  0  0
  -28.9368  -24.1177   19.0521 H   0  0  0  0  0  0
  1 25  1  0  0  0
  1 30  2  0  0  0
  1 79  1  0  0  0
  2  3  1  0  0  0
  2 25  1  0  0  0
  2 81  1  0  0  0
  2 82  1  0  0  0
  3  4  1  0  0  0
  3 83  1  0  0  0
  3 84  1  0  0  0
  4  5  1  0  0  0
  4 85  1  0  0  0
  4 86  1  0  0  0
  5  6  1  0  0  0
  5 26  1  0  0  0
  5 87  1  0  0  0
  6 25  1  0  0  0
  6 88  1  0  0  0
  6 89  1  0  0  0
  7  8  2  0  0  0
  7 26  1  0  0  0
  7 29  1  0  0  0
  8  9  1  0  0  0
  8 22  1  0  0  0
  9 10  1  0  0  0
  9 27  2  0  0  0
 10 11  2  0  0  0
 10 15  1  0  0  0
 11 12  1  0  0  0
 11 90  1  0  0  0
 12 13  2  0  0  0
 12 91  1  0  0  0
 13 14  1  0  0  0
 13 31  1  0  0  0
 14 15  2  0  0  0
 14 92  1  0  0  0
 15 93  1  0  0  0
 16 17  2  0  0  0
 16 21  1  0  0  0
 16 31  1  0  0  0
 17 18  1  0  0  0
 17 94  1  0  0  0
 18 19  2  0  0  0
 18 95  1  0  0  0
 19 20  1  0  0  0
 19 24  1  0  0  0
 20 21  2  0  0  0
 20 96  1  0  0  0
 21 23  1  0  0  0
 22 28  1  0  0  0
 22 32  2  0  0  0
 26 27  1  0  0  0
 28 97  1  0  0  0
 28 98  1  0  0  0
 29 99  1  0  0  0
 29100  1  0  0  0
 33 34  1  0  0  0
 33 66  1  0  0  0
 33 70  2  0  0  0
 34 36  1  0  0  0
 34 59  1  0  0  0
 34101  1  0  0  0
 35 44  2  0  0  0
 35 45  1  0  0  0
 35 68  1  0  0  0
 36 56  1  0  0  0
 36102  1  0  0  0
 37 39  1  0  0  0
 37 47  1  0  0  0
 37 66  1  0  0  0
 37103  1  0  0  0
 38 43  2  0  0  0
 38 46  1  0  0  0
 38 47  1  0  0  0
 39 64  1  0  0  0
 39 67  2  0  0  0
 40 52  1  0  0  0
 40 53  2  0  0  0
 40 58  1  0  0  0
 41104  1  0  0  0
 41105  1  0  0  0
 41106  1  0  0  0
 41 48  1  0  0  0
 42 43  1  0  0  0
 42 66  1  0  0  0
 42107  1  0  0  0
 42108  1  0  0  0
 43 44  1  0  0  0
 44109  1  0  0  0
 45 46  2  0  0  0
 45110  1  0  0  0
 46111  1  0  0  0
 47112  1  0  0  0
 47113  1  0  0  0
 48 56  1  0  0  0
 48 65  1  0  0  0
 48114  1  0  0  0
 49 50  1  0  0  0
 49 53  1  0  0  0
 49 64  1  0  0  0
 49115  1  0  0  0
 50 51  1  0  0  0
 50116  1  0  0  0
 50117  1  0  0  0
 51 52  1  0  0  0
 51118  1  0  0  0
 51119  1  0  0  0
 52120  1  0  0  0
 52121  1  0  0  0
 53 54  1  0  0  0
 54 55  2  0  0  0
 54122  1  0  0  0
 55 57  1  0  0  0
 55123  1  0  0  0
 56 69  2  0  0  0
 57 58  2  0  0  0
 57124  1  0  0  0
 58125  1  0  0  0
 59 60  1  0  0  0
 59 61  1  0  0  0
 59 62  1  0  0  0
 60126  1  0  0  0
 60127  1  0  0  0
 60128  1  0  0  0
 61129  1  0  0  0
 61130  1  0  0  0
 61131  1  0  0  0
 62132  1  0  0  0
 62133  1  0  0  0
 62134  1  0  0  0
 63 65  1  0  0  0
 63135  1  0  0  0
 63136  1  0  0  0
 63137  1  0  0  0
 64138  1  0  0  0
 65139  1  0  0  0
 68 78  1  0  0  0
 71 72  1  0  0  0
 71 73  2  0  0  0
 71 75  1  0  0  0
 72 79  1  0  0  0
 72 80  2  0  0  0
 73 77  1  0  0  0
 73140  1  0  0  0
 74141  1  0  0  0
 74142  1  0  0  0
 74 75  1  0  0  0
 74 76  1  0  0  0
 75 76  1  0  0  0
 75143  1  0  0  0
 76 79  1  0  0  0
 76144  1  0  0  0
 77 78  1  0  0  0
 77145  1  0  0  0
 77146  1  0  0  0
 78147  1  0  0  0
 78148  1  0  0  0
M  ISO  4   1 100  68 101  78 101  79 100
M  END
> <chiral flag>
0

> <version>
0

> <s_m_source_file>
/data/baiqing/PycharmProjects/Reinvent-master-3.2/result/LINK_invent/BTK/process_docking_weight1_custom_sum_contain_oxygen_bond_distance_aromatic_linkinvent_7_9_3/rearranged_h_0192.sdf

> <i_m_source_file_index>
1

> <r_mmod_Potential_Energy-OPLS-2005>
1809.32055664062

> <r_mmod_Stretch_Energy-OPLS-2005>
705.24560546875

> <r_mmod_Bend_Energy-OPLS-2005>
559.881408691406

> <r_mmod_Torsional_Energy-OPLS-2005>
348.102844238281

> <r_mmod_Improper_Torsional_Energy-OPLS-2005>
5.90113544464111

> <r_mmod_Van_der_Waal_Energy-OPLS-2005>
109.159103393555

> <r_mmod_Electrostatic_Energy-OPLS-2005>
-304.62841796875

> <r_mmod_Solvation_Energy-OPLS-2005>
-207.826232910156

> <b_mmod_Minimization_Converged-OPLS-2005>
0

> <r_mmod_RMS_Derivative-OPLS-2005>
0.824039697647095

$$$$
1
                    3D
 Structure written by MMmdl.
170180  0  0  1  0            999 V2000
  -30.5643  -14.8814   20.4361 C   0  0  0  0  0  0
  -30.4343  -12.5436   19.4855 C   0  0  0  0  0  0
  -29.5129  -12.5277   18.2450 C   0  0  0  0  0  0
  -28.0424  -12.3323   18.6613 C   0  0  0  0  0  0
  -27.6324  -13.2475   19.8447 C   0  0  2  0  0  0
  -28.6777  -13.2387   20.9790 C   0  0  0  0  0  0
  -25.2469  -13.8218   20.5733 C   0  0  0  0  0  0
  -24.1774  -13.0436   20.9218 C   0  0  0  0  0  0
  -24.6396  -11.6926   20.8753 C   0  0  0  0  0  0
  -23.9085  -10.4289   21.0405 C   0  0  0  0  0  0
  -24.3634   -9.4202   21.9180 C   0  0  0  0  0  0
  -23.6310   -8.2236   22.0756 C   0  0  0  0  0  0
  -22.4292   -8.0276   21.3544 C   0  0  0  0  0  0
  -21.9922   -9.0250   20.4643 C   0  0  0  0  0  0
  -22.7255  -10.2127   20.3058 C   0  0  0  0  0  0
  -21.6858   -6.0737   22.5283 C   0  0  0  0  0  0
  -21.4013   -6.5644   23.8215 C   0  0  0  0  0  0
  -21.3666   -5.6802   24.9181 C   0  0  0  0  0  0
  -21.6050   -4.3064   24.7234 C   0  0  0  0  0  0
  -21.8820   -3.8153   23.4355 C   0  0  0  0  0  0
  -21.9194   -4.6964   22.3408 C   0  0  0  0  0  0
  -22.7790  -13.5191   21.1885 C   0  0  0  0  0  0
  -22.1656   -4.2151   21.0985 F   0  0  0  0  0  0
  -21.5635   -3.4546   25.7746 F   0  0  0  0  0  0
  -29.9596  -13.6313   20.3827 N   0  0  0  0  0  0
  -26.2897  -12.9453   20.3288 N   0  0  0  0  0  0
  -25.9330  -11.6576   20.5751 N   0  0  0  0  0  0
  -22.0462  -12.8157   22.0441 N   0  0  0  0  0  0
  -25.4172  -15.1946   20.4197 N   0  0  0  0  0  0
  -31.7641  -14.9561   20.1520 O   0  0  0  0  0  0
  -21.6653   -6.8878   21.4242 O   0  0  0  0  0  0
  -22.3458  -14.5492   20.6740 O   0  0  0  0  0  0
  -24.6401  -31.8475   23.1913 C   0  0  0  0  0  0
  -25.9185  -32.4714   23.8293 C   0  0  1  0  0  0
  -27.2193  -27.1697   20.1423 C   0  0  0  0  0  0
  -25.5946  -33.8519   24.2209 N   0  0  0  0  0  0
  -23.4419  -30.4674   21.5365 C   0  0  2  0  0  0
  -24.8920  -28.9022   20.1091 C   0  0  0  0  0  0
  -22.7556  -29.4556   22.4877 C   0  0  0  0  0  0
  -18.0301  -28.1383   22.8479 C   0  0  0  0  0  0
  -24.1489  -36.7261   23.2640 C   0  0  0  0  0  0
  -25.9966  -30.7308   21.3866 C   0  0  0  0  0  0
  -26.0687  -29.3459   20.7263 C   0  0  0  0  0  0
  -27.2338  -28.4956   20.7269 C   0  0  0  0  0  0
  -26.0183  -26.8246   19.4820 C   0  0  0  0  0  0
  -24.8784  -27.6539   19.4718 C   0  0  0  0  0  0
  -23.6665  -29.7995   20.1548 C   0  0  0  0  0  0
  -25.4123  -36.3045   24.0316 C   0  0  1  0  0  0
  -20.5911  -28.3706   23.1243 C   0  0  2  0  0  0
  -20.6781  -26.9411   22.5407 C   0  0  0  0  0  0
  -19.5756  -26.6370   21.5213 C   0  0  0  0  0  0
  -18.1937  -26.7923   22.1623 C   0  0  0  0  0  0
  -19.1558  -28.8864   23.2850 C   0  0  0  0  0  0
  -18.9475  -30.1462   23.8873 C   0  0  0  0  0  0
  -17.6472  -30.6582   24.0553 C   0  0  0  0  0  0
  -25.9071  -34.9418   23.5070 C   0  0  0  0  0  0
  -16.5364  -29.9073   23.6334 C   0  0  0  0  0  0
  -16.7287  -28.6490   23.0360 C   0  0  0  0  0  0
  -26.4514  -31.6571   25.0724 C   0  0  0  0  0  0
  -25.3707  -31.3751   26.1424 C   0  0  0  0  0  0
  -27.0378  -30.2971   24.6287 C   0  0  0  0  0  0
  -27.6045  -32.4336   25.7511 C   0  0  0  0  0  0
  -27.5577  -37.1788   24.8462 C   0  0  0  0  0  0
  -21.4252  -29.3039   22.3628 N   0  0  0  0  0  0
  -26.4287  -37.3755   23.9409 N   0  0  0  0  0  0
  -24.7123  -31.0359   22.0931 N   0  0  0  0  0  0
  -23.4219  -28.8097   23.3005 O   0  0  0  0  0  0
  -28.2753  -26.1963   20.2188 O   0  0  0  0  0  0
  -26.5658  -34.8907   22.4649 O   0  0  0  0  0  0
  -23.5528  -32.1332   23.7152 O   0  0  0  0  0  0
  -29.5445  -22.2817   19.5508 C   0  0  0  0  0  0
  -30.2821  -22.8998   18.4955 C   0  0  0  0  0  0
  -29.6400  -20.7800   19.5176 C   0  0  0  0  0  0
  -30.5910  -20.9257   17.4132 C   0  0  0  0  0  0
  -30.5692  -20.5352   14.8285 C   0  0  0  0  0  0
  -30.1780  -19.2309   15.4670 C   0  0  0  0  0  0
  -30.1111  -17.2543   21.5109 C   0  0  0  0  0  0
  -29.2764  -17.0462   19.6328 C   0  0  0  0  0  0
  -31.0869  -20.1886   16.2088 C   0  0  0  0  0  0
  -30.0207  -18.2539   20.3064 C   0  0  0  0  0  0
  -31.3904  -26.0102   16.7071 C   0  0  0  0  0  0
  -28.8491  -23.3448   20.5607 C   0  0  0  0  0  0
  -30.7308  -24.3620   18.4544 C   0  0  0  0  0  0
  -27.9730  -24.6898   20.0544 C   0  0  0  0  0  0
  -30.7415  -22.2308   17.4231 N   0  0  0  0  0  0
  -30.1216  -20.2045   18.4057 N   0  0  0  0  0  0
  -29.7952  -16.0519   20.6491 N   0  0  0  0  0  0
  -29.3746  -19.6776   20.4453 N   0  0  0  0  0  0
  -30.5443  -24.8625   17.0849 N   0  3  0  0  0  0
  -31.4714  -12.6900   19.1790 H   0  0  0  0  0  0
  -30.4070  -11.5808   19.9985 H   0  0  0  0  0  0
  -29.8134  -11.7378   17.5556 H   0  0  0  0  0  0
  -29.6172  -13.4670   17.6994 H   0  0  0  0  0  0
  -27.9165  -11.2858   18.9392 H   0  0  0  0  0  0
  -27.3839  -12.5013   17.8087 H   0  0  0  0  0  0
  -27.6050  -14.2592   19.4397 H   0  0  0  0  0  0
  -28.7455  -12.2536   21.4434 H   0  0  0  0  0  0
  -28.3934  -13.9373   21.7687 H   0  0  0  0  0  0
  -25.2772   -9.5684   22.4761 H   0  0  0  0  0  0
  -24.0031   -7.4627   22.7460 H   0  0  0  0  0  0
  -21.0861   -8.8751   19.8939 H   0  0  0  0  0  0
  -22.3700  -10.9663   19.6175 H   0  0  0  0  0  0
  -21.1994   -7.6155   23.9716 H   0  0  0  0  0  0
  -21.1491   -6.0536   25.9083 H   0  0  0  0  0  0
  -22.0595   -2.7615   23.2859 H   0  0  0  0  0  0
  -22.4122  -11.9823   22.4816 H   0  0  0  0  0  0
  -21.1078  -13.1148   22.2674 H   0  0  0  0  0  0
  -24.6584  -15.8549   20.5481 H   0  0  0  0  0  0
  -26.2867  -15.6351   20.1456 H   0  0  0  0  0  0
  -26.7253  -32.5330   23.1024 H   0  0  0  0  0  0
  -25.0073  -33.9639   25.0341 H   0  0  0  0  0  0
  -22.7417  -31.2915   21.3855 H   0  0  0  0  0  0
  -23.3762  -35.9582   23.3287 H   0  0  0  0  0  0
  -24.3573  -36.8911   22.2058 H   0  0  0  0  0  0
  -23.7233  -37.6445   23.6689 H   0  0  0  0  0  0
  -26.1521  -31.4873   20.6162 H   0  0  0  0  0  0
  -26.8670  -30.7778   22.0292 H   0  0  0  0  0  0
  -28.1292  -28.8303   21.2314 H   0  0  0  0  0  0
  -25.9219  -25.8731   18.9818 H   0  0  0  0  0  0
  -23.9810  -27.3110   18.9749 H   0  0  0  0  0  0
  -23.7988  -30.5748   19.3997 H   0  0  0  0  0  0
  -22.7822  -29.2392   19.8464 H   0  0  0  0  0  0
  -25.1310  -36.1875   25.0808 H   0  0  0  0  0  0
  -21.0002  -28.3287   24.1365 H   0  0  0  0  0  0
  -20.5666  -26.2319   23.3622 H   0  0  0  0  0  0
  -21.6648  -26.7406   22.1210 H   0  0  0  0  0  0
  -19.6912  -25.6276   21.1251 H   0  0  0  0  0  0
  -19.6689  -27.3171   20.6735 H   0  0  0  0  0  0
  -17.4205  -26.6670   21.4026 H   0  0  0  0  0  0
  -18.0332  -26.0067   22.9023 H   0  0  0  0  0  0
  -19.7950  -30.7284   24.2231 H   0  0  0  0  0  0
  -17.5022  -31.6262   24.5154 H   0  0  0  0  0  0
  -15.5361  -30.2966   23.7668 H   0  0  0  0  0  0
  -15.8688  -28.0797   22.7093 H   0  0  0  0  0  0
  -24.5871  -30.7122   25.7732 H   0  0  0  0  0  0
  -24.8917  -32.2937   26.4824 H   0  0  0  0  0  0
  -25.7991  -30.8923   27.0217 H   0  0  0  0  0  0
  -26.2994  -29.6702   24.1277 H   0  0  0  0  0  0
  -27.3979  -29.7256   25.4850 H   0  0  0  0  0  0
  -27.8905  -30.4209   23.9609 H   0  0  0  0  0  0
  -27.2630  -33.3645   26.2045 H   0  0  0  0  0  0
  -28.3879  -32.6886   25.0364 H   0  0  0  0  0  0
  -28.0688  -31.8497   26.5465 H   0  0  0  0  0  0
  -28.2578  -38.0100   24.7527 H   0  0  0  0  0  0
  -28.1092  -36.2632   24.6273 H   0  0  0  0  0  0
  -27.2296  -37.1415   25.8863 H   0  0  0  0  0  0
  -20.9458  -29.8773   21.6830 H   0  0  0  0  0  0
  -26.0155  -38.2820   24.1425 H   0  0  0  0  0  0
  -29.8106  -21.3122   14.7603 H   0  0  0  0  0  0
  -31.2804  -20.5043   14.0059 H   0  0  0  0  0  0
  -30.6257  -18.3206   15.0754 H   0  0  0  0  0  0
  -29.1554  -19.1332   15.8265 H   0  0  0  0  0  0
  -29.3526  -17.4346   22.2751 H   0  0  0  0  0  0
  -31.1023  -17.2329   21.9677 H   0  0  0  0  0  0
  -29.6057  -16.8594   18.6088 H   0  0  0  0  0  0
  -28.1896  -17.1462   19.6594 H   0  0  0  0  0  0
  -32.1376  -19.9250   16.3103 H   0  0  0  0  0  0
  -31.0206  -18.3486   19.8778 H   0  0  0  0  0  0
  -31.2353  -26.2620   15.6580 H   0  0  0  0  0  0
  -32.4484  -25.7810   16.8403 H   0  0  0  0  0  0
  -31.1507  -26.8892   17.3053 H   0  0  0  0  0  0
  -29.6134  -23.6838   21.2616 H   0  0  0  0  0  0
  -28.1771  -22.7453   21.1761 H   0  0  0  0  0  0
  -31.7952  -24.3634   18.6939 H   0  0  0  0  0  0
  -30.2770  -25.0256   19.1793 H   0  0  0  0  0  0
  -27.0202  -24.5660   20.5719 H   0  0  0  0  0  0
  -27.7232  -24.5264   19.0059 H   0  0  0  0  0  0
  -29.0609  -19.9554   21.3700 H   0  0  0  0  0  0
  -30.7814  -24.0424   16.5400 H   0  0  0  0  0  0
  -29.5715  -25.0594   16.9282 H   0  0  0  0  0  0
  1 25  1  0  0  0
  1 30  2  0  0  0
  1 87  1  0  0  0
  2  3  1  0  0  0
  2 25  1  0  0  0
  2 90  1  0  0  0
  2 91  1  0  0  0
  3  4  1  0  0  0
  3 92  1  0  0  0
  3 93  1  0  0  0
  4  5  1  0  0  0
  4 94  1  0  0  0
  4 95  1  0  0  0
  5  6  1  0  0  0
  5 26  1  0  0  0
  5 96  1  0  0  0
  6 25  1  0  0  0
  6 97  1  0  0  0
  6 98  1  0  0  0
  7  8  2  0  0  0
  7 26  1  0  0  0
  7 29  1  0  0  0
  8  9  1  0  0  0
  8 22  1  0  0  0
  9 10  1  0  0  0
  9 27  2  0  0  0
 10 11  2  0  0  0
 10 15  1  0  0  0
 11 12  1  0  0  0
 11 99  1  0  0  0
 12 13  2  0  0  0
 12100  1  0  0  0
 13 14  1  0  0  0
 13 31  1  0  0  0
 14 15  2  0  0  0
 14101  1  0  0  0
 15102  1  0  0  0
 16 17  2  0  0  0
 16 21  1  0  0  0
 16 31  1  0  0  0
 17 18  1  0  0  0
 17103  1  0  0  0
 18 19  2  0  0  0
 18104  1  0  0  0
 19 20  1  0  0  0
 19 24  1  0  0  0
 20 21  2  0  0  0
 20105  1  0  0  0
 21 23  1  0  0  0
 22 28  1  0  0  0
 22 32  2  0  0  0
 26 27  1  0  0  0
 28106  1  0  0  0
 28107  1  0  0  0
 29108  1  0  0  0
 29109  1  0  0  0
 33 34  1  0  0  0
 33 66  1  0  0  0
 33 70  2  0  0  0
 34 36  1  0  0  0
 34 59  1  0  0  0
 34110  1  0  0  0
 35 44  2  0  0  0
 35 45  1  0  0  0
 35 68  1  0  0  0
 36 56  1  0  0  0
 36111  1  0  0  0
 37 39  1  0  0  0
 37 47  1  0  0  0
 37 66  1  0  0  0
 37112  1  0  0  0
 38 43  2  0  0  0
 38 46  1  0  0  0
 38 47  1  0  0  0
 39 64  1  0  0  0
 39 67  2  0  0  0
 40 52  1  0  0  0
 40 53  2  0  0  0
 40 58  1  0  0  0
 41113  1  0  0  0
 41114  1  0  0  0
 41115  1  0  0  0
 41 48  1  0  0  0
 42 43  1  0  0  0
 42 66  1  0  0  0
 42116  1  0  0  0
 42117  1  0  0  0
 43 44  1  0  0  0
 44118  1  0  0  0
 45 46  2  0  0  0
 45119  1  0  0  0
 46120  1  0  0  0
 47121  1  0  0  0
 47122  1  0  0  0
 48 56  1  0  0  0
 48 65  1  0  0  0
 48123  1  0  0  0
 49 50  1  0  0  0
 49 53  1  0  0  0
 49 64  1  0  0  0
 49124  1  0  0  0
 50 51  1  0  0  0
 50125  1  0  0  0
 50126  1  0  0  0
 51 52  1  0  0  0
 51127  1  0  0  0
 51128  1  0  0  0
 52129  1  0  0  0
 52130  1  0  0  0
 53 54  1  0  0  0
 54 55  2  0  0  0
 54131  1  0  0  0
 55 57  1  0  0  0
 55132  1  0  0  0
 56 69  2  0  0  0
 57 58  2  0  0  0
 57133  1  0  0  0
 58134  1  0  0  0
 59 60  1  0  0  0
 59 61  1  0  0  0
 59 62  1  0  0  0
 60135  1  0  0  0
 60136  1  0  0  0
 60137  1  0  0  0
 61138  1  0  0  0
 61139  1  0  0  0
 61140  1  0  0  0
 62141  1  0  0  0
 62142  1  0  0  0
 62143  1  0  0  0
 63 65  1  0  0  0
 63144  1  0  0  0
 63145  1  0  0  0
 63146  1  0  0  0
 64147  1  0  0  0
 65148  1  0  0  0
 68 84  1  0  0  0
 71 72  2  0  0  0
 71 73  1  0  0  0
 71 82  1  0  0  0
 72 83  1  0  0  0
 72 85  1  0  0  0
 73 86  2  0  0  0
 73 88  1  0  0  0
 74 85  2  0  0  0
 74 86  1  0  0  0
 74 79  1  0  0  0
 75 76  1  0  0  0
 75 79  1  0  0  0
 75149  1  0  0  0
 75150  1  0  0  0
 76 79  1  0  0  0
 76151  1  0  0  0
 76152  1  0  0  0
 77 80  1  0  0  0
 77 87  1  0  0  0
 77153  1  0  0  0
 77154  1  0  0  0
 78 80  1  0  0  0
 78 87  1  0  0  0
 78155  1  0  0  0
 78156  1  0  0  0
 79157  1  0  0  0
 80 88  1  0  0  0
 80158  1  0  0  0
 81 89  1  0  0  0
 81159  1  0  0  0
 81160  1  0  0  0
 81161  1  0  0  0
 82 84  1  0  0  0
 82162  1  0  0  0
 82163  1  0  0  0
 83 89  1  0  0  0
 83164  1  0  0  0
 83165  1  0  0  0
 84166  1  0  0  0
 84167  1  0  0  0
 88168  1  0  0  0
 89169  1  0  0  0
 89170  1  0  0  0
M  CHG  1  89   1
M  ISO  4   1 100  68 101  84 101  87 100
M  END
> <chiral flag>
0

> <version>
0

> <s_m_source_file>
/data/baiqing/PycharmProjects/Reinvent-master-3.2/result/LINK_invent/BTK/process_docking_weight1_custom_sum_contain_oxygen_bond_distance_aromatic_linkinvent_7_9_3/rearranged_h_0192.sdf

> <i_m_source_file_index>
2

> <r_mmod_Potential_Energy-OPLS-2005>
-305.925750732422

> <r_mmod_Stretch_Energy-OPLS-2005>
212.17512512207

> <r_mmod_Bend_Energy-OPLS-2005>
303.572723388672

> <r_mmod_Torsional_Energy-OPLS-2005>
304.551330566406

> <r_mmod_Improper_Torsional_Energy-OPLS-2005>
10.8384828567505

> <r_mmod_Van_der_Waal_Energy-OPLS-2005>
152.556945800781

> <r_mmod_Electrostatic_Energy-OPLS-2005>
-976.713439941406

> <r_mmod_Solvation_Energy-OPLS-2005>
-468.992950439453

> <b_mmod_Minimization_Converged-OPLS-2005>
0

> <r_mmod_RMS_Derivative-OPLS-2005>
1.46144223213196

$$$$
2
                    3D
 Structure written by MMmdl.
172181  0  0  1  0            999 V2000
  -30.7300  -14.4889   20.4600 C   0  0  0  0  0  0
  -30.4065  -12.2714   19.4624 C   0  0  0  0  0  0
  -29.4982  -12.4108   18.2262 C   0  0  0  0  0  0
  -28.0176  -12.2891   18.6392 C   0  0  0  0  0  0
  -27.6456  -13.1842   19.8523 C   0  0  2  0  0  0
  -28.6947  -13.0964   20.9863 C   0  0  0  0  0  0
  -25.2581  -13.8100   20.5675 C   0  0  0  0  0  0
  -24.1828  -13.0410   20.9193 C   0  0  0  0  0  0
  -24.6378  -11.6875   20.8816 C   0  0  0  0  0  0
  -23.9058  -10.4275   21.0473 C   0  0  0  0  0  0
  -24.3631   -9.4180   21.9237 C   0  0  0  0  0  0
  -23.6307   -8.2214   22.0775 C   0  0  0  0  0  0
  -22.4293   -8.0282   21.3575 C   0  0  0  0  0  0
  -21.9931   -9.0261   20.4670 C   0  0  0  0  0  0
  -22.7251  -10.2141   20.3107 C   0  0  0  0  0  0
  -21.6838   -6.0761   22.5293 C   0  0  0  0  0  0
  -21.3998   -6.5663   23.8229 C   0  0  0  0  0  0
  -21.3640   -5.6805   24.9186 C   0  0  0  0  0  0
  -21.6046   -4.3075   24.7240 C   0  0  0  0  0  0
  -21.8815   -3.8174   23.4355 C   0  0  0  0  0  0
  -21.9188   -4.6995   22.3418 C   0  0  0  0  0  0
  -22.7853  -13.5235   21.1830 C   0  0  0  0  0  0
  -22.1641   -4.2185   21.0988 F   0  0  0  0  0  0
  -21.5647   -3.4554   25.7750 F   0  0  0  0  0  0
  -30.0228  -13.3307   20.4022 N   0  0  0  0  0  0
  -26.2971  -12.9206   20.3359 N   0  0  0  0  0  0
  -25.9302  -11.6414   20.5887 N   0  0  0  0  0  0
  -22.0485  -12.8252   22.0396 N   0  0  0  0  0  0
  -25.4346  -15.1801   20.4049 N   0  0  0  0  0  0
  -31.9302  -14.5484   20.1835 O   0  0  0  0  0  0
  -21.6623   -6.8910   21.4266 O   0  0  0  0  0  0
  -22.3556  -14.5540   20.6665 O   0  0  0  0  0  0
  -24.6107  -31.8716   23.2123 C   0  0  0  0  0  0
  -25.9021  -32.4838   23.8418 C   0  0  1  0  0  0
  -27.2485  -27.4539   20.1257 C   0  0  0  0  0  0
  -25.5879  -33.8637   24.2357 N   0  0  0  0  0  0
  -23.4000  -30.4929   21.5492 C   0  0  2  0  0  0
  -24.8534  -28.9621   20.1119 C   0  0  0  0  0  0
  -22.7414  -29.4667   22.4980 C   0  0  0  0  0  0
  -18.0276  -28.1378   22.8482 C   0  0  0  0  0  0
  -24.1448  -36.7300   23.2618 C   0  0  0  0  0  0
  -25.9218  -30.8498   21.3573 C   0  0  0  0  0  0
  -26.0036  -29.4801   20.7176 C   0  0  0  0  0  0
  -27.2007  -28.7336   20.7295 C   0  0  0  0  0  0
  -26.0879  -26.9550   19.4979 C   0  0  0  0  0  0
  -24.8890  -27.6979   19.4959 C   0  0  0  0  0  0
  -23.6127  -29.8280   20.1604 C   0  0  0  0  0  0
  -25.4060  -36.3117   24.0348 C   0  0  1  0  0  0
  -20.5864  -28.3660   23.1323 C   0  0  2  0  0  0
  -20.6766  -26.9394   22.5435 C   0  0  0  0  0  0
  -19.5762  -26.6401   21.5209 C   0  0  0  0  0  0
  -18.1930  -26.7923   22.1609 C   0  0  0  0  0  0
  -19.1526  -28.8827   23.2901 C   0  0  0  0  0  0
  -18.9455  -30.1419   23.8943 C   0  0  0  0  0  0
  -17.6460  -30.6576   24.0582 C   0  0  0  0  0  0
  -25.9025  -34.9491   23.5145 C   0  0  0  0  0  0
  -16.5351  -29.9094   23.6309 C   0  0  0  0  0  0
  -16.7272  -28.6512   23.0328 C   0  0  0  0  0  0
  -26.4454  -31.6604   25.0725 C   0  0  0  0  0  0
  -25.3731  -31.3700   26.1485 C   0  0  0  0  0  0
  -27.0253  -30.3059   24.6024 C   0  0  0  0  0  0
  -27.6058  -32.4283   25.7483 C   0  0  0  0  0  0
  -27.5597  -37.1735   24.8399 C   0  0  0  0  0  0
  -21.4140  -29.3017   22.3719 N   0  0  0  0  0  0
  -26.4208  -37.3849   23.9510 N   0  0  0  0  0  0
  -24.6626  -31.0839   22.1007 N   0  0  0  0  0  0
  -23.4199  -28.8218   23.3007 O   0  0  0  0  0  0
  -28.3752  -26.6561   20.1275 O   0  0  0  0  0  0
  -26.5592  -34.8949   22.4712 O   0  0  0  0  0  0
  -23.5314  -32.1434   23.7537 O   0  0  0  0  0  0
  -29.9934  -17.4129   18.9092 C   0  0  0  0  0  0
  -31.0607  -17.6888   19.9530 C   0  0  0  0  0  0
  -28.6162  -22.4331   23.0235 C   0  0  0  0  0  0
  -30.1826  -21.7251   21.2204 C   0  0  0  0  0  0
  -29.3083  -16.1312   19.3950 C   0  0  0  0  0  0
  -29.1643  -23.8757   22.9078 C   0  0  0  0  0  0
  -30.7065  -23.1717   21.1418 C   0  0  0  0  0  0
  -29.6685  -21.3713   22.6322 C   0  0  2  0  0  0
  -30.6480  -16.8441   21.1730 C   0  0  1  0  0  0
  -29.0968  -19.9302   22.7082 C   0  0  0  0  0  0
  -29.6517  -17.5591   22.1244 C   0  0  0  0  0  0
  -30.2093  -25.5620   21.3773 C   0  0  0  0  0  0
  -29.1533  -26.6886   21.3308 C   0  0  0  0  0  0
  -30.0167  -15.6390   20.5957 N   0  0  0  0  0  0
  -29.6795  -24.1740   21.5408 N   0  3  2  0  0  0
  -30.1448  -18.8887   22.5549 N   0  3  0  0  0  0
  -31.4577  -12.3180   19.1744 H   0  0  0  0  0  0
  -30.2664  -11.2974   19.9357 H   0  0  0  0  0  0
  -29.7450  -11.6337   17.5017 H   0  0  0  0  0  0
  -29.6834  -13.3590   17.7247 H   0  0  0  0  0  0
  -27.8398  -11.2430   18.8940 H   0  0  0  0  0  0
  -27.3672  -12.5013   17.7901 H   0  0  0  0  0  0
  -27.6314  -14.1965   19.4674 H   0  0  0  0  0  0
  -28.6673  -12.1251   21.4822 H   0  0  0  0  0  0
  -28.4725  -13.8367   21.7565 H   0  0  0  0  0  0
  -25.2790   -9.5663   22.4792 H   0  0  0  0  0  0
  -24.0036   -7.4603   22.7482 H   0  0  0  0  0  0
  -21.0870   -8.8784   19.8979 H   0  0  0  0  0  0
  -22.3717  -10.9696   19.6216 H   0  0  0  0  0  0
  -21.1954   -7.6161   23.9743 H   0  0  0  0  0  0
  -21.1463   -6.0535   25.9089 H   0  0  0  0  0  0
  -22.0604   -2.7646   23.2846 H   0  0  0  0  0  0
  -22.4055  -11.9887   22.4767 H   0  0  0  0  0  0
  -21.1130  -13.1354   22.2627 H   0  0  0  0  0  0
  -24.6726  -15.8421   20.4987 H   0  0  0  0  0  0
  -26.2978  -15.6103   20.1049 H   0  0  0  0  0  0
  -26.7100  -32.5596   23.1207 H   0  0  0  0  0  0
  -24.9993  -33.9799   25.0464 H   0  0  0  0  0  0
  -22.6865  -31.3076   21.4116 H   0  0  0  0  0  0
  -23.3792  -35.9537   23.3113 H   0  0  0  0  0  0
  -24.3607  -36.9088   22.2076 H   0  0  0  0  0  0
  -23.7068  -37.6396   23.6735 H   0  0  0  0  0  0
  -26.0105  -31.6110   20.5812 H   0  0  0  0  0  0
  -26.8190  -30.9250   21.9580 H   0  0  0  0  0  0
  -28.0740  -29.1559   21.2032 H   0  0  0  0  0  0
  -26.1051  -25.9793   19.0316 H   0  0  0  0  0  0
  -24.0061  -27.2962   19.0187 H   0  0  0  0  0  0
  -23.7265  -30.6068   19.4051 H   0  0  0  0  0  0
  -22.7381  -29.2501   19.8577 H   0  0  0  0  0  0
  -25.1186  -36.1939   25.0826 H   0  0  0  0  0  0
  -20.9956  -28.3232   24.1445 H   0  0  0  0  0  0
  -20.5652  -26.2264   23.3618 H   0  0  0  0  0  0
  -21.6648  -26.7436   22.1257 H   0  0  0  0  0  0
  -19.6934  -25.6324   21.1221 H   0  0  0  0  0  0
  -19.6699  -27.3232   20.6749 H   0  0  0  0  0  0
  -17.4201  -26.6674   21.4008 H   0  0  0  0  0  0
  -18.0328  -26.0064   22.9003 H   0  0  0  0  0  0
  -19.7920  -30.7200   24.2382 H   0  0  0  0  0  0
  -17.5022  -31.6246   24.5190 H   0  0  0  0  0  0
  -15.5361  -30.3017   23.7597 H   0  0  0  0  0  0
  -15.8675  -28.0847   22.7023 H   0  0  0  0  0  0
  -24.5852  -30.7111   25.7819 H   0  0  0  0  0  0
  -24.8971  -32.2857   26.5012 H   0  0  0  0  0  0
  -25.8085  -30.8800   27.0198 H   0  0  0  0  0  0
  -26.2767  -29.6876   24.1059 H   0  0  0  0  0  0
  -27.4041  -29.7236   25.4430 H   0  0  0  0  0  0
  -27.8598  -30.4421   23.9138 H   0  0  0  0  0  0
  -27.2716  -33.3593   26.2075 H   0  0  0  0  0  0
  -28.3864  -32.6814   25.0295 H   0  0  0  0  0  0
  -28.0722  -31.8382   26.5381 H   0  0  0  0  0  0
  -28.2372  -38.0258   24.7829 H   0  0  0  0  0  0
  -28.1311  -36.2845   24.5688 H   0  0  0  0  0  0
  -27.2410  -37.0749   25.8787 H   0  0  0  0  0  0
  -20.9300  -29.8699   21.6905 H   0  0  0  0  0  0
  -26.0067  -38.2850   24.1782 H   0  0  0  0  0  0
  -30.4442  -17.2819   17.9225 H   0  0  0  0  0  0
  -29.2778  -18.2339   18.8362 H   0  0  0  0  0  0
  -31.1995  -18.7521   20.1412 H   0  0  0  0  0  0
  -32.0163  -17.3173   19.5764 H   0  0  0  0  0  0
  -27.7278  -22.3308   22.3979 H   0  0  0  0  0  0
  -28.2785  -22.2586   24.0456 H   0  0  0  0  0  0
  -30.9868  -21.0516   20.9265 H   0  0  0  0  0  0
  -29.3923  -21.5867   20.4810 H   0  0  0  0  0  0
  -29.2715  -15.4102   18.5772 H   0  0  0  0  0  0
  -28.2737  -16.3530   19.6626 H   0  0  0  0  0  0
  -29.9630  -24.0177   23.6374 H   0  0  0  0  0  0
  -28.3745  -24.5775   23.1775 H   0  0  0  0  0  0
  -31.0461  -23.3720   20.1250 H   0  0  0  0  0  0
  -31.5815  -23.2803   21.7845 H   0  0  0  0  0  0
  -30.4970  -21.4489   23.3389 H   0  0  0  0  0  0
  -31.5433  -16.5896   21.7467 H   0  0  0  0  0  0
  -28.3333  -19.8198   21.9362 H   0  0  0  0  0  0
  -28.5872  -19.7649   23.6601 H   0  0  0  0  0  0
  -29.4763  -16.9451   23.0097 H   0  0  0  0  0  0
  -28.6807  -17.6548   21.6380 H   0  0  0  0  0  0
  -30.9043  -25.7607   22.1935 H   0  0  0  0  0  0
  -30.8001  -25.6287   20.4631 H   0  0  0  0  0  0
  -29.6902  -27.6358   21.3654 H   0  0  0  0  0  0
  -28.5150  -26.6603   22.2143 H   0  0  0  0  0  0
  -28.9087  -24.0798   20.8941 H   0  0  0  0  0  0
  -30.6597  -18.7902   23.4159 H   0  0  0  0  0  0
  -30.7937  -19.1964   21.8501 H   0  0  0  0  0  0
  1 25  1  0  0  0
  1 30  2  0  0  0
  1 84  1  0  0  0
  2  3  1  0  0  0
  2 25  1  0  0  0
  2 87  1  0  0  0
  2 88  1  0  0  0
  3  4  1  0  0  0
  3 89  1  0  0  0
  3 90  1  0  0  0
  4  5  1  0  0  0
  4 91  1  0  0  0
  4 92  1  0  0  0
  5  6  1  0  0  0
  5 26  1  0  0  0
  5 93  1  0  0  0
  6 25  1  0  0  0
  6 94  1  0  0  0
  6 95  1  0  0  0
  7  8  2  0  0  0
  7 26  1  0  0  0
  7 29  1  0  0  0
  8  9  1  0  0  0
  8 22  1  0  0  0
  9 10  1  0  0  0
  9 27  2  0  0  0
 10 11  2  0  0  0
 10 15  1  0  0  0
 11 12  1  0  0  0
 11 96  1  0  0  0
 12 13  2  0  0  0
 12 97  1  0  0  0
 13 14  1  0  0  0
 13 31  1  0  0  0
 14 15  2  0  0  0
 14 98  1  0  0  0
 15 99  1  0  0  0
 16 17  2  0  0  0
 16 21  1  0  0  0
 16 31  1  0  0  0
 17 18  1  0  0  0
 17100  1  0  0  0
 18 19  2  0  0  0
 18101  1  0  0  0
 19 20  1  0  0  0
 19 24  1  0  0  0
 20 21  2  0  0  0
 20102  1  0  0  0
 21 23  1  0  0  0
 22 28  1  0  0  0
 22 32  2  0  0  0
 26 27  1  0  0  0
 28103  1  0  0  0
 28104  1  0  0  0
 29105  1  0  0  0
 29106  1  0  0  0
 33 34  1  0  0  0
 33 66  1  0  0  0
 33 70  2  0  0  0
 34 36  1  0  0  0
 34 59  1  0  0  0
 34107  1  0  0  0
 35 44  2  0  0  0
 35 45  1  0  0  0
 35 68  1  0  0  0
 36 56  1  0  0  0
 36108  1  0  0  0
 37 39  1  0  0  0
 37 47  1  0  0  0
 37 66  1  0  0  0
 37109  1  0  0  0
 38 43  2  0  0  0
 38 46  1  0  0  0
 38 47  1  0  0  0
 39 64  1  0  0  0
 39 67  2  0  0  0
 40 52  1  0  0  0
 40 53  2  0  0  0
 40 58  1  0  0  0
 41110  1  0  0  0
 41111  1  0  0  0
 41112  1  0  0  0
 41 48  1  0  0  0
 42 43  1  0  0  0
 42 66  1  0  0  0
 42113  1  0  0  0
 42114  1  0  0  0
 43 44  1  0  0  0
 44115  1  0  0  0
 45 46  2  0  0  0
 45116  1  0  0  0
 46117  1  0  0  0
 47118  1  0  0  0
 47119  1  0  0  0
 48 56  1  0  0  0
 48 65  1  0  0  0
 48120  1  0  0  0
 49 50  1  0  0  0
 49 53  1  0  0  0
 49 64  1  0  0  0
 49121  1  0  0  0
 50 51  1  0  0  0
 50122  1  0  0  0
 50123  1  0  0  0
 51 52  1  0  0  0
 51124  1  0  0  0
 51125  1  0  0  0
 52126  1  0  0  0
 52127  1  0  0  0
 53 54  1  0  0  0
 54 55  2  0  0  0
 54128  1  0  0  0
 55 57  1  0  0  0
 55129  1  0  0  0
 56 69  2  0  0  0
 57 58  2  0  0  0
 57130  1  0  0  0
 58131  1  0  0  0
 59 60  1  0  0  0
 59 61  1  0  0  0
 59 62  1  0  0  0
 60132  1  0  0  0
 60133  1  0  0  0
 60134  1  0  0  0
 61135  1  0  0  0
 61136  1  0  0  0
 61137  1  0  0  0
 62138  1  0  0  0
 62139  1  0  0  0
 62140  1  0  0  0
 63 65  1  0  0  0
 63141  1  0  0  0
 63142  1  0  0  0
 63143  1  0  0  0
 64144  1  0  0  0
 65145  1  0  0  0
 68 83  1  0  0  0
 71 72  1  0  0  0
 71 75  1  0  0  0
 71146  1  0  0  0
 71147  1  0  0  0
 72 79  1  0  0  0
 72148  1  0  0  0
 72149  1  0  0  0
 73 76  1  0  0  0
 73 78  1  0  0  0
 73150  1  0  0  0
 73151  1  0  0  0
 74 77  1  0  0  0
 74 78  1  0  0  0
 74152  1  0  0  0
 74153  1  0  0  0
 75 84  1  0  0  0
 75154  1  0  0  0
 75155  1  0  0  0
 76 85  1  0  0  0
 76156  1  0  0  0
 76157  1  0  0  0
 77 85  1  0  0  0
 77158  1  0  0  0
 77159  1  0  0  0
 78 80  1  0  0  0
 78160  1  0  0  0
 79 81  1  0  0  0
 79 84  1  0  0  0
 79161  1  0  0  0
 80 86  1  0  0  0
 80162  1  0  0  0
 80163  1  0  0  0
 81 86  1  0  0  0
 81164  1  0  0  0
 81165  1  0  0  0
 82 83  1  0  0  0
 82166  1  0  0  0
 82167  1  0  0  0
 82 85  1  0  0  0
 83168  1  0  0  0
 83169  1  0  0  0
 85170  1  0  0  0
 86171  1  0  0  0
 86172  1  0  0  0
M  CHG  2  85   1  86   1
M  ISO  4   1 100  68 101  83 101  84 100
M  END
> <chiral flag>
0

> <version>
0

> <s_m_source_file>
/data/baiqing/PycharmProjects/Reinvent-master-3.2/result/LINK_invent/BTK/process_docking_weight1_custom_sum_contain_oxygen_bond_distance_aromatic_linkinvent_7_9_3/rearranged_h_0192.sdf

> <i_m_source_file_index>
3

> <r_mmod_Potential_Energy-OPLS-2005>
21.9166278839111

> <r_mmod_Stretch_Energy-OPLS-2005>
38.259449005127

> <r_mmod_Bend_Energy-OPLS-2005>
127.051406860352

> <r_mmod_Torsional_Energy-OPLS-2005>
416.206207275391

> <r_mmod_Improper_Torsional_Energy-OPLS-2005>
10.3510808944702

> <r_mmod_Van_der_Waal_Energy-OPLS-2005>
137.826141357422

> <r_mmod_Electrostatic_Energy-OPLS-2005>
159.188842773438

> <r_mmod_Solvation_Energy-OPLS-2005>
-894.030090332031

> <b_mmod_Minimization_Converged-OPLS-2005>
0

> <r_mmod_RMS_Derivative-OPLS-2005>
3.25730872154236

$$$$
3
                    3D
 Structure written by MMmdl.
157166  0  0  1  0            999 V2000
  -30.5818  -14.8312   20.4337 C   0  0  0  0  0  0
  -30.4338  -12.5124   19.4741 C   0  0  0  0  0  0
  -29.5116  -12.5124   18.2353 C   0  0  0  0  0  0
  -28.0398  -12.3251   18.6529 C   0  0  0  0  0  0
  -27.6320  -13.2394   19.8396 C   0  0  2  0  0  0
  -28.6779  -13.2226   20.9722 C   0  0  0  0  0  0
  -25.2489  -13.8203   20.5729 C   0  0  0  0  0  0
  -24.1779  -13.0441   20.9215 C   0  0  0  0  0  0
  -24.6377  -11.6919   20.8736 C   0  0  0  0  0  0
  -23.9055  -10.4292   21.0395 C   0  0  0  0  0  0
  -24.3613   -9.4210   21.9171 C   0  0  0  0  0  0
  -23.6294   -8.2241   22.0745 C   0  0  0  0  0  0
  -22.4273   -8.0276   21.3542 C   0  0  0  0  0  0
  -21.9902   -9.0244   20.4643 C   0  0  0  0  0  0
  -22.7223  -10.2128   20.3051 C   0  0  0  0  0  0
  -21.6857   -6.0734   22.5281 C   0  0  0  0  0  0
  -21.4014   -6.5639   23.8212 C   0  0  0  0  0  0
  -21.3661   -5.6794   24.9175 C   0  0  0  0  0  0
  -21.6047   -4.3056   24.7225 C   0  0  0  0  0  0
  -21.8818   -3.8147   23.4347 C   0  0  0  0  0  0
  -21.9194   -4.6962   22.3404 C   0  0  0  0  0  0
  -22.7805  -13.5221   21.1883 C   0  0  0  0  0  0
  -22.1665   -4.2149   21.0980 F   0  0  0  0  0  0
  -21.5627   -3.4540   25.7737 F   0  0  0  0  0  0
  -29.9612  -13.5965   20.3700 N   0  0  0  0  0  0
  -26.2898  -12.9415   20.3254 N   0  0  0  0  0  0
  -25.9306  -11.6553   20.5718 N   0  0  0  0  0  0
  -22.0461  -12.8205   22.0441 N   0  0  0  0  0  0
  -25.4207  -15.1931   20.4204 N   0  0  0  0  0  0
  -31.8022  -14.8870   20.2480 O   0  0  0  0  0  0
  -21.6643   -6.8872   21.4239 O   0  0  0  0  0  0
  -22.3486  -14.5525   20.6731 O   0  0  0  0  0  0
  -24.6367  -31.8514   23.1944 C   0  0  0  0  0  0
  -25.9178  -32.4729   23.8298 C   0  0  1  0  0  0
  -27.2145  -27.2079   20.1538 C   0  0  0  0  0  0
  -25.5974  -33.8535   24.2232 N   0  0  0  0  0  0
  -23.4353  -30.4719   21.5384 C   0  0  2  0  0  0
  -24.8839  -28.9056   20.1167 C   0  0  0  0  0  0
  -22.7527  -29.4582   22.4896 C   0  0  0  0  0  0
  -18.0296  -28.1399   22.8480 C   0  0  0  0  0  0
  -24.1501  -36.7267   23.2631 C   0  0  0  0  0  0
  -25.9847  -30.7476   21.3822 C   0  0  0  0  0  0
  -26.0565  -29.3616   20.7344 C   0  0  0  0  0  0
  -27.2267  -28.5258   20.7409 C   0  0  0  0  0  0
  -26.0225  -26.8353   19.4981 C   0  0  0  0  0  0
  -24.8740  -27.6519   19.4863 C   0  0  0  0  0  0
  -23.6587  -29.8009   20.1569 C   0  0  0  0  0  0
  -25.4128  -36.3049   24.0317 C   0  0  1  0  0  0
  -20.5899  -28.3717   23.1266 C   0  0  2  0  0  0
  -20.6788  -26.9436   22.5407 C   0  0  0  0  0  0
  -19.5764  -26.6401   21.5209 C   0  0  0  0  0  0
  -18.1943  -26.7944   22.1621 C   0  0  0  0  0  0
  -19.1549  -28.8879   23.2863 C   0  0  0  0  0  0
  -18.9468  -30.1472   23.8889 C   0  0  0  0  0  0
  -17.6466  -30.6595   24.0573 C   0  0  0  0  0  0
  -25.9073  -34.9423   23.5075 C   0  0  0  0  0  0
  -16.5358  -29.9092   23.6339 C   0  0  0  0  0  0
  -16.7281  -28.6511   23.0360 C   0  0  0  0  0  0
  -26.4524  -31.6554   25.0700 C   0  0  0  0  0  0
  -25.3738  -31.3713   26.1412 C   0  0  0  0  0  0
  -27.0358  -30.2959   24.6200 C   0  0  0  0  0  0
  -27.6073  -32.4288   25.7490 C   0  0  0  0  0  0
  -27.5579  -37.1794   24.8467 C   0  0  0  0  0  0
  -21.4230  -29.3045   22.3639 N   0  0  0  0  0  0
  -26.4296  -37.3755   23.9403 N   0  0  0  0  0  0
  -24.7049  -31.0439   22.0939 N   0  0  0  0  0  0
  -23.4206  -28.8139   23.3030 O   0  0  0  0  0  0
  -28.2976  -26.2801   20.1205 O   0  0  0  0  0  0
  -26.5636  -34.8909   22.4635 O   0  0  0  0  0  0
  -23.5513  -32.1364   23.7216 O   0  0  0  0  0  0
  -27.5712  -23.6501   22.3411 C   0  0  0  0  0  0
  -28.5743  -22.6528   20.6045 C   0  0  0  0  0  0
  -28.1597  -24.9644   20.6290 C   0  0  0  0  0  0
  -29.7445  -18.1431   18.9725 C   0  0  0  0  0  0
  -29.6678  -16.5791   18.9419 C   0  0  0  0  0  0
  -29.8049  -17.2837   21.1496 C   0  0  0  0  0  0
  -29.1890  -18.5411   20.3336 C   0  0  1  0  0  0
  -26.9117  -23.5239   23.6984 C   0  0  0  0  0  0
  -28.9554  -21.2410   19.9234 C   0  0  0  0  0  0
  -28.0407  -22.5198   21.8136 N   0  0  0  0  0  0
  -27.5935  -24.8751   21.8246 N   0  0  0  0  0  0
  -28.6823  -23.8752   19.9695 N   0  0  0  0  0  0
  -29.8047  -16.0049   20.3055 N   0  0  0  0  0  0
  -29.3488  -20.0276   20.8022 N   0  3  0  0  0  0
  -31.4718  -12.6549   19.1679 H   0  0  0  0  0  0
  -30.3999  -11.5479   19.9830 H   0  0  0  0  0  0
  -29.8060  -11.7233   17.5419 H   0  0  0  0  0  0
  -29.6239  -13.4533   17.6938 H   0  0  0  0  0  0
  -27.9106  -11.2788   18.9326 H   0  0  0  0  0  0
  -27.3791  -12.4948   17.8016 H   0  0  0  0  0  0
  -27.6084  -14.2516   19.4366 H   0  0  0  0  0  0
  -28.7361  -12.2383   21.4388 H   0  0  0  0  0  0
  -28.4032  -13.9279   21.7590 H   0  0  0  0  0  0
  -25.2758   -9.5696   22.4742 H   0  0  0  0  0  0
  -24.0015   -7.4634   22.7462 H   0  0  0  0  0  0
  -21.0834   -8.8754   19.8952 H   0  0  0  0  0  0
  -22.3669  -10.9663   19.6164 H   0  0  0  0  0  0
  -21.2002   -7.6148   23.9716 H   0  0  0  0  0  0
  -21.1487   -6.0524   25.9079 H   0  0  0  0  0  0
  -22.0593   -2.7609   23.2847 H   0  0  0  0  0  0
  -22.4100  -11.9876   22.4828 H   0  0  0  0  0  0
  -21.1072  -13.1207   22.2650 H   0  0  0  0  0  0
  -24.6557  -15.8485   20.5363 H   0  0  0  0  0  0
  -26.2805  -15.6332   20.1194 H   0  0  0  0  0  0
  -26.7241  -32.5376   23.1033 H   0  0  0  0  0  0
  -25.0152  -33.9652   25.0403 H   0  0  0  0  0  0
  -22.7336  -31.2951   21.3869 H   0  0  0  0  0  0
  -23.3763  -35.9601   23.3293 H   0  0  0  0  0  0
  -24.3581  -36.8898   22.2043 H   0  0  0  0  0  0
  -23.7264  -37.6469   23.6663 H   0  0  0  0  0  0
  -26.1284  -31.5017   20.6067 H   0  0  0  0  0  0
  -26.8595  -30.8027   22.0177 H   0  0  0  0  0  0
  -28.1294  -28.8732   21.2230 H   0  0  0  0  0  0
  -25.9698  -25.8762   19.0023 H   0  0  0  0  0  0
  -23.9792  -27.3011   18.9898 H   0  0  0  0  0  0
  -23.7916  -30.5736   19.3983 H   0  0  0  0  0  0
  -22.7762  -29.2375   19.8480 H   0  0  0  0  0  0
  -25.1316  -36.1880   25.0812 H   0  0  0  0  0  0
  -20.9986  -28.3310   24.1394 H   0  0  0  0  0  0
  -20.5696  -26.2340   23.3614 H   0  0  0  0  0  0
  -21.6660  -26.7469   22.1204 H   0  0  0  0  0  0
  -19.6932  -25.6311   21.1249 H   0  0  0  0  0  0
  -19.6704  -27.3206   20.6732 H   0  0  0  0  0  0
  -17.4219  -26.6692   21.4017 H   0  0  0  0  0  0
  -18.0344  -26.0079   22.9012 H   0  0  0  0  0  0
  -19.7939  -30.7289   24.2266 H   0  0  0  0  0  0
  -17.5018  -31.6273   24.5175 H   0  0  0  0  0  0
  -15.5359  -30.2999   23.7657 H   0  0  0  0  0  0
  -15.8679  -28.0823   22.7091 H   0  0  0  0  0  0
  -24.5955  -30.7005   25.7748 H   0  0  0  0  0  0
  -24.8882  -32.2879   26.4769 H   0  0  0  0  0  0
  -25.8069  -30.8955   27.0223 H   0  0  0  0  0  0
  -26.2944  -29.6725   24.1194 H   0  0  0  0  0  0
  -27.3977  -29.7199   25.4722 H   0  0  0  0  0  0
  -27.8855  -30.4184   23.9483 H   0  0  0  0  0  0
  -27.2684  -33.3609   26.2020 H   0  0  0  0  0  0
  -28.3929  -32.6813   25.0354 H   0  0  0  0  0  0
  -28.0689  -31.8437   26.5449 H   0  0  0  0  0  0
  -28.2600  -38.0088   24.7518 H   0  0  0  0  0  0
  -28.1077  -36.2622   24.6305 H   0  0  0  0  0  0
  -27.2295  -37.1463   25.8869 H   0  0  0  0  0  0
  -20.9433  -29.8751   21.6811 H   0  0  0  0  0  0
  -26.0166  -38.2829   24.1399 H   0  0  0  0  0  0
  -29.1912  -18.5934   18.1472 H   0  0  0  0  0  0
  -30.7833  -18.4667   18.8860 H   0  0  0  0  0  0
  -28.6990  -16.2680   18.5479 H   0  0  0  0  0  0
  -30.4174  -16.1851   18.2521 H   0  0  0  0  0  0
  -29.2405  -17.1094   22.0661 H   0  0  0  0  0  0
  -30.8315  -17.4955   21.4529 H   0  0  0  0  0  0
  -28.1097  -18.3851   20.2871 H   0  0  0  0  0  0
  -27.5445  -23.9618   24.4699 H   0  0  0  0  0  0
  -26.7314  -22.4800   23.9560 H   0  0  0  0  0  0
  -25.9528  -24.0419   23.7067 H   0  0  0  0  0  0
  -29.7450  -21.4083   19.1922 H   0  0  0  0  0  0
  -28.0798  -20.9440   19.3460 H   0  0  0  0  0  0
  -30.2948  -20.1992   21.0927 H   0  0  0  0  0  0
  -28.7830  -20.1644   21.6266 H   0  0  0  0  0  0
  1 25  1  0  0  0
  1 30  2  0  0  0
  1 83  1  0  0  0
  2  3  1  0  0  0
  2 25  1  0  0  0
  2 85  1  0  0  0
  2 86  1  0  0  0
  3  4  1  0  0  0
  3 87  1  0  0  0
  3 88  1  0  0  0
  4  5  1  0  0  0
  4 89  1  0  0  0
  4 90  1  0  0  0
  5  6  1  0  0  0
  5 26  1  0  0  0
  5 91  1  0  0  0
  6 25  1  0  0  0
  6 92  1  0  0  0
  6 93  1  0  0  0
  7  8  2  0  0  0
  7 26  1  0  0  0
  7 29  1  0  0  0
  8  9  1  0  0  0
  8 22  1  0  0  0
  9 10  1  0  0  0
  9 27  2  0  0  0
 10 11  2  0  0  0
 10 15  1  0  0  0
 11 12  1  0  0  0
 11 94  1  0  0  0
 12 13  2  0  0  0
 12 95  1  0  0  0
 13 14  1  0  0  0
 13 31  1  0  0  0
 14 15  2  0  0  0
 14 96  1  0  0  0
 15 97  1  0  0  0
 16 17  2  0  0  0
 16 21  1  0  0  0
 16 31  1  0  0  0
 17 18  1  0  0  0
 17 98  1  0  0  0
 18 19  2  0  0  0
 18 99  1  0  0  0
 19 20  1  0  0  0
 19 24  1  0  0  0
 20 21  2  0  0  0
 20100  1  0  0  0
 21 23  1  0  0  0
 22 28  1  0  0  0
 22 32  2  0  0  0
 26 27  1  0  0  0
 28101  1  0  0  0
 28102  1  0  0  0
 29103  1  0  0  0
 29104  1  0  0  0
 33 34  1  0  0  0
 33 66  1  0  0  0
 33 70  2  0  0  0
 34 36  1  0  0  0
 34 59  1  0  0  0
 34105  1  0  0  0
 35 44  2  0  0  0
 35 45  1  0  0  0
 35 68  1  0  0  0
 36 56  1  0  0  0
 36106  1  0  0  0
 37 39  1  0  0  0
 37 47  1  0  0  0
 37 66  1  0  0  0
 37107  1  0  0  0
 38 43  2  0  0  0
 38 46  1  0  0  0
 38 47  1  0  0  0
 39 64  1  0  0  0
 39 67  2  0  0  0
 40 52  1  0  0  0
 40 53  2  0  0  0
 40 58  1  0  0  0
 41108  1  0  0  0
 41109  1  0  0  0
 41110  1  0  0  0
 41 48  1  0  0  0
 42 43  1  0  0  0
 42 66  1  0  0  0
 42111  1  0  0  0
 42112  1  0  0  0
 43 44  1  0  0  0
 44113  1  0  0  0
 45 46  2  0  0  0
 45114  1  0  0  0
 46115  1  0  0  0
 47116  1  0  0  0
 47117  1  0  0  0
 48 56  1  0  0  0
 48 65  1  0  0  0
 48118  1  0  0  0
 49 50  1  0  0  0
 49 53  1  0  0  0
 49 64  1  0  0  0
 49119  1  0  0  0
 50 51  1  0  0  0
 50120  1  0  0  0
 50121  1  0  0  0
 51 52  1  0  0  0
 51122  1  0  0  0
 51123  1  0  0  0
 52124  1  0  0  0
 52125  1  0  0  0
 53 54  1  0  0  0
 54 55  2  0  0  0
 54126  1  0  0  0
 55 57  1  0  0  0
 55127  1  0  0  0
 56 69  2  0  0  0
 57 58  2  0  0  0
 57128  1  0  0  0
 58129  1  0  0  0
 59 60  1  0  0  0
 59 61  1  0  0  0
 59 62  1  0  0  0
 60130  1  0  0  0
 60131  1  0  0  0
 60132  1  0  0  0
 61133  1  0  0  0
 61134  1  0  0  0
 61135  1  0  0  0
 62136  1  0  0  0
 62137  1  0  0  0
 62138  1  0  0  0
 63 65  1  0  0  0
 63139  1  0  0  0
 63140  1  0  0  0
 63141  1  0  0  0
 64142  1  0  0  0
 65143  1  0  0  0
 68 73  1  0  0  0
 71 78  1  0  0  0
 71 80  2  0  0  0
 71 81  1  0  0  0
 72 79  1  0  0  0
 72 80  1  0  0  0
 72 82  2  0  0  0
 73 81  2  0  0  0
 73 82  1  0  0  0
 74 75  1  0  0  0
 74 77  1  0  0  0
 74144  1  0  0  0
 74145  1  0  0  0
 75 83  1  0  0  0
 75146  1  0  0  0
 75147  1  0  0  0
 76 77  1  0  0  0
 76 83  1  0  0  0
 76148  1  0  0  0
 76149  1  0  0  0
 77 84  1  0  0  0
 77150  1  0  0  0
 78151  1  0  0  0
 78152  1  0  0  0
 78153  1  0  0  0
 79 84  1  0  0  0
 79154  1  0  0  0
 79155  1  0  0  0
 84156  1  0  0  0
 84157  1  0  0  0
M  CHG  1  84   1
M  ISO  4   1 100  68 101  73 101  83 100
M  END
> <chiral flag>
0

> <version>
0

> <s_m_source_file>
/data/baiqing/PycharmProjects/Reinvent-master-3.2/result/LINK_invent/BTK/process_docking_weight1_custom_sum_contain_oxygen_bond_distance_aromatic_linkinvent_7_9_3/rearranged_h_0192.sdf

> <i_m_source_file_index>
4

> <r_mmod_Potential_Energy-OPLS-2005>
-498.506408691406

> <r_mmod_Stretch_Energy-OPLS-2005>
147.437286376953

> <r_mmod_Bend_Energy-OPLS-2005>
225.218658447266

> <r_mmod_Torsional_Energy-OPLS-2005>
353.496734619141

> <r_mmod_Improper_Torsional_Energy-OPLS-2005>
15.7094659805298

> <r_mmod_Van_der_Waal_Energy-OPLS-2005>
141.371429443359

> <r_mmod_Electrostatic_Energy-OPLS-2005>
-1025.67077636719

> <r_mmod_Solvation_Energy-OPLS-2005>
-481.828857421875

> <b_mmod_Minimization_Converged-OPLS-2005>
0

> <r_mmod_RMS_Derivative-OPLS-2005>
1.39748704433441

$$$$
4
                    3D
 Structure written by MMmdl.
155163  0  0  1  0            999 V2000
  -30.5785  -14.9887   20.4353 C   0  0  0  0  0  0
  -30.4321  -12.6249   19.4999 C   0  0  0  0  0  0
  -29.5158  -12.5303   18.2586 C   0  0  0  0  0  0
  -28.0549  -12.2961   18.6831 C   0  0  0  0  0  0
  -27.6225  -13.2416   19.8316 C   0  0  2  0  0  0
  -28.6691  -13.3036   20.9690 C   0  0  0  0  0  0
  -25.2370  -13.8161   20.5654 C   0  0  0  0  0  0
  -24.1727  -13.0388   20.9240 C   0  0  0  0  0  0
  -24.6372  -11.6890   20.8783 C   0  0  0  0  0  0
  -23.9066  -10.4266   21.0425 C   0  0  0  0  0  0
  -24.3617   -9.4183   21.9199 C   0  0  0  0  0  0
  -23.6290   -8.2221   22.0759 C   0  0  0  0  0  0
  -22.4273   -8.0268   21.3545 C   0  0  0  0  0  0
  -21.9911   -9.0242   20.4647 C   0  0  0  0  0  0
  -22.7244  -10.2117   20.3064 C   0  0  0  0  0  0
  -21.6848   -6.0729   22.5280 C   0  0  0  0  0  0
  -21.4012   -6.5635   23.8213 C   0  0  0  0  0  0
  -21.3660   -5.6789   24.9175 C   0  0  0  0  0  0
  -21.6044   -4.3052   24.7226 C   0  0  0  0  0  0
  -21.8820   -3.8143   23.4348 C   0  0  0  0  0  0
  -21.9191   -4.6958   22.3404 C   0  0  0  0  0  0
  -22.7752  -13.5167   21.1891 C   0  0  0  0  0  0
  -22.1660   -4.2145   21.0981 F   0  0  0  0  0  0
  -21.5628   -3.4538   25.7740 F   0  0  0  0  0  0
  -29.9333  -13.7443   20.3608 N   0  0  0  0  0  0
  -26.2834  -12.9414   20.3229 N   0  0  0  0  0  0
  -25.9304  -11.6551   20.5774 N   0  0  0  0  0  0
  -22.0408  -12.8170   22.0460 N   0  0  0  0  0  0
  -25.3840  -15.1880   20.3948 N   0  0  0  0  0  0
  -31.7838  -14.9769   20.1582 O   0  0  0  0  0  0
  -21.6633   -6.8870   21.4241 O   0  0  0  0  0  0
  -22.3440  -14.5474   20.6732 O   0  0  0  0  0  0
  -24.6448  -31.8424   23.1869 C   0  0  0  0  0  0
  -25.9211  -32.4688   23.8264 C   0  0  1  0  0  0
  -27.2167  -27.1154   20.1604 C   0  0  0  0  0  0
  -25.5949  -33.8495   24.2176 N   0  0  0  0  0  0
  -23.4498  -30.4611   21.5331 C   0  0  2  0  0  0
  -24.9000  -28.8830   20.1144 C   0  0  0  0  0  0
  -22.7575  -29.4537   22.4855 C   0  0  0  0  0  0
  -18.0305  -28.1397   22.8476 C   0  0  0  0  0  0
  -24.1492  -36.7256   23.2643 C   0  0  0  0  0  0
  -26.0078  -30.7091   21.3903 C   0  0  0  0  0  0
  -26.0785  -29.3178   20.7340 C   0  0  0  0  0  0
  -27.2388  -28.4518   20.7369 C   0  0  0  0  0  0
  -26.0144  -26.7915   19.4940 C   0  0  0  0  0  0
  -24.8818  -27.6337   19.4779 C   0  0  0  0  0  0
  -23.6782  -29.7884   20.1538 C   0  0  0  0  0  0
  -25.4125  -36.3028   24.0311 C   0  0  1  0  0  0
  -20.5919  -28.3723   23.1231 C   0  0  2  0  0  0
  -20.6788  -26.9424   22.5404 C   0  0  0  0  0  0
  -19.5762  -26.6380   21.5212 C   0  0  0  0  0  0
  -18.1943  -26.7934   22.1623 C   0  0  0  0  0  0
  -19.1562  -28.8878   23.2845 C   0  0  0  0  0  0
  -18.9479  -30.1474   23.8872 C   0  0  0  0  0  0
  -17.6475  -30.6593   24.0558 C   0  0  0  0  0  0
  -25.9076  -34.9403   23.5054 C   0  0  0  0  0  0
  -16.5365  -29.9085   23.6338 C   0  0  0  0  0  0
  -16.7289  -28.6504   23.0358 C   0  0  0  0  0  0
  -26.4521  -31.6569   25.0720 C   0  0  0  0  0  0
  -25.3695  -31.3770   26.1407 C   0  0  0  0  0  0
  -27.0394  -30.2960   24.6330 C   0  0  0  0  0  0
  -27.6039  -32.4347   25.7511 C   0  0  0  0  0  0
  -27.5575  -37.1784   24.8464 C   0  0  0  0  0  0
  -21.4266  -29.3047   22.3603 N   0  0  0  0  0  0
  -26.4286  -37.3742   23.9406 N   0  0  0  0  0  0
  -24.7207  -31.0259   22.0915 N   0  0  0  0  0  0
  -23.4208  -28.8084   23.3013 O   0  0  0  0  0  0
  -28.2698  -26.1226   20.1957 O   0  0  0  0  0  0
  -26.5669  -34.8902   22.4639 O   0  0  0  0  0  0
  -23.5563  -32.1311   23.7074 O   0  0  0  0  0  0
  -28.1859  -18.1015   20.6763 C   0  0  0  0  0  0
  -28.5631  -16.6056   21.0252 C   0  0  0  0  0  0
  -30.4373  -17.6933   20.1924 C   0  0  0  0  0  0
  -29.4813  -18.9218   20.7268 C   0  0  1  0  0  0
  -28.6764  -21.6514   20.6378 C   0  0  0  0  0  0
  -27.9839  -24.5992   20.4410 C   0  0  0  0  0  0
  -28.9599  -23.2456   20.1130 C   0  0  1  0  0  0
  -29.9115  -16.2680   20.5243 N   0  0  0  0  0  0
  -30.2919  -23.5941   20.5813 N   0  0  0  0  0  0
  -29.5026  -20.3996   20.1154 N   0  3  0  0  0  0
  -31.4632  -12.7750   19.1773 H   0  0  0  0  0  0
  -30.4350  -11.6834   20.0517 H   0  0  0  0  0  0
  -29.8485  -11.7263   17.6008 H   0  0  0  0  0  0
  -29.5874  -13.4520   17.6788 H   0  0  0  0  0  0
  -27.9694  -11.2589   19.0095 H   0  0  0  0  0  0
  -27.3871  -12.4024   17.8272 H   0  0  0  0  0  0
  -27.5705  -14.2220   19.3621 H   0  0  0  0  0  0
  -28.7799  -12.3304   21.4500 H   0  0  0  0  0  0
  -28.3569  -13.9893   21.7563 H   0  0  0  0  0  0
  -25.2757   -9.5660   22.4782 H   0  0  0  0  0  0
  -23.9992   -7.4611   22.7480 H   0  0  0  0  0  0
  -21.0841   -8.8766   19.8954 H   0  0  0  0  0  0
  -22.3704  -10.9661   19.6178 H   0  0  0  0  0  0
  -21.2004   -7.6144   23.9715 H   0  0  0  0  0  0
  -21.1482   -6.0519   25.9078 H   0  0  0  0  0  0
  -22.0598   -2.7605   23.2848 H   0  0  0  0  0  0
  -22.4027  -11.9837   22.4856 H   0  0  0  0  0  0
  -21.1027  -13.1197   22.2670 H   0  0  0  0  0  0
  -24.6009  -15.8240   20.4983 H   0  0  0  0  0  0
  -26.2103  -15.6358   20.0232 H   0  0  0  0  0  0
  -26.7277  -32.5285   23.0991 H   0  0  0  0  0  0
  -25.0053  -33.9608   25.0293 H   0  0  0  0  0  0
  -22.7533  -31.2875   21.3767 H   0  0  0  0  0  0
  -23.3756  -35.9585   23.3292 H   0  0  0  0  0  0
  -24.3575  -36.8905   22.2060 H   0  0  0  0  0  0
  -23.7244  -37.6445   23.6694 H   0  0  0  0  0  0
  -26.1675  -31.4617   20.6169 H   0  0  0  0  0  0
  -26.8764  -30.7592   22.0353 H   0  0  0  0  0  0
  -28.1380  -28.7826   21.2376 H   0  0  0  0  0  0
  -25.9221  -25.8484   18.9777 H   0  0  0  0  0  0
  -23.9855  -27.2990   18.9738 H   0  0  0  0  0  0
  -23.8185  -30.5619   19.3980 H   0  0  0  0  0  0
  -22.7925  -29.2324   19.8414 H   0  0  0  0  0  0
  -25.1315  -36.1852   25.0804 H   0  0  0  0  0  0
  -21.0010  -28.3314   24.1353 H   0  0  0  0  0  0
  -20.5680  -26.2335   23.3623 H   0  0  0  0  0  0
  -21.6653  -26.7426   22.1202 H   0  0  0  0  0  0
  -19.6922  -25.6284   21.1257 H   0  0  0  0  0  0
  -19.6700  -27.3176   20.6731 H   0  0  0  0  0  0
  -17.4211  -26.6677   21.4029 H   0  0  0  0  0  0
  -18.0345  -26.0084   22.9029 H   0  0  0  0  0  0
  -19.7954  -30.7297   24.2229 H   0  0  0  0  0  0
  -17.5028  -31.6271   24.5164 H   0  0  0  0  0  0
  -15.5364  -30.2978   23.7678 H   0  0  0  0  0  0
  -15.8689  -28.0814   22.7088 H   0  0  0  0  0  0
  -24.5875  -30.7121   25.7722 H   0  0  0  0  0  0
  -24.8883  -32.2960   26.4767 H   0  0  0  0  0  0
  -25.7962  -30.8980   27.0227 H   0  0  0  0  0  0
  -26.3022  -29.6674   24.1320 H   0  0  0  0  0  0
  -27.3973  -29.7271   25.4921 H   0  0  0  0  0  0
  -27.8944  -30.4186   23.9677 H   0  0  0  0  0  0
  -27.2617  -33.3664   26.2027 H   0  0  0  0  0  0
  -28.3880  -32.6885   25.0367 H   0  0  0  0  0  0
  -28.0675  -31.8520   26.5480 H   0  0  0  0  0  0
  -28.2581  -38.0091   24.7508 H   0  0  0  0  0  0
  -28.1081  -36.2618   24.6293 H   0  0  0  0  0  0
  -27.2291  -37.1433   25.8866 H   0  0  0  0  0  0
  -20.9478  -29.8761   21.6781 H   0  0  0  0  0  0
  -26.0151  -38.2809   24.1410 H   0  0  0  0  0  0
  -27.4249  -18.4962   21.3505 H   0  0  0  0  0  0
  -27.7713  -18.1413   19.6680 H   0  0  0  0  0  0
  -27.8195  -15.9416   20.6120 H   0  0  0  0  0  0
  -28.5575  -16.4628   22.1069 H   0  0  0  0  0  0
  -31.4478  -17.8085   20.5862 H   0  0  0  0  0  0
  -30.5261  -17.7526   19.1071 H   0  0  0  0  0  0
  -29.7244  -19.0581   21.7818 H   0  0  0  0  0  0
  -27.6310  -21.4230   20.4266 H   0  0  0  0  0  0
  -28.7457  -21.6401   21.7258 H   0  0  0  0  0  0
  -27.7612  -24.5500   21.5074 H   0  0  0  0  0  0
  -27.0320  -24.3591   19.9735 H   0  0  0  0  0  0
  -29.0179  -23.1945   19.0247 H   0  0  0  0  0  0
  -30.2547  -23.7448   21.5851 H   0  0  0  0  0  0
  -30.5122  -24.5167   20.2159 H   0  0  0  0  0  0
  -29.3118  -20.3252   19.1304 H   0  0  0  0  0  0
  -30.4595  -20.7089   20.1828 H   0  0  0  0  0  0
  1 25  1  0  0  0
  1 30  2  0  0  0
  1 78  1  0  0  0
  2  3  1  0  0  0
  2 25  1  0  0  0
  2 81  1  0  0  0
  2 82  1  0  0  0
  3  4  1  0  0  0
  3 83  1  0  0  0
  3 84  1  0  0  0
  4  5  1  0  0  0
  4 85  1  0  0  0
  4 86  1  0  0  0
  5  6  1  0  0  0
  5 26  1  0  0  0
  5 87  1  0  0  0
  6 25  1  0  0  0
  6 88  1  0  0  0
  6 89  1  0  0  0
  7  8  2  0  0  0
  7 26  1  0  0  0
  7 29  1  0  0  0
  8  9  1  0  0  0
  8 22  1  0  0  0
  9 10  1  0  0  0
  9 27  2  0  0  0
 10 11  2  0  0  0
 10 15  1  0  0  0
 11 12  1  0  0  0
 11 90  1  0  0  0
 12 13  2  0  0  0
 12 91  1  0  0  0
 13 14  1  0  0  0
 13 31  1  0  0  0
 14 15  2  0  0  0
 14 92  1  0  0  0
 15 93  1  0  0  0
 16 17  2  0  0  0
 16 21  1  0  0  0
 16 31  1  0  0  0
 17 18  1  0  0  0
 17 94  1  0  0  0
 18 19  2  0  0  0
 18 95  1  0  0  0
 19 20  1  0  0  0
 19 24  1  0  0  0
 20 21  2  0  0  0
 20 96  1  0  0  0
 21 23  1  0  0  0
 22 28  1  0  0  0
 22 32  2  0  0  0
 26 27  1  0  0  0
 28 97  1  0  0  0
 28 98  1  0  0  0
 29 99  1  0  0  0
 29100  1  0  0  0
 33 34  1  0  0  0
 33 66  1  0  0  0
 33 70  2  0  0  0
 34 36  1  0  0  0
 34 59  1  0  0  0
 34101  1  0  0  0
 35 44  2  0  0  0
 35 45  1  0  0  0
 35 68  1  0  0  0
 36 56  1  0  0  0
 36102  1  0  0  0
 37 39  1  0  0  0
 37 47  1  0  0  0
 37 66  1  0  0  0
 37103  1  0  0  0
 38 43  2  0  0  0
 38 46  1  0  0  0
 38 47  1  0  0  0
 39 64  1  0  0  0
 39 67  2  0  0  0
 40 52  1  0  0  0
 40 53  2  0  0  0
 40 58  1  0  0  0
 41104  1  0  0  0
 41105  1  0  0  0
 41106  1  0  0  0
 41 48  1  0  0  0
 42 43  1  0  0  0
 42 66  1  0  0  0
 42107  1  0  0  0
 42108  1  0  0  0
 43 44  1  0  0  0
 44109  1  0  0  0
 45 46  2  0  0  0
 45110  1  0  0  0
 46111  1  0  0  0
 47112  1  0  0  0
 47113  1  0  0  0
 48 56  1  0  0  0
 48 65  1  0  0  0
 48114  1  0  0  0
 49 50  1  0  0  0
 49 53  1  0  0  0
 49 64  1  0  0  0
 49115  1  0  0  0
 50 51  1  0  0  0
 50116  1  0  0  0
 50117  1  0  0  0
 51 52  1  0  0  0
 51118  1  0  0  0
 51119  1  0  0  0
 52120  1  0  0  0
 52121  1  0  0  0
 53 54  1  0  0  0
 54 55  2  0  0  0
 54122  1  0  0  0
 55 57  1  0  0  0
 55123  1  0  0  0
 56 69  2  0  0  0
 57 58  2  0  0  0
 57124  1  0  0  0
 58125  1  0  0  0
 59 60  1  0  0  0
 59 61  1  0  0  0
 59 62  1  0  0  0
 60126  1  0  0  0
 60127  1  0  0  0
 60128  1  0  0  0
 61129  1  0  0  0
 61130  1  0  0  0
 61131  1  0  0  0
 62132  1  0  0  0
 62133  1  0  0  0
 62134  1  0  0  0
 63 65  1  0  0  0
 63135  1  0  0  0
 63136  1  0  0  0
 63137  1  0  0  0
 64138  1  0  0  0
 65139  1  0  0  0
 68 76  1  0  0  0
 71 72  1  0  0  0
 71 74  1  0  0  0
 71140  1  0  0  0
 71141  1  0  0  0
 72 78  1  0  0  0
 72142  1  0  0  0
 72143  1  0  0  0
 73 74  1  0  0  0
 73 78  1  0  0  0
 73144  1  0  0  0
 73145  1  0  0  0
 74 80  1  0  0  0
 74146  1  0  0  0
 75 77  1  0  0  0
 75 80  1  0  0  0
 75147  1  0  0  0
 75148  1  0  0  0
 76 77  1  0  0  0
 76149  1  0  0  0
 76150  1  0  0  0
 77 79  1  0  0  0
 77151  1  0  0  0
 79152  1  0  0  0
 79153  1  0  0  0
 80154  1  0  0  0
 80155  1  0  0  0
M  CHG  1  80   1
M  ISO  4   1 100  68 101  76 101  78 100
M  END
> <chiral flag>
0

> <version>
0

> <s_m_source_file>
/data/baiqing/PycharmProjects/Reinvent-master-3.2/result/LINK_invent/BTK/process_docking_weight1_custom_sum_contain_oxygen_bond_distance_aromatic_linkinvent_7_9_3/rearranged_h_0192.sdf

> <i_m_source_file_index>
5

> <r_mmod_Potential_Energy-OPLS-2005>
520.281799316406

> <r_mmod_Stretch_Energy-OPLS-2005>
275.367462158203

> <r_mmod_Bend_Energy-OPLS-2005>
310.360565185547

> <r_mmod_Torsional_Energy-OPLS-2005>
321.876007080078

> <r_mmod_Improper_Torsional_Energy-OPLS-2005>
6.73347043991089

> <r_mmod_Van_der_Waal_Energy-OPLS-2005>
112.619400024414

> <r_mmod_Electrostatic_Energy-OPLS-2005>
-247.81770324707

> <r_mmod_Solvation_Energy-OPLS-2005>
-470.420288085938

> <b_mmod_Minimization_Converged-OPLS-2005>
0

> <r_mmod_RMS_Derivative-OPLS-2005>
0.316127210855484

$$$$
5
                    3D
 Structure written by MMmdl.
157166  0  0  1  0            999 V2000
  -30.5955  -14.8971   20.4224 C   0  0  0  0  0  0
  -30.4286  -12.5557   19.4901 C   0  0  0  0  0  0
  -29.5142  -12.5206   18.2464 C   0  0  0  0  0  0
  -28.0446  -12.3249   18.6632 C   0  0  0  0  0  0
  -27.6295  -13.2516   19.8378 C   0  0  2  0  0  0
  -28.6752  -13.2782   20.9720 C   0  0  0  0  0  0
  -25.2479  -13.8227   20.5726 C   0  0  0  0  0  0
  -24.1787  -13.0447   20.9221 C   0  0  0  0  0  0
  -24.6400  -11.6931   20.8751 C   0  0  0  0  0  0
  -23.9088  -10.4298   21.0394 C   0  0  0  0  0  0
  -24.3636   -9.4216   21.9175 C   0  0  0  0  0  0
  -23.6314   -8.2243   22.0751 C   0  0  0  0  0  0
  -22.4295   -8.0282   21.3539 C   0  0  0  0  0  0
  -21.9933   -9.0257   20.4642 C   0  0  0  0  0  0
  -22.7257  -10.2137   20.3044 C   0  0  0  0  0  0
  -21.6854   -6.0740   22.5282 C   0  0  0  0  0  0
  -21.4008   -6.5643   23.8214 C   0  0  0  0  0  0
  -21.3669   -5.6798   24.9179 C   0  0  0  0  0  0
  -21.6050   -4.3059   24.7223 C   0  0  0  0  0  0
  -21.8821   -3.8147   23.4343 C   0  0  0  0  0  0
  -21.9192   -4.6967   22.3402 C   0  0  0  0  0  0
  -22.7811  -13.5221   21.1872 C   0  0  0  0  0  0
  -22.1659   -4.2151   21.0980 F   0  0  0  0  0  0
  -21.5639   -3.4545   25.7734 F   0  0  0  0  0  0
  -29.9504  -13.6658   20.3613 N   0  0  0  0  0  0
  -26.2901  -12.9466   20.3274 N   0  0  0  0  0  0
  -25.9339  -11.6586   20.5744 N   0  0  0  0  0  0
  -22.0460  -12.8210   22.0425 N   0  0  0  0  0  0
  -25.4174  -15.1956   20.4177 N   0  0  0  0  0  0
  -31.8053  -14.9000   20.1697 O   0  0  0  0  0  0
  -21.6651   -6.8884   21.4241 O   0  0  0  0  0  0
  -22.3498  -14.5531   20.6724 O   0  0  0  0  0  0
  -24.6428  -31.8470   23.1911 C   0  0  0  0  0  0
  -25.9212  -32.4707   23.8294 C   0  0  1  0  0  0
  -27.2040  -27.1545   20.1378 C   0  0  0  0  0  0
  -25.5971  -33.8514   24.2208 N   0  0  0  0  0  0
  -23.4439  -30.4697   21.5374 C   0  0  2  0  0  0
  -24.8892  -28.9043   20.1084 C   0  0  0  0  0  0
  -22.7561  -29.4566   22.4877 C   0  0  0  0  0  0
  -18.0301  -28.1396   22.8477 C   0  0  0  0  0  0
  -24.1492  -36.7261   23.2641 C   0  0  0  0  0  0
  -26.0002  -30.7251   21.3881 C   0  0  0  0  0  0
  -26.0686  -29.3405   20.7253 C   0  0  0  0  0  0
  -27.2290  -28.4813   20.7246 C   0  0  0  0  0  0
  -25.9987  -26.8202   19.4800 C   0  0  0  0  0  0
  -24.8662  -27.6572   19.4707 C   0  0  0  0  0  0
  -23.6676  -29.8054   20.1543 C   0  0  0  0  0  0
  -25.4123  -36.3041   24.0320 C   0  0  1  0  0  0
  -20.5913  -28.3722   23.1240 C   0  0  2  0  0  0
  -20.6794  -26.9433   22.5398 C   0  0  0  0  0  0
  -19.5767  -26.6384   21.5212 C   0  0  0  0  0  0
  -18.1947  -26.7937   22.1620 C   0  0  0  0  0  0
  -19.1557  -28.8877   23.2853 C   0  0  0  0  0  0
  -18.9474  -30.1473   23.8880 C   0  0  0  0  0  0
  -17.6470  -30.6594   24.0554 C   0  0  0  0  0  0
  -25.9076  -34.9416   23.5067 C   0  0  0  0  0  0
  -16.5363  -29.9083   23.6336 C   0  0  0  0  0  0
  -16.7286  -28.6500   23.0359 C   0  0  0  0  0  0
  -26.4525  -31.6573   25.0736 C   0  0  0  0  0  0
  -25.3705  -31.3766   26.1429 C   0  0  0  0  0  0
  -27.0384  -30.2971   24.6311 C   0  0  0  0  0  0
  -27.6061  -32.4331   25.7519 C   0  0  0  0  0  0
  -27.5577  -37.1789   24.8459 C   0  0  0  0  0  0
  -21.4255  -29.3055   22.3622 N   0  0  0  0  0  0
  -26.4285  -37.3756   23.9411 N   0  0  0  0  0  0
  -24.7155  -31.0345   22.0936 N   0  0  0  0  0  0
  -23.4218  -28.8110   23.3016 O   0  0  0  0  0  0
  -28.2453  -26.1639   20.2114 O   0  0  0  0  0  0
  -26.5649  -34.8907   22.4637 O   0  0  0  0  0  0
  -23.5552  -32.1342   23.7136 O   0  0  0  0  0  0
  -28.5316  -21.9449   20.1402 C   0  0  0  0  0  0
  -28.8795  -23.3747   20.3222 C   0  0  0  0  0  0
  -30.2082  -23.5325   20.7805 C   0  0  0  0  0  0
  -29.4758  -20.8392   20.3936 C   0  0  0  0  0  0
  -30.4080  -18.6222   19.5194 C   0  0  0  0  0  0
  -28.7930  -18.4699   21.2585 C   0  0  0  0  0  0
  -30.1033  -17.0841   19.1930 C   0  0  0  0  0  0
  -29.4652  -16.9963   21.4957 C   0  0  0  0  0  0
  -30.8012  -24.9008   21.0491 C   0  0  0  0  0  0
  -27.9023  -24.6607   20.0409 C   0  0  0  0  0  0
  -31.0521  -22.4888   21.0171 N   0  0  0  0  0  0
  -30.7060  -21.2056   20.8282 N   0  0  0  0  0  0
  -29.3190  -19.3766   20.1909 N   0  0  0  0  0  0
  -29.8795  -16.1271   20.3333 N   0  0  0  0  0  0
  -31.4670  -12.6862   19.1791 H   0  0  0  0  0  0
  -30.3959  -11.6046   20.0244 H   0  0  0  0  0  0
  -29.8237  -11.7216   17.5722 H   0  0  0  0  0  0
  -29.6175  -13.4520   17.6871 H   0  0  0  0  0  0
  -27.9256  -11.2822   18.9593 H   0  0  0  0  0  0
  -27.3836  -12.4751   17.8082 H   0  0  0  0  0  0
  -27.5951  -14.2576   19.4185 H   0  0  0  0  0  0
  -28.7521  -12.3078   21.4634 H   0  0  0  0  0  0
  -28.3872  -13.9979   21.7401 H   0  0  0  0  0  0
  -25.2767   -9.5704   22.4769 H   0  0  0  0  0  0
  -24.0025   -7.4641   22.7474 H   0  0  0  0  0  0
  -21.0860   -8.8774   19.8956 H   0  0  0  0  0  0
  -22.3698  -10.9686   19.6168 H   0  0  0  0  0  0
  -21.1986   -7.6149   23.9717 H   0  0  0  0  0  0
  -21.1499   -6.0524   25.9089 H   0  0  0  0  0  0
  -22.0590   -2.7607   23.2834 H   0  0  0  0  0  0
  -22.4075  -11.9875   22.4828 H   0  0  0  0  0  0
  -21.1074  -13.1228   22.2612 H   0  0  0  0  0  0
  -24.6538  -15.8528   20.5346 H   0  0  0  0  0  0
  -26.2766  -15.6361   20.1140 H   0  0  0  0  0  0
  -26.7286  -32.5311   23.1029 H   0  0  0  0  0  0
  -25.0105  -33.9639   25.0347 H   0  0  0  0  0  0
  -22.7455  -31.2955   21.3871 H   0  0  0  0  0  0
  -23.3762  -35.9583   23.3276 H   0  0  0  0  0  0
  -24.3591  -36.8916   22.2061 H   0  0  0  0  0  0
  -23.7230  -37.6447   23.6689 H   0  0  0  0  0  0
  -26.1577  -31.4825   20.6189 H   0  0  0  0  0  0
  -26.8709  -30.7699   22.0309 H   0  0  0  0  0  0
  -28.1270  -28.8074   21.2305 H   0  0  0  0  0  0
  -25.8842  -25.8705   18.9803 H   0  0  0  0  0  0
  -23.9657  -27.3203   18.9752 H   0  0  0  0  0  0
  -23.8037  -30.5821   19.4010 H   0  0  0  0  0  0
  -22.7815  -29.2492   19.8434 H   0  0  0  0  0  0
  -25.1306  -36.1871   25.0812 H   0  0  0  0  0  0
  -20.9998  -28.3307   24.1366 H   0  0  0  0  0  0
  -20.5696  -26.2340   23.3614 H   0  0  0  0  0  0
  -21.6659  -26.7456   22.1191 H   0  0  0  0  0  0
  -19.6931  -25.6285   21.1264 H   0  0  0  0  0  0
  -19.6704  -27.3169   20.6723 H   0  0  0  0  0  0
  -17.4218  -26.6677   21.4019 H   0  0  0  0  0  0
  -18.0350  -26.0083   22.9020 H   0  0  0  0  0  0
  -19.7951  -30.7288   24.2249 H   0  0  0  0  0  0
  -17.5026  -31.6276   24.5150 H   0  0  0  0  0  0
  -15.5362  -30.2976   23.7679 H   0  0  0  0  0  0
  -15.8687  -28.0808   22.7095 H   0  0  0  0  0  0
  -24.5874  -30.7132   25.7740 H   0  0  0  0  0  0
  -24.8903  -32.2948   26.4823 H   0  0  0  0  0  0
  -25.7979  -30.8948   27.0231 H   0  0  0  0  0  0
  -26.3000  -29.6701   24.1301 H   0  0  0  0  0  0
  -27.3975  -29.7273   25.4891 H   0  0  0  0  0  0
  -27.8920  -30.4208   23.9644 H   0  0  0  0  0  0
  -27.2661  -33.3641   26.2070 H   0  0  0  0  0  0
  -28.3891  -32.6879   25.0365 H   0  0  0  0  0  0
  -28.0710  -31.8475   26.5460 H   0  0  0  0  0  0
  -28.2574  -38.0106   24.7532 H   0  0  0  0  0  0
  -28.1096  -36.2640   24.6248 H   0  0  0  0  0  0
  -27.2309  -37.1390   25.8865 H   0  0  0  0  0  0
  -20.9469  -29.8775   21.6807 H   0  0  0  0  0  0
  -26.0148  -38.2825   24.1414 H   0  0  0  0  0  0
  -27.5442  -21.6983   19.7806 H   0  0  0  0  0  0
  -30.6381  -19.1356   18.5844 H   0  0  0  0  0  0
  -31.3166  -18.6883   20.1211 H   0  0  0  0  0  0
  -28.7996  -19.0139   22.2048 H   0  0  0  0  0  0
  -27.7380  -18.3171   21.0296 H   0  0  0  0  0  0
  -30.9250  -16.7149   18.5758 H   0  0  0  0  0  0
  -29.2250  -17.0270   18.5491 H   0  0  0  0  0  0
  -28.7978  -16.4123   22.1307 H   0  0  0  0  0  0
  -30.3636  -17.1412   22.0980 H   0  0  0  0  0  0
  -30.7657  -25.5175   20.1517 H   0  0  0  0  0  0
  -31.8442  -24.8312   21.3592 H   0  0  0  0  0  0
  -30.2482  -25.4036   21.8423 H   0  0  0  0  0  0
  -27.0134  -24.4749   20.6455 H   0  0  0  0  0  0
  -27.5893  -24.5299   19.0051 H   0  0  0  0  0  0
  1 25  1  0  0  0
  1 30  2  0  0  0
  1 84  1  0  0  0
  2  3  1  0  0  0
  2 25  1  0  0  0
  2 85  1  0  0  0
  2 86  1  0  0  0
  3  4  1  0  0  0
  3 87  1  0  0  0
  3 88  1  0  0  0
  4  5  1  0  0  0
  4 89  1  0  0  0
  4 90  1  0  0  0
  5  6  1  0  0  0
  5 26  1  0  0  0
  5 91  1  0  0  0
  6 25  1  0  0  0
  6 92  1  0  0  0
  6 93  1  0  0  0
  7  8  2  0  0  0
  7 26  1  0  0  0
  7 29  1  0  0  0
  8  9  1  0  0  0
  8 22  1  0  0  0
  9 10  1  0  0  0
  9 27  2  0  0  0
 10 11  2  0  0  0
 10 15  1  0  0  0
 11 12  1  0  0  0
 11 94  1  0  0  0
 12 13  2  0  0  0
 12 95  1  0  0  0
 13 14  1  0  0  0
 13 31  1  0  0  0
 14 15  2  0  0  0
 14 96  1  0  0  0
 15 97  1  0  0  0
 16 17  2  0  0  0
 16 21  1  0  0  0
 16 31  1  0  0  0
 17 18  1  0  0  0
 17 98  1  0  0  0
 18 19  2  0  0  0
 18 99  1  0  0  0
 19 20  1  0  0  0
 19 24  1  0  0  0
 20 21  2  0  0  0
 20100  1  0  0  0
 21 23  1  0  0  0
 22 28  1  0  0  0
 22 32  2  0  0  0
 26 27  1  0  0  0
 28101  1  0  0  0
 28102  1  0  0  0
 29103  1  0  0  0
 29104  1  0  0  0
 33 34  1  0  0  0
 33 66  1  0  0  0
 33 70  2  0  0  0
 34 36  1  0  0  0
 34 59  1  0  0  0
 34105  1  0  0  0
 35 44  2  0  0  0
 35 45  1  0  0  0
 35 68  1  0  0  0
 36 56  1  0  0  0
 36106  1  0  0  0
 37 39  1  0  0  0
 37 47  1  0  0  0
 37 66  1  0  0  0
 37107  1  0  0  0
 38 43  2  0  0  0
 38 46  1  0  0  0
 38 47  1  0  0  0
 39 64  1  0  0  0
 39 67  2  0  0  0
 40 52  1  0  0  0
 40 53  2  0  0  0
 40 58  1  0  0  0
 41108  1  0  0  0
 41109  1  0  0  0
 41110  1  0  0  0
 41 48  1  0  0  0
 42 43  1  0  0  0
 42 66  1  0  0  0
 42111  1  0  0  0
 42112  1  0  0  0
 43 44  1  0  0  0
 44113  1  0  0  0
 45 46  2  0  0  0
 45114  1  0  0  0
 46115  1  0  0  0
 47116  1  0  0  0
 47117  1  0  0  0
 48 56  1  0  0  0
 48 65  1  0  0  0
 48118  1  0  0  0
 49 50  1  0  0  0
 49 53  1  0  0  0
 49 64  1  0  0  0
 49119  1  0  0  0
 50 51  1  0  0  0
 50120  1  0  0  0
 50121  1  0  0  0
 51 52  1  0  0  0
 51122  1  0  0  0
 51123  1  0  0  0
 52124  1  0  0  0
 52125  1  0  0  0
 53 54  1  0  0  0
 54 55  2  0  0  0
 54126  1  0  0  0
 55 57  1  0  0  0
 55127  1  0  0  0
 56 69  2  0  0  0
 57 58  2  0  0  0
 57128  1  0  0  0
 58129  1  0  0  0
 59 60  1  0  0  0
 59 61  1  0  0  0
 59 62  1  0  0  0
 60130  1  0  0  0
 60131  1  0  0  0
 60132  1  0  0  0
 61133  1  0  0  0
 61134  1  0  0  0
 61135  1  0  0  0
 62136  1  0  0  0
 62137  1  0  0  0
 62138  1  0  0  0
 63 65  1  0  0  0
 63139  1  0  0  0
 63140  1  0  0  0
 63141  1  0  0  0
 64142  1  0  0  0
 65143  1  0  0  0
 68 80  1  0  0  0
 71 72  2  0  0  0
 71 74  1  0  0  0
 71144  1  0  0  0
 72 73  1  0  0  0
 72 80  1  0  0  0
 73 79  1  0  0  0
 73 81  2  0  0  0
 74 82  2  0  0  0
 74 83  1  0  0  0
 75 77  1  0  0  0
 75 83  1  0  0  0
 75145  1  0  0  0
 75146  1  0  0  0
 76 78  1  0  0  0
 76 83  1  0  0  0
 76147  1  0  0  0
 76148  1  0  0  0
 77 84  1  0  0  0
 77149  1  0  0  0
 77150  1  0  0  0
 78 84  1  0  0  0
 78151  1  0  0  0
 78152  1  0  0  0
 79153  1  0  0  0
 79154  1  0  0  0
 79155  1  0  0  0
 80156  1  0  0  0
 80157  1  0  0  0
 81 82  1  0  0  0
M  ISO  4   1 100  68 101  80 101  84 100
M  END
> <chiral flag>
0

> <version>
0

> <s_m_source_file>
/data/baiqing/PycharmProjects/Reinvent-master-3.2/result/LINK_invent/BTK/process_docking_weight1_custom_sum_contain_oxygen_bond_distance_aromatic_linkinvent_7_9_3/rearranged_h_0192.sdf

> <i_m_source_file_index>
6

> <r_mmod_Potential_Energy-OPLS-2005>
567.607360839844

> <r_mmod_Stretch_Energy-OPLS-2005>
203.507736206055

> <r_mmod_Bend_Energy-OPLS-2005>
243.179138183594

> <r_mmod_Torsional_Energy-OPLS-2005>
377.86669921875

> <r_mmod_Improper_Torsional_Energy-OPLS-2005>
19.2964611053467

> <r_mmod_Van_der_Waal_Energy-OPLS-2005>
147.219421386719

> <r_mmod_Electrostatic_Energy-OPLS-2005>
-359.788635253906

> <r_mmod_Solvation_Energy-OPLS-2005>
-232.71272277832

> <b_mmod_Minimization_Converged-OPLS-2005>
0

> <r_mmod_RMS_Derivative-OPLS-2005>
1.3143618106842

$$$$
6
                    3D
 Structure written by MMmdl.
161171  0  0  1  0            999 V2000
  -30.6374  -14.5121   20.5448 C   0  0  0  0  0  0
  -30.4333  -12.3148   19.4477 C   0  0  0  0  0  0
  -29.5120  -12.5118   18.2243 C   0  0  0  0  0  0
  -28.0265  -12.3741   18.6239 C   0  0  0  0  0  0
  -27.6635  -13.2026   19.8845 C   0  0  2  0  0  0
  -28.7014  -12.9772   21.0122 C   0  0  0  0  0  0
  -25.2583  -13.8115   20.5653 C   0  0  0  0  0  0
  -24.1852  -13.0395   20.9176 C   0  0  0  0  0  0
  -24.6407  -11.6870   20.8741 C   0  0  0  0  0  0
  -23.9065  -10.4254   21.0393 C   0  0  0  0  0  0
  -24.3607   -9.4177   21.9181 C   0  0  0  0  0  0
  -23.6286   -8.2216   22.0761 C   0  0  0  0  0  0
  -22.4269   -8.0259   21.3536 C   0  0  0  0  0  0
  -21.9887   -9.0225   20.4636 C   0  0  0  0  0  0
  -22.7218  -10.2109   20.3043 C   0  0  0  0  0  0
  -21.6851   -6.0741   22.5284 C   0  0  0  0  0  0
  -21.4019   -6.5635   23.8216 C   0  0  0  0  0  0
  -21.3662   -5.6787   24.9185 C   0  0  0  0  0  0
  -21.6062   -4.3046   24.7245 C   0  0  0  0  0  0
  -21.8811   -3.8148   23.4367 C   0  0  0  0  0  0
  -21.9184   -4.6966   22.3416 C   0  0  0  0  0  0
  -22.7857  -13.5193   21.1854 C   0  0  0  0  0  0
  -22.1640   -4.2155   21.0997 F   0  0  0  0  0  0
  -21.5649   -3.4519   25.7753 F   0  0  0  0  0  0
  -30.0309  -13.2964   20.4700 N   0  0  0  0  0  0
  -26.3036  -12.9289   20.3390 N   0  0  0  0  0  0
  -25.9342  -11.6457   20.5794 N   0  0  0  0  0  0
  -22.0534  -12.8179   22.0427 N   0  0  0  0  0  0
  -25.4266  -15.1837   20.4004 N   0  0  0  0  0  0
  -31.7713  -14.7258   20.1036 O   0  0  0  0  0  0
  -21.6645   -6.8861   21.4233 O   0  0  0  0  0  0
  -22.3504  -14.5475   20.6688 O   0  0  0  0  0  0
  -24.6149  -31.8695   23.2095 C   0  0  0  0  0  0
  -25.9053  -32.4813   23.8398 C   0  0  1  0  0  0
  -27.2152  -27.4169   20.1027 C   0  0  0  0  0  0
  -25.5896  -33.8615   24.2317 N   0  0  0  0  0  0
  -23.4011  -30.4961   21.5515 C   0  0  2  0  0  0
  -24.8442  -28.9720   20.1037 C   0  0  0  0  0  0
  -22.7412  -29.4674   22.4981 C   0  0  0  0  0  0
  -18.0268  -28.1375   22.8474 C   0  0  0  0  0  0
  -24.1488  -36.7318   23.2638 C   0  0  0  0  0  0
  -25.9337  -30.8331   21.3655 C   0  0  0  0  0  0
  -26.0073  -29.4703   20.7031 C   0  0  0  0  0  0
  -27.1974  -28.7033   20.6961 C   0  0  0  0  0  0
  -26.0382  -26.9563   19.4662 C   0  0  0  0  0  0
  -24.8565  -27.7158   19.4776 C   0  0  0  0  0  0
  -23.6070  -29.8394   20.1614 C   0  0  0  0  0  0
  -25.4109  -36.3108   24.0334 C   0  0  1  0  0  0
  -20.5863  -28.3661   23.1301 C   0  0  2  0  0  0
  -20.6755  -26.9391   22.5408 C   0  0  0  0  0  0
  -19.5746  -26.6381   21.5196 C   0  0  0  0  0  0
  -18.1921  -26.7918   22.1608 C   0  0  0  0  0  0
  -19.1518  -28.8829   23.2885 C   0  0  0  0  0  0
  -18.9462  -30.1437   23.8891 C   0  0  0  0  0  0
  -17.6461  -30.6566   24.0565 C   0  0  0  0  0  0
  -25.9038  -34.9473   23.5124 C   0  0  0  0  0  0
  -16.5349  -29.9071   23.6326 C   0  0  0  0  0  0
  -16.7259  -28.6501   23.0325 C   0  0  0  0  0  0
  -26.4476  -31.6579   25.0719 C   0  0  0  0  0  0
  -25.3750  -31.3678   26.1466 C   0  0  0  0  0  0
  -27.0306  -30.3015   24.6108 C   0  0  0  0  0  0
  -27.6040  -32.4305   25.7484 C   0  0  0  0  0  0
  -27.5586  -37.1805   24.8455 C   0  0  0  0  0  0
  -21.4139  -29.3032   22.3712 N   0  0  0  0  0  0
  -26.4287  -37.3796   23.9412 N   0  0  0  0  0  0
  -24.6683  -31.0795   22.0998 N   0  0  0  0  0  0
  -23.4175  -28.8222   23.3026 O   0  0  0  0  0  0
  -28.3573  -26.6361   20.1758 O   0  0  0  0  0  0
  -26.5622  -34.8933   22.4692 O   0  0  0  0  0  0
  -23.5344  -32.1460   23.7481 O   0  0  0  0  0  0
  -29.5499  -21.9514   21.6745 C   0  0  0  0  0  0
  -28.7493  -21.0203   19.2816 C   0  0  0  0  0  0
  -29.1137  -22.8437   20.6660 C   0  0  0  0  0  0
  -29.2762  -20.1147   20.2529 C   0  0  0  0  0  0
  -26.9171  -21.0129   17.3937 C   0  0  0  0  0  0
  -27.1448  -19.5778   17.7739 C   0  0  0  0  0  0
  -30.6024  -17.9770   20.5667 C   0  0  0  0  0  0
  -28.5672  -17.7144   20.3700 C   0  0  0  0  0  0
  -28.2709  -20.5805   17.9248 C   0  0  0  0  0  0
  -29.7615  -16.7750   20.0902 C   0  0  0  0  0  0
  -29.2300  -24.3711   20.8266 C   0  0  0  0  0  0
  -28.1791  -25.2043   20.0528 C   0  0  0  0  0  0
  -29.6423  -20.6089   21.4654 N   0  0  0  0  0  0
  -28.7111  -22.3659   19.4668 N   0  0  0  0  0  0
  -29.5146  -18.7390   19.9336 N   0  0  0  0  0  0
  -29.8084  -15.5275   20.8716 N   0  0  0  0  0  0
  -31.4806  -12.4241   19.1596 H   0  0  0  0  0  0
  -30.3395  -11.3036   19.8431 H   0  0  0  0  0  0
  -29.7601  -11.7837   17.4522 H   0  0  0  0  0  0
  -29.6870  -13.4975   17.7878 H   0  0  0  0  0  0
  -27.8213  -11.3177   18.8011 H   0  0  0  0  0  0
  -27.3854  -12.6661   17.7912 H   0  0  0  0  0  0
  -27.7025  -14.2528   19.5951 H   0  0  0  0  0  0
  -28.6801  -11.9402   21.3514 H   0  0  0  0  0  0
  -28.4689  -13.5797   21.8929 H   0  0  0  0  0  0
  -25.2780   -9.5670   22.4728 H   0  0  0  0  0  0
  -24.0028   -7.4617   22.7461 H   0  0  0  0  0  0
  -21.0835   -8.8711   19.8935 H   0  0  0  0  0  0
  -22.3674  -10.9638   19.6128 H   0  0  0  0  0  0
  -21.1997   -7.6133   23.9724 H   0  0  0  0  0  0
  -21.1498   -6.0523   25.9080 H   0  0  0  0  0  0
  -22.0596   -2.7613   23.2868 H   0  0  0  0  0  0
  -22.4163  -11.9817   22.4757 H   0  0  0  0  0  0
  -21.1151  -13.1198   22.2668 H   0  0  0  0  0  0
  -24.6458  -15.8262   20.4871 H   0  0  0  0  0  0
  -26.2545  -15.6132   20.0101 H   0  0  0  0  0  0
  -26.7124  -32.5519   23.1160 H   0  0  0  0  0  0
  -25.0005  -33.9782   25.0432 H   0  0  0  0  0  0
  -22.6896  -31.3130   21.4186 H   0  0  0  0  0  0
  -23.3745  -35.9653   23.3278 H   0  0  0  0  0  0
  -24.3597  -36.8962   22.2061 H   0  0  0  0  0  0
  -23.7245  -37.6512   23.6680 H   0  0  0  0  0  0
  -26.0591  -31.6080   20.6079 H   0  0  0  0  0  0
  -26.8151  -30.8728   21.9942 H   0  0  0  0  0  0
  -28.0917  -29.0854   21.1683 H   0  0  0  0  0  0
  -26.0077  -26.0048   18.9557 H   0  0  0  0  0  0
  -23.9664  -27.3311   18.9989 H   0  0  0  0  0  0
  -23.7137  -30.6218   19.4100 H   0  0  0  0  0  0
  -22.7303  -29.2639   19.8618 H   0  0  0  0  0  0
  -25.1285  -36.1962   25.0825 H   0  0  0  0  0  0
  -20.9951  -28.3226   24.1428 H   0  0  0  0  0  0
  -20.5651  -26.2271   23.3602 H   0  0  0  0  0  0
  -21.6639  -26.7430   22.1216 H   0  0  0  0  0  0
  -19.6908  -25.6299   21.1217 H   0  0  0  0  0  0
  -19.6682  -27.3202   20.6742 H   0  0  0  0  0  0
  -17.4193  -26.6653   21.4007 H   0  0  0  0  0  0
  -18.0321  -26.0056   22.9006 H   0  0  0  0  0  0
  -19.7942  -30.7257   24.2245 H   0  0  0  0  0  0
  -17.5020  -31.6254   24.5163 H   0  0  0  0  0  0
  -15.5351  -30.2980   23.7658 H   0  0  0  0  0  0
  -15.8667  -28.0842   22.7015 H   0  0  0  0  0  0
  -24.5920  -30.7026   25.7808 H   0  0  0  0  0  0
  -24.8948  -32.2825   26.4949 H   0  0  0  0  0  0
  -25.8110  -30.8827   27.0205 H   0  0  0  0  0  0
  -26.2856  -29.6762   24.1170 H   0  0  0  0  0  0
  -27.4074  -29.7265   25.4576 H   0  0  0  0  0  0
  -27.8693  -30.4317   23.9265 H   0  0  0  0  0  0
  -27.2640  -33.3585   26.2093 H   0  0  0  0  0  0
  -28.3830  -32.6888   25.0299 H   0  0  0  0  0  0
  -28.0727  -31.8411   26.5376 H   0  0  0  0  0  0
  -28.2573  -38.0134   24.7541 H   0  0  0  0  0  0
  -28.1114  -36.2666   24.6214 H   0  0  0  0  0  0
  -27.2319  -37.1374   25.8862 H   0  0  0  0  0  0
  -20.9284  -29.8765   21.6959 H   0  0  0  0  0  0
  -26.0165  -38.2866   24.1430 H   0  0  0  0  0  0
  -29.8847  -22.3173   22.6363 H   0  0  0  0  0  0
  -26.2740  -21.5972   18.0485 H   0  0  0  0  0  0
  -26.8326  -21.2339   16.3326 H   0  0  0  0  0  0
  -27.2068  -18.8586   16.9591 H   0  0  0  0  0  0
  -26.6361  -19.2261   18.6676 H   0  0  0  0  0  0
  -31.5713  -18.0677   20.0774 H   0  0  0  0  0  0
  -30.6700  -18.0947   21.6517 H   0  0  0  0  0  0
  -28.2829  -17.8149   21.4217 H   0  0  0  0  0  0
  -27.7056  -17.5692   19.7182 H   0  0  0  0  0  0
  -29.0964  -20.5425   17.2165 H   0  0  0  0  0  0
  -29.8781  -16.5871   19.0153 H   0  0  0  0  0  0
  -30.2337  -24.6780   20.5348 H   0  0  0  0  0  0
  -29.1322  -24.6080   21.8859 H   0  0  0  0  0  0
  -27.2010  -24.8863   20.4191 H   0  0  0  0  0  0
  -28.2283  -24.9595   18.9924 H   0  0  0  0  0  0
  -28.9371  -15.2436   21.2929 H   0  0  0  0  0  0
  1 25  1  0  0  0
  1 30  2  0  0  0
  1 86  1  0  0  0
  2  3  1  0  0  0
  2 25  1  0  0  0
  2 87  1  0  0  0
  2 88  1  0  0  0
  3  4  1  0  0  0
  3 89  1  0  0  0
  3 90  1  0  0  0
  4  5  1  0  0  0
  4 91  1  0  0  0
  4 92  1  0  0  0
  5  6  1  0  0  0
  5 26  1  0  0  0
  5 93  1  0  0  0
  6 25  1  0  0  0
  6 94  1  0  0  0
  6 95  1  0  0  0
  7  8  2  0  0  0
  7 26  1  0  0  0
  7 29  1  0  0  0
  8  9  1  0  0  0
  8 22  1  0  0  0
  9 10  1  0  0  0
  9 27  2  0  0  0
 10 11  2  0  0  0
 10 15  1  0  0  0
 11 12  1  0  0  0
 11 96  1  0  0  0
 12 13  2  0  0  0
 12 97  1  0  0  0
 13 14  1  0  0  0
 13 31  1  0  0  0
 14 15  2  0  0  0
 14 98  1  0  0  0
 15 99  1  0  0  0
 16 17  2  0  0  0
 16 21  1  0  0  0
 16 31  1  0  0  0
 17 18  1  0  0  0
 17100  1  0  0  0
 18 19  2  0  0  0
 18101  1  0  0  0
 19 20  1  0  0  0
 19 24  1  0  0  0
 20 21  2  0  0  0
 20102  1  0  0  0
 21 23  1  0  0  0
 22 28  1  0  0  0
 22 32  2  0  0  0
 26 27  1  0  0  0
 28103  1  0  0  0
 28104  1  0  0  0
 29105  1  0  0  0
 29106  1  0  0  0
 33 34  1  0  0  0
 33 66  1  0  0  0
 33 70  2  0  0  0
 34 36  1  0  0  0
 34 59  1  0  0  0
 34107  1  0  0  0
 35 44  2  0  0  0
 35 45  1  0  0  0
 35 68  1  0  0  0
 36 56  1  0  0  0
 36108  1  0  0  0
 37 39  1  0  0  0
 37 47  1  0  0  0
 37 66  1  0  0  0
 37109  1  0  0  0
 38 43  2  0  0  0
 38 46  1  0  0  0
 38 47  1  0  0  0
 39 64  1  0  0  0
 39 67  2  0  0  0
 40 52  1  0  0  0
 40 53  2  0  0  0
 40 58  1  0  0  0
 41110  1  0  0  0
 41111  1  0  0  0
 41112  1  0  0  0
 41 48  1  0  0  0
 42 43  1  0  0  0
 42 66  1  0  0  0
 42113  1  0  0  0
 42114  1  0  0  0
 43 44  1  0  0  0
 44115  1  0  0  0
 45 46  2  0  0  0
 45116  1  0  0  0
 46117  1  0  0  0
 47118  1  0  0  0
 47119  1  0  0  0
 48 56  1  0  0  0
 48 65  1  0  0  0
 48120  1  0  0  0
 49 50  1  0  0  0
 49 53  1  0  0  0
 49 64  1  0  0  0
 49121  1  0  0  0
 50 51  1  0  0  0
 50122  1  0  0  0
 50123  1  0  0  0
 51 52  1  0  0  0
 51124  1  0  0  0
 51125  1  0  0  0
 52126  1  0  0  0
 52127  1  0  0  0
 53 54  1  0  0  0
 54 55  2  0  0  0
 54128  1  0  0  0
 55 57  1  0  0  0
 55129  1  0  0  0
 56 69  2  0  0  0
 57 58  2  0  0  0
 57130  1  0  0  0
 58131  1  0  0  0
 59 60  1  0  0  0
 59 61  1  0  0  0
 59 62  1  0  0  0
 60132  1  0  0  0
 60133  1  0  0  0
 60134  1  0  0  0
 61135  1  0  0  0
 61136  1  0  0  0
 61137  1  0  0  0
 62138  1  0  0  0
 62139  1  0  0  0
 62140  1  0  0  0
 63 65  1  0  0  0
 63141  1  0  0  0
 63142  1  0  0  0
 63143  1  0  0  0
 64144  1  0  0  0
 65145  1  0  0  0
 68 82  1  0  0  0
 71 73  2  0  0  0
 71 83  1  0  0  0
 71146  1  0  0  0
 72 74  1  0  0  0
 72 84  2  0  0  0
 72 79  1  0  0  0
 73 81  1  0  0  0
 73 84  1  0  0  0
 74 83  2  0  0  0
 74 85  1  0  0  0
 75 76  1  0  0  0
 75 79  1  0  0  0
 75147  1  0  0  0
 75148  1  0  0  0
 76 79  1  0  0  0
 76149  1  0  0  0
 76150  1  0  0  0
 77 80  1  0  0  0
 77 85  1  0  0  0
 77151  1  0  0  0
 77152  1  0  0  0
 78 80  1  0  0  0
 78 85  1  0  0  0
 78153  1  0  0  0
 78154  1  0  0  0
 79155  1  0  0  0
 80 86  1  0  0  0
 80156  1  0  0  0
 81 82  1  0  0  0
 81157  1  0  0  0
 81158  1  0  0  0
 82159  1  0  0  0
 82160  1  0  0  0
 86161  1  0  0  0
M  ISO  4   1 100  68 101  82 101  86 100
M  END
> <chiral flag>
0

> <version>
0

> <s_m_source_file>
/data/baiqing/PycharmProjects/Reinvent-master-3.2/result/LINK_invent/BTK/process_docking_weight1_custom_sum_contain_oxygen_bond_distance_aromatic_linkinvent_7_9_3/rearranged_h_0192.sdf

> <i_m_source_file_index>
7

> <r_mmod_Potential_Energy-OPLS-2005>
81.5611801147461

> <r_mmod_Stretch_Energy-OPLS-2005>
43.926872253418

> <r_mmod_Bend_Energy-OPLS-2005>
151.773513793945

> <r_mmod_Torsional_Energy-OPLS-2005>
283.548675537109

> <r_mmod_Improper_Torsional_Energy-OPLS-2005>
17.95774269104

> <r_mmod_Van_der_Waal_Energy-OPLS-2005>
159.990798950195

> <r_mmod_Electrostatic_Energy-OPLS-2005>
-361.386413574219

> <r_mmod_Solvation_Energy-OPLS-2005>
-234.413299560547

> <b_mmod_Minimization_Converged-OPLS-2005>
0

> <r_mmod_RMS_Derivative-OPLS-2005>
3.77097296714783

$$$$
7
                    3D
 Structure written by MMmdl.
163172  0  0  1  0            999 V2000
  -30.6816  -14.5859   20.5480 C   0  0  0  0  0  0
  -30.4279  -12.3754   19.4458 C   0  0  0  0  0  0
  -29.4964  -12.4818   18.2209 C   0  0  0  0  0  0
  -28.0243  -12.3099   18.6421 C   0  0  0  0  0  0
  -27.6433  -13.1952   19.8555 C   0  0  2  0  0  0
  -28.6902  -13.0836   20.9866 C   0  0  0  0  0  0
  -25.2531  -13.8097   20.5689 C   0  0  0  0  0  0
  -24.1788  -13.0400   20.9208 C   0  0  0  0  0  0
  -24.6332  -11.6863   20.8743 C   0  0  0  0  0  0
  -23.8994  -10.4262   21.0410 C   0  0  0  0  0  0
  -24.3568   -9.4198   21.9184 C   0  0  0  0  0  0
  -23.6275   -8.2218   22.0746 C   0  0  0  0  0  0
  -22.4258   -8.0248   21.3531 C   0  0  0  0  0  0
  -21.9873   -9.0210   20.4635 C   0  0  0  0  0  0
  -22.7171  -10.2103   20.3058 C   0  0  0  0  0  0
  -21.6855   -6.0714   22.5273 C   0  0  0  0  0  0
  -21.4013   -6.5626   23.8199 C   0  0  0  0  0  0
  -21.3652   -5.6782   24.9170 C   0  0  0  0  0  0
  -21.6047   -4.3044   24.7225 C   0  0  0  0  0  0
  -21.8828   -3.8129   23.4346 C   0  0  0  0  0  0
  -21.9200   -4.6943   22.3403 C   0  0  0  0  0  0
  -22.7824  -13.5218   21.1876 C   0  0  0  0  0  0
  -22.1674   -4.2127   21.0980 F   0  0  0  0  0  0
  -21.5626   -3.4537   25.7741 F   0  0  0  0  0  0
  -30.0084  -13.4023   20.4176 N   0  0  0  0  0  0
  -26.2929  -12.9229   20.3310 N   0  0  0  0  0  0
  -25.9249  -11.6408   20.5766 N   0  0  0  0  0  0
  -22.0459  -12.8203   22.0429 N   0  0  0  0  0  0
  -25.4238  -15.1817   20.4070 N   0  0  0  0  0  0
  -31.8517  -14.7089   20.1751 O   0  0  0  0  0  0
  -21.6636   -6.8844   21.4227 O   0  0  0  0  0  0
  -22.3520  -14.5527   20.6731 O   0  0  0  0  0  0
  -24.6212  -31.8666   23.2082 C   0  0  0  0  0  0
  -25.9111  -32.4806   23.8373 C   0  0  1  0  0  0
  -27.2169  -27.3631   20.1172 C   0  0  0  0  0  0
  -25.5956  -33.8598   24.2317 N   0  0  0  0  0  0
  -23.4100  -30.4919   21.5510 C   0  0  2  0  0  0
  -24.8527  -28.9522   20.1097 C   0  0  0  0  0  0
  -22.7465  -29.4665   22.5002 C   0  0  0  0  0  0
  -18.0300  -28.1387   22.8497 C   0  0  0  0  0  0
  -24.1483  -36.7249   23.2630 C   0  0  0  0  0  0
  -25.9473  -30.8042   21.3780 C   0  0  0  0  0  0
  -26.0150  -29.4347   20.7244 C   0  0  0  0  0  0
  -27.1987  -28.6473   20.7264 C   0  0  0  0  0  0
  -26.0427  -26.9353   19.4528 C   0  0  0  0  0  0
  -24.8642  -27.7030   19.4684 C   0  0  0  0  0  0
  -23.6200  -29.8313   20.1622 C   0  0  0  0  0  0
  -25.4116  -36.3080   24.0332 C   0  0  1  0  0  0
  -20.5896  -28.3679   23.1328 C   0  0  2  0  0  0
  -20.6792  -26.9429   22.5428 C   0  0  0  0  0  0
  -19.5762  -26.6407   21.5224 C   0  0  0  0  0  0
  -18.1932  -26.7938   22.1623 C   0  0  0  0  0  0
  -19.1541  -28.8855   23.2895 C   0  0  0  0  0  0
  -18.9480  -30.1448   23.8934 C   0  0  0  0  0  0
  -17.6483  -30.6590   24.0577 C   0  0  0  0  0  0
  -25.9073  -34.9464   23.5127 C   0  0  0  0  0  0
  -16.5375  -29.9099   23.6316 C   0  0  0  0  0  0
  -16.7274  -28.6498   23.0376 C   0  0  0  0  0  0
  -26.4527  -31.6574   25.0698 C   0  0  0  0  0  0
  -25.3801  -31.3732   26.1460 C   0  0  0  0  0  0
  -27.0312  -30.2983   24.6102 C   0  0  0  0  0  0
  -27.6095  -32.4308   25.7462 C   0  0  0  0  0  0
  -27.5597  -37.1794   24.8486 C   0  0  0  0  0  0
  -21.4196  -29.3021   22.3713 N   0  0  0  0  0  0
  -26.4298  -37.3776   23.9424 N   0  0  0  0  0  0
  -24.6761  -31.0727   22.1009 N   0  0  0  0  0  0
  -23.4211  -28.8231   23.3103 O   0  0  0  0  0  0
  -28.3684  -26.5691   20.1163 O   0  0  0  0  0  0
  -26.5612  -34.8933   22.4684 O   0  0  0  0  0  0
  -23.5407  -32.1476   23.7444 O   0  0  0  0  0  0
  -27.1707  -23.3385   21.1022 C   0  0  0  0  0  0
  -28.3023  -22.5220   20.7846 C   0  0  0  0  0  0
  -28.3117  -25.2160   20.3934 C   0  0  0  0  0  0
  -30.5834  -17.9925   21.9794 C   0  0  0  0  0  0
  -29.2378  -17.9124   19.9277 C   0  0  0  0  0  0
  -30.3895  -16.4529   22.1899 C   0  0  0  0  0  0
  -29.0113  -16.3829   20.1209 C   0  0  0  0  0  0
  -29.3954  -18.6836   21.2562 C   0  0  0  0  0  0
  -25.5121  -23.1754   23.0409 C   0  0  0  0  0  0
  -25.8224  -22.8089   21.5794 C   0  0  0  0  0  0
  -28.2701  -20.9570   20.8848 C   0  0  0  0  0  0
  -27.2035  -24.6833   20.9279 N   0  0  0  0  0  0
  -29.4095  -23.1452   20.2867 N   0  0  0  0  0  0
  -29.4120  -24.4879   20.0891 N   0  0  0  0  0  0
  -29.9807  -15.6801   20.9933 N   0  0  0  0  0  0
  -29.5459  -20.1843   21.0885 N   0  3  0  0  0  0
  -31.4683  -12.4929   19.1363 H   0  0  0  0  0  0
  -30.3626  -11.3851   19.8980 H   0  0  0  0  0  0
  -29.7626  -11.7234   17.4826 H   0  0  0  0  0  0
  -29.6328  -13.4474   17.7326 H   0  0  0  0  0  0
  -27.8763  -11.2598   18.8956 H   0  0  0  0  0  0
  -27.3627  -12.5125   17.7992 H   0  0  0  0  0  0
  -27.6386  -14.2114   19.4779 H   0  0  0  0  0  0
  -28.6993  -12.0771   21.4051 H   0  0  0  0  0  0
  -28.4347  -13.7492   21.8124 H   0  0  0  0  0  0
  -25.2710   -9.5708   22.4758 H   0  0  0  0  0  0
  -24.0007   -7.4616   22.7460 H   0  0  0  0  0  0
  -21.0807   -8.8706   19.8940 H   0  0  0  0  0  0
  -22.3609  -10.9641   19.6176 H   0  0  0  0  0  0
  -21.2000   -7.6134   23.9699 H   0  0  0  0  0  0
  -21.1469   -6.0513   25.9069 H   0  0  0  0  0  0
  -22.0616   -2.7594   23.2859 H   0  0  0  0  0  0
  -22.4068  -11.9865   22.4811 H   0  0  0  0  0  0
  -21.1077  -13.1217   22.2621 H   0  0  0  0  0  0
  -24.6546  -15.8345   20.5111 H   0  0  0  0  0  0
  -26.2669  -15.6149   20.0572 H   0  0  0  0  0  0
  -26.7181  -32.5508   23.1121 H   0  0  0  0  0  0
  -25.0143  -33.9719   25.0499 H   0  0  0  0  0  0
  -22.6978  -31.3102   21.4185 H   0  0  0  0  0  0
  -23.3750  -35.9576   23.3307 H   0  0  0  0  0  0
  -24.3574  -36.8848   22.2046 H   0  0  0  0  0  0
  -23.7237  -37.6461   23.6624 H   0  0  0  0  0  0
  -26.0903  -31.5665   20.6104 H   0  0  0  0  0  0
  -26.8271  -30.8434   22.0094 H   0  0  0  0  0  0
  -28.0948  -29.0172   21.2032 H   0  0  0  0  0  0
  -26.0227  -25.9822   18.9444 H   0  0  0  0  0  0
  -23.9752  -27.3302   18.9755 H   0  0  0  0  0  0
  -23.7439  -30.6120   19.4116 H   0  0  0  0  0  0
  -22.7374  -29.2676   19.8532 H   0  0  0  0  0  0
  -25.1297  -36.1936   25.0822 H   0  0  0  0  0  0
  -20.9972  -28.3261   24.1454 H   0  0  0  0  0  0
  -20.5736  -26.2305   23.3611 H   0  0  0  0  0  0
  -21.6673  -26.7500   22.1223 H   0  0  0  0  0  0
  -19.6919  -25.6327   21.1218 H   0  0  0  0  0  0
  -19.6672  -27.3257   20.6780 H   0  0  0  0  0  0
  -17.4220  -26.6705   21.3997 H   0  0  0  0  0  0
  -18.0310  -26.0088   22.9023 H   0  0  0  0  0  0
  -19.7968  -30.7247   24.2333 H   0  0  0  0  0  0
  -17.5047  -31.6269   24.5184 H   0  0  0  0  0  0
  -15.5381  -30.3019   23.7618 H   0  0  0  0  0  0
  -15.8671  -28.0797   22.7122 H   0  0  0  0  0  0
  -24.5953  -30.7069   25.7851 H   0  0  0  0  0  0
  -24.9006  -32.2911   26.4878 H   0  0  0  0  0  0
  -25.8181  -30.8947   27.0230 H   0  0  0  0  0  0
  -26.2811  -29.6773   24.1174 H   0  0  0  0  0  0
  -27.4070  -29.7204   25.4558 H   0  0  0  0  0  0
  -27.8689  -30.4225   23.9228 H   0  0  0  0  0  0
  -27.2676  -33.3624   26.1988 H   0  0  0  0  0  0
  -28.3923  -32.6862   25.0300 H   0  0  0  0  0  0
  -28.0714  -31.8458   26.5430 H   0  0  0  0  0  0
  -28.2654  -38.0066   24.7544 H   0  0  0  0  0  0
  -28.1064  -36.2606   24.6289 H   0  0  0  0  0  0
  -27.2317  -37.1456   25.8896 H   0  0  0  0  0  0
  -20.9383  -29.8683   21.6867 H   0  0  0  0  0  0
  -26.0168  -38.2847   24.1433 H   0  0  0  0  0  0
  -31.5054  -18.1537   21.4192 H   0  0  0  0  0  0
  -30.7422  -18.4552   22.9542 H   0  0  0  0  0  0
  -28.4030  -18.3185   19.3562 H   0  0  0  0  0  0
  -30.1254  -18.0624   19.3114 H   0  0  0  0  0  0
  -29.6194  -16.2939   22.9470 H   0  0  0  0  0  0
  -31.3017  -16.0315   22.6171 H   0  0  0  0  0  0
  -28.9942  -15.9270   19.1292 H   0  0  0  0  0  0
  -28.0231  -16.2302   20.5522 H   0  0  0  0  0  0
  -28.5083  -18.5100   21.8669 H   0  0  0  0  0  0
  -24.5554  -22.7511   23.3499 H   0  0  0  0  0  0
  -25.4429  -24.2580   23.1731 H   0  0  0  0  0  0
  -26.2796  -22.7971   23.7184 H   0  0  0  0  0  0
  -25.7405  -21.7325   21.4345 H   0  0  0  0  0  0
  -25.0457  -23.2343   20.9413 H   0  0  0  0  0  0
  -27.7749  -20.5825   19.9898 H   0  0  0  0  0  0
  -27.6299  -20.6904   21.7244 H   0  0  0  0  0  0
  -30.1813  -20.3926   20.3371 H   0  0  0  0  0  0
  -29.9614  -20.5494   21.9296 H   0  0  0  0  0  0
  1 25  1  0  0  0
  1 30  2  0  0  0
  1 85  1  0  0  0
  2  3  1  0  0  0
  2 25  1  0  0  0
  2 87  1  0  0  0
  2 88  1  0  0  0
  3  4  1  0  0  0
  3 89  1  0  0  0
  3 90  1  0  0  0
  4  5  1  0  0  0
  4 91  1  0  0  0
  4 92  1  0  0  0
  5  6  1  0  0  0
  5 26  1  0  0  0
  5 93  1  0  0  0
  6 25  1  0  0  0
  6 94  1  0  0  0
  6 95  1  0  0  0
  7  8  2  0  0  0
  7 26  1  0  0  0
  7 29  1  0  0  0
  8  9  1  0  0  0
  8 22  1  0  0  0
  9 10  1  0  0  0
  9 27  2  0  0  0
 10 11  2  0  0  0
 10 15  1  0  0  0
 11 12  1  0  0  0
 11 96  1  0  0  0
 12 13  2  0  0  0
 12 97  1  0  0  0
 13 14  1  0  0  0
 13 31  1  0  0  0
 14 15  2  0  0  0
 14 98  1  0  0  0
 15 99  1  0  0  0
 16 17  2  0  0  0
 16 21  1  0  0  0
 16 31  1  0  0  0
 17 18  1  0  0  0
 17100  1  0  0  0
 18 19  2  0  0  0
 18101  1  0  0  0
 19 20  1  0  0  0
 19 24  1  0  0  0
 20 21  2  0  0  0
 20102  1  0  0  0
 21 23  1  0  0  0
 22 28  1  0  0  0
 22 32  2  0  0  0
 26 27  1  0  0  0
 28103  1  0  0  0
 28104  1  0  0  0
 29105  1  0  0  0
 29106  1  0  0  0
 33 34  1  0  0  0
 33 66  1  0  0  0
 33 70  2  0  0  0
 34 36  1  0  0  0
 34 59  1  0  0  0
 34107  1  0  0  0
 35 44  2  0  0  0
 35 45  1  0  0  0
 35 68  1  0  0  0
 36 56  1  0  0  0
 36108  1  0  0  0
 37 39  1  0  0  0
 37 47  1  0  0  0
 37 66  1  0  0  0
 37109  1  0  0  0
 38 43  2  0  0  0
 38 46  1  0  0  0
 38 47  1  0  0  0
 39 64  1  0  0  0
 39 67  2  0  0  0
 40 52  1  0  0  0
 40 53  2  0  0  0
 40 58  1  0  0  0
 41110  1  0  0  0
 41111  1  0  0  0
 41112  1  0  0  0
 41 48  1  0  0  0
 42 43  1  0  0  0
 42 66  1  0  0  0
 42113  1  0  0  0
 42114  1  0  0  0
 43 44  1  0  0  0
 44115  1  0  0  0
 45 46  2  0  0  0
 45116  1  0  0  0
 46117  1  0  0  0
 47118  1  0  0  0
 47119  1  0  0  0
 48 56  1  0  0  0
 48 65  1  0  0  0
 48120  1  0  0  0
 49 50  1  0  0  0
 49 53  1  0  0  0
 49 64  1  0  0  0
 49121  1  0  0  0
 50 51  1  0  0  0
 50122  1  0  0  0
 50123  1  0  0  0
 51 52  1  0  0  0
 51124  1  0  0  0
 51125  1  0  0  0
 52126  1  0  0  0
 52127  1  0  0  0
 53 54  1  0  0  0
 54 55  2  0  0  0
 54128  1  0  0  0
 55 57  1  0  0  0
 55129  1  0  0  0
 56 69  2  0  0  0
 57 58  2  0  0  0
 57130  1  0  0  0
 58131  1  0  0  0
 59 60  1  0  0  0
 59 61  1  0  0  0
 59 62  1  0  0  0
 60132  1  0  0  0
 60133  1  0  0  0
 60134  1  0  0  0
 61135  1  0  0  0
 61136  1  0  0  0
 61137  1  0  0  0
 62138  1  0  0  0
 62139  1  0  0  0
 62140  1  0  0  0
 63 65  1  0  0  0
 63141  1  0  0  0
 63142  1  0  0  0
 63143  1  0  0  0
 64144  1  0  0  0
 65145  1  0  0  0
 68 73  1  0  0  0
 71 72  2  0  0  0
 71 80  1  0  0  0
 71 82  1  0  0  0
 72 81  1  0  0  0
 72 83  1  0  0  0
 73 82  2  0  0  0
 73 84  1  0  0  0
 74 76  1  0  0  0
 74 78  1  0  0  0
 74146  1  0  0  0
 74147  1  0  0  0
 75 77  1  0  0  0
 75 78  1  0  0  0
 75148  1  0  0  0
 75149  1  0  0  0
 76 85  1  0  0  0
 76150  1  0  0  0
 76151  1  0  0  0
 77 85  1  0  0  0
 77152  1  0  0  0
 77153  1  0  0  0
 78 86  1  0  0  0
 78154  1  0  0  0
 79 80  1  0  0  0
 79155  1  0  0  0
 79156  1  0  0  0
 79157  1  0  0  0
 80158  1  0  0  0
 80159  1  0  0  0
 81 86  1  0  0  0
 81160  1  0  0  0
 81161  1  0  0  0
 83 84  2  0  0  0
 86162  1  0  0  0
 86163  1  0  0  0
M  CHG  1  86   1
M  ISO  4   1 100  68 101  73 101  85 100
M  END
> <chiral flag>
0

> <version>
0

> <s_m_source_file>
/data/baiqing/PycharmProjects/Reinvent-master-3.2/result/LINK_invent/BTK/process_docking_weight1_custom_sum_contain_oxygen_bond_distance_aromatic_linkinvent_7_9_3/rearranged_h_0192.sdf

> <i_m_source_file_index>
8

> <r_mmod_Potential_Energy-OPLS-2005>
63.8141021728516

> <r_mmod_Stretch_Energy-OPLS-2005>
66.3495788574219

> <r_mmod_Bend_Energy-OPLS-2005>
140.435943603516

> <r_mmod_Torsional_Energy-OPLS-2005>
325.803283691406

> <r_mmod_Improper_Torsional_Energy-OPLS-2005>
3.74206280708313

> <r_mmod_Van_der_Waal_Energy-OPLS-2005>
159.465118408203

> <r_mmod_Electrostatic_Energy-OPLS-2005>
-183.514755249023

> <r_mmod_Solvation_Energy-OPLS-2005>
-482.701812744141

> <b_mmod_Minimization_Converged-OPLS-2005>
0

> <r_mmod_RMS_Derivative-OPLS-2005>
3.59693002700806

$$$$
8
                    3D
 Structure written by MMmdl.
156165  0  0  1  0            999 V2000
  -29.6592  -14.4252   20.9235 C   0  0  0  0  0  0
  -30.6435  -12.5825   19.3577 C   0  0  0  0  0  0
  -29.7885  -12.4821   18.0231 C   0  0  0  0  0  0
  -28.2628  -12.2447   18.1805 C   0  0  0  0  0  0
  -27.9509  -13.1147   19.3213 C   0  0  2  0  0  0
  -28.7376  -12.4313   20.5452 C   0  0  0  0  0  0
  -25.1612  -14.4780   19.8635 C   0  0  0  0  0  0
  -24.2489  -13.7760   21.1740 C   0  0  0  0  0  0
  -24.9075  -12.2272   21.6811 C   0  0  0  0  0  0
  -24.0883  -10.8119   21.4935 C   0  0  0  0  0  0
  -24.4693   -9.6178   22.1817 C   0  0  0  0  0  0
  -23.7468   -8.3773   22.1630 C   0  0  0  0  0  0
  -22.5648   -8.1965   21.4069 C   0  0  0  0  0  0
  -22.2253   -9.2909   20.5732 C   0  0  0  0  0  0
  -22.9706  -10.5294   20.5994 C   0  0  0  0  0  0
  -21.7464   -6.1560   22.5022 C   0  0  0  0  0  0
  -21.4414   -6.6135   23.8061 C   0  0  0  0  0  0
  -21.3754   -5.7130   24.8923 C   0  0  0  0  0  0
  -21.5998   -4.3385   24.6913 C   0  0  0  0  0  0
  -21.8723   -3.8652   23.3966 C   0  0  0  0  0  0
  -21.9351   -4.7624   22.3102 C   0  0  0  0  0  0
  -22.7656  -13.8967   21.2592 C   0  0  0  0  0  0
  -22.1776   -4.2692   21.0717 F   0  0  0  0  0  0
  -21.5498   -3.4776   25.7371 F   0  0  0  0  0  0
  -29.8690  -13.1590   20.4904 N   0  0  0  0  0  0
  -26.6739  -13.2324   19.6824 N   0  0  0  0  0  0
  -26.3476  -12.0237   20.9663 N   0  0  0  0  0  0
  -22.0948  -13.0738   22.0689 N   0  0  0  0  0  0
  -25.1678  -15.7155   19.3511 N   0  0  0  0  0  0
  -30.6971  -15.1213   20.7236 O   0  0  0  0  0  0
  -21.7958   -7.0256   21.4156 O   0  0  0  0  0  0
  -22.1879  -14.7260   20.5794 O   0  0  0  0  0  0
  -24.6870  -31.7979   23.1573 C   0  0  0  0  0  0
  -25.9459  -32.4454   23.8091 C   0  0  1  0  0  0
  -26.9050  -26.5015   20.3645 C   0  0  0  0  0  0
  -25.6038  -33.8300   24.1959 N   0  0  0  0  0  0
  -23.5022  -30.4192   21.5126 C   0  0  2  0  0  0
  -24.9129  -28.7544   20.1048 C   0  0  0  0  0  0
  -22.7743  -29.4321   22.4665 C   0  0  0  0  0  0
  -18.0316  -28.1428   22.8436 C   0  0  0  0  0  0
  -24.1488  -36.7144   23.2649 C   0  0  0  0  0  0
  -26.0849  -30.4681   21.4489 C   0  0  0  0  0  0
  -26.0916  -29.0209   20.8077 C   0  0  0  0  0  0
  -27.0986  -27.9167   20.9009 C   0  0  0  0  0  0
  -25.7893  -26.5110   19.5075 C   0  0  0  0  0  0
  -24.8225  -27.5430   19.4087 C   0  0  0  0  0  0
  -23.7494  -29.7533   20.1309 C   0  0  0  0  0  0
  -25.4151  -36.2903   24.0275 C   0  0  1  0  0  0
  -20.5958  -28.3777   23.1130 C   0  0  2  0  0  0
  -20.6795  -26.9431   22.5402 C   0  0  0  0  0  0
  -19.5773  -26.6361   21.5219 C   0  0  0  0  0  0
  -18.1948  -26.7955   22.1607 C   0  0  0  0  0  0
  -19.1584  -28.8927   23.2766 C   0  0  0  0  0  0
  -18.9490  -30.1511   23.8818 C   0  0  0  0  0  0
  -17.6482  -30.6606   24.0551 C   0  0  0  0  0  0
  -25.9143  -34.9290   23.4954 C   0  0  0  0  0  0
  -16.5369  -29.9092   23.6357 C   0  0  0  0  0  0
  -16.7298  -28.6518   23.0364 C   0  0  0  0  0  0
  -26.4604  -31.6526   25.0744 C   0  0  0  0  0  0
  -25.3638  -31.3883   26.1340 C   0  0  0  0  0  0
  -27.0557  -30.2852   24.6743 C   0  0  0  0  0  0
  -27.6051  -32.4409   25.7547 C   0  0  0  0  0  0
  -27.5568  -37.1741   24.8465 C   0  0  0  0  0  0
  -21.4389  -29.3016   22.3433 N   0  0  0  0  0  0
  -26.4268  -37.3675   23.9413 N   0  0  0  0  0  0
  -24.7851  -30.9350   22.0887 N   0  0  0  0  0  0
  -23.4210  -28.7866   23.2954 O   0  0  0  0  0  0
  -27.5670  -25.0940   20.5629 O   0  0  0  0  0  0
  -26.5770  -34.8862   22.4567 O   0  0  0  0  0  0
  -23.5888  -32.1128   23.6479 O   0  0  0  0  0  0
  -26.1870  -18.1928   21.2368 C   0  0  0  0  0  0
  -24.3295  -19.2884   21.1121 C   0  0  0  0  0  0
  -26.5301  -14.3355   21.5798 C   0  0  0  0  0  0
  -28.1625  -16.1563   21.9695 C   0  0  0  0  0  0
  -26.6871  -16.3607   21.6350 C   0  0  0  0  0  0
  -21.9855  -18.7466   20.3165 C   0  0  0  0  0  0
  -22.8659  -19.5304   21.2966 C   0  0  0  0  0  0
  -27.3147  -21.4183   20.9182 C   0  0  0  0  0  0
  -26.9066  -23.3892   20.6782 C   0  0  0  0  0  0
  -24.8568  -18.0507   21.2516 N   0  0  0  0  0  0
  -25.1566  -20.2918   20.8974 N   0  0  0  0  0  0
  -26.4192  -19.8106   21.0383 N   0  0  0  0  0  0
  -28.2502  -14.7747   21.4328 N   0  0  0  0  0  0
  -31.5425  -13.1721   19.1774 H   0  0  0  0  0  0
  -31.0057  -11.5924   19.6415 H   0  0  0  0  0  0
  -30.2129  -11.7240   17.3648 H   0  0  0  0  0  0
  -29.9216  -13.4240   17.4881 H   0  0  0  0  0  0
  -28.0224  -11.1974   18.3726 H   0  0  0  0  0  0
  -27.7218  -12.5406   17.2808 H   0  0  0  0  0  0
  -28.2017  -14.1245   18.9754 H   0  0  0  0  0  0
  -28.9037  -11.3607   20.3928 H   0  0  0  0  0  0
  -28.4563  -12.4479   21.6063 H   0  0  0  0  0  0
  -25.3386   -9.6758   22.8220 H   0  0  0  0  0  0
  -24.1121   -7.5661   22.7756 H   0  0  0  0  0  0
  -21.3700   -9.2092   19.9183 H   0  0  0  0  0  0
  -22.6292  -11.3227   19.9509 H   0  0  0  0  0  0
  -21.2658   -7.6659   23.9756 H   0  0  0  0  0  0
  -21.1542   -6.0809   25.8835 H   0  0  0  0  0  0
  -22.0295   -2.8098   23.2326 H   0  0  0  0  0  0
  -22.5654  -12.3845   22.6332 H   0  0  0  0  0  0
  -21.0903  -13.1531   22.1354 H   0  0  0  0  0  0
  -24.6422  -16.4670   19.7951 H   0  0  0  0  0  0
  -25.9234  -16.0572   18.7708 H   0  0  0  0  0  0
  -26.7531  -32.4852   23.0775 H   0  0  0  0  0  0
  -25.0105  -33.9377   25.0055 H   0  0  0  0  0  0
  -22.8254  -31.2616   21.3494 H   0  0  0  0  0  0
  -23.3796  -35.9425   23.3247 H   0  0  0  0  0  0
  -24.3539  -36.8871   22.2072 H   0  0  0  0  0  0
  -23.7189  -37.6283   23.6767 H   0  0  0  0  0  0
  -26.3183  -31.1771   20.6533 H   0  0  0  0  0  0
  -26.9310  -30.5206   22.1200 H   0  0  0  0  0  0
  -27.9702  -28.0991   21.5133 H   0  0  0  0  0  0
  -25.5663  -25.5963   18.9776 H   0  0  0  0  0  0
  -23.9421  -27.3556   18.8091 H   0  0  0  0  0  0
  -23.9721  -30.5315   19.4003 H   0  0  0  0  0  0
  -22.8350  -29.2723   19.7780 H   0  0  0  0  0  0
  -25.1351  -36.1670   25.0762 H   0  0  0  0  0  0
  -21.0044  -28.3424   24.1258 H   0  0  0  0  0  0
  -20.5701  -26.2385   23.3663 H   0  0  0  0  0  0
  -21.6651  -26.7395   22.1193 H   0  0  0  0  0  0
  -19.6940  -25.6255   21.1301 H   0  0  0  0  0  0
  -19.6751  -27.3125   20.6723 H   0  0  0  0  0  0
  -17.4227  -26.6673   21.4007 H   0  0  0  0  0  0
  -18.0329  -26.0134   22.9040 H   0  0  0  0  0  0
  -19.7964  -30.7343   24.2161 H   0  0  0  0  0  0
  -17.5029  -31.6284   24.5157 H   0  0  0  0  0  0
  -15.5366  -30.2969   23.7748 H   0  0  0  0  0  0
  -15.8685  -28.0832   22.7127 H   0  0  0  0  0  0
  -24.5841  -30.7214   25.7644 H   0  0  0  0  0  0
  -24.8798  -32.3108   26.4551 H   0  0  0  0  0  0
  -25.7768  -30.9187   27.0273 H   0  0  0  0  0  0
  -26.3284  -29.6416   24.1781 H   0  0  0  0  0  0
  -27.3965  -29.7380   25.5543 H   0  0  0  0  0  0
  -27.9280  -30.3955   24.0301 H   0  0  0  0  0  0
  -27.2605  -33.3801   26.1892 H   0  0  0  0  0  0
  -28.3965  -32.6834   25.0442 H   0  0  0  0  0  0
  -28.0608  -31.8705   26.5651 H   0  0  0  0  0  0
  -28.2548  -38.0076   24.7549 H   0  0  0  0  0  0
  -28.1109  -36.2607   24.6250 H   0  0  0  0  0  0
  -27.2291  -37.1311   25.8868 H   0  0  0  0  0  0
  -20.9667  -29.8736   21.6563 H   0  0  0  0  0  0
  -26.0099  -38.2722   24.1444 H   0  0  0  0  0  0
  -24.9998  -12.6853   19.8860 H   0  0  0  0  0  0
  -26.3578  -14.0244   22.6162 H   0  0  0  0  0  0
  -28.3686  -16.2256   23.0391 H   0  0  0  0  0  0
  -28.7788  -16.8806   21.4341 H   0  0  0  0  0  0
  -26.2178  -16.4001   22.6182 H   0  0  0  0  0  0
  -22.1622  -17.6741   20.4169 H   0  0  0  0  0  0
  -22.1819  -19.0276   19.2824 H   0  0  0  0  0  0
  -20.9304  -18.9305   20.5199 H   0  0  0  0  0  0
  -22.6552  -20.5973   21.2030 H   0  0  0  0  0  0
  -22.6059  -19.2617   22.3204 H   0  0  0  0  0  0
  -27.9309  -21.4139   21.8160 H   0  0  0  0  0  0
  -28.0349  -21.2283   20.1230 H   0  0  0  0  0  0
  -26.2050  -23.5451   21.4971 H   0  0  0  0  0  0
  -26.2641  -23.3738   19.7974 H   0  0  0  0  0  0
  1 25  1  0  0  0
  1 30  2  0  0  0
  1 83  1  0  0  0
  2  3  1  0  0  0
  2 25  1  0  0  0
  2 84  1  0  0  0
  2 85  1  0  0  0
  3  4  1  0  0  0
  3 86  1  0  0  0
  3 87  1  0  0  0
  4  5  1  0  0  0
  4 88  1  0  0  0
  4 89  1  0  0  0
  5  6  1  0  0  0
  5 26  1  0  0  0
  5 90  1  0  0  0
  6 25  1  0  0  0
  6 91  1  0  0  0
  6 92  1  0  0  0
  7  8  2  0  0  0
  7 26  1  0  0  0
  7 29  1  0  0  0
  8  9  1  0  0  0
  8 22  1  0  0  0
  9 10  1  0  0  0
  9 27  2  0  0  0
 10 11  2  0  0  0
 10 15  1  0  0  0
 11 12  1  0  0  0
 11 93  1  0  0  0
 12 13  2  0  0  0
 12 94  1  0  0  0
 13 14  1  0  0  0
 13 31  1  0  0  0
 14 15  2  0  0  0
 14 95  1  0  0  0
 15 96  1  0  0  0
 16 17  2  0  0  0
 16 21  1  0  0  0
 16 31  1  0  0  0
 17 18  1  0  0  0
 17 97  1  0  0  0
 18 19  2  0  0  0
 18 98  1  0  0  0
 19 20  1  0  0  0
 19 24  1  0  0  0
 20 21  2  0  0  0
 20 99  1  0  0  0
 21 23  1  0  0  0
 22 28  1  0  0  0
 22 32  2  0  0  0
 26 27  1  0  0  0
 28100  1  0  0  0
 28101  1  0  0  0
 29102  1  0  0  0
 29103  1  0  0  0
 33 34  1  0  0  0
 33 66  1  0  0  0
 33 70  2  0  0  0
 34 36  1  0  0  0
 34 59  1  0  0  0
 34104  1  0  0  0
 35 44  2  0  0  0
 35 45  1  0  0  0
 35 68  1  0  0  0
 36 56  1  0  0  0
 36105  1  0  0  0
 37 39  1  0  0  0
 37 47  1  0  0  0
 37 66  1  0  0  0
 37106  1  0  0  0
 38 43  2  0  0  0
 38 46  1  0  0  0
 38 47  1  0  0  0
 39 64  1  0  0  0
 39 67  2  0  0  0
 40 52  1  0  0  0
 40 53  2  0  0  0
 40 58  1  0  0  0
 41107  1  0  0  0
 41108  1  0  0  0
 41109  1  0  0  0
 41 48  1  0  0  0
 42 43  1  0  0  0
 42 66  1  0  0  0
 42110  1  0  0  0
 42111  1  0  0  0
 43 44  1  0  0  0
 44112  1  0  0  0
 45 46  2  0  0  0
 45113  1  0  0  0
 46114  1  0  0  0
 47115  1  0  0  0
 47116  1  0  0  0
 48 56  1  0  0  0
 48 65  1  0  0  0
 48117  1  0  0  0
 49 50  1  0  0  0
 49 53  1  0  0  0
 49 64  1  0  0  0
 49118  1  0  0  0
 50 51  1  0  0  0
 50119  1  0  0  0
 50120  1  0  0  0
 51 52  1  0  0  0
 51121  1  0  0  0
 51122  1  0  0  0
 52123  1  0  0  0
 52124  1  0  0  0
 53 54  1  0  0  0
 54 55  2  0  0  0
 54125  1  0  0  0
 55 57  1  0  0  0
 55126  1  0  0  0
 56 69  2  0  0  0
 57 58  2  0  0  0
 57127  1  0  0  0
 58128  1  0  0  0
 59 60  1  0  0  0
 59 61  1  0  0  0
 59 62  1  0  0  0
 60129  1  0  0  0
 60130  1  0  0  0
 60131  1  0  0  0
 61132  1  0  0  0
 61133  1  0  0  0
 61134  1  0  0  0
 62135  1  0  0  0
 62136  1  0  0  0
 62137  1  0  0  0
 63 65  1  0  0  0
 63138  1  0  0  0
 63139  1  0  0  0
 63140  1  0  0  0
 64141  1  0  0  0
 65142  1  0  0  0
 68 79  1  0  0  0
 71 80  2  0  0  0
 71 82  1  0  0  0
 71 75  1  0  0  0
 72 77  1  0  0  0
 72 80  1  0  0  0
 72 81  2  0  0  0
 73 75  1  0  0  0
 73 83  1  0  0  0
 73143  1  0  0  0
 73144  1  0  0  0
 74 75  1  0  0  0
 74 83  1  0  0  0
 74145  1  0  0  0
 74146  1  0  0  0
 75147  1  0  0  0
 76 77  1  0  0  0
 76148  1  0  0  0
 76149  1  0  0  0
 76150  1  0  0  0
 77151  1  0  0  0
 77152  1  0  0  0
 78 79  1  0  0  0
 78 82  1  0  0  0
 78153  1  0  0  0
 78154  1  0  0  0
 79155  1  0  0  0
 79156  1  0  0  0
 81 82  1  0  0  0
M  ISO  4   1 100  68 101  79 101  83 100
M  END
> <chiral flag>
0

> <version>
0

> <s_m_source_file>
/data/baiqing/PycharmProjects/Reinvent-master-3.2/result/LINK_invent/BTK/process_docking_weight1_custom_sum_contain_oxygen_bond_distance_aromatic_linkinvent_7_9_3/rearranged_h_0192.sdf

> <i_m_source_file_index>
9

> <r_mmod_Potential_Energy-OPLS-2005>
13078.794921875

> <r_mmod_Stretch_Energy-OPLS-2005>
7881.42236328125

> <r_mmod_Bend_Energy-OPLS-2005>
1170.62817382812

> <r_mmod_Torsional_Energy-OPLS-2005>
417.369720458984

> <r_mmod_Improper_Torsional_Energy-OPLS-2005>
47.6625022888184

> <r_mmod_Van_der_Waal_Energy-OPLS-2005>
2374.0302734375

> <r_mmod_Electrostatic_Energy-OPLS-2005>
-370.924377441406

> <r_mmod_Solvation_Energy-OPLS-2005>
-224.28776550293

> <b_mmod_Minimization_Converged-OPLS-2005>
0

> <r_mmod_RMS_Derivative-OPLS-2005>
5.31382656097412

$$$$
9
                    3D
 Structure written by MMmdl.
162171  0  0  1  0            999 V2000
  -30.6624  -14.5338   20.5450 C   0  0  0  0  0  0
  -30.4357  -12.3365   19.4349 C   0  0  0  0  0  0
  -29.5046  -12.5003   18.2141 C   0  0  0  0  0  0
  -28.0249  -12.3517   18.6260 C   0  0  0  0  0  0
  -27.6584  -13.2039   19.8708 C   0  0  2  0  0  0
  -28.7019  -13.0156   20.9947 C   0  0  0  0  0  0
  -25.2583  -13.8143   20.5670 C   0  0  0  0  0  0
  -24.1830  -13.0431   20.9169 C   0  0  0  0  0  0
  -24.6380  -11.6896   20.8743 C   0  0  0  0  0  0
  -23.9045  -10.4291   21.0413 C   0  0  0  0  0  0
  -24.3600   -9.4210   21.9188 C   0  0  0  0  0  0
  -23.6273   -8.2247   22.0755 C   0  0  0  0  0  0
  -22.4254   -8.0283   21.3546 C   0  0  0  0  0  0
  -21.9888   -9.0260   20.4655 C   0  0  0  0  0  0
  -22.7218  -10.2137   20.3063 C   0  0  0  0  0  0
  -21.6854   -6.0731   22.5279 C   0  0  0  0  0  0
  -21.4020   -6.5637   23.8211 C   0  0  0  0  0  0
  -21.3658   -5.6793   24.9175 C   0  0  0  0  0  0
  -21.6042   -4.3054   24.7229 C   0  0  0  0  0  0
  -21.8818   -3.8142   23.4350 C   0  0  0  0  0  0
  -21.9190   -4.6959   22.3406 C   0  0  0  0  0  0
  -22.7856  -13.5244   21.1818 C   0  0  0  0  0  0
  -22.1656   -4.2147   21.0982 F   0  0  0  0  0  0
  -21.5624   -3.4536   25.7742 F   0  0  0  0  0  0
  -30.0247  -13.3333   20.4347 N   0  0  0  0  0  0
  -26.3011  -12.9297   20.3359 N   0  0  0  0  0  0
  -25.9310  -11.6464   20.5780 N   0  0  0  0  0  0
  -22.0476  -12.8267   22.0380 N   0  0  0  0  0  0
  -25.4321  -15.1856   20.4074 N   0  0  0  0  0  0
  -31.8258  -14.7103   20.1739 O   0  0  0  0  0  0
  -21.6628   -6.8877   21.4243 O   0  0  0  0  0  0
  -22.3549  -14.5552   20.6658 O   0  0  0  0  0  0
  -24.6183  -31.8667   23.2046 C   0  0  0  0  0  0
  -25.9067  -32.4810   23.8359 C   0  0  1  0  0  0
  -27.2408  -27.4032   20.0884 C   0  0  0  0  0  0
  -25.5916  -33.8606   24.2300 N   0  0  0  0  0  0
  -23.4063  -30.4877   21.5486 C   0  0  2  0  0  0
  -24.8512  -28.9465   20.1170 C   0  0  0  0  0  0
  -22.7422  -29.4656   22.5000 C   0  0  0  0  0  0
  -18.0277  -28.1364   22.8493 C   0  0  0  0  0  0
  -24.1495  -36.7306   23.2629 C   0  0  0  0  0  0
  -25.9375  -30.8224   21.3598 C   0  0  0  0  0  0
  -26.0137  -29.4528   20.7088 C   0  0  0  0  0  0
  -27.2070  -28.6893   20.6895 C   0  0  0  0  0  0
  -26.0445  -26.9117   19.5128 C   0  0  0  0  0  0
  -24.8630  -27.6759   19.5195 C   0  0  0  0  0  0
  -23.6130  -29.8136   20.1661 C   0  0  0  0  0  0
  -25.4117  -36.3101   24.0326 C   0  0  1  0  0  0
  -20.5866  -28.3657   23.1313 C   0  0  2  0  0  0
  -20.6777  -26.9399   22.5394 C   0  0  0  0  0  0
  -19.5747  -26.6380   21.5198 C   0  0  0  0  0  0
  -18.1931  -26.7908   22.1629 C   0  0  0  0  0  0
  -19.1524  -28.8827   23.2899 C   0  0  0  0  0  0
  -18.9452  -30.1431   23.8914 C   0  0  0  0  0  0
  -17.6454  -30.6578   24.0547 C   0  0  0  0  0  0
  -25.9043  -34.9469   23.5115 C   0  0  0  0  0  0
  -16.5348  -29.9074   23.6321 C   0  0  0  0  0  0
  -16.7261  -28.6482   23.0362 C   0  0  0  0  0  0
  -26.4473  -31.6593   25.0697 C   0  0  0  0  0  0
  -25.3741  -31.3790   26.1477 C   0  0  0  0  0  0
  -27.0220  -30.2996   24.6093 C   0  0  0  0  0  0
  -27.6119  -32.4246   25.7416 C   0  0  0  0  0  0
  -27.5579  -37.1818   24.8464 C   0  0  0  0  0  0
  -21.4149  -29.3035   22.3731 N   0  0  0  0  0  0
  -26.4304  -37.3782   23.9389 N   0  0  0  0  0  0
  -24.6726  -31.0740   22.0959 N   0  0  0  0  0  0
  -23.4180  -28.8209   23.3061 O   0  0  0  0  0  0
  -28.4366  -26.6936   20.0951 O   0  0  0  0  0  0
  -26.5614  -34.8927   22.4676 O   0  0  0  0  0  0
  -23.5371  -32.1442   23.7425 O   0  0  0  0  0  0
  -29.6435  -19.1195   20.4616 C   0  0  0  0  0  0
  -27.8054  -20.5327   20.3094 C   0  0  0  0  0  0
  -30.4963  -20.2642   20.3567 C   0  0  0  0  0  0
  -28.6449  -21.6694   20.1525 C   0  0  0  0  0  0
  -30.1874  -16.7408   21.7394 C   0  0  0  0  0  0
  -29.3624  -16.5179   19.8404 C   0  0  0  0  0  0
  -30.1466  -17.6507   20.5080 C   0  0  0  0  0  0
  -26.2942  -20.6480   20.2541 C   0  0  0  0  0  0
  -32.7498  -21.3110   20.2056 C   0  0  0  0  0  0
  -28.5591  -24.1904   20.4509 C   0  0  0  0  0  0
  -28.5637  -25.3973   19.4622 C   0  0  0  0  0  0
  -28.2965  -19.2782   20.4822 N   0  0  0  0  0  0
  -29.9914  -21.5267   20.2086 N   0  0  0  0  0  0
  -29.8596  -15.5818   20.8718 N   0  0  0  0  0  0
  -31.8940  -20.1425   20.3846 N   0  0  0  0  0  0
  -28.0951  -22.9334   19.8396 N   0  0  0  0  0  0
  -31.4796  -12.4557   19.1376 H   0  0  0  0  0  0
  -30.3547  -11.3314   19.8527 H   0  0  0  0  0  0
  -29.7540  -11.7625   17.4507 H   0  0  0  0  0  0
  -29.6632  -13.4778   17.7566 H   0  0  0  0  0  0
  -27.8461  -11.2966   18.8364 H   0  0  0  0  0  0
  -27.3721  -12.6070   17.7902 H   0  0  0  0  0  0
  -27.6900  -14.2455   19.5544 H   0  0  0  0  0  0
  -28.6912  -11.9885   21.3607 H   0  0  0  0  0  0
  -28.4634  -13.6418   21.8563 H   0  0  0  0  0  0
  -25.2750   -9.5681   22.4755 H   0  0  0  0  0  0
  -23.9988   -7.4639   22.7471 H   0  0  0  0  0  0
  -21.0818   -8.8787   19.8959 H   0  0  0  0  0  0
  -22.3686  -10.9676   19.6169 H   0  0  0  0  0  0
  -21.2022   -7.6148   23.9710 H   0  0  0  0  0  0
  -21.1475   -6.0526   25.9075 H   0  0  0  0  0  0
  -22.0598   -2.7604   23.2854 H   0  0  0  0  0  0
  -22.4064  -11.9945   22.4812 H   0  0  0  0  0  0
  -21.1093  -13.1320   22.2554 H   0  0  0  0  0  0
  -24.6704  -15.8463   20.5154 H   0  0  0  0  0  0
  -26.2969  -15.6220   20.1162 H   0  0  0  0  0  0
  -26.7135  -32.5505   23.1116 H   0  0  0  0  0  0
  -25.0067  -33.9754   25.0445 H   0  0  0  0  0  0
  -22.6960  -31.3046   21.4061 H   0  0  0  0  0  0
  -23.3775  -35.9616   23.3246 H   0  0  0  0  0  0
  -24.3605  -36.8971   22.2053 H   0  0  0  0  0  0
  -23.7220  -37.6482   23.6677 H   0  0  0  0  0  0
  -26.0521  -31.5855   20.5888 H   0  0  0  0  0  0
  -26.8254  -30.8788   21.9776 H   0  0  0  0  0  0
  -28.1071  -29.0842   21.1397 H   0  0  0  0  0  0
  -25.9809  -25.9348   19.0610 H   0  0  0  0  0  0
  -23.9650  -27.2741   19.0711 H   0  0  0  0  0  0
  -23.7135  -30.5811   19.3977 H   0  0  0  0  0  0
  -22.7380  -29.2266   19.8805 H   0  0  0  0  0  0
  -25.1296  -36.1968   25.0821 H   0  0  0  0  0  0
  -20.9953  -28.3214   24.1433 H   0  0  0  0  0  0
  -20.5699  -26.2255   23.3570 H   0  0  0  0  0  0
  -21.6653  -26.7465   22.1178 H   0  0  0  0  0  0
  -19.6917  -25.6299   21.1207 H   0  0  0  0  0  0
  -19.6663  -27.3202   20.6736 H   0  0  0  0  0  0
  -17.4186  -26.6623   21.4051 H   0  0  0  0  0  0
  -18.0363  -26.0051   22.9035 H   0  0  0  0  0  0
  -19.7927  -30.7236   24.2305 H   0  0  0  0  0  0
  -17.5011  -31.6275   24.5120 H   0  0  0  0  0  0
  -15.5347  -30.2981   23.7638 H   0  0  0  0  0  0
  -15.8659  -28.0789   22.7102 H   0  0  0  0  0  0
  -24.5703  -30.7417   25.7780 H   0  0  0  0  0  0
  -24.9214  -32.3015   26.5127 H   0  0  0  0  0  0
  -25.8030  -30.8693   27.0110 H   0  0  0  0  0  0
  -26.2710  -29.6792   24.1185 H   0  0  0  0  0  0
  -27.3978  -29.7233   25.4556 H   0  0  0  0  0  0
  -27.8583  -30.4250   23.9211 H   0  0  0  0  0  0
  -27.2883  -33.3662   26.1863 H   0  0  0  0  0  0
  -28.3995  -32.6577   25.0234 H   0  0  0  0  0  0
  -28.0671  -31.8388   26.5413 H   0  0  0  0  0  0
  -28.2635  -38.0078   24.7473 H   0  0  0  0  0  0
  -28.1037  -36.2612   24.6338 H   0  0  0  0  0  0
  -27.2288  -37.1539   25.8867 H   0  0  0  0  0  0
  -20.9309  -29.8735   21.6933 H   0  0  0  0  0  0
  -26.0196  -38.2869   24.1348 H   0  0  0  0  0  0
  -29.4001  -16.9624   22.4623 H   0  0  0  0  0  0
  -31.1634  -16.7087   22.2269 H   0  0  0  0  0  0
  -29.6821  -16.3175   18.8164 H   0  0  0  0  0  0
  -28.2808  -16.6489   19.8862 H   0  0  0  0  0  0
  -31.1433  -17.6459   20.0633 H   0  0  0  0  0  0
  -25.9743  -20.9072   19.2447 H   0  0  0  0  0  0
  -25.9446  -21.4229   20.9367 H   0  0  0  0  0  0
  -25.8109  -19.7119   20.5351 H   0  0  0  0  0  0
  -33.8009  -21.0306   20.2768 H   0  0  0  0  0  0
  -32.5523  -22.0655   20.9695 H   0  0  0  0  0  0
  -32.5896  -21.7631   19.2252 H   0  0  0  0  0  0
  -27.8777  -24.4166   21.2719 H   0  0  0  0  0  0
  -29.5459  -24.0763   20.9007 H   0  0  0  0  0  0
  -27.8589  -25.2502   18.6467 H   0  0  0  0  0  0
  -29.5294  -25.3982   18.9552 H   0  0  0  0  0  0
  -32.3212  -19.2347   20.5425 H   0  0  0  0  0  0
  -27.0879  -22.8990   19.7186 H   0  0  0  0  0  0
  1 25  1  0  0  0
  1 30  2  0  0  0
  1 84  1  0  0  0
  2  3  1  0  0  0
  2 25  1  0  0  0
  2 87  1  0  0  0
  2 88  1  0  0  0
  3  4  1  0  0  0
  3 89  1  0  0  0
  3 90  1  0  0  0
  4  5  1  0  0  0
  4 91  1  0  0  0
  4 92  1  0  0  0
  5  6  1  0  0  0
  5 26  1  0  0  0
  5 93  1  0  0  0
  6 25  1  0  0  0
  6 94  1  0  0  0
  6 95  1  0  0  0
  7  8  2  0  0  0
  7 26  1  0  0  0
  7 29  1  0  0  0
  8  9  1  0  0  0
  8 22  1  0  0  0
  9 10  1  0  0  0
  9 27  2  0  0  0
 10 11  2  0  0  0
 10 15  1  0  0  0
 11 12  1  0  0  0
 11 96  1  0  0  0
 12 13  2  0  0  0
 12 97  1  0  0  0
 13 14  1  0  0  0
 13 31  1  0  0  0
 14 15  2  0  0  0
 14 98  1  0  0  0
 15 99  1  0  0  0
 16 17  2  0  0  0
 16 21  1  0  0  0
 16 31  1  0  0  0
 17 18  1  0  0  0
 17100  1  0  0  0
 18 19  2  0  0  0
 18101  1  0  0  0
 19 20  1  0  0  0
 19 24  1  0  0  0
 20 21  2  0  0  0
 20102  1  0  0  0
 21 23  1  0  0  0
 22 28  1  0  0  0
 22 32  2  0  0  0
 26 27  1  0  0  0
 28103  1  0  0  0
 28104  1  0  0  0
 29105  1  0  0  0
 29106  1  0  0  0
 33 34  1  0  0  0
 33 66  1  0  0  0
 33 70  2  0  0  0
 34 36  1  0  0  0
 34 59  1  0  0  0
 34107  1  0  0  0
 35 44  2  0  0  0
 35 45  1  0  0  0
 35 68  1  0  0  0
 36 56  1  0  0  0
 36108  1  0  0  0
 37 39  1  0  0  0
 37 47  1  0  0  0
 37 66  1  0  0  0
 37109  1  0  0  0
 38 43  2  0  0  0
 38 46  1  0  0  0
 38 47  1  0  0  0
 39 64  1  0  0  0
 39 67  2  0  0  0
 40 52  1  0  0  0
 40 53  2  0  0  0
 40 58  1  0  0  0
 41110  1  0  0  0
 41111  1  0  0  0
 41112  1  0  0  0
 41 48  1  0  0  0
 42 43  1  0  0  0
 42 66  1  0  0  0
 42113  1  0  0  0
 42114  1  0  0  0
 43 44  1  0  0  0
 44115  1  0  0  0
 45 46  2  0  0  0
 45116  1  0  0  0
 46117  1  0  0  0
 47118  1  0  0  0
 47119  1  0  0  0
 48 56  1  0  0  0
 48 65  1  0  0  0
 48120  1  0  0  0
 49 50  1  0  0  0
 49 53  1  0  0  0
 49 64  1  0  0  0
 49121  1  0  0  0
 50 51  1  0  0  0
 50122  1  0  0  0
 50123  1  0  0  0
 51 52  1  0  0  0
 51124  1  0  0  0
 51125  1  0  0  0
 52126  1  0  0  0
 52127  1  0  0  0
 53 54  1  0  0  0
 54 55  2  0  0  0
 54128  1  0  0  0
 55 57  1  0  0  0
 55129  1  0  0  0
 56 69  2  0  0  0
 57 58  2  0  0  0
 57130  1  0  0  0
 58131  1  0  0  0
 59 60  1  0  0  0
 59 61  1  0  0  0
 59 62  1  0  0  0
 60132  1  0  0  0
 60133  1  0  0  0
 60134  1  0  0  0
 61135  1  0  0  0
 61136  1  0  0  0
 61137  1  0  0  0
 62138  1  0  0  0
 62139  1  0  0  0
 62140  1  0  0  0
 63 65  1  0  0  0
 63141  1  0  0  0
 63142  1  0  0  0
 63143  1  0  0  0
 64144  1  0  0  0
 65145  1  0  0  0
 68 81  1  0  0  0
 71 73  1  0  0  0
 71 82  2  0  0  0
 71 77  1  0  0  0
 72 74  2  0  0  0
 72 78  1  0  0  0
 72 82  1  0  0  0
 73 83  2  0  0  0
 73 85  1  0  0  0
 74 83  1  0  0  0
 74 86  1  0  0  0
 75 77  1  0  0  0
 75 84  1  0  0  0
 75146  1  0  0  0
 75147  1  0  0  0
 76 77  1  0  0  0
 76 84  1  0  0  0
 76148  1  0  0  0
 76149  1  0  0  0
 77150  1  0  0  0
 78151  1  0  0  0
 78152  1  0  0  0
 78153  1  0  0  0
 79 85  1  0  0  0
 79154  1  0  0  0
 79155  1  0  0  0
 79156  1  0  0  0
 80 81  1  0  0  0
 80 86  1  0  0  0
 80157  1  0  0  0
 80158  1  0  0  0
 81159  1  0  0  0
 81160  1  0  0  0
 85161  1  0  0  0
 86162  1  0  0  0
M  ISO  4   1 100  68 101  81 101  84 100
M  END
> <chiral flag>
0

> <version>
0

> <s_m_source_file>
/data/baiqing/PycharmProjects/Reinvent-master-3.2/result/LINK_invent/BTK/process_docking_weight1_custom_sum_contain_oxygen_bond_distance_aromatic_linkinvent_7_9_3/rearranged_h_0192.sdf

> <i_m_source_file_index>
10

> <r_mmod_Potential_Energy-OPLS-2005>
62.9518089294434

> <r_mmod_Stretch_Energy-OPLS-2005>
50.3825492858887

> <r_mmod_Bend_Energy-OPLS-2005>
140.599517822266

> <r_mmod_Torsional_Energy-OPLS-2005>
258.587341308594

> <r_mmod_Improper_Torsional_Energy-OPLS-2005>
15.2711544036865

> <r_mmod_Van_der_Waal_Energy-OPLS-2005>
157.218139648438

> <r_mmod_Electrostatic_Energy-OPLS-2005>
-342.32080078125

> <r_mmod_Solvation_Energy-OPLS-2005>
-237.492767333984

> <b_mmod_Minimization_Converged-OPLS-2005>
0

> <r_mmod_RMS_Derivative-OPLS-2005>
1.58536672592163

$$$$
10
                    3D
 Structure written by MMmdl.
150159  0  0  1  0            999 V2000
  -30.5364  -15.0774   20.4285 C   0  0  0  0  0  0
  -30.4395  -12.6877   19.5064 C   0  0  0  0  0  0
  -29.5269  -12.5592   18.2636 C   0  0  0  0  0  0
  -28.0673  -12.3073   18.6839 C   0  0  0  0  0  0
  -27.6221  -13.2510   19.8314 C   0  0  2  0  0  0
  -28.6670  -13.3269   20.9662 C   0  0  0  0  0  0
  -25.2416  -13.8177   20.5736 C   0  0  0  0  0  0
  -24.1748  -13.0404   20.9222 C   0  0  0  0  0  0
  -24.6387  -11.6897   20.8746 C   0  0  0  0  0  0
  -23.9077  -10.4280   21.0396 C   0  0  0  0  0  0
  -24.3634   -9.4204   21.9175 C   0  0  0  0  0  0
  -23.6304   -8.2250   22.0750 C   0  0  0  0  0  0
  -22.4288   -8.0290   21.3543 C   0  0  0  0  0  0
  -21.9924   -9.0252   20.4638 C   0  0  0  0  0  0
  -22.7251  -10.2124   20.3035 C   0  0  0  0  0  0
  -21.6855   -6.0747   22.5284 C   0  0  0  0  0  0
  -21.4021   -6.5646   23.8220 C   0  0  0  0  0  0
  -21.3655   -5.6790   24.9173 C   0  0  0  0  0  0
  -21.6046   -4.3055   24.7221 C   0  0  0  0  0  0
  -21.8821   -3.8155   23.4342 C   0  0  0  0  0  0
  -21.9202   -4.6977   22.3404 C   0  0  0  0  0  0
  -22.7774  -13.5182   21.1859 C   0  0  0  0  0  0
  -22.1656   -4.2173   21.0978 F   0  0  0  0  0  0
  -21.5625   -3.4531   25.7729 F   0  0  0  0  0  0
  -29.9173  -13.8099   20.3574 N   0  0  0  0  0  0
  -26.2851  -12.9429   20.3225 N   0  0  0  0  0  0
  -25.9325  -11.6554   20.5717 N   0  0  0  0  0  0
  -22.0406  -12.8195   22.0412 N   0  0  0  0  0  0
  -25.4005  -15.1908   20.4228 N   0  0  0  0  0  0
  -31.7468  -15.0655   20.1660 O   0  0  0  0  0  0
  -21.6644   -6.8891   21.4247 O   0  0  0  0  0  0
  -22.3467  -14.5488   20.6694 O   0  0  0  0  0  0
  -24.6525  -31.8359   23.1824 C   0  0  0  0  0  0
  -25.9262  -32.4650   23.8243 C   0  0  1  0  0  0
  -27.2145  -27.0466   20.1652 C   0  0  0  0  0  0
  -25.5981  -33.8463   24.2155 N   0  0  0  0  0  0
  -23.4607  -30.4524   21.5306 C   0  0  2  0  0  0
  -24.9134  -28.8684   20.1097 C   0  0  0  0  0  0
  -22.7606  -29.4506   22.4848 C   0  0  0  0  0  0
  -18.0307  -28.1395   22.8489 C   0  0  0  0  0  0
  -24.1501  -36.7228   23.2642 C   0  0  0  0  0  0
  -26.0245  -30.6786   21.3978 C   0  0  0  0  0  0
  -26.0933  -29.2829   20.7401 C   0  0  0  0  0  0
  -27.2430  -28.3895   20.7508 C   0  0  0  0  0  0
  -26.0092  -26.7680   19.4782 C   0  0  0  0  0  0
  -24.8901  -27.6274   19.4611 C   0  0  0  0  0  0
  -23.6920  -29.7771   20.1528 C   0  0  0  0  0  0
  -25.4136  -36.3006   24.0310 C   0  0  1  0  0  0
  -20.5922  -28.3735   23.1226 C   0  0  2  0  0  0
  -20.6789  -26.9428   22.5415 C   0  0  0  0  0  0
  -19.5765  -26.6382   21.5221 C   0  0  0  0  0  0
  -18.1944  -26.7938   22.1619 C   0  0  0  0  0  0
  -19.1563  -28.8887   23.2848 C   0  0  0  0  0  0
  -18.9472  -30.1478   23.8881 C   0  0  0  0  0  0
  -17.6468  -30.6594   24.0558 C   0  0  0  0  0  0
  -25.9095  -34.9378   23.5044 C   0  0  0  0  0  0
  -16.5361  -29.9083   23.6344 C   0  0  0  0  0  0
  -16.7291  -28.6489   23.0385 C   0  0  0  0  0  0
  -26.4551  -31.6541   25.0710 C   0  0  0  0  0  0
  -25.3705  -31.3761   26.1385 C   0  0  0  0  0  0
  -27.0409  -30.2915   24.6363 C   0  0  0  0  0  0
  -27.6077  -32.4316   25.7494 C   0  0  0  0  0  0
  -27.5581  -37.1770   24.8459 C   0  0  0  0  0  0
  -21.4285  -29.3041   22.3583 N   0  0  0  0  0  0
  -26.4293  -37.3728   23.9405 N   0  0  0  0  0  0
  -24.7331  -31.0127   22.0906 N   0  0  0  0  0  0
  -23.4202  -28.8061   23.3041 O   0  0  0  0  0  0
  -28.2180  -25.9809   20.2611 O   0  0  0  0  0  0
  -26.5687  -34.8889   22.4629 O   0  0  0  0  0  0
  -23.5620  -32.1283   23.6979 O   0  0  0  0  0  0
  -28.2852  -21.6555   19.8068 C   0  0  0  0  0  0
  -28.6008  -22.9720   20.2670 C   0  0  0  0  0  0
  -28.2147  -18.2016   21.1805 C   0  0  0  0  0  0
  -28.4786  -16.6492   20.9970 C   0  0  0  0  0  0
  -30.3296  -17.8483   20.2736 C   0  0  0  0  0  0
  -29.1109  -18.9810   20.2061 C   0  0  2  0  0  0
  -27.8354  -24.4593   19.9896 C   0  0  0  0  0  0
  -29.6707  -22.6461   21.1372 N   0  0  0  0  0  0
  -29.9517  -21.3267   21.1838 N   0  0  0  0  0  0
  -29.1302  -20.6045   20.3521 N   0  0  0  0  0  0
  -29.8497  -16.3658   20.5217 N   0  0  0  0  0  0
  -31.4660  -12.8627   19.1819 H   0  0  0  0  0  0
  -30.4692  -11.7508   20.0664 H   0  0  0  0  0  0
  -29.8756  -11.7559   17.6136 H   0  0  0  0  0  0
  -29.5876  -13.4758   17.6740 H   0  0  0  0  0  0
  -27.9947  -11.2683   19.0092 H   0  0  0  0  0  0
  -27.4038  -12.4026   17.8232 H   0  0  0  0  0  0
  -27.5627  -14.2359   19.3731 H   0  0  0  0  0  0
  -28.8030  -12.3505   21.4331 H   0  0  0  0  0  0
  -28.3362  -13.9872   21.7636 H   0  0  0  0  0  0
  -25.2778   -9.5688   22.4746 H   0  0  0  0  0  0
  -24.0014   -7.4648   22.7480 H   0  0  0  0  0  0
  -21.0850   -8.8763   19.8950 H   0  0  0  0  0  0
  -22.3709  -10.9658   19.6143 H   0  0  0  0  0  0
  -21.2003   -7.6149   23.9730 H   0  0  0  0  0  0
  -21.1468   -6.0512   25.9076 H   0  0  0  0  0  0
  -22.0607   -2.7621   23.2830 H   0  0  0  0  0  0
  -22.4013  -11.9872   22.4838 H   0  0  0  0  0  0
  -21.1012  -13.1229   22.2561 H   0  0  0  0  0  0
  -24.6413  -15.8449   20.5760 H   0  0  0  0  0  0
  -26.2599  -15.6399   20.1397 H   0  0  0  0  0  0
  -26.7326  -32.5223   23.0964 H   0  0  0  0  0  0
  -25.0114  -33.9570   25.0290 H   0  0  0  0  0  0
  -22.7691  -31.2819   21.3695 H   0  0  0  0  0  0
  -23.3780  -35.9539   23.3280 H   0  0  0  0  0  0
  -24.3593  -36.8889   22.2061 H   0  0  0  0  0  0
  -23.7230  -37.6403   23.6705 H   0  0  0  0  0  0
  -26.1955  -31.4266   20.6224 H   0  0  0  0  0  0
  -26.8890  -30.7283   22.0480 H   0  0  0  0  0  0
  -28.1340  -28.6993   21.2790 H   0  0  0  0  0  0
  -25.8799  -25.8264   18.9681 H   0  0  0  0  0  0
  -23.9932  -27.3058   18.9496 H   0  0  0  0  0  0
  -23.8310  -30.5488   19.3950 H   0  0  0  0  0  0
  -22.8059  -29.2199   19.8426 H   0  0  0  0  0  0
  -25.1331  -36.1833   25.0803 H   0  0  0  0  0  0
  -21.0014  -28.3336   24.1348 H   0  0  0  0  0  0
  -20.5682  -26.2353   23.3644 H   0  0  0  0  0  0
  -21.6659  -26.7433   22.1215 H   0  0  0  0  0  0
  -19.6932  -25.6290   21.1267 H   0  0  0  0  0  0
  -19.6705  -27.3186   20.6748 H   0  0  0  0  0  0
  -17.4221  -26.6712   21.4007 H   0  0  0  0  0  0
  -18.0320  -26.0072   22.9001 H   0  0  0  0  0  0
  -19.7941  -30.7300   24.2253 H   0  0  0  0  0  0
  -17.5010  -31.6272   24.5155 H   0  0  0  0  0  0
  -15.5357  -30.2972   23.7677 H   0  0  0  0  0  0
  -15.8685  -28.0782   22.7149 H   0  0  0  0  0  0
  -24.5949  -30.7028   25.7714 H   0  0  0  0  0  0
  -24.8814  -32.2933   26.4668 H   0  0  0  0  0  0
  -25.7970  -30.9056   27.0252 H   0  0  0  0  0  0
  -26.3036  -29.6626   24.1356 H   0  0  0  0  0  0
  -27.3955  -29.7239   25.4980 H   0  0  0  0  0  0
  -27.8988  -30.4110   23.9738 H   0  0  0  0  0  0
  -27.2696  -33.3672   26.1964 H   0  0  0  0  0  0
  -28.3946  -32.6777   25.0347 H   0  0  0  0  0  0
  -28.0681  -31.8496   26.5492 H   0  0  0  0  0  0
  -28.2582  -38.0084   24.7537 H   0  0  0  0  0  0
  -28.1103  -36.2621   24.6265 H   0  0  0  0  0  0
  -27.2308  -37.1383   25.8862 H   0  0  0  0  0  0
  -20.9524  -29.8726   21.6717 H   0  0  0  0  0  0
  -26.0156  -38.2792   24.1413 H   0  0  0  0  0  0
  -27.4863  -21.3749   19.1320 H   0  0  0  0  0  0
  -28.4695  -18.4915   22.2004 H   0  0  0  0  0  0
  -27.1616  -18.4488   21.0413 H   0  0  0  0  0  0
  -27.8012  -16.2686   20.2394 H   0  0  0  0  0  0
  -28.2701  -16.1359   21.9349 H   0  0  0  0  0  0
  -31.0079  -18.1030   21.0893 H   0  0  0  0  0  0
  -30.9272  -17.8868   19.3626 H   0  0  0  0  0  0
  -28.6684  -18.8284   19.2205 H   0  0  0  0  0  0
  -26.8615  -24.3560   20.4692 H   0  0  0  0  0  0
  -27.6095  -24.4518   18.9234 H   0  0  0  0  0  0
  1 25  1  0  0  0
  1 30  2  0  0  0
  1 81  1  0  0  0
  2  3  1  0  0  0
  2 25  1  0  0  0
  2 82  1  0  0  0
  2 83  1  0  0  0
  3  4  1  0  0  0
  3 84  1  0  0  0
  3 85  1  0  0  0
  4  5  1  0  0  0
  4 86  1  0  0  0
  4 87  1  0  0  0
  5  6  1  0  0  0
  5 26  1  0  0  0
  5 88  1  0  0  0
  6 25  1  0  0  0
  6 89  1  0  0  0
  6 90  1  0  0  0
  7  8  2  0  0  0
  7 26  1  0  0  0
  7 29  1  0  0  0
  8  9  1  0  0  0
  8 22  1  0  0  0
  9 10  1  0  0  0
  9 27  2  0  0  0
 10 11  2  0  0  0
 10 15  1  0  0  0
 11 12  1  0  0  0
 11 91  1  0  0  0
 12 13  2  0  0  0
 12 92  1  0  0  0
 13 14  1  0  0  0
 13 31  1  0  0  0
 14 15  2  0  0  0
 14 93  1  0  0  0
 15 94  1  0  0  0
 16 17  2  0  0  0
 16 21  1  0  0  0
 16 31  1  0  0  0
 17 18  1  0  0  0
 17 95  1  0  0  0
 18 19  2  0  0  0
 18 96  1  0  0  0
 19 20  1  0  0  0
 19 24  1  0  0  0
 20 21  2  0  0  0
 20 97  1  0  0  0
 21 23  1  0  0  0
 22 28  1  0  0  0
 22 32  2  0  0  0
 26 27  1  0  0  0
 28 98  1  0  0  0
 28 99  1  0  0  0
 29100  1  0  0  0
 29101  1  0  0  0
 33 34  1  0  0  0
 33 66  1  0  0  0
 33 70  2  0  0  0
 34 36  1  0  0  0
 34 59  1  0  0  0
 34102  1  0  0  0
 35 44  2  0  0  0
 35 45  1  0  0  0
 35 68  1  0  0  0
 36 56  1  0  0  0
 36103  1  0  0  0
 37 39  1  0  0  0
 37 47  1  0  0  0
 37 66  1  0  0  0
 37104  1  0  0  0
 38 43  2  0  0  0
 38 46  1  0  0  0
 38 47  1  0  0  0
 39 64  1  0  0  0
 39 67  2  0  0  0
 40 52  1  0  0  0
 40 53  2  0  0  0
 40 58  1  0  0  0
 41105  1  0  0  0
 41106  1  0  0  0
 41107  1  0  0  0
 41 48  1  0  0  0
 42 43  1  0  0  0
 42 66  1  0  0  0
 42108  1  0  0  0
 42109  1  0  0  0
 43 44  1  0  0  0
 44110  1  0  0  0
 45 46  2  0  0  0
 45111  1  0  0  0
 46112  1  0  0  0
 47113  1  0  0  0
 47114  1  0  0  0
 48 56  1  0  0  0
 48 65  1  0  0  0
 48115  1  0  0  0
 49 50  1  0  0  0
 49 53  1  0  0  0
 49 64  1  0  0  0
 49116  1  0  0  0
 50 51  1  0  0  0
 50117  1  0  0  0
 50118  1  0  0  0
 51 52  1  0  0  0
 51119  1  0  0  0
 51120  1  0  0  0
 52121  1  0  0  0
 52122  1  0  0  0
 53 54  1  0  0  0
 54 55  2  0  0  0
 54123  1  0  0  0
 55 57  1  0  0  0
 55124  1  0  0  0
 56 69  2  0  0  0
 57 58  2  0  0  0
 57125  1  0  0  0
 58126  1  0  0  0
 59 60  1  0  0  0
 59 61  1  0  0  0
 59 62  1  0  0  0
 60127  1  0  0  0
 60128  1  0  0  0
 60129  1  0  0  0
 61130  1  0  0  0
 61131  1  0  0  0
 61132  1  0  0  0
 62133  1  0  0  0
 62134  1  0  0  0
 62135  1  0  0  0
 63 65  1  0  0  0
 63136  1  0  0  0
 63137  1  0  0  0
 63138  1  0  0  0
 64139  1  0  0  0
 65140  1  0  0  0
 68 77  1  0  0  0
 71 72  2  0  0  0
 71 80  1  0  0  0
 71141  1  0  0  0
 72 77  1  0  0  0
 72 78  1  0  0  0
 73 74  1  0  0  0
 73 76  1  0  0  0
 73142  1  0  0  0
 73143  1  0  0  0
 74 81  1  0  0  0
 74144  1  0  0  0
 74145  1  0  0  0
 75 76  1  0  0  0
 75 81  1  0  0  0
 75146  1  0  0  0
 75147  1  0  0  0
 76 80  1  0  0  0
 76148  1  0  0  0
 77149  1  0  0  0
 77150  1  0  0  0
 78 79  2  0  0  0
 79 80  1  0  0  0
M  ISO  4   1 100  68 101  77 101  81 100
M  END
> <chiral flag>
0

> <version>
0

> <s_m_source_file>
/data/baiqing/PycharmProjects/Reinvent-master-3.2/result/LINK_invent/BTK/process_docking_weight1_custom_sum_contain_oxygen_bond_distance_aromatic_linkinvent_7_9_3/rearranged_h_0192.sdf

> <i_m_source_file_index>
11

> <r_mmod_Potential_Energy-OPLS-2005>
927.151184082031

> <r_mmod_Stretch_Energy-OPLS-2005>
332.918090820312

> <r_mmod_Bend_Energy-OPLS-2005>
377.927551269531

> <r_mmod_Torsional_Energy-OPLS-2005>
316.432830810547

> <r_mmod_Improper_Torsional_Energy-OPLS-2005>
6.34007978439331

> <r_mmod_Van_der_Waal_Energy-OPLS-2005>
109.480041503906

> <r_mmod_Electrostatic_Energy-OPLS-2005>
-263.695709228516

> <r_mmod_Solvation_Energy-OPLS-2005>
-239.78385925293

> <b_mmod_Minimization_Converged-OPLS-2005>
0

> <r_mmod_RMS_Derivative-OPLS-2005>
1.70951950550079

$$$$
11
                    3D
 Structure written by MMmdl.
147156  0  0  1  0            999 V2000
  -30.4990  -15.0456   20.3989 C   0  0  0  0  0  0
  -30.4444  -12.6499   19.5076 C   0  0  0  0  0  0
  -29.5273  -12.5414   18.2654 C   0  0  0  0  0  0
  -28.0636  -12.3101   18.6851 C   0  0  0  0  0  0
  -27.6256  -13.2539   19.8345 C   0  0  2  0  0  0
  -28.6671  -13.3181   20.9721 C   0  0  0  0  0  0
  -25.2444  -13.8219   20.5716 C   0  0  0  0  0  0
  -24.1772  -13.0434   20.9240 C   0  0  0  0  0  0
  -24.6398  -11.6923   20.8759 C   0  0  0  0  0  0
  -23.9084  -10.4291   21.0409 C   0  0  0  0  0  0
  -24.3630   -9.4204   21.9186 C   0  0  0  0  0  0
  -23.6300   -8.2242   22.0755 C   0  0  0  0  0  0
  -22.4282   -8.0281   21.3544 C   0  0  0  0  0  0
  -21.9921   -9.0257   20.4646 C   0  0  0  0  0  0
  -22.7255  -10.2134   20.3057 C   0  0  0  0  0  0
  -21.6854   -6.0737   22.5279 C   0  0  0  0  0  0
  -21.4015   -6.5641   23.8213 C   0  0  0  0  0  0
  -21.3659   -5.6793   24.9174 C   0  0  0  0  0  0
  -21.6045   -4.3056   24.7224 C   0  0  0  0  0  0
  -21.8819   -3.8148   23.4345 C   0  0  0  0  0  0
  -21.9193   -4.6965   22.3402 C   0  0  0  0  0  0
  -22.7791  -13.5201   21.1891 C   0  0  0  0  0  0
  -22.1662   -4.2150   21.0980 F   0  0  0  0  0  0
  -21.5628   -3.4539   25.7737 F   0  0  0  0  0  0
  -29.9315  -13.7613   20.3683 N   0  0  0  0  0  0
  -26.2869  -12.9460   20.3231 N   0  0  0  0  0  0
  -25.9331  -11.6585   20.5735 N   0  0  0  0  0  0
  -22.0442  -12.8187   22.0445 N   0  0  0  0  0  0
  -25.4085  -15.1952   20.4134 N   0  0  0  0  0  0
  -31.7103  -15.0935   20.1429 O   0  0  0  0  0  0
  -21.6641   -6.8881   21.4241 O   0  0  0  0  0  0
  -22.3475  -14.5504   20.6733 O   0  0  0  0  0  0
  -24.6501  -31.8375   23.1825 C   0  0  0  0  0  0
  -25.9243  -32.4661   23.8239 C   0  0  1  0  0  0
  -27.2179  -27.0681   20.1619 C   0  0  0  0  0  0
  -25.5965  -33.8470   24.2153 N   0  0  0  0  0  0
  -23.4574  -30.4545   21.5293 C   0  0  2  0  0  0
  -24.9084  -28.8689   20.1106 C   0  0  0  0  0  0
  -22.7602  -29.4513   22.4833 C   0  0  0  0  0  0
  -18.0310  -28.1402   22.8475 C   0  0  0  0  0  0
  -24.1490  -36.7235   23.2644 C   0  0  0  0  0  0
  -26.0182  -30.6897   21.3915 C   0  0  0  0  0  0
  -26.0886  -29.2942   20.7334 C   0  0  0  0  0  0
  -27.2427  -28.4119   20.7386 C   0  0  0  0  0  0
  -26.0096  -26.7617   19.4971 C   0  0  0  0  0  0
  -24.8859  -27.6187   19.4750 C   0  0  0  0  0  0
  -23.6884  -29.7798   20.1507 C   0  0  0  0  0  0
  -25.4126  -36.3010   24.0311 C   0  0  1  0  0  0
  -20.5928  -28.3734   23.1219 C   0  0  2  0  0  0
  -20.6792  -26.9430   22.5402 C   0  0  0  0  0  0
  -19.5764  -26.6382   21.5213 C   0  0  0  0  0  0
  -18.1947  -26.7939   22.1625 C   0  0  0  0  0  0
  -19.1570  -28.8887   23.2837 C   0  0  0  0  0  0
  -18.9484  -30.1481   23.8865 C   0  0  0  0  0  0
  -17.6479  -30.6596   24.0558 C   0  0  0  0  0  0
  -25.9083  -34.9389   23.5044 C   0  0  0  0  0  0
  -16.5370  -29.9087   23.6341 C   0  0  0  0  0  0
  -16.7294  -28.6507   23.0361 C   0  0  0  0  0  0
  -26.4540  -31.6557   25.0711 C   0  0  0  0  0  0
  -25.3705  -31.3771   26.1393 C   0  0  0  0  0  0
  -27.0418  -30.2944   24.6347 C   0  0  0  0  0  0
  -27.6055  -32.4339   25.7504 C   0  0  0  0  0  0
  -27.5571  -37.1775   24.8467 C   0  0  0  0  0  0
  -21.4287  -29.3047   22.3583 N   0  0  0  0  0  0
  -26.4282  -37.3732   23.9410 N   0  0  0  0  0  0
  -24.7289  -31.0169   22.0891 N   0  0  0  0  0  0
  -23.4212  -28.8069   23.3016 O   0  0  0  0  0  0
  -28.2500  -26.0386   20.2381 O   0  0  0  0  0  0
  -26.5674  -34.8900   22.4627 O   0  0  0  0  0  0
  -23.5604  -32.1281   23.7004 O   0  0  0  0  0  0
  -30.6359  -19.7428   20.1335 C   0  0  0  0  0  0
  -29.8148  -17.7705   20.4077 C   0  0  0  0  0  0
  -28.6460  -22.2091   21.5266 C   0  0  0  0  0  0
  -28.8894  -23.0733   20.3052 C   0  0  1  0  0  0
  -28.4861  -21.4120   20.2513 C   0  0  1  0  0  0
  -27.9539  -24.4861   20.0743 C   0  0  0  0  0  0
  -31.0027  -18.4273   20.1783 N   0  0  0  0  0  0
  -28.7880  -18.7079   20.5004 N   0  0  0  0  0  0
  -29.3324  -20.0331   20.3251 N   0  0  0  0  0  0
  -29.6775  -16.2247   20.5260 N   0  0  0  0  0  0
  -31.4735  -12.8237   19.1899 H   0  0  0  0  0  0
  -30.4612  -11.7094   20.0609 H   0  0  0  0  0  0
  -29.8632  -11.7328   17.6148 H   0  0  0  0  0  0
  -29.5991  -13.4577   17.6776 H   0  0  0  0  0  0
  -27.9762  -11.2727   19.0102 H   0  0  0  0  0  0
  -27.3988  -12.4175   17.8273 H   0  0  0  0  0  0
  -27.5758  -14.2470   19.3873 H   0  0  0  0  0  0
  -28.7780  -12.3494   21.4618 H   0  0  0  0  0  0
  -28.3487  -14.0196   21.7448 H   0  0  0  0  0  0
  -25.2774   -9.5679   22.4764 H   0  0  0  0  0  0
  -24.0006   -7.4632   22.7475 H   0  0  0  0  0  0
  -21.0852   -8.8780   19.8952 H   0  0  0  0  0  0
  -22.3715  -10.9674   19.6168 H   0  0  0  0  0  0
  -21.2008   -7.6149   23.9716 H   0  0  0  0  0  0
  -21.1481   -6.0523   25.9077 H   0  0  0  0  0  0
  -22.0598   -2.7610   23.2845 H   0  0  0  0  0  0
  -22.4066  -11.9852   22.4834 H   0  0  0  0  0  0
  -21.1057  -13.1204   22.2651 H   0  0  0  0  0  0
  -24.6328  -15.8398   20.5224 H   0  0  0  0  0  0
  -26.2369  -15.6391   20.0400 H   0  0  0  0  0  0
  -26.7310  -32.5245   23.0963 H   0  0  0  0  0  0
  -25.0088  -33.9573   25.0286 H   0  0  0  0  0  0
  -22.7636  -31.2826   21.3698 H   0  0  0  0  0  0
  -23.3761  -35.9557   23.3292 H   0  0  0  0  0  0
  -24.3570  -36.8885   22.2061 H   0  0  0  0  0  0
  -23.7237  -37.6422   23.6695 H   0  0  0  0  0  0
  -26.1827  -31.4406   20.6175 H   0  0  0  0  0  0
  -26.8847  -30.7413   22.0390 H   0  0  0  0  0  0
  -28.1392  -28.7329   21.2501 H   0  0  0  0  0  0
  -25.8966  -25.8064   19.0076 H   0  0  0  0  0  0
  -23.9864  -27.2877   18.9742 H   0  0  0  0  0  0
  -23.8317  -30.5524   19.3945 H   0  0  0  0  0  0
  -22.8013  -29.2264   19.8373 H   0  0  0  0  0  0
  -25.1319  -36.1826   25.0803 H   0  0  0  0  0  0
  -21.0019  -28.3328   24.1341 H   0  0  0  0  0  0
  -20.5683  -26.2349   23.3629 H   0  0  0  0  0  0
  -21.6657  -26.7427   22.1201 H   0  0  0  0  0  0
  -19.6924  -25.6285   21.1263 H   0  0  0  0  0  0
  -19.6700  -27.3175   20.6729 H   0  0  0  0  0  0
  -17.4215  -26.6682   21.4030 H   0  0  0  0  0  0
  -18.0345  -26.0089   22.9030 H   0  0  0  0  0  0
  -19.7959  -30.7307   24.2218 H   0  0  0  0  0  0
  -17.5033  -31.6273   24.5166 H   0  0  0  0  0  0
  -15.5368  -30.2979   23.7684 H   0  0  0  0  0  0
  -15.8695  -28.0815   22.7096 H   0  0  0  0  0  0
  -24.5883  -30.7124   25.7709 H   0  0  0  0  0  0
  -24.8896  -32.2963   26.4748 H   0  0  0  0  0  0
  -25.7967  -30.8984   27.0218 H   0  0  0  0  0  0
  -26.3056  -29.6649   24.1335 H   0  0  0  0  0  0
  -27.3986  -29.7268   25.4951 H   0  0  0  0  0  0
  -27.8983  -30.4164   23.9712 H   0  0  0  0  0  0
  -27.2639  -33.3668   26.2001 H   0  0  0  0  0  0
  -28.3909  -32.6854   25.0364 H   0  0  0  0  0  0
  -28.0675  -31.8518   26.5489 H   0  0  0  0  0  0
  -28.2580  -38.0079   24.7514 H   0  0  0  0  0  0
  -28.1075  -36.2608   24.6295 H   0  0  0  0  0  0
  -27.2288  -37.1423   25.8870 H   0  0  0  0  0  0
  -20.9513  -29.8750   21.6743 H   0  0  0  0  0  0
  -26.0141  -38.2796   24.1419 H   0  0  0  0  0  0
  -31.3533  -20.5276   19.9367 H   0  0  0  0  0  0
  -27.7357  -22.3870   22.0955 H   0  0  0  0  0  0
  -29.5165  -22.0028   22.1465 H   0  0  0  0  0  0
  -29.9253  -23.2469   20.0219 H   0  0  0  0  0  0
  -27.4718  -21.1781   19.9342 H   0  0  0  0  0  0
  -27.0409  -24.3169   20.6461 H   0  0  0  0  0  0
  -27.6366  -24.4036   19.0349 H   0  0  0  0  0  0
  -28.7238  -15.9603   20.7082 H   0  0  0  0  0  0
  1 25  1  0  0  0
  1 30  2  0  0  0
  1 80  1  0  0  0
  2  3  1  0  0  0
  2 25  1  0  0  0
  2 81  1  0  0  0
  2 82  1  0  0  0
  3  4  1  0  0  0
  3 83  1  0  0  0
  3 84  1  0  0  0
  4  5  1  0  0  0
  4 85  1  0  0  0
  4 86  1  0  0  0
  5  6  1  0  0  0
  5 26  1  0  0  0
  5 87  1  0  0  0
  6 25  1  0  0  0
  6 88  1  0  0  0
  6 89  1  0  0  0
  7  8  2  0  0  0
  7 26  1  0  0  0
  7 29  1  0  0  0
  8  9  1  0  0  0
  8 22  1  0  0  0
  9 10  1  0  0  0
  9 27  2  0  0  0
 10 11  2  0  0  0
 10 15  1  0  0  0
 11 12  1  0  0  0
 11 90  1  0  0  0
 12 13  2  0  0  0
 12 91  1  0  0  0
 13 14  1  0  0  0
 13 31  1  0  0  0
 14 15  2  0  0  0
 14 92  1  0  0  0
 15 93  1  0  0  0
 16 17  2  0  0  0
 16 21  1  0  0  0
 16 31  1  0  0  0
 17 18  1  0  0  0
 17 94  1  0  0  0
 18 19  2  0  0  0
 18 95  1  0  0  0
 19 20  1  0  0  0
 19 24  1  0  0  0
 20 21  2  0  0  0
 20 96  1  0  0  0
 21 23  1  0  0  0
 22 28  1  0  0  0
 22 32  2  0  0  0
 26 27  1  0  0  0
 28 97  1  0  0  0
 28 98  1  0  0  0
 29 99  1  0  0  0
 29100  1  0  0  0
 33 34  1  0  0  0
 33 66  1  0  0  0
 33 70  2  0  0  0
 34 36  1  0  0  0
 34 59  1  0  0  0
 34101  1  0  0  0
 35 44  2  0  0  0
 35 45  1  0  0  0
 35 68  1  0  0  0
 36 56  1  0  0  0
 36102  1  0  0  0
 37 39  1  0  0  0
 37 47  1  0  0  0
 37 66  1  0  0  0
 37103  1  0  0  0
 38 43  2  0  0  0
 38 46  1  0  0  0
 38 47  1  0  0  0
 39 64  1  0  0  0
 39 67  2  0  0  0
 40 52  1  0  0  0
 40 53  2  0  0  0
 40 58  1  0  0  0
 41104  1  0  0  0
 41105  1  0  0  0
 41106  1  0  0  0
 41 48  1  0  0  0
 42 43  1  0  0  0
 42 66  1  0  0  0
 42107  1  0  0  0
 42108  1  0  0  0
 43 44  1  0  0  0
 44109  1  0  0  0
 45 46  2  0  0  0
 45110  1  0  0  0
 46111  1  0  0  0
 47112  1  0  0  0
 47113  1  0  0  0
 48 56  1  0  0  0
 48 65  1  0  0  0
 48114  1  0  0  0
 49 50  1  0  0  0
 49 53  1  0  0  0
 49 64  1  0  0  0
 49115  1  0  0  0
 50 51  1  0  0  0
 50116  1  0  0  0
 50117  1  0  0  0
 51 52  1  0  0  0
 51118  1  0  0  0
 51119  1  0  0  0
 52120  1  0  0  0
 52121  1  0  0  0
 53 54  1  0  0  0
 54 55  2  0  0  0
 54122  1  0  0  0
 55 57  1  0  0  0
 55123  1  0  0  0
 56 69  2  0  0  0
 57 58  2  0  0  0
 57124  1  0  0  0
 58125  1  0  0  0
 59 60  1  0  0  0
 59 61  1  0  0  0
 59 62  1  0  0  0
 60126  1  0  0  0
 60127  1  0  0  0
 60128  1  0  0  0
 61129  1  0  0  0
 61130  1  0  0  0
 61131  1  0  0  0
 62132  1  0  0  0
 62133  1  0  0  0
 62134  1  0  0  0
 63 65  1  0  0  0
 63135  1  0  0  0
 63136  1  0  0  0
 63137  1  0  0  0
 64138  1  0  0  0
 65139  1  0  0  0
 68 76  1  0  0  0
 71 77  2  0  0  0
 71 79  1  0  0  0
 71140  1  0  0  0
 72 77  1  0  0  0
 72 78  2  0  0  0
 72 80  1  0  0  0
 73 74  1  0  0  0
 73 75  1  0  0  0
 73141  1  0  0  0
 73142  1  0  0  0
 74 75  1  0  0  0
 74 76  1  0  0  0
 74143  1  0  0  0
 75 79  1  0  0  0
 75144  1  0  0  0
 76145  1  0  0  0
 76146  1  0  0  0
 78 79  1  0  0  0
 80147  1  0  0  0
M  ISO  4   1 100  68 101  76 101  80 100
M  END
> <chiral flag>
0

> <version>
0

> <s_m_source_file>
/data/baiqing/PycharmProjects/Reinvent-master-3.2/result/LINK_invent/BTK/process_docking_weight1_custom_sum_contain_oxygen_bond_distance_aromatic_linkinvent_7_9_3/rearranged_h_0192.sdf

> <i_m_source_file_index>
12

> <r_mmod_Potential_Energy-OPLS-2005>
658.884521484375

> <r_mmod_Stretch_Energy-OPLS-2005>
338.150085449219

> <r_mmod_Bend_Energy-OPLS-2005>
311.056976318359

> <r_mmod_Torsional_Energy-OPLS-2005>
262.306121826172

> <r_mmod_Improper_Torsional_Energy-OPLS-2005>
4.37242746353149

> <r_mmod_Van_der_Waal_Energy-OPLS-2005>
108.675102233887

> <r_mmod_Electrostatic_Energy-OPLS-2005>
-387.764465332031

> <r_mmod_Solvation_Energy-OPLS-2005>
-240.65739440918

> <b_mmod_Minimization_Converged-OPLS-2005>
0

> <r_mmod_RMS_Derivative-OPLS-2005>
0.200367957353592

$$$$
12
                    3D
 Structure written by MMmdl.
150159  0  0  1  0            999 V2000
  -30.4799  -15.0420   20.4073 C   0  0  0  0  0  0
  -30.4448  -12.6446   19.5279 C   0  0  0  0  0  0
  -29.5352  -12.5592   18.2773 C   0  0  0  0  0  0
  -28.0680  -12.3291   18.6841 C   0  0  0  0  0  0
  -27.6309  -13.2572   19.8470 C   0  0  2  0  0  0
  -28.6656  -13.3030   20.9930 C   0  0  0  0  0  0
  -25.2460  -13.8226   20.5724 C   0  0  0  0  0  0
  -24.1781  -13.0440   20.9224 C   0  0  0  0  0  0
  -24.6405  -11.6930   20.8736 C   0  0  0  0  0  0
  -23.9084  -10.4299   21.0390 C   0  0  0  0  0  0
  -24.3632   -9.4215   21.9173 C   0  0  0  0  0  0
  -23.6310   -8.2250   22.0748 C   0  0  0  0  0  0
  -22.4292   -8.0283   21.3541 C   0  0  0  0  0  0
  -21.9925   -9.0255   20.4641 C   0  0  0  0  0  0
  -22.7250  -10.2137   20.3046 C   0  0  0  0  0  0
  -21.6861   -6.0741   22.5284 C   0  0  0  0  0  0
  -21.4012   -6.5641   23.8215 C   0  0  0  0  0  0
  -21.3661   -5.6790   24.9176 C   0  0  0  0  0  0
  -21.6049   -4.3055   24.7223 C   0  0  0  0  0  0
  -21.8818   -3.8150   23.4342 C   0  0  0  0  0  0
  -21.9194   -4.6969   22.3400 C   0  0  0  0  0  0
  -22.7800  -13.5210   21.1882 C   0  0  0  0  0  0
  -22.1664   -4.2155   21.0978 F   0  0  0  0  0  0
  -21.5633   -3.4533   25.7732 F   0  0  0  0  0  0
  -29.9389  -13.7463   20.4092 N   0  0  0  0  0  0
  -26.2893  -12.9471   20.3263 N   0  0  0  0  0  0
  -25.9342  -11.6592   20.5722 N   0  0  0  0  0  0
  -22.0455  -12.8198   22.0437 N   0  0  0  0  0  0
  -25.4109  -15.1957   20.4160 N   0  0  0  0  0  0
  -31.6510  -15.1373   20.0194 O   0  0  0  0  0  0
  -21.6651   -6.8884   21.4244 O   0  0  0  0  0  0
  -22.3482  -14.5513   20.6723 O   0  0  0  0  0  0
  -24.6482  -31.8366   23.1799 C   0  0  0  0  0  0
  -25.9232  -32.4649   23.8212 C   0  0  1  0  0  0
  -27.2270  -27.0741   20.1557 C   0  0  0  0  0  0
  -25.5958  -33.8458   24.2123 N   0  0  0  0  0  0
  -23.4556  -30.4502   21.5253 C   0  0  2  0  0  0
  -24.9099  -28.8639   20.0992 C   0  0  0  0  0  0
  -22.7590  -29.4502   22.4826 C   0  0  0  0  0  0
  -18.0309  -28.1409   22.8473 C   0  0  0  0  0  0
  -24.1495  -36.7233   23.2642 C   0  0  0  0  0  0
  -26.0133  -30.6865   21.3911 C   0  0  0  0  0  0
  -26.0826  -29.2916   20.7320 C   0  0  0  0  0  0
  -27.2311  -28.4079   20.7534 C   0  0  0  0  0  0
  -26.0348  -26.7637   19.4660 C   0  0  0  0  0  0
  -24.9022  -27.6157   19.4515 C   0  0  0  0  0  0
  -23.6853  -29.7709   20.1461 C   0  0  0  0  0  0
  -25.4132  -36.2999   24.0304 C   0  0  1  0  0  0
  -20.5922  -28.3736   23.1229 C   0  0  2  0  0  0
  -20.6789  -26.9433   22.5417 C   0  0  0  0  0  0
  -19.5769  -26.6383   21.5222 C   0  0  0  0  0  0
  -18.1945  -26.7946   22.1619 C   0  0  0  0  0  0
  -19.1568  -28.8895   23.2837 C   0  0  0  0  0  0
  -18.9481  -30.1487   23.8867 C   0  0  0  0  0  0
  -17.6478  -30.6600   24.0564 C   0  0  0  0  0  0
  -25.9091  -34.9382   23.5028 C   0  0  0  0  0  0
  -16.5368  -29.9092   23.6345 C   0  0  0  0  0  0
  -16.7290  -28.6512   23.0359 C   0  0  0  0  0  0
  -26.4531  -31.6556   25.0693 C   0  0  0  0  0  0
  -25.3687  -31.3780   26.1370 C   0  0  0  0  0  0
  -27.0407  -30.2938   24.6342 C   0  0  0  0  0  0
  -27.6048  -32.4342   25.7484 C   0  0  0  0  0  0
  -27.5574  -37.1771   24.8461 C   0  0  0  0  0  0
  -21.4277  -29.3040   22.3580 N   0  0  0  0  0  0
  -26.4281  -37.3727   23.9404 N   0  0  0  0  0  0
  -24.7252  -31.0154   22.0863 N   0  0  0  0  0  0
  -23.4202  -28.8075   23.3023 O   0  0  0  0  0  0
  -28.2490  -26.0535   20.3384 O   0  0  0  0  0  0
  -26.5691  -34.8898   22.4617 O   0  0  0  0  0  0
  -23.5589  -32.1279   23.6981 O   0  0  0  0  0  0
  -28.8090  -20.8588   20.2505 C   0  0  0  0  0  0
  -28.3628  -23.1287   20.0004 C   0  0  0  0  0  0
  -28.3512  -18.2445   20.9685 C   0  0  0  0  0  0
  -29.3472  -19.3263   20.7557 C   0  0  1  0  0  0
  -29.5251  -17.7006   20.1627 C   0  0  1  0  0  0
  -26.7783  -20.1586   18.8677 C   0  0  0  0  0  0
  -28.5069  -24.7331   19.5204 C   0  0  0  0  0  0
  -29.2925  -22.1564   20.5242 N   0  0  0  0  0  0
  -27.3745  -22.4350   19.4221 N   0  0  0  0  0  0
  -27.6787  -21.0833   19.5307 N   0  0  0  0  0  0
  -29.6723  -16.2012   20.6871 N   0  0  0  0  0  0
  -31.4781  -12.8141   19.2214 H   0  0  0  0  0  0
  -30.4509  -11.6947   20.0649 H   0  0  0  0  0  0
  -29.8725  -11.7609   17.6147 H   0  0  0  0  0  0
  -29.6160  -13.4860   17.7064 H   0  0  0  0  0  0
  -27.9716  -11.2864   18.9884 H   0  0  0  0  0  0
  -27.4098  -12.4588   17.8244 H   0  0  0  0  0  0
  -27.5889  -14.2584   19.4173 H   0  0  0  0  0  0
  -28.7677  -12.3281   21.4724 H   0  0  0  0  0  0
  -28.3428  -13.9958   21.7713 H   0  0  0  0  0  0
  -25.2773   -9.5693   22.4755 H   0  0  0  0  0  0
  -24.0020   -7.4636   22.7465 H   0  0  0  0  0  0
  -21.0856   -8.8764   19.8950 H   0  0  0  0  0  0
  -22.3696  -10.9672   19.6158 H   0  0  0  0  0  0
  -21.2000   -7.6149   23.9718 H   0  0  0  0  0  0
  -21.1488   -6.0523   25.9080 H   0  0  0  0  0  0
  -22.0597   -2.7613   23.2838 H   0  0  0  0  0  0
  -22.4078  -11.9864   22.4832 H   0  0  0  0  0  0
  -21.1066  -13.1206   22.2631 H   0  0  0  0  0  0
  -24.6344  -15.8400   20.5160 H   0  0  0  0  0  0
  -26.2495  -15.6369   20.0626 H   0  0  0  0  0  0
  -26.7295  -32.5226   23.0930 H   0  0  0  0  0  0
  -25.0063  -33.9561   25.0242 H   0  0  0  0  0  0
  -22.7610  -31.2775   21.3640 H   0  0  0  0  0  0
  -23.3765  -35.9555   23.3284 H   0  0  0  0  0  0
  -24.3576  -36.8894   22.2060 H   0  0  0  0  0  0
  -23.7244  -37.6413   23.6711 H   0  0  0  0  0  0
  -26.1802  -31.4375   20.6182 H   0  0  0  0  0  0
  -26.8785  -30.7365   22.0402 H   0  0  0  0  0  0
  -28.1121  -28.7194   21.2961 H   0  0  0  0  0  0
  -25.9341  -25.7999   18.9895 H   0  0  0  0  0  0
  -24.0055  -27.2814   18.9479 H   0  0  0  0  0  0
  -23.8199  -30.5426   19.3870 H   0  0  0  0  0  0
  -22.7992  -29.2125   19.8390 H   0  0  0  0  0  0
  -25.1330  -36.1802   25.0796 H   0  0  0  0  0  0
  -21.0013  -28.3339   24.1351 H   0  0  0  0  0  0
  -20.5675  -26.2357   23.3645 H   0  0  0  0  0  0
  -21.6656  -26.7429   22.1221 H   0  0  0  0  0  0
  -19.6928  -25.6282   21.1280 H   0  0  0  0  0  0
  -19.6715  -27.3172   20.6735 H   0  0  0  0  0  0
  -17.4221  -26.6699   21.4014 H   0  0  0  0  0  0
  -18.0329  -26.0096   22.9021 H   0  0  0  0  0  0
  -19.7959  -30.7315   24.2219 H   0  0  0  0  0  0
  -17.5031  -31.6280   24.5169 H   0  0  0  0  0  0
  -15.5366  -30.2986   23.7693 H   0  0  0  0  0  0
  -15.8688  -28.0825   22.7091 H   0  0  0  0  0  0
  -24.5892  -30.7100   25.7685 H   0  0  0  0  0  0
  -24.8845  -32.2973   26.4677 H   0  0  0  0  0  0
  -25.7942  -30.9031   27.0218 H   0  0  0  0  0  0
  -26.3041  -29.6643   24.1338 H   0  0  0  0  0  0
  -27.3967  -29.7269   25.4952 H   0  0  0  0  0  0
  -27.8973  -30.4142   23.9708 H   0  0  0  0  0  0
  -27.2632  -33.3673   26.1978 H   0  0  0  0  0  0
  -28.3905  -32.6852   25.0346 H   0  0  0  0  0  0
  -28.0670  -31.8523   26.5467 H   0  0  0  0  0  0
  -28.2576  -38.0082   24.7518 H   0  0  0  0  0  0
  -28.1085  -36.2613   24.6278 H   0  0  0  0  0  0
  -27.2296  -37.1402   25.8863 H   0  0  0  0  0  0
  -20.9506  -29.8719   21.6720 H   0  0  0  0  0  0
  -26.0136  -38.2786   24.1421 H   0  0  0  0  0  0
  -27.4009  -18.2473   20.4494 H   0  0  0  0  0  0
  -28.2496  -17.9318   22.0066 H   0  0  0  0  0  0
  -30.0208  -19.5285   21.5862 H   0  0  0  0  0  0
  -29.4627  -17.7241   19.0762 H   0  0  0  0  0  0
  -27.3398  -19.3236   18.4481 H   0  0  0  0  0  0
  -26.2602  -20.6559   18.0464 H   0  0  0  0  0  0
  -26.0310  -19.7930   19.5714 H   0  0  0  0  0  0
  -27.9594  -24.8360   18.5837 H   0  0  0  0  0  0
  -29.5470  -24.8337   19.2108 H   0  0  0  0  0  0
  -28.8214  -15.9042   21.1416 H   0  0  0  0  0  0
  1 25  1  0  0  0
  1 30  2  0  0  0
  1 81  1  0  0  0
  2  3  1  0  0  0
  2 25  1  0  0  0
  2 82  1  0  0  0
  2 83  1  0  0  0
  3  4  1  0  0  0
  3 84  1  0  0  0
  3 85  1  0  0  0
  4  5  1  0  0  0
  4 86  1  0  0  0
  4 87  1  0  0  0
  5  6  1  0  0  0
  5 26  1  0  0  0
  5 88  1  0  0  0
  6 25  1  0  0  0
  6 89  1  0  0  0
  6 90  1  0  0  0
  7  8  2  0  0  0
  7 26  1  0  0  0
  7 29  1  0  0  0
  8  9  1  0  0  0
  8 22  1  0  0  0
  9 10  1  0  0  0
  9 27  2  0  0  0
 10 11  2  0  0  0
 10 15  1  0  0  0
 11 12  1  0  0  0
 11 91  1  0  0  0
 12 13  2  0  0  0
 12 92  1  0  0  0
 13 14  1  0  0  0
 13 31  1  0  0  0
 14 15  2  0  0  0
 14 93  1  0  0  0
 15 94  1  0  0  0
 16 17  2  0  0  0
 16 21  1  0  0  0
 16 31  1  0  0  0
 17 18  1  0  0  0
 17 95  1  0  0  0
 18 19  2  0  0  0
 18 96  1  0  0  0
 19 20  1  0  0  0
 19 24  1  0  0  0
 20 21  2  0  0  0
 20 97  1  0  0  0
 21 23  1  0  0  0
 22 28  1  0  0  0
 22 32  2  0  0  0
 26 27  1  0  0  0
 28 98  1  0  0  0
 28 99  1  0  0  0
 29100  1  0  0  0
 29101  1  0  0  0
 33 34  1  0  0  0
 33 66  1  0  0  0
 33 70  2  0  0  0
 34 36  1  0  0  0
 34 59  1  0  0  0
 34102  1  0  0  0
 35 44  2  0  0  0
 35 45  1  0  0  0
 35 68  1  0  0  0
 36 56  1  0  0  0
 36103  1  0  0  0
 37 39  1  0  0  0
 37 47  1  0  0  0
 37 66  1  0  0  0
 37104  1  0  0  0
 38 43  2  0  0  0
 38 46  1  0  0  0
 38 47  1  0  0  0
 39 64  1  0  0  0
 39 67  2  0  0  0
 40 52  1  0  0  0
 40 53  2  0  0  0
 40 58  1  0  0  0
 41105  1  0  0  0
 41106  1  0  0  0
 41107  1  0  0  0
 41 48  1  0  0  0
 42 43  1  0  0  0
 42 66  1  0  0  0
 42108  1  0  0  0
 42109  1  0  0  0
 43 44  1  0  0  0
 44110  1  0  0  0
 45 46  2  0  0  0
 45111  1  0  0  0
 46112  1  0  0  0
 47113  1  0  0  0
 47114  1  0  0  0
 48 56  1  0  0  0
 48 65  1  0  0  0
 48115  1  0  0  0
 49 50  1  0  0  0
 49 53  1  0  0  0
 49 64  1  0  0  0
 49116  1  0  0  0
 50 51  1  0  0  0
 50117  1  0  0  0
 50118  1  0  0  0
 51 52  1  0  0  0
 51119  1  0  0  0
 51120  1  0  0  0
 52121  1  0  0  0
 52122  1  0  0  0
 53 54  1  0  0  0
 54 55  2  0  0  0
 54123  1  0  0  0
 55 57  1  0  0  0
 55124  1  0  0  0
 56 69  2  0  0  0
 57 58  2  0  0  0
 57125  1  0  0  0
 58126  1  0  0  0
 59 60  1  0  0  0
 59 61  1  0  0  0
 59 62  1  0  0  0
 60127  1  0  0  0
 60128  1  0  0  0
 60129  1  0  0  0
 61130  1  0  0  0
 61131  1  0  0  0
 61132  1  0  0  0
 62133  1  0  0  0
 62134  1  0  0  0
 62135  1  0  0  0
 63 65  1  0  0  0
 63136  1  0  0  0
 63137  1  0  0  0
 63138  1  0  0  0
 64139  1  0  0  0
 65140  1  0  0  0
 68 77  1  0  0  0
 71 78  2  0  0  0
 71 80  1  0  0  0
 71 74  1  0  0  0
 72 77  1  0  0  0
 72 78  1  0  0  0
 72 79  2  0  0  0
 73 74  1  0  0  0
 73 75  1  0  0  0
 73141  1  0  0  0
 73142  1  0  0  0
 74 75  1  0  0  0
 74143  1  0  0  0
 75 81  1  0  0  0
 75144  1  0  0  0
 76 80  1  0  0  0
 76145  1  0  0  0
 76146  1  0  0  0
 76147  1  0  0  0
 77148  1  0  0  0
 77149  1  0  0  0
 79 80  1  0  0  0
 81150  1  0  0  0
M  ISO  4   1 100  68 101  77 101  81 100
M  END
> <chiral flag>
0

> <version>
0

> <s_m_source_file>
/data/baiqing/PycharmProjects/Reinvent-master-3.2/result/LINK_invent/BTK/process_docking_weight1_custom_sum_contain_oxygen_bond_distance_aromatic_linkinvent_7_9_3/rearranged_h_0192.sdf

> <i_m_source_file_index>
13

> <r_mmod_Potential_Energy-OPLS-2005>
882.709045410156

> <r_mmod_Stretch_Energy-OPLS-2005>
366.917694091797

> <r_mmod_Bend_Energy-OPLS-2005>
417.595062255859

> <r_mmod_Torsional_Energy-OPLS-2005>
275.994781494141

> <r_mmod_Improper_Torsional_Energy-OPLS-2005>
9.20846176147461

> <r_mmod_Van_der_Waal_Energy-OPLS-2005>
109.74755859375

> <r_mmod_Electrostatic_Energy-OPLS-2005>
-317.446197509766

> <r_mmod_Solvation_Energy-OPLS-2005>
-246.631103515625

> <b_mmod_Minimization_Converged-OPLS-2005>
0

> <r_mmod_RMS_Derivative-OPLS-2005>
0.968786358833313

$$$$
13
                    3D
 Structure written by MMmdl.
159167  0  0  1  0            999 V2000
  -30.5484  -14.7734   20.4850 C   0  0  0  0  0  0
  -30.4577  -12.4795   19.4609 C   0  0  0  0  0  0
  -29.5172  -12.5213   18.2325 C   0  0  0  0  0  0
  -28.0438  -12.3306   18.6484 C   0  0  0  0  0  0
  -27.6495  -13.2180   19.8573 C   0  0  2  0  0  0
  -28.6974  -13.1119   20.9884 C   0  0  0  0  0  0
  -25.2558  -13.8160   20.5689 C   0  0  0  0  0  0
  -24.1830  -13.0430   20.9208 C   0  0  0  0  0  0
  -24.6397  -11.6901   20.8745 C   0  0  0  0  0  0
  -23.9064  -10.4288   21.0409 C   0  0  0  0  0  0
  -24.3615   -9.4203   21.9185 C   0  0  0  0  0  0
  -23.6290   -8.2239   22.0754 C   0  0  0  0  0  0
  -22.4272   -8.0278   21.3544 C   0  0  0  0  0  0
  -21.9907   -9.0253   20.4647 C   0  0  0  0  0  0
  -22.7237  -10.2133   20.3058 C   0  0  0  0  0  0
  -21.6851   -6.0734   22.5278 C   0  0  0  0  0  0
  -21.4013   -6.5638   23.8212 C   0  0  0  0  0  0
  -21.3658   -5.6790   24.9173 C   0  0  0  0  0  0
  -21.6044   -4.3054   24.7224 C   0  0  0  0  0  0
  -21.8820   -3.8146   23.4345 C   0  0  0  0  0  0
  -21.9193   -4.6962   22.3402 C   0  0  0  0  0  0
  -22.7852  -13.5228   21.1864 C   0  0  0  0  0  0
  -22.1662   -4.2148   21.0979 F   0  0  0  0  0  0
  -21.5629   -3.4538   25.7738 F   0  0  0  0  0  0
  -29.9977  -13.5086   20.4211 N   0  0  0  0  0  0
  -26.2974  -12.9336   20.3291 N   0  0  0  0  0  0
  -25.9325  -11.6495   20.5747 N   0  0  0  0  0  0
  -22.0486  -12.8222   22.0415 N   0  0  0  0  0  0
  -25.4272  -15.1883   20.4093 N   0  0  0  0  0  0
  -31.7112  -14.9687   20.1140 O   0  0  0  0  0  0
  -21.6636   -6.8876   21.4240 O   0  0  0  0  0  0
  -22.3548  -14.5538   20.6711 O   0  0  0  0  0  0
  -24.6340  -31.8531   23.1962 C   0  0  0  0  0  0
  -25.9151  -32.4745   23.8315 C   0  0  1  0  0  0
  -27.2242  -27.2390   20.1283 C   0  0  0  0  0  0
  -25.5935  -33.8547   24.2238 N   0  0  0  0  0  0
  -23.4319  -30.4759   21.5407 C   0  0  2  0  0  0
  -24.8797  -28.9199   20.1118 C   0  0  0  0  0  0
  -22.7517  -29.4593   22.4902 C   0  0  0  0  0  0
  -18.0295  -28.1392   22.8485 C   0  0  0  0  0  0
  -24.1488  -36.7273   23.2641 C   0  0  0  0  0  0
  -25.9807  -30.7604   21.3785 C   0  0  0  0  0  0
  -26.0544  -29.3810   20.7196 C   0  0  0  0  0  0
  -27.2287  -28.5553   20.7130 C   0  0  0  0  0  0
  -26.0198  -26.8527   19.4950 C   0  0  0  0  0  0
  -24.8695  -27.6648   19.4880 C   0  0  0  0  0  0
  -23.6517  -29.8097   20.1576 C   0  0  0  0  0  0
  -25.4117  -36.3061   24.0325 C   0  0  1  0  0  0
  -20.5902  -28.3704   23.1263 C   0  0  2  0  0  0
  -20.6784  -26.9419   22.5407 C   0  0  0  0  0  0
  -19.5757  -26.6384   21.5215 C   0  0  0  0  0  0
  -18.1937  -26.7933   22.1628 C   0  0  0  0  0  0
  -19.1550  -28.8865   23.2870 C   0  0  0  0  0  0
  -18.9472  -30.1464   23.8891 C   0  0  0  0  0  0
  -17.6471  -30.6593   24.0562 C   0  0  0  0  0  0
  -25.9059  -34.9435   23.5085 C   0  0  0  0  0  0
  -16.5361  -29.9090   23.6335 C   0  0  0  0  0  0
  -16.7281  -28.6507   23.0357 C   0  0  0  0  0  0
  -26.4509  -31.6578   25.0714 C   0  0  0  0  0  0
  -25.3722  -31.3736   26.1426 C   0  0  0  0  0  0
  -27.0359  -30.2993   24.6213 C   0  0  0  0  0  0
  -27.6053  -32.4324   25.7495 C   0  0  0  0  0  0
  -27.5577  -37.1791   24.8468 C   0  0  0  0  0  0
  -21.4221  -29.3046   22.3648 N   0  0  0  0  0  0
  -26.4287  -37.3765   23.9414 N   0  0  0  0  0  0
  -24.7017  -31.0479   22.0947 N   0  0  0  0  0  0
  -23.4206  -28.8133   23.3008 O   0  0  0  0  0  0
  -28.3177  -26.3304   20.1801 O   0  0  0  0  0  0
  -26.5639  -34.8919   22.4659 O   0  0  0  0  0  0
  -23.5482  -32.1358   23.7244 O   0  0  0  0  0  0
  -28.8108  -17.8174   21.9659 C   0  0  0  0  0  0
  -29.5916  -17.2698   20.9796 C   0  0  0  0  0  0
  -29.5286  -19.5762   20.7301 C   0  0  0  0  0  0
  -29.0656  -20.7548   23.7371 C   0  0  0  0  0  0
  -30.2890  -23.8921   19.1890 C   0  0  0  0  0  0
  -29.8182  -21.0861   20.2819 C   0  0  0  0  0  0
  -28.1148  -20.1235   22.7105 C   0  0  0  0  0  0
  -28.0615  -24.8396   20.0731 C   0  0  0  0  0  0
  -29.2099  -23.6902   20.2644 C   0  0  1  0  0  0
  -28.8068  -19.1917   21.8081 N   0  0  0  0  0  0
  -30.0232  -18.3821   20.2271 N   0  3  0  0  0  0
  -29.6605  -15.7833   20.8280 N   0  0  0  0  0  0
  -28.7854  -22.2172   20.2700 N   0  0  0  0  0  0
  -31.4896  -12.6503   19.1492 H   0  0  0  0  0  0
  -30.4444  -11.4925   19.9258 H   0  0  0  0  0  0
  -29.8038  -11.7539   17.5121 H   0  0  0  0  0  0
  -29.6288  -13.4774   17.7187 H   0  0  0  0  0  0
  -27.9071  -11.2794   18.9047 H   0  0  0  0  0  0
  -27.3827  -12.5251   17.8031 H   0  0  0  0  0  0
  -27.6515  -14.2446   19.4911 H   0  0  0  0  0  0
  -28.7456  -12.0918   21.3727 H   0  0  0  0  0  0
  -28.4193  -13.7345   21.8402 H   0  0  0  0  0  0
  -25.2761   -9.5676   22.4759 H   0  0  0  0  0  0
  -23.9999   -7.4629   22.7472 H   0  0  0  0  0  0
  -21.0840   -8.8773   19.8954 H   0  0  0  0  0  0
  -22.3696  -10.9672   19.6168 H   0  0  0  0  0  0
  -21.2002   -7.6146   23.9714 H   0  0  0  0  0  0
  -21.1480   -6.0521   25.9076 H   0  0  0  0  0  0
  -22.0600   -2.7608   23.2846 H   0  0  0  0  0  0
  -22.4093  -11.9877   22.4800 H   0  0  0  0  0  0
  -21.1104  -13.1250   22.2613 H   0  0  0  0  0  0
  -24.6511  -15.8345   20.5039 H   0  0  0  0  0  0
  -26.2528  -15.6210   20.0162 H   0  0  0  0  0  0
  -26.7217  -32.5391   23.1054 H   0  0  0  0  0  0
  -25.0069  -33.9679   25.0375 H   0  0  0  0  0  0
  -22.7294  -31.2989   21.3932 H   0  0  0  0  0  0
  -23.3757  -35.9599   23.3300 H   0  0  0  0  0  0
  -24.3574  -36.8900   22.2056 H   0  0  0  0  0  0
  -23.7236  -37.6470   23.6671 H   0  0  0  0  0  0
  -26.1212  -31.5208   20.6091 H   0  0  0  0  0  0
  -26.8571  -30.8098   22.0129 H   0  0  0  0  0  0
  -28.1273  -28.9049   21.2015 H   0  0  0  0  0  0
  -25.9287  -25.8959   19.0057 H   0  0  0  0  0  0
  -23.9706  -27.3054   19.0062 H   0  0  0  0  0  0
  -23.7790  -30.5860   19.4022 H   0  0  0  0  0  0
  -22.7692  -29.2452   19.8508 H   0  0  0  0  0  0
  -25.1300  -36.1900   25.0818 H   0  0  0  0  0  0
  -20.9995  -28.3285   24.1384 H   0  0  0  0  0  0
  -20.5683  -26.2315   23.3614 H   0  0  0  0  0  0
  -21.6651  -26.7438   22.1201 H   0  0  0  0  0  0
  -19.6919  -25.6293   21.1248 H   0  0  0  0  0  0
  -19.6696  -27.3193   20.6744 H   0  0  0  0  0  0
  -17.4205  -26.6680   21.4032 H   0  0  0  0  0  0
  -18.0338  -26.0077   22.9026 H   0  0  0  0  0  0
  -19.7949  -30.7282   24.2256 H   0  0  0  0  0  0
  -17.5027  -31.6273   24.5163 H   0  0  0  0  0  0
  -15.5363  -30.2992   23.7663 H   0  0  0  0  0  0
  -15.8680  -28.0824   22.7079 H   0  0  0  0  0  0
  -24.5914  -30.7066   25.7754 H   0  0  0  0  0  0
  -24.8895  -32.2908   26.4810 H   0  0  0  0  0  0
  -25.8030  -30.8945   27.0227 H   0  0  0  0  0  0
  -26.2948  -29.6734   24.1228 H   0  0  0  0  0  0
  -27.4030  -29.7260   25.4736 H   0  0  0  0  0  0
  -27.8830  -30.4263   23.9468 H   0  0  0  0  0  0
  -27.2656  -33.3640   26.2037 H   0  0  0  0  0  0
  -28.3886  -32.6857   25.0337 H   0  0  0  0  0  0
  -28.0696  -31.8470   26.5442 H   0  0  0  0  0  0
  -28.2587  -38.0093   24.7515 H   0  0  0  0  0  0
  -28.1076  -36.2622   24.6291 H   0  0  0  0  0  0
  -27.2294  -37.1434   25.8870 H   0  0  0  0  0  0
  -20.9409  -29.8766   21.6849 H   0  0  0  0  0  0
  -26.0161  -38.2835   24.1423 H   0  0  0  0  0  0
  -28.2589  -17.3438   22.7659 H   0  0  0  0  0  0
  -28.5197  -21.4109   24.4153 H   0  0  0  0  0  0
  -29.8380  -21.3531   23.2540 H   0  0  0  0  0  0
  -29.5591  -19.9915   24.3398 H   0  0  0  0  0  0
  -30.6234  -24.9304   19.1755 H   0  0  0  0  0  0
  -29.9125  -23.6601   18.1923 H   0  0  0  0  0  0
  -31.1745  -23.2830   19.3696 H   0  0  0  0  0  0
  -30.2585  -21.0129   19.2868 H   0  0  0  0  0  0
  -30.6289  -21.3977   20.9412 H   0  0  0  0  0  0
  -27.6000  -20.8797   22.1210 H   0  0  0  0  0  0
  -27.3328  -19.5673   23.2286 H   0  0  0  0  0  0
  -27.2631  -24.6120   20.7810 H   0  0  0  0  0  0
  -27.6424  -24.6585   19.0839 H   0  0  0  0  0  0
  -29.6761  -23.8728   21.2341 H   0  0  0  0  0  0
  -30.6122  -18.3275   19.4059 H   0  0  0  0  0  0
  -28.8154  -15.3410   21.1527 H   0  0  0  0  0  0
  -28.2133  -22.0761   19.4418 H   0  0  0  0  0  0
  1 25  1  0  0  0
  1 30  2  0  0  0
  1 82  1  0  0  0
  2  3  1  0  0  0
  2 25  1  0  0  0
  2 84  1  0  0  0
  2 85  1  0  0  0
  3  4  1  0  0  0
  3 86  1  0  0  0
  3 87  1  0  0  0
  4  5  1  0  0  0
  4 88  1  0  0  0
  4 89  1  0  0  0
  5  6  1  0  0  0
  5 26  1  0  0  0
  5 90  1  0  0  0
  6 25  1  0  0  0
  6 91  1  0  0  0
  6 92  1  0  0  0
  7  8  2  0  0  0
  7 26  1  0  0  0
  7 29  1  0  0  0
  8  9  1  0  0  0
  8 22  1  0  0  0
  9 10  1  0  0  0
  9 27  2  0  0  0
 10 11  2  0  0  0
 10 15  1  0  0  0
 11 12  1  0  0  0
 11 93  1  0  0  0
 12 13  2  0  0  0
 12 94  1  0  0  0
 13 14  1  0  0  0
 13 31  1  0  0  0
 14 15  2  0  0  0
 14 95  1  0  0  0
 15 96  1  0  0  0
 16 17  2  0  0  0
 16 21  1  0  0  0
 16 31  1  0  0  0
 17 18  1  0  0  0
 17 97  1  0  0  0
 18 19  2  0  0  0
 18 98  1  0  0  0
 19 20  1  0  0  0
 19 24  1  0  0  0
 20 21  2  0  0  0
 20 99  1  0  0  0
 21 23  1  0  0  0
 22 28  1  0  0  0
 22 32  2  0  0  0
 26 27  1  0  0  0
 28100  1  0  0  0
 28101  1  0  0  0
 29102  1  0  0  0
 29103  1  0  0  0
 33 34  1  0  0  0
 33 66  1  0  0  0
 33 70  2  0  0  0
 34 36  1  0  0  0
 34 59  1  0  0  0
 34104  1  0  0  0
 35 44  2  0  0  0
 35 45  1  0  0  0
 35 68  1  0  0  0
 36 56  1  0  0  0
 36105  1  0  0  0
 37 39  1  0  0  0
 37 47  1  0  0  0
 37 66  1  0  0  0
 37106  1  0  0  0
 38 43  2  0  0  0
 38 46  1  0  0  0
 38 47  1  0  0  0
 39 64  1  0  0  0
 39 67  2  0  0  0
 40 52  1  0  0  0
 40 53  2  0  0  0
 40 58  1  0  0  0
 41107  1  0  0  0
 41108  1  0  0  0
 41109  1  0  0  0
 41 48  1  0  0  0
 42 43  1  0  0  0
 42 66  1  0  0  0
 42110  1  0  0  0
 42111  1  0  0  0
 43 44  1  0  0  0
 44112  1  0  0  0
 45 46  2  0  0  0
 45113  1  0  0  0
 46114  1  0  0  0
 47115  1  0  0  0
 47116  1  0  0  0
 48 56  1  0  0  0
 48 65  1  0  0  0
 48117  1  0  0  0
 49 50  1  0  0  0
 49 53  1  0  0  0
 49 64  1  0  0  0
 49118  1  0  0  0
 50 51  1  0  0  0
 50119  1  0  0  0
 50120  1  0  0  0
 51 52  1  0  0  0
 51121  1  0  0  0
 51122  1  0  0  0
 52123  1  0  0  0
 52124  1  0  0  0
 53 54  1  0  0  0
 54 55  2  0  0  0
 54125  1  0  0  0
 55 57  1  0  0  0
 55126  1  0  0  0
 56 69  2  0  0  0
 57 58  2  0  0  0
 57127  1  0  0  0
 58128  1  0  0  0
 59 60  1  0  0  0
 59 61  1  0  0  0
 59 62  1  0  0  0
 60129  1  0  0  0
 60130  1  0  0  0
 60131  1  0  0  0
 61132  1  0  0  0
 61133  1  0  0  0
 61134  1  0  0  0
 62135  1  0  0  0
 62136  1  0  0  0
 62137  1  0  0  0
 63 65  1  0  0  0
 63138  1  0  0  0
 63139  1  0  0  0
 63140  1  0  0  0
 64141  1  0  0  0
 65142  1  0  0  0
 68 78  1  0  0  0
 71 72  2  0  0  0
 71 80  1  0  0  0
 71143  1  0  0  0
 72 81  1  0  0  0
 72 82  1  0  0  0
 73 76  1  0  0  0
 73 80  1  0  0  0
 73 81  2  0  0  0
 74 77  1  0  0  0
 74144  1  0  0  0
 74145  1  0  0  0
 74146  1  0  0  0
 75147  1  0  0  0
 75148  1  0  0  0
 75149  1  0  0  0
 75 79  1  0  0  0
 76 83  1  0  0  0
 76150  1  0  0  0
 76151  1  0  0  0
 77 80  1  0  0  0
 77152  1  0  0  0
 77153  1  0  0  0
 78 79  1  0  0  0
 78154  1  0  0  0
 78155  1  0  0  0
 79 83  1  0  0  0
 79156  1  0  0  0
 81157  1  0  0  0
 82158  1  0  0  0
 83159  1  0  0  0
M  CHG  1  81   1
M  ISO  4   1 100  68 101  78 101  82 100
M  END
> <chiral flag>
0

> <version>
0

> <s_m_source_file>
/data/baiqing/PycharmProjects/Reinvent-master-3.2/result/LINK_invent/BTK/process_docking_weight1_custom_sum_contain_oxygen_bond_distance_aromatic_linkinvent_7_9_3/rearranged_h_0192.sdf

> <i_m_source_file_index>
14

> <r_mmod_Potential_Energy-OPLS-2005>
172.361038208008

> <r_mmod_Stretch_Energy-OPLS-2005>
141.479949951172

> <r_mmod_Bend_Energy-OPLS-2005>
224.173049926758

> <r_mmod_Torsional_Energy-OPLS-2005>
235.543228149414

> <r_mmod_Improper_Torsional_Energy-OPLS-2005>
5.37345314025879

> <r_mmod_Van_der_Waal_Energy-OPLS-2005>
117.813095092773

> <r_mmod_Electrostatic_Energy-OPLS-2005>
-219.186096191406

> <r_mmod_Solvation_Energy-OPLS-2005>
-431.685607910156

> <b_mmod_Minimization_Converged-OPLS-2005>
0

> <r_mmod_RMS_Derivative-OPLS-2005>
0.341436743736267

$$$$
14
                    3D
 Structure written by MMmdl.
164173  0  0  1  0            999 V2000
  -30.6578  -14.6682   20.5826 C   0  0  0  0  0  0
  -30.4228  -12.4353   19.4798 C   0  0  0  0  0  0
  -29.5069  -12.5325   18.2424 C   0  0  0  0  0  0
  -28.0334  -12.3563   18.6490 C   0  0  0  0  0  0
  -27.6462  -13.2296   19.8715 C   0  0  2  0  0  0
  -28.6816  -13.1200   21.0132 C   0  0  0  0  0  0
  -25.2490  -13.8174   20.5701 C   0  0  0  0  0  0
  -24.1783  -13.0419   20.9197 C   0  0  0  0  0  0
  -24.6368  -11.6892   20.8701 C   0  0  0  0  0  0
  -23.9049  -10.4269   21.0367 C   0  0  0  0  0  0
  -24.3583   -9.4191   21.9157 C   0  0  0  0  0  0
  -23.6248   -8.2238   22.0749 C   0  0  0  0  0  0
  -22.4239   -8.0260   21.3531 C   0  0  0  0  0  0
  -21.9863   -9.0242   20.4648 C   0  0  0  0  0  0
  -22.7199  -10.2120   20.3042 C   0  0  0  0  0  0
  -21.6865   -6.0709   22.5294 C   0  0  0  0  0  0
  -21.4048   -6.5617   23.8234 C   0  0  0  0  0  0
  -21.3659   -5.6765   24.9182 C   0  0  0  0  0  0
  -21.6042   -4.3037   24.7231 C   0  0  0  0  0  0
  -21.8806   -3.8127   23.4354 C   0  0  0  0  0  0
  -21.9183   -4.6934   22.3410 C   0  0  0  0  0  0
  -22.7820  -13.5210   21.1853 C   0  0  0  0  0  0
  -22.1649   -4.2112   21.0994 F   0  0  0  0  0  0
  -21.5597   -3.4524   25.7748 F   0  0  0  0  0  0
  -29.9978  -13.4664   20.4584 N   0  0  0  0  0  0
  -26.2927  -12.9385   20.3344 N   0  0  0  0  0  0
  -25.9314  -11.6517   20.5758 N   0  0  0  0  0  0
  -22.0465  -12.8239   22.0429 N   0  0  0  0  0  0
  -25.4161  -15.1891   20.4081 N   0  0  0  0  0  0
  -31.7577  -14.8254   20.0423 O   0  0  0  0  0  0
  -21.6629   -6.8838   21.4243 O   0  0  0  0  0  0
  -22.3529  -14.5513   20.6678 O   0  0  0  0  0  0
  -24.6233  -31.8568   23.2018 C   0  0  0  0  0  0
  -25.9070  -32.4773   23.8329 C   0  0  1  0  0  0
  -27.2229  -27.2945   20.1436 C   0  0  0  0  0  0
  -25.5858  -33.8574   24.2246 N   0  0  0  0  0  0
  -23.4172  -30.4748   21.5477 C   0  0  2  0  0  0
  -24.8640  -28.9205   20.1190 C   0  0  0  0  0  0
  -22.7461  -29.4570   22.5005 C   0  0  0  0  0  0
  -18.0260  -28.1372   22.8522 C   0  0  0  0  0  0
  -24.1461  -36.7275   23.2650 C   0  0  0  0  0  0
  -25.9561  -30.7816   21.3719 C   0  0  0  0  0  0
  -26.0292  -29.4011   20.7292 C   0  0  0  0  0  0
  -27.2059  -28.5962   20.7362 C   0  0  0  0  0  0
  -26.0411  -26.8771   19.4914 C   0  0  0  0  0  0
  -24.8715  -27.6625   19.4943 C   0  0  0  0  0  0
  -23.6314  -29.7999   20.1658 C   0  0  0  0  0  0
  -25.4093  -36.3088   24.0333 C   0  0  1  0  0  0
  -20.5880  -28.3646   23.1326 C   0  0  2  0  0  0
  -20.6740  -26.9368   22.5442 C   0  0  0  0  0  0
  -19.5708  -26.6381   21.5244 C   0  0  0  0  0  0
  -18.1895  -26.7916   22.1668 C   0  0  0  0  0  0
  -19.1526  -28.8833   23.2911 C   0  0  0  0  0  0
  -18.9444  -30.1460   23.8891 C   0  0  0  0  0  0
  -17.6444  -30.6586   24.0570 C   0  0  0  0  0  0
  -25.9028  -34.9462   23.5109 C   0  0  0  0  0  0
  -16.5329  -29.9082   23.6351 C   0  0  0  0  0  0
  -16.7260  -28.6502   23.0373 C   0  0  0  0  0  0
  -26.4455  -31.6594   25.0706 C   0  0  0  0  0  0
  -25.3690  -31.3736   26.1438 C   0  0  0  0  0  0
  -27.0288  -30.3020   24.6140 C   0  0  0  0  0  0
  -27.6017  -32.4342   25.7464 C   0  0  0  0  0  0
  -27.5561  -37.1779   24.8476 C   0  0  0  0  0  0
  -21.4187  -29.2992   22.3722 N   0  0  0  0  0  0
  -26.4274  -37.3784   23.9424 N   0  0  0  0  0  0
  -24.6844  -31.0572   22.0970 N   0  0  0  0  0  0
  -23.4184  -28.8148   23.3120 O   0  0  0  0  0  0
  -28.3843  -26.5030   20.1459 O   0  0  0  0  0  0
  -26.5661  -34.8933   22.4713 O   0  0  0  0  0  0
  -23.5394  -32.1390   23.7338 O   0  0  0  0  0  0
  -29.6866  -24.5544   20.9253 C   0  0  0  0  0  0
  -27.8545  -22.8525   19.9356 C   0  0  0  0  0  0
  -29.0800  -22.3099   20.4509 C   0  0  0  0  0  0
  -28.5015  -25.0959   20.3538 C   0  0  0  0  0  0
  -30.9318  -15.7867   22.6875 C   0  0  0  0  0  0
  -30.2732  -16.7126   23.7378 C   0  0  0  0  0  0
  -28.2130  -16.9183   22.3439 C   0  0  0  0  0  0
  -29.2293  -16.8290   21.1614 C   0  0  1  0  0  0
  -26.7746  -21.9533   19.3678 C   0  0  0  0  0  0
  -29.6461  -20.8331   20.2099 C   0  0  0  0  0  0
  -29.8812  -18.2712   20.7655 C   0  0  0  0  0  0
  -29.9698  -23.2094   20.9733 N   0  0  0  0  0  0
  -27.5724  -24.2050   19.8906 N   0  0  0  0  0  0
  -30.1662  -15.6452   21.4321 N   0  0  0  0  0  0
  -28.7978  -16.6433   23.6809 N   0  3  0  0  0  0
  -29.0299  -19.5600   20.7897 N   0  3  0  0  0  0
  -31.4659  -12.5465   19.1790 H   0  0  0  0  0  0
  -30.3493  -11.4431   19.9276 H   0  0  0  0  0  0
  -29.7887  -11.7803   17.5062 H   0  0  0  0  0  0
  -29.6421  -13.5027   17.7604 H   0  0  0  0  0  0
  -27.8759  -11.3011   18.8874 H   0  0  0  0  0  0
  -27.3798  -12.5818   17.8077 H   0  0  0  0  0  0
  -27.6605  -14.2645   19.5273 H   0  0  0  0  0  0
  -28.6967  -12.1140   21.4338 H   0  0  0  0  0  0
  -28.4035  -13.7805   21.8342 H   0  0  0  0  0  0
  -25.2729   -9.5675   22.4721 H   0  0  0  0  0  0
  -23.9963   -7.4635   22.7497 H   0  0  0  0  0  0
  -21.0783   -8.8748   19.8981 H   0  0  0  0  0  0
  -22.3634  -10.9632   19.6145 H   0  0  0  0  0  0
  -21.2108   -7.6137   23.9710 H   0  0  0  0  0  0
  -21.1481   -6.0519   25.9075 H   0  0  0  0  0  0
  -22.0584   -2.7588   23.2877 H   0  0  0  0  0  0
  -22.4050  -11.9939   22.4889 H   0  0  0  0  0  0
  -21.1081  -13.1315   22.2606 H   0  0  0  0  0  0
  -24.6143  -15.8092   20.4567 H   0  0  0  0  0  0
  -26.2004  -15.5971   19.9196 H   0  0  0  0  0  0
  -26.7136  -32.5453   23.1074 H   0  0  0  0  0  0
  -24.9867  -33.9698   25.0286 H   0  0  0  0  0  0
  -22.7089  -31.2938   21.4026 H   0  0  0  0  0  0
  -23.3734  -35.9596   23.3328 H   0  0  0  0  0  0
  -24.3542  -36.8885   22.2062 H   0  0  0  0  0  0
  -23.7191  -37.6465   23.6665 H   0  0  0  0  0  0
  -26.0757  -31.5341   20.5915 H   0  0  0  0  0  0
  -26.8409  -30.8447   21.9939 H   0  0  0  0  0  0
  -28.1029  -28.9665   21.2132 H   0  0  0  0  0  0
  -26.0080  -25.9317   18.9731 H   0  0  0  0  0  0
  -23.9816  -27.2857   19.0067 H   0  0  0  0  0  0
  -23.7398  -30.5696   19.4005 H   0  0  0  0  0  0
  -22.7506  -29.2206   19.8796 H   0  0  0  0  0  0
  -25.1271  -36.1933   25.0823 H   0  0  0  0  0  0
  -20.9948  -28.3197   24.1463 H   0  0  0  0  0  0
  -20.5632  -26.2244   23.3630 H   0  0  0  0  0  0
  -21.6599  -26.7383   22.1232 H   0  0  0  0  0  0
  -19.6833  -25.6308   21.1235 H   0  0  0  0  0  0
  -19.6630  -27.3238   20.6811 H   0  0  0  0  0  0
  -17.4155  -26.6702   21.4076 H   0  0  0  0  0  0
  -18.0262  -26.0056   22.9060 H   0  0  0  0  0  0
  -19.7917  -30.7301   24.2226 H   0  0  0  0  0  0
  -17.4988  -31.6269   24.5163 H   0  0  0  0  0  0
  -15.5331  -30.2971   23.7664 H   0  0  0  0  0  0
  -15.8669  -28.0818   22.7071 H   0  0  0  0  0  0
  -24.5857  -30.7090   25.7773 H   0  0  0  0  0  0
  -24.8879  -32.2902   26.4860 H   0  0  0  0  0  0
  -25.8001  -30.8918   27.0219 H   0  0  0  0  0  0
  -26.2856  -29.6801   24.1130 H   0  0  0  0  0  0
  -27.3959  -29.7251   25.4636 H   0  0  0  0  0  0
  -27.8735  -30.4329   23.9375 H   0  0  0  0  0  0
  -27.2610  -33.3648   26.2017 H   0  0  0  0  0  0
  -28.3799  -32.6889   25.0260 H   0  0  0  0  0  0
  -28.0693  -31.8481   26.5381 H   0  0  0  0  0  0
  -28.2601  -38.0061   24.7524 H   0  0  0  0  0  0
  -28.1033  -36.2589   24.6297 H   0  0  0  0  0  0
  -27.2288  -37.1435   25.8888 H   0  0  0  0  0  0
  -20.9360  -29.8671   21.6896 H   0  0  0  0  0  0
  -26.0152  -38.2850   24.1464 H   0  0  0  0  0  0
  -30.4532  -25.2214   21.2925 H   0  0  0  0  0  0
  -31.0392  -14.7960   23.1354 H   0  0  0  0  0  0
  -31.9505  -16.1287   22.4815 H   0  0  0  0  0  0
  -30.5858  -17.7454   23.5778 H   0  0  0  0  0  0
  -30.6176  -16.4542   24.7417 H   0  0  0  0  0  0
  -27.4136  -16.1917   22.1933 H   0  0  0  0  0  0
  -27.7057  -17.8826   22.3635 H   0  0  0  0  0  0
  -28.6376  -16.5384   20.2915 H   0  0  0  0  0  0
  -26.4657  -21.2160   20.1074 H   0  0  0  0  0  0
  -27.1222  -21.4361   18.4738 H   0  0  0  0  0  0
  -25.8896  -22.5297   19.0967 H   0  0  0  0  0  0
  -30.6770  -20.8493   20.5685 H   0  0  0  0  0  0
  -29.7296  -20.7028   19.1308 H   0  0  0  0  0  0
  -30.2666  -18.1644   19.7506 H   0  0  0  0  0  0
  -30.7594  -18.4516   21.3825 H   0  0  0  0  0  0
  -28.4088  -17.2873   24.3554 H   0  0  0  0  0  0
  -28.5096  -15.7237   23.9765 H   0  0  0  0  0  0
  -28.1691  -19.3955   20.2943 H   0  0  0  0  0  0
  -28.8007  -19.7875   21.7442 H   0  0  0  0  0  0
  1 25  1  0  0  0
  1 30  2  0  0  0
  1 84  1  0  0  0
  2  3  1  0  0  0
  2 25  1  0  0  0
  2 87  1  0  0  0
  2 88  1  0  0  0
  3  4  1  0  0  0
  3 89  1  0  0  0
  3 90  1  0  0  0
  4  5  1  0  0  0
  4 91  1  0  0  0
  4 92  1  0  0  0
  5  6  1  0  0  0
  5 26  1  0  0  0
  5 93  1  0  0  0
  6 25  1  0  0  0
  6 94  1  0  0  0
  6 95  1  0  0  0
  7  8  2  0  0  0
  7 26  1  0  0  0
  7 29  1  0  0  0
  8  9  1  0  0  0
  8 22  1  0  0  0
  9 10  1  0  0  0
  9 27  2  0  0  0
 10 11  2  0  0  0
 10 15  1  0  0  0
 11 12  1  0  0  0
 11 96  1  0  0  0
 12 13  2  0  0  0
 12 97  1  0  0  0
 13 14  1  0  0  0
 13 31  1  0  0  0
 14 15  2  0  0  0
 14 98  1  0  0  0
 15 99  1  0  0  0
 16 17  2  0  0  0
 16 21  1  0  0  0
 16 31  1  0  0  0
 17 18  1  0  0  0
 17100  1  0  0  0
 18 19  2  0  0  0
 18101  1  0  0  0
 19 20  1  0  0  0
 19 24  1  0  0  0
 20 21  2  0  0  0
 20102  1  0  0  0
 21 23  1  0  0  0
 22 28  1  0  0  0
 22 32  2  0  0  0
 26 27  1  0  0  0
 28103  1  0  0  0
 28104  1  0  0  0
 29105  1  0  0  0
 29106  1  0  0  0
 33 34  1  0  0  0
 33 66  1  0  0  0
 33 70  2  0  0  0
 34 36  1  0  0  0
 34 59  1  0  0  0
 34107  1  0  0  0
 35 44  2  0  0  0
 35 45  1  0  0  0
 35 68  1  0  0  0
 36 56  1  0  0  0
 36108  1  0  0  0
 37 39  1  0  0  0
 37 47  1  0  0  0
 37 66  1  0  0  0
 37109  1  0  0  0
 38 43  2  0  0  0
 38 46  1  0  0  0
 38 47  1  0  0  0
 39 64  1  0  0  0
 39 67  2  0  0  0
 40 52  1  0  0  0
 40 53  2  0  0  0
 40 58  1  0  0  0
 41110  1  0  0  0
 41111  1  0  0  0
 41112  1  0  0  0
 41 48  1  0  0  0
 42 43  1  0  0  0
 42 66  1  0  0  0
 42113  1  0  0  0
 42114  1  0  0  0
 43 44  1  0  0  0
 44115  1  0  0  0
 45 46  2  0  0  0
 45116  1  0  0  0
 46117  1  0  0  0
 47118  1  0  0  0
 47119  1  0  0  0
 48 56  1  0  0  0
 48 65  1  0  0  0
 48120  1  0  0  0
 49 50  1  0  0  0
 49 53  1  0  0  0
 49 64  1  0  0  0
 49121  1  0  0  0
 50 51  1  0  0  0
 50122  1  0  0  0
 50123  1  0  0  0
 51 52  1  0  0  0
 51124  1  0  0  0
 51125  1  0  0  0
 52126  1  0  0  0
 52127  1  0  0  0
 53 54  1  0  0  0
 54 55  2  0  0  0
 54128  1  0  0  0
 55 57  1  0  0  0
 55129  1  0  0  0
 56 69  2  0  0  0
 57 58  2  0  0  0
 57130  1  0  0  0
 58131  1  0  0  0
 59 60  1  0  0  0
 59 61  1  0  0  0
 59 62  1  0  0  0
 60132  1  0  0  0
 60133  1  0  0  0
 60134  1  0  0  0
 61135  1  0  0  0
 61136  1  0  0  0
 61137  1  0  0  0
 62138  1  0  0  0
 62139  1  0  0  0
 62140  1  0  0  0
 63 65  1  0  0  0
 63141  1  0  0  0
 63142  1  0  0  0
 63143  1  0  0  0
 64144  1  0  0  0
 65145  1  0  0  0
 68 74  1  0  0  0
 71 74  2  0  0  0
 71 82  1  0  0  0
 71146  1  0  0  0
 72 73  1  0  0  0
 72 79  1  0  0  0
 72 83  2  0  0  0
 73 80  1  0  0  0
 73 82  2  0  0  0
 74 83  1  0  0  0
 75 76  1  0  0  0
 75 84  1  0  0  0
 75147  1  0  0  0
 75148  1  0  0  0
 76 85  1  0  0  0
 76149  1  0  0  0
 76150  1  0  0  0
 77 78  1  0  0  0
 77 85  1  0  0  0
 77151  1  0  0  0
 77152  1  0  0  0
 78 81  1  0  0  0
 78 84  1  0  0  0
 78153  1  0  0  0
 79154  1  0  0  0
 79155  1  0  0  0
 79156  1  0  0  0
 80 86  1  0  0  0
 80157  1  0  0  0
 80158  1  0  0  0
 81 86  1  0  0  0
 81159  1  0  0  0
 81160  1  0  0  0
 85161  1  0  0  0
 85162  1  0  0  0
 86163  1  0  0  0
 86164  1  0  0  0
M  CHG  2  85   1  86   1
M  ISO  4   1 100  68 101  74 101  84 100
M  END
> <chiral flag>
0

> <version>
0

> <s_m_source_file>
/data/baiqing/PycharmProjects/Reinvent-master-3.2/result/LINK_invent/BTK/process_docking_weight1_custom_sum_contain_oxygen_bond_distance_aromatic_linkinvent_7_9_3/rearranged_h_0192.sdf

> <i_m_source_file_index>
15

> <r_mmod_Potential_Energy-OPLS-2005>
54.7948303222656

> <r_mmod_Stretch_Energy-OPLS-2005>
114.484260559082

> <r_mmod_Bend_Energy-OPLS-2005>
189.517120361328

> <r_mmod_Torsional_Energy-OPLS-2005>
434.951843261719

> <r_mmod_Improper_Torsional_Energy-OPLS-2005>
7.33488798141479

> <r_mmod_Van_der_Waal_Energy-OPLS-2005>
142.78092956543

> <r_mmod_Electrostatic_Energy-OPLS-2005>
181.340850830078

> <r_mmod_Solvation_Energy-OPLS-2005>
-1069.02307128906

> <b_mmod_Minimization_Converged-OPLS-2005>
0

> <r_mmod_RMS_Derivative-OPLS-2005>
4.37346267700195

$$$$
15
                    3D
 Structure written by MMmdl.
162171  0  0  1  0            999 V2000
  -30.6412  -14.6881   20.5539 C   0  0  0  0  0  0
  -30.4952  -12.4492   19.4479 C   0  0  0  0  0  0
  -29.5368  -12.4350   18.2327 C   0  0  0  0  0  0
  -28.0385  -12.4440   18.6199 C   0  0  0  0  0  0
  -27.6869  -13.2519   19.8889 C   0  0  2  0  0  0
  -28.7437  -13.0580   20.9872 C   0  0  0  0  0  0
  -25.2721  -13.8365   20.5642 C   0  0  0  0  0  0
  -24.2010  -13.0568   20.9231 C   0  0  0  0  0  0
  -24.6613  -11.7049   20.8852 C   0  0  0  0  0  0
  -23.9225  -10.4450   21.0343 C   0  0  0  0  0  0
  -24.3711   -9.4323   21.9139 C   0  0  0  0  0  0
  -23.6394   -8.2338   22.0686 C   0  0  0  0  0  0
  -22.4378   -8.0395   21.3500 C   0  0  0  0  0  0
  -21.9918   -9.0451   20.4646 C   0  0  0  0  0  0
  -22.7291  -10.2335   20.3130 C   0  0  0  0  0  0
  -21.6969   -6.0852   22.5201 C   0  0  0  0  0  0
  -21.4080   -6.5714   23.8118 C   0  0  0  0  0  0
  -21.3648   -5.6878   24.9094 C   0  0  0  0  0  0
  -21.6026   -4.3116   24.7145 C   0  0  0  0  0  0
  -21.8873   -3.8238   23.4264 C   0  0  0  0  0  0
  -21.9217   -4.7032   22.3329 C   0  0  0  0  0  0
  -22.8006  -13.5236   21.1845 C   0  0  0  0  0  0
  -22.1694   -4.2187   21.0908 F   0  0  0  0  0  0
  -21.5555   -3.4616   25.7666 F   0  0  0  0  0  0
  -30.0261  -13.4697   20.4142 N   0  0  0  0  0  0
  -26.3268  -12.9633   20.3551 N   0  0  0  0  0  0
  -25.9614  -11.6710   20.5932 N   0  0  0  0  0  0
  -22.0636  -12.8313   22.0391 N   0  0  0  0  0  0
  -25.4248  -15.2120   20.3845 N   0  0  0  0  0  0
  -31.8004  -14.8316   20.1572 O   0  0  0  0  0  0
  -21.6813   -6.8937   21.4137 O   0  0  0  0  0  0
  -22.3688  -14.5491   20.6614 O   0  0  0  0  0  0
  -24.6122  -31.8717   23.2114 C   0  0  0  0  0  0
  -25.9031  -32.4839   23.8383 C   0  0  1  0  0  0
  -27.2376  -27.4218   20.1336 C   0  0  0  0  0  0
  -25.5899  -33.8625   24.2351 N   0  0  0  0  0  0
  -23.4043  -30.4952   21.5514 C   0  0  2  0  0  0
  -24.8601  -28.9666   20.1105 C   0  0  0  0  0  0
  -22.7403  -29.4689   22.4989 C   0  0  0  0  0  0
  -18.0265  -28.1382   22.8491 C   0  0  0  0  0  0
  -24.1501  -36.7294   23.2639 C   0  0  0  0  0  0
  -25.9342  -30.8433   21.3618 C   0  0  0  0  0  0
  -26.0199  -29.4775   20.7033 C   0  0  0  0  0  0
  -27.2194  -28.7181   20.7007 C   0  0  0  0  0  0
  -26.0694  -26.9416   19.5039 C   0  0  0  0  0  0
  -24.8830  -27.6970   19.5038 C   0  0  0  0  0  0
  -23.6163  -29.8289   20.1654 C   0  0  0  0  0  0
  -25.4123  -36.3119   24.0346 C   0  0  1  0  0  0
  -20.5859  -28.3673   23.1318 C   0  0  2  0  0  0
  -20.6770  -26.9414   22.5418 C   0  0  0  0  0  0
  -19.5749  -26.6394   21.5220 C   0  0  0  0  0  0
  -18.1926  -26.7928   22.1625 C   0  0  0  0  0  0
  -19.1513  -28.8846   23.2903 C   0  0  0  0  0  0
  -18.9443  -30.1457   23.8911 C   0  0  0  0  0  0
  -17.6446  -30.6587   24.0574 C   0  0  0  0  0  0
  -25.9041  -34.9476   23.5145 C   0  0  0  0  0  0
  -16.5338  -29.9092   23.6324 C   0  0  0  0  0  0
  -16.7259  -28.6509   23.0342 C   0  0  0  0  0  0
  -26.4471  -31.6590   25.0684 C   0  0  0  0  0  0
  -25.3704  -31.3668   26.1394 C   0  0  0  0  0  0
  -27.0325  -30.3028   24.6092 C   0  0  0  0  0  0
  -27.6087  -32.4284   25.7414 C   0  0  0  0  0  0
  -27.5599  -37.1800   24.8468 C   0  0  0  0  0  0
  -21.4132  -29.3030   22.3702 N   0  0  0  0  0  0
  -26.4324  -37.3800   23.9395 N   0  0  0  0  0  0
  -24.6685  -31.0821   22.1002 N   0  0  0  0  0  0
  -23.4184  -28.8212   23.3007 O   0  0  0  0  0  0
  -28.3370  -26.5866   20.2078 O   0  0  0  0  0  0
  -26.5612  -34.8936   22.4710 O   0  0  0  0  0  0
  -23.5310  -32.1459   23.7525 O   0  0  0  0  0  0
  -29.4928  -17.8739   23.5325 C   0  0  0  0  0  0
  -30.5173  -16.9108   22.9154 C   0  0  0  0  0  0
  -27.2291  -21.1749   21.0358 C   0  0  0  0  0  0
  -27.2807  -19.6455   21.2012 C   0  0  0  0  0  0
  -29.3843  -20.4697   21.7860 C   0  0  0  0  0  0
  -28.7462  -17.8988   22.1812 C   0  0  2  0  0  0
  -29.3908  -16.4103   22.0084 C   0  0  2  0  0  0
  -28.3333  -21.6325   21.9725 C   0  0  1  0  0  0
  -28.4664  -24.0701   20.8216 C   0  0  0  0  0  0
  -28.2496  -25.5746   21.2589 C   0  0  0  0  0  0
  -28.6889  -19.2015   21.3446 N   0  0  0  0  0  0
  -29.8480  -15.8066   20.7156 N   0  0  0  0  0  0
  -28.7283  -23.1087   21.9643 N   0  3  0  0  0  0
  -31.4930  -12.6502   19.0645 H   0  0  0  0  0  0
  -30.5995  -11.4878   19.9491 H   0  0  0  0  0  0
  -29.7388  -11.5434   17.6352 H   0  0  0  0  0  0
  -29.7893  -13.2801   17.5852 H   0  0  0  0  0  0
  -27.7280  -11.4094   18.7663 H   0  0  0  0  0  0
  -27.4444  -12.8342   17.7934 H   0  0  0  0  0  0
  -27.7512  -14.3001   19.6157 H   0  0  0  0  0  0
  -28.8038  -12.0071   21.2763 H   0  0  0  0  0  0
  -28.5058  -13.6345   21.8804 H   0  0  0  0  0  0
  -25.2741   -9.5971   22.4798 H   0  0  0  0  0  0
  -24.0158   -7.4733   22.7413 H   0  0  0  0  0  0
  -21.0790   -8.9098   19.9018 H   0  0  0  0  0  0
  -22.3546  -11.0070   19.6488 H   0  0  0  0  0  0
  -21.2181   -7.6234   23.9613 H   0  0  0  0  0  0
  -21.1354   -6.0616   25.8948 H   0  0  0  0  0  0
  -22.0655   -2.7690   23.2815 H   0  0  0  0  0  0
  -22.4235  -11.9951   22.4807 H   0  0  0  0  0  0
  -21.1258  -13.1348   22.2423 H   0  0  0  0  0  0
  -24.6863  -15.9024   20.5033 H   0  0  0  0  0  0
  -26.3093  -15.6271   20.1049 H   0  0  0  0  0  0
  -26.7116  -32.5587   23.1159 H   0  0  0  0  0  0
  -25.0000  -33.9800   25.0462 H   0  0  0  0  0  0
  -22.6875  -31.3097   21.4139 H   0  0  0  0  0  0
  -23.3789  -35.9606   23.3326 H   0  0  0  0  0  0
  -24.3593  -36.8872   22.2049 H   0  0  0  0  0  0
  -23.7235  -37.6495   23.6629 H   0  0  0  0  0  0
  -26.0495  -31.6307   20.6129 H   0  0  0  0  0  0
  -26.8119  -30.8891   21.9944 H   0  0  0  0  0  0
  -28.1091  -29.1263   21.1600 H   0  0  0  0  0  0
  -26.0782  -25.9713   19.0323 H   0  0  0  0  0  0
  -23.9904  -27.2956   19.0481 H   0  0  0  0  0  0
  -23.7205  -30.6075   19.4092 H   0  0  0  0  0  0
  -22.7393  -29.2511   19.8695 H   0  0  0  0  0  0
  -25.1314  -36.1997   25.0848 H   0  0  0  0  0  0
  -20.9964  -28.3253   24.1439 H   0  0  0  0  0  0
  -20.5693  -26.2282   23.3603 H   0  0  0  0  0  0
  -21.6636  -26.7468   22.1201 H   0  0  0  0  0  0
  -19.6913  -25.6314   21.1233 H   0  0  0  0  0  0
  -19.6690  -27.3216   20.6763 H   0  0  0  0  0  0
  -17.4198  -26.6680   21.4025 H   0  0  0  0  0  0
  -18.0321  -26.0071   22.9019 H   0  0  0  0  0  0
  -19.7919  -30.7274   24.2281 H   0  0  0  0  0  0
  -17.4998  -31.6266   24.5172 H   0  0  0  0  0  0
  -15.5338  -30.2994   23.7653 H   0  0  0  0  0  0
  -15.8661  -28.0847   22.7035 H   0  0  0  0  0  0
  -24.5910  -30.7029   25.7643 H   0  0  0  0  0  0
  -24.8849  -32.2803   26.4819 H   0  0  0  0  0  0
  -25.7984  -30.8784   27.0153 H   0  0  0  0  0  0
  -26.2888  -29.6738   24.1196 H   0  0  0  0  0  0
  -27.4130  -29.7318   25.4570 H   0  0  0  0  0  0
  -27.8694  -30.4332   23.9238 H   0  0  0  0  0  0
  -27.2774  -33.3592   26.2022 H   0  0  0  0  0  0
  -28.3841  -32.6826   25.0173 H   0  0  0  0  0  0
  -28.0821  -31.8371   26.5262 H   0  0  0  0  0  0
  -28.2638  -38.0089   24.7542 H   0  0  0  0  0  0
  -28.1093  -36.2617   24.6292 H   0  0  0  0  0  0
  -27.2297  -37.1433   25.8872 H   0  0  0  0  0  0
  -20.9294  -29.8722   21.6904 H   0  0  0  0  0  0
  -26.0226  -38.2892   24.1385 H   0  0  0  0  0  0
  -29.9414  -18.7943   23.8983 H   0  0  0  0  0  0
  -28.8717  -17.4230   24.3154 H   0  0  0  0  0  0
  -30.9153  -16.2020   23.6378 H   0  0  0  0  0  0
  -31.3223  -17.3953   22.3532 H   0  0  0  0  0  0
  -26.2680  -21.6039   21.3319 H   0  0  0  0  0  0
  -27.4256  -21.4516   19.9957 H   0  0  0  0  0  0
  -26.7919  -19.1388   20.3759 H   0  0  0  0  0  0
  -26.6959  -19.4318   22.1009 H   0  0  0  0  0  0
  -29.9893  -20.3652   22.6822 H   0  0  0  0  0  0
  -30.0838  -20.7600   21.0002 H   0  0  0  0  0  0
  -27.6934  -17.6586   22.3538 H   0  0  0  0  0  0
  -28.7824  -15.6823   22.5531 H   0  0  0  0  0  0
  -27.9609  -21.4922   22.9930 H   0  0  0  0  0  0
  -29.3260  -24.0340   20.1510 H   0  0  0  0  0  0
  -27.5937  -23.7681   20.2439 H   0  0  0  0  0  0
  -28.9924  -25.8546   22.0106 H   0  0  0  0  0  0
  -27.2839  -25.6481   21.7753 H   0  0  0  0  0  0
  -30.0673  -16.5231   20.0309 H   0  0  0  0  0  0
  -28.1676  -23.4805   22.7193 H   0  0  0  0  0  0
  -29.6749  -23.2119   22.2923 H   0  0  0  0  0  0
  1 25  1  0  0  0
  1 30  2  0  0  0
  1 82  1  0  0  0
  2  3  1  0  0  0
  2 25  1  0  0  0
  2 84  1  0  0  0
  2 85  1  0  0  0
  3  4  1  0  0  0
  3 86  1  0  0  0
  3 87  1  0  0  0
  4  5  1  0  0  0
  4 88  1  0  0  0
  4 89  1  0  0  0
  5  6  1  0  0  0
  5 26  1  0  0  0
  5 90  1  0  0  0
  6 25  1  0  0  0
  6 91  1  0  0  0
  6 92  1  0  0  0
  7  8  2  0  0  0
  7 26  1  0  0  0
  7 29  1  0  0  0
  8  9  1  0  0  0
  8 22  1  0  0  0
  9 10  1  0  0  0
  9 27  2  0  0  0
 10 11  2  0  0  0
 10 15  1  0  0  0
 11 12  1  0  0  0
 11 93  1  0  0  0
 12 13  2  0  0  0
 12 94  1  0  0  0
 13 14  1  0  0  0
 13 31  1  0  0  0
 14 15  2  0  0  0
 14 95  1  0  0  0
 15 96  1  0  0  0
 16 17  2  0  0  0
 16 21  1  0  0  0
 16 31  1  0  0  0
 17 18  1  0  0  0
 17 97  1  0  0  0
 18 19  2  0  0  0
 18 98  1  0  0  0
 19 20  1  0  0  0
 19 24  1  0  0  0
 20 21  2  0  0  0
 20 99  1  0  0  0
 21 23  1  0  0  0
 22 28  1  0  0  0
 22 32  2  0  0  0
 26 27  1  0  0  0
 28100  1  0  0  0
 28101  1  0  0  0
 29102  1  0  0  0
 29103  1  0  0  0
 33 34  1  0  0  0
 33 66  1  0  0  0
 33 70  2  0  0  0
 34 36  1  0  0  0
 34 59  1  0  0  0
 34104  1  0  0  0
 35 44  2  0  0  0
 35 45  1  0  0  0
 35 68  1  0  0  0
 36 56  1  0  0  0
 36105  1  0  0  0
 37 39  1  0  0  0
 37 47  1  0  0  0
 37 66  1  0  0  0
 37106  1  0  0  0
 38 43  2  0  0  0
 38 46  1  0  0  0
 38 47  1  0  0  0
 39 64  1  0  0  0
 39 67  2  0  0  0
 40 52  1  0  0  0
 40 53  2  0  0  0
 40 58  1  0  0  0
 41107  1  0  0  0
 41108  1  0  0  0
 41109  1  0  0  0
 41 48  1  0  0  0
 42 43  1  0  0  0
 42 66  1  0  0  0
 42110  1  0  0  0
 42111  1  0  0  0
 43 44  1  0  0  0
 44112  1  0  0  0
 45 46  2  0  0  0
 45113  1  0  0  0
 46114  1  0  0  0
 47115  1  0  0  0
 47116  1  0  0  0
 48 56  1  0  0  0
 48 65  1  0  0  0
 48117  1  0  0  0
 49 50  1  0  0  0
 49 53  1  0  0  0
 49 64  1  0  0  0
 49118  1  0  0  0
 50 51  1  0  0  0
 50119  1  0  0  0
 50120  1  0  0  0
 51 52  1  0  0  0
 51121  1  0  0  0
 51122  1  0  0  0
 52123  1  0  0  0
 52124  1  0  0  0
 53 54  1  0  0  0
 54 55  2  0  0  0
 54125  1  0  0  0
 55 57  1  0  0  0
 55126  1  0  0  0
 56 69  2  0  0  0
 57 58  2  0  0  0
 57127  1  0  0  0
 58128  1  0  0  0
 59 60  1  0  0  0
 59 61  1  0  0  0
 59 62  1  0  0  0
 60129  1  0  0  0
 60130  1  0  0  0
 60131  1  0  0  0
 61132  1  0  0  0
 61133  1  0  0  0
 61134  1  0  0  0
 62135  1  0  0  0
 62136  1  0  0  0
 62137  1  0  0  0
 63 65  1  0  0  0
 63138  1  0  0  0
 63139  1  0  0  0
 63140  1  0  0  0
 64141  1  0  0  0
 65142  1  0  0  0
 68 80  1  0  0  0
 71 72  1  0  0  0
 71 76  1  0  0  0
 71143  1  0  0  0
 71144  1  0  0  0
 72 77  1  0  0  0
 72145  1  0  0  0
 72146  1  0  0  0
 73 74  1  0  0  0
 73 78  1  0  0  0
 73147  1  0  0  0
 73148  1  0  0  0
 74149  1  0  0  0
 74150  1  0  0  0
 74 81  1  0  0  0
 75 78  1  0  0  0
 75 81  1  0  0  0
 75151  1  0  0  0
 75152  1  0  0  0
 76 77  1  0  0  0
 76 81  1  0  0  0
 76153  1  0  0  0
 77 82  1  0  0  0
 77154  1  0  0  0
 78 83  1  0  0  0
 78155  1  0  0  0
 79 80  1  0  0  0
 79 83  1  0  0  0
 79156  1  0  0  0
 79157  1  0  0  0
 80158  1  0  0  0
 80159  1  0  0  0
 82160  1  0  0  0
 83161  1  0  0  0
 83162  1  0  0  0
M  CHG  1  83   1
M  ISO  4   1 100  68 101  80 101  82 100
M  END
> <chiral flag>
0

> <version>
0

> <s_m_source_file>
/data/baiqing/PycharmProjects/Reinvent-master-3.2/result/LINK_invent/BTK/process_docking_weight1_custom_sum_contain_oxygen_bond_distance_aromatic_linkinvent_7_9_3/rearranged_h_0192.sdf

> <i_m_source_file_index>
16

> <r_mmod_Potential_Energy-OPLS-2005>
210.203720092773

> <r_mmod_Stretch_Energy-OPLS-2005>
91.632080078125

> <r_mmod_Bend_Energy-OPLS-2005>
258.711120605469

> <r_mmod_Torsional_Energy-OPLS-2005>
438.575164794922

> <r_mmod_Improper_Torsional_Energy-OPLS-2005>
15.9365005493164

> <r_mmod_Van_der_Waal_Energy-OPLS-2005>
126.723785400391

> <r_mmod_Electrostatic_Energy-OPLS-2005>
-302.559906005859

> <r_mmod_Solvation_Energy-OPLS-2005>
-465.847808837891

> <b_mmod_Minimization_Converged-OPLS-2005>
0

> <r_mmod_RMS_Derivative-OPLS-2005>
14.2961683273315

$$$$
16
                    3D
 Structure written by MMmdl.
153161  0  0  1  0            999 V2000
  -30.4316  -15.2899   20.3240 C   0  0  0  0  0  0
  -30.4365  -12.8218   19.5111 C   0  0  0  0  0  0
  -29.5255  -12.5535   18.2860 C   0  0  0  0  0  0
  -28.0812  -12.2621   18.7297 C   0  0  0  0  0  0
  -27.6000  -13.2462   19.8224 C   0  0  2  0  0  0
  -28.6418  -13.4747   20.9392 C   0  0  0  0  0  0
  -25.2393  -13.8143   20.5823 C   0  0  0  0  0  0
  -24.1708  -13.0375   20.9286 C   0  0  0  0  0  0
  -24.6336  -11.6859   20.8799 C   0  0  0  0  0  0
  -23.9041  -10.4239   21.0415 C   0  0  0  0  0  0
  -24.3600   -9.4165   21.9189 C   0  0  0  0  0  0
  -23.6274   -8.2202   22.0758 C   0  0  0  0  0  0
  -22.4262   -8.0247   21.3536 C   0  0  0  0  0  0
  -21.9893   -9.0219   20.4635 C   0  0  0  0  0  0
  -22.7216  -10.2096   20.3049 C   0  0  0  0  0  0
  -21.6834   -6.0715   22.5275 C   0  0  0  0  0  0
  -21.4000   -6.5629   23.8206 C   0  0  0  0  0  0
  -21.3658   -5.6789   24.9173 C   0  0  0  0  0  0
  -21.6052   -4.3053   24.7226 C   0  0  0  0  0  0
  -21.8818   -3.8133   23.4348 C   0  0  0  0  0  0
  -21.9189   -4.6947   22.3403 C   0  0  0  0  0  0
  -22.7742  -13.5167   21.1927 C   0  0  0  0  0  0
  -22.1652   -4.2134   21.0980 F   0  0  0  0  0  0
  -21.5644   -3.4536   25.7738 F   0  0  0  0  0  0
  -29.8655  -13.9795   20.2892 N   0  0  0  0  0  0
  -26.2775  -12.9343   20.3324 N   0  0  0  0  0  0
  -25.9263  -11.6486   20.5793 N   0  0  0  0  0  0
  -22.0402  -12.8158   22.0499 N   0  0  0  0  0  0
  -25.4108  -15.1870   20.4289 N   0  0  0  0  0  0
  -31.6715  -15.2680   20.2539 O   0  0  0  0  0  0
  -21.6620   -6.8849   21.4231 O   0  0  0  0  0  0
  -22.3439  -14.5477   20.6765 O   0  0  0  0  0  0
  -24.6599  -31.8238   23.1684 C   0  0  0  0  0  0
  -25.9280  -32.4589   23.8150 C   0  0  1  0  0  0
  -27.2252  -26.9423   20.1839 C   0  0  0  0  0  0
  -25.5964  -33.8411   24.2079 N   0  0  0  0  0  0
  -23.4746  -30.4331   21.5173 C   0  0  2  0  0  0
  -24.9270  -28.8186   20.1073 C   0  0  0  0  0  0
  -22.7645  -29.4441   22.4778 C   0  0  0  0  0  0
  -18.0323  -28.1414   22.8468 C   0  0  0  0  0  0
  -24.1491  -36.7211   23.2647 C   0  0  0  0  0  0
  -26.0392  -30.6349   21.3923 C   0  0  0  0  0  0
  -26.1062  -29.2238   20.7433 C   0  0  0  0  0  0
  -27.2432  -28.3039   20.7610 C   0  0  0  0  0  0
  -26.0201  -26.6838   19.4910 C   0  0  0  0  0  0
  -24.9093  -27.5702   19.4611 C   0  0  0  0  0  0
  -23.7118  -29.7446   20.1432 C   0  0  0  0  0  0
  -25.4130  -36.2971   24.0305 C   0  0  1  0  0  0
  -20.5931  -28.3762   23.1192 C   0  0  2  0  0  0
  -20.6791  -26.9449   22.5403 C   0  0  0  0  0  0
  -19.5772  -26.6387   21.5210 C   0  0  0  0  0  0
  -18.1952  -26.7955   22.1609 C   0  0  0  0  0  0
  -19.1576  -28.8911   23.2822 C   0  0  0  0  0  0
  -18.9494  -30.1501   23.8864 C   0  0  0  0  0  0
  -17.6494  -30.6610   24.0561 C   0  0  0  0  0  0
  -25.9094  -34.9349   23.5016 C   0  0  0  0  0  0
  -16.5382  -29.9099   23.6337 C   0  0  0  0  0  0
  -16.7299  -28.6519   23.0364 C   0  0  0  0  0  0
  -26.4562  -31.6516   25.0656 C   0  0  0  0  0  0
  -25.3699  -31.3730   26.1313 C   0  0  0  0  0  0
  -27.0454  -30.2894   24.6340 C   0  0  0  0  0  0
  -27.6072  -32.4319   25.7449 C   0  0  0  0  0  0
  -27.5568  -37.1761   24.8475 C   0  0  0  0  0  0
  -21.4310  -29.3054   22.3538 N   0  0  0  0  0  0
  -26.4276  -37.3706   23.9417 N   0  0  0  0  0  0
  -24.7467  -30.9910   22.0803 N   0  0  0  0  0  0
  -23.4197  -28.8015   23.3020 O   0  0  0  0  0  0
  -28.2496  -25.8719   20.3292 O   0  0  0  0  0  0
  -26.5713  -34.8885   22.4613 O   0  0  0  0  0  0
  -23.5673  -32.1192   23.6788 O   0  0  0  0  0  0
  -29.1494  -17.5788   18.0085 C   0  0  0  0  0  0
  -30.2858  -18.3577   18.6473 C   0  0  0  0  0  0
  -28.7412  -16.5086   19.0364 C   0  0  0  0  0  0
  -29.9739  -18.2226   20.1291 C   0  0  1  0  0  0
  -28.9640  -19.6689   20.5153 C   0  0  0  0  0  0
  -28.4428  -22.6694   20.6082 C   0  0  0  0  0  0
  -28.3386  -24.2966   19.8452 C   0  0  0  0  0  0
  -29.6615  -16.5738   20.1886 N   0  0  0  0  0  0
  -29.1988  -21.2682   20.0963 N   0  3  0  0  0  0
  -31.4505  -13.0367   19.1692 H   0  0  0  0  0  0
  -30.5171  -11.9324   20.1379 H   0  0  0  0  0  0
  -29.9104  -11.7160   17.7028 H   0  0  0  0  0  0
  -29.5367  -13.4200   17.6228 H   0  0  0  0  0  0
  -28.0594  -11.2452   19.1247 H   0  0  0  0  0  0
  -27.4050  -12.2724   17.8747 H   0  0  0  0  0  0
  -27.4631  -14.1806   19.2938 H   0  0  0  0  0  0
  -28.8265  -12.5608   21.5062 H   0  0  0  0  0  0
  -28.2750  -14.2176   21.6502 H   0  0  0  0  0  0
  -25.2729   -9.5661   22.4785 H   0  0  0  0  0  0
  -23.9969   -7.4603   22.7495 H   0  0  0  0  0  0
  -21.0816   -8.8732   19.8950 H   0  0  0  0  0  0
  -22.3654  -10.9647   19.6178 H   0  0  0  0  0  0
  -21.1972   -7.6133   23.9699 H   0  0  0  0  0  0
  -21.1492   -6.0521   25.9079 H   0  0  0  0  0  0
  -22.0599   -2.7594   23.2847 H   0  0  0  0  0  0
  -22.4001  -11.9789   22.4854 H   0  0  0  0  0  0
  -21.1047  -13.1205   22.2776 H   0  0  0  0  0  0
  -24.6517  -15.8467   20.5589 H   0  0  0  0  0  0
  -26.2783  -15.6278   20.1558 H   0  0  0  0  0  0
  -26.7337  -32.5133   23.0853 H   0  0  0  0  0  0
  -25.0074  -33.9512   25.0209 H   0  0  0  0  0  0
  -22.7878  -31.2636   21.3443 H   0  0  0  0  0  0
  -23.3763  -35.9529   23.3286 H   0  0  0  0  0  0
  -24.3571  -36.8878   22.2066 H   0  0  0  0  0  0
  -23.7232  -37.6388   23.6718 H   0  0  0  0  0  0
  -26.2092  -31.3699   20.6047 H   0  0  0  0  0  0
  -26.9060  -30.6987   22.0394 H   0  0  0  0  0  0
  -28.1328  -28.6111   21.2925 H   0  0  0  0  0  0
  -25.8963  -25.7268   19.0057 H   0  0  0  0  0  0
  -24.0119  -27.2561   18.9446 H   0  0  0  0  0  0
  -23.8608  -30.5119   19.3819 H   0  0  0  0  0  0
  -22.8229  -29.1947   19.8285 H   0  0  0  0  0  0
  -25.1320  -36.1768   25.0794 H   0  0  0  0  0  0
  -21.0030  -28.3363   24.1308 H   0  0  0  0  0  0
  -20.5676  -26.2386   23.3639 H   0  0  0  0  0  0
  -21.6653  -26.7424   22.1212 H   0  0  0  0  0  0
  -19.6943  -25.6288   21.1278 H   0  0  0  0  0  0
  -19.6717  -27.3164   20.6716 H   0  0  0  0  0  0
  -17.4224  -26.6707   21.4018 H   0  0  0  0  0  0
  -18.0345  -26.0107   22.9014 H   0  0  0  0  0  0
  -19.7975  -30.7318   24.2219 H   0  0  0  0  0  0
  -17.5049  -31.6284   24.5171 H   0  0  0  0  0  0
  -15.5385  -30.3001   23.7694 H   0  0  0  0  0  0
  -15.8690  -28.0822   22.7112 H   0  0  0  0  0  0
  -24.5939  -30.7025   25.7612 H   0  0  0  0  0  0
  -24.8819  -32.2907   26.4599 H   0  0  0  0  0  0
  -25.7936  -30.8990   27.0174 H   0  0  0  0  0  0
  -26.3093  -29.6592   24.1345 H   0  0  0  0  0  0
  -27.4027  -29.7225   25.4949 H   0  0  0  0  0  0
  -27.9019  -30.4119   23.9706 H   0  0  0  0  0  0
  -27.2671  -33.3697   26.1850 H   0  0  0  0  0  0
  -28.3958  -32.6751   25.0315 H   0  0  0  0  0  0
  -28.0652  -31.8545   26.5490 H   0  0  0  0  0  0
  -28.2560  -38.0081   24.7503 H   0  0  0  0  0  0
  -28.1077  -36.2597   24.6306 H   0  0  0  0  0  0
  -27.2282  -37.1404   25.8877 H   0  0  0  0  0  0
  -20.9557  -29.8740   21.6665 H   0  0  0  0  0  0
  -26.0119  -38.2764   24.1417 H   0  0  0  0  0  0
  -29.4697  -17.1358   17.0642 H   0  0  0  0  0  0
  -28.3013  -18.2281   17.7872 H   0  0  0  0  0  0
  -30.3481  -19.3868   18.2942 H   0  0  0  0  0  0
  -31.2418  -17.8780   18.4262 H   0  0  0  0  0  0
  -28.7705  -15.5627   18.4997 H   0  0  0  0  0  0
  -27.7176  -16.6686   19.3760 H   0  0  0  0  0  0
  -30.9022  -18.3644   20.6842 H   0  0  0  0  0  0
  -28.8587  -19.6760   21.6000 H   0  0  0  0  0  0
  -27.9596  -19.4437   20.1542 H   0  0  0  0  0  0
  -27.4050  -22.3795   20.7762 H   0  0  0  0  0  0
  -28.8328  -22.8378   21.6118 H   0  0  0  0  0  0
  -27.5884  -24.1966   19.0610 H   0  0  0  0  0  0
  -29.2690  -24.3362   19.2785 H   0  0  0  0  0  0
  -29.1158  -21.2779   19.0922 H   0  0  0  0  0  0
  -30.1763  -21.4324   20.2823 H   0  0  0  0  0  0
  1 25  1  0  0  0
  1 30  2  0  0  0
  1 78  1  0  0  0
  2  3  1  0  0  0
  2 25  1  0  0  0
  2 80  1  0  0  0
  2 81  1  0  0  0
  3  4  1  0  0  0
  3 82  1  0  0  0
  3 83  1  0  0  0
  4  5  1  0  0  0
  4 84  1  0  0  0
  4 85  1  0  0  0
  5  6  1  0  0  0
  5 26  1  0  0  0
  5 86  1  0  0  0
  6 25  1  0  0  0
  6 87  1  0  0  0
  6 88  1  0  0  0
  7  8  2  0  0  0
  7 26  1  0  0  0
  7 29  1  0  0  0
  8  9  1  0  0  0
  8 22  1  0  0  0
  9 10  1  0  0  0
  9 27  2  0  0  0
 10 11  2  0  0  0
 10 15  1  0  0  0
 11 12  1  0  0  0
 11 89  1  0  0  0
 12 13  2  0  0  0
 12 90  1  0  0  0
 13 14  1  0  0  0
 13 31  1  0  0  0
 14 15  2  0  0  0
 14 91  1  0  0  0
 15 92  1  0  0  0
 16 17  2  0  0  0
 16 21  1  0  0  0
 16 31  1  0  0  0
 17 18  1  0  0  0
 17 93  1  0  0  0
 18 19  2  0  0  0
 18 94  1  0  0  0
 19 20  1  0  0  0
 19 24  1  0  0  0
 20 21  2  0  0  0
 20 95  1  0  0  0
 21 23  1  0  0  0
 22 28  1  0  0  0
 22 32  2  0  0  0
 26 27  1  0  0  0
 28 96  1  0  0  0
 28 97  1  0  0  0
 29 98  1  0  0  0
 29 99  1  0  0  0
 33 34  1  0  0  0
 33 66  1  0  0  0
 33 70  2  0  0  0
 34 36  1  0  0  0
 34 59  1  0  0  0
 34100  1  0  0  0
 35 44  2  0  0  0
 35 45  1  0  0  0
 35 68  1  0  0  0
 36 56  1  0  0  0
 36101  1  0  0  0
 37 39  1  0  0  0
 37 47  1  0  0  0
 37 66  1  0  0  0
 37102  1  0  0  0
 38 43  2  0  0  0
 38 46  1  0  0  0
 38 47  1  0  0  0
 39 64  1  0  0  0
 39 67  2  0  0  0
 40 52  1  0  0  0
 40 53  2  0  0  0
 40 58  1  0  0  0
 41103  1  0  0  0
 41104  1  0  0  0
 41105  1  0  0  0
 41 48  1  0  0  0
 42 43  1  0  0  0
 42 66  1  0  0  0
 42106  1  0  0  0
 42107  1  0  0  0
 43 44  1  0  0  0
 44108  1  0  0  0
 45 46  2  0  0  0
 45109  1  0  0  0
 46110  1  0  0  0
 47111  1  0  0  0
 47112  1  0  0  0
 48 56  1  0  0  0
 48 65  1  0  0  0
 48113  1  0  0  0
 49 50  1  0  0  0
 49 53  1  0  0  0
 49 64  1  0  0  0
 49114  1  0  0  0
 50 51  1  0  0  0
 50115  1  0  0  0
 50116  1  0  0  0
 51 52  1  0  0  0
 51117  1  0  0  0
 51118  1  0  0  0
 52119  1  0  0  0
 52120  1  0  0  0
 53 54  1  0  0  0
 54 55  2  0  0  0
 54121  1  0  0  0
 55 57  1  0  0  0
 55122  1  0  0  0
 56 69  2  0  0  0
 57 58  2  0  0  0
 57123  1  0  0  0
 58124  1  0  0  0
 59 60  1  0  0  0
 59 61  1  0  0  0
 59 62  1  0  0  0
 60125  1  0  0  0
 60126  1  0  0  0
 60127  1  0  0  0
 61128  1  0  0  0
 61129  1  0  0  0
 61130  1  0  0  0
 62131  1  0  0  0
 62132  1  0  0  0
 62133  1  0  0  0
 63 65  1  0  0  0
 63134  1  0  0  0
 63135  1  0  0  0
 63136  1  0  0  0
 64137  1  0  0  0
 65138  1  0  0  0
 68 77  1  0  0  0
 71 72  1  0  0  0
 71 73  1  0  0  0
 71139  1  0  0  0
 71140  1  0  0  0
 72 74  1  0  0  0
 72141  1  0  0  0
 72142  1  0  0  0
 73 78  1  0  0  0
 73143  1  0  0  0
 73144  1  0  0  0
 74 75  1  0  0  0
 74 78  1  0  0  0
 74145  1  0  0  0
 75 79  1  0  0  0
 75146  1  0  0  0
 75147  1  0  0  0
 76 77  1  0  0  0
 76 79  1  0  0  0
 76148  1  0  0  0
 76149  1  0  0  0
 77150  1  0  0  0
 77151  1  0  0  0
 79152  1  0  0  0
 79153  1  0  0  0
M  CHG  1  79   1
M  ISO  4   1 100  68 101  77 101  78 100
M  END
> <chiral flag>
0

> <version>
0

> <s_m_source_file>
/data/baiqing/PycharmProjects/Reinvent-master-3.2/result/LINK_invent/BTK/process_docking_weight1_custom_sum_contain_oxygen_bond_distance_aromatic_linkinvent_7_9_3/rearranged_h_0192.sdf

> <i_m_source_file_index>
17

> <r_mmod_Potential_Energy-OPLS-2005>
1438.71313476562

> <r_mmod_Stretch_Energy-OPLS-2005>
610.667846679688

> <r_mmod_Bend_Energy-OPLS-2005>
503.793701171875

> <r_mmod_Torsional_Energy-OPLS-2005>
359.677398681641

> <r_mmod_Improper_Torsional_Energy-OPLS-2005>
10.4486379623413

> <r_mmod_Van_der_Waal_Energy-OPLS-2005>
109.502914428711

> <r_mmod_Electrostatic_Energy-OPLS-2005>
-164.334671020508

> <r_mmod_Solvation_Energy-OPLS-2005>
-459.765960693359

> <b_mmod_Minimization_Converged-OPLS-2005>
0

> <r_mmod_RMS_Derivative-OPLS-2005>
2.16546893119812

$$$$
17
                    3D
 Structure written by MMmdl.
147156  0  0  1  0            999 V2000
  -30.4956  -15.0462   20.4034 C   0  0  0  0  0  0
  -30.4413  -12.6477   19.5239 C   0  0  0  0  0  0
  -29.5308  -12.5523   18.2750 C   0  0  0  0  0  0
  -28.0654  -12.3208   18.6867 C   0  0  0  0  0  0
  -27.6285  -13.2570   19.8427 C   0  0  2  0  0  0
  -28.6657  -13.3152   20.9863 C   0  0  0  0  0  0
  -25.2448  -13.8230   20.5722 C   0  0  0  0  0  0
  -24.1773  -13.0442   20.9234 C   0  0  0  0  0  0
  -24.6401  -11.6930   20.8747 C   0  0  0  0  0  0
  -23.9085  -10.4299   21.0399 C   0  0  0  0  0  0
  -24.3632   -9.4212   21.9180 C   0  0  0  0  0  0
  -23.6307   -8.2243   22.0748 C   0  0  0  0  0  0
  -22.4286   -8.0281   21.3542 C   0  0  0  0  0  0
  -21.9923   -9.0254   20.4638 C   0  0  0  0  0  0
  -22.7252  -10.2138   20.3047 C   0  0  0  0  0  0
  -21.6858   -6.0737   22.5279 C   0  0  0  0  0  0
  -21.4015   -6.5640   23.8213 C   0  0  0  0  0  0
  -21.3660   -5.6793   24.9175 C   0  0  0  0  0  0
  -21.6046   -4.3056   24.7226 C   0  0  0  0  0  0
  -21.8817   -3.8147   23.4347 C   0  0  0  0  0  0
  -21.9193   -4.6962   22.3403 C   0  0  0  0  0  0
  -22.7792  -13.5208   21.1886 C   0  0  0  0  0  0
  -22.1660   -4.2143   21.0984 F   0  0  0  0  0  0
  -21.5634   -3.4539   25.7741 F   0  0  0  0  0  0
  -29.9352  -13.7577   20.3945 N   0  0  0  0  0  0
  -26.2880  -12.9473   20.3253 N   0  0  0  0  0  0
  -25.9339  -11.6594   20.5732 N   0  0  0  0  0  0
  -22.0442  -12.8194   22.0438 N   0  0  0  0  0  0
  -25.4114  -15.1961   20.4152 N   0  0  0  0  0  0
  -31.6793  -15.1170   20.0528 O   0  0  0  0  0  0
  -21.6644   -6.8882   21.4243 O   0  0  0  0  0  0
  -22.3470  -14.5508   20.6727 O   0  0  0  0  0  0
  -24.6504  -31.8362   23.1808 C   0  0  0  0  0  0
  -25.9246  -32.4650   23.8228 C   0  0  1  0  0  0
  -27.2228  -27.0622   20.1566 C   0  0  0  0  0  0
  -25.5970  -33.8462   24.2145 N   0  0  0  0  0  0
  -23.4586  -30.4517   21.5268 C   0  0  2  0  0  0
  -24.9112  -28.8656   20.1029 C   0  0  0  0  0  0
  -22.7612  -29.4505   22.4823 C   0  0  0  0  0  0
  -18.0313  -28.1403   22.8472 C   0  0  0  0  0  0
  -24.1495  -36.7236   23.2644 C   0  0  0  0  0  0
  -26.0184  -30.6840   21.3926 C   0  0  0  0  0  0
  -26.0875  -29.2888   20.7330 C   0  0  0  0  0  0
  -27.2352  -28.4006   20.7480 C   0  0  0  0  0  0
  -26.0197  -26.7579   19.4812 C   0  0  0  0  0  0
  -24.8948  -27.6167   19.4612 C   0  0  0  0  0  0
  -23.6896  -29.7753   20.1476 C   0  0  0  0  0  0
  -25.4130  -36.3003   24.0308 C   0  0  1  0  0  0
  -20.5930  -28.3739   23.1216 C   0  0  2  0  0  0
  -20.6789  -26.9432   22.5409 C   0  0  0  0  0  0
  -19.5765  -26.6380   21.5216 C   0  0  0  0  0  0
  -18.1948  -26.7939   22.1622 C   0  0  0  0  0  0
  -19.1570  -28.8890   23.2833 C   0  0  0  0  0  0
  -18.9481  -30.1484   23.8860 C   0  0  0  0  0  0
  -17.6475  -30.6594   24.0558 C   0  0  0  0  0  0
  -25.9086  -34.9384   23.5038 C   0  0  0  0  0  0
  -16.5368  -29.9086   23.6338 C   0  0  0  0  0  0
  -16.7296  -28.6508   23.0354 C   0  0  0  0  0  0
  -26.4538  -31.6553   25.0708 C   0  0  0  0  0  0
  -25.3693  -31.3778   26.1386 C   0  0  0  0  0  0
  -27.0416  -30.2935   24.6358 C   0  0  0  0  0  0
  -27.6057  -32.4335   25.7502 C   0  0  0  0  0  0
  -27.5571  -37.1777   24.8464 C   0  0  0  0  0  0
  -21.4296  -29.3047   22.3575 N   0  0  0  0  0  0
  -26.4285  -37.3726   23.9402 N   0  0  0  0  0  0
  -24.7291  -31.0148   22.0879 N   0  0  0  0  0  0
  -23.4221  -28.8066   23.3008 O   0  0  0  0  0  0
  -28.2504  -26.0364   20.3111 O   0  0  0  0  0  0
  -26.5681  -34.8895   22.4624 O   0  0  0  0  0  0
  -23.5605  -32.1276   23.6987 O   0  0  0  0  0  0
  -29.3820  -22.0164   20.4389 C   0  0  0  0  0  0
  -28.4248  -23.0303   20.0832 C   0  0  0  0  0  0
  -30.6532  -18.7749   20.8751 C   0  0  0  0  0  0
  -29.1900  -19.1601   20.9089 C   0  0  2  0  0  0
  -29.7767  -17.7551   20.1598 C   0  0  2  0  0  0
  -28.3837  -24.6440   19.5694 C   0  0  0  0  0  0
  -27.3119  -22.1999   19.8359 N   0  0  0  0  0  0
  -27.5357  -20.9033   20.0316 N   0  0  0  0  0  0
  -28.8339  -20.6543   20.3778 N   0  0  0  0  0  0
  -29.7070  -16.2335   20.6271 N   0  0  0  0  0  0
  -31.4741  -12.8123   19.2144 H   0  0  0  0  0  0
  -30.4476  -11.7029   20.0701 H   0  0  0  0  0  0
  -29.8694  -11.7504   17.6175 H   0  0  0  0  0  0
  -29.6061  -13.4748   17.6968 H   0  0  0  0  0  0
  -27.9733  -11.2813   19.0028 H   0  0  0  0  0  0
  -27.4034  -12.4380   17.8272 H   0  0  0  0  0  0
  -27.5824  -14.2538   19.4034 H   0  0  0  0  0  0
  -28.7714  -12.3448   21.4739 H   0  0  0  0  0  0
  -28.3450  -14.0150   21.7591 H   0  0  0  0  0  0
  -25.2768   -9.5691   22.4767 H   0  0  0  0  0  0
  -24.0013   -7.4637   22.7474 H   0  0  0  0  0  0
  -21.0849   -8.8772   19.8952 H   0  0  0  0  0  0
  -22.3700  -10.9677   19.6162 H   0  0  0  0  0  0
  -21.2002   -7.6148   23.9716 H   0  0  0  0  0  0
  -21.1488   -6.0522   25.9081 H   0  0  0  0  0  0
  -22.0594   -2.7608   23.2846 H   0  0  0  0  0  0
  -22.4064  -11.9860   22.4832 H   0  0  0  0  0  0
  -21.1053  -13.1208   22.2637 H   0  0  0  0  0  0
  -24.6406  -15.8465   20.5235 H   0  0  0  0  0  0
  -26.2512  -15.6359   20.0617 H   0  0  0  0  0  0
  -26.7318  -32.5227   23.0953 H   0  0  0  0  0  0
  -25.0085  -33.9559   25.0274 H   0  0  0  0  0  0
  -22.7649  -31.2795   21.3665 H   0  0  0  0  0  0
  -23.3757  -35.9566   23.3295 H   0  0  0  0  0  0
  -24.3577  -36.8883   22.2060 H   0  0  0  0  0  0
  -23.7253  -37.6429   23.6696 H   0  0  0  0  0  0
  -26.1847  -31.4340   20.6184 H   0  0  0  0  0  0
  -26.8846  -30.7348   22.0407 H   0  0  0  0  0  0
  -28.1222  -28.7129   21.2809 H   0  0  0  0  0  0
  -25.8936  -25.7933   19.0149 H   0  0  0  0  0  0
  -23.9952  -27.2837   18.9617 H   0  0  0  0  0  0
  -23.8303  -30.5480   19.3913 H   0  0  0  0  0  0
  -22.8029  -29.2213   19.8355 H   0  0  0  0  0  0
  -25.1324  -36.1813   25.0801 H   0  0  0  0  0  0
  -21.0021  -28.3336   24.1338 H   0  0  0  0  0  0
  -20.5677  -26.2359   23.3640 H   0  0  0  0  0  0
  -21.6654  -26.7425   22.1209 H   0  0  0  0  0  0
  -19.6925  -25.6282   21.1272 H   0  0  0  0  0  0
  -19.6699  -27.3169   20.6728 H   0  0  0  0  0  0
  -17.4220  -26.6687   21.4024 H   0  0  0  0  0  0
  -18.0338  -26.0089   22.9026 H   0  0  0  0  0  0
  -19.7955  -30.7311   24.2216 H   0  0  0  0  0  0
  -17.5026  -31.6267   24.5173 H   0  0  0  0  0  0
  -15.5366  -30.2969   23.7686 H   0  0  0  0  0  0
  -15.8698  -28.0817   22.7082 H   0  0  0  0  0  0
  -24.5882  -30.7121   25.7698 H   0  0  0  0  0  0
  -24.8872  -32.2974   26.4716 H   0  0  0  0  0  0
  -25.7944  -30.9007   27.0227 H   0  0  0  0  0  0
  -26.3057  -29.6635   24.1351 H   0  0  0  0  0  0
  -27.3977  -29.7267   25.4971 H   0  0  0  0  0  0
  -27.8987  -30.4142   23.9730 H   0  0  0  0  0  0
  -27.2645  -33.3661   26.2007 H   0  0  0  0  0  0
  -28.3908  -32.6855   25.0363 H   0  0  0  0  0  0
  -28.0684  -31.8510   26.5478 H   0  0  0  0  0  0
  -28.2583  -38.0076   24.7498 H   0  0  0  0  0  0
  -28.1071  -36.2607   24.6306 H   0  0  0  0  0  0
  -27.2291  -37.1440   25.8867 H   0  0  0  0  0  0
  -20.9527  -29.8754   21.6733 H   0  0  0  0  0  0
  -26.0141  -38.2794   24.1389 H   0  0  0  0  0  0
  -30.4229  -22.1507   20.7066 H   0  0  0  0  0  0
  -31.0938  -18.4828   21.8262 H   0  0  0  0  0  0
  -31.3095  -19.3744   20.2479 H   0  0  0  0  0  0
  -28.6621  -19.0072   21.8485 H   0  0  0  0  0  0
  -29.7813  -17.8407   19.0748 H   0  0  0  0  0  0
  -27.6764  -24.6787   18.7438 H   0  0  0  0  0  0
  -29.3299  -24.7818   19.0459 H   0  0  0  0  0  0
  -28.7955  -15.9940   20.9896 H   0  0  0  0  0  0
  1 25  1  0  0  0
  1 30  2  0  0  0
  1 80  1  0  0  0
  2  3  1  0  0  0
  2 25  1  0  0  0
  2 81  1  0  0  0
  2 82  1  0  0  0
  3  4  1  0  0  0
  3 83  1  0  0  0
  3 84  1  0  0  0
  4  5  1  0  0  0
  4 85  1  0  0  0
  4 86  1  0  0  0
  5  6  1  0  0  0
  5 26  1  0  0  0
  5 87  1  0  0  0
  6 25  1  0  0  0
  6 88  1  0  0  0
  6 89  1  0  0  0
  7  8  2  0  0  0
  7 26  1  0  0  0
  7 29  1  0  0  0
  8  9  1  0  0  0
  8 22  1  0  0  0
  9 10  1  0  0  0
  9 27  2  0  0  0
 10 11  2  0  0  0
 10 15  1  0  0  0
 11 12  1  0  0  0
 11 90  1  0  0  0
 12 13  2  0  0  0
 12 91  1  0  0  0
 13 14  1  0  0  0
 13 31  1  0  0  0
 14 15  2  0  0  0
 14 92  1  0  0  0
 15 93  1  0  0  0
 16 17  2  0  0  0
 16 21  1  0  0  0
 16 31  1  0  0  0
 17 18  1  0  0  0
 17 94  1  0  0  0
 18 19  2  0  0  0
 18 95  1  0  0  0
 19 20  1  0  0  0
 19 24  1  0  0  0
 20 21  2  0  0  0
 20 96  1  0  0  0
 21 23  1  0  0  0
 22 28  1  0  0  0
 22 32  2  0  0  0
 26 27  1  0  0  0
 28 97  1  0  0  0
 28 98  1  0  0  0
 29 99  1  0  0  0
 29100  1  0  0  0
 33 34  1  0  0  0
 33 66  1  0  0  0
 33 70  2  0  0  0
 34 36  1  0  0  0
 34 59  1  0  0  0
 34101  1  0  0  0
 35 44  2  0  0  0
 35 45  1  0  0  0
 35 68  1  0  0  0
 36 56  1  0  0  0
 36102  1  0  0  0
 37 39  1  0  0  0
 37 47  1  0  0  0
 37 66  1  0  0  0
 37103  1  0  0  0
 38 43  2  0  0  0
 38 46  1  0  0  0
 38 47  1  0  0  0
 39 64  1  0  0  0
 39 67  2  0  0  0
 40 52  1  0  0  0
 40 53  2  0  0  0
 40 58  1  0  0  0
 41104  1  0  0  0
 41105  1  0  0  0
 41106  1  0  0  0
 41 48  1  0  0  0
 42 43  1  0  0  0
 42 66  1  0  0  0
 42107  1  0  0  0
 42108  1  0  0  0
 43 44  1  0  0  0
 44109  1  0  0  0
 45 46  2  0  0  0
 45110  1  0  0  0
 46111  1  0  0  0
 47112  1  0  0  0
 47113  1  0  0  0
 48 56  1  0  0  0
 48 65  1  0  0  0
 48114  1  0  0  0
 49 50  1  0  0  0
 49 53  1  0  0  0
 49 64  1  0  0  0
 49115  1  0  0  0
 50 51  1  0  0  0
 50116  1  0  0  0
 50117  1  0  0  0
 51 52  1  0  0  0
 51118  1  0  0  0
 51119  1  0  0  0
 52120  1  0  0  0
 52121  1  0  0  0
 53 54  1  0  0  0
 54 55  2  0  0  0
 54122  1  0  0  0
 55 57  1  0  0  0
 55123  1  0  0  0
 56 69  2  0  0  0
 57 58  2  0  0  0
 57124  1  0  0  0
 58125  1  0  0  0
 59 60  1  0  0  0
 59 61  1  0  0  0
 59 62  1  0  0  0
 60126  1  0  0  0
 60127  1  0  0  0
 60128  1  0  0  0
 61129  1  0  0  0
 61130  1  0  0  0
 61131  1  0  0  0
 62132  1  0  0  0
 62133  1  0  0  0
 62134  1  0  0  0
 63 65  1  0  0  0
 63135  1  0  0  0
 63136  1  0  0  0
 63137  1  0  0  0
 64138  1  0  0  0
 65139  1  0  0  0
 68 76  1  0  0  0
 71 72  2  0  0  0
 71 79  1  0  0  0
 71140  1  0  0  0
 72 76  1  0  0  0
 72 77  1  0  0  0
 73 74  1  0  0  0
 73 75  1  0  0  0
 73141  1  0  0  0
 73142  1  0  0  0
 74 75  1  0  0  0
 74 79  1  0  0  0
 74143  1  0  0  0
 75 80  1  0  0  0
 75144  1  0  0  0
 76145  1  0  0  0
 76146  1  0  0  0
 77 78  2  0  0  0
 78 79  1  0  0  0
 80147  1  0  0  0
M  ISO  4   1 100  68 101  76 101  80 100
M  END
> <chiral flag>
0

> <version>
0

> <s_m_source_file>
/data/baiqing/PycharmProjects/Reinvent-master-3.2/result/LINK_invent/BTK/process_docking_weight1_custom_sum_contain_oxygen_bond_distance_aromatic_linkinvent_7_9_3/rearranged_h_0192.sdf

> <i_m_source_file_index>
18

> <r_mmod_Potential_Energy-OPLS-2005>
810.342468261719

> <r_mmod_Stretch_Energy-OPLS-2005>
342.988891601562

> <r_mmod_Bend_Energy-OPLS-2005>
353.414581298828

> <r_mmod_Torsional_Energy-OPLS-2005>
311.843719482422

> <r_mmod_Improper_Torsional_Energy-OPLS-2005>
8.65639305114746

> <r_mmod_Van_der_Waal_Energy-OPLS-2005>
107.833831787109

> <r_mmod_Electrostatic_Energy-OPLS-2005>
-347.501647949219

> <r_mmod_Solvation_Energy-OPLS-2005>
-237.022125244141

> <b_mmod_Minimization_Converged-OPLS-2005>
0

> <r_mmod_RMS_Derivative-OPLS-2005>
0.95740681886673

$$$$
18
                    3D
 Structure written by MMmdl.
165174  0  0  1  0            999 V2000
  -30.7964  -14.3955   20.6631 C   0  0  0  0  0  0
  -30.4128  -12.3043   19.4063 C   0  0  0  0  0  0
  -29.4843  -12.5297   18.1997 C   0  0  0  0  0  0
  -28.0113  -12.3823   18.6189 C   0  0  0  0  0  0
  -27.6683  -13.2145   19.8831 C   0  0  2  0  0  0
  -28.7129  -12.9879   21.0011 C   0  0  0  0  0  0
  -25.2612  -13.8193   20.5693 C   0  0  0  0  0  0
  -24.1855  -13.0454   20.9173 C   0  0  0  0  0  0
  -24.6424  -11.6926   20.8736 C   0  0  0  0  0  0
  -23.9081  -10.4299   21.0400 C   0  0  0  0  0  0
  -24.3624   -9.4215   21.9179 C   0  0  0  0  0  0
  -23.6295   -8.2249   22.0752 C   0  0  0  0  0  0
  -22.4275   -8.0289   21.3540 C   0  0  0  0  0  0
  -21.9916   -9.0267   20.4642 C   0  0  0  0  0  0
  -22.7253  -10.2145   20.3052 C   0  0  0  0  0  0
  -21.6853   -6.0738   22.5270 C   0  0  0  0  0  0
  -21.4013   -6.5639   23.8204 C   0  0  0  0  0  0
  -21.3659   -5.6786   24.9163 C   0  0  0  0  0  0
  -21.6043   -4.3051   24.7211 C   0  0  0  0  0  0
  -21.8816   -3.8145   23.4333 C   0  0  0  0  0  0
  -21.9191   -4.6965   22.3392 C   0  0  0  0  0  0
  -22.7874  -13.5251   21.1831 C   0  0  0  0  0  0
  -22.1658   -4.2153   21.0971 F   0  0  0  0  0  0
  -21.5630   -3.4531   25.7726 F   0  0  0  0  0  0
  -30.0558  -13.2686   20.4613 N   0  0  0  0  0  0
  -26.3078  -12.9381   20.3420 N   0  0  0  0  0  0
  -25.9365  -11.6526   20.5792 N   0  0  0  0  0  0
  -22.0518  -12.8233   22.0384 N   0  0  0  0  0  0
  -25.4328  -15.1913   20.4109 N   0  0  0  0  0  0
  -31.7942  -14.6530   19.9810 O   0  0  0  0  0  0
  -21.6640   -6.8888   21.4239 O   0  0  0  0  0  0
  -22.3550  -14.5547   20.6679 O   0  0  0  0  0  0
  -24.6146  -31.8679   23.2107 C   0  0  0  0  0  0
  -25.9027  -32.4831   23.8390 C   0  0  1  0  0  0
  -27.2312  -27.4225   20.1003 C   0  0  0  0  0  0
  -25.5904  -33.8634   24.2327 N   0  0  0  0  0  0
  -23.4032  -30.4883   21.5529 C   0  0  2  0  0  0
  -24.8496  -28.9541   20.1145 C   0  0  0  0  0  0
  -22.7414  -29.4625   22.5012 C   0  0  0  0  0  0
  -18.0269  -28.1358   22.8497 C   0  0  0  0  0  0
  -24.1498  -36.7319   23.2639 C   0  0  0  0  0  0
  -25.9334  -30.8271   21.3672 C   0  0  0  0  0  0
  -26.0090  -29.4614   20.7136 C   0  0  0  0  0  0
  -27.2035  -28.7032   20.7022 C   0  0  0  0  0  0
  -26.0566  -26.9384   19.4837 C   0  0  0  0  0  0
  -24.8676  -27.6926   19.4961 C   0  0  0  0  0  0
  -23.6116  -29.8212   20.1662 C   0  0  0  0  0  0
  -25.4118  -36.3128   24.0345 C   0  0  1  0  0  0
  -20.5859  -28.3634   23.1344 C   0  0  2  0  0  0
  -20.6780  -26.9376   22.5428 C   0  0  0  0  0  0
  -19.5752  -26.6370   21.5223 C   0  0  0  0  0  0
  -18.1922  -26.7911   22.1624 C   0  0  0  0  0  0
  -19.1522  -28.8813   23.2920 C   0  0  0  0  0  0
  -18.9457  -30.1434   23.8916 C   0  0  0  0  0  0
  -17.6455  -30.6583   24.0547 C   0  0  0  0  0  0
  -25.9041  -34.9485   23.5132 C   0  0  0  0  0  0
  -16.5348  -29.9076   23.6328 C   0  0  0  0  0  0
  -16.7259  -28.6488   23.0357 C   0  0  0  0  0  0
  -26.4453  -31.6615   25.0726 C   0  0  0  0  0  0
  -25.3728  -31.3713   26.1475 C   0  0  0  0  0  0
  -27.0269  -30.3071   24.6060 C   0  0  0  0  0  0
  -27.6034  -32.4323   25.7469 C   0  0  0  0  0  0
  -27.5590  -37.1813   24.8461 C   0  0  0  0  0  0
  -21.4143  -29.3011   22.3771 N   0  0  0  0  0  0
  -26.4305  -37.3809   23.9413 N   0  0  0  0  0  0
  -24.6683  -31.0756   22.1026 N   0  0  0  0  0  0
  -23.4193  -28.8160   23.3046 O   0  0  0  0  0  0
  -28.3967  -26.6811   20.1004 O   0  0  0  0  0  0
  -26.5584  -34.8925   22.4679 O   0  0  0  0  0  0
  -23.5336  -32.1427   23.7500 O   0  0  0  0  0  0
  -28.3820  -19.4286   20.7957 C   0  0  0  0  0  0
  -28.5724  -18.3234   21.6421 C   0  0  0  0  0  0
  -29.1094  -19.5069   19.5923 C   0  0  0  0  0  0
  -29.4733  -17.3103   21.2709 C   0  0  0  0  0  0
  -30.0367  -18.4651   19.3203 C   0  0  0  0  0  0
  -30.5648  -16.2883   23.4286 C   0  0  0  0  0  0
  -31.6810  -15.7204   22.5651 C   0  0  0  0  0  0
  -29.6635  -16.1017   22.2078 C   0  0  2  0  0  0
  -30.8845  -18.4125   18.0613 C   0  0  0  0  0  0
  -28.7880  -20.6160   18.5793 C   0  0  0  0  0  0
  -29.4630  -21.9998   18.7790 C   0  0  0  0  0  0
  -28.9847  -24.3563   19.4722 C   0  0  0  0  0  0
  -28.2900  -25.2954   20.4899 C   0  0  0  0  0  0
  -30.2081  -17.4050   20.1423 N   0  0  0  0  0  0
  -30.6129  -15.0212   21.8407 N   0  0  0  0  0  0
  -28.7667  -22.8997   19.7375 N   0  3  0  0  0  0
  -31.4573  -12.3850   19.0975 H   0  0  0  0  0  0
  -30.3027  -11.2875   19.7865 H   0  0  0  0  0  0
  -29.7187  -11.8209   17.4041 H   0  0  0  0  0  0
  -29.6534  -13.5253   17.7865 H   0  0  0  0  0  0
  -27.8216  -11.3240   18.8067 H   0  0  0  0  0  0
  -27.3572  -12.6663   17.7935 H   0  0  0  0  0  0
  -27.7172  -14.2654   19.5961 H   0  0  0  0  0  0
  -28.6761  -11.9554   21.3500 H   0  0  0  0  0  0
  -28.4699  -13.5930   21.8727 H   0  0  0  0  0  0
  -25.2782   -9.5673   22.4746 H   0  0  0  0  0  0
  -23.9998   -7.4638   22.7477 H   0  0  0  0  0  0
  -21.0844   -8.8797   19.8947 H   0  0  0  0  0  0
  -22.3729  -10.9683   19.6148 H   0  0  0  0  0  0
  -21.2004   -7.6144   23.9713 H   0  0  0  0  0  0
  -21.1482   -6.0512   25.9069 H   0  0  0  0  0  0
  -22.0593   -2.7608   23.2830 H   0  0  0  0  0  0
  -22.4147  -11.9905   22.4777 H   0  0  0  0  0  0
  -21.1132  -13.1240   22.2584 H   0  0  0  0  0  0
  -24.6656  -15.8461   20.5175 H   0  0  0  0  0  0
  -26.2870  -15.6326   20.0941 H   0  0  0  0  0  0
  -26.7083  -32.5524   23.1136 H   0  0  0  0  0  0
  -25.0095  -33.9805   25.0500 H   0  0  0  0  0  0
  -22.6909  -31.3043   21.4133 H   0  0  0  0  0  0
  -23.3773  -35.9638   23.3308 H   0  0  0  0  0  0
  -24.3595  -36.8925   22.2057 H   0  0  0  0  0  0
  -23.7234  -37.6521   23.6643 H   0  0  0  0  0  0
  -26.0464  -31.5917   20.5976 H   0  0  0  0  0  0
  -26.8216  -30.8797   21.9841 H   0  0  0  0  0  0
  -28.0994  -29.0885   21.1687 H   0  0  0  0  0  0
  -26.0518  -25.9808   18.9836 H   0  0  0  0  0  0
  -23.9795  -27.2993   19.0229 H   0  0  0  0  0  0
  -23.7179  -30.5981   19.4071 H   0  0  0  0  0  0
  -22.7367  -29.2419   19.8689 H   0  0  0  0  0  0
  -25.1297  -36.2000   25.0838 H   0  0  0  0  0  0
  -20.9933  -28.3180   24.1473 H   0  0  0  0  0  0
  -20.5723  -26.2220   23.3605 H   0  0  0  0  0  0
  -21.6640  -26.7455   22.1185 H   0  0  0  0  0  0
  -19.6925  -25.6289   21.1238 H   0  0  0  0  0  0
  -19.6717  -27.3195   20.6775 H   0  0  0  0  0  0
  -17.4213  -26.6680   21.4007 H   0  0  0  0  0  0
  -18.0300  -26.0034   22.8998 H   0  0  0  0  0  0
  -19.7937  -30.7241   24.2296 H   0  0  0  0  0  0
  -17.5010  -31.6273   24.5129 H   0  0  0  0  0  0
  -15.5349  -30.2978   23.7665 H   0  0  0  0  0  0
  -15.8650  -28.0818   22.7078 H   0  0  0  0  0  0
  -24.5888  -30.7066   25.7817 H   0  0  0  0  0  0
  -24.8923  -32.2868   26.4944 H   0  0  0  0  0  0
  -25.8083  -30.8866   27.0224 H   0  0  0  0  0  0
  -26.2789  -29.6851   24.1127 H   0  0  0  0  0  0
  -27.4084  -29.7279   25.4480 H   0  0  0  0  0  0
  -27.8601  -30.4420   23.9161 H   0  0  0  0  0  0
  -27.2670  -33.3622   26.2056 H   0  0  0  0  0  0
  -28.3827  -32.6890   25.0286 H   0  0  0  0  0  0
  -28.0701  -31.8439   26.5375 H   0  0  0  0  0  0
  -28.2607  -38.0119   24.7537 H   0  0  0  0  0  0
  -28.1100  -36.2657   24.6261 H   0  0  0  0  0  0
  -27.2305  -37.1407   25.8861 H   0  0  0  0  0  0
  -20.9308  -29.8738   21.6996 H   0  0  0  0  0  0
  -26.0212  -38.2894   24.1405 H   0  0  0  0  0  0
  -27.6604  -20.1883   21.0554 H   0  0  0  0  0  0
  -28.0161  -18.2491   22.5663 H   0  0  0  0  0  0
  -30.6906  -17.3204   23.7572 H   0  0  0  0  0  0
  -30.3033  -15.6277   24.2585 H   0  0  0  0  0  0
  -32.3835  -15.0724   23.0908 H   0  0  0  0  0  0
  -32.2057  -16.4720   21.9694 H   0  0  0  0  0  0
  -28.6849  -15.7295   22.5097 H   0  0  0  0  0  0
  -30.3795  -17.8248   17.2942 H   0  0  0  0  0  0
  -31.8466  -17.9405   18.2644 H   0  0  0  0  0  0
  -31.0987  -19.4001   17.6588 H   0  0  0  0  0  0
  -27.7054  -20.7453   18.5496 H   0  0  0  0  0  0
  -29.0287  -20.2572   17.5801 H   0  0  0  0  0  0
  -29.4519  -22.4915   17.8048 H   0  0  0  0  0  0
  -30.5153  -21.8926   19.0444 H   0  0  0  0  0  0
  -30.0548  -24.5632   19.4597 H   0  0  0  0  0  0
  -28.6119  -24.5895   18.4736 H   0  0  0  0  0  0
  -28.7726  -25.1905   21.4619 H   0  0  0  0  0  0
  -27.2582  -24.9780   20.6464 H   0  0  0  0  0  0
  -29.0627  -22.6616   20.6718 H   0  0  0  0  0  0
  -27.7768  -22.7163   19.6744 H   0  0  0  0  0  0
  1 25  1  0  0  0
  1 30  2  0  0  0
  1 85  1  0  0  0
  2  3  1  0  0  0
  2 25  1  0  0  0
  2 87  1  0  0  0
  2 88  1  0  0  0
  3  4  1  0  0  0
  3 89  1  0  0  0
  3 90  1  0  0  0
  4  5  1  0  0  0
  4 91  1  0  0  0
  4 92  1  0  0  0
  5  6  1  0  0  0
  5 26  1  0  0  0
  5 93  1  0  0  0
  6 25  1  0  0  0
  6 94  1  0  0  0
  6 95  1  0  0  0
  7  8  2  0  0  0
  7 26  1  0  0  0
  7 29  1  0  0  0
  8  9  1  0  0  0
  8 22  1  0  0  0
  9 10  1  0  0  0
  9 27  2  0  0  0
 10 11  2  0  0  0
 10 15  1  0  0  0
 11 12  1  0  0  0
 11 96  1  0  0  0
 12 13  2  0  0  0
 12 97  1  0  0  0
 13 14  1  0  0  0
 13 31  1  0  0  0
 14 15  2  0  0  0
 14 98  1  0  0  0
 15 99  1  0  0  0
 16 17  2  0  0  0
 16 21  1  0  0  0
 16 31  1  0  0  0
 17 18  1  0  0  0
 17100  1  0  0  0
 18 19  2  0  0  0
 18101  1  0  0  0
 19 20  1  0  0  0
 19 24  1  0  0  0
 20 21  2  0  0  0
 20102  1  0  0  0
 21 23  1  0  0  0
 22 28  1  0  0  0
 22 32  2  0  0  0
 26 27  1  0  0  0
 28103  1  0  0  0
 28104  1  0  0  0
 29105  1  0  0  0
 29106  1  0  0  0
 33 34  1  0  0  0
 33 66  1  0  0  0
 33 70  2  0  0  0
 34 36  1  0  0  0
 34 59  1  0  0  0
 34107  1  0  0  0
 35 44  2  0  0  0
 35 45  1  0  0  0
 35 68  1  0  0  0
 36 56  1  0  0  0
 36108  1  0  0  0
 37 39  1  0  0  0
 37 47  1  0  0  0
 37 66  1  0  0  0
 37109  1  0  0  0
 38 43  2  0  0  0
 38 46  1  0  0  0
 38 47  1  0  0  0
 39 64  1  0  0  0
 39 67  2  0  0  0
 40 52  1  0  0  0
 40 53  2  0  0  0
 40 58  1  0  0  0
 41110  1  0  0  0
 41111  1  0  0  0
 41112  1  0  0  0
 41 48  1  0  0  0
 42 43  1  0  0  0
 42 66  1  0  0  0
 42113  1  0  0  0
 42114  1  0  0  0
 43 44  1  0  0  0
 44115  1  0  0  0
 45 46  2  0  0  0
 45116  1  0  0  0
 46117  1  0  0  0
 47118  1  0  0  0
 47119  1  0  0  0
 48 56  1  0  0  0
 48 65  1  0  0  0
 48120  1  0  0  0
 49 50  1  0  0  0
 49 53  1  0  0  0
 49 64  1  0  0  0
 49121  1  0  0  0
 50 51  1  0  0  0
 50122  1  0  0  0
 50123  1  0  0  0
 51 52  1  0  0  0
 51124  1  0  0  0
 51125  1  0  0  0
 52126  1  0  0  0
 52127  1  0  0  0
 53 54  1  0  0  0
 54 55  2  0  0  0
 54128  1  0  0  0
 55 57  1  0  0  0
 55129  1  0  0  0
 56 69  2  0  0  0
 57 58  2  0  0  0
 57130  1  0  0  0
 58131  1  0  0  0
 59 60  1  0  0  0
 59 61  1  0  0  0
 59 62  1  0  0  0
 60132  1  0  0  0
 60133  1  0  0  0
 60134  1  0  0  0
 61135  1  0  0  0
 61136  1  0  0  0
 61137  1  0  0  0
 62138  1  0  0  0
 62139  1  0  0  0
 62140  1  0  0  0
 63 65  1  0  0  0
 63141  1  0  0  0
 63142  1  0  0  0
 63143  1  0  0  0
 64144  1  0  0  0
 65145  1  0  0  0
 68 83  1  0  0  0
 71 72  2  0  0  0
 71 73  1  0  0  0
 71146  1  0  0  0
 72 74  1  0  0  0
 72147  1  0  0  0
 73 75  2  0  0  0
 73 80  1  0  0  0
 74 84  2  0  0  0
 74 78  1  0  0  0
 75 79  1  0  0  0
 75 84  1  0  0  0
 76 77  1  0  0  0
 76 78  1  0  0  0
 76148  1  0  0  0
 76149  1  0  0  0
 77 85  1  0  0  0
 77150  1  0  0  0
 77151  1  0  0  0
 78 85  1  0  0  0
 78152  1  0  0  0
 79153  1  0  0  0
 79154  1  0  0  0
 79155  1  0  0  0
 80 81  1  0  0  0
 80156  1  0  0  0
 80157  1  0  0  0
 81 86  1  0  0  0
 81158  1  0  0  0
 81159  1  0  0  0
 82 83  1  0  0  0
 82 86  1  0  0  0
 82160  1  0  0  0
 82161  1  0  0  0
 83162  1  0  0  0
 83163  1  0  0  0
 86164  1  0  0  0
 86165  1  0  0  0
M  CHG  1  86   1
M  ISO  4   1 100  68 101  83 101  85 100
M  END
> <chiral flag>
0

> <version>
0

> <s_m_source_file>
/data/baiqing/PycharmProjects/Reinvent-master-3.2/result/LINK_invent/BTK/process_docking_weight1_custom_sum_contain_oxygen_bond_distance_aromatic_linkinvent_7_9_3/rearranged_h_0192.sdf

> <i_m_source_file_index>
19

> <r_mmod_Potential_Energy-OPLS-2005>
-326.789947509766

> <r_mmod_Stretch_Energy-OPLS-2005>
41.1931838989258

> <r_mmod_Bend_Energy-OPLS-2005>
117.771362304688

> <r_mmod_Torsional_Energy-OPLS-2005>
280.632598876953

> <r_mmod_Improper_Torsional_Energy-OPLS-2005>
15.1613187789917

> <r_mmod_Van_der_Waal_Energy-OPLS-2005>
151.251770019531

> <r_mmod_Electrostatic_Energy-OPLS-2005>
-472.9384765625

> <r_mmod_Solvation_Energy-OPLS-2005>
-470.181915283203

> <b_mmod_Minimization_Converged-OPLS-2005>
0

> <r_mmod_RMS_Derivative-OPLS-2005>
2.33664727210999

$$$$
19
                    3D
 Structure written by MMmdl.
156165  0  0  1  0            999 V2000
  -30.6806  -14.5611   20.6188 C   0  0  0  0  0  0
  -30.4353  -12.3706   19.4758 C   0  0  0  0  0  0
  -29.5145  -12.5169   18.2445 C   0  0  0  0  0  0
  -28.0366  -12.3437   18.6455 C   0  0  0  0  0  0
  -27.6576  -13.2142   19.8744 C   0  0  2  0  0  0
  -28.6875  -13.0511   21.0136 C   0  0  0  0  0  0
  -25.2548  -13.8184   20.5660 C   0  0  0  0  0  0
  -24.1789  -13.0479   20.9174 C   0  0  0  0  0  0
  -24.6343  -11.6930   20.8747 C   0  0  0  0  0  0
  -23.9017  -10.4309   21.0424 C   0  0  0  0  0  0
  -24.3577   -9.4235   21.9186 C   0  0  0  0  0  0
  -23.6288   -8.2258   22.0738 C   0  0  0  0  0  0
  -22.4294   -8.0279   21.3518 C   0  0  0  0  0  0
  -21.9910   -9.0261   20.4661 C   0  0  0  0  0  0
  -22.7204  -10.2149   20.3076 C   0  0  0  0  0  0
  -21.6864   -6.0767   22.5283 C   0  0  0  0  0  0
  -21.4043   -6.5658   23.8234 C   0  0  0  0  0  0
  -21.3672   -5.6793   24.9177 C   0  0  0  0  0  0
  -21.6027   -4.3051   24.7207 C   0  0  0  0  0  0
  -21.8818   -3.8162   23.4322 C   0  0  0  0  0  0
  -21.9183   -4.6987   22.3393 C   0  0  0  0  0  0
  -22.7801  -13.5298   21.1835 C   0  0  0  0  0  0
  -22.1637   -4.2179   21.0960 F   0  0  0  0  0  0
  -21.5618   -3.4518   25.7712 F   0  0  0  0  0  0
  -30.0170  -13.3730   20.4748 N   0  0  0  0  0  0
  -26.2973  -12.9351   20.3335 N   0  0  0  0  0  0
  -25.9263  -11.6511   20.5739 N   0  0  0  0  0  0
  -22.0397  -12.8339   22.0403 N   0  0  0  0  0  0
  -25.4331  -15.1887   20.4041 N   0  0  0  0  0  0
  -31.8021  -14.7339   20.1379 O   0  0  0  0  0  0
  -21.6630   -6.8904   21.4248 O   0  0  0  0  0  0
  -22.3491  -14.5583   20.6649 O   0  0  0  0  0  0
  -24.6167  -31.8678   23.2072 C   0  0  0  0  0  0
  -25.9061  -32.4818   23.8338 C   0  0  1  0  0  0
  -27.2231  -27.3932   20.0841 C   0  0  0  0  0  0
  -25.5916  -33.8621   24.2266 N   0  0  0  0  0  0
  -23.4038  -30.4895   21.5525 C   0  0  2  0  0  0
  -24.8465  -28.9567   20.1147 C   0  0  0  0  0  0
  -22.7429  -29.4631   22.5021 C   0  0  0  0  0  0
  -18.0271  -28.1376   22.8471 C   0  0  0  0  0  0
  -24.1497  -36.7332   23.2624 C   0  0  0  0  0  0
  -25.9379  -30.8161   21.3705 C   0  0  0  0  0  0
  -26.0114  -29.4487   20.7157 C   0  0  0  0  0  0
  -27.1967  -28.6739   20.7000 C   0  0  0  0  0  0
  -26.0319  -26.9323   19.4722 C   0  0  0  0  0  0
  -24.8551  -27.7009   19.4934 C   0  0  0  0  0  0
  -23.6113  -29.8272   20.1661 C   0  0  0  0  0  0
  -25.4124  -36.3115   24.0305 C   0  0  1  0  0  0
  -20.5860  -28.3651   23.1339 C   0  0  2  0  0  0
  -20.6786  -26.9402   22.5429 C   0  0  0  0  0  0
  -19.5766  -26.6386   21.5220 C   0  0  0  0  0  0
  -18.1928  -26.7924   22.1607 C   0  0  0  0  0  0
  -19.1516  -28.8839   23.2885 C   0  0  0  0  0  0
  -18.9451  -30.1447   23.8887 C   0  0  0  0  0  0
  -17.6458  -30.6592   24.0549 C   0  0  0  0  0  0
  -25.9056  -34.9482   23.5082 C   0  0  0  0  0  0
  -16.5344  -29.9090   23.6326 C   0  0  0  0  0  0
  -16.7258  -28.6499   23.0347 C   0  0  0  0  0  0
  -26.4473  -31.6623   25.0698 C   0  0  0  0  0  0
  -25.3704  -31.3817   26.1433 C   0  0  0  0  0  0
  -27.0288  -30.3028   24.6140 C   0  0  0  0  0  0
  -27.6031  -32.4363   25.7481 C   0  0  0  0  0  0
  -27.5598  -37.1805   24.8440 C   0  0  0  0  0  0
  -21.4175  -29.3001   22.3758 N   0  0  0  0  0  0
  -26.4302  -37.3808   23.9403 N   0  0  0  0  0  0
  -24.6709  -31.0729   22.1000 N   0  0  0  0  0  0
  -23.4197  -28.8199   23.3086 O   0  0  0  0  0  0
  -28.4069  -26.6638   20.1207 O   0  0  0  0  0  0
  -26.5623  -34.8942   22.4644 O   0  0  0  0  0  0
  -23.5361  -32.1458   23.7447 O   0  0  0  0  0  0
  -30.2048  -23.6952   22.3393 C   0  0  0  0  0  0
  -29.0601  -24.2375   20.5155 C   0  0  0  0  0  0
  -29.3763  -22.0866   21.0570 C   0  0  0  0  0  0
  -30.1701  -17.5530   22.7563 C   0  0  0  0  0  0
  -29.5906  -18.2291   21.5330 C   0  0  2  0  0  0
  -30.4935  -16.9529   21.4147 C   0  0  2  0  0  0
  -30.9416  -24.0966   23.5984 C   0  0  0  0  0  0
  -28.5102  -25.3208   19.5628 C   0  0  0  0  0  0
  -30.0865  -19.6966   21.4131 C   0  0  0  0  0  0
  -29.7433  -24.6739   21.5735 N   0  0  0  0  0  0
  -30.0684  -22.3929   22.1375 N   0  0  0  0  0  0
  -28.8326  -22.9468   20.2037 N   0  0  0  0  0  0
  -29.1985  -20.7218   20.8141 N   0  0  0  0  0  0
  -30.0095  -15.5872   21.2202 N   0  0  0  0  0  0
  -31.4808  -12.4837   19.1842 H   0  0  0  0  0  0
  -30.3550  -11.3682   19.9003 H   0  0  0  0  0  0
  -29.7883  -11.7867   17.4821 H   0  0  0  0  0  0
  -29.6612  -13.5028   17.7984 H   0  0  0  0  0  0
  -27.8680  -11.2884   18.8671 H   0  0  0  0  0  0
  -27.3905  -12.5786   17.8006 H   0  0  0  0  0  0
  -27.6878  -14.2557   19.5457 H   0  0  0  0  0  0
  -28.6781  -12.0249   21.3890 H   0  0  0  0  0  0
  -28.4186  -13.6784   21.8625 H   0  0  0  0  0  0
  -25.2724   -9.5736   22.4760 H   0  0  0  0  0  0
  -24.0022   -7.4658   22.7444 H   0  0  0  0  0  0
  -21.0848   -8.8819   19.8965 H   0  0  0  0  0  0
  -22.3684  -10.9704   19.6187 H   0  0  0  0  0  0
  -21.2078   -7.6171   23.9776 H   0  0  0  0  0  0
  -21.1481   -6.0487   25.9089 H   0  0  0  0  0  0
  -22.0582   -2.7625   23.2799 H   0  0  0  0  0  0
  -22.3971  -12.0074   22.4955 H   0  0  0  0  0  0
  -21.1019  -13.1471   22.2574 H   0  0  0  0  0  0
  -24.6739  -15.8546   20.5021 H   0  0  0  0  0  0
  -26.3006  -15.6168   20.1071 H   0  0  0  0  0  0
  -26.7130  -32.5508   23.1086 H   0  0  0  0  0  0
  -25.0057  -33.9777   25.0402 H   0  0  0  0  0  0
  -22.6886  -31.3029   21.4166 H   0  0  0  0  0  0
  -23.3757  -35.9669   23.3268 H   0  0  0  0  0  0
  -24.3581  -36.8983   22.2046 H   0  0  0  0  0  0
  -23.7257  -37.6522   23.6672 H   0  0  0  0  0  0
  -26.0570  -31.5811   20.6019 H   0  0  0  0  0  0
  -26.8210  -30.8637   21.9946 H   0  0  0  0  0  0
  -28.0977  -29.0450   21.1700 H   0  0  0  0  0  0
  -25.9388  -25.9876   18.9622 H   0  0  0  0  0  0
  -23.9617  -27.3184   19.0210 H   0  0  0  0  0  0
  -23.7236  -30.6011   19.4065 H   0  0  0  0  0  0
  -22.7314  -29.2536   19.8688 H   0  0  0  0  0  0
  -25.1303  -36.1953   25.0797 H   0  0  0  0  0  0
  -20.9901  -28.3210   24.1476 H   0  0  0  0  0  0
  -20.5756  -26.2237   23.3596 H   0  0  0  0  0  0
  -21.6654  -26.7521   22.1174 H   0  0  0  0  0  0
  -19.6952  -25.6302   21.1236 H   0  0  0  0  0  0
  -19.6724  -27.3205   20.6756 H   0  0  0  0  0  0
  -17.4225  -26.6659   21.3990 H   0  0  0  0  0  0
  -18.0326  -26.0067   22.9004 H   0  0  0  0  0  0
  -19.7943  -30.7253   24.2253 H   0  0  0  0  0  0
  -17.5031  -31.6273   24.5157 H   0  0  0  0  0  0
  -15.5346  -30.2993   23.7696 H   0  0  0  0  0  0
  -15.8647  -28.0837   22.7081 H   0  0  0  0  0  0
  -24.5804  -30.7254   25.7759 H   0  0  0  0  0  0
  -24.8994  -32.3048   26.4840 H   0  0  0  0  0  0
  -25.7997  -30.8971   27.0210 H   0  0  0  0  0  0
  -26.2848  -29.6802   24.1159 H   0  0  0  0  0  0
  -27.3961  -29.7265   25.4640 H   0  0  0  0  0  0
  -27.8731  -30.4266   23.9350 H   0  0  0  0  0  0
  -27.2584  -33.3623   26.2094 H   0  0  0  0  0  0
  -28.3825  -32.7002   25.0320 H   0  0  0  0  0  0
  -28.0713  -31.8478   26.5376 H   0  0  0  0  0  0
  -28.2578  -38.0142   24.7548 H   0  0  0  0  0  0
  -28.1128  -36.2671   24.6185 H   0  0  0  0  0  0
  -27.2314  -37.1362   25.8838 H   0  0  0  0  0  0
  -20.9375  -29.8634   21.6887 H   0  0  0  0  0  0
  -26.0178  -38.2872   24.1443 H   0  0  0  0  0  0
  -29.4551  -17.0706   23.4214 H   0  0  0  0  0  0
  -30.9966  -18.0439   23.2743 H   0  0  0  0  0  0
  -28.5144  -18.1063   21.4321 H   0  0  0  0  0  0
  -31.4928  -17.1566   21.0316 H   0  0  0  0  0  0
  -30.2768  -24.6670   24.2464 H   0  0  0  0  0  0
  -31.8130  -24.7047   23.3572 H   0  0  0  0  0  0
  -31.2858  -23.2277   24.1640 H   0  0  0  0  0  0
  -27.5968  -24.9198   19.1425 H   0  0  0  0  0  0
  -29.2076  -25.3872   18.7267 H   0  0  0  0  0  0
  -31.0437  -19.7180   20.8940 H   0  0  0  0  0  0
  -30.2994  -20.0098   22.4357 H   0  0  0  0  0  0
  -28.7337  -20.5026   19.9384 H   0  0  0  0  0  0
  -29.1028  -15.3702   21.5995 H   0  0  0  0  0  0
  1 25  1  0  0  0
  1 30  2  0  0  0
  1 84  1  0  0  0
  2  3  1  0  0  0
  2 25  1  0  0  0
  2 85  1  0  0  0
  2 86  1  0  0  0
  3  4  1  0  0  0
  3 87  1  0  0  0
  3 88  1  0  0  0
  4  5  1  0  0  0
  4 89  1  0  0  0
  4 90  1  0  0  0
  5  6  1  0  0  0
  5 26  1  0  0  0
  5 91  1  0  0  0
  6 25  1  0  0  0
  6 92  1  0  0  0
  6 93  1  0  0  0
  7  8  2  0  0  0
  7 26  1  0  0  0
  7 29  1  0  0  0
  8  9  1  0  0  0
  8 22  1  0  0  0
  9 10  1  0  0  0
  9 27  2  0  0  0
 10 11  2  0  0  0
 10 15  1  0  0  0
 11 12  1  0  0  0
 11 94  1  0  0  0
 12 13  2  0  0  0
 12 95  1  0  0  0
 13 14  1  0  0  0
 13 31  1  0  0  0
 14 15  2  0  0  0
 14 96  1  0  0  0
 15 97  1  0  0  0
 16 17  2  0  0  0
 16 21  1  0  0  0
 16 31  1  0  0  0
 17 18  1  0  0  0
 17 98  1  0  0  0
 18 19  2  0  0  0
 18 99  1  0  0  0
 19 20  1  0  0  0
 19 24  1  0  0  0
 20 21  2  0  0  0
 20100  1  0  0  0
 21 23  1  0  0  0
 22 28  1  0  0  0
 22 32  2  0  0  0
 26 27  1  0  0  0
 28101  1  0  0  0
 28102  1  0  0  0
 29103  1  0  0  0
 29104  1  0  0  0
 33 34  1  0  0  0
 33 66  1  0  0  0
 33 70  2  0  0  0
 34 36  1  0  0  0
 34 59  1  0  0  0
 34105  1  0  0  0
 35 44  2  0  0  0
 35 45  1  0  0  0
 35 68  1  0  0  0
 36 56  1  0  0  0
 36106  1  0  0  0
 37 39  1  0  0  0
 37 47  1  0  0  0
 37 66  1  0  0  0
 37107  1  0  0  0
 38 43  2  0  0  0
 38 46  1  0  0  0
 38 47  1  0  0  0
 39 64  1  0  0  0
 39 67  2  0  0  0
 40 52  1  0  0  0
 40 53  2  0  0  0
 40 58  1  0  0  0
 41108  1  0  0  0
 41109  1  0  0  0
 41110  1  0  0  0
 41 48  1  0  0  0
 42 43  1  0  0  0
 42 66  1  0  0  0
 42111  1  0  0  0
 42112  1  0  0  0
 43 44  1  0  0  0
 44113  1  0  0  0
 45 46  2  0  0  0
 45114  1  0  0  0
 46115  1  0  0  0
 47116  1  0  0  0
 47117  1  0  0  0
 48 56  1  0  0  0
 48 65  1  0  0  0
 48118  1  0  0  0
 49 50  1  0  0  0
 49 53  1  0  0  0
 49 64  1  0  0  0
 49119  1  0  0  0
 50 51  1  0  0  0
 50120  1  0  0  0
 50121  1  0  0  0
 51 52  1  0  0  0
 51122  1  0  0  0
 51123  1  0  0  0
 52124  1  0  0  0
 52125  1  0  0  0
 53 54  1  0  0  0
 54 55  2  0  0  0
 54126  1  0  0  0
 55 57  1  0  0  0
 55127  1  0  0  0
 56 69  2  0  0  0
 57 58  2  0  0  0
 57128  1  0  0  0
 58129  1  0  0  0
 59 60  1  0  0  0
 59 61  1  0  0  0
 59 62  1  0  0  0
 60130  1  0  0  0
 60131  1  0  0  0
 60132  1  0  0  0
 61133  1  0  0  0
 61134  1  0  0  0
 61135  1  0  0  0
 62136  1  0  0  0
 62137  1  0  0  0
 62138  1  0  0  0
 63 65  1  0  0  0
 63139  1  0  0  0
 63140  1  0  0  0
 63141  1  0  0  0
 64142  1  0  0  0
 65143  1  0  0  0
 68 78  1  0  0  0
 71 77  1  0  0  0
 71 80  2  0  0  0
 71 81  1  0  0  0
 72 78  1  0  0  0
 72 80  1  0  0  0
 72 82  2  0  0  0
 73 81  2  0  0  0
 73 82  1  0  0  0
 73 83  1  0  0  0
 74 75  1  0  0  0
 74 76  1  0  0  0
 74144  1  0  0  0
 74145  1  0  0  0
 75 76  1  0  0  0
 75 79  1  0  0  0
 75146  1  0  0  0
 76 84  1  0  0  0
 76147  1  0  0  0
 77148  1  0  0  0
 77149  1  0  0  0
 77150  1  0  0  0
 78151  1  0  0  0
 78152  1  0  0  0
 79 83  1  0  0  0
 79153  1  0  0  0
 79154  1  0  0  0
 83155  1  0  0  0
 84156  1  0  0  0
M  ISO  4   1 100  68 101  78 101  84 100
M  END
> <chiral flag>
0

> <version>
0

> <s_m_source_file>
/data/baiqing/PycharmProjects/Reinvent-master-3.2/result/LINK_invent/BTK/process_docking_weight1_custom_sum_contain_oxygen_bond_distance_aromatic_linkinvent_7_9_3/rearranged_h_0192.sdf

> <i_m_source_file_index>
20

> <r_mmod_Potential_Energy-OPLS-2005>
-721.911987304688

> <r_mmod_Stretch_Energy-OPLS-2005>
51.8752098083496

> <r_mmod_Bend_Energy-OPLS-2005>
133.656448364258

> <r_mmod_Torsional_Energy-OPLS-2005>
252.259063720703

> <r_mmod_Improper_Torsional_Energy-OPLS-2005>
4.0162353515625

> <r_mmod_Van_der_Waal_Energy-OPLS-2005>
183.292495727539

> <r_mmod_Electrostatic_Energy-OPLS-2005>
-1124.37158203125

> <r_mmod_Solvation_Energy-OPLS-2005>
-247.503356933594

> <b_mmod_Minimization_Converged-OPLS-2005>
0

> <r_mmod_RMS_Derivative-OPLS-2005>
5.60254192352295

$$$$
20
                    3D
 Structure written by MMmdl.
159168  0  0  1  0            999 V2000
  -30.5961  -14.8266   20.4511 C   0  0  0  0  0  0
  -30.4311  -12.5144   19.4790 C   0  0  0  0  0  0
  -29.5127  -12.5171   18.2369 C   0  0  0  0  0  0
  -28.0395  -12.3344   18.6486 C   0  0  0  0  0  0
  -27.6341  -13.2459   19.8396 C   0  0  2  0  0  0
  -28.6778  -13.2293   20.9775 C   0  0  0  0  0  0
  -25.2498  -13.8214   20.5743 C   0  0  0  0  0  0
  -24.1788  -13.0445   20.9211 C   0  0  0  0  0  0
  -24.6394  -11.6935   20.8732 C   0  0  0  0  0  0
  -23.9077  -10.4303   21.0386 C   0  0  0  0  0  0
  -24.3627   -9.4234   21.9165 C   0  0  0  0  0  0
  -23.6311   -8.2266   22.0746 C   0  0  0  0  0  0
  -22.4289   -8.0277   21.3541 C   0  0  0  0  0  0
  -21.9924   -9.0255   20.4647 C   0  0  0  0  0  0
  -22.7251  -10.2137   20.3056 C   0  0  0  0  0  0
  -21.6861   -6.0745   22.5280 C   0  0  0  0  0  0
  -21.4010   -6.5647   23.8214 C   0  0  0  0  0  0
  -21.3671   -5.6797   24.9179 C   0  0  0  0  0  0
  -21.6061   -4.3060   24.7219 C   0  0  0  0  0  0
  -21.8820   -3.8158   23.4338 C   0  0  0  0  0  0
  -21.9199   -4.6975   22.3409 C   0  0  0  0  0  0
  -22.7811  -13.5219   21.1867 C   0  0  0  0  0  0
  -22.1655   -4.2156   21.0984 F   0  0  0  0  0  0
  -21.5647   -3.4538   25.7734 F   0  0  0  0  0  0
  -29.9609  -13.6012   20.3748 N   0  0  0  0  0  0
  -26.2892  -12.9445   20.3242 N   0  0  0  0  0  0
  -25.9318  -11.6568   20.5707 N   0  0  0  0  0  0
  -22.0471  -12.8224   22.0431 N   0  0  0  0  0  0
  -25.4233  -15.1951   20.4232 N   0  0  0  0  0  0
  -31.8030  -14.8711   20.1950 O   0  0  0  0  0  0
  -21.6655   -6.8881   21.4235 O   0  0  0  0  0  0
  -22.3511  -14.5526   20.6717 O   0  0  0  0  0  0
  -24.6408  -31.8506   23.1971 C   0  0  0  0  0  0
  -25.9208  -32.4741   23.8339 C   0  0  1  0  0  0
  -27.1852  -27.1664   20.1389 C   0  0  0  0  0  0
  -25.5974  -33.8535   24.2248 N   0  0  0  0  0  0
  -23.4403  -30.4784   21.5396 C   0  0  2  0  0  0
  -24.8829  -28.9185   20.1072 C   0  0  0  0  0  0
  -22.7537  -29.4618   22.4864 C   0  0  0  0  0  0
  -18.0296  -28.1400   22.8461 C   0  0  0  0  0  0
  -24.1498  -36.7276   23.2634 C   0  0  0  0  0  0
  -25.9974  -30.7258   21.3979 C   0  0  0  0  0  0
  -26.0616  -29.3449   20.7333 C   0  0  0  0  0  0
  -27.2182  -28.4838   20.7391 C   0  0  0  0  0  0
  -25.9845  -26.8443   19.4629 C   0  0  0  0  0  0
  -24.8573  -27.6821   19.4545 C   0  0  0  0  0  0
  -23.6645  -29.8203   20.1529 C   0  0  0  0  0  0
  -25.4131  -36.3051   24.0321 C   0  0  1  0  0  0
  -20.5903  -28.3729   23.1220 C   0  0  2  0  0  0
  -20.6787  -26.9451   22.5370 C   0  0  0  0  0  0
  -19.5767  -26.6382   21.5178 C   0  0  0  0  0  0
  -18.1955  -26.7949   22.1601 C   0  0  0  0  0  0
  -19.1556  -28.8879   23.2834 C   0  0  0  0  0  0
  -18.9484  -30.1460   23.8885 C   0  0  0  0  0  0
  -17.6483  -30.6601   24.0548 C   0  0  0  0  0  0
  -25.9064  -34.9422   23.5079 C   0  0  0  0  0  0
  -16.5369  -29.9093   23.6322 C   0  0  0  0  0  0
  -16.7280  -28.6494   23.0373 C   0  0  0  0  0  0
  -26.4538  -31.6597   25.0768 C   0  0  0  0  0  0
  -25.3720  -31.3787   26.1450 C   0  0  0  0  0  0
  -27.0410  -30.2991   24.6346 C   0  0  0  0  0  0
  -27.6067  -32.4357   25.7544 C   0  0  0  0  0  0
  -27.5583  -37.1805   24.8460 C   0  0  0  0  0  0
  -21.4238  -29.3086   22.3616 N   0  0  0  0  0  0
  -26.4284  -37.3762   23.9413 N   0  0  0  0  0  0
  -24.7130  -31.0398   22.1007 N   0  0  0  0  0  0
  -23.4212  -28.8109   23.2962 O   0  0  0  0  0  0
  -28.2226  -26.1780   20.2042 O   0  0  0  0  0  0
  -26.5633  -34.8909   22.4651 O   0  0  0  0  0  0
  -23.5545  -32.1344   23.7231 O   0  0  0  0  0  0
  -26.9626  -19.9535   20.9939 C   0  0  0  0  0  0
  -26.0416  -21.0229   20.9968 C   0  0  0  0  0  0
  -28.1856  -20.4875   20.6829 C   0  0  0  0  0  0
  -30.2790  -17.2454   19.6143 C   0  0  0  0  0  0
  -29.4096  -17.0017   21.4225 C   0  0  0  0  0  0
  -29.1572  -18.0802   20.3027 C   0  0  0  0  0  0
  -24.5573  -20.9699   21.2189 C   0  0  0  0  0  0
  -29.5313  -23.1328   19.0230 C   0  0  0  0  0  0
  -27.8192  -24.6904   20.2334 C   0  0  0  0  0  0
  -28.7288  -23.2863   20.3216 C   0  0  1  0  0  0
  -26.6353  -22.1715   20.7585 N   0  0  0  0  0  0
  -27.9663  -21.9506   20.5708 N   0  0  0  0  0  0
  -29.8394  -16.0140   20.3666 N   0  0  0  0  0  0
  -29.3332  -19.5999   20.5359 N   0  0  0  0  0  0
  -31.4693  -12.6587   19.1700 H   0  0  0  0  0  0
  -30.3958  -11.5493   19.9889 H   0  0  0  0  0  0
  -29.8125  -11.7263   17.5488 H   0  0  0  0  0  0
  -29.6320  -13.4562   17.6974 H   0  0  0  0  0  0
  -27.9040  -11.2876   18.9214 H   0  0  0  0  0  0
  -27.3851  -12.5077   17.7916 H   0  0  0  0  0  0
  -27.6103  -14.2617   19.4416 H   0  0  0  0  0  0
  -28.7364  -12.2492   21.4509 H   0  0  0  0  0  0
  -28.4006  -13.9402   21.7564 H   0  0  0  0  0  0
  -25.2769   -9.5728   22.4729 H   0  0  0  0  0  0
  -24.0039   -7.4673   22.7470 H   0  0  0  0  0  0
  -21.0856   -8.8772   19.8963 H   0  0  0  0  0  0
  -22.3692  -10.9668   19.6164 H   0  0  0  0  0  0
  -21.1973   -7.6136   23.9709 H   0  0  0  0  0  0
  -21.1503   -6.0520   25.9080 H   0  0  0  0  0  0
  -22.0587   -2.7604   23.2834 H   0  0  0  0  0  0
  -22.4060  -11.9874   22.4837 H   0  0  0  0  0  0
  -21.1082  -13.1241   22.2620 H   0  0  0  0  0  0
  -24.6658  -15.8553   20.5562 H   0  0  0  0  0  0
  -26.2906  -15.6363   20.1432 H   0  0  0  0  0  0
  -26.7266  -32.5343   23.1055 H   0  0  0  0  0  0
  -25.0161  -33.9660   25.0414 H   0  0  0  0  0  0
  -22.7390  -31.3030   21.3937 H   0  0  0  0  0  0
  -23.3754  -35.9605   23.3275 H   0  0  0  0  0  0
  -24.3559  -36.8918   22.2044 H   0  0  0  0  0  0
  -23.7256  -37.6472   23.6681 H   0  0  0  0  0  0
  -26.1582  -31.4827   20.6310 H   0  0  0  0  0  0
  -26.8682  -30.7701   22.0385 H   0  0  0  0  0  0
  -28.1105  -28.7946   21.2635 H   0  0  0  0  0  0
  -25.8589  -25.9169   18.9285 H   0  0  0  0  0  0
  -23.9630  -27.3589   18.9407 H   0  0  0  0  0  0
  -23.8135  -30.6014   19.4053 H   0  0  0  0  0  0
  -22.7779  -29.2671   19.8320 H   0  0  0  0  0  0
  -25.1317  -36.1876   25.0810 H   0  0  0  0  0  0
  -20.9980  -28.3328   24.1340 H   0  0  0  0  0  0
  -20.5661  -26.2368   23.3600 H   0  0  0  0  0  0
  -21.6675  -26.7472   22.1203 H   0  0  0  0  0  0
  -19.6939  -25.6271   21.1273 H   0  0  0  0  0  0
  -19.6708  -27.3135   20.6681 H   0  0  0  0  0  0
  -17.4222  -26.6658   21.4006 H   0  0  0  0  0  0
  -18.0374  -26.0089   22.9007 H   0  0  0  0  0  0
  -19.7958  -30.7251   24.2287 H   0  0  0  0  0  0
  -17.5052  -31.6285   24.5158 H   0  0  0  0  0  0
  -15.5379  -30.3011   23.7650 H   0  0  0  0  0  0
  -15.8673  -28.0788   22.7158 H   0  0  0  0  0  0
  -24.5895  -30.7143   25.7772 H   0  0  0  0  0  0
  -24.8900  -32.2963   26.4825 H   0  0  0  0  0  0
  -25.7959  -30.8986   27.0263 H   0  0  0  0  0  0
  -26.3033  -29.6706   24.1339 H   0  0  0  0  0  0
  -27.4009  -29.7304   25.4926 H   0  0  0  0  0  0
  -27.8946  -30.4244   23.9685 H   0  0  0  0  0  0
  -27.2693  -33.3697   26.2054 H   0  0  0  0  0  0
  -28.3922  -32.6856   25.0406 H   0  0  0  0  0  0
  -28.0694  -31.8527   26.5513 H   0  0  0  0  0  0
  -28.2598  -38.0113   24.7512 H   0  0  0  0  0  0
  -28.1096  -36.2632   24.6283 H   0  0  0  0  0  0
  -27.2296  -37.1448   25.8865 H   0  0  0  0  0  0
  -20.9435  -29.8831   21.6827 H   0  0  0  0  0  0
  -26.0152  -38.2823   24.1401 H   0  0  0  0  0  0
  -26.7380  -18.9143   21.1787 H   0  0  0  0  0  0
  -31.2911  -17.5745   19.8644 H   0  0  0  0  0  0
  -30.1600  -17.1853   18.5307 H   0  0  0  0  0  0
  -28.5018  -16.7249   21.9610 H   0  0  0  0  0  0
  -30.2014  -17.2598   22.1282 H   0  0  0  0  0  0
  -28.2124  -17.8910   19.7894 H   0  0  0  0  0  0
  -24.2783  -20.0770   21.7791 H   0  0  0  0  0  0
  -24.0178  -20.9385   20.2709 H   0  0  0  0  0  0
  -24.1959  -21.8336   21.7772 H   0  0  0  0  0  0
  -30.2172  -23.9676   18.8776 H   0  0  0  0  0  0
  -28.8675  -23.0944   18.1561 H   0  0  0  0  0  0
  -30.1148  -22.2121   19.0219 H   0  0  0  0  0  0
  -27.1129  -24.6503   21.0640 H   0  0  0  0  0  0
  -27.2398  -24.5096   19.3315 H   0  0  0  0  0  0
  -29.4357  -23.3898   21.1478 H   0  0  0  0  0  0
  -30.2346  -20.0013   20.2957 H   0  0  0  0  0  0
  1 25  1  0  0  0
  1 30  2  0  0  0
  1 83  1  0  0  0
  2  3  1  0  0  0
  2 25  1  0  0  0
  2 85  1  0  0  0
  2 86  1  0  0  0
  3  4  1  0  0  0
  3 87  1  0  0  0
  3 88  1  0  0  0
  4  5  1  0  0  0
  4 89  1  0  0  0
  4 90  1  0  0  0
  5  6  1  0  0  0
  5 26  1  0  0  0
  5 91  1  0  0  0
  6 25  1  0  0  0
  6 92  1  0  0  0
  6 93  1  0  0  0
  7  8  2  0  0  0
  7 26  1  0  0  0
  7 29  1  0  0  0
  8  9  1  0  0  0
  8 22  1  0  0  0
  9 10  1  0  0  0
  9 27  2  0  0  0
 10 11  2  0  0  0
 10 15  1  0  0  0
 11 12  1  0  0  0
 11 94  1  0  0  0
 12 13  2  0  0  0
 12 95  1  0  0  0
 13 14  1  0  0  0
 13 31  1  0  0  0
 14 15  2  0  0  0
 14 96  1  0  0  0
 15 97  1  0  0  0
 16 17  2  0  0  0
 16 21  1  0  0  0
 16 31  1  0  0  0
 17 18  1  0  0  0
 17 98  1  0  0  0
 18 19  2  0  0  0
 18 99  1  0  0  0
 19 20  1  0  0  0
 19 24  1  0  0  0
 20 21  2  0  0  0
 20100  1  0  0  0
 21 23  1  0  0  0
 22 28  1  0  0  0
 22 32  2  0  0  0
 26 27  1  0  0  0
 28101  1  0  0  0
 28102  1  0  0  0
 29103  1  0  0  0
 29104  1  0  0  0
 33 34  1  0  0  0
 33 66  1  0  0  0
 33 70  2  0  0  0
 34 36  1  0  0  0
 34 59  1  0  0  0
 34105  1  0  0  0
 35 44  2  0  0  0
 35 45  1  0  0  0
 35 68  1  0  0  0
 36 56  1  0  0  0
 36106  1  0  0  0
 37 39  1  0  0  0
 37 47  1  0  0  0
 37 66  1  0  0  0
 37107  1  0  0  0
 38 43  2  0  0  0
 38 46  1  0  0  0
 38 47  1  0  0  0
 39 64  1  0  0  0
 39 67  2  0  0  0
 40 52  1  0  0  0
 40 53  2  0  0  0
 40 58  1  0  0  0
 41108  1  0  0  0
 41109  1  0  0  0
 41110  1  0  0  0
 41 48  1  0  0  0
 42 43  1  0  0  0
 42 66  1  0  0  0
 42111  1  0  0  0
 42112  1  0  0  0
 43 44  1  0  0  0
 44113  1  0  0  0
 45 46  2  0  0  0
 45114  1  0  0  0
 46115  1  0  0  0
 47116  1  0  0  0
 47117  1  0  0  0
 48 56  1  0  0  0
 48 65  1  0  0  0
 48118  1  0  0  0
 49 50  1  0  0  0
 49 53  1  0  0  0
 49 64  1  0  0  0
 49119  1  0  0  0
 50 51  1  0  0  0
 50120  1  0  0  0
 50121  1  0  0  0
 51 52  1  0  0  0
 51122  1  0  0  0
 51123  1  0  0  0
 52124  1  0  0  0
 52125  1  0  0  0
 53 54  1  0  0  0
 54 55  2  0  0  0
 54126  1  0  0  0
 55 57  1  0  0  0
 55127  1  0  0  0
 56 69  2  0  0  0
 57 58  2  0  0  0
 57128  1  0  0  0
 58129  1  0  0  0
 59 60  1  0  0  0
 59 61  1  0  0  0
 59 62  1  0  0  0
 60130  1  0  0  0
 60131  1  0  0  0
 60132  1  0  0  0
 61133  1  0  0  0
 61134  1  0  0  0
 61135  1  0  0  0
 62136  1  0  0  0
 62137  1  0  0  0
 62138  1  0  0  0
 63 65  1  0  0  0
 63139  1  0  0  0
 63140  1  0  0  0
 63141  1  0  0  0
 64142  1  0  0  0
 65143  1  0  0  0
 68 79  1  0  0  0
 71 72  1  0  0  0
 71 73  2  0  0  0
 71144  1  0  0  0
 72 77  1  0  0  0
 72 81  2  0  0  0
 73 82  1  0  0  0
 73 84  1  0  0  0
 74 76  1  0  0  0
 74 83  1  0  0  0
 74145  1  0  0  0
 74146  1  0  0  0
 75 76  1  0  0  0
 75 83  1  0  0  0
 75147  1  0  0  0
 75148  1  0  0  0
 76 84  1  0  0  0
 76149  1  0  0  0
 77150  1  0  0  0
 77151  1  0  0  0
 77152  1  0  0  0
 78153  1  0  0  0
 78154  1  0  0  0
 78155  1  0  0  0
 78 80  1  0  0  0
 79 80  1  0  0  0
 79156  1  0  0  0
 79157  1  0  0  0
 80 82  1  0  0  0
 80158  1  0  0  0
 81 82  1  0  0  0
 84159  1  0  0  0
M  ISO  4   1 100  68 101  79 101  83 100
M  END
> <chiral flag>
0

> <version>
0

> <s_m_source_file>
/data/baiqing/PycharmProjects/Reinvent-master-3.2/result/LINK_invent/BTK/process_docking_weight1_custom_sum_contain_oxygen_bond_distance_aromatic_linkinvent_7_9_3/rearranged_h_0192.sdf

> <i_m_source_file_index>
21

> <r_mmod_Potential_Energy-OPLS-2005>
423.945465087891

> <r_mmod_Stretch_Energy-OPLS-2005>
187.364532470703

> <r_mmod_Bend_Energy-OPLS-2005>
266.026031494141

> <r_mmod_Torsional_Energy-OPLS-2005>
285.855529785156

> <r_mmod_Improper_Torsional_Energy-OPLS-2005>
20.6812381744385

> <r_mmod_Van_der_Waal_Energy-OPLS-2005>
120.749137878418

> <r_mmod_Electrostatic_Energy-OPLS-2005>
-386.708679199219

> <r_mmod_Solvation_Energy-OPLS-2005>
-215.239730834961

> <b_mmod_Minimization_Converged-OPLS-2005>
0

> <r_mmod_RMS_Derivative-OPLS-2005>
4.50844621658325

$$$$
21
                    3D
 Structure written by MMmdl.
166175  0  0  1  0            999 V2000
  -30.6627  -14.4513   20.4635 C   0  0  0  0  0  0
  -30.4344  -12.2761   19.3867 C   0  0  0  0  0  0
  -29.4797  -12.4673   18.1862 C   0  0  0  0  0  0
  -28.0204  -12.2668   18.6417 C   0  0  0  0  0  0
  -27.6588  -13.1657   19.8524 C   0  0  2  0  0  0
  -28.7071  -12.9644   20.9756 C   0  0  0  0  0  0
  -25.2630  -13.8066   20.5646 C   0  0  0  0  0  0
  -24.1822  -13.0406   20.9171 C   0  0  0  0  0  0
  -24.6280  -11.6858   20.8729 C   0  0  0  0  0  0
  -23.8968  -10.4246   21.0403 C   0  0  0  0  0  0
  -24.3576   -9.4155   21.9130 C   0  0  0  0  0  0
  -23.6269   -8.2196   22.0705 C   0  0  0  0  0  0
  -22.4235   -8.0254   21.3529 C   0  0  0  0  0  0
  -21.9814   -9.0225   20.4677 C   0  0  0  0  0  0
  -22.7132  -10.2092   20.3077 C   0  0  0  0  0  0
  -21.6826   -6.0748   22.5292 C   0  0  0  0  0  0
  -21.3994   -6.5657   23.8232 C   0  0  0  0  0  0
  -21.3654   -5.6775   24.9175 C   0  0  0  0  0  0
  -21.6044   -4.3044   24.7210 C   0  0  0  0  0  0
  -21.8818   -3.8163   23.4326 C   0  0  0  0  0  0
  -21.9162   -4.6986   22.3395 C   0  0  0  0  0  0
  -22.7881  -13.5299   21.1821 C   0  0  0  0  0  0
  -22.1641   -4.2191   21.0974 F   0  0  0  0  0  0
  -21.5606   -3.4526   25.7726 F   0  0  0  0  0  0
  -30.0394  -13.2501   20.4116 N   0  0  0  0  0  0
  -26.2981  -12.9122   20.3271 N   0  0  0  0  0  0
  -25.9173  -11.6340   20.5744 N   0  0  0  0  0  0
  -22.0526  -12.8428   22.0480 N   0  0  0  0  0  0
  -25.4299  -15.1780   20.4025 N   0  0  0  0  0  0
  -31.8578  -14.6171   20.2109 O   0  0  0  0  0  0
  -21.6604   -6.8852   21.4239 O   0  0  0  0  0  0
  -22.3582  -14.5569   20.6623 O   0  0  0  0  0  0
  -24.6085  -31.8629   23.1989 C   0  0  0  0  0  0
  -25.8896  -32.4853   23.8340 C   0  0  1  0  0  0
  -27.2158  -27.3820   20.1254 C   0  0  0  0  0  0
  -25.5671  -33.8616   24.2260 N   0  0  0  0  0  0
  -23.4097  -30.4788   21.5365 C   0  0  2  0  0  0
  -24.8630  -28.9451   20.1131 C   0  0  0  0  0  0
  -22.7406  -29.4598   22.4879 C   0  0  0  0  0  0
  -18.0267  -28.1417   22.8461 C   0  0  0  0  0  0
  -24.1453  -36.7361   23.2677 C   0  0  0  0  0  0
  -25.9352  -30.8186   21.3582 C   0  0  0  0  0  0
  -26.0161  -29.4360   20.7366 C   0  0  0  0  0  0
  -27.1919  -28.6504   20.7666 C   0  0  0  0  0  0
  -26.0575  -26.9359   19.4624 C   0  0  0  0  0  0
  -24.8772  -27.6941   19.4745 C   0  0  0  0  0  0
  -23.6298  -29.8112   20.1522 C   0  0  0  0  0  0
  -25.4057  -36.3143   24.0393 C   0  0  1  0  0  0
  -20.5859  -28.3683   23.1326 C   0  0  2  0  0  0
  -20.6696  -26.9365   22.5566 C   0  0  0  0  0  0
  -19.5763  -26.6391   21.5253 C   0  0  0  0  0  0
  -18.1898  -26.7987   22.1545 C   0  0  0  0  0  0
  -19.1533  -28.8852   23.2932 C   0  0  0  0  0  0
  -18.9448  -30.1417   23.9029 C   0  0  0  0  0  0
  -17.6464  -30.6587   24.0600 C   0  0  0  0  0  0
  -25.8987  -34.9512   23.5182 C   0  0  0  0  0  0
  -16.5352  -29.9146   23.6257 C   0  0  0  0  0  0
  -16.7273  -28.6566   23.0269 C   0  0  0  0  0  0
  -26.4377  -31.6614   25.0610 C   0  0  0  0  0  0
  -25.3719  -31.3705   26.1441 C   0  0  0  0  0  0
  -27.0147  -30.3063   24.5884 C   0  0  0  0  0  0
  -27.6016  -32.4398   25.7187 C   0  0  0  0  0  0
  -27.5608  -37.1784   24.8444 C   0  0  0  0  0  0
  -21.4147  -29.3001   22.3665 N   0  0  0  0  0  0
  -26.4258  -37.3819   23.9490 N   0  0  0  0  0  0
  -24.6717  -31.0699   22.0926 N   0  0  0  0  0  0
  -23.4176  -28.8144   23.2978 O   0  0  0  0  0  0
  -28.3582  -26.6125   20.1816 O   0  0  0  0  0  0
  -26.5651  -34.8985   22.4827 O   0  0  0  0  0  0
  -23.5265  -32.1328   23.7340 O   0  0  0  0  0  0
  -30.2620  -16.8078   18.4184 C   0  0  0  0  0  0
  -29.8756  -18.0823   18.1105 C   0  0  0  0  0  0
  -29.7528  -16.6394   19.7547 C   0  0  0  0  0  0
  -27.5878  -20.1962   20.4560 C   0  0  0  0  0  0
  -29.7610  -21.0033   19.6072 C   0  0  0  0  0  0
  -27.0250  -21.6548   20.4011 C   0  0  0  0  0  0
  -29.2298  -22.4485   19.5218 C   0  0  0  0  0  0
  -28.6431  -19.9806   19.3445 C   0  0  1  0  0  0
  -31.0465  -15.9049   17.4717 C   0  0  0  0  0  0
  -30.1226  -18.8387   16.8414 C   0  0  0  0  0  0
  -27.4876  -24.1396   20.3576 C   0  0  0  0  0  0
  -28.3854  -25.2526   19.6787 C   0  0  0  0  0  0
  -29.0903  -17.7062   20.1906 N   0  0  0  0  0  0
  -29.1824  -18.6142   19.1959 N   0  0  0  0  0  0
  -29.8085  -15.4804   20.5643 N   0  0  0  0  0  0
  -28.0742  -22.7383   20.4366 N   0  3  1  0  0  0
  -31.4740  -12.3987   19.0710 H   0  0  0  0  0  0
  -30.3551  -11.2651   19.7839 H   0  0  0  0  0  0
  -29.7235  -11.7634   17.3916 H   0  0  0  0  0  0
  -29.5883  -13.4591   17.7514 H   0  0  0  0  0  0
  -27.9194  -11.2182   18.9313 H   0  0  0  0  0  0
  -27.3206  -12.4121   17.8189 H   0  0  0  0  0  0
  -27.6964  -14.1932   19.4910 H   0  0  0  0  0  0
  -28.6826  -11.9362   21.3434 H   0  0  0  0  0  0
  -28.4890  -13.5984   21.8383 H   0  0  0  0  0  0
  -25.2733   -9.5669   22.4639 H   0  0  0  0  0  0
  -24.0030   -7.4579   22.7379 H   0  0  0  0  0  0
  -21.0717   -8.8740   19.9048 H   0  0  0  0  0  0
  -22.3524  -10.9641   19.6230 H   0  0  0  0  0  0
  -21.2015   -7.6153   23.9762 H   0  0  0  0  0  0
  -21.1465   -6.0491   25.9079 H   0  0  0  0  0  0
  -22.0606   -2.7642   23.2797 H   0  0  0  0  0  0
  -22.4144  -12.0311   22.5221 H   0  0  0  0  0  0
  -21.1160  -13.1553   22.2599 H   0  0  0  0  0  0
  -24.6550  -15.8193   20.5390 H   0  0  0  0  0  0
  -26.2605  -15.6376   20.0532 H   0  0  0  0  0  0
  -26.6953  -32.5608   23.1113 H   0  0  0  0  0  0
  -24.9483  -33.9755   25.0154 H   0  0  0  0  0  0
  -22.6980  -31.2900   21.3804 H   0  0  0  0  0  0
  -23.3715  -35.9694   23.3302 H   0  0  0  0  0  0
  -24.3547  -36.9008   22.2103 H   0  0  0  0  0  0
  -23.7196  -37.6558   23.6705 H   0  0  0  0  0  0
  -26.0074  -31.5460   20.5493 H   0  0  0  0  0  0
  -26.8435  -30.9220   21.9409 H   0  0  0  0  0  0
  -28.0730  -28.9995   21.2957 H   0  0  0  0  0  0
  -26.0339  -26.0110   18.9120 H   0  0  0  0  0  0
  -24.0084  -27.3102   18.9635 H   0  0  0  0  0  0
  -23.7398  -30.5707   19.3777 H   0  0  0  0  0  0
  -22.7671  -29.2093   19.8690 H   0  0  0  0  0  0
  -25.1223  -36.2016   25.0882 H   0  0  0  0  0  0
  -21.0003  -28.3357   24.1428 H   0  0  0  0  0  0
  -20.5370  -26.2347   23.3821 H   0  0  0  0  0  0
  -21.6607  -26.7262   22.1536 H   0  0  0  0  0  0
  -19.6902  -25.6310   21.1274 H   0  0  0  0  0  0
  -19.6792  -27.3217   20.6813 H   0  0  0  0  0  0
  -17.4231  -26.6867   21.3867 H   0  0  0  0  0  0
  -18.0151  -26.0106   22.8890 H   0  0  0  0  0  0
  -19.7917  -30.7164   24.2554 H   0  0  0  0  0  0
  -17.5014  -31.6260   24.5219 H   0  0  0  0  0  0
  -15.5374  -30.3110   23.7470 H   0  0  0  0  0  0
  -15.8658  -28.0962   22.6851 H   0  0  0  0  0  0
  -24.5952  -30.6923   25.7875 H   0  0  0  0  0  0
  -24.8784  -32.2824   26.4821 H   0  0  0  0  0  0
  -25.8165  -30.9011   27.0228 H   0  0  0  0  0  0
  -26.2562  -29.6818   24.1136 H   0  0  0  0  0  0
  -27.4166  -29.7294   25.4220 H   0  0  0  0  0  0
  -27.8305  -30.4406   23.8776 H   0  0  0  0  0  0
  -27.2602  -33.3579   26.1990 H   0  0  0  0  0  0
  -28.3489  -32.7235   24.9754 H   0  0  0  0  0  0
  -28.1082  -31.8468   26.4805 H   0  0  0  0  0  0
  -28.2661  -38.0048   24.7462 H   0  0  0  0  0  0
  -28.1059  -36.2601   24.6197 H   0  0  0  0  0  0
  -27.2411  -37.1415   25.8870 H   0  0  0  0  0  0
  -20.9253  -29.8744   21.6917 H   0  0  0  0  0  0
  -26.0170  -38.2913   24.1521 H   0  0  0  0  0  0
  -26.7630  -19.4847   20.3533 H   0  0  0  0  0  0
  -28.0136  -19.9945   21.4381 H   0  0  0  0  0  0
  -30.2105  -20.8233   20.5838 H   0  0  0  0  0  0
  -30.5847  -20.8963   18.9001 H   0  0  0  0  0  0
  -26.3333  -21.8039   21.2329 H   0  0  0  0  0  0
  -26.4250  -21.7505   19.4936 H   0  0  0  0  0  0
  -28.9645  -22.6739   18.4857 H   0  0  0  0  0  0
  -30.0896  -23.0697   19.7711 H   0  0  0  0  0  0
  -28.1573  -20.2082   18.3946 H   0  0  0  0  0  0
  -31.9887  -16.3757   17.1901 H   0  0  0  0  0  0
  -30.5147  -15.7114   16.5373 H   0  0  0  0  0  0
  -31.3097  -14.9239   17.8576 H   0  0  0  0  0  0
  -30.8237  -18.3122   16.1950 H   0  0  0  0  0  0
  -30.5500  -19.8188   17.0404 H   0  0  0  0  0  0
  -29.2084  -18.9628   16.2659 H   0  0  0  0  0  0
  -26.5193  -24.0846   19.8507 H   0  0  0  0  0  0
  -27.2295  -24.4578   21.3715 H   0  0  0  0  0  0
  -28.2923  -25.2284   18.5884 H   0  0  0  0  0  0
  -29.4287  -25.0239   19.8646 H   0  0  0  0  0  0
  -28.9369  -15.2596   21.0214 H   0  0  0  0  0  0
  -28.4564  -22.6968   21.3733 H   0  0  0  0  0  0
  1 25  1  0  0  0
  1 30  2  0  0  0
  1 85  1  0  0  0
  2  3  1  0  0  0
  2 25  1  0  0  0
  2 87  1  0  0  0
  2 88  1  0  0  0
  3  4  1  0  0  0
  3 89  1  0  0  0
  3 90  1  0  0  0
  4  5  1  0  0  0
  4 91  1  0  0  0
  4 92  1  0  0  0
  5  6  1  0  0  0
  5 26  1  0  0  0
  5 93  1  0  0  0
  6 25  1  0  0  0
  6 94  1  0  0  0
  6 95  1  0  0  0
  7  8  2  0  0  0
  7 26  1  0  0  0
  7 29  1  0  0  0
  8  9  1  0  0  0
  8 22  1  0  0  0
  9 10  1  0  0  0
  9 27  2  0  0  0
 10 11  2  0  0  0
 10 15  1  0  0  0
 11 12  1  0  0  0
 11 96  1  0  0  0
 12 13  2  0  0  0
 12 97  1  0  0  0
 13 14  1  0  0  0
 13 31  1  0  0  0
 14 15  2  0  0  0
 14 98  1  0  0  0
 15 99  1  0  0  0
 16 17  2  0  0  0
 16 21  1  0  0  0
 16 31  1  0  0  0
 17 18  1  0  0  0
 17100  1  0  0  0
 18 19  2  0  0  0
 18101  1  0  0  0
 19 20  1  0  0  0
 19 24  1  0  0  0
 20 21  2  0  0  0
 20102  1  0  0  0
 21 23  1  0  0  0
 22 28  1  0  0  0
 22 32  2  0  0  0
 26 27  1  0  0  0
 28103  1  0  0  0
 28104  1  0  0  0
 29105  1  0  0  0
 29106  1  0  0  0
 33 34  1  0  0  0
 33 66  1  0  0  0
 33 70  2  0  0  0
 34 36  1  0  0  0
 34 59  1  0  0  0
 34107  1  0  0  0
 35 44  2  0  0  0
 35 45  1  0  0  0
 35 68  1  0  0  0
 36 56  1  0  0  0
 36108  1  0  0  0
 37 39  1  0  0  0
 37 47  1  0  0  0
 37 66  1  0  0  0
 37109  1  0  0  0
 38 43  2  0  0  0
 38 46  1  0  0  0
 38 47  1  0  0  0
 39 64  1  0  0  0
 39 67  2  0  0  0
 40 52  1  0  0  0
 40 53  2  0  0  0
 40 58  1  0  0  0
 41110  1  0  0  0
 41111  1  0  0  0
 41112  1  0  0  0
 41 48  1  0  0  0
 42 43  1  0  0  0
 42 66  1  0  0  0
 42113  1  0  0  0
 42114  1  0  0  0
 43 44  1  0  0  0
 44115  1  0  0  0
 45 46  2  0  0  0
 45116  1  0  0  0
 46117  1  0  0  0
 47118  1  0  0  0
 47119  1  0  0  0
 48 56  1  0  0  0
 48 65  1  0  0  0
 48120  1  0  0  0
 49 50  1  0  0  0
 49 53  1  0  0  0
 49 64  1  0  0  0
 49121  1  0  0  0
 50 51  1  0  0  0
 50122  1  0  0  0
 50123  1  0  0  0
 51 52  1  0  0  0
 51124  1  0  0  0
 51125  1  0  0  0
 52126  1  0  0  0
 52127  1  0  0  0
 53 54  1  0  0  0
 54 55  2  0  0  0
 54128  1  0  0  0
 55 57  1  0  0  0
 55129  1  0  0  0
 56 69  2  0  0  0
 57 58  2  0  0  0
 57130  1  0  0  0
 58131  1  0  0  0
 59 60  1  0  0  0
 59 61  1  0  0  0
 59 62  1  0  0  0
 60132  1  0  0  0
 60133  1  0  0  0
 60134  1  0  0  0
 61135  1  0  0  0
 61136  1  0  0  0
 61137  1  0  0  0
 62138  1  0  0  0
 62139  1  0  0  0
 62140  1  0  0  0
 63 65  1  0  0  0
 63141  1  0  0  0
 63142  1  0  0  0
 63143  1  0  0  0
 64144  1  0  0  0
 65145  1  0  0  0
 68 82  1  0  0  0
 71 72  2  0  0  0
 71 73  1  0  0  0
 71 79  1  0  0  0
 72 80  1  0  0  0
 72 84  1  0  0  0
 73 83  2  0  0  0
 73 85  1  0  0  0
 74 76  1  0  0  0
 74 78  1  0  0  0
 74146  1  0  0  0
 74147  1  0  0  0
 75 77  1  0  0  0
 75 78  1  0  0  0
 75148  1  0  0  0
 75149  1  0  0  0
 76 86  1  0  0  0
 76150  1  0  0  0
 76151  1  0  0  0
 77 86  1  0  0  0
 77152  1  0  0  0
 77153  1  0  0  0
 78 84  1  0  0  0
 78154  1  0  0  0
 79155  1  0  0  0
 79156  1  0  0  0
 79157  1  0  0  0
 80158  1  0  0  0
 80159  1  0  0  0
 80160  1  0  0  0
 81 82  1  0  0  0
 81161  1  0  0  0
 81162  1  0  0  0
 81 86  1  0  0  0
 82163  1  0  0  0
 82164  1  0  0  0
 83 84  1  0  0  0
 85165  1  0  0  0
 86166  1  0  0  0
M  CHG  1  86   1
M  ISO  4   1 100  68 101  82 101  85 100
M  END
> <chiral flag>
0

> <version>
0

> <s_m_source_file>
/data/baiqing/PycharmProjects/Reinvent-master-3.2/result/LINK_invent/BTK/process_docking_weight1_custom_sum_contain_oxygen_bond_distance_aromatic_linkinvent_7_9_3/rearranged_h_0192.sdf

> <i_m_source_file_index>
22

> <r_mmod_Potential_Energy-OPLS-2005>
-93.4896926879883

> <r_mmod_Stretch_Energy-OPLS-2005>
47.9467697143555

> <r_mmod_Bend_Energy-OPLS-2005>
144.212936401367

> <r_mmod_Torsional_Energy-OPLS-2005>
295.982421875

> <r_mmod_Improper_Torsional_Energy-OPLS-2005>
7.81622505187988

> <r_mmod_Van_der_Waal_Energy-OPLS-2005>
139.843048095703

> <r_mmod_Electrostatic_Energy-OPLS-2005>
-321.217834472656

> <r_mmod_Solvation_Energy-OPLS-2005>
-436.108215332031

> <b_mmod_Minimization_Converged-OPLS-2005>
0

> <r_mmod_RMS_Derivative-OPLS-2005>
10.2480125427246

$$$$
22
                    3D
 Structure written by MMmdl.
158168  0  0  1  0            999 V2000
  -30.2807  -15.6649   20.3943 C   0  0  0  0  0  0
  -30.4326  -13.1061   19.5539 C   0  0  0  0  0  0
  -29.5602  -12.6873   18.3294 C   0  0  0  0  0  0
  -28.1316  -12.3112   18.7517 C   0  0  0  0  0  0
  -27.6021  -13.2985   19.8102 C   0  0  2  0  0  0
  -28.6144  -13.5739   20.9404 C   0  0  0  0  0  0
  -25.2363  -13.8254   20.5738 C   0  0  0  0  0  0
  -24.1737  -13.0428   20.9257 C   0  0  0  0  0  0
  -24.6418  -11.6930   20.8728 C   0  0  0  0  0  0
  -23.9111  -10.4292   21.0385 C   0  0  0  0  0  0
  -24.3651   -9.4207   21.9171 C   0  0  0  0  0  0
  -23.6315   -8.2247   22.0750 C   0  0  0  0  0  0
  -22.4293   -8.0283   21.3541 C   0  0  0  0  0  0
  -21.9933   -9.0258   20.4640 C   0  0  0  0  0  0
  -22.7276  -10.2131   20.3041 C   0  0  0  0  0  0
  -21.6860   -6.0739   22.5280 C   0  0  0  0  0  0
  -21.4023   -6.5638   23.8216 C   0  0  0  0  0  0
  -21.3664   -5.6785   24.9176 C   0  0  0  0  0  0
  -21.6045   -4.3049   24.7220 C   0  0  0  0  0  0
  -21.8817   -3.8144   23.4340 C   0  0  0  0  0  0
  -21.9196   -4.6966   22.3398 C   0  0  0  0  0  0
  -22.7752  -13.5172   21.1917 C   0  0  0  0  0  0
  -22.1665   -4.2149   21.0977 F   0  0  0  0  0  0
  -21.5629   -3.4534   25.7733 F   0  0  0  0  0  0
  -29.7897  -14.2694   20.3325 N   0  0  0  0  0  0
  -26.2786  -12.9554   20.3127 N   0  0  0  0  0  0
  -25.9356  -11.6644   20.5626 N   0  0  0  0  0  0
  -22.0416  -12.8157   22.0475 N   0  0  0  0  0  0
  -25.3999  -15.1996   20.4203 N   0  0  0  0  0  0
  -31.4885  -15.6335   20.0777 O   0  0  0  0  0  0
  -21.6646   -6.8886   21.4242 O   0  0  0  0  0  0
  -22.3420  -14.5469   20.6753 O   0  0  0  0  0  0
  -24.6899  -31.7976   23.1498 C   0  0  0  0  0  0
  -25.9460  -32.4463   23.8058 C   0  0  1  0  0  0
  -27.2268  -26.6663   20.2023 C   0  0  0  0  0  0
  -25.6022  -33.8289   24.1944 N   0  0  0  0  0  0
  -23.5164  -30.4013   21.5066 C   0  0  2  0  0  0
  -24.9721  -28.7421   20.1199 C   0  0  0  0  0  0
  -22.7796  -29.4309   22.4709 C   0  0  0  0  0  0
  -18.0348  -28.1423   22.8452 C   0  0  0  0  0  0
  -24.1490  -36.7138   23.2652 C   0  0  0  0  0  0
  -26.1018  -30.5194   21.4189 C   0  0  0  0  0  0
  -26.1669  -29.0822   20.7646 C   0  0  0  0  0  0
  -27.2777  -28.0766   20.7704 C   0  0  0  0  0  0
  -25.9850  -26.5507   19.5156 C   0  0  0  0  0  0
  -24.9223  -27.4997   19.4727 C   0  0  0  0  0  0
  -23.7718  -29.7018   20.1421 C   0  0  0  0  0  0
  -25.4145  -36.2893   24.0281 C   0  0  1  0  0  0
  -20.5986  -28.3794   23.1130 C   0  0  2  0  0  0
  -20.6817  -26.9451   22.5399 C   0  0  0  0  0  0
  -19.5788  -26.6369   21.5219 C   0  0  0  0  0  0
  -18.1970  -26.7948   22.1619 C   0  0  0  0  0  0
  -19.1614  -28.8934   23.2769 C   0  0  0  0  0  0
  -18.9520  -30.1515   23.8820 C   0  0  0  0  0  0
  -17.6510  -30.6607   24.0550 C   0  0  0  0  0  0
  -25.9135  -34.9287   23.4951 C   0  0  0  0  0  0
  -16.5399  -29.9089   23.6352 C   0  0  0  0  0  0
  -16.7327  -28.6508   23.0373 C   0  0  0  0  0  0
  -26.4605  -31.6510   25.0699 C   0  0  0  0  0  0
  -25.3645  -31.3850   26.1295 C   0  0  0  0  0  0
  -27.0541  -30.2841   24.6632 C   0  0  0  0  0  0
  -27.6046  -32.4377   25.7524 C   0  0  0  0  0  0
  -27.5560  -37.1729   24.8468 C   0  0  0  0  0  0
  -21.4440  -29.3036   22.3455 N   0  0  0  0  0  0
  -26.4264  -37.3659   23.9413 N   0  0  0  0  0  0
  -24.7937  -30.9386   22.0778 N   0  0  0  0  0  0
  -23.4220  -28.7910   23.3067 O   0  0  0  0  0  0
  -28.1807  -25.4166   20.2706 O   0  0  0  0  0  0
  -26.5765  -34.8871   22.4562 O   0  0  0  0  0  0
  -23.5907  -32.1067   23.6421 O   0  0  0  0  0  0
  -30.4299  -20.5020   19.1221 C   0  0  0  0  0  0
  -29.3408  -20.5397   20.0460 C   0  0  0  0  0  0
  -28.9440  -22.0864   19.9233 C   0  0  0  0  0  0
  -29.0247  -17.7907   22.9667 C   0  0  0  0  0  0
  -29.2657  -19.0924   22.2416 C   0  0  0  0  0  0
  -27.7732  -23.8263   18.5135 C   0  0  0  0  0  0
  -29.1707  -23.5033   17.9607 C   0  0  0  0  0  0
  -28.7429  -16.7174   21.9170 C   0  0  0  0  0  0
  -29.1435  -18.8066   20.7504 C   0  0  1  0  0  0
  -27.9206  -23.6662   20.0428 C   0  0  2  0  0  0
  -26.6271  -23.3381   20.7997 C   0  0  0  0  0  0
  -30.5530  -21.5469   18.3336 N   0  0  0  0  0  0
  -29.6067  -22.3903   18.7613 N   0  0  0  0  0  0
  -29.4840  -17.0066   20.6688 N   0  0  0  0  0  0
  -31.4196  -13.3859   19.1854 H   0  0  0  0  0  0
  -30.6194  -12.2486   20.2030 H   0  0  0  0  0  0
  -30.0249  -11.8603   17.7904 H   0  0  0  0  0  0
  -29.5176  -13.5223   17.6290 H   0  0  0  0  0  0
  -28.1575  -11.3053   19.1718 H   0  0  0  0  0  0
  -27.4671  -12.2713   17.8872 H   0  0  0  0  0  0
  -27.4799  -14.2384   19.2701 H   0  0  0  0  0  0
  -28.8893  -12.6539   21.4581 H   0  0  0  0  0  0
  -28.1096  -14.1693   21.6915 H   0  0  0  0  0  0
  -25.2795   -9.5683   22.4749 H   0  0  0  0  0  0
  -24.0021   -7.4636   22.7469 H   0  0  0  0  0  0
  -21.0864   -8.8774   19.8944 H   0  0  0  0  0  0
  -22.3730  -10.9665   19.6145 H   0  0  0  0  0  0
  -21.2018   -7.6145   23.9723 H   0  0  0  0  0  0
  -21.1494   -6.0513   25.9079 H   0  0  0  0  0  0
  -22.0593   -2.7606   23.2836 H   0  0  0  0  0  0
  -22.4054  -11.9827   22.4865 H   0  0  0  0  0  0
  -21.1020  -13.1149   22.2674 H   0  0  0  0  0  0
  -24.6298  -15.8498   20.5345 H   0  0  0  0  0  0
  -26.2444  -15.6399   20.0806 H   0  0  0  0  0  0
  -26.7556  -32.4925   23.0781 H   0  0  0  0  0  0
  -25.0106  -33.9329   25.0058 H   0  0  0  0  0  0
  -22.8441  -31.2406   21.3166 H   0  0  0  0  0  0
  -23.3781  -35.9438   23.3267 H   0  0  0  0  0  0
  -24.3556  -36.8845   22.2076 H   0  0  0  0  0  0
  -23.7218  -37.6292   23.6758 H   0  0  0  0  0  0
  -26.3104  -31.2437   20.6299 H   0  0  0  0  0  0
  -26.9507  -30.5857   22.0871 H   0  0  0  0  0  0
  -28.1768  -28.3494   21.3047 H   0  0  0  0  0  0
  -25.7548  -25.6168   19.0297 H   0  0  0  0  0  0
  -24.0171  -27.2222   18.9496 H   0  0  0  0  0  0
  -23.9532  -30.4638   19.3831 H   0  0  0  0  0  0
  -22.8749  -29.1735   19.8138 H   0  0  0  0  0  0
  -25.1354  -36.1647   25.0768 H   0  0  0  0  0  0
  -21.0069  -28.3414   24.1256 H   0  0  0  0  0  0
  -20.5684  -26.2422   23.3664 H   0  0  0  0  0  0
  -21.6676  -26.7387   22.1214 H   0  0  0  0  0  0
  -19.6946  -25.6258   21.1300 H   0  0  0  0  0  0
  -19.6727  -27.3138   20.6714 H   0  0  0  0  0  0
  -17.4241  -26.6697   21.4020 H   0  0  0  0  0  0
  -18.0352  -26.0110   22.9032 H   0  0  0  0  0  0
  -19.7999  -30.7349   24.2152 H   0  0  0  0  0  0
  -17.5065  -31.6281   24.5167 H   0  0  0  0  0  0
  -15.5398  -30.2971   23.7723 H   0  0  0  0  0  0
  -15.8723  -28.0804   22.7135 H   0  0  0  0  0  0
  -24.5861  -30.7170   25.7587 H   0  0  0  0  0  0
  -24.8798  -32.3082   26.4486 H   0  0  0  0  0  0
  -25.7794  -30.9162   27.0227 H   0  0  0  0  0  0
  -26.3271  -29.6443   24.1618 H   0  0  0  0  0  0
  -27.3945  -29.7307   25.5395 H   0  0  0  0  0  0
  -27.9259  -30.3959   24.0183 H   0  0  0  0  0  0
  -27.2585  -33.3760   26.1873 H   0  0  0  0  0  0
  -28.3970  -32.6805   25.0432 H   0  0  0  0  0  0
  -28.0585  -31.8654   26.5625 H   0  0  0  0  0  0
  -28.2545  -38.0057   24.7524 H   0  0  0  0  0  0
  -28.1084  -36.2576   24.6278 H   0  0  0  0  0  0
  -27.2276  -37.1350   25.8872 H   0  0  0  0  0  0
  -20.9763  -29.8696   21.6515 H   0  0  0  0  0  0
  -26.0084  -38.2700   24.1440 H   0  0  0  0  0  0
  -31.0691  -19.6543   18.9159 H   0  0  0  0  0  0
  -28.2022  -17.8697   23.6791 H   0  0  0  0  0  0
  -29.9159  -17.5280   23.5396 H   0  0  0  0  0  0
  -30.2616  -19.4757   22.4712 H   0  0  0  0  0  0
  -28.5478  -19.8520   22.5549 H   0  0  0  0  0  0
  -27.0665  -23.0877   18.1325 H   0  0  0  0  0  0
  -27.4485  -24.7946   18.1476 H   0  0  0  0  0  0
  -29.8619  -24.3355   18.0985 H   0  0  0  0  0  0
  -29.1414  -23.2332   16.9040 H   0  0  0  0  0  0
  -27.6764  -16.6519   21.6977 H   0  0  0  0  0  0
  -29.0280  -15.8041   22.4364 H   0  0  0  0  0  0
  -28.0730  -18.6890   20.5677 H   0  0  0  0  0  0
  -25.8976  -24.1423   20.7638 H   0  0  0  0  0  0
  -26.8449  -23.1413   21.8490 H   0  0  0  0  0  0
  -26.1544  -22.4438   20.3929 H   0  0  0  0  0  0
  1 25  1  0  0  0
  1 30  2  0  0  0
  1 84  1  0  0  0
  2  3  1  0  0  0
  2 25  1  0  0  0
  2 85  1  0  0  0
  2 86  1  0  0  0
  3  4  1  0  0  0
  3 87  1  0  0  0
  3 88  1  0  0  0
  4  5  1  0  0  0
  4 89  1  0  0  0
  4 90  1  0  0  0
  5  6  1  0  0  0
  5 26  1  0  0  0
  5 91  1  0  0  0
  6 25  1  0  0  0
  6 92  1  0  0  0
  6 93  1  0  0  0
  7  8  2  0  0  0
  7 26  1  0  0  0
  7 29  1  0  0  0
  8  9  1  0  0  0
  8 22  1  0  0  0
  9 10  1  0  0  0
  9 27  2  0  0  0
 10 11  2  0  0  0
 10 15  1  0  0  0
 11 12  1  0  0  0
 11 94  1  0  0  0
 12 13  2  0  0  0
 12 95  1  0  0  0
 13 14  1  0  0  0
 13 31  1  0  0  0
 14 15  2  0  0  0
 14 96  1  0  0  0
 15 97  1  0  0  0
 16 17  2  0  0  0
 16 21  1  0  0  0
 16 31  1  0  0  0
 17 18  1  0  0  0
 17 98  1  0  0  0
 18 19  2  0  0  0
 18 99  1  0  0  0
 19 20  1  0  0  0
 19 24  1  0  0  0
 20 21  2  0  0  0
 20100  1  0  0  0
 21 23  1  0  0  0
 22 28  1  0  0  0
 22 32  2  0  0  0
 26 27  1  0  0  0
 28101  1  0  0  0
 28102  1  0  0  0
 29103  1  0  0  0
 29104  1  0  0  0
 33 34  1  0  0  0
 33 66  1  0  0  0
 33 70  2  0  0  0
 34 36  1  0  0  0
 34 59  1  0  0  0
 34105  1  0  0  0
 35 44  2  0  0  0
 35 45  1  0  0  0
 35 68  1  0  0  0
 36 56  1  0  0  0
 36106  1  0  0  0
 37 39  1  0  0  0
 37 47  1  0  0  0
 37 66  1  0  0  0
 37107  1  0  0  0
 38 43  2  0  0  0
 38 46  1  0  0  0
 38 47  1  0  0  0
 39 64  1  0  0  0
 39 67  2  0  0  0
 40 52  1  0  0  0
 40 53  2  0  0  0
 40 58  1  0  0  0
 41108  1  0  0  0
 41109  1  0  0  0
 41110  1  0  0  0
 41 48  1  0  0  0
 42 43  1  0  0  0
 42 66  1  0  0  0
 42111  1  0  0  0
 42112  1  0  0  0
 43 44  1  0  0  0
 44113  1  0  0  0
 45 46  2  0  0  0
 45114  1  0  0  0
 46115  1  0  0  0
 47116  1  0  0  0
 47117  1  0  0  0
 48 56  1  0  0  0
 48 65  1  0  0  0
 48118  1  0  0  0
 49 50  1  0  0  0
 49 53  1  0  0  0
 49 64  1  0  0  0
 49119  1  0  0  0
 50 51  1  0  0  0
 50120  1  0  0  0
 50121  1  0  0  0
 51 52  1  0  0  0
 51122  1  0  0  0
 51123  1  0  0  0
 52124  1  0  0  0
 52125  1  0  0  0
 53 54  1  0  0  0
 54 55  2  0  0  0
 54126  1  0  0  0
 55 57  1  0  0  0
 55127  1  0  0  0
 56 69  2  0  0  0
 57 58  2  0  0  0
 57128  1  0  0  0
 58129  1  0  0  0
 59 60  1  0  0  0
 59 61  1  0  0  0
 59 62  1  0  0  0
 60130  1  0  0  0
 60131  1  0  0  0
 60132  1  0  0  0
 61133  1  0  0  0
 61134  1  0  0  0
 61135  1  0  0  0
 62136  1  0  0  0
 62137  1  0  0  0
 62138  1  0  0  0
 63 65  1  0  0  0
 63139  1  0  0  0
 63140  1  0  0  0
 63141  1  0  0  0
 64142  1  0  0  0
 65143  1  0  0  0
 68 80  1  0  0  0
 71 72  1  0  0  0
 71 82  2  0  0  0
 71144  1  0  0  0
 72 73  2  0  0  0
 72 79  1  0  0  0
 73 80  1  0  0  0
 73 83  1  0  0  0
 74 75  1  0  0  0
 74 78  1  0  0  0
 74145  1  0  0  0
 74146  1  0  0  0
 75 79  1  0  0  0
 75147  1  0  0  0
 75148  1  0  0  0
 76 77  1  0  0  0
 76 80  1  0  0  0
 76149  1  0  0  0
 76150  1  0  0  0
 77 83  1  0  0  0
 77151  1  0  0  0
 77152  1  0  0  0
 78 84  1  0  0  0
 78153  1  0  0  0
 78154  1  0  0  0
 79 84  1  0  0  0
 79155  1  0  0  0
 80 81  1  0  0  0
 81156  1  0  0  0
 81157  1  0  0  0
 81158  1  0  0  0
 82 83  1  0  0  0
M  ISO  4   1 100  68 101  80 101  84 100
M  END
> <chiral flag>
0

> <version>
0

> <s_m_source_file>
/data/baiqing/PycharmProjects/Reinvent-master-3.2/result/LINK_invent/BTK/process_docking_weight1_custom_sum_contain_oxygen_bond_distance_aromatic_linkinvent_7_9_3/rearranged_h_0192.sdf

> <i_m_source_file_index>
23

> <r_mmod_Potential_Energy-OPLS-2005>
3179.267578125

> <r_mmod_Stretch_Energy-OPLS-2005>
1255.71508789062

> <r_mmod_Bend_Energy-OPLS-2005>
991.941955566406

> <r_mmod_Torsional_Energy-OPLS-2005>
353.957183837891

> <r_mmod_Improper_Torsional_Energy-OPLS-2005>
7.57613182067871

> <r_mmod_Van_der_Waal_Energy-OPLS-2005>
120.586982727051

> <r_mmod_Electrostatic_Energy-OPLS-2005>
-275.726348876953

> <r_mmod_Solvation_Energy-OPLS-2005>
-221.225082397461

> <b_mmod_Minimization_Converged-OPLS-2005>
0

> <r_mmod_RMS_Derivative-OPLS-2005>
1.11576676368713

$$$$
23
                    3D
 Structure written by MMmdl.
161170  0  0  1  0            999 V2000
  -29.5189  -15.6586   20.6827 C   0  0  0  0  0  0
  -30.2867  -13.3073   19.6502 C   0  0  0  0  0  0
  -29.5173  -12.7083   18.4177 C   0  0  0  0  0  0
  -28.1265  -12.2053   18.8117 C   0  0  0  0  0  0
  -27.4907  -13.1950   19.8129 C   0  0  2  0  0  0
  -28.3818  -13.4259   21.0326 C   0  0  0  0  0  0
  -25.1633  -13.7272   20.5317 C   0  0  0  0  0  0
  -24.1131  -12.9787   20.9270 C   0  0  0  0  0  0
  -24.5863  -11.6359   20.8804 C   0  0  0  0  0  0
  -23.8681  -10.3898   21.0528 C   0  0  0  0  0  0
  -24.3390   -9.3911   21.9286 C   0  0  0  0  0  0
  -23.6129   -8.1954   22.0785 C   0  0  0  0  0  0
  -22.4118   -8.0036   21.3540 C   0  0  0  0  0  0
  -21.9673   -8.9957   20.4641 C   0  0  0  0  0  0
  -22.6932  -10.1824   20.3094 C   0  0  0  0  0  0
  -21.6732   -6.0625   22.5301 C   0  0  0  0  0  0
  -21.3949   -6.5571   23.8227 C   0  0  0  0  0  0
  -21.3657   -5.6738   24.9202 C   0  0  0  0  0  0
  -21.6049   -4.3003   24.7251 C   0  0  0  0  0  0
  -21.8835   -3.8085   23.4376 C   0  0  0  0  0  0
  -21.9161   -4.6886   22.3426 C   0  0  0  0  0  0
  -22.7276  -13.4818   21.2037 C   0  0  0  0  0  0
  -22.1648   -4.2065   21.1006 F   0  0  0  0  0  0
  -21.5647   -3.4519   25.7781 F   0  0  0  0  0  0
  -29.4098  -14.2416   20.4817 N   0  0  0  0  0  0
  -26.1810  -12.8523   20.2588 N   0  0  0  0  0  0
  -25.8686  -11.5772   20.5552 N   0  0  0  0  0  0
  -21.9960  -12.7930   22.0716 N   0  0  0  0  0  0
  -25.3098  -15.0723   20.3449 N   0  0  0  0  0  0
  -30.7522  -15.8852   20.5231 O   0  0  0  0  0  0
  -21.6483   -6.8673   21.4232 O   0  0  0  0  0  0
  -22.3127  -14.5253   20.6942 O   0  0  0  0  0  0
  -24.6553  -32.0010   23.1832 C   0  0  0  0  0  0
  -25.9565  -32.5090   23.8539 C   0  0  1  0  0  0
  -26.0352  -27.0414   20.4989 C   0  0  0  0  0  0
  -25.6577  -33.8829   24.2625 N   0  0  0  0  0  0
  -23.4237  -30.8147   21.4727 C   0  0  2  0  0  0
  -24.6659  -29.2027   19.8652 C   0  0  0  0  0  0
  -23.1036  -29.6469   22.4823 C   0  0  0  0  0  0
  -18.8833  -27.6811   22.3096 C   0  0  0  0  0  0
  -24.1555  -36.7282   23.2595 C   0  0  0  0  0  0
  -25.9325  -30.7438   21.3938 C   0  0  0  0  0  0
  -25.7739  -29.3723   20.7119 C   0  0  0  0  0  0
  -26.4046  -28.2153   21.1557 C   0  0  0  0  0  0
  -25.5537  -27.0488   19.2298 C   0  0  0  0  0  0
  -24.5807  -28.0334   19.0740 C   0  0  0  0  0  0
  -23.6010  -30.2992   19.9884 C   0  0  0  0  0  0
  -25.4185  -36.3152   24.0334 C   0  0  1  0  0  0
  -21.4174  -28.2667   23.6449 C   0  0  2  0  0  0
  -22.3105  -26.9830   23.3706 C   0  0  0  0  0  0
  -20.5088  -25.3960   20.7820 C   0  0  0  0  0  0
  -19.1039  -26.2981   21.1854 C   0  0  0  0  0  0
  -19.8373  -28.4254   23.2202 C   0  0  0  0  0  0
  -19.3896  -29.7026   23.7045 C   0  0  0  0  0  0
  -18.1564  -30.3114   23.5423 C   0  0  0  0  0  0
  -25.9251  -34.9582   23.5178 C   0  0  0  0  0  0
  -17.1716  -29.4904   23.0160 C   0  0  0  0  0  0
  -17.5462  -28.2227   22.4525 C   0  0  0  0  0  0
  -26.4556  -31.6560   25.0936 C   0  0  0  0  0  0
  -25.3662  -31.3683   26.1528 C   0  0  0  0  0  0
  -27.0185  -30.2875   24.6446 C   0  0  0  0  0  0
  -27.6156  -32.4102   25.7836 C   0  0  0  0  0  0
  -27.5611  -37.1864   24.8471 C   0  0  0  0  0  0
  -21.8620  -29.3704   22.8808 N   0  0  0  0  0  0
  -26.4312  -37.3867   23.9448 N   0  0  0  0  0  0
  -24.7108  -31.3086   22.0050 N   0  0  0  0  0  0
  -24.0074  -29.0942   23.0537 O   0  0  0  0  0  0
  -25.4369  -25.9380   21.1535 O   0  0  0  0  0  0
  -26.5541  -34.8969   22.4588 O   0  0  0  0  0  0
  -23.5800  -32.2665   23.7625 O   0  0  0  0  0  0
  -21.1318  -25.3970   22.7189 C   0  0  0  0  0  0
  -21.6391  -27.1586   21.3097 C   0  0  0  0  0  0
  -22.4552  -24.3222   22.4532 C   0  0  0  0  0  0
  -23.9199  -25.7986   21.2916 C   0  0  0  0  0  0
  -27.1296  -17.5743   20.3166 C   0  0  0  0  0  0
  -27.9418  -17.8725   22.0735 C   0  0  0  0  0  0
  -26.9705  -19.0062   21.2028 C   0  0  0  0  0  0
  -19.9499  -25.5773   24.0382 C   0  0  0  0  0  0
  -20.9043  -28.1266   20.2594 C   0  0  0  0  0  0
  -23.1572  -22.6248   21.9536 C   0  0  0  0  0  0
  -25.4049  -20.1724   21.6627 C   0  0  0  0  0  0
  -22.9730  -26.8430   20.8893 N   0  0  0  0  0  0
  -23.5621  -24.6124   21.8330 N   0  0  0  0  0  0
  -28.3589  -16.7411   20.9963 N   0  0  0  0  0  0
  -24.7741  -21.8519   21.5292 N   0  3  0  0  0  0
  -31.0999  -13.9151   19.2280 H   0  0  0  0  0  0
  -30.7698  -12.5746   20.2961 H   0  0  0  0  0  0
  -30.1374  -11.9390   17.9547 H   0  0  0  0  0  0
  -29.4049  -13.5036   17.6711 H   0  0  0  0  0  0
  -28.2505  -11.2371   19.2992 H   0  0  0  0  0  0
  -27.5062  -12.0474   17.9375 H   0  0  0  0  0  0
  -27.3706  -14.1131   19.2514 H   0  0  0  0  0  0
  -28.7342  -12.4865   21.4817 H   0  0  0  0  0  0
  -27.8210  -13.9564   21.8057 H   0  0  0  0  0  0
  -25.2530   -9.5441   22.4844 H   0  0  0  0  0  0
  -23.9849   -7.4318   22.7448 H   0  0  0  0  0  0
  -21.0643   -8.8445   19.8912 H   0  0  0  0  0  0
  -22.3442  -10.9392   19.6221 H   0  0  0  0  0  0
  -21.1919   -7.6084   23.9697 H   0  0  0  0  0  0
  -21.1487   -6.0494   25.9100 H   0  0  0  0  0  0
  -22.0630   -2.7543   23.2902 H   0  0  0  0  0  0
  -22.3534  -11.9537   22.5008 H   0  0  0  0  0  0
  -21.0650  -13.1067   22.3058 H   0  0  0  0  0  0
  -24.5680  -15.7309   20.5549 H   0  0  0  0  0  0
  -26.1746  -15.5002   20.0441 H   0  0  0  0  0  0
  -26.7653  -32.5413   23.1221 H   0  0  0  0  0  0
  -25.0911  -34.0003   25.0877 H   0  0  0  0  0  0
  -22.6729  -31.6161   21.5220 H   0  0  0  0  0  0
  -23.3835  -35.9588   23.3250 H   0  0  0  0  0  0
  -24.3661  -36.8899   22.2011 H   0  0  0  0  0  0
  -23.7265  -37.6471   23.6599 H   0  0  0  0  0  0
  -26.2529  -31.4204   20.6038 H   0  0  0  0  0  0
  -26.7270  -30.6712   22.1207 H   0  0  0  0  0  0
  -26.5479  -28.1734   22.2136 H   0  0  0  0  0  0
  -25.5241  -26.2022   18.5720 H   0  0  0  0  0  0
  -23.7147  -27.9160   18.4398 H   0  0  0  0  0  0
  -23.9429  -31.1346   19.3864 H   0  0  0  0  0  0
  -22.6084  -30.1225   19.5581 H   0  0  0  0  0  0
  -25.1318  -36.2021   25.0813 H   0  0  0  0  0  0
  -21.7449  -28.4760   24.7057 H   0  0  0  0  0  0
  -22.6182  -26.6299   24.3450 H   0  0  0  0  0  0
  -23.4389  -27.1044   23.5155 H   0  0  0  0  0  0
  -20.6988  -24.3870   20.5151 H   0  0  0  0  0  0
  -20.8762  -25.6293   19.7784 H   0  0  0  0  0  0
  -18.8603  -26.6051   20.1791 H   0  0  0  0  0  0
  -18.3879  -25.5257   21.2241 H   0  0  0  0  0  0
  -20.1548  -30.3405   24.0856 H   0  0  0  0  0  0
  -18.3473  -31.3722   23.7819 H   0  0  0  0  0  0
  -16.2119  -29.8308   22.8173 H   0  0  0  0  0  0
  -17.0485  -27.4459   21.9111 H   0  0  0  0  0  0
  -24.5904  -30.7030   25.7710 H   0  0  0  0  0  0
  -24.8808  -32.2802   26.4996 H   0  0  0  0  0  0
  -25.7909  -30.8788   27.0300 H   0  0  0  0  0  0
  -26.2593  -29.6847   24.1496 H   0  0  0  0  0  0
  -27.3564  -29.7009   25.4991 H   0  0  0  0  0  0
  -27.8735  -30.3886   23.9763 H   0  0  0  0  0  0
  -27.2824  -33.3338   26.2561 H   0  0  0  0  0  0
  -28.3982  -32.6723   25.0713 H   0  0  0  0  0  0
  -28.0782  -31.8103   26.5669 H   0  0  0  0  0  0
  -28.2560  -38.0219   24.7605 H   0  0  0  0  0  0
  -28.1197  -36.2761   24.6217 H   0  0  0  0  0  0
  -27.2334  -37.1373   25.8864 H   0  0  0  0  0  0
  -21.3972  -30.1975   23.2613 H   0  0  0  0  0  0
  -26.0173  -38.2921   24.1467 H   0  0  0  0  0  0
  -27.2041  -17.7239   19.2369 H   0  0  0  0  0  0
  -26.1528  -17.1758   20.5149 H   0  0  0  0  0  0
  -27.3913  -17.4065   22.8979 H   0  0  0  0  0  0
  -28.8065  -18.3427   22.5335 H   0  0  0  0  0  0
  -27.7115  -19.6499   20.7589 H   0  0  0  0  0  0
  -18.9745  -26.0402   23.8980 H   0  0  0  0  0  0
  -20.0518  -26.2716   24.8685 H   0  0  0  0  0  0
  -19.5474  -24.6601   24.3674 H   0  0  0  0  0  0
  -20.6859  -29.2456   20.3465 H   0  0  0  0  0  0
  -19.9951  -28.0611   19.6939 H   0  0  0  0  0  0
  -21.3950  -27.9987   19.2779 H   0  0  0  0  0  0
  -22.4242  -22.1265   21.3070 H   0  0  0  0  0  0
  -23.2483  -22.2773   22.9642 H   0  0  0  0  0  0
  -25.3860  -20.1264   22.7405 H   0  0  0  0  0  0
  -24.5475  -19.5706   21.3696 H   0  0  0  0  0  0
  -25.4820  -22.4164   21.9394 H   0  0  0  0  0  0
  -25.0362  -22.0520   20.5796 H   0  0  0  0  0  0
  1 25  1  0  0  0
  1 30  2  0  0  0
  1 84  1  0  0  0
  2  3  1  0  0  0
  2 25  1  0  0  0
  2 86  1  0  0  0
  2 87  1  0  0  0
  3  4  1  0  0  0
  3 88  1  0  0  0
  3 89  1  0  0  0
  4  5  1  0  0  0
  4 90  1  0  0  0
  4 91  1  0  0  0
  5  6  1  0  0  0
  5 26  1  0  0  0
  5 92  1  0  0  0
  6 25  1  0  0  0
  6 93  1  0  0  0
  6 94  1  0  0  0
  7  8  2  0  0  0
  7 26  1  0  0  0
  7 29  1  0  0  0
  8  9  1  0  0  0
  8 22  1  0  0  0
  9 10  1  0  0  0
  9 27  2  0  0  0
 10 11  2  0  0  0
 10 15  1  0  0  0
 11 12  1  0  0  0
 11 95  1  0  0  0
 12 13  2  0  0  0
 12 96  1  0  0  0
 13 14  1  0  0  0
 13 31  1  0  0  0
 14 15  2  0  0  0
 14 97  1  0  0  0
 15 98  1  0  0  0
 16 17  2  0  0  0
 16 21  1  0  0  0
 16 31  1  0  0  0
 17 18  1  0  0  0
 17 99  1  0  0  0
 18 19  2  0  0  0
 18100  1  0  0  0
 19 20  1  0  0  0
 19 24  1  0  0  0
 20 21  2  0  0  0
 20101  1  0  0  0
 21 23  1  0  0  0
 22 28  1  0  0  0
 22 32  2  0  0  0
 26 27  1  0  0  0
 28102  1  0  0  0
 28103  1  0  0  0
 29104  1  0  0  0
 29105  1  0  0  0
 33 34  1  0  0  0
 33 66  1  0  0  0
 33 70  2  0  0  0
 34 36  1  0  0  0
 34 59  1  0  0  0
 34106  1  0  0  0
 35 44  2  0  0  0
 35 45  1  0  0  0
 35 68  1  0  0  0
 36 56  1  0  0  0
 36107  1  0  0  0
 37 39  1  0  0  0
 37 47  1  0  0  0
 37 66  1  0  0  0
 37108  1  0  0  0
 38 43  2  0  0  0
 38 46  1  0  0  0
 38 47  1  0  0  0
 39 64  1  0  0  0
 39 67  2  0  0  0
 40 52  1  0  0  0
 40 53  2  0  0  0
 40 58  1  0  0  0
 41109  1  0  0  0
 41110  1  0  0  0
 41111  1  0  0  0
 41 48  1  0  0  0
 42 43  1  0  0  0
 42 66  1  0  0  0
 42112  1  0  0  0
 42113  1  0  0  0
 43 44  1  0  0  0
 44114  1  0  0  0
 45 46  2  0  0  0
 45115  1  0  0  0
 46116  1  0  0  0
 47117  1  0  0  0
 47118  1  0  0  0
 48 56  1  0  0  0
 48 65  1  0  0  0
 48119  1  0  0  0
 49 50  1  0  0  0
 49 53  1  0  0  0
 49 64  1  0  0  0
 49120  1  0  0  0
 50 51  1  0  0  0
 50121  1  0  0  0
 50122  1  0  0  0
 51 52  1  0  0  0
 51123  1  0  0  0
 51124  1  0  0  0
 52125  1  0  0  0
 52126  1  0  0  0
 53 54  1  0  0  0
 54 55  2  0  0  0
 54127  1  0  0  0
 55 57  1  0  0  0
 55128  1  0  0  0
 56 69  2  0  0  0
 57 58  2  0  0  0
 57129  1  0  0  0
 58130  1  0  0  0
 59 60  1  0  0  0
 59 61  1  0  0  0
 59 62  1  0  0  0
 60131  1  0  0  0
 60132  1  0  0  0
 60133  1  0  0  0
 61134  1  0  0  0
 61135  1  0  0  0
 61136  1  0  0  0
 62137  1  0  0  0
 62138  1  0  0  0
 62139  1  0  0  0
 63 65  1  0  0  0
 63140  1  0  0  0
 63141  1  0  0  0
 63142  1  0  0  0
 64143  1  0  0  0
 65144  1  0  0  0
 68 74  1  0  0  0
 71 72  2  0  0  0
 71 73  1  0  0  0
 71 78  1  0  0  0
 72 79  1  0  0  0
 72 82  1  0  0  0
 73 80  1  0  0  0
 73 83  2  0  0  0
 74 82  2  0  0  0
 74 83  1  0  0  0
 75 77  1  0  0  0
 75 84  1  0  0  0
 75145  1  0  0  0
 75146  1  0  0  0
 76 77  1  0  0  0
 76 84  1  0  0  0
 76147  1  0  0  0
 76148  1  0  0  0
 77 81  1  0  0  0
 77149  1  0  0  0
 78150  1  0  0  0
 78151  1  0  0  0
 78152  1  0  0  0
 79153  1  0  0  0
 79154  1  0  0  0
 79155  1  0  0  0
 80 85  1  0  0  0
 80156  1  0  0  0
 80157  1  0  0  0
 81 85  1  0  0  0
 81158  1  0  0  0
 81159  1  0  0  0
 85160  1  0  0  0
 85161  1  0  0  0
M  CHG  1  85   1
M  ISO  4   1 100  68 101  74 101  84 100
M  END
> <chiral flag>
0

> <version>
0

> <s_m_source_file>
/data/baiqing/PycharmProjects/Reinvent-master-3.2/result/LINK_invent/BTK/process_docking_weight1_custom_sum_contain_oxygen_bond_distance_aromatic_linkinvent_7_9_3/rearranged_h_0192.sdf

> <i_m_source_file_index>
24

> <r_mmod_Potential_Energy-OPLS-2005>
16179.345703125

> <r_mmod_Stretch_Energy-OPLS-2005>
8056.73779296875

> <r_mmod_Bend_Energy-OPLS-2005>
1780.2763671875

> <r_mmod_Torsional_Energy-OPLS-2005>
682.460998535156

> <r_mmod_Improper_Torsional_Energy-OPLS-2005>
45.1377143859863

> <r_mmod_Van_der_Waal_Energy-OPLS-2005>
2741.75805664062

> <r_mmod_Electrostatic_Energy-OPLS-2005>
-713.277770996094

> <r_mmod_Solvation_Energy-OPLS-2005>
-449.352233886719

> <b_mmod_Minimization_Converged-OPLS-2005>
0

> <r_mmod_RMS_Derivative-OPLS-2005>
99.9990005493164

$$$$
24
                    3D
 Structure written by MMmdl.
157165  0  0  1  0            999 V2000
  -30.5999  -14.7333   20.4821 C   0  0  0  0  0  0
  -30.4407  -12.4566   19.4530 C   0  0  0  0  0  0
  -29.5061  -12.4937   18.2237 C   0  0  0  0  0  0
  -28.0334  -12.3159   18.6468 C   0  0  0  0  0  0
  -27.6364  -13.2212   19.8427 C   0  0  2  0  0  0
  -28.6858  -13.1499   20.9718 C   0  0  0  0  0  0
  -25.2499  -13.8171   20.5703 C   0  0  0  0  0  0
  -24.1785  -13.0423   20.9240 C   0  0  0  0  0  0
  -24.6365  -11.6890   20.8740 C   0  0  0  0  0  0
  -23.9041  -10.4269   21.0391 C   0  0  0  0  0  0
  -24.3598   -9.4195   21.9181 C   0  0  0  0  0  0
  -23.6272   -8.2227   22.0746 C   0  0  0  0  0  0
  -22.4262   -8.0266   21.3532 C   0  0  0  0  0  0
  -21.9892   -9.0235   20.4639 C   0  0  0  0  0  0
  -22.7210  -10.2116   20.3050 C   0  0  0  0  0  0
  -21.6851   -6.0722   22.5268 C   0  0  0  0  0  0
  -21.4007   -6.5631   23.8202 C   0  0  0  0  0  0
  -21.3658   -5.6788   24.9170 C   0  0  0  0  0  0
  -21.6046   -4.3050   24.7222 C   0  0  0  0  0  0
  -21.8825   -3.8140   23.4343 C   0  0  0  0  0  0
  -21.9184   -4.6948   22.3395 C   0  0  0  0  0  0
  -22.7808  -13.5204   21.1904 C   0  0  0  0  0  0
  -22.1662   -4.2133   21.0971 F   0  0  0  0  0  0
  -21.5631   -3.4542   25.7735 F   0  0  0  0  0  0
  -29.9814  -13.5097   20.3806 N   0  0  0  0  0  0
  -26.2892  -12.9351   20.3241 N   0  0  0  0  0  0
  -25.9284  -11.6505   20.5734 N   0  0  0  0  0  0
  -22.0453  -12.8183   22.0447 N   0  0  0  0  0  0
  -25.4205  -15.1898   20.4138 N   0  0  0  0  0  0
  -31.8105  -14.8407   20.2606 O   0  0  0  0  0  0
  -21.6633   -6.8862   21.4228 O   0  0  0  0  0  0
  -22.3479  -14.5511   20.6756 O   0  0  0  0  0  0
  -24.6363  -31.8552   23.1994 C   0  0  0  0  0  0
  -25.9193  -32.4764   23.8317 C   0  0  1  0  0  0
  -27.2102  -27.2410   20.1303 C   0  0  0  0  0  0
  -25.5961  -33.8560   24.2262 N   0  0  0  0  0  0
  -23.4295  -30.4790   21.5450 C   0  0  2  0  0  0
  -24.8714  -28.9234   20.1169 C   0  0  0  0  0  0
  -22.7498  -29.4598   22.4918 C   0  0  0  0  0  0
  -18.0293  -28.1378   22.8478 C   0  0  0  0  0  0
  -24.1485  -36.7306   23.2629 C   0  0  0  0  0  0
  -25.9761  -30.7607   21.3812 C   0  0  0  0  0  0
  -26.0481  -29.3801   20.7268 C   0  0  0  0  0  0
  -27.2208  -28.5527   20.7219 C   0  0  0  0  0  0
  -26.0116  -26.8697   19.4750 C   0  0  0  0  0  0
  -24.8598  -27.6777   19.4808 C   0  0  0  0  0  0
  -23.6462  -29.8146   20.1607 C   0  0  0  0  0  0
  -25.4106  -36.3074   24.0306 C   0  0  1  0  0  0
  -20.5901  -28.3711   23.1247 C   0  0  2  0  0  0
  -20.6782  -26.9426   22.5389 C   0  0  0  0  0  0
  -19.5760  -26.6373   21.5182 C   0  0  0  0  0  0
  -18.1943  -26.7926   22.1586 C   0  0  0  0  0  0
  -19.1545  -28.8857   23.2846 C   0  0  0  0  0  0
  -18.9461  -30.1457   23.8873 C   0  0  0  0  0  0
  -17.6468  -30.6590   24.0553 C   0  0  0  0  0  0
  -25.9052  -34.9439   23.5091 C   0  0  0  0  0  0
  -16.5367  -29.9090   23.6313 C   0  0  0  0  0  0
  -16.7279  -28.6499   23.0338 C   0  0  0  0  0  0
  -26.4528  -31.6603   25.0736 C   0  0  0  0  0  0
  -25.3711  -31.3802   26.1436 C   0  0  0  0  0  0
  -27.0391  -30.2993   24.6291 C   0  0  0  0  0  0
  -27.6038  -32.4378   25.7536 C   0  0  0  0  0  0
  -27.5591  -37.1809   24.8454 C   0  0  0  0  0  0
  -21.4208  -29.3065   22.3634 N   0  0  0  0  0  0
  -26.4280  -37.3773   23.9412 N   0  0  0  0  0  0
  -24.6998  -31.0499   22.0984 N   0  0  0  0  0  0
  -23.4160  -28.8138   23.3034 O   0  0  0  0  0  0
  -28.2911  -26.3183   20.1791 O   0  0  0  0  0  0
  -26.5618  -34.8917   22.4660 O   0  0  0  0  0  0
  -23.5513  -32.1385   23.7282 O   0  0  0  0  0  0
  -30.4818  -17.2979   22.3255 C   0  0  0  0  0  0
  -30.2189  -19.6123   22.3811 C   0  0  0  0  0  0
  -29.7452  -19.6421   21.0382 C   0  0  0  0  0  0
  -29.9928  -17.2136   21.0017 C   0  0  0  0  0  0
  -30.4071  -20.8604   23.2260 C   0  0  0  0  0  0
  -27.2876  -21.8312   20.1757 C   0  0  0  0  0  0
  -29.6293  -21.0360   20.2468 C   0  0  0  0  0  0
  -29.0741  -23.6399   20.3010 C   0  0  0  0  0  0
  -27.9714  -24.8400   20.3097 C   0  0  0  0  0  0
  -30.5734  -18.4623   23.0072 N   0  0  0  0  0  0
  -29.6213  -18.4130   20.3775 N   0  0  0  0  0  0
  -29.7804  -15.8490   20.4879 N   0  0  0  0  0  0
  -28.6551  -22.1727   20.6390 N   0  3  1  0  0  0
  -31.4753  -12.6104   19.1407 H   0  0  0  0  0  0
  -30.4131  -11.4821   19.9419 H   0  0  0  0  0  0
  -29.7876  -11.7134   17.5174 H   0  0  0  0  0  0
  -29.6245  -13.4413   17.6940 H   0  0  0  0  0  0
  -27.8971  -11.2699   18.9245 H   0  0  0  0  0  0
  -27.3711  -12.4942   17.7987 H   0  0  0  0  0  0
  -27.6287  -14.2400   19.4567 H   0  0  0  0  0  0
  -28.7270  -12.1483   21.4033 H   0  0  0  0  0  0
  -28.4233  -13.8250   21.7882 H   0  0  0  0  0  0
  -25.2738   -9.5679   22.4759 H   0  0  0  0  0  0
  -23.9988   -7.4617   22.7458 H   0  0  0  0  0  0
  -21.0831   -8.8746   19.8937 H   0  0  0  0  0  0
  -22.3663  -10.9658   19.6164 H   0  0  0  0  0  0
  -21.2016   -7.6147   23.9701 H   0  0  0  0  0  0
  -21.1473   -6.0522   25.9068 H   0  0  0  0  0  0
  -22.0611   -2.7603   23.2846 H   0  0  0  0  0  0
  -22.4065  -11.9849   22.4836 H   0  0  0  0  0  0
  -21.1065  -13.1183   22.2653 H   0  0  0  0  0  0
  -24.6605  -15.8486   20.5448 H   0  0  0  0  0  0
  -26.2649  -15.6285   20.0730 H   0  0  0  0  0  0
  -26.7264  -32.5427   23.1060 H   0  0  0  0  0  0
  -25.0120  -33.9660   25.0418 H   0  0  0  0  0  0
  -22.7279  -31.3025   21.4048 H   0  0  0  0  0  0
  -23.3729  -35.9665   23.3279 H   0  0  0  0  0  0
  -24.3565  -36.8968   22.2052 H   0  0  0  0  0  0
  -23.7244  -37.6496   23.6674 H   0  0  0  0  0  0
  -26.1186  -31.5186   20.6098 H   0  0  0  0  0  0
  -26.8499  -30.8079   22.0181 H   0  0  0  0  0  0
  -28.1175  -28.8946   21.2215 H   0  0  0  0  0  0
  -25.9182  -25.9388   18.9382 H   0  0  0  0  0  0
  -23.9616  -27.3288   18.9886 H   0  0  0  0  0  0
  -23.7743  -30.5899   19.4042 H   0  0  0  0  0  0
  -22.7628  -29.2528   19.8534 H   0  0  0  0  0  0
  -25.1293  -36.1909   25.0791 H   0  0  0  0  0  0
  -20.9950  -28.3317   24.1376 H   0  0  0  0  0  0
  -20.5690  -26.2316   23.3603 H   0  0  0  0  0  0
  -21.6661  -26.7497   22.1188 H   0  0  0  0  0  0
  -19.6918  -25.6262   21.1244 H   0  0  0  0  0  0
  -19.6696  -27.3121   20.6665 H   0  0  0  0  0  0
  -17.4211  -26.6641   21.3986 H   0  0  0  0  0  0
  -18.0397  -26.0069   22.8982 H   0  0  0  0  0  0
  -19.7952  -30.7247   24.2231 H   0  0  0  0  0  0
  -17.5045  -31.6259   24.5172 H   0  0  0  0  0  0
  -15.5355  -30.2992   23.7649 H   0  0  0  0  0  0
  -15.8674  -28.0795   22.7095 H   0  0  0  0  0  0
  -24.5858  -30.7174   25.7785 H   0  0  0  0  0  0
  -24.8919  -32.3006   26.4790 H   0  0  0  0  0  0
  -25.7978  -30.9030   27.0261 H   0  0  0  0  0  0
  -26.3015  -29.6709   24.1285 H   0  0  0  0  0  0
  -27.3997  -29.7302   25.4871 H   0  0  0  0  0  0
  -27.8930  -30.4235   23.9619 H   0  0  0  0  0  0
  -27.2588  -33.3696   26.2024 H   0  0  0  0  0  0
  -28.3887  -32.6914   25.0392 H   0  0  0  0  0  0
  -28.0651  -31.8562   26.5523 H   0  0  0  0  0  0
  -28.2589  -38.0137   24.7565 H   0  0  0  0  0  0
  -28.1107  -36.2668   24.6207 H   0  0  0  0  0  0
  -27.2316  -37.1410   25.8857 H   0  0  0  0  0  0
  -20.9388  -29.8825   21.6871 H   0  0  0  0  0  0
  -26.0165  -38.2841   24.1403 H   0  0  0  0  0  0
  -30.7542  -16.4092   22.8779 H   0  0  0  0  0  0
  -30.9198  -21.6504   22.6807 H   0  0  0  0  0  0
  -31.0046  -20.6419   24.1121 H   0  0  0  0  0  0
  -29.4448  -21.2354   23.5735 H   0  0  0  0  0  0
  -27.0015  -20.8370   20.5216 H   0  0  0  0  0  0
  -27.2316  -21.8354   19.0851 H   0  0  0  0  0  0
  -26.5358  -22.5174   20.5640 H   0  0  0  0  0  0
  -29.4778  -20.8023   19.1909 H   0  0  0  0  0  0
  -30.6301  -21.4658   20.2792 H   0  0  0  0  0  0
  -29.8741  -23.9117   20.9919 H   0  0  0  0  0  0
  -29.5343  -23.6342   19.3117 H   0  0  0  0  0  0
  -27.3819  -24.7405   21.2221 H   0  0  0  0  0  0
  -27.3126  -24.5673   19.4897 H   0  0  0  0  0  0
  -28.8228  -15.6474   20.2587 H   0  0  0  0  0  0
  -28.5965  -22.1465   21.6467 H   0  0  0  0  0  0
  1 25  1  0  0  0
  1 30  2  0  0  0
  1 82  1  0  0  0
  2  3  1  0  0  0
  2 25  1  0  0  0
  2 84  1  0  0  0
  2 85  1  0  0  0
  3  4  1  0  0  0
  3 86  1  0  0  0
  3 87  1  0  0  0
  4  5  1  0  0  0
  4 88  1  0  0  0
  4 89  1  0  0  0
  5  6  1  0  0  0
  5 26  1  0  0  0
  5 90  1  0  0  0
  6 25  1  0  0  0
  6 91  1  0  0  0
  6 92  1  0  0  0
  7  8  2  0  0  0
  7 26  1  0  0  0
  7 29  1  0  0  0
  8  9  1  0  0  0
  8 22  1  0  0  0
  9 10  1  0  0  0
  9 27  2  0  0  0
 10 11  2  0  0  0
 10 15  1  0  0  0
 11 12  1  0  0  0
 11 93  1  0  0  0
 12 13  2  0  0  0
 12 94  1  0  0  0
 13 14  1  0  0  0
 13 31  1  0  0  0
 14 15  2  0  0  0
 14 95  1  0  0  0
 15 96  1  0  0  0
 16 17  2  0  0  0
 16 21  1  0  0  0
 16 31  1  0  0  0
 17 18  1  0  0  0
 17 97  1  0  0  0
 18 19  2  0  0  0
 18 98  1  0  0  0
 19 20  1  0  0  0
 19 24  1  0  0  0
 20 21  2  0  0  0
 20 99  1  0  0  0
 21 23  1  0  0  0
 22 28  1  0  0  0
 22 32  2  0  0  0
 26 27  1  0  0  0
 28100  1  0  0  0
 28101  1  0  0  0
 29102  1  0  0  0
 29103  1  0  0  0
 33 34  1  0  0  0
 33 66  1  0  0  0
 33 70  2  0  0  0
 34 36  1  0  0  0
 34 59  1  0  0  0
 34104  1  0  0  0
 35 44  2  0  0  0
 35 45  1  0  0  0
 35 68  1  0  0  0
 36 56  1  0  0  0
 36105  1  0  0  0
 37 39  1  0  0  0
 37 47  1  0  0  0
 37 66  1  0  0  0
 37106  1  0  0  0
 38 43  2  0  0  0
 38 46  1  0  0  0
 38 47  1  0  0  0
 39 64  1  0  0  0
 39 67  2  0  0  0
 40 52  1  0  0  0
 40 53  2  0  0  0
 40 58  1  0  0  0
 41107  1  0  0  0
 41108  1  0  0  0
 41109  1  0  0  0
 41 48  1  0  0  0
 42 43  1  0  0  0
 42 66  1  0  0  0
 42110  1  0  0  0
 42111  1  0  0  0
 43 44  1  0  0  0
 44112  1  0  0  0
 45 46  2  0  0  0
 45113  1  0  0  0
 46114  1  0  0  0
 47115  1  0  0  0
 47116  1  0  0  0
 48 56  1  0  0  0
 48 65  1  0  0  0
 48117  1  0  0  0
 49 50  1  0  0  0
 49 53  1  0  0  0
 49 64  1  0  0  0
 49118  1  0  0  0
 50 51  1  0  0  0
 50119  1  0  0  0
 50120  1  0  0  0
 51 52  1  0  0  0
 51121  1  0  0  0
 51122  1  0  0  0
 52123  1  0  0  0
 52124  1  0  0  0
 53 54  1  0  0  0
 54 55  2  0  0  0
 54125  1  0  0  0
 55 57  1  0  0  0
 55126  1  0  0  0
 56 69  2  0  0  0
 57 58  2  0  0  0
 57127  1  0  0  0
 58128  1  0  0  0
 59 60  1  0  0  0
 59 61  1  0  0  0
 59 62  1  0  0  0
 60129  1  0  0  0
 60130  1  0  0  0
 60131  1  0  0  0
 61132  1  0  0  0
 61133  1  0  0  0
 61134  1  0  0  0
 62135  1  0  0  0
 62136  1  0  0  0
 62137  1  0  0  0
 63 65  1  0  0  0
 63138  1  0  0  0
 63139  1  0  0  0
 63140  1  0  0  0
 64141  1  0  0  0
 65142  1  0  0  0
 68 79  1  0  0  0
 71 74  2  0  0  0
 71 80  1  0  0  0
 71143  1  0  0  0
 72 73  1  0  0  0
 72 75  1  0  0  0
 72 80  2  0  0  0
 73 77  1  0  0  0
 73 81  2  0  0  0
 74 81  1  0  0  0
 74 82  1  0  0  0
 75144  1  0  0  0
 75145  1  0  0  0
 75146  1  0  0  0
 76147  1  0  0  0
 76148  1  0  0  0
 76149  1  0  0  0
 76 83  1  0  0  0
 77 83  1  0  0  0
 77150  1  0  0  0
 77151  1  0  0  0
 78 79  1  0  0  0
 78 83  1  0  0  0
 78152  1  0  0  0
 78153  1  0  0  0
 79154  1  0  0  0
 79155  1  0  0  0
 82156  1  0  0  0
 83157  1  0  0  0
M  CHG  1  83   1
M  ISO  4   1 100  68 101  79 101  82 100
M  END
> <chiral flag>
0

> <version>
0

> <s_m_source_file>
/data/baiqing/PycharmProjects/Reinvent-master-3.2/result/LINK_invent/BTK/process_docking_weight1_custom_sum_contain_oxygen_bond_distance_aromatic_linkinvent_7_9_3/rearranged_h_0192.sdf

> <i_m_source_file_index>
25

> <r_mmod_Potential_Energy-OPLS-2005>
100.537490844727

> <r_mmod_Stretch_Energy-OPLS-2005>
136.817733764648

> <r_mmod_Bend_Energy-OPLS-2005>
174.020004272461

> <r_mmod_Torsional_Energy-OPLS-2005>
253.646255493164

> <r_mmod_Improper_Torsional_Energy-OPLS-2005>
11.0189981460571

> <r_mmod_Van_der_Waal_Energy-OPLS-2005>
141.247894287109

> <r_mmod_Electrostatic_Energy-OPLS-2005>
-241.701904296875

> <r_mmod_Solvation_Energy-OPLS-2005>
-468.326477050781

> <b_mmod_Minimization_Converged-OPLS-2005>
0

> <r_mmod_RMS_Derivative-OPLS-2005>
3.39635181427002

$$$$
25
                    3D
 Structure written by MMmdl.
158166  0  0  1  0            999 V2000
  -30.6784  -14.5505   20.5100 C   0  0  0  0  0  0
  -30.4205  -12.3348   19.4388 C   0  0  0  0  0  0
  -29.4968  -12.4883   18.2130 C   0  0  0  0  0  0
  -28.0154  -12.3606   18.6223 C   0  0  0  0  0  0
  -27.6541  -13.2162   19.8675 C   0  0  2  0  0  0
  -28.6997  -13.0488   20.9913 C   0  0  0  0  0  0
  -25.2555  -13.8178   20.5677 C   0  0  0  0  0  0
  -24.1818  -13.0444   20.9158 C   0  0  0  0  0  0
  -24.6384  -11.6907   20.8709 C   0  0  0  0  0  0
  -23.9047  -10.4299   21.0391 C   0  0  0  0  0  0
  -24.3614   -9.4218   21.9166 C   0  0  0  0  0  0
  -23.6297   -8.2248   22.0747 C   0  0  0  0  0  0
  -22.4279   -8.0276   21.3545 C   0  0  0  0  0  0
  -21.9905   -9.0244   20.4649 C   0  0  0  0  0  0
  -22.7220  -10.2125   20.3050 C   0  0  0  0  0  0
  -21.6850   -6.0726   22.5274 C   0  0  0  0  0  0
  -21.4018   -6.5626   23.8206 C   0  0  0  0  0  0
  -21.3664   -5.6783   24.9167 C   0  0  0  0  0  0
  -21.6050   -4.3044   24.7226 C   0  0  0  0  0  0
  -21.8825   -3.8137   23.4347 C   0  0  0  0  0  0
  -21.9198   -4.6954   22.3401 C   0  0  0  0  0  0
  -22.7843  -13.5221   21.1840 C   0  0  0  0  0  0
  -22.1666   -4.2133   21.0978 F   0  0  0  0  0  0
  -21.5633   -3.4530   25.7741 F   0  0  0  0  0  0
  -30.0179  -13.3580   20.4211 N   0  0  0  0  0  0
  -26.2997  -12.9368   20.3356 N   0  0  0  0  0  0
  -25.9321  -11.6515   20.5759 N   0  0  0  0  0  0
  -22.0497  -12.8229   22.0413 N   0  0  0  0  0  0
  -25.4290  -15.1906   20.4090 N   0  0  0  0  0  0
  -31.8421  -14.6759   20.1163 O   0  0  0  0  0  0
  -21.6647   -6.8874   21.4238 O   0  0  0  0  0  0
  -22.3521  -14.5526   20.6678 O   0  0  0  0  0  0
  -24.6194  -31.8648   23.2056 C   0  0  0  0  0  0
  -25.9074  -32.4799   23.8356 C   0  0  1  0  0  0
  -27.2175  -27.3742   20.1163 C   0  0  0  0  0  0
  -25.5921  -33.8595   24.2303 N   0  0  0  0  0  0
  -23.4090  -30.4872   21.5483 C   0  0  2  0  0  0
  -24.8546  -28.9475   20.1120 C   0  0  0  0  0  0
  -22.7429  -29.4638   22.4966 C   0  0  0  0  0  0
  -18.0274  -28.1379   22.8486 C   0  0  0  0  0  0
  -24.1492  -36.7300   23.2629 C   0  0  0  0  0  0
  -25.9427  -30.8136   21.3660 C   0  0  0  0  0  0
  -26.0193  -29.4443   20.7109 C   0  0  0  0  0  0
  -27.2082  -28.6685   20.7032 C   0  0  0  0  0  0
  -26.0387  -26.9105   19.4967 C   0  0  0  0  0  0
  -24.8622  -27.6846   19.4961 C   0  0  0  0  0  0
  -23.6202  -29.8218   20.1618 C   0  0  0  0  0  0
  -25.4117  -36.3096   24.0330 C   0  0  1  0  0  0
  -20.5868  -28.3678   23.1307 C   0  0  2  0  0  0
  -20.6778  -26.9415   22.5411 C   0  0  0  0  0  0
  -19.5760  -26.6391   21.5207 C   0  0  0  0  0  0
  -18.1932  -26.7928   22.1616 C   0  0  0  0  0  0
  -19.1522  -28.8845   23.2891 C   0  0  0  0  0  0
  -18.9455  -30.1451   23.8908 C   0  0  0  0  0  0
  -17.6458  -30.6592   24.0557 C   0  0  0  0  0  0
  -25.9051  -34.9461   23.5118 C   0  0  0  0  0  0
  -16.5348  -29.9093   23.6327 C   0  0  0  0  0  0
  -16.7262  -28.6503   23.0357 C   0  0  0  0  0  0
  -26.4488  -31.6579   25.0694 C   0  0  0  0  0  0
  -25.3732  -31.3696   26.1429 C   0  0  0  0  0  0
  -27.0317  -30.3012   24.6085 C   0  0  0  0  0  0
  -27.6061  -32.4296   25.7473 C   0  0  0  0  0  0
  -27.5591  -37.1803   24.8460 C   0  0  0  0  0  0
  -21.4154  -29.3035   22.3700 N   0  0  0  0  0  0
  -26.4299  -37.3793   23.9414 N   0  0  0  0  0  0
  -24.6754  -31.0692   22.0986 N   0  0  0  0  0  0
  -23.4175  -28.8176   23.3026 O   0  0  0  0  0  0
  -28.3457  -26.5660   20.1323 O   0  0  0  0  0  0
  -26.5600  -34.8920   22.4675 O   0  0  0  0  0  0
  -23.5376  -32.1437   23.7416 O   0  0  0  0  0  0
  -30.5750  -16.7714   21.6154 C   0  0  0  0  0  0
  -29.5290  -16.6393   19.8542 C   0  0  0  0  0  0
  -29.6038  -17.7446   20.9231 C   0  0  0  0  0  0
  -31.0388  -19.3019   19.7345 C   0  0  0  0  0  0
  -28.7374  -20.0156   20.2251 C   0  0  0  0  0  0
  -28.9197  -21.4926   19.6530 C   0  0  0  0  0  0
  -28.5983  -24.0118   19.8568 C   0  0  0  0  0  0
  -28.1958  -25.2448   20.7461 C   0  0  0  0  0  0
  -29.9480  -15.6454   20.8776 N   0  0  0  0  0  0
  -29.9135  -19.2077   20.6663 N   0  0  0  0  0  0
  -28.6215  -22.6626   20.5500 N   0  3  0  0  0  0
  -31.4672  -12.4228   19.1414 H   0  0  0  0  0  0
  -30.3212  -11.3363   19.8686 H   0  0  0  0  0  0
  -29.7393  -11.7337   17.4628 H   0  0  0  0  0  0
  -29.6675  -13.4560   17.7414 H   0  0  0  0  0  0
  -27.8179  -11.3077   18.8231 H   0  0  0  0  0  0
  -27.3691  -12.6292   17.7863 H   0  0  0  0  0  0
  -27.6821  -14.2552   19.5454 H   0  0  0  0  0  0
  -28.6884  -12.0262   21.3710 H   0  0  0  0  0  0
  -28.4638  -13.6886   21.8437 H   0  0  0  0  0  0
  -25.2766   -9.5689   22.4729 H   0  0  0  0  0  0
  -24.0013   -7.4634   22.7464 H   0  0  0  0  0  0
  -21.0839   -8.8749   19.8954 H   0  0  0  0  0  0
  -22.3674  -10.9653   19.6153 H   0  0  0  0  0  0
  -21.2011   -7.6131   23.9709 H   0  0  0  0  0  0
  -21.1478   -6.0507   25.9071 H   0  0  0  0  0  0
  -22.0607   -2.7602   23.2846 H   0  0  0  0  0  0
  -22.4131  -11.9891   22.4794 H   0  0  0  0  0  0
  -21.1102  -13.1231   22.2603 H   0  0  0  0  0  0
  -24.6708  -15.8517   20.5370 H   0  0  0  0  0  0
  -26.2980  -15.6291   20.1314 H   0  0  0  0  0  0
  -26.7126  -32.5497   23.1092 H   0  0  0  0  0  0
  -25.0080  -33.9734   25.0455 H   0  0  0  0  0  0
  -22.7008  -31.3060   21.4069 H   0  0  0  0  0  0
  -23.3755  -35.9629   23.3287 H   0  0  0  0  0  0
  -24.3584  -36.8929   22.2043 H   0  0  0  0  0  0
  -23.7241  -37.6499   23.6658 H   0  0  0  0  0  0
  -26.0592  -31.5799   20.5978 H   0  0  0  0  0  0
  -26.8267  -30.8650   21.9889 H   0  0  0  0  0  0
  -28.1056  -29.0441   21.1751 H   0  0  0  0  0  0
  -26.0216  -25.9419   19.0164 H   0  0  0  0  0  0
  -23.9678  -27.3029   19.0239 H   0  0  0  0  0  0
  -23.7322  -30.5992   19.4049 H   0  0  0  0  0  0
  -22.7414  -29.2478   19.8626 H   0  0  0  0  0  0
  -25.1291  -36.1947   25.0820 H   0  0  0  0  0  0
  -20.9941  -28.3251   24.1434 H   0  0  0  0  0  0
  -20.5701  -26.2280   23.3594 H   0  0  0  0  0  0
  -21.6653  -26.7480   22.1194 H   0  0  0  0  0  0
  -19.6939  -25.6305   21.1237 H   0  0  0  0  0  0
  -19.6712  -27.3194   20.6732 H   0  0  0  0  0  0
  -17.4209  -26.6659   21.4012 H   0  0  0  0  0  0
  -18.0350  -26.0066   22.9012 H   0  0  0  0  0  0
  -19.7935  -30.7252   24.2287 H   0  0  0  0  0  0
  -17.5025  -31.6275   24.5154 H   0  0  0  0  0  0
  -15.5357  -30.3001   23.7660 H   0  0  0  0  0  0
  -15.8656  -28.0821   22.7091 H   0  0  0  0  0  0
  -24.5928  -30.7014   25.7767 H   0  0  0  0  0  0
  -24.8880  -32.2845   26.4843 H   0  0  0  0  0  0
  -25.8069  -30.8899   27.0212 H   0  0  0  0  0  0
  -26.2862  -29.6772   24.1138 H   0  0  0  0  0  0
  -27.4077  -29.7251   25.4551 H   0  0  0  0  0  0
  -27.8709  -30.4314   23.9244 H   0  0  0  0  0  0
  -27.2691  -33.3608   26.2043 H   0  0  0  0  0  0
  -28.3891  -32.6836   25.0312 H   0  0  0  0  0  0
  -28.0704  -31.8412   26.5399 H   0  0  0  0  0  0
  -28.2589  -38.0121   24.7546 H   0  0  0  0  0  0
  -28.1114  -36.2655   24.6249 H   0  0  0  0  0  0
  -27.2302  -37.1395   25.8858 H   0  0  0  0  0  0
  -20.9324  -29.8733   21.6895 H   0  0  0  0  0  0
  -26.0180  -38.2867   24.1428 H   0  0  0  0  0  0
  -30.4433  -16.7342   22.6975 H   0  0  0  0  0  0
  -31.6267  -16.9354   21.3697 H   0  0  0  0  0  0
  -28.5202  -16.4897   19.4681 H   0  0  0  0  0  0
  -30.2406  -16.7539   19.0324 H   0  0  0  0  0  0
  -28.6732  -17.7318   21.4943 H   0  0  0  0  0  0
  -31.4564  -20.3067   19.7045 H   0  0  0  0  0  0
  -30.7452  -19.0267   18.7205 H   0  0  0  0  0  0
  -31.8623  -18.6532   20.0338 H   0  0  0  0  0  0
  -28.2735  -19.4423   19.4202 H   0  0  0  0  0  0
  -27.9948  -20.0260   21.0251 H   0  0  0  0  0  0
  -28.2150  -21.5793   18.8247 H   0  0  0  0  0  0
  -29.8936  -21.6412   19.1929 H   0  0  0  0  0  0
  -29.5852  -24.1965   19.4306 H   0  0  0  0  0  0
  -27.9029  -23.9615   19.0169 H   0  0  0  0  0  0
  -28.8225  -25.2539   21.6376 H   0  0  0  0  0  0
  -27.1805  -25.0979   21.1177 H   0  0  0  0  0  0
  -29.3072  -22.6704   21.2899 H   0  0  0  0  0  0
  -27.7244  -22.5024   20.9806 H   0  0  0  0  0  0
  1 25  1  0  0  0
  1 30  2  0  0  0
  1 79  1  0  0  0
  2  3  1  0  0  0
  2 25  1  0  0  0
  2 82  1  0  0  0
  2 83  1  0  0  0
  3  4  1  0  0  0
  3 84  1  0  0  0
  3 85  1  0  0  0
  4  5  1  0  0  0
  4 86  1  0  0  0
  4 87  1  0  0  0
  5  6  1  0  0  0
  5 26  1  0  0  0
  5 88  1  0  0  0
  6 25  1  0  0  0
  6 89  1  0  0  0
  6 90  1  0  0  0
  7  8  2  0  0  0
  7 26  1  0  0  0
  7 29  1  0  0  0
  8  9  1  0  0  0
  8 22  1  0  0  0
  9 10  1  0  0  0
  9 27  2  0  0  0
 10 11  2  0  0  0
 10 15  1  0  0  0
 11 12  1  0  0  0
 11 91  1  0  0  0
 12 13  2  0  0  0
 12 92  1  0  0  0
 13 14  1  0  0  0
 13 31  1  0  0  0
 14 15  2  0  0  0
 14 93  1  0  0  0
 15 94  1  0  0  0
 16 17  2  0  0  0
 16 21  1  0  0  0
 16 31  1  0  0  0
 17 18  1  0  0  0
 17 95  1  0  0  0
 18 19  2  0  0  0
 18 96  1  0  0  0
 19 20  1  0  0  0
 19 24  1  0  0  0
 20 21  2  0  0  0
 20 97  1  0  0  0
 21 23  1  0  0  0
 22 28  1  0  0  0
 22 32  2  0  0  0
 26 27  1  0  0  0
 28 98  1  0  0  0
 28 99  1  0  0  0
 29100  1  0  0  0
 29101  1  0  0  0
 33 34  1  0  0  0
 33 66  1  0  0  0
 33 70  2  0  0  0
 34 36  1  0  0  0
 34 59  1  0  0  0
 34102  1  0  0  0
 35 44  2  0  0  0
 35 45  1  0  0  0
 35 68  1  0  0  0
 36 56  1  0  0  0
 36103  1  0  0  0
 37 39  1  0  0  0
 37 47  1  0  0  0
 37 66  1  0  0  0
 37104  1  0  0  0
 38 43  2  0  0  0
 38 46  1  0  0  0
 38 47  1  0  0  0
 39 64  1  0  0  0
 39 67  2  0  0  0
 40 52  1  0  0  0
 40 53  2  0  0  0
 40 58  1  0  0  0
 41105  1  0  0  0
 41106  1  0  0  0
 41107  1  0  0  0
 41 48  1  0  0  0
 42 43  1  0  0  0
 42 66  1  0  0  0
 42108  1  0  0  0
 42109  1  0  0  0
 43 44  1  0  0  0
 44110  1  0  0  0
 45 46  2  0  0  0
 45111  1  0  0  0
 46112  1  0  0  0
 47113  1  0  0  0
 47114  1  0  0  0
 48 56  1  0  0  0
 48 65  1  0  0  0
 48115  1  0  0  0
 49 50  1  0  0  0
 49 53  1  0  0  0
 49 64  1  0  0  0
 49116  1  0  0  0
 50 51  1  0  0  0
 50117  1  0  0  0
 50118  1  0  0  0
 51 52  1  0  0  0
 51119  1  0  0  0
 51120  1  0  0  0
 52121  1  0  0  0
 52122  1  0  0  0
 53 54  1  0  0  0
 54 55  2  0  0  0
 54123  1  0  0  0
 55 57  1  0  0  0
 55124  1  0  0  0
 56 69  2  0  0  0
 57 58  2  0  0  0
 57125  1  0  0  0
 58126  1  0  0  0
 59 60  1  0  0  0
 59 61  1  0  0  0
 59 62  1  0  0  0
 60127  1  0  0  0
 60128  1  0  0  0
 60129  1  0  0  0
 61130  1  0  0  0
 61131  1  0  0  0
 61132  1  0  0  0
 62133  1  0  0  0
 62134  1  0  0  0
 62135  1  0  0  0
 63 65  1  0  0  0
 63136  1  0  0  0
 63137  1  0  0  0
 63138  1  0  0  0
 64139  1  0  0  0
 65140  1  0  0  0
 68 78  1  0  0  0
 71 73  1  0  0  0
 71 79  1  0  0  0
 71141  1  0  0  0
 71142  1  0  0  0
 72 73  1  0  0  0
 72 79  1  0  0  0
 72143  1  0  0  0
 72144  1  0  0  0
 73 80  1  0  0  0
 73145  1  0  0  0
 74 80  1  0  0  0
 74146  1  0  0  0
 74147  1  0  0  0
 74148  1  0  0  0
 75 76  1  0  0  0
 75 80  1  0  0  0
 75149  1  0  0  0
 75150  1  0  0  0
 76 81  1  0  0  0
 76151  1  0  0  0
 76152  1  0  0  0
 77 78  1  0  0  0
 77 81  1  0  0  0
 77153  1  0  0  0
 77154  1  0  0  0
 78155  1  0  0  0
 78156  1  0  0  0
 81157  1  0  0  0
 81158  1  0  0  0
M  CHG  1  81   1
M  ISO  4   1 100  68 101  78 101  79 100
M  END
> <chiral flag>
0

> <version>
0

> <s_m_source_file>
/data/baiqing/PycharmProjects/Reinvent-master-3.2/result/LINK_invent/BTK/process_docking_weight1_custom_sum_contain_oxygen_bond_distance_aromatic_linkinvent_7_9_3/rearranged_h_0192.sdf

> <i_m_source_file_index>
26

> <r_mmod_Potential_Energy-OPLS-2005>
-15.8847942352295

> <r_mmod_Stretch_Energy-OPLS-2005>
62.7815933227539

> <r_mmod_Bend_Energy-OPLS-2005>
133.999084472656

> <r_mmod_Torsional_Energy-OPLS-2005>
284.152191162109

> <r_mmod_Improper_Torsional_Energy-OPLS-2005>
11.4182176589966

> <r_mmod_Van_der_Waal_Energy-OPLS-2005>
130.31787109375

> <r_mmod_Electrostatic_Energy-OPLS-2005>
-208.410110473633

> <r_mmod_Solvation_Energy-OPLS-2005>
-457.380920410156

> <b_mmod_Minimization_Converged-OPLS-2005>
0

> <r_mmod_RMS_Derivative-OPLS-2005>
2.21162462234497

$$$$
26
                    3D
 Structure written by MMmdl.
149158  0  0  1  0            999 V2000
  -30.4581  -15.4632   20.3573 C   0  0  0  0  0  0
  -30.4045  -12.9733   19.5009 C   0  0  0  0  0  0
  -29.5185  -12.6063   18.2864 C   0  0  0  0  0  0
  -28.0880  -12.2908   18.7423 C   0  0  0  0  0  0
  -27.5909  -13.2991   19.8058 C   0  0  2  0  0  0
  -28.6246  -13.6112   20.9128 C   0  0  0  0  0  0
  -25.2327  -13.8295   20.5821 C   0  0  0  0  0  0
  -24.1702  -13.0453   20.9305 C   0  0  0  0  0  0
  -24.6391  -11.6957   20.8802 C   0  0  0  0  0  0
  -23.9102  -10.4300   21.0420 C   0  0  0  0  0  0
  -24.3640   -9.4209   21.9195 C   0  0  0  0  0  0
  -23.6305   -8.2248   22.0765 C   0  0  0  0  0  0
  -22.4291   -8.0283   21.3549 C   0  0  0  0  0  0
  -21.9941   -9.0260   20.4650 C   0  0  0  0  0  0
  -22.7279  -10.2133   20.3062 C   0  0  0  0  0  0
  -21.6851   -6.0736   22.5277 C   0  0  0  0  0  0
  -21.4009   -6.5640   23.8210 C   0  0  0  0  0  0
  -21.3668   -5.6796   24.9176 C   0  0  0  0  0  0
  -21.6045   -4.3058   24.7229 C   0  0  0  0  0  0
  -21.8817   -3.8149   23.4353 C   0  0  0  0  0  0
  -21.9193   -4.6963   22.3407 C   0  0  0  0  0  0
  -22.7714  -13.5189   21.1933 C   0  0  0  0  0  0
  -22.1661   -4.2147   21.0987 F   0  0  0  0  0  0
  -21.5639   -3.4547   25.7746 F   0  0  0  0  0  0
  -29.8045  -14.1789   20.2246 N   0  0  0  0  0  0
  -26.2753  -12.9606   20.3267 N   0  0  0  0  0  0
  -25.9332  -11.6686   20.5749 N   0  0  0  0  0  0
  -22.0380  -12.8145   22.0468 N   0  0  0  0  0  0
  -25.3956  -15.2031   20.4254 N   0  0  0  0  0  0
  -31.6840  -15.2565   20.2778 O   0  0  0  0  0  0
  -21.6648   -6.8880   21.4238 O   0  0  0  0  0  0
  -22.3394  -14.5492   20.6772 O   0  0  0  0  0  0
  -24.6753  -31.8107   23.1602 C   0  0  0  0  0  0
  -25.9376  -32.4520   23.8114 C   0  0  1  0  0  0
  -27.2115  -26.7960   20.1985 C   0  0  0  0  0  0
  -25.5988  -33.8342   24.2002 N   0  0  0  0  0  0
  -23.4963  -30.4185   21.5130 C   0  0  2  0  0  0
  -24.9488  -28.7804   20.1181 C   0  0  0  0  0  0
  -22.7720  -29.4383   22.4743 C   0  0  0  0  0  0
  -18.0327  -28.1416   22.8451 C   0  0  0  0  0  0
  -24.1498  -36.7174   23.2652 C   0  0  0  0  0  0
  -26.0735  -30.5742   21.4105 C   0  0  0  0  0  0
  -26.1383  -29.1502   20.7569 C   0  0  0  0  0  0
  -27.2619  -28.1835   20.7663 C   0  0  0  0  0  0
  -25.9916  -26.6157   19.5050 C   0  0  0  0  0  0
  -24.9086  -27.5368   19.4693 C   0  0  0  0  0  0
  -23.7434  -29.7259   20.1443 C   0  0  0  0  0  0
  -25.4147  -36.2925   24.0286 C   0  0  1  0  0  0
  -20.5958  -28.3775   23.1154 C   0  0  2  0  0  0
  -20.6799  -26.9444   22.5403 C   0  0  0  0  0  0
  -19.5783  -26.6376   21.5206 C   0  0  0  0  0  0
  -18.1960  -26.7948   22.1605 C   0  0  0  0  0  0
  -19.1593  -28.8915   23.2787 C   0  0  0  0  0  0
  -18.9499  -30.1494   23.8840 C   0  0  0  0  0  0
  -17.6497  -30.6601   24.0551 C   0  0  0  0  0  0
  -25.9118  -34.9312   23.4976 C   0  0  0  0  0  0
  -16.5384  -29.9087   23.6346 C   0  0  0  0  0  0
  -16.7310  -28.6505   23.0366 C   0  0  0  0  0  0
  -26.4584  -31.6518   25.0701 C   0  0  0  0  0  0
  -25.3669  -31.3796   26.1323 C   0  0  0  0  0  0
  -27.0508  -30.2870   24.6537 C   0  0  0  0  0  0
  -27.6041  -32.4367   25.7522 C   0  0  0  0  0  0
  -27.5568  -37.1752   24.8469 C   0  0  0  0  0  0
  -21.4378  -29.3039   22.3486 N   0  0  0  0  0  0
  -26.4282  -37.3676   23.9401 N   0  0  0  0  0  0
  -24.7713  -30.9650   22.0804 N   0  0  0  0  0  0
  -23.4207  -28.7969   23.3044 O   0  0  0  0  0  0
  -28.1755  -25.6108   20.2488 O   0  0  0  0  0  0
  -26.5748  -34.8870   22.4584 O   0  0  0  0  0  0
  -23.5794  -32.1131   23.6614 O   0  0  0  0  0  0
  -29.7102  -21.7463   19.4564 C   0  0  0  0  0  0
  -28.6342  -22.3149   20.1881 C   0  0  0  0  0  0
  -28.9383  -19.7849   20.4089 C   0  0  0  0  0  0
  -28.8828  -18.0539   20.6822 C   0  0  0  0  0  0
  -30.6996  -19.2748   18.9277 C   0  0  0  0  0  0
  -31.0532  -17.9057   19.7120 C   0  0  0  0  0  0
  -27.8106  -23.9401   20.2493 C   0  0  0  0  0  0
  -29.8448  -20.3117   19.6036 N   0  0  0  0  0  0
  -28.2181  -20.9915   20.7489 N   0  3  0  0  0  0
  -29.9851  -16.9256   20.1727 N   0  0  0  0  0  0
  -31.4099  -13.1778   19.1305 H   0  0  0  0  0  0
  -30.5162  -12.1185   20.1705 H   0  0  0  0  0  0
  -29.9378  -11.7560   17.7464 H   0  0  0  0  0  0
  -29.5022  -13.4399   17.5830 H   0  0  0  0  0  0
  -28.0907  -11.2857   19.1650 H   0  0  0  0  0  0
  -27.4103  -12.2617   17.8883 H   0  0  0  0  0  0
  -27.4595  -14.2272   19.2477 H   0  0  0  0  0  0
  -28.8623  -12.7304   21.5111 H   0  0  0  0  0  0
  -28.2221  -14.3557   21.6011 H   0  0  0  0  0  0
  -25.2776   -9.5681   22.4785 H   0  0  0  0  0  0
  -24.0007   -7.4641   22.7492 H   0  0  0  0  0  0
  -21.0880   -8.8783   19.8948 H   0  0  0  0  0  0
  -22.3743  -10.9674   19.6175 H   0  0  0  0  0  0
  -21.1985   -7.6145   23.9708 H   0  0  0  0  0  0
  -21.1498   -6.0533   25.9078 H   0  0  0  0  0  0
  -22.0587   -2.7612   23.2858 H   0  0  0  0  0  0
  -22.4024  -11.9803   22.4823 H   0  0  0  0  0  0
  -21.0989  -13.1127   22.2694 H   0  0  0  0  0  0
  -24.6249  -15.8537   20.5328 H   0  0  0  0  0  0
  -26.2419  -15.6417   20.0871 H   0  0  0  0  0  0
  -26.7455  -32.5017   23.0825 H   0  0  0  0  0  0
  -25.0049  -33.9408   25.0095 H   0  0  0  0  0  0
  -22.8166  -31.2536   21.3316 H   0  0  0  0  0  0
  -23.3774  -35.9490   23.3281 H   0  0  0  0  0  0
  -24.3563  -36.8868   22.2073 H   0  0  0  0  0  0
  -23.7249  -37.6344   23.6746 H   0  0  0  0  0  0
  -26.2700  -31.3071   20.6271 H   0  0  0  0  0  0
  -26.9268  -30.6353   22.0735 H   0  0  0  0  0  0
  -28.1606  -28.4694   21.2939 H   0  0  0  0  0  0
  -25.8331  -25.6767   18.9963 H   0  0  0  0  0  0
  -24.0102  -27.2476   18.9424 H   0  0  0  0  0  0
  -23.9108  -30.4902   19.3843 H   0  0  0  0  0  0
  -22.8497  -29.1888   19.8226 H   0  0  0  0  0  0
  -25.1359  -36.1702   25.0780 H   0  0  0  0  0  0
  -21.0039  -28.3394   24.1281 H   0  0  0  0  0  0
  -20.5640  -26.2407   23.3662 H   0  0  0  0  0  0
  -21.6666  -26.7387   22.1236 H   0  0  0  0  0  0
  -19.6945  -25.6268   21.1283 H   0  0  0  0  0  0
  -19.6727  -27.3144   20.6701 H   0  0  0  0  0  0
  -17.4234  -26.6685   21.4006 H   0  0  0  0  0  0
  -18.0348  -26.0103   22.9010 H   0  0  0  0  0  0
  -19.7976  -30.7312   24.2199 H   0  0  0  0  0  0
  -17.5050  -31.6276   24.5160 H   0  0  0  0  0  0
  -15.5382  -30.2972   23.7706 H   0  0  0  0  0  0
  -15.8707  -28.0800   22.7130 H   0  0  0  0  0  0
  -24.5933  -30.7045   25.7648 H   0  0  0  0  0  0
  -24.8753  -32.2987   26.4519 H   0  0  0  0  0  0
  -25.7877  -30.9155   27.0251 H   0  0  0  0  0  0
  -26.3210  -29.6511   24.1516 H   0  0  0  0  0  0
  -27.3954  -29.7285   25.5252 H   0  0  0  0  0  0
  -27.9184  -30.4019   24.0038 H   0  0  0  0  0  0
  -27.2581  -33.3723   26.1926 H   0  0  0  0  0  0
  -28.3943  -32.6841   25.0422 H   0  0  0  0  0  0
  -28.0608  -31.8614   26.5585 H   0  0  0  0  0  0
  -28.2572  -38.0058   24.7493 H   0  0  0  0  0  0
  -28.1077  -36.2580   24.6327 H   0  0  0  0  0  0
  -27.2276  -37.1427   25.8870 H   0  0  0  0  0  0
  -20.9662  -29.8717   21.6583 H   0  0  0  0  0  0
  -26.0116  -38.2733   24.1391 H   0  0  0  0  0  0
  -30.3748  -22.2667   18.7811 H   0  0  0  0  0  0
  -27.9216  -17.7486   20.2665 H   0  0  0  0  0  0
  -28.7821  -17.9427   21.7614 H   0  0  0  0  0  0
  -30.2007  -19.0275   17.9897 H   0  0  0  0  0  0
  -31.6283  -19.7733   18.6470 H   0  0  0  0  0  0
  -31.7353  -17.3764   19.0444 H   0  0  0  0  0  0
  -31.6584  -18.1574   20.5845 H   0  0  0  0  0  0
  -27.1780  -23.8604   21.1332 H   0  0  0  0  0  0
  -27.0991  -23.8640   19.4282 H   0  0  0  0  0  0
  -27.3975  -20.9346   21.3398 H   0  0  0  0  0  0
  1 25  1  0  0  0
  1 30  2  0  0  0
  1 80  1  0  0  0
  2  3  1  0  0  0
  2 25  1  0  0  0
  2 81  1  0  0  0
  2 82  1  0  0  0
  3  4  1  0  0  0
  3 83  1  0  0  0
  3 84  1  0  0  0
  4  5  1  0  0  0
  4 85  1  0  0  0
  4 86  1  0  0  0
  5  6  1  0  0  0
  5 26  1  0  0  0
  5 87  1  0  0  0
  6 25  1  0  0  0
  6 88  1  0  0  0
  6 89  1  0  0  0
  7  8  2  0  0  0
  7 26  1  0  0  0
  7 29  1  0  0  0
  8  9  1  0  0  0
  8 22  1  0  0  0
  9 10  1  0  0  0
  9 27  2  0  0  0
 10 11  2  0  0  0
 10 15  1  0  0  0
 11 12  1  0  0  0
 11 90  1  0  0  0
 12 13  2  0  0  0
 12 91  1  0  0  0
 13 14  1  0  0  0
 13 31  1  0  0  0
 14 15  2  0  0  0
 14 92  1  0  0  0
 15 93  1  0  0  0
 16 17  2  0  0  0
 16 21  1  0  0  0
 16 31  1  0  0  0
 17 18  1  0  0  0
 17 94  1  0  0  0
 18 19  2  0  0  0
 18 95  1  0  0  0
 19 20  1  0  0  0
 19 24  1  0  0  0
 20 21  2  0  0  0
 20 96  1  0  0  0
 21 23  1  0  0  0
 22 28  1  0  0  0
 22 32  2  0  0  0
 26 27  1  0  0  0
 28 97  1  0  0  0
 28 98  1  0  0  0
 29 99  1  0  0  0
 29100  1  0  0  0
 33 34  1  0  0  0
 33 66  1  0  0  0
 33 70  2  0  0  0
 34 36  1  0  0  0
 34 59  1  0  0  0
 34101  1  0  0  0
 35 44  2  0  0  0
 35 45  1  0  0  0
 35 68  1  0  0  0
 36 56  1  0  0  0
 36102  1  0  0  0
 37 39  1  0  0  0
 37 47  1  0  0  0
 37 66  1  0  0  0
 37103  1  0  0  0
 38 43  2  0  0  0
 38 46  1  0  0  0
 38 47  1  0  0  0
 39 64  1  0  0  0
 39 67  2  0  0  0
 40 52  1  0  0  0
 40 53  2  0  0  0
 40 58  1  0  0  0
 41104  1  0  0  0
 41105  1  0  0  0
 41106  1  0  0  0
 41 48  1  0  0  0
 42 43  1  0  0  0
 42 66  1  0  0  0
 42107  1  0  0  0
 42108  1  0  0  0
 43 44  1  0  0  0
 44109  1  0  0  0
 45 46  2  0  0  0
 45110  1  0  0  0
 46111  1  0  0  0
 47112  1  0  0  0
 47113  1  0  0  0
 48 56  1  0  0  0
 48 65  1  0  0  0
 48114  1  0  0  0
 49 50  1  0  0  0
 49 53  1  0  0  0
 49 64  1  0  0  0
 49115  1  0  0  0
 50 51  1  0  0  0
 50116  1  0  0  0
 50117  1  0  0  0
 51 52  1  0  0  0
 51118  1  0  0  0
 51119  1  0  0  0
 52120  1  0  0  0
 52121  1  0  0  0
 53 54  1  0  0  0
 54 55  2  0  0  0
 54122  1  0  0  0
 55 57  1  0  0  0
 55123  1  0  0  0
 56 69  2  0  0  0
 57 58  2  0  0  0
 57124  1  0  0  0
 58125  1  0  0  0
 59 60  1  0  0  0
 59 61  1  0  0  0
 59 62  1  0  0  0
 60126  1  0  0  0
 60127  1  0  0  0
 60128  1  0  0  0
 61129  1  0  0  0
 61130  1  0  0  0
 61131  1  0  0  0
 62132  1  0  0  0
 62133  1  0  0  0
 62134  1  0  0  0
 63 65  1  0  0  0
 63135  1  0  0  0
 63136  1  0  0  0
 63137  1  0  0  0
 64138  1  0  0  0
 65139  1  0  0  0
 68 77  1  0  0  0
 71 72  2  0  0  0
 71 78  1  0  0  0
 71140  1  0  0  0
 72 77  1  0  0  0
 72 79  1  0  0  0
 73 74  1  0  0  0
 73 78  1  0  0  0
 73 79  2  0  0  0
 74 80  1  0  0  0
 74141  1  0  0  0
 74142  1  0  0  0
 75 76  1  0  0  0
 75 78  1  0  0  0
 75143  1  0  0  0
 75144  1  0  0  0
 76 80  1  0  0  0
 76145  1  0  0  0
 76146  1  0  0  0
 77147  1  0  0  0
 77148  1  0  0  0
 79149  1  0  0  0
M  CHG  1  79   1
M  ISO  4   1 100  68 101  77 101  80 100
M  END
> <chiral flag>
0

> <version>
0

> <s_m_source_file>
/data/baiqing/PycharmProjects/Reinvent-master-3.2/result/LINK_invent/BTK/process_docking_weight1_custom_sum_contain_oxygen_bond_distance_aromatic_linkinvent_7_9_3/rearranged_h_0192.sdf

> <i_m_source_file_index>
27

> <r_mmod_Potential_Energy-OPLS-2005>
1780.43981933594

> <r_mmod_Stretch_Energy-OPLS-2005>
751.850708007812

> <r_mmod_Bend_Energy-OPLS-2005>
562.943176269531

> <r_mmod_Torsional_Energy-OPLS-2005>
295.095245361328

> <r_mmod_Improper_Torsional_Energy-OPLS-2005>
17.2411766052246

> <r_mmod_Van_der_Waal_Energy-OPLS-2005>
121.989524841309

> <r_mmod_Electrostatic_Energy-OPLS-2005>
-209.671173095703

> <r_mmod_Solvation_Energy-OPLS-2005>
-439.942718505859

> <b_mmod_Minimization_Converged-OPLS-2005>
0

> <r_mmod_RMS_Derivative-OPLS-2005>
1.40394377708435

$$$$
27
                    3D
 Structure written by MMmdl.
164173  0  0  1  0            999 V2000
  -30.6632  -14.6040   20.4675 C   0  0  0  0  0  0
  -30.4193  -12.3666   19.4446 C   0  0  0  0  0  0
  -29.4961  -12.4888   18.2147 C   0  0  0  0  0  0
  -28.0187  -12.3456   18.6313 C   0  0  0  0  0  0
  -27.6458  -13.2237   19.8571 C   0  0  2  0  0  0
  -28.6939  -13.1019   20.9845 C   0  0  0  0  0  0
  -25.2521  -13.8185   20.5714 C   0  0  0  0  0  0
  -24.1800  -13.0435   20.9214 C   0  0  0  0  0  0
  -24.6381  -11.6916   20.8743 C   0  0  0  0  0  0
  -23.9053  -10.4293   21.0396 C   0  0  0  0  0  0
  -24.3609   -9.4209   21.9168 C   0  0  0  0  0  0
  -23.6300   -8.2233   22.0725 C   0  0  0  0  0  0
  -22.4277   -8.0270   21.3522 C   0  0  0  0  0  0
  -21.9908   -9.0244   20.4629 C   0  0  0  0  0  0
  -22.7226  -10.2131   20.3043 C   0  0  0  0  0  0
  -21.6858   -6.0741   22.5282 C   0  0  0  0  0  0
  -21.4028   -6.5644   23.8217 C   0  0  0  0  0  0
  -21.3655   -5.6785   24.9175 C   0  0  0  0  0  0
  -21.6033   -4.3046   24.7220 C   0  0  0  0  0  0
  -21.8827   -3.8150   23.4342 C   0  0  0  0  0  0
  -21.9195   -4.6969   22.3402 C   0  0  0  0  0  0
  -22.7830  -13.5224   21.1882 C   0  0  0  0  0  0
  -22.1648   -4.2154   21.0975 F   0  0  0  0  0  0
  -21.5621   -3.4528   25.7732 F   0  0  0  0  0  0
  -30.0026  -13.4097   20.3996 N   0  0  0  0  0  0
  -26.2954  -12.9378   20.3333 N   0  0  0  0  0  0
  -25.9309  -11.6528   20.5766 N   0  0  0  0  0  0
  -22.0493  -12.8191   22.0438 N   0  0  0  0  0  0
  -25.4234  -15.1899   20.4126 N   0  0  0  0  0  0
  -31.8552  -14.6856   20.1566 O   0  0  0  0  0  0
  -21.6629   -6.8878   21.4240 O   0  0  0  0  0  0
  -22.3511  -14.5536   20.6745 O   0  0  0  0  0  0
  -24.6210  -31.8611   23.2024 C   0  0  0  0  0  0
  -25.9074  -32.4776   23.8338 C   0  0  1  0  0  0
  -27.2315  -27.3579   20.0905 C   0  0  0  0  0  0
  -25.5898  -33.8578   24.2257 N   0  0  0  0  0  0
  -23.4130  -30.4823   21.5450 C   0  0  2  0  0  0
  -24.8584  -28.9359   20.1096 C   0  0  0  0  0  0
  -22.7444  -29.4619   22.4960 C   0  0  0  0  0  0
  -18.0277  -28.1385   22.8500 C   0  0  0  0  0  0
  -24.1485  -36.7291   23.2633 C   0  0  0  0  0  0
  -25.9492  -30.7966   21.3707 C   0  0  0  0  0  0
  -26.0217  -29.4253   20.7158 C   0  0  0  0  0  0
  -27.2055  -28.6401   20.7099 C   0  0  0  0  0  0
  -26.0437  -26.8983   19.4805 C   0  0  0  0  0  0
  -24.8671  -27.6735   19.4918 C   0  0  0  0  0  0
  -23.6250  -29.8127   20.1603 C   0  0  0  0  0  0
  -25.4105  -36.3078   24.0325 C   0  0  1  0  0  0
  -20.5872  -28.3673   23.1310 C   0  0  2  0  0  0
  -20.6766  -26.9406   22.5418 C   0  0  0  0  0  0
  -19.5741  -26.6386   21.5221 C   0  0  0  0  0  0
  -18.1923  -26.7929   22.1634 C   0  0  0  0  0  0
  -19.1532  -28.8849   23.2896 C   0  0  0  0  0  0
  -18.9456  -30.1452   23.8910 C   0  0  0  0  0  0
  -17.6460  -30.6591   24.0568 C   0  0  0  0  0  0
  -25.9053  -34.9455   23.5097 C   0  0  0  0  0  0
  -16.5350  -29.9091   23.6330 C   0  0  0  0  0  0
  -16.7270  -28.6508   23.0355 C   0  0  0  0  0  0
  -26.4480  -31.6592   25.0709 C   0  0  0  0  0  0
  -25.3731  -31.3715   26.1451 C   0  0  0  0  0  0
  -27.0319  -30.3022   24.6141 C   0  0  0  0  0  0
  -27.6038  -32.4339   25.7470 C   0  0  0  0  0  0
  -27.5593  -37.1761   24.8438 C   0  0  0  0  0  0
  -21.4164  -29.3025   22.3704 N   0  0  0  0  0  0
  -26.4265  -37.3789   23.9446 N   0  0  0  0  0  0
  -24.6794  -31.0640   22.0962 N   0  0  0  0  0  0
  -23.4187  -28.8171   23.3035 O   0  0  0  0  0  0
  -28.3825  -26.5740   20.1354 O   0  0  0  0  0  0
  -26.5643  -34.8925   22.4675 O   0  0  0  0  0  0
  -23.5384  -32.1411   23.7362 O   0  0  0  0  0  0
  -28.0897  -23.0917   18.4813 C   0  0  0  0  0  0
  -27.9947  -21.6989   18.7572 C   0  0  0  0  0  0
  -28.4198  -24.0063   19.5086 C   0  0  0  0  0  0
  -28.2899  -21.2650   20.0843 C   0  0  0  0  0  0
  -30.0899  -16.7121   19.3670 C   0  0  0  0  0  0
  -29.8040  -16.5138   21.7471 C   0  0  0  0  0  0
  -29.1056  -17.9316   19.3193 C   0  0  0  0  0  0
  -28.8200  -17.7307   21.7150 C   0  0  0  0  0  0
  -26.4110  -21.2700   16.7716 C   0  0  0  0  0  0
  -27.5697  -20.7461   17.6382 C   0  0  0  0  0  0
  -27.9923  -19.8179   20.6218 C   0  0  0  0  0  0
  -28.6191  -25.5187   19.1527 C   0  0  0  0  0  0
  -28.7078  -23.5281   20.7515 N   0  0  0  0  0  0
  -28.6401  -22.2019   21.0225 N   0  0  0  0  0  0
  -29.8984  -15.7512   20.4867 N   0  0  0  0  0  0
  -29.0275  -18.7034   20.5938 N   0  3  0  0  0  0
  -31.4641  -12.4646   19.1427 H   0  0  0  0  0  0
  -30.3296  -11.3790   19.8992 H   0  0  0  0  0  0
  -29.7481  -11.7272   17.4748 H   0  0  0  0  0  0
  -29.6524  -13.4517   17.7260 H   0  0  0  0  0  0
  -27.8487  -11.2947   18.8658 H   0  0  0  0  0  0
  -27.3639  -12.5770   17.7904 H   0  0  0  0  0  0
  -27.6555  -14.2560   19.5069 H   0  0  0  0  0  0
  -28.6950  -12.0939   21.4024 H   0  0  0  0  0  0
  -28.4584  -13.7782   21.8076 H   0  0  0  0  0  0
  -25.2753   -9.5688   22.4746 H   0  0  0  0  0  0
  -24.0027   -7.4614   22.7417 H   0  0  0  0  0  0
  -21.0849   -8.8758   19.8922 H   0  0  0  0  0  0
  -22.3682  -10.9668   19.6152 H   0  0  0  0  0  0
  -21.2022   -7.6150   23.9733 H   0  0  0  0  0  0
  -21.1471   -6.0505   25.9076 H   0  0  0  0  0  0
  -22.0617   -2.7614   23.2841 H   0  0  0  0  0  0
  -22.4156  -11.9845   22.4781 H   0  0  0  0  0  0
  -21.1113  -13.1176   22.2691 H   0  0  0  0  0  0
  -24.6490  -15.8392   20.4985 H   0  0  0  0  0  0
  -26.2649  -15.6163   20.0505 H   0  0  0  0  0  0
  -26.7135  -32.5451   23.1079 H   0  0  0  0  0  0
  -25.0003  -33.9727   25.0372 H   0  0  0  0  0  0
  -22.7051  -31.3010   21.4003 H   0  0  0  0  0  0
  -23.3761  -35.9606   23.3256 H   0  0  0  0  0  0
  -24.3591  -36.8959   22.2059 H   0  0  0  0  0  0
  -23.7213  -37.6467   23.6688 H   0  0  0  0  0  0
  -26.0789  -31.5588   20.6012 H   0  0  0  0  0  0
  -26.8309  -30.8454   21.9983 H   0  0  0  0  0  0
  -28.1013  -29.0089   21.1895 H   0  0  0  0  0  0
  -25.9998  -25.9244   19.0151 H   0  0  0  0  0  0
  -23.9710  -27.2869   19.0261 H   0  0  0  0  0  0
  -23.7381  -30.5876   19.4006 H   0  0  0  0  0  0
  -22.7459  -29.2378   19.8628 H   0  0  0  0  0  0
  -25.1274  -36.1905   25.0811 H   0  0  0  0  0  0
  -20.9966  -28.3243   24.1429 H   0  0  0  0  0  0
  -20.5678  -26.2282   23.3613 H   0  0  0  0  0  0
  -21.6635  -26.7444   22.1207 H   0  0  0  0  0  0
  -19.6902  -25.6299   21.1246 H   0  0  0  0  0  0
  -19.6679  -27.3207   20.6763 H   0  0  0  0  0  0
  -17.4189  -26.6683   21.4040 H   0  0  0  0  0  0
  -18.0322  -26.0071   22.9030 H   0  0  0  0  0  0
  -19.7931  -30.7269   24.2288 H   0  0  0  0  0  0
  -17.5010  -31.6276   24.5163 H   0  0  0  0  0  0
  -15.5351  -30.2999   23.7643 H   0  0  0  0  0  0
  -15.8670  -28.0830   22.7066 H   0  0  0  0  0  0
  -24.5893  -30.7075   25.7781 H   0  0  0  0  0  0
  -24.8936  -32.2875   26.4911 H   0  0  0  0  0  0
  -25.8072  -30.8866   27.0204 H   0  0  0  0  0  0
  -26.2873  -29.6778   24.1187 H   0  0  0  0  0  0
  -27.4053  -29.7270   25.4621 H   0  0  0  0  0  0
  -27.8729  -30.4318   23.9326 H   0  0  0  0  0  0
  -27.2637  -33.3623   26.2071 H   0  0  0  0  0  0
  -28.3831  -32.6937   25.0292 H   0  0  0  0  0  0
  -28.0739  -31.8463   26.5369 H   0  0  0  0  0  0
  -28.2502  -38.0168   24.7662 H   0  0  0  0  0  0
  -28.1202  -36.2712   24.6032 H   0  0  0  0  0  0
  -27.2351  -37.1129   25.8841 H   0  0  0  0  0  0
  -20.9336  -29.8742   21.6918 H   0  0  0  0  0  0
  -26.0138  -38.2830   24.1569 H   0  0  0  0  0  0
  -27.9110  -23.4735   17.4876 H   0  0  0  0  0  0
  -31.1118  -17.0946   19.3984 H   0  0  0  0  0  0
  -30.0131  -16.1687   18.4218 H   0  0  0  0  0  0
  -29.5014  -15.8418   22.5523 H   0  0  0  0  0  0
  -30.8024  -16.8678   22.0114 H   0  0  0  0  0  0
  -28.1090  -17.5655   19.0668 H   0  0  0  0  0  0
  -29.4022  -18.5979   18.5077 H   0  0  0  0  0  0
  -28.8894  -18.2607   22.6666 H   0  0  0  0  0  0
  -27.7986  -17.3479   21.6562 H   0  0  0  0  0  0
  -26.1141  -20.5227   16.0352 H   0  0  0  0  0  0
  -26.6778  -22.1682   16.2153 H   0  0  0  0  0  0
  -25.5350  -21.4995   17.3790 H   0  0  0  0  0  0
  -27.2690  -19.7796   18.0338 H   0  0  0  0  0  0
  -28.4347  -20.5524   17.0024 H   0  0  0  0  0  0
  -27.0587  -19.4588   20.1899 H   0  0  0  0  0  0
  -27.7296  -19.9766   21.6678 H   0  0  0  0  0  0
  -28.1055  -25.7434   18.2172 H   0  0  0  0  0  0
  -29.6739  -25.6107   18.8937 H   0  0  0  0  0  0
  -29.9205  -19.1478   20.7454 H   0  0  0  0  0  0
  1 25  1  0  0  0
  1 30  2  0  0  0
  1 85  1  0  0  0
  2  3  1  0  0  0
  2 25  1  0  0  0
  2 87  1  0  0  0
  2 88  1  0  0  0
  3  4  1  0  0  0
  3 89  1  0  0  0
  3 90  1  0  0  0
  4  5  1  0  0  0
  4 91  1  0  0  0
  4 92  1  0  0  0
  5  6  1  0  0  0
  5 26  1  0  0  0
  5 93  1  0  0  0
  6 25  1  0  0  0
  6 94  1  0  0  0
  6 95  1  0  0  0
  7  8  2  0  0  0
  7 26  1  0  0  0
  7 29  1  0  0  0
  8  9  1  0  0  0
  8 22  1  0  0  0
  9 10  1  0  0  0
  9 27  2  0  0  0
 10 11  2  0  0  0
 10 15  1  0  0  0
 11 12  1  0  0  0
 11 96  1  0  0  0
 12 13  2  0  0  0
 12 97  1  0  0  0
 13 14  1  0  0  0
 13 31  1  0  0  0
 14 15  2  0  0  0
 14 98  1  0  0  0
 15 99  1  0  0  0
 16 17  2  0  0  0
 16 21  1  0  0  0
 16 31  1  0  0  0
 17 18  1  0  0  0
 17100  1  0  0  0
 18 19  2  0  0  0
 18101  1  0  0  0
 19 20  1  0  0  0
 19 24  1  0  0  0
 20 21  2  0  0  0
 20102  1  0  0  0
 21 23  1  0  0  0
 22 28  1  0  0  0
 22 32  2  0  0  0
 26 27  1  0  0  0
 28103  1  0  0  0
 28104  1  0  0  0
 29105  1  0  0  0
 29106  1  0  0  0
 33 34  1  0  0  0
 33 66  1  0  0  0
 33 70  2  0  0  0
 34 36  1  0  0  0
 34 59  1  0  0  0
 34107  1  0  0  0
 35 44  2  0  0  0
 35 45  1  0  0  0
 35 68  1  0  0  0
 36 56  1  0  0  0
 36108  1  0  0  0
 37 39  1  0  0  0
 37 47  1  0  0  0
 37 66  1  0  0  0
 37109  1  0  0  0
 38 43  2  0  0  0
 38 46  1  0  0  0
 38 47  1  0  0  0
 39 64  1  0  0  0
 39 67  2  0  0  0
 40 52  1  0  0  0
 40 53  2  0  0  0
 40 58  1  0  0  0
 41110  1  0  0  0
 41111  1  0  0  0
 41112  1  0  0  0
 41 48  1  0  0  0
 42 43  1  0  0  0
 42 66  1  0  0  0
 42113  1  0  0  0
 42114  1  0  0  0
 43 44  1  0  0  0
 44115  1  0  0  0
 45 46  2  0  0  0
 45116  1  0  0  0
 46117  1  0  0  0
 47118  1  0  0  0
 47119  1  0  0  0
 48 56  1  0  0  0
 48 65  1  0  0  0
 48120  1  0  0  0
 49 50  1  0  0  0
 49 53  1  0  0  0
 49 64  1  0  0  0
 49121  1  0  0  0
 50 51  1  0  0  0
 50122  1  0  0  0
 50123  1  0  0  0
 51 52  1  0  0  0
 51124  1  0  0  0
 51125  1  0  0  0
 52126  1  0  0  0
 52127  1  0  0  0
 53 54  1  0  0  0
 54 55  2  0  0  0
 54128  1  0  0  0
 55 57  1  0  0  0
 55129  1  0  0  0
 56 69  2  0  0  0
 57 58  2  0  0  0
 57130  1  0  0  0
 58131  1  0  0  0
 59 60  1  0  0  0
 59 61  1  0  0  0
 59 62  1  0  0  0
 60132  1  0  0  0
 60133  1  0  0  0
 60134  1  0  0  0
 61135  1  0  0  0
 61136  1  0  0  0
 61137  1  0  0  0
 62138  1  0  0  0
 62139  1  0  0  0
 62140  1  0  0  0
 63 65  1  0  0  0
 63141  1  0  0  0
 63142  1  0  0  0
 63143  1  0  0  0
 64144  1  0  0  0
 65145  1  0  0  0
 68 82  1  0  0  0
 71 72  2  0  0  0
 71 73  1  0  0  0
 71146  1  0  0  0
 72 74  1  0  0  0
 72 80  1  0  0  0
 73 82  1  0  0  0
 73 83  2  0  0  0
 74 81  1  0  0  0
 74 84  2  0  0  0
 75 77  1  0  0  0
 75 85  1  0  0  0
 75147  1  0  0  0
 75148  1  0  0  0
 76 78  1  0  0  0
 76 85  1  0  0  0
 76149  1  0  0  0
 76150  1  0  0  0
 77 86  1  0  0  0
 77151  1  0  0  0
 77152  1  0  0  0
 78 86  1  0  0  0
 78153  1  0  0  0
 78154  1  0  0  0
 79 80  1  0  0  0
 79155  1  0  0  0
 79156  1  0  0  0
 79157  1  0  0  0
 80158  1  0  0  0
 80159  1  0  0  0
 81160  1  0  0  0
 81161  1  0  0  0
 81 86  1  0  0  0
 82162  1  0  0  0
 82163  1  0  0  0
 83 84  1  0  0  0
 86164  1  0  0  0
M  CHG  1  86   1
M  ISO  4   1 100  68 101  82 101  85 100
M  END
> <chiral flag>
0

> <version>
0

> <s_m_source_file>
/data/baiqing/PycharmProjects/Reinvent-master-3.2/result/LINK_invent/BTK/process_docking_weight1_custom_sum_contain_oxygen_bond_distance_aromatic_linkinvent_7_9_3/rearranged_h_0192.sdf

> <i_m_source_file_index>
28

> <r_mmod_Potential_Energy-OPLS-2005>
151.686370849609

> <r_mmod_Stretch_Energy-OPLS-2005>
71.5216903686523

> <r_mmod_Bend_Energy-OPLS-2005>
158.96907043457

> <r_mmod_Torsional_Energy-OPLS-2005>
380.433654785156

> <r_mmod_Improper_Torsional_Energy-OPLS-2005>
17.5722370147705

> <r_mmod_Van_der_Waal_Energy-OPLS-2005>
146.208862304688

> <r_mmod_Electrostatic_Energy-OPLS-2005>
-180.425277709961

> <r_mmod_Solvation_Energy-OPLS-2005>
-480.963928222656

> <b_mmod_Minimization_Converged-OPLS-2005>
0

> <r_mmod_RMS_Derivative-OPLS-2005>
1.65534925460815

$$$$
28
                    3D
 Structure written by MMmdl.
159168  0  0  1  0            999 V2000
  -30.5489  -14.9468   20.4199 C   0  0  0  0  0  0
  -30.4397  -12.5890   19.4972 C   0  0  0  0  0  0
  -29.5226  -12.5294   18.2546 C   0  0  0  0  0  0
  -28.0565  -12.3113   18.6749 C   0  0  0  0  0  0
  -27.6291  -13.2484   19.8349 C   0  0  2  0  0  0
  -28.6713  -13.2844   20.9723 C   0  0  0  0  0  0
  -25.2462  -13.8216   20.5705 C   0  0  0  0  0  0
  -24.1779  -13.0443   20.9229 C   0  0  0  0  0  0
  -24.6396  -11.6928   20.8755 C   0  0  0  0  0  0
  -23.9082  -10.4296   21.0403 C   0  0  0  0  0  0
  -24.3628   -9.4210   21.9181 C   0  0  0  0  0  0
  -23.6305   -8.2241   22.0749 C   0  0  0  0  0  0
  -22.4285   -8.0282   21.3544 C   0  0  0  0  0  0
  -21.9920   -9.0252   20.4645 C   0  0  0  0  0  0
  -22.7249  -10.2134   20.3057 C   0  0  0  0  0  0
  -21.6858   -6.0740   22.5280 C   0  0  0  0  0  0
  -21.4011   -6.5639   23.8215 C   0  0  0  0  0  0
  -21.3657   -5.6790   24.9175 C   0  0  0  0  0  0
  -21.6048   -4.3053   24.7224 C   0  0  0  0  0  0
  -21.8815   -3.8148   23.4342 C   0  0  0  0  0  0
  -21.9187   -4.6965   22.3401 C   0  0  0  0  0  0
  -22.7797  -13.5212   21.1877 C   0  0  0  0  0  0
  -22.1661   -4.2146   21.0981 F   0  0  0  0  0  0
  -21.5628   -3.4539   25.7737 F   0  0  0  0  0  0
  -29.9468  -13.6913   20.3715 N   0  0  0  0  0  0
  -26.2885  -12.9449   20.3230 N   0  0  0  0  0  0
  -25.9324  -11.6580   20.5734 N   0  0  0  0  0  0
  -22.0441  -12.8210   22.0442 N   0  0  0  0  0  0
  -25.4126  -15.1946   20.4133 N   0  0  0  0  0  0
  -31.7558  -15.0036   20.1649 O   0  0  0  0  0  0
  -21.6645   -6.8881   21.4245 O   0  0  0  0  0  0
  -22.3482  -14.5513   20.6714 O   0  0  0  0  0  0
  -24.6452  -31.8429   23.1875 C   0  0  0  0  0  0
  -25.9220  -32.4686   23.8264 C   0  0  1  0  0  0
  -27.2174  -27.1255   20.1501 C   0  0  0  0  0  0
  -25.5962  -33.8492   24.2186 N   0  0  0  0  0  0
  -23.4493  -30.4624   21.5332 C   0  0  2  0  0  0
  -24.8979  -28.8861   20.1109 C   0  0  0  0  0  0
  -22.7577  -29.4545   22.4856 C   0  0  0  0  0  0
  -18.0307  -28.1395   22.8481 C   0  0  0  0  0  0
  -24.1493  -36.7253   23.2643 C   0  0  0  0  0  0
  -26.0062  -30.7128   21.3873 C   0  0  0  0  0  0
  -26.0766  -29.3231   20.7284 C   0  0  0  0  0  0
  -27.2371  -28.4596   20.7296 C   0  0  0  0  0  0
  -26.0107  -26.7920   19.4950 C   0  0  0  0  0  0
  -24.8780  -27.6346   19.4788 C   0  0  0  0  0  0
  -23.6756  -29.7902   20.1533 C   0  0  0  0  0  0
  -25.4123  -36.3029   24.0318 C   0  0  1  0  0  0
  -20.5921  -28.3724   23.1232 C   0  0  2  0  0  0
  -20.6789  -26.9426   22.5403 C   0  0  0  0  0  0
  -19.5761  -26.6379   21.5214 C   0  0  0  0  0  0
  -18.1944  -26.7935   22.1625 C   0  0  0  0  0  0
  -19.1564  -28.8879   23.2848 C   0  0  0  0  0  0
  -18.9476  -30.1472   23.8873 C   0  0  0  0  0  0
  -17.6471  -30.6591   24.0557 C   0  0  0  0  0  0
  -25.9076  -34.9403   23.5064 C   0  0  0  0  0  0
  -16.5363  -29.9081   23.6336 C   0  0  0  0  0  0
  -16.7291  -28.6499   23.0362 C   0  0  0  0  0  0
  -26.4530  -31.6562   25.0717 C   0  0  0  0  0  0
  -25.3709  -31.3761   26.1412 C   0  0  0  0  0  0
  -27.0394  -30.2954   24.6314 C   0  0  0  0  0  0
  -27.6062  -32.4329   25.7498 C   0  0  0  0  0  0
  -27.5574  -37.1785   24.8464 C   0  0  0  0  0  0
  -21.4266  -29.3051   22.3605 N   0  0  0  0  0  0
  -26.4287  -37.3743   23.9406 N   0  0  0  0  0  0
  -24.7203  -31.0272   22.0910 N   0  0  0  0  0  0
  -23.4216  -28.8096   23.3011 O   0  0  0  0  0  0
  -28.2680  -26.1345   20.2198 O   0  0  0  0  0  0
  -26.5656  -34.8903   22.4640 O   0  0  0  0  0  0
  -23.5567  -32.1302   23.7093 O   0  0  0  0  0  0
  -28.4890  -18.6251   18.9705 C   0  0  0  0  0  0
  -29.7023  -18.1147   18.1655 C   0  0  0  0  0  0
  -30.7233  -20.6049   19.3718 C   0  0  0  0  0  0
  -29.0365  -18.9248   20.3774 C   0  0  2  0  0  0
  -29.5657  -20.5259   20.4047 C   0  0  2  0  0  0
  -30.1519  -17.6861   20.4918 C   0  0  2  0  0  0
  -30.8672  -18.0500   19.1773 C   0  0  2  0  0  0
  -29.0197  -23.2862   20.3501 C   0  0  0  0  0  0
  -27.9840  -24.6026   20.0797 C   0  0  0  0  0  0
  -29.7801  -16.1393   20.5419 N   0  0  0  0  0  0
  -28.6202  -21.7697   20.2331 N   0  0  0  0  0  0
  -31.5627  -19.3703   19.3041 N   0  3  0  0  0  0
  -31.4748  -12.7435   19.1883 H   0  0  0  0  0  0
  -30.4291  -11.6389   20.0337 H   0  0  0  0  0  0
  -29.8451  -11.7325   17.5831 H   0  0  0  0  0  0
  -29.6080  -13.4593   17.6903 H   0  0  0  0  0  0
  -27.9589  -11.2720   18.9895 H   0  0  0  0  0  0
  -27.3915  -12.4326   17.8196 H   0  0  0  0  0  0
  -27.5901  -14.2480   19.4010 H   0  0  0  0  0  0
  -28.7583  -12.3122   21.4603 H   0  0  0  0  0  0
  -28.3718  -13.9943   21.7445 H   0  0  0  0  0  0
  -25.2773   -9.5689   22.4749 H   0  0  0  0  0  0
  -24.0011   -7.4640   22.7475 H   0  0  0  0  0  0
  -21.0844   -8.8780   19.8965 H   0  0  0  0  0  0
  -22.3707  -10.9669   19.6169 H   0  0  0  0  0  0
  -21.2010   -7.6148   23.9715 H   0  0  0  0  0  0
  -21.1485   -6.0523   25.9077 H   0  0  0  0  0  0
  -22.0597   -2.7612   23.2840 H   0  0  0  0  0  0
  -22.4062  -11.9886   22.4854 H   0  0  0  0  0  0
  -21.1051  -13.1227   22.2630 H   0  0  0  0  0  0
  -24.6410  -15.8438   20.5225 H   0  0  0  0  0  0
  -26.2498  -15.6346   20.0554 H   0  0  0  0  0  0
  -26.7290  -32.5287   23.0992 H   0  0  0  0  0  0
  -25.0086  -33.9599   25.0319 H   0  0  0  0  0  0
  -22.7523  -31.2889   21.3777 H   0  0  0  0  0  0
  -23.3758  -35.9582   23.3294 H   0  0  0  0  0  0
  -24.3579  -36.8893   22.2059 H   0  0  0  0  0  0
  -23.7244  -37.6448   23.6683 H   0  0  0  0  0  0
  -26.1639  -31.4665   20.6146 H   0  0  0  0  0  0
  -26.8765  -30.7620   22.0306 H   0  0  0  0  0  0
  -28.1349  -28.7899   21.2333 H   0  0  0  0  0  0
  -25.9058  -25.8362   19.0052 H   0  0  0  0  0  0
  -23.9782  -27.2942   18.9844 H   0  0  0  0  0  0
  -23.8127  -30.5627   19.3957 H   0  0  0  0  0  0
  -22.7899  -29.2324   19.8446 H   0  0  0  0  0  0
  -25.1313  -36.1856   25.0811 H   0  0  0  0  0  0
  -21.0010  -28.3313   24.1354 H   0  0  0  0  0  0
  -20.5679  -26.2340   23.3624 H   0  0  0  0  0  0
  -21.6655  -26.7426   22.1203 H   0  0  0  0  0  0
  -19.6919  -25.6283   21.1261 H   0  0  0  0  0  0
  -19.6696  -27.3172   20.6730 H   0  0  0  0  0  0
  -17.4215  -26.6684   21.4026 H   0  0  0  0  0  0
  -18.0336  -26.0078   22.9021 H   0  0  0  0  0  0
  -19.7952  -30.7298   24.2230 H   0  0  0  0  0  0
  -17.5023  -31.6269   24.5160 H   0  0  0  0  0  0
  -15.5361  -30.2972   23.7674 H   0  0  0  0  0  0
  -15.8694  -28.0806   22.7089 H   0  0  0  0  0  0
  -24.5880  -30.7123   25.7725 H   0  0  0  0  0  0
  -24.8910  -32.2950   26.4792 H   0  0  0  0  0  0
  -25.7984  -30.8951   27.0220 H   0  0  0  0  0  0
  -26.3015  -29.6670   24.1314 H   0  0  0  0  0  0
  -27.3985  -29.7264   25.4899 H   0  0  0  0  0  0
  -27.8932  -30.4178   23.9647 H   0  0  0  0  0  0
  -27.2658  -33.3646   26.2025 H   0  0  0  0  0  0
  -28.3896  -32.6864   25.0344 H   0  0  0  0  0  0
  -28.0706  -31.8489   26.5453 H   0  0  0  0  0  0
  -28.2591  -38.0082   24.7507 H   0  0  0  0  0  0
  -28.1072  -36.2613   24.6297 H   0  0  0  0  0  0
  -27.2295  -37.1439   25.8868 H   0  0  0  0  0  0
  -20.9481  -29.8758   21.6776 H   0  0  0  0  0  0
  -26.0153  -38.2815   24.1397 H   0  0  0  0  0  0
  -27.7299  -17.8442   19.0267 H   0  0  0  0  0  0
  -28.0181  -19.4957   18.5112 H   0  0  0  0  0  0
  -29.9309  -18.7383   17.3006 H   0  0  0  0  0  0
  -29.4910  -17.1161   17.7798 H   0  0  0  0  0  0
  -31.3725  -21.4513   19.5981 H   0  0  0  0  0  0
  -30.3163  -20.8034   18.3793 H   0  0  0  0  0  0
  -28.2572  -18.8006   21.1302 H   0  0  0  0  0  0
  -30.0117  -20.6532   21.3925 H   0  0  0  0  0  0
  -30.8056  -17.8655   21.3468 H   0  0  0  0  0  0
  -31.6098  -17.3049   18.8887 H   0  0  0  0  0  0
  -29.4208  -23.4112   21.3566 H   0  0  0  0  0  0
  -29.8751  -23.4315   19.6897 H   0  0  0  0  0  0
  -27.1068  -24.4183   20.7009 H   0  0  0  0  0  0
  -27.6351  -24.4720   19.0556 H   0  0  0  0  0  0
  -28.7995  -15.9626   20.6980 H   0  0  0  0  0  0
  -27.8033  -21.6227   20.8221 H   0  0  0  0  0  0
  -32.1455  -19.3348   20.1247 H   0  0  0  0  0  0
  -32.1863  -19.4747   18.5208 H   0  0  0  0  0  0
  1 25  1  0  0  0
  1 30  2  0  0  0
  1 80  1  0  0  0
  2  3  1  0  0  0
  2 25  1  0  0  0
  2 83  1  0  0  0
  2 84  1  0  0  0
  3  4  1  0  0  0
  3 85  1  0  0  0
  3 86  1  0  0  0
  4  5  1  0  0  0
  4 87  1  0  0  0
  4 88  1  0  0  0
  5  6  1  0  0  0
  5 26  1  0  0  0
  5 89  1  0  0  0
  6 25  1  0  0  0
  6 90  1  0  0  0
  6 91  1  0  0  0
  7  8  2  0  0  0
  7 26  1  0  0  0
  7 29  1  0  0  0
  8  9  1  0  0  0
  8 22  1  0  0  0
  9 10  1  0  0  0
  9 27  2  0  0  0
 10 11  2  0  0  0
 10 15  1  0  0  0
 11 12  1  0  0  0
 11 92  1  0  0  0
 12 13  2  0  0  0
 12 93  1  0  0  0
 13 14  1  0  0  0
 13 31  1  0  0  0
 14 15  2  0  0  0
 14 94  1  0  0  0
 15 95  1  0  0  0
 16 17  2  0  0  0
 16 21  1  0  0  0
 16 31  1  0  0  0
 17 18  1  0  0  0
 17 96  1  0  0  0
 18 19  2  0  0  0
 18 97  1  0  0  0
 19 20  1  0  0  0
 19 24  1  0  0  0
 20 21  2  0  0  0
 20 98  1  0  0  0
 21 23  1  0  0  0
 22 28  1  0  0  0
 22 32  2  0  0  0
 26 27  1  0  0  0
 28 99  1  0  0  0
 28100  1  0  0  0
 29101  1  0  0  0
 29102  1  0  0  0
 33 34  1  0  0  0
 33 66  1  0  0  0
 33 70  2  0  0  0
 34 36  1  0  0  0
 34 59  1  0  0  0
 34103  1  0  0  0
 35 44  2  0  0  0
 35 45  1  0  0  0
 35 68  1  0  0  0
 36 56  1  0  0  0
 36104  1  0  0  0
 37 39  1  0  0  0
 37 47  1  0  0  0
 37 66  1  0  0  0
 37105  1  0  0  0
 38 43  2  0  0  0
 38 46  1  0  0  0
 38 47  1  0  0  0
 39 64  1  0  0  0
 39 67  2  0  0  0
 40 52  1  0  0  0
 40 53  2  0  0  0
 40 58  1  0  0  0
 41106  1  0  0  0
 41107  1  0  0  0
 41108  1  0  0  0
 41 48  1  0  0  0
 42 43  1  0  0  0
 42 66  1  0  0  0
 42109  1  0  0  0
 42110  1  0  0  0
 43 44  1  0  0  0
 44111  1  0  0  0
 45 46  2  0  0  0
 45112  1  0  0  0
 46113  1  0  0  0
 47114  1  0  0  0
 47115  1  0  0  0
 48 56  1  0  0  0
 48 65  1  0  0  0
 48116  1  0  0  0
 49 50  1  0  0  0
 49 53  1  0  0  0
 49 64  1  0  0  0
 49117  1  0  0  0
 50 51  1  0  0  0
 50118  1  0  0  0
 50119  1  0  0  0
 51 52  1  0  0  0
 51120  1  0  0  0
 51121  1  0  0  0
 52122  1  0  0  0
 52123  1  0  0  0
 53 54  1  0  0  0
 54 55  2  0  0  0
 54124  1  0  0  0
 55 57  1  0  0  0
 55125  1  0  0  0
 56 69  2  0  0  0
 57 58  2  0  0  0
 57126  1  0  0  0
 58127  1  0  0  0
 59 60  1  0  0  0
 59 61  1  0  0  0
 59 62  1  0  0  0
 60128  1  0  0  0
 60129  1  0  0  0
 60130  1  0  0  0
 61131  1  0  0  0
 61132  1  0  0  0
 61133  1  0  0  0
 62134  1  0  0  0
 62135  1  0  0  0
 62136  1  0  0  0
 63 65  1  0  0  0
 63137  1  0  0  0
 63138  1  0  0  0
 63139  1  0  0  0
 64140  1  0  0  0
 65141  1  0  0  0
 68 79  1  0  0  0
 71 72  1  0  0  0
 71142  1  0  0  0
 71143  1  0  0  0
 71 74  1  0  0  0
 72144  1  0  0  0
 72145  1  0  0  0
 72 77  1  0  0  0
 73 75  1  0  0  0
 73 82  1  0  0  0
 73146  1  0  0  0
 73147  1  0  0  0
 74 75  1  0  0  0
 74 76  1  0  0  0
 74148  1  0  0  0
 75 81  1  0  0  0
 75149  1  0  0  0
 76 77  1  0  0  0
 76 80  1  0  0  0
 76150  1  0  0  0
 77 82  1  0  0  0
 77151  1  0  0  0
 78 79  1  0  0  0
 78 81  1  0  0  0
 78152  1  0  0  0
 78153  1  0  0  0
 79154  1  0  0  0
 79155  1  0  0  0
 80156  1  0  0  0
 81157  1  0  0  0
 82158  1  0  0  0
 82159  1  0  0  0
M  CHG  1  82   1
M  ISO  4   1 100  68 101  79 101  80 100
M  END
> <chiral flag>
0

> <version>
0

> <s_m_source_file>
/data/baiqing/PycharmProjects/Reinvent-master-3.2/result/LINK_invent/BTK/process_docking_weight1_custom_sum_contain_oxygen_bond_distance_aromatic_linkinvent_7_9_3/rearranged_h_0192.sdf

> <i_m_source_file_index>
29

> <r_mmod_Potential_Energy-OPLS-2005>
414.310607910156

> <r_mmod_Stretch_Energy-OPLS-2005>
274.272583007812

> <r_mmod_Bend_Energy-OPLS-2005>
312.470458984375

> <r_mmod_Torsional_Energy-OPLS-2005>
292.609710693359

> <r_mmod_Improper_Torsional_Energy-OPLS-2005>
4.45046997070312

> <r_mmod_Van_der_Waal_Energy-OPLS-2005>
121.842155456543

> <r_mmod_Electrostatic_Energy-OPLS-2005>
-325.545654296875

> <r_mmod_Solvation_Energy-OPLS-2005>
-463.185302734375

> <b_mmod_Minimization_Converged-OPLS-2005>
0

> <r_mmod_RMS_Derivative-OPLS-2005>
1.1694849729538

$$$$
29
                    3D
 Structure written by MMmdl.
155164  0  0  1  0            999 V2000
  -30.6017  -14.7833   20.4669 C   0  0  0  0  0  0
  -30.4347  -12.4772   19.4967 C   0  0  0  0  0  0
  -29.5188  -12.5241   18.2524 C   0  0  0  0  0  0
  -28.0455  -12.3367   18.6608 C   0  0  0  0  0  0
  -27.6449  -13.2371   19.8604 C   0  0  2  0  0  0
  -28.6858  -13.1825   21.0022 C   0  0  0  0  0  0
  -25.2510  -13.8191   20.5696 C   0  0  0  0  0  0
  -24.1801  -13.0435   20.9191 C   0  0  0  0  0  0
  -24.6398  -11.6919   20.8736 C   0  0  0  0  0  0
  -23.9078  -10.4295   21.0394 C   0  0  0  0  0  0
  -24.3630   -9.4212   21.9173 C   0  0  0  0  0  0
  -23.6302   -8.2249   22.0747 C   0  0  0  0  0  0
  -22.4284   -8.0284   21.3541 C   0  0  0  0  0  0
  -21.9920   -9.0254   20.4640 C   0  0  0  0  0  0
  -22.7248  -10.2134   20.3045 C   0  0  0  0  0  0
  -21.6862   -6.0745   22.5280 C   0  0  0  0  0  0
  -21.4024   -6.5645   23.8213 C   0  0  0  0  0  0
  -21.3654   -5.6793   24.9169 C   0  0  0  0  0  0
  -21.6046   -4.3056   24.7217 C   0  0  0  0  0  0
  -21.8818   -3.8152   23.4334 C   0  0  0  0  0  0
  -21.9193   -4.6973   22.3394 C   0  0  0  0  0  0
  -22.7826  -13.5218   21.1858 C   0  0  0  0  0  0
  -22.1661   -4.2158   21.0971 F   0  0  0  0  0  0
  -21.5620   -3.4535   25.7727 F   0  0  0  0  0  0
  -29.9904  -13.5434   20.4306 N   0  0  0  0  0  0
  -26.2958  -12.9415   20.3327 N   0  0  0  0  0  0
  -25.9340  -11.6550   20.5768 N   0  0  0  0  0  0
  -22.0486  -12.8203   22.0413 N   0  0  0  0  0  0
  -25.4177  -15.1906   20.4100 N   0  0  0  0  0  0
  -31.7678  -14.8947   20.0792 O   0  0  0  0  0  0
  -21.6646   -6.8886   21.4242 O   0  0  0  0  0  0
  -22.3508  -14.5527   20.6712 O   0  0  0  0  0  0
  -24.6361  -31.8528   23.2001 C   0  0  0  0  0  0
  -25.9165  -32.4741   23.8353 C   0  0  1  0  0  0
  -27.2039  -27.2022   20.1496 C   0  0  0  0  0  0
  -25.5957  -33.8550   24.2269 N   0  0  0  0  0  0
  -23.4355  -30.4785   21.5423 C   0  0  2  0  0  0
  -24.8851  -28.9282   20.1029 C   0  0  0  0  0  0
  -22.7530  -29.4597   22.4879 C   0  0  0  0  0  0
  -18.0287  -28.1401   22.8524 C   0  0  0  0  0  0
  -24.1496  -36.7273   23.2638 C   0  0  0  0  0  0
  -25.9863  -30.7421   21.3982 C   0  0  0  0  0  0
  -26.0543  -29.3614   20.7420 C   0  0  0  0  0  0
  -27.2114  -28.5077   20.7673 C   0  0  0  0  0  0
  -26.0361  -26.8956   19.4114 C   0  0  0  0  0  0
  -24.8849  -27.7046   19.4239 C   0  0  0  0  0  0
  -23.6577  -29.8191   20.1565 C   0  0  0  0  0  0
  -25.4122  -36.3061   24.0330 C   0  0  1  0  0  0
  -20.5912  -28.3731   23.1243 C   0  0  2  0  0  0
  -20.6800  -26.9446   22.5380 C   0  0  0  0  0  0
  -19.5738  -26.6424   21.5239 C   0  0  0  0  0  0
  -18.1941  -26.7925   22.1704 C   0  0  0  0  0  0
  -19.1554  -28.8886   23.2861 C   0  0  0  0  0  0
  -18.9490  -30.1487   23.8881 C   0  0  0  0  0  0
  -17.6487  -30.6612   24.0560 C   0  0  0  0  0  0
  -25.9063  -34.9424   23.5095 C   0  0  0  0  0  0
  -16.5359  -29.9101   23.6387 C   0  0  0  0  0  0
  -16.7276  -28.6513   23.0414 C   0  0  0  0  0  0
  -26.4518  -31.6576   25.0756 C   0  0  0  0  0  0
  -25.3723  -31.3725   26.1465 C   0  0  0  0  0  0
  -27.0373  -30.2978   24.6277 C   0  0  0  0  0  0
  -27.6064  -32.4323   25.7521 C   0  0  0  0  0  0
  -27.5580  -37.1796   24.8465 C   0  0  0  0  0  0
  -21.4232  -29.3084   22.3637 N   0  0  0  0  0  0
  -26.4293  -37.3766   23.9403 N   0  0  0  0  0  0
  -24.7045  -31.0434   22.1018 N   0  0  0  0  0  0
  -23.4201  -28.8103   23.2982 O   0  0  0  0  0  0
  -28.2498  -26.2209   20.2232 O   0  0  0  0  0  0
  -26.5630  -34.8902   22.4658 O   0  0  0  0  0  0
  -23.5500  -32.1387   23.7264 O   0  0  0  0  0  0
  -27.2719  -22.2348   21.0510 C   0  0  0  0  0  0
  -26.3731  -23.2990   21.1507 C   0  0  0  0  0  0
  -28.5971  -22.5070   20.6981 C   0  0  0  0  0  0
  -27.9668  -24.8502   20.5152 C   0  0  0  0  0  0
  -28.7289  -17.8406   19.3467 C   0  0  0  0  0  0
  -28.4675  -19.3692   19.6103 C   0  0  0  0  0  0
  -30.0993  -18.6669   21.1296 C   0  0  0  0  0  0
  -29.9434  -17.3705   20.1963 C   0  0  1  0  0  0
  -29.6753  -21.3306   20.9309 C   0  0  0  0  0  0
  -26.7315  -24.5706   20.9178 N   0  0  0  0  0  0
  -28.9207  -23.8512   20.4227 N   0  0  0  0  0  0
  -29.8279  -15.9153   20.7233 N   0  0  0  0  0  0
  -29.6494  -19.8909   20.3269 N   0  3  2  0  0  0
  -31.4784  -12.5946   19.2006 H   0  0  0  0  0  0
  -30.3725  -11.4997   19.9775 H   0  0  0  0  0  0
  -29.8097  -11.7531   17.5381 H   0  0  0  0  0  0
  -29.6417  -13.4809   17.7415 H   0  0  0  0  0  0
  -27.9086  -11.2871   18.9243 H   0  0  0  0  0  0
  -27.3881  -12.5245   17.8111 H   0  0  0  0  0  0
  -27.6366  -14.2580   19.4778 H   0  0  0  0  0  0
  -28.7233  -12.1866   21.4473 H   0  0  0  0  0  0
  -28.4105  -13.8655   21.8069 H   0  0  0  0  0  0
  -25.2774   -9.5692   22.4749 H   0  0  0  0  0  0
  -24.0015   -7.4643   22.7466 H   0  0  0  0  0  0
  -21.0857   -8.8767   19.8945 H   0  0  0  0  0  0
  -22.3700  -10.9672   19.6154 H   0  0  0  0  0  0
  -21.2032   -7.6155   23.9714 H   0  0  0  0  0  0
  -21.1475   -6.0525   25.9070 H   0  0  0  0  0  0
  -22.0605   -2.7615   23.2829 H   0  0  0  0  0  0
  -22.4131  -11.9877   22.4805 H   0  0  0  0  0  0
  -21.1093  -13.1201   22.2618 H   0  0  0  0  0  0
  -24.6386  -15.8347   20.4918 H   0  0  0  0  0  0
  -26.2596  -15.6285   20.0610 H   0  0  0  0  0  0
  -26.7210  -32.5370   23.1069 H   0  0  0  0  0  0
  -25.0099  -33.9693   25.0410 H   0  0  0  0  0  0
  -22.7348  -31.3056   21.3987 H   0  0  0  0  0  0
  -23.3760  -35.9605   23.3293 H   0  0  0  0  0  0
  -24.3587  -36.8899   22.2053 H   0  0  0  0  0  0
  -23.7247  -37.6470   23.6668 H   0  0  0  0  0  0
  -26.1379  -31.4983   20.6271 H   0  0  0  0  0  0
  -26.8598  -30.7902   22.0369 H   0  0  0  0  0  0
  -28.0921  -28.8250   21.3081 H   0  0  0  0  0  0
  -25.9791  -25.9631   18.8668 H   0  0  0  0  0  0
  -24.0008  -27.3764   18.8942 H   0  0  0  0  0  0
  -23.7905  -30.6009   19.4079 H   0  0  0  0  0  0
  -22.7738  -29.2613   19.8442 H   0  0  0  0  0  0
  -25.1309  -36.1909   25.0829 H   0  0  0  0  0  0
  -21.0005  -28.3321   24.1365 H   0  0  0  0  0  0
  -20.5792  -26.2348   23.3593 H   0  0  0  0  0  0
  -21.6630  -26.7494   22.1090 H   0  0  0  0  0  0
  -19.6896  -25.6349   21.1237 H   0  0  0  0  0  0
  -19.6623  -27.3257   20.6793 H   0  0  0  0  0  0
  -17.4179  -26.6627   21.4142 H   0  0  0  0  0  0
  -18.0434  -26.0080   22.9137 H   0  0  0  0  0  0
  -19.8012  -30.7285   24.2179 H   0  0  0  0  0  0
  -17.5050  -31.6309   24.5107 H   0  0  0  0  0  0
  -15.5363  -30.3007   23.7720 H   0  0  0  0  0  0
  -15.8644  -28.0863   22.7168 H   0  0  0  0  0  0
  -24.5924  -30.7044   25.7783 H   0  0  0  0  0  0
  -24.8890  -32.2895   26.4851 H   0  0  0  0  0  0
  -25.8050  -30.8930   27.0256 H   0  0  0  0  0  0
  -26.2973  -29.6705   24.1285 H   0  0  0  0  0  0
  -27.4006  -29.7265   25.4826 H   0  0  0  0  0  0
  -27.8884  -30.4223   23.9573 H   0  0  0  0  0  0
  -27.2669  -33.3634   26.2065 H   0  0  0  0  0  0
  -28.3891  -32.6855   25.0359 H   0  0  0  0  0  0
  -28.0706  -31.8461   26.5460 H   0  0  0  0  0  0
  -28.2601  -38.0089   24.7516 H   0  0  0  0  0  0
  -28.1081  -36.2625   24.6302 H   0  0  0  0  0  0
  -27.2296  -37.1450   25.8866 H   0  0  0  0  0  0
  -20.9407  -29.8878   21.6921 H   0  0  0  0  0  0
  -26.0170  -38.2843   24.1389 H   0  0  0  0  0  0
  -26.9442  -21.2486   21.3421 H   0  0  0  0  0  0
  -25.3509  -23.1328   21.4601 H   0  0  0  0  0  0
  -28.9297  -17.6647   18.2882 H   0  0  0  0  0  0
  -27.8323  -17.2714   19.5891 H   0  0  0  0  0  0
  -27.5842  -19.4669   20.2398 H   0  0  0  0  0  0
  -28.2833  -19.9228   18.6897 H   0  0  0  0  0  0
  -31.1247  -18.7850   21.4832 H   0  0  0  0  0  0
  -29.4662  -18.5702   22.0135 H   0  0  0  0  0  0
  -30.8120  -17.3775   19.5349 H   0  0  0  0  0  0
  -29.7083  -21.1995   22.0118 H   0  0  0  0  0  0
  -30.6490  -21.7476   20.6816 H   0  0  0  0  0  0
  -28.9274  -15.6900   21.1202 H   0  0  0  0  0  0
  -30.3428  -19.9764   19.6006 H   0  0  0  0  0  0
  1 25  1  0  0  0
  1 30  2  0  0  0
  1 82  1  0  0  0
  2  3  1  0  0  0
  2 25  1  0  0  0
  2 84  1  0  0  0
  2 85  1  0  0  0
  3  4  1  0  0  0
  3 86  1  0  0  0
  3 87  1  0  0  0
  4  5  1  0  0  0
  4 88  1  0  0  0
  4 89  1  0  0  0
  5  6  1  0  0  0
  5 26  1  0  0  0
  5 90  1  0  0  0
  6 25  1  0  0  0
  6 91  1  0  0  0
  6 92  1  0  0  0
  7  8  2  0  0  0
  7 26  1  0  0  0
  7 29  1  0  0  0
  8  9  1  0  0  0
  8 22  1  0  0  0
  9 10  1  0  0  0
  9 27  2  0  0  0
 10 11  2  0  0  0
 10 15  1  0  0  0
 11 12  1  0  0  0
 11 93  1  0  0  0
 12 13  2  0  0  0
 12 94  1  0  0  0
 13 14  1  0  0  0
 13 31  1  0  0  0
 14 15  2  0  0  0
 14 95  1  0  0  0
 15 96  1  0  0  0
 16 17  2  0  0  0
 16 21  1  0  0  0
 16 31  1  0  0  0
 17 18  1  0  0  0
 17 97  1  0  0  0
 18 19  2  0  0  0
 18 98  1  0  0  0
 19 20  1  0  0  0
 19 24  1  0  0  0
 20 21  2  0  0  0
 20 99  1  0  0  0
 21 23  1  0  0  0
 22 28  1  0  0  0
 22 32  2  0  0  0
 26 27  1  0  0  0
 28100  1  0  0  0
 28101  1  0  0  0
 29102  1  0  0  0
 29103  1  0  0  0
 33 34  1  0  0  0
 33 66  1  0  0  0
 33 70  2  0  0  0
 34 36  1  0  0  0
 34 59  1  0  0  0
 34104  1  0  0  0
 35 44  2  0  0  0
 35 45  1  0  0  0
 35 68  1  0  0  0
 36 56  1  0  0  0
 36105  1  0  0  0
 37 39  1  0  0  0
 37 47  1  0  0  0
 37 66  1  0  0  0
 37106  1  0  0  0
 38 43  2  0  0  0
 38 46  1  0  0  0
 38 47  1  0  0  0
 39 64  1  0  0  0
 39 67  2  0  0  0
 40 52  1  0  0  0
 40 53  2  0  0  0
 40 58  1  0  0  0
 41107  1  0  0  0
 41108  1  0  0  0
 41109  1  0  0  0
 41 48  1  0  0  0
 42 43  1  0  0  0
 42 66  1  0  0  0
 42110  1  0  0  0
 42111  1  0  0  0
 43 44  1  0  0  0
 44112  1  0  0  0
 45 46  2  0  0  0
 45113  1  0  0  0
 46114  1  0  0  0
 47115  1  0  0  0
 47116  1  0  0  0
 48 56  1  0  0  0
 48 65  1  0  0  0
 48117  1  0  0  0
 49 50  1  0  0  0
 49 53  1  0  0  0
 49 64  1  0  0  0
 49118  1  0  0  0
 50 51  1  0  0  0
 50119  1  0  0  0
 50120  1  0  0  0
 51 52  1  0  0  0
 51121  1  0  0  0
 51122  1  0  0  0
 52123  1  0  0  0
 52124  1  0  0  0
 53 54  1  0  0  0
 54 55  2  0  0  0
 54125  1  0  0  0
 55 57  1  0  0  0
 55126  1  0  0  0
 56 69  2  0  0  0
 57 58  2  0  0  0
 57127  1  0  0  0
 58128  1  0  0  0
 59 60  1  0  0  0
 59 61  1  0  0  0
 59 62  1  0  0  0
 60129  1  0  0  0
 60130  1  0  0  0
 60131  1  0  0  0
 61132  1  0  0  0
 61133  1  0  0  0
 61134  1  0  0  0
 62135  1  0  0  0
 62136  1  0  0  0
 62137  1  0  0  0
 63 65  1  0  0  0
 63138  1  0  0  0
 63139  1  0  0  0
 63140  1  0  0  0
 64141  1  0  0  0
 65142  1  0  0  0
 68 74  1  0  0  0
 71 72  2  0  0  0
 71 73  1  0  0  0
 71143  1  0  0  0
 72 80  1  0  0  0
 72144  1  0  0  0
 73 79  1  0  0  0
 73 81  2  0  0  0
 74 80  2  0  0  0
 74 81  1  0  0  0
 75 76  1  0  0  0
 75 78  1  0  0  0
 75145  1  0  0  0
 75146  1  0  0  0
 76 83  1  0  0  0
 76147  1  0  0  0
 76148  1  0  0  0
 77 78  1  0  0  0
 77 83  1  0  0  0
 77149  1  0  0  0
 77150  1  0  0  0
 78 82  1  0  0  0
 78151  1  0  0  0
 79152  1  0  0  0
 79153  1  0  0  0
 79 83  1  0  0  0
 82154  1  0  0  0
 83155  1  0  0  0
M  CHG  1  83   1
M  ISO  4   1 100  68 101  74 101  82 100
M  END
> <chiral flag>
0

> <version>
0

> <s_m_source_file>
/data/baiqing/PycharmProjects/Reinvent-master-3.2/result/LINK_invent/BTK/process_docking_weight1_custom_sum_contain_oxygen_bond_distance_aromatic_linkinvent_7_9_3/rearranged_h_0192.sdf

> <i_m_source_file_index>
30

> <r_mmod_Potential_Energy-OPLS-2005>
-297.050903320312

> <r_mmod_Stretch_Energy-OPLS-2005>
150.241775512695

> <r_mmod_Bend_Energy-OPLS-2005>
242.979278564453

> <r_mmod_Torsional_Energy-OPLS-2005>
274.808624267578

> <r_mmod_Improper_Torsional_Energy-OPLS-2005>
7.82871246337891

> <r_mmod_Van_der_Waal_Energy-OPLS-2005>
148.281875610352

> <r_mmod_Electrostatic_Energy-OPLS-2005>
-725.690795898438

> <r_mmod_Solvation_Energy-OPLS-2005>
-514.810913085938

> <b_mmod_Minimization_Converged-OPLS-2005>
0

> <r_mmod_RMS_Derivative-OPLS-2005>
2.40393924713135

$$$$
30
                    3D
 Structure written by MMmdl.
162171  0  0  1  0            999 V2000
  -30.6594  -14.4891   20.5475 C   0  0  0  0  0  0
  -30.4270  -12.3068   19.4328 C   0  0  0  0  0  0
  -29.4946  -12.5034   18.2167 C   0  0  0  0  0  0
  -28.0170  -12.3652   18.6298 C   0  0  0  0  0  0
  -27.6614  -13.1976   19.8869 C   0  0  2  0  0  0
  -28.7047  -12.9737   21.0076 C   0  0  0  0  0  0
  -25.2537  -13.8166   20.5680 C   0  0  0  0  0  0
  -24.1795  -13.0408   20.9180 C   0  0  0  0  0  0
  -24.6366  -11.6879   20.8751 C   0  0  0  0  0  0
  -23.9051  -10.4255   21.0411 C   0  0  0  0  0  0
  -24.3621   -9.4172   21.9189 C   0  0  0  0  0  0
  -23.6282   -8.2216   22.0763 C   0  0  0  0  0  0
  -22.4259   -8.0290   21.3561 C   0  0  0  0  0  0
  -21.9891   -9.0255   20.4657 C   0  0  0  0  0  0
  -22.7237  -10.2112   20.3038 C   0  0  0  0  0  0
  -21.6856   -6.0727   22.5266 C   0  0  0  0  0  0
  -21.4019   -6.5627   23.8197 C   0  0  0  0  0  0
  -21.3656   -5.6777   24.9141 C   0  0  0  0  0  0
  -21.6064   -4.3052   24.7209 C   0  0  0  0  0  0
  -21.8830   -3.8140   23.4334 C   0  0  0  0  0  0
  -21.9179   -4.6949   22.3387 C   0  0  0  0  0  0
  -22.7810  -13.5211   21.1829 C   0  0  0  0  0  0
  -22.1655   -4.2137   21.0972 F   0  0  0  0  0  0
  -21.5623   -3.4536   25.7729 F   0  0  0  0  0  0
  -30.0380  -13.2828   20.4631 N   0  0  0  0  0  0
  -26.2988  -12.9322   20.3407 N   0  0  0  0  0  0
  -25.9291  -11.6475   20.5780 N   0  0  0  0  0  0
  -22.0454  -12.8238   22.0429 N   0  0  0  0  0  0
  -25.4180  -15.1875   20.4041 N   0  0  0  0  0  0
  -31.7784  -14.7057   20.0715 O   0  0  0  0  0  0
  -21.6639   -6.8886   21.4232 O   0  0  0  0  0  0
  -22.3475  -14.5490   20.6663 O   0  0  0  0  0  0
  -24.6150  -31.8695   23.2067 C   0  0  0  0  0  0
  -25.9065  -32.4833   23.8375 C   0  0  1  0  0  0
  -27.2463  -27.4525   20.0867 C   0  0  0  0  0  0
  -25.5948  -33.8620   24.2313 N   0  0  0  0  0  0
  -23.4008  -30.4899   21.5469 C   0  0  2  0  0  0
  -24.8482  -28.9503   20.1203 C   0  0  0  0  0  0
  -22.7415  -29.4676   22.4985 C   0  0  0  0  0  0
  -18.0268  -28.1380   22.8496 C   0  0  0  0  0  0
  -24.1494  -36.7267   23.2634 C   0  0  0  0  0  0
  -25.9270  -30.8371   21.3600 C   0  0  0  0  0  0
  -26.0072  -29.4684   20.7145 C   0  0  0  0  0  0
  -27.2088  -28.7268   20.6951 C   0  0  0  0  0  0
  -26.0750  -26.9348   19.5019 C   0  0  0  0  0  0
  -24.8763  -27.6786   19.5173 C   0  0  0  0  0  0
  -23.6065  -29.8109   20.1655 C   0  0  0  0  0  0
  -25.4114  -36.3083   24.0327 C   0  0  1  0  0  0
  -20.5860  -28.3668   23.1335 C   0  0  2  0  0  0
  -20.6775  -26.9405   22.5423 C   0  0  0  0  0  0
  -19.5758  -26.6376   21.5230 C   0  0  0  0  0  0
  -18.1918  -26.7937   22.1608 C   0  0  0  0  0  0
  -19.1515  -28.8839   23.2921 C   0  0  0  0  0  0
  -18.9445  -30.1448   23.8927 C   0  0  0  0  0  0
  -17.6449  -30.6594   24.0560 C   0  0  0  0  0  0
  -25.9058  -34.9475   23.5107 C   0  0  0  0  0  0
  -16.5333  -29.9090   23.6340 C   0  0  0  0  0  0
  -16.7258  -28.6505   23.0360 C   0  0  0  0  0  0
  -26.4477  -31.6615   25.0708 C   0  0  0  0  0  0
  -25.3737  -31.3704   26.1458 C   0  0  0  0  0  0
  -27.0321  -30.3076   24.6075 C   0  0  0  0  0  0
  -27.6074  -32.4341   25.7461 C   0  0  0  0  0  0
  -27.5589  -37.1749   24.8452 C   0  0  0  0  0  0
  -21.4154  -29.3032   22.3741 N   0  0  0  0  0  0
  -26.4266  -37.3798   23.9453 N   0  0  0  0  0  0
  -24.6645  -31.0822   22.0947 N   0  0  0  0  0  0
  -23.4212  -28.8227   23.3014 O   0  0  0  0  0  0
  -28.4284  -26.7612   19.9725 O   0  0  0  0  0  0
  -26.5597  -34.8957   22.4657 O   0  0  0  0  0  0
  -23.5356  -32.1398   23.7496 O   0  0  0  0  0  0
  -32.0466  -18.5700   22.6786 C   0  0  0  0  0  0
  -30.4716  -17.9126   21.2584 C   0  0  0  0  0  0
  -30.7454  -20.0688   21.6976 C   0  0  0  0  0  0
  -28.5554  -23.8156   19.1099 C   0  0  0  0  0  0
  -29.3719  -23.2902   20.2757 C   0  0  1  0  0  0
  -28.2857  -24.3383   20.4948 C   0  0  1  0  0  0
  -33.2298  -18.2300   23.5684 C   0  0  0  0  0  0
  -28.3446  -17.1547   20.0545 C   0  0  0  0  0  0
  -29.2128  -21.8576   20.7733 C   0  0  0  0  0  0
  -28.6724  -25.7476   20.9434 C   0  0  0  0  0  0
  -29.8233  -16.8340   20.3818 C   0  0  2  0  0  0
  -31.4376  -17.5416   22.0950 N   0  0  0  0  0  0
  -31.7481  -19.8614   22.5317 N   0  0  0  0  0  0
  -30.0812  -19.1607   21.0134 N   0  0  0  0  0  0
  -30.3915  -21.3897   21.5063 N   0  0  0  0  0  0
  -29.8563  -15.4827   20.9538 N   0  0  0  0  0  0
  -31.4669  -12.4204   19.1246 H   0  0  0  0  0  0
  -30.3406  -11.2885   19.8224 H   0  0  0  0  0  0
  -29.7283  -11.7713   17.4426 H   0  0  0  0  0  0
  -29.6640  -13.4841   17.7684 H   0  0  0  0  0  0
  -27.8300  -11.3118   18.8301 H   0  0  0  0  0  0
  -27.3643  -12.6381   17.7989 H   0  0  0  0  0  0
  -27.7067  -14.2418   19.5923 H   0  0  0  0  0  0
  -28.6771  -11.9376   21.3488 H   0  0  0  0  0  0
  -28.4630  -13.5721   21.8867 H   0  0  0  0  0  0
  -25.2751   -9.5630   22.4781 H   0  0  0  0  0  0
  -23.9966   -7.4612   22.7510 H   0  0  0  0  0  0
  -21.0793   -8.8790   19.9009 H   0  0  0  0  0  0
  -22.3701  -10.9654   19.6167 H   0  0  0  0  0  0
  -21.2010   -7.6140   23.9680 H   0  0  0  0  0  0
  -21.1480   -6.0519   25.9053 H   0  0  0  0  0  0
  -22.0607   -2.7599   23.2824 H   0  0  0  0  0  0
  -22.4013  -11.9877   22.4806 H   0  0  0  0  0  0
  -21.1102  -13.1304   22.2664 H   0  0  0  0  0  0
  -24.6448  -15.8388   20.4921 H   0  0  0  0  0  0
  -26.2556  -15.6244   20.0449 H   0  0  0  0  0  0
  -26.7145  -32.5535   23.1156 H   0  0  0  0  0  0
  -25.0205  -33.9784   25.0528 H   0  0  0  0  0  0
  -22.6909  -31.3072   21.4039 H   0  0  0  0  0  0
  -23.3806  -35.9553   23.3268 H   0  0  0  0  0  0
  -24.3583  -36.8904   22.2051 H   0  0  0  0  0  0
  -23.7204  -37.6438   23.6678 H   0  0  0  0  0  0
  -26.0454  -31.6015   20.5914 H   0  0  0  0  0  0
  -26.8156  -30.8876   21.9780 H   0  0  0  0  0  0
  -28.1122  -29.1328   21.1295 H   0  0  0  0  0  0
  -26.0957  -25.9668   19.0199 H   0  0  0  0  0  0
  -23.9879  -27.2669   19.0614 H   0  0  0  0  0  0
  -23.7013  -30.5801   19.3973 H   0  0  0  0  0  0
  -22.7342  -29.2185   19.8803 H   0  0  0  0  0  0
  -25.1280  -36.1896   25.0803 H   0  0  0  0  0  0
  -20.9917  -28.3182   24.1469 H   0  0  0  0  0  0
  -20.5721  -26.2247   23.3586 H   0  0  0  0  0  0
  -21.6640  -26.7475   22.1180 H   0  0  0  0  0  0
  -19.6936  -25.6288   21.1255 H   0  0  0  0  0  0
  -19.6722  -27.3215   20.6786 H   0  0  0  0  0  0
  -17.4196  -26.6724   21.3988 H   0  0  0  0  0  0
  -18.0281  -26.0062   22.8984 H   0  0  0  0  0  0
  -19.7923  -30.7253   24.2312 H   0  0  0  0  0  0
  -17.5006  -31.6304   24.5132 H   0  0  0  0  0  0
  -15.5340  -30.3000   23.7684 H   0  0  0  0  0  0
  -15.8642  -28.0839   22.7084 H   0  0  0  0  0  0
  -24.5947  -30.7009   25.7782 H   0  0  0  0  0  0
  -24.8883  -32.2839   26.4896 H   0  0  0  0  0  0
  -25.8059  -30.8872   27.0231 H   0  0  0  0  0  0
  -26.2831  -29.6821   24.1187 H   0  0  0  0  0  0
  -27.4197  -29.7327   25.4507 H   0  0  0  0  0  0
  -27.8642  -30.4439   23.9155 H   0  0  0  0  0  0
  -27.2722  -33.3670   26.2013 H   0  0  0  0  0  0
  -28.3879  -32.6842   25.0254 H   0  0  0  0  0  0
  -28.0772  -31.8482   26.5374 H   0  0  0  0  0  0
  -28.2503  -38.0148   24.7649 H   0  0  0  0  0  0
  -28.1167  -36.2683   24.6055 H   0  0  0  0  0  0
  -27.2328  -37.1107   25.8852 H   0  0  0  0  0  0
  -20.9315  -29.8694   21.6913 H   0  0  0  0  0  0
  -26.0132  -38.2840   24.1581 H   0  0  0  0  0  0
  -27.8111  -23.1501   18.6736 H   0  0  0  0  0  0
  -29.0517  -24.4750   18.4023 H   0  0  0  0  0  0
  -30.4014  -23.6380   20.2595 H   0  0  0  0  0  0
  -27.3286  -24.0064   20.8928 H   0  0  0  0  0  0
  -33.5656  -17.2047   23.4054 H   0  0  0  0  0  0
  -32.9771  -18.3325   24.6236 H   0  0  0  0  0  0
  -34.0807  -18.8828   23.3570 H   0  0  0  0  0  0
  -28.2393  -18.1084   19.5351 H   0  0  0  0  0  0
  -27.7317  -17.2079   20.9550 H   0  0  0  0  0  0
  -27.9061  -16.4106   19.3944 H   0  0  0  0  0  0
  -29.0183  -21.2111   19.9176 H   0  0  0  0  0  0
  -28.3396  -21.7887   21.4247 H   0  0  0  0  0  0
  -29.7455  -25.7637   21.1442 H   0  0  0  0  0  0
  -28.1827  -25.9706   21.8918 H   0  0  0  0  0  0
  -30.3741  -16.8393   19.4385 H   0  0  0  0  0  0
  -30.9032  -22.0618   22.0611 H   0  0  0  0  0  0
  -29.0175  -15.2073   21.4372 H   0  0  0  0  0  0
  1 25  1  0  0  0
  1 30  2  0  0  0
  1 86  1  0  0  0
  2  3  1  0  0  0
  2 25  1  0  0  0
  2 87  1  0  0  0
  2 88  1  0  0  0
  3  4  1  0  0  0
  3 89  1  0  0  0
  3 90  1  0  0  0
  4  5  1  0  0  0
  4 91  1  0  0  0
  4 92  1  0  0  0
  5  6  1  0  0  0
  5 26  1  0  0  0
  5 93  1  0  0  0
  6 25  1  0  0  0
  6 94  1  0  0  0
  6 95  1  0  0  0
  7  8  2  0  0  0
  7 26  1  0  0  0
  7 29  1  0  0  0
  8  9  1  0  0  0
  8 22  1  0  0  0
  9 10  1  0  0  0
  9 27  2  0  0  0
 10 11  2  0  0  0
 10 15  1  0  0  0
 11 12  1  0  0  0
 11 96  1  0  0  0
 12 13  2  0  0  0
 12 97  1  0  0  0
 13 14  1  0  0  0
 13 31  1  0  0  0
 14 15  2  0  0  0
 14 98  1  0  0  0
 15 99  1  0  0  0
 16 17  2  0  0  0
 16 21  1  0  0  0
 16 31  1  0  0  0
 17 18  1  0  0  0
 17100  1  0  0  0
 18 19  2  0  0  0
 18101  1  0  0  0
 19 20  1  0  0  0
 19 24  1  0  0  0
 20 21  2  0  0  0
 20102  1  0  0  0
 21 23  1  0  0  0
 22 28  1  0  0  0
 22 32  2  0  0  0
 26 27  1  0  0  0
 28103  1  0  0  0
 28104  1  0  0  0
 29105  1  0  0  0
 29106  1  0  0  0
 33 34  1  0  0  0
 33 66  1  0  0  0
 33 70  2  0  0  0
 34 36  1  0  0  0
 34 59  1  0  0  0
 34107  1  0  0  0
 35 44  2  0  0  0
 35 45  1  0  0  0
 35 68  1  0  0  0
 36 56  1  0  0  0
 36108  1  0  0  0
 37 39  1  0  0  0
 37 47  1  0  0  0
 37 66  1  0  0  0
 37109  1  0  0  0
 38 43  2  0  0  0
 38 46  1  0  0  0
 38 47  1  0  0  0
 39 64  1  0  0  0
 39 67  2  0  0  0
 40 52  1  0  0  0
 40 53  2  0  0  0
 40 58  1  0  0  0
 41110  1  0  0  0
 41111  1  0  0  0
 41112  1  0  0  0
 41 48  1  0  0  0
 42 43  1  0  0  0
 42 66  1  0  0  0
 42113  1  0  0  0
 42114  1  0  0  0
 43 44  1  0  0  0
 44115  1  0  0  0
 45 46  2  0  0  0
 45116  1  0  0  0
 46117  1  0  0  0
 47118  1  0  0  0
 47119  1  0  0  0
 48 56  1  0  0  0
 48 65  1  0  0  0
 48120  1  0  0  0
 49 50  1  0  0  0
 49 53  1  0  0  0
 49 64  1  0  0  0
 49121  1  0  0  0
 50 51  1  0  0  0
 50122  1  0  0  0
 50123  1  0  0  0
 51 52  1  0  0  0
 51124  1  0  0  0
 51125  1  0  0  0
 52126  1  0  0  0
 52127  1  0  0  0
 53 54  1  0  0  0
 54 55  2  0  0  0
 54128  1  0  0  0
 55 57  1  0  0  0
 55129  1  0  0  0
 56 69  2  0  0  0
 57 58  2  0  0  0
 57130  1  0  0  0
 58131  1  0  0  0
 59 60  1  0  0  0
 59 61  1  0  0  0
 59 62  1  0  0  0
 60132  1  0  0  0
 60133  1  0  0  0
 60134  1  0  0  0
 61135  1  0  0  0
 61136  1  0  0  0
 61137  1  0  0  0
 62138  1  0  0  0
 62139  1  0  0  0
 62140  1  0  0  0
 63 65  1  0  0  0
 63141  1  0  0  0
 63142  1  0  0  0
 63143  1  0  0  0
 64144  1  0  0  0
 65145  1  0  0  0
 68 80  1  0  0  0
 71 77  1  0  0  0
 71 82  2  0  0  0
 71 83  1  0  0  0
 72 81  1  0  0  0
 72 82  1  0  0  0
 72 84  2  0  0  0
 73 83  2  0  0  0
 73 84  1  0  0  0
 73 85  1  0  0  0
 74 75  1  0  0  0
 74 76  1  0  0  0
 74146  1  0  0  0
 74147  1  0  0  0
 75 76  1  0  0  0
 75 79  1  0  0  0
 75148  1  0  0  0
 76 80  1  0  0  0
 76149  1  0  0  0
 77150  1  0  0  0
 77151  1  0  0  0
 77152  1  0  0  0
 78153  1  0  0  0
 78154  1  0  0  0
 78155  1  0  0  0
 78 81  1  0  0  0
 79 85  1  0  0  0
 79156  1  0  0  0
 79157  1  0  0  0
 80158  1  0  0  0
 80159  1  0  0  0
 81 86  1  0  0  0
 81160  1  0  0  0
 85161  1  0  0  0
 86162  1  0  0  0
M  ISO  4   1 100  68 101  80 101  86 100
M  END
> <chiral flag>
0

> <version>
0

> <s_m_source_file>
/data/baiqing/PycharmProjects/Reinvent-master-3.2/result/LINK_invent/BTK/process_docking_weight1_custom_sum_contain_oxygen_bond_distance_aromatic_linkinvent_7_9_3/rearranged_h_0192.sdf

> <i_m_source_file_index>
31

> <r_mmod_Potential_Energy-OPLS-2005>
-997.828796386719

> <r_mmod_Stretch_Energy-OPLS-2005>
33.212287902832

> <r_mmod_Bend_Energy-OPLS-2005>
100.026763916016

> <r_mmod_Torsional_Energy-OPLS-2005>
283.562683105469

> <r_mmod_Improper_Torsional_Energy-OPLS-2005>
8.70603656768799

> <r_mmod_Van_der_Waal_Energy-OPLS-2005>
173.357040405273

> <r_mmod_Electrostatic_Energy-OPLS-2005>
-1366.48815917969

> <r_mmod_Solvation_Energy-OPLS-2005>
-242.854583740234

> <b_mmod_Minimization_Converged-OPLS-2005>
0

> <r_mmod_RMS_Derivative-OPLS-2005>
5.22068119049072

$$$$
31
                    3D
 Structure written by MMmdl.
157166  0  0  1  0            999 V2000
  -30.6587  -14.5781   20.4376 C   0  0  0  0  0  0
  -30.4270  -12.3374   19.4412 C   0  0  0  0  0  0
  -29.5007  -12.4637   18.2136 C   0  0  0  0  0  0
  -28.0204  -12.3323   18.6294 C   0  0  0  0  0  0
  -27.6476  -13.2073   19.8575 C   0  0  2  0  0  0
  -28.6999  -13.0888   20.9823 C   0  0  0  0  0  0
  -25.2566  -13.8146   20.5708 C   0  0  0  0  0  0
  -24.1819  -13.0427   20.9194 C   0  0  0  0  0  0
  -24.6376  -11.6895   20.8756 C   0  0  0  0  0  0
  -23.9042  -10.4287   21.0413 C   0  0  0  0  0  0
  -24.3603   -9.4204   21.9186 C   0  0  0  0  0  0
  -23.6286   -8.2237   22.0750 C   0  0  0  0  0  0
  -22.4267   -8.0273   21.3542 C   0  0  0  0  0  0
  -21.9898   -9.0247   20.4647 C   0  0  0  0  0  0
  -22.7218  -10.2131   20.3060 C   0  0  0  0  0  0
  -21.6852   -6.0730   22.5277 C   0  0  0  0  0  0
  -21.4012   -6.5634   23.8211 C   0  0  0  0  0  0
  -21.3663   -5.6787   24.9175 C   0  0  0  0  0  0
  -21.6044   -4.3049   24.7225 C   0  0  0  0  0  0
  -21.8819   -3.8141   23.4345 C   0  0  0  0  0  0
  -21.9192   -4.6958   22.3402 C   0  0  0  0  0  0
  -22.7846  -13.5237   21.1846 C   0  0  0  0  0  0
  -22.1659   -4.2144   21.0979 F   0  0  0  0  0  0
  -21.5633   -3.4533   25.7738 F   0  0  0  0  0  0
  -30.0145  -13.3775   20.3950 N   0  0  0  0  0  0
  -26.2974  -12.9299   20.3347 N   0  0  0  0  0  0
  -25.9304  -11.6467   20.5795 N   0  0  0  0  0  0
  -22.0477  -12.8248   22.0406 N   0  0  0  0  0  0
  -25.4310  -15.1871   20.4145 N   0  0  0  0  0  0
  -31.8704  -14.6823   20.2283 O   0  0  0  0  0  0
  -21.6633   -6.8872   21.4238 O   0  0  0  0  0  0
  -22.3542  -14.5541   20.6682 O   0  0  0  0  0  0
  -24.6184  -31.8641   23.2047 C   0  0  0  0  0  0
  -25.9052  -32.4802   23.8365 C   0  0  1  0  0  0
  -27.2345  -27.3919   20.1169 C   0  0  0  0  0  0
  -25.5884  -33.8600   24.2298 N   0  0  0  0  0  0
  -23.4087  -30.4855   21.5458 C   0  0  2  0  0  0
  -24.8558  -28.9385   20.1188 C   0  0  0  0  0  0
  -22.7428  -29.4645   22.4973 C   0  0  0  0  0  0
  -18.0274  -28.1393   22.8497 C   0  0  0  0  0  0
  -24.1483  -36.7317   23.2642 C   0  0  0  0  0  0
  -25.9394  -30.8205   21.3589 C   0  0  0  0  0  0
  -26.0183  -29.4483   20.7116 C   0  0  0  0  0  0
  -27.2128  -28.6863   20.6973 C   0  0  0  0  0  0
  -26.0543  -26.8996   19.5230 C   0  0  0  0  0  0
  -24.8709  -27.6656   19.5192 C   0  0  0  0  0  0
  -23.6199  -29.8114   20.1631 C   0  0  0  0  0  0
  -25.4103  -36.3098   24.0337 C   0  0  1  0  0  0
  -20.5868  -28.3679   23.1313 C   0  0  2  0  0  0
  -20.6762  -26.9410   22.5421 C   0  0  0  0  0  0
  -19.5738  -26.6394   21.5219 C   0  0  0  0  0  0
  -18.1918  -26.7940   22.1630 C   0  0  0  0  0  0
  -19.1528  -28.8851   23.2904 C   0  0  0  0  0  0
  -18.9456  -30.1457   23.8914 C   0  0  0  0  0  0
  -17.6459  -30.6595   24.0575 C   0  0  0  0  0  0
  -25.9029  -34.9465   23.5118 C   0  0  0  0  0  0
  -16.5347  -29.9103   23.6327 C   0  0  0  0  0  0
  -16.7264  -28.6522   23.0342 C   0  0  0  0  0  0
  -26.4472  -31.6596   25.0709 C   0  0  0  0  0  0
  -25.3736  -31.3716   26.1461 C   0  0  0  0  0  0
  -27.0304  -30.3035   24.6093 C   0  0  0  0  0  0
  -27.6039  -32.4326   25.7474 C   0  0  0  0  0  0
  -27.5573  -37.1813   24.8466 C   0  0  0  0  0  0
  -21.4154  -29.3040   22.3717 N   0  0  0  0  0  0
  -26.4289  -37.3784   23.9405 N   0  0  0  0  0  0
  -24.6744  -31.0716   22.0953 N   0  0  0  0  0  0
  -23.4184  -28.8190   23.3032 O   0  0  0  0  0  0
  -28.3985  -26.6433   20.0897 O   0  0  0  0  0  0
  -26.5606  -34.8925   22.4688 O   0  0  0  0  0  0
  -23.5367  -32.1403   23.7424 O   0  0  0  0  0  0
  -30.7844  -23.1386   20.2176 C   0  0  0  0  0  0
  -31.1259  -20.9023   20.6554 C   0  0  0  0  0  0
  -29.3898  -22.9271   20.1126 C   0  0  0  0  0  0
  -29.7329  -20.6457   20.5573 C   0  0  0  0  0  0
  -29.2402  -17.6279   18.9638 C   0  0  0  0  0  0
  -29.6783  -16.1644   18.8951 C   0  0  0  0  0  0
  -29.8932  -16.8822   21.1394 C   0  0  0  0  0  0
  -29.8959  -18.1499   20.2296 C   0  0  2  0  0  0
  -28.4906  -24.1127   19.6795 C   0  0  0  0  0  0
  -28.3792  -25.3138   20.6783 C   0  0  0  0  0  0
  -31.6527  -22.1387   20.4935 N   0  0  0  0  0  0
  -28.8604  -21.6716   20.2993 N   0  0  0  0  0  0
  -29.8553  -15.6729   20.2745 N   0  0  0  0  0  0
  -29.1978  -19.3486   20.7508 N   0  0  0  0  0  0
  -31.4717  -12.4391   19.1408 H   0  0  0  0  0  0
  -30.3362  -11.3500   19.8955 H   0  0  0  0  0  0
  -29.7490  -11.6987   17.4770 H   0  0  0  0  0  0
  -29.6655  -13.4206   17.7183 H   0  0  0  0  0  0
  -27.8422  -11.2816   18.8603 H   0  0  0  0  0  0
  -27.3698  -12.5687   17.7868 H   0  0  0  0  0  0
  -27.6463  -14.2370   19.5113 H   0  0  0  0  0  0
  -28.6945  -12.0897   21.4196 H   0  0  0  0  0  0
  -28.4745  -13.7847   21.7927 H   0  0  0  0  0  0
  -25.2749   -9.5684   22.4758 H   0  0  0  0  0  0
  -23.9995   -7.4629   22.7468 H   0  0  0  0  0  0
  -21.0826   -8.8766   19.8959 H   0  0  0  0  0  0
  -22.3672  -10.9671   19.6172 H   0  0  0  0  0  0
  -21.1999   -7.6141   23.9715 H   0  0  0  0  0  0
  -21.1488   -6.0515   25.9079 H   0  0  0  0  0  0
  -22.0597   -2.7602   23.2846 H   0  0  0  0  0  0
  -22.4081  -11.9919   22.4819 H   0  0  0  0  0  0
  -21.1097  -13.1296   22.2597 H   0  0  0  0  0  0
  -24.6713  -15.8480   20.5346 H   0  0  0  0  0  0
  -26.2996  -15.6269   20.1365 H   0  0  0  0  0  0
  -26.7125  -32.5505   23.1131 H   0  0  0  0  0  0
  -25.0010  -33.9751   25.0425 H   0  0  0  0  0  0
  -22.6992  -31.3031   21.4018 H   0  0  0  0  0  0
  -23.3727  -35.9668   23.3323 H   0  0  0  0  0  0
  -24.3576  -36.8916   22.2052 H   0  0  0  0  0  0
  -23.7262  -37.6538   23.6649 H   0  0  0  0  0  0
  -26.0492  -31.5813   20.5847 H   0  0  0  0  0  0
  -26.8284  -30.8812   21.9756 H   0  0  0  0  0  0
  -28.1141  -29.0809   21.1457 H   0  0  0  0  0  0
  -26.0508  -25.9249   19.0557 H   0  0  0  0  0  0
  -23.9774  -27.2678   19.0580 H   0  0  0  0  0  0
  -23.7339  -30.5830   19.4007 H   0  0  0  0  0  0
  -22.7428  -29.2331   19.8666 H   0  0  0  0  0  0
  -25.1287  -36.1958   25.0833 H   0  0  0  0  0  0
  -20.9965  -28.3244   24.1431 H   0  0  0  0  0  0
  -20.5662  -26.2287   23.3616 H   0  0  0  0  0  0
  -21.6634  -26.7447   22.1214 H   0  0  0  0  0  0
  -19.6892  -25.6307   21.1242 H   0  0  0  0  0  0
  -19.6675  -27.3215   20.6759 H   0  0  0  0  0  0
  -17.4189  -26.6694   21.4030 H   0  0  0  0  0  0
  -18.0310  -26.0088   22.9031 H   0  0  0  0  0  0
  -19.7935  -30.7271   24.2289 H   0  0  0  0  0  0
  -17.5015  -31.6272   24.5185 H   0  0  0  0  0  0
  -15.5351  -30.3010   23.7647 H   0  0  0  0  0  0
  -15.8665  -28.0854   22.7034 H   0  0  0  0  0  0
  -24.5891  -30.7083   25.7802 H   0  0  0  0  0  0
  -24.8953  -32.2882   26.4921 H   0  0  0  0  0  0
  -25.8090  -30.8872   27.0210 H   0  0  0  0  0  0
  -26.2849  -29.6792   24.1149 H   0  0  0  0  0  0
  -27.4079  -29.7274   25.4551 H   0  0  0  0  0  0
  -27.8679  -30.4356   23.9239 H   0  0  0  0  0  0
  -27.2641  -33.3607   26.2083 H   0  0  0  0  0  0
  -28.3827  -32.6921   25.0291 H   0  0  0  0  0  0
  -28.0730  -31.8437   26.5366 H   0  0  0  0  0  0
  -28.2609  -38.0089   24.7480 H   0  0  0  0  0  0
  -28.1053  -36.2623   24.6330 H   0  0  0  0  0  0
  -27.2296  -37.1513   25.8871 H   0  0  0  0  0  0
  -20.9317  -29.8775   21.6948 H   0  0  0  0  0  0
  -26.0176  -38.2865   24.1386 H   0  0  0  0  0  0
  -31.2110  -24.1186   20.0545 H   0  0  0  0  0  0
  -31.8328  -20.1191   20.8861 H   0  0  0  0  0  0
  -28.1528  -17.6703   19.0452 H   0  0  0  0  0  0
  -29.5270  -18.1927   18.0749 H   0  0  0  0  0  0
  -30.6218  -16.0988   18.3479 H   0  0  0  0  0  0
  -28.9529  -15.5733   18.3388 H   0  0  0  0  0  0
  -29.0025  -16.8608   21.7689 H   0  0  0  0  0  0
  -30.7583  -16.8773   21.8059 H   0  0  0  0  0  0
  -30.9337  -18.3756   19.9829 H   0  0  0  0  0  0
  -27.4936  -23.7506   19.4268 H   0  0  0  0  0  0
  -28.9112  -24.4856   18.7449 H   0  0  0  0  0  0
  -29.2511  -25.2942   21.3323 H   0  0  0  0  0  0
  -27.5256  -25.1752   21.3442 H   0  0  0  0  0  0
  -28.1858  -19.3154   20.6934 H   0  0  0  0  0  0
  1 25  1  0  0  0
  1 30  2  0  0  0
  1 83  1  0  0  0
  2  3  1  0  0  0
  2 25  1  0  0  0
  2 85  1  0  0  0
  2 86  1  0  0  0
  3  4  1  0  0  0
  3 87  1  0  0  0
  3 88  1  0  0  0
  4  5  1  0  0  0
  4 89  1  0  0  0
  4 90  1  0  0  0
  5  6  1  0  0  0
  5 26  1  0  0  0
  5 91  1  0  0  0
  6 25  1  0  0  0
  6 92  1  0  0  0
  6 93  1  0  0  0
  7  8  2  0  0  0
  7 26  1  0  0  0
  7 29  1  0  0  0
  8  9  1  0  0  0
  8 22  1  0  0  0
  9 10  1  0  0  0
  9 27  2  0  0  0
 10 11  2  0  0  0
 10 15  1  0  0  0
 11 12  1  0  0  0
 11 94  1  0  0  0
 12 13  2  0  0  0
 12 95  1  0  0  0
 13 14  1  0  0  0
 13 31  1  0  0  0
 14 15  2  0  0  0
 14 96  1  0  0  0
 15 97  1  0  0  0
 16 17  2  0  0  0
 16 21  1  0  0  0
 16 31  1  0  0  0
 17 18  1  0  0  0
 17 98  1  0  0  0
 18 19  2  0  0  0
 18 99  1  0  0  0
 19 20  1  0  0  0
 19 24  1  0  0  0
 20 21  2  0  0  0
 20100  1  0  0  0
 21 23  1  0  0  0
 22 28  1  0  0  0
 22 32  2  0  0  0
 26 27  1  0  0  0
 28101  1  0  0  0
 28102  1  0  0  0
 29103  1  0  0  0
 29104  1  0  0  0
 33 34  1  0  0  0
 33 66  1  0  0  0
 33 70  2  0  0  0
 34 36  1  0  0  0
 34 59  1  0  0  0
 34105  1  0  0  0
 35 44  2  0  0  0
 35 45  1  0  0  0
 35 68  1  0  0  0
 36 56  1  0  0  0
 36106  1  0  0  0
 37 39  1  0  0  0
 37 47  1  0  0  0
 37 66  1  0  0  0
 37107  1  0  0  0
 38 43  2  0  0  0
 38 46  1  0  0  0
 38 47  1  0  0  0
 39 64  1  0  0  0
 39 67  2  0  0  0
 40 52  1  0  0  0
 40 53  2  0  0  0
 40 58  1  0  0  0
 41108  1  0  0  0
 41109  1  0  0  0
 41110  1  0  0  0
 41 48  1  0  0  0
 42 43  1  0  0  0
 42 66  1  0  0  0
 42111  1  0  0  0
 42112  1  0  0  0
 43 44  1  0  0  0
 44113  1  0  0  0
 45 46  2  0  0  0
 45114  1  0  0  0
 46115  1  0  0  0
 47116  1  0  0  0
 47117  1  0  0  0
 48 56  1  0  0  0
 48 65  1  0  0  0
 48118  1  0  0  0
 49 50  1  0  0  0
 49 53  1  0  0  0
 49 64  1  0  0  0
 49119  1  0  0  0
 50 51  1  0  0  0
 50120  1  0  0  0
 50121  1  0  0  0
 51 52  1  0  0  0
 51122  1  0  0  0
 51123  1  0  0  0
 52124  1  0  0  0
 52125  1  0  0  0
 53 54  1  0  0  0
 54 55  2  0  0  0
 54126  1  0  0  0
 55 57  1  0  0  0
 55127  1  0  0  0
 56 69  2  0  0  0
 57 58  2  0  0  0
 57128  1  0  0  0
 58129  1  0  0  0
 59 60  1  0  0  0
 59 61  1  0  0  0
 59 62  1  0  0  0
 60130  1  0  0  0
 60131  1  0  0  0
 60132  1  0  0  0
 61133  1  0  0  0
 61134  1  0  0  0
 61135  1  0  0  0
 62136  1  0  0  0
 62137  1  0  0  0
 62138  1  0  0  0
 63 65  1  0  0  0
 63139  1  0  0  0
 63140  1  0  0  0
 63141  1  0  0  0
 64142  1  0  0  0
 65143  1  0  0  0
 68 80  1  0  0  0
 71 73  2  0  0  0
 71 81  1  0  0  0
 71144  1  0  0  0
 72 74  1  0  0  0
 72 81  2  0  0  0
 72145  1  0  0  0
 73 79  1  0  0  0
 73 82  1  0  0  0
 74 82  2  0  0  0
 74 84  1  0  0  0
 75 76  1  0  0  0
 75 78  1  0  0  0
 75146  1  0  0  0
 75147  1  0  0  0
 76 83  1  0  0  0
 76148  1  0  0  0
 76149  1  0  0  0
 77 78  1  0  0  0
 77 83  1  0  0  0
 77150  1  0  0  0
 77151  1  0  0  0
 78 84  1  0  0  0
 78152  1  0  0  0
 79 80  1  0  0  0
 79153  1  0  0  0
 79154  1  0  0  0
 80155  1  0  0  0
 80156  1  0  0  0
 84157  1  0  0  0
M  ISO  4   1 100  68 101  80 101  83 100
M  END
> <chiral flag>
0

> <version>
0

> <s_m_source_file>
/data/baiqing/PycharmProjects/Reinvent-master-3.2/result/LINK_invent/BTK/process_docking_weight1_custom_sum_contain_oxygen_bond_distance_aromatic_linkinvent_7_9_3/rearranged_h_0192.sdf

> <i_m_source_file_index>
32

> <r_mmod_Potential_Energy-OPLS-2005>
225.856307983398

> <r_mmod_Stretch_Energy-OPLS-2005>
53.2812004089355

> <r_mmod_Bend_Energy-OPLS-2005>
136.305358886719

> <r_mmod_Torsional_Energy-OPLS-2005>
365.016052246094

> <r_mmod_Improper_Torsional_Energy-OPLS-2005>
19.8641757965088

> <r_mmod_Van_der_Waal_Energy-OPLS-2005>
140.226547241211

> <r_mmod_Electrostatic_Energy-OPLS-2005>
-305.653778076172

> <r_mmod_Solvation_Energy-OPLS-2005>
-216.09098815918

> <b_mmod_Minimization_Converged-OPLS-2005>
0

> <r_mmod_RMS_Derivative-OPLS-2005>
0.856663823127747

$$$$
32
                    3D
 Structure written by MMmdl.
167177  0  0  1  0            999 V2000
  -30.6916  -14.4395   20.5622 C   0  0  0  0  0  0
  -30.4260  -12.2826   19.4109 C   0  0  0  0  0  0
  -29.4976  -12.5041   18.1991 C   0  0  0  0  0  0
  -28.0171  -12.3713   18.6119 C   0  0  0  0  0  0
  -27.6651  -13.1999   19.8794 C   0  0  2  0  0  0
  -28.7068  -12.9565   20.9952 C   0  0  0  0  0  0
  -25.2612  -13.8163   20.5674 C   0  0  0  0  0  0
  -24.1852  -13.0436   20.9156 C   0  0  0  0  0  0
  -24.6382  -11.6894   20.8701 C   0  0  0  0  0  0
  -23.9031  -10.4291   21.0384 C   0  0  0  0  0  0
  -24.3588   -9.4214   21.9165 C   0  0  0  0  0  0
  -23.6266   -8.2240   22.0739 C   0  0  0  0  0  0
  -22.4252   -8.0252   21.3524 C   0  0  0  0  0  0
  -21.9883   -9.0233   20.4644 C   0  0  0  0  0  0
  -22.7205  -10.2116   20.3049 C   0  0  0  0  0  0
  -21.6863   -6.0704   22.5266 C   0  0  0  0  0  0
  -21.4023   -6.5612   23.8194 C   0  0  0  0  0  0
  -21.3659   -5.6765   24.9162 C   0  0  0  0  0  0
  -21.6063   -4.3029   24.7221 C   0  0  0  0  0  0
  -21.8821   -3.8117   23.4336 C   0  0  0  0  0  0
  -21.9188   -4.6930   22.3396 C   0  0  0  0  0  0
  -22.7869  -13.5242   21.1802 C   0  0  0  0  0  0
  -22.1653   -4.2114   21.0976 F   0  0  0  0  0  0
  -21.5625   -3.4518   25.7732 F   0  0  0  0  0  0
  -30.0380  -13.2560   20.4392 N   0  0  0  0  0  0
  -26.3038  -12.9302   20.3380 N   0  0  0  0  0  0
  -25.9314  -11.6469   20.5760 N   0  0  0  0  0  0
  -22.0493  -12.8269   22.0377 N   0  0  0  0  0  0
  -25.4360  -15.1883   20.4071 N   0  0  0  0  0  0
  -31.8333  -14.6354   20.1321 O   0  0  0  0  0  0
  -21.6624   -6.8842   21.4216 O   0  0  0  0  0  0
  -22.3541  -14.5535   20.6634 O   0  0  0  0  0  0
  -24.6121  -31.8690   23.2126 C   0  0  0  0  0  0
  -25.9027  -32.4822   23.8428 C   0  0  1  0  0  0
  -27.2428  -27.4511   20.0950 C   0  0  0  0  0  0
  -25.5875  -33.8612   24.2364 N   0  0  0  0  0  0
  -23.3991  -30.4931   21.5510 C   0  0  2  0  0  0
  -24.8502  -28.9566   20.1231 C   0  0  0  0  0  0
  -22.7406  -29.4661   22.5004 C   0  0  0  0  0  0
  -18.0281  -28.1400   22.8491 C   0  0  0  0  0  0
  -24.1478  -36.7323   23.2651 C   0  0  0  0  0  0
  -25.9258  -30.8380   21.3681 C   0  0  0  0  0  0
  -26.0061  -29.4677   20.7267 C   0  0  0  0  0  0
  -27.2054  -28.7203   20.7224 C   0  0  0  0  0  0
  -26.0716  -26.9581   19.4884 C   0  0  0  0  0  0
  -24.8734  -27.6948   19.5071 C   0  0  0  0  0  0
  -23.6101  -29.8222   20.1674 C   0  0  0  0  0  0
  -25.4083  -36.3097   24.0347 C   0  0  1  0  0  0
  -20.5860  -28.3663   23.1347 C   0  0  2  0  0  0
  -20.6761  -26.9405   22.5424 C   0  0  0  0  0  0
  -19.5741  -26.6396   21.5222 C   0  0  0  0  0  0
  -18.1922  -26.7953   22.1633 C   0  0  0  0  0  0
  -19.1523  -28.8856   23.2910 C   0  0  0  0  0  0
  -18.9462  -30.1463   23.8906 C   0  0  0  0  0  0
  -17.6462  -30.6587   24.0584 C   0  0  0  0  0  0
  -25.9009  -34.9470   23.5149 C   0  0  0  0  0  0
  -16.5356  -29.9092   23.6331 C   0  0  0  0  0  0
  -16.7270  -28.6526   23.0330 C   0  0  0  0  0  0
  -26.4469  -31.6591   25.0733 C   0  0  0  0  0  0
  -25.3746  -31.3764   26.1530 C   0  0  0  0  0  0
  -27.0258  -30.3027   24.6080 C   0  0  0  0  0  0
  -27.6077  -32.4310   25.7435 C   0  0  0  0  0  0
  -27.5570  -37.1813   24.8450 C   0  0  0  0  0  0
  -21.4139  -29.3014   22.3731 N   0  0  0  0  0  0
  -26.4279  -37.3769   23.9396 N   0  0  0  0  0  0
  -24.6623  -31.0830   22.1028 N   0  0  0  0  0  0
  -23.4195  -28.8214   23.3032 O   0  0  0  0  0  0
  -28.3646  -26.6601   19.9641 O   0  0  0  0  0  0
  -26.5558  -34.8923   22.4707 O   0  0  0  0  0  0
  -23.5309  -32.1447   23.7542 O   0  0  0  0  0  0
  -30.6713  -19.3442   22.4970 C   0  0  0  0  0  0
  -29.5152  -18.7726   21.9063 C   0  0  0  0  0  0
  -30.3164  -20.6311   22.8067 C   0  0  0  0  0  0
  -32.3127  -21.2295   24.3969 C   0  0  0  0  0  0
  -31.0622  -21.7897   25.0335 C   0  0  0  0  0  0
  -29.9548  -16.7803   20.2177 C   0  0  0  0  0  0
  -29.9315  -16.1621   22.1830 C   0  0  0  0  0  0
  -29.2863  -17.3463   21.4641 C   0  0  0  0  0  0
  -31.1429  -21.6485   23.5306 C   0  0  0  0  0  0
  -28.0046  -21.8789   22.5146 C   0  0  0  0  0  0
  -28.4273  -23.3248   22.8811 C   0  0  0  0  0  0
  -28.8487  -25.6524   22.1399 C   0  0  0  0  0  0
  -29.3268  -26.5878   21.0097 C   0  0  0  0  0  0
  -28.5521  -19.6731   21.7772 N   0  0  0  0  0  0
  -29.0106  -20.8164   22.3476 N   0  0  0  0  0  0
  -29.8878  -15.4685   20.8866 N   0  0  0  0  0  0
  -28.7366  -24.2206   21.7353 N   0  3  0  0  0  0
  -31.4729  -12.3849   19.1136 H   0  0  0  0  0  0
  -30.3194  -11.2677   19.7994 H   0  0  0  0  0  0
  -29.7312  -11.7870   17.4143 H   0  0  0  0  0  0
  -29.6743  -13.4939   17.7741 H   0  0  0  0  0  0
  -27.8216  -11.3142   18.7930 H   0  0  0  0  0  0
  -27.3719  -12.6551   17.7801 H   0  0  0  0  0  0
  -27.7162  -14.2525   19.5979 H   0  0  0  0  0  0
  -28.6772  -11.9199   21.3365 H   0  0  0  0  0  0
  -28.4802  -13.5592   21.8745 H   0  0  0  0  0  0
  -25.2733   -9.5679   22.4735 H   0  0  0  0  0  0
  -23.9963   -7.4644   22.7481 H   0  0  0  0  0  0
  -21.0798   -8.8764   19.8973 H   0  0  0  0  0  0
  -22.3665  -10.9636   19.6145 H   0  0  0  0  0  0
  -21.2036   -7.6123   23.9688 H   0  0  0  0  0  0
  -21.1481   -6.0500   25.9064 H   0  0  0  0  0  0
  -22.0610   -2.7573   23.2855 H   0  0  0  0  0  0
  -22.4071  -11.9936   22.4814 H   0  0  0  0  0  0
  -21.1105  -13.1302   22.2577 H   0  0  0  0  0  0
  -24.6764  -15.8499   20.5229 H   0  0  0  0  0  0
  -26.3024  -15.6209   20.1140 H   0  0  0  0  0  0
  -26.7106  -32.5577   23.1210 H   0  0  0  0  0  0
  -25.0010  -33.9756   25.0498 H   0  0  0  0  0  0
  -22.6842  -31.3075   21.4114 H   0  0  0  0  0  0
  -23.3712  -35.9680   23.3301 H   0  0  0  0  0  0
  -24.3585  -36.8940   22.2063 H   0  0  0  0  0  0
  -23.7270  -37.6549   23.6676 H   0  0  0  0  0  0
  -26.0341  -31.5999   20.5951 H   0  0  0  0  0  0
  -26.8133  -30.8979   21.9835 H   0  0  0  0  0  0
  -28.0905  -29.1455   21.1711 H   0  0  0  0  0  0
  -26.0856  -25.9991   18.9949 H   0  0  0  0  0  0
  -23.9858  -27.2923   19.0409 H   0  0  0  0  0  0
  -23.7203  -30.5958   19.4058 H   0  0  0  0  0  0
  -22.7360  -29.2365   19.8737 H   0  0  0  0  0  0
  -25.1276  -36.1971   25.0837 H   0  0  0  0  0  0
  -20.9953  -28.3219   24.1475 H   0  0  0  0  0  0
  -20.5684  -26.2268   23.3601 H   0  0  0  0  0  0
  -21.6638  -26.7453   22.1221 H   0  0  0  0  0  0
  -19.6885  -25.6309   21.1242 H   0  0  0  0  0  0
  -19.6703  -27.3221   20.6764 H   0  0  0  0  0  0
  -17.4208  -26.6727   21.4013 H   0  0  0  0  0  0
  -18.0303  -26.0092   22.9029 H   0  0  0  0  0  0
  -19.7934  -30.7289   24.2264 H   0  0  0  0  0  0
  -17.5019  -31.6266   24.5193 H   0  0  0  0  0  0
  -15.5354  -30.2993   23.7663 H   0  0  0  0  0  0
  -15.8688  -28.0859   22.6998 H   0  0  0  0  0  0
  -24.5719  -30.7361   25.7837 H   0  0  0  0  0  0
  -24.9159  -32.2977   26.5138 H   0  0  0  0  0  0
  -25.8068  -30.8732   27.0192 H   0  0  0  0  0  0
  -26.2773  -29.6737   24.1260 H   0  0  0  0  0  0
  -27.4147  -29.7305   25.4511 H   0  0  0  0  0  0
  -27.8560  -30.4340   23.9135 H   0  0  0  0  0  0
  -27.2719  -33.3561   26.2122 H   0  0  0  0  0  0
  -28.3792  -32.6982   25.0209 H   0  0  0  0  0  0
  -28.0852  -31.8430   26.5274 H   0  0  0  0  0  0
  -28.2596  -38.0104   24.7506 H   0  0  0  0  0  0
  -28.1075  -36.2655   24.6273 H   0  0  0  0  0  0
  -27.2322  -37.1463   25.8864 H   0  0  0  0  0  0
  -20.9303  -29.8734   21.6948 H   0  0  0  0  0  0
  -26.0155  -38.2856   24.1370 H   0  0  0  0  0  0
  -31.6103  -18.8540   22.7128 H   0  0  0  0  0  0
  -32.5088  -20.1659   24.5154 H   0  0  0  0  0  0
  -33.1971  -21.8628   24.4011 H   0  0  0  0  0  0
  -31.1118  -22.7969   25.4433 H   0  0  0  0  0  0
  -30.4253  -21.0949   25.5784 H   0  0  0  0  0  0
  -30.9679  -17.1574   20.0504 H   0  0  0  0  0  0
  -29.3464  -16.8676   19.3156 H   0  0  0  0  0  0
  -29.2962  -15.7288   22.9585 H   0  0  0  0  0  0
  -30.9386  -16.3597   22.5587 H   0  0  0  0  0  0
  -28.2082  -17.1693   21.3941 H   0  0  0  0  0  0
  -31.2982  -22.5419   22.9268 H   0  0  0  0  0  0
  -27.3683  -21.9024   21.6281 H   0  0  0  0  0  0
  -27.3501  -21.5316   23.3165 H   0  0  0  0  0  0
  -29.2131  -23.3539   23.6308 H   0  0  0  0  0  0
  -27.5634  -23.7676   23.3785 H   0  0  0  0  0  0
  -27.8902  -26.0067   22.5250 H   0  0  0  0  0  0
  -29.5592  -25.7262   22.9659 H   0  0  0  0  0  0
  -30.2500  -26.1984   20.5799 H   0  0  0  0  0  0
  -29.5769  -27.5731   21.3971 H   0  0  0  0  0  0
  -27.9929  -24.1458   21.0554 H   0  0  0  0  0  0
  -29.5876  -23.9170   21.2862 H   0  0  0  0  0  0
  1 25  1  0  0  0
  1 30  2  0  0  0
  1 86  1  0  0  0
  2  3  1  0  0  0
  2 25  1  0  0  0
  2 88  1  0  0  0
  2 89  1  0  0  0
  3  4  1  0  0  0
  3 90  1  0  0  0
  3 91  1  0  0  0
  4  5  1  0  0  0
  4 92  1  0  0  0
  4 93  1  0  0  0
  5  6  1  0  0  0
  5 26  1  0  0  0
  5 94  1  0  0  0
  6 25  1  0  0  0
  6 95  1  0  0  0
  6 96  1  0  0  0
  7  8  2  0  0  0
  7 26  1  0  0  0
  7 29  1  0  0  0
  8  9  1  0  0  0
  8 22  1  0  0  0
  9 10  1  0  0  0
  9 27  2  0  0  0
 10 11  2  0  0  0
 10 15  1  0  0  0
 11 12  1  0  0  0
 11 97  1  0  0  0
 12 13  2  0  0  0
 12 98  1  0  0  0
 13 14  1  0  0  0
 13 31  1  0  0  0
 14 15  2  0  0  0
 14 99  1  0  0  0
 15100  1  0  0  0
 16 17  2  0  0  0
 16 21  1  0  0  0
 16 31  1  0  0  0
 17 18  1  0  0  0
 17101  1  0  0  0
 18 19  2  0  0  0
 18102  1  0  0  0
 19 20  1  0  0  0
 19 24  1  0  0  0
 20 21  2  0  0  0
 20103  1  0  0  0
 21 23  1  0  0  0
 22 28  1  0  0  0
 22 32  2  0  0  0
 26 27  1  0  0  0
 28104  1  0  0  0
 28105  1  0  0  0
 29106  1  0  0  0
 29107  1  0  0  0
 33 34  1  0  0  0
 33 66  1  0  0  0
 33 70  2  0  0  0
 34 36  1  0  0  0
 34 59  1  0  0  0
 34108  1  0  0  0
 35 44  2  0  0  0
 35 45  1  0  0  0
 35 68  1  0  0  0
 36 56  1  0  0  0
 36109  1  0  0  0
 37 39  1  0  0  0
 37 47  1  0  0  0
 37 66  1  0  0  0
 37110  1  0  0  0
 38 43  2  0  0  0
 38 46  1  0  0  0
 38 47  1  0  0  0
 39 64  1  0  0  0
 39 67  2  0  0  0
 40 52  1  0  0  0
 40 53  2  0  0  0
 40 58  1  0  0  0
 41111  1  0  0  0
 41112  1  0  0  0
 41113  1  0  0  0
 41 48  1  0  0  0
 42 43  1  0  0  0
 42 66  1  0  0  0
 42114  1  0  0  0
 42115  1  0  0  0
 43 44  1  0  0  0
 44116  1  0  0  0
 45 46  2  0  0  0
 45117  1  0  0  0
 46118  1  0  0  0
 47119  1  0  0  0
 47120  1  0  0  0
 48 56  1  0  0  0
 48 65  1  0  0  0
 48121  1  0  0  0
 49 50  1  0  0  0
 49 53  1  0  0  0
 49 64  1  0  0  0
 49122  1  0  0  0
 50 51  1  0  0  0
 50123  1  0  0  0
 50124  1  0  0  0
 51 52  1  0  0  0
 51125  1  0  0  0
 51126  1  0  0  0
 52127  1  0  0  0
 52128  1  0  0  0
 53 54  1  0  0  0
 54 55  2  0  0  0
 54129  1  0  0  0
 55 57  1  0  0  0
 55130  1  0  0  0
 56 69  2  0  0  0
 57 58  2  0  0  0
 57131  1  0  0  0
 58132  1  0  0  0
 59 60  1  0  0  0
 59 61  1  0  0  0
 59 62  1  0  0  0
 60133  1  0  0  0
 60134  1  0  0  0
 60135  1  0  0  0
 61136  1  0  0  0
 61137  1  0  0  0
 61138  1  0  0  0
 62139  1  0  0  0
 62140  1  0  0  0
 62141  1  0  0  0
 63 65  1  0  0  0
 63142  1  0  0  0
 63143  1  0  0  0
 63144  1  0  0  0
 64145  1  0  0  0
 65146  1  0  0  0
 68 83  1  0  0  0
 71 72  1  0  0  0
 71 73  2  0  0  0
 71147  1  0  0  0
 72 84  2  0  0  0
 72 78  1  0  0  0
 73 85  1  0  0  0
 73 79  1  0  0  0
 74 75  1  0  0  0
 74 79  1  0  0  0
 74148  1  0  0  0
 74149  1  0  0  0
 75 79  1  0  0  0
 75150  1  0  0  0
 75151  1  0  0  0
 76 78  1  0  0  0
 76 86  1  0  0  0
 76152  1  0  0  0
 76153  1  0  0  0
 77 78  1  0  0  0
 77 86  1  0  0  0
 77154  1  0  0  0
 77155  1  0  0  0
 78156  1  0  0  0
 79157  1  0  0  0
 80 81  1  0  0  0
 80 85  1  0  0  0
 80158  1  0  0  0
 80159  1  0  0  0
 81 87  1  0  0  0
 81160  1  0  0  0
 81161  1  0  0  0
 82 83  1  0  0  0
 82 87  1  0  0  0
 82162  1  0  0  0
 82163  1  0  0  0
 83164  1  0  0  0
 83165  1  0  0  0
 84 85  1  0  0  0
 87166  1  0  0  0
 87167  1  0  0  0
M  CHG  1  87   1
M  ISO  4   1 100  68 101  83 101  86 100
M  END
> <chiral flag>
0

> <version>
0

> <s_m_source_file>
/data/baiqing/PycharmProjects/Reinvent-master-3.2/result/LINK_invent/BTK/process_docking_weight1_custom_sum_contain_oxygen_bond_distance_aromatic_linkinvent_7_9_3/rearranged_h_0192.sdf

> <i_m_source_file_index>
33

> <r_mmod_Potential_Energy-OPLS-2005>
-94.762077331543

> <r_mmod_Stretch_Energy-OPLS-2005>
35.056941986084

> <r_mmod_Bend_Energy-OPLS-2005>
127.167984008789

> <r_mmod_Torsional_Energy-OPLS-2005>
309.708312988281

> <r_mmod_Improper_Torsional_Energy-OPLS-2005>
15.864351272583

> <r_mmod_Van_der_Waal_Energy-OPLS-2005>
120.269241333008

> <r_mmod_Electrostatic_Energy-OPLS-2005>
-269.301208496094

> <r_mmod_Solvation_Energy-OPLS-2005>
-444.603271484375

> <b_mmod_Minimization_Converged-OPLS-2005>
0

> <r_mmod_RMS_Derivative-OPLS-2005>
3.75127339363098

$$$$
33
                    3D
 Structure written by MMmdl.
160169  0  0  1  0            999 V2000
  -30.6593  -14.5658   20.5446 C   0  0  0  0  0  0
  -30.4342  -12.3561   19.4395 C   0  0  0  0  0  0
  -29.5056  -12.5212   18.2164 C   0  0  0  0  0  0
  -28.0257  -12.3655   18.6231 C   0  0  0  0  0  0
  -27.6591  -13.2097   19.8726 C   0  0  2  0  0  0
  -28.7035  -13.0225   20.9974 C   0  0  0  0  0  0
  -25.2547  -13.8125   20.5675 C   0  0  0  0  0  0
  -24.1821  -13.0395   20.9182 C   0  0  0  0  0  0
  -24.6394  -11.6876   20.8729 C   0  0  0  0  0  0
  -23.9065  -10.4267   21.0394 C   0  0  0  0  0  0
  -24.3620   -9.4191   21.9171 C   0  0  0  0  0  0
  -23.6293   -8.2234   22.0751 C   0  0  0  0  0  0
  -22.4275   -8.0270   21.3544 C   0  0  0  0  0  0
  -21.9907   -9.0241   20.4641 C   0  0  0  0  0  0
  -22.7238  -10.2115   20.3038 C   0  0  0  0  0  0
  -21.6856   -6.0728   22.5279 C   0  0  0  0  0  0
  -21.4017   -6.5633   23.8213 C   0  0  0  0  0  0
  -21.3661   -5.6789   24.9176 C   0  0  0  0  0  0
  -21.6041   -4.3050   24.7225 C   0  0  0  0  0  0
  -21.8822   -3.8139   23.4347 C   0  0  0  0  0  0
  -21.9198   -4.6955   22.3404 C   0  0  0  0  0  0
  -22.7845  -13.5197   21.1847 C   0  0  0  0  0  0
  -22.1657   -4.2137   21.0978 F   0  0  0  0  0  0
  -21.5636   -3.4534   25.7740 F   0  0  0  0  0  0
  -30.0317  -13.3531   20.4488 N   0  0  0  0  0  0
  -26.3009  -12.9317   20.3347 N   0  0  0  0  0  0
  -25.9330  -11.6476   20.5757 N   0  0  0  0  0  0
  -22.0488  -12.8205   22.0409 N   0  0  0  0  0  0
  -25.4181  -15.1837   20.4087 N   0  0  0  0  0  0
  -31.7880  -14.7578   20.0808 O   0  0  0  0  0  0
  -21.6636   -6.8869   21.4239 O   0  0  0  0  0  0
  -22.3539  -14.5505   20.6690 O   0  0  0  0  0  0
  -24.6208  -31.8645   23.2078 C   0  0  0  0  0  0
  -25.9082  -32.4807   23.8384 C   0  0  1  0  0  0
  -27.2289  -27.3669   20.1051 C   0  0  0  0  0  0
  -25.5920  -33.8607   24.2307 N   0  0  0  0  0  0
  -23.4115  -30.4894   21.5493 C   0  0  2  0  0  0
  -24.8574  -28.9529   20.1107 C   0  0  0  0  0  0
  -22.7445  -29.4640   22.4960 C   0  0  0  0  0  0
  -18.0281  -28.1384   22.8484 C   0  0  0  0  0  0
  -24.1488  -36.7313   23.2637 C   0  0  0  0  0  0
  -25.9476  -30.8080   21.3727 C   0  0  0  0  0  0
  -26.0211  -29.4381   20.7186 C   0  0  0  0  0  0
  -27.2052  -28.6525   20.7155 C   0  0  0  0  0  0
  -26.0450  -26.9327   19.4584 C   0  0  0  0  0  0
  -24.8684  -27.7026   19.4754 C   0  0  0  0  0  0
  -23.6237  -29.8276   20.1622 C   0  0  0  0  0  0
  -25.4111  -36.3103   24.0329 C   0  0  1  0  0  0
  -20.5873  -28.3678   23.1300 C   0  0  2  0  0  0
  -20.6773  -26.9408   22.5414 C   0  0  0  0  0  0
  -19.5753  -26.6382   21.5213 C   0  0  0  0  0  0
  -18.1931  -26.7929   22.1618 C   0  0  0  0  0  0
  -19.1530  -28.8849   23.2887 C   0  0  0  0  0  0
  -18.9457  -30.1451   23.8902 C   0  0  0  0  0  0
  -17.6458  -30.6588   24.0563 C   0  0  0  0  0  0
  -25.9044  -34.9470   23.5115 C   0  0  0  0  0  0
  -16.5349  -29.9088   23.6329 C   0  0  0  0  0  0
  -16.7268  -28.6505   23.0344 C   0  0  0  0  0  0
  -26.4486  -31.6602   25.0732 C   0  0  0  0  0  0
  -25.3735  -31.3725   26.1468 C   0  0  0  0  0  0
  -27.0324  -30.3040   24.6140 C   0  0  0  0  0  0
  -27.6054  -32.4323   25.7505 C   0  0  0  0  0  0
  -27.5579  -37.1810   24.8457 C   0  0  0  0  0  0
  -21.4165  -29.3038   22.3700 N   0  0  0  0  0  0
  -26.4291  -37.3790   23.9407 N   0  0  0  0  0  0
  -24.6787  -31.0693   22.1012 N   0  0  0  0  0  0
  -23.4195  -28.8175   23.3015 O   0  0  0  0  0  0
  -28.3763  -26.5717   20.1703 O   0  0  0  0  0  0
  -26.5605  -34.8922   22.4676 O   0  0  0  0  0  0
  -23.5384  -32.1423   23.7434 O   0  0  0  0  0  0
  -28.4704  -17.2301   20.0149 C   0  0  0  0  0  0
  -28.5475  -18.5721   19.7640 C   0  0  0  0  0  0
  -29.7067  -16.8914   20.6247 C   0  0  0  0  0  0
  -26.6185  -18.9012   18.0291 C   0  0  0  0  0  0
  -27.7377  -19.8312   17.6188 C   0  0  0  0  0  0
  -27.5613  -19.4574   19.0711 C   0  0  0  0  0  0
  -30.3427  -20.3901   20.0995 C   0  0  0  0  0  0
  -29.6229  -21.6044   20.8121 C   0  0  0  0  0  0
  -29.2421  -24.1605   20.5712 C   0  0  0  0  0  0
  -28.2934  -25.1546   19.8085 C   0  0  0  0  0  0
  -30.4813  -17.9781   20.7836 N   0  0  0  0  0  0
  -29.7602  -19.0304   20.2569 N   0  0  0  0  0  0
  -29.9236  -15.5556   21.1106 N   0  0  0  0  0  0
  -29.3551  -22.7979   19.9292 N   0  3  0  0  0  0
  -31.4780  -12.4673   19.1424 H   0  0  0  0  0  0
  -30.3477  -11.3491   19.8507 H   0  0  0  0  0  0
  -29.7624  -11.7912   17.4483 H   0  0  0  0  0  0
  -29.6613  -13.5034   17.7666 H   0  0  0  0  0  0
  -27.8460  -11.3088   18.8246 H   0  0  0  0  0  0
  -27.3756  -12.6295   17.7878 H   0  0  0  0  0  0
  -27.6901  -14.2517   19.5600 H   0  0  0  0  0  0
  -28.6987  -11.9889   21.3468 H   0  0  0  0  0  0
  -28.4479  -13.6247   21.8703 H   0  0  0  0  0  0
  -25.2760   -9.5674   22.4746 H   0  0  0  0  0  0
  -24.0000   -7.4626   22.7468 H   0  0  0  0  0  0
  -21.0833   -8.8752   19.8955 H   0  0  0  0  0  0
  -22.3681  -10.9656   19.6145 H   0  0  0  0  0  0
  -21.2002   -7.6142   23.9711 H   0  0  0  0  0  0
  -21.1485   -6.0517   25.9079 H   0  0  0  0  0  0
  -22.0601   -2.7601   23.2850 H   0  0  0  0  0  0
  -22.4085  -11.9858   22.4806 H   0  0  0  0  0  0
  -21.1107  -13.1233   22.2599 H   0  0  0  0  0  0
  -24.6462  -15.8332   20.5120 H   0  0  0  0  0  0
  -26.2589  -15.6221   20.0644 H   0  0  0  0  0  0
  -26.7148  -32.5492   23.1135 H   0  0  0  0  0  0
  -25.0079  -33.9773   25.0458 H   0  0  0  0  0  0
  -22.7025  -31.3086   21.4109 H   0  0  0  0  0  0
  -23.3746  -35.9648   23.3292 H   0  0  0  0  0  0
  -24.3583  -36.8941   22.2051 H   0  0  0  0  0  0
  -23.7242  -37.6515   23.6662 H   0  0  0  0  0  0
  -26.0673  -31.5700   20.6015 H   0  0  0  0  0  0
  -26.8336  -30.8619   21.9937 H   0  0  0  0  0  0
  -28.0959  -29.0187   21.2066 H   0  0  0  0  0  0
  -25.9905  -25.9954   18.9261 H   0  0  0  0  0  0
  -23.9783  -27.3311   18.9860 H   0  0  0  0  0  0
  -23.7396  -30.6066   19.4077 H   0  0  0  0  0  0
  -22.7446  -29.2552   19.8599 H   0  0  0  0  0  0
  -25.1288  -36.1960   25.0821 H   0  0  0  0  0  0
  -20.9962  -28.3251   24.1422 H   0  0  0  0  0  0
  -20.5686  -26.2286   23.3608 H   0  0  0  0  0  0
  -21.6645  -26.7459   22.1201 H   0  0  0  0  0  0
  -19.6919  -25.6294   21.1244 H   0  0  0  0  0  0
  -19.6701  -27.3191   20.6743 H   0  0  0  0  0  0
  -17.4206  -26.6674   21.4016 H   0  0  0  0  0  0
  -18.0331  -26.0072   22.9015 H   0  0  0  0  0  0
  -19.7933  -30.7263   24.2273 H   0  0  0  0  0  0
  -17.5016  -31.6271   24.5158 H   0  0  0  0  0  0
  -15.5349  -30.2993   23.7657 H   0  0  0  0  0  0
  -15.8665  -28.0834   22.7053 H   0  0  0  0  0  0
  -24.5897  -30.7089   25.7796 H   0  0  0  0  0  0
  -24.8941  -32.2889   26.4921 H   0  0  0  0  0  0
  -25.8070  -30.8880   27.0227 H   0  0  0  0  0  0
  -26.2886  -29.6799   24.1173 H   0  0  0  0  0  0
  -27.4062  -29.7281   25.4617 H   0  0  0  0  0  0
  -27.8735  -30.4354   23.9327 H   0  0  0  0  0  0
  -27.2670  -33.3609   26.2112 H   0  0  0  0  0  0
  -28.3858  -32.6904   25.0335 H   0  0  0  0  0  0
  -28.0729  -31.8428   26.5401 H   0  0  0  0  0  0
  -28.2586  -38.0116   24.7518 H   0  0  0  0  0  0
  -28.1084  -36.2650   24.6266 H   0  0  0  0  0  0
  -27.2301  -37.1437   25.8860 H   0  0  0  0  0  0
  -20.9334  -29.8774   21.6928 H   0  0  0  0  0  0
  -26.0173  -38.2863   24.1420 H   0  0  0  0  0  0
  -27.6443  -16.5871   19.7656 H   0  0  0  0  0  0
  -26.7147  -17.8513   17.7582 H   0  0  0  0  0  0
  -25.6037  -19.2935   18.0126 H   0  0  0  0  0  0
  -27.4649  -20.8405   17.3181 H   0  0  0  0  0  0
  -28.5801  -19.3959   17.0839 H   0  0  0  0  0  0
  -27.1474  -20.2013   19.7485 H   0  0  0  0  0  0
  -31.3824  -20.3551   20.4283 H   0  0  0  0  0  0
  -30.3952  -20.5777   19.0271 H   0  0  0  0  0  0
  -30.2528  -21.9219   21.6445 H   0  0  0  0  0  0
  -28.6842  -21.2848   21.2652 H   0  0  0  0  0  0
  -28.8827  -24.0588   21.5964 H   0  0  0  0  0  0
  -30.2434  -24.5879   20.6366 H   0  0  0  0  0  0
  -27.2941  -24.7606   19.9876 H   0  0  0  0  0  0
  -28.4746  -25.0867   18.7353 H   0  0  0  0  0  0
  -29.1005  -15.1591   21.5355 H   0  0  0  0  0  0
  -28.5026  -22.6119   19.4238 H   0  0  0  0  0  0
  -30.0930  -22.8551   19.2433 H   0  0  0  0  0  0
  1 25  1  0  0  0
  1 30  2  0  0  0
  1 83  1  0  0  0
  2  3  1  0  0  0
  2 25  1  0  0  0
  2 85  1  0  0  0
  2 86  1  0  0  0
  3  4  1  0  0  0
  3 87  1  0  0  0
  3 88  1  0  0  0
  4  5  1  0  0  0
  4 89  1  0  0  0
  4 90  1  0  0  0
  5  6  1  0  0  0
  5 26  1  0  0  0
  5 91  1  0  0  0
  6 25  1  0  0  0
  6 92  1  0  0  0
  6 93  1  0  0  0
  7  8  2  0  0  0
  7 26  1  0  0  0
  7 29  1  0  0  0
  8  9  1  0  0  0
  8 22  1  0  0  0
  9 10  1  0  0  0
  9 27  2  0  0  0
 10 11  2  0  0  0
 10 15  1  0  0  0
 11 12  1  0  0  0
 11 94  1  0  0  0
 12 13  2  0  0  0
 12 95  1  0  0  0
 13 14  1  0  0  0
 13 31  1  0  0  0
 14 15  2  0  0  0
 14 96  1  0  0  0
 15 97  1  0  0  0
 16 17  2  0  0  0
 16 21  1  0  0  0
 16 31  1  0  0  0
 17 18  1  0  0  0
 17 98  1  0  0  0
 18 19  2  0  0  0
 18 99  1  0  0  0
 19 20  1  0  0  0
 19 24  1  0  0  0
 20 21  2  0  0  0
 20100  1  0  0  0
 21 23  1  0  0  0
 22 28  1  0  0  0
 22 32  2  0  0  0
 26 27  1  0  0  0
 28101  1  0  0  0
 28102  1  0  0  0
 29103  1  0  0  0
 29104  1  0  0  0
 33 34  1  0  0  0
 33 66  1  0  0  0
 33 70  2  0  0  0
 34 36  1  0  0  0
 34 59  1  0  0  0
 34105  1  0  0  0
 35 44  2  0  0  0
 35 45  1  0  0  0
 35 68  1  0  0  0
 36 56  1  0  0  0
 36106  1  0  0  0
 37 39  1  0  0  0
 37 47  1  0  0  0
 37 66  1  0  0  0
 37107  1  0  0  0
 38 43  2  0  0  0
 38 46  1  0  0  0
 38 47  1  0  0  0
 39 64  1  0  0  0
 39 67  2  0  0  0
 40 52  1  0  0  0
 40 53  2  0  0  0
 40 58  1  0  0  0
 41108  1  0  0  0
 41109  1  0  0  0
 41110  1  0  0  0
 41 48  1  0  0  0
 42 43  1  0  0  0
 42 66  1  0  0  0
 42111  1  0  0  0
 42112  1  0  0  0
 43 44  1  0  0  0
 44113  1  0  0  0
 45 46  2  0  0  0
 45114  1  0  0  0
 46115  1  0  0  0
 47116  1  0  0  0
 47117  1  0  0  0
 48 56  1  0  0  0
 48 65  1  0  0  0
 48118  1  0  0  0
 49 50  1  0  0  0
 49 53  1  0  0  0
 49 64  1  0  0  0
 49119  1  0  0  0
 50 51  1  0  0  0
 50120  1  0  0  0
 50121  1  0  0  0
 51 52  1  0  0  0
 51122  1  0  0  0
 51123  1  0  0  0
 52124  1  0  0  0
 52125  1  0  0  0
 53 54  1  0  0  0
 54 55  2  0  0  0
 54126  1  0  0  0
 55 57  1  0  0  0
 55127  1  0  0  0
 56 69  2  0  0  0
 57 58  2  0  0  0
 57128  1  0  0  0
 58129  1  0  0  0
 59 60  1  0  0  0
 59 61  1  0  0  0
 59 62  1  0  0  0
 60130  1  0  0  0
 60131  1  0  0  0
 60132  1  0  0  0
 61133  1  0  0  0
 61134  1  0  0  0
 61135  1  0  0  0
 62136  1  0  0  0
 62137  1  0  0  0
 62138  1  0  0  0
 63 65  1  0  0  0
 63139  1  0  0  0
 63140  1  0  0  0
 63141  1  0  0  0
 64142  1  0  0  0
 65143  1  0  0  0
 68 80  1  0  0  0
 71 72  2  0  0  0
 71 73  1  0  0  0
 71144  1  0  0  0
 72 82  1  0  0  0
 72 76  1  0  0  0
 73 81  2  0  0  0
 73 83  1  0  0  0
 74 75  1  0  0  0
 74 76  1  0  0  0
 74145  1  0  0  0
 74146  1  0  0  0
 75 76  1  0  0  0
 75147  1  0  0  0
 75148  1  0  0  0
 76149  1  0  0  0
 77 78  1  0  0  0
 77 82  1  0  0  0
 77150  1  0  0  0
 77151  1  0  0  0
 78 84  1  0  0  0
 78152  1  0  0  0
 78153  1  0  0  0
 79 80  1  0  0  0
 79 84  1  0  0  0
 79154  1  0  0  0
 79155  1  0  0  0
 80156  1  0  0  0
 80157  1  0  0  0
 81 82  1  0  0  0
 83158  1  0  0  0
 84159  1  0  0  0
 84160  1  0  0  0
M  CHG  1  84   1
M  ISO  4   1 100  68 101  80 101  83 100
M  END
> <chiral flag>
0

> <version>
0

> <s_m_source_file>
/data/baiqing/PycharmProjects/Reinvent-master-3.2/result/LINK_invent/BTK/process_docking_weight1_custom_sum_contain_oxygen_bond_distance_aromatic_linkinvent_7_9_3/rearranged_h_0192.sdf

> <i_m_source_file_index>
34

> <r_mmod_Potential_Energy-OPLS-2005>
-142.012084960938

> <r_mmod_Stretch_Energy-OPLS-2005>
56.4052276611328

> <r_mmod_Bend_Energy-OPLS-2005>
124.823554992676

> <r_mmod_Torsional_Energy-OPLS-2005>
287.487701416016

> <r_mmod_Improper_Torsional_Energy-OPLS-2005>
6.8982081413269

> <r_mmod_Van_der_Waal_Energy-OPLS-2005>
115.820945739746

> <r_mmod_Electrostatic_Energy-OPLS-2005>
-260.323120117188

> <r_mmod_Solvation_Energy-OPLS-2005>
-501.512939453125

> <b_mmod_Minimization_Converged-OPLS-2005>
0

> <r_mmod_RMS_Derivative-OPLS-2005>
1.18738806247711

$$$$
34
                    3D
 Structure written by MMmdl.
162171  0  0  1  0            999 V2000
  -30.7003  -14.6895   20.4535 C   0  0  0  0  0  0
  -30.4079  -12.4199   19.4645 C   0  0  0  0  0  0
  -29.5099  -12.5456   18.2198 C   0  0  0  0  0  0
  -28.0268  -12.3886   18.6198 C   0  0  0  0  0  0
  -27.6417  -13.2521   19.8544 C   0  0  2  0  0  0
  -28.6945  -13.1697   20.9811 C   0  0  0  0  0  0
  -25.2494  -13.8243   20.5779 C   0  0  0  0  0  0
  -24.1814  -13.0437   20.9219 C   0  0  0  0  0  0
  -24.6436  -11.6935   20.8732 C   0  0  0  0  0  0
  -23.9124  -10.4302   21.0413 C   0  0  0  0  0  0
  -24.3676   -9.4225   21.9217 C   0  0  0  0  0  0
  -23.6362   -8.2235   22.0763 C   0  0  0  0  0  0
  -22.4337   -8.0288   21.3552 C   0  0  0  0  0  0
  -21.9968   -9.0254   20.4649 C   0  0  0  0  0  0
  -22.7282  -10.2134   20.3078 C   0  0  0  0  0  0
  -21.6863   -6.0766   22.5284 C   0  0  0  0  0  0
  -21.4011   -6.5672   23.8221 C   0  0  0  0  0  0
  -21.3677   -5.6811   24.9187 C   0  0  0  0  0  0
  -21.6069   -4.3068   24.7217 C   0  0  0  0  0  0
  -21.8812   -3.8175   23.4323 C   0  0  0  0  0  0
  -21.9188   -4.7004   22.3386 C   0  0  0  0  0  0
  -22.7847  -13.5211   21.1875 C   0  0  0  0  0  0
  -22.1686   -4.2219   21.0962 F   0  0  0  0  0  0
  -21.5636   -3.4530   25.7705 F   0  0  0  0  0  0
  -29.9919  -13.5060   20.3804 N   0  0  0  0  0  0
  -26.2968  -12.9489   20.3340 N   0  0  0  0  0  0
  -25.9367  -11.6604   20.5716 N   0  0  0  0  0  0
  -22.0483  -12.8165   22.0404 N   0  0  0  0  0  0
  -25.4098  -15.1977   20.4221 N   0  0  0  0  0  0
  -31.9080  -14.6713   20.2026 O   0  0  0  0  0  0
  -21.6677   -6.8894   21.4244 O   0  0  0  0  0  0
  -22.3498  -14.5532   20.6746 O   0  0  0  0  0  0
  -24.6228  -31.8613   23.1988 C   0  0  0  0  0  0
  -25.9082  -32.4790   23.8317 C   0  0  1  0  0  0
  -27.2172  -27.3254   20.1034 C   0  0  0  0  0  0
  -25.5895  -33.8580   24.2236 N   0  0  0  0  0  0
  -23.4138  -30.4837   21.5449 C   0  0  2  0  0  0
  -24.8590  -28.9445   20.1001 C   0  0  0  0  0  0
  -22.7463  -29.4606   22.4943 C   0  0  0  0  0  0
  -18.0307  -28.1336   22.8493 C   0  0  0  0  0  0
  -24.1482  -36.7307   23.2632 C   0  0  0  0  0  0
  -25.9524  -30.7940   21.3679 C   0  0  0  0  0  0
  -26.0249  -29.4206   20.7117 C   0  0  0  0  0  0
  -27.2044  -28.6193   20.7088 C   0  0  0  0  0  0
  -26.0378  -26.9212   19.4351 C   0  0  0  0  0  0
  -24.8672  -27.7041   19.4483 C   0  0  0  0  0  0
  -23.6247  -29.8193   20.1587 C   0  0  0  0  0  0
  -25.4107  -36.3094   24.0322 C   0  0  1  0  0  0
  -20.5902  -28.3648   23.1291 C   0  0  2  0  0  0
  -20.6771  -26.9370   22.5413 C   0  0  0  0  0  0
  -19.5755  -26.6342   21.5203 C   0  0  0  0  0  0
  -18.1942  -26.7866   22.1623 C   0  0  0  0  0  0
  -19.1549  -28.8799   23.2889 C   0  0  0  0  0  0
  -18.9484  -30.1400   23.8910 C   0  0  0  0  0  0
  -17.6480  -30.6539   24.0546 C   0  0  0  0  0  0
  -25.9070  -34.9469   23.5088 C   0  0  0  0  0  0
  -16.5371  -29.9054   23.6280 C   0  0  0  0  0  0
  -16.7305  -28.6452   23.0327 C   0  0  0  0  0  0
  -26.4444  -31.6561   25.0650 C   0  0  0  0  0  0
  -25.3693  -31.3716   26.1382 C   0  0  0  0  0  0
  -27.0226  -30.3000   24.6004 C   0  0  0  0  0  0
  -27.5977  -32.4279   25.7470 C   0  0  0  0  0  0
  -27.5567  -37.1813   24.8459 C   0  0  0  0  0  0
  -21.4176  -29.3017   22.3693 N   0  0  0  0  0  0
  -26.4265  -37.3799   23.9432 N   0  0  0  0  0  0
  -24.6804  -31.0636   22.0945 N   0  0  0  0  0  0
  -23.4189  -28.8153   23.3010 O   0  0  0  0  0  0
  -28.3338  -26.4721   20.1806 O   0  0  0  0  0  0
  -26.5651  -34.8926   22.4665 O   0  0  0  0  0  0
  -23.5398  -32.1400   23.7352 O   0  0  0  0  0  0
  -30.6618  -22.3572   17.7331 C   0  0  0  0  0  0
  -29.9609  -21.5174   19.5426 C   0  0  0  0  0  0
  -29.0583  -16.5647   21.1519 C   0  0  0  0  0  0
  -30.4707  -16.8419   19.1837 C   0  0  0  0  0  0
  -29.2664  -18.1166   21.4452 C   0  0  0  0  0  0
  -30.7524  -18.3351   19.5789 C   0  0  0  0  0  0
  -31.3438  -22.5099   16.4104 C   0  0  0  0  0  0
  -29.8235  -20.4879   20.7157 C   0  0  0  0  0  0
  -29.1278  -23.9183   20.4736 C   0  0  0  0  0  0
  -28.1631  -25.0354   19.8461 C   0  0  0  0  0  0
  -30.5477  -21.1692   18.3896 N   0  0  0  0  0  0
  -30.1433  -23.3960   18.3658 N   0  0  0  0  0  0
  -29.6662  -22.8805   19.5295 N   0  0  0  0  0  0
  -30.0400  -15.9016   20.2583 N   0  0  0  0  0  0
  -29.6236  -19.0134   20.2860 N   0  3  0  0  0  0
  -31.4612  -12.4780   19.1932 H   0  0  0  0  0  0
  -30.2732  -11.4422   19.9276 H   0  0  0  0  0  0
  -29.7841  -11.8124   17.4605 H   0  0  0  0  0  0
  -29.6663  -13.5281   17.7701 H   0  0  0  0  0  0
  -27.8491  -11.3328   18.8180 H   0  0  0  0  0  0
  -27.3859  -12.6520   17.7770 H   0  0  0  0  0  0
  -27.6337  -14.2831   19.5014 H   0  0  0  0  0  0
  -28.7122  -12.1633   21.4006 H   0  0  0  0  0  0
  -28.4449  -13.8368   21.8067 H   0  0  0  0  0  0
  -25.2807   -9.5736   22.4802 H   0  0  0  0  0  0
  -24.0124   -7.4616   22.7421 H   0  0  0  0  0  0
  -21.0946   -8.8757   19.8874 H   0  0  0  0  0  0
  -22.3778  -10.9709   19.6192 H   0  0  0  0  0  0
  -21.2014   -7.6181   23.9754 H   0  0  0  0  0  0
  -21.1535   -6.0541   25.9109 H   0  0  0  0  0  0
  -22.0575   -2.7634   23.2801 H   0  0  0  0  0  0
  -22.4158  -11.9897   22.4889 H   0  0  0  0  0  0
  -21.1066  -13.1125   22.2517 H   0  0  0  0  0  0
  -24.6254  -15.8340   20.5152 H   0  0  0  0  0  0
  -26.2516  -15.6455   20.0883 H   0  0  0  0  0  0
  -26.7121  -32.5465   23.1053 H   0  0  0  0  0  0
  -24.9976  -33.9717   25.0327 H   0  0  0  0  0  0
  -22.7083  -31.3039   21.4037 H   0  0  0  0  0  0
  -23.3750  -35.9629   23.3287 H   0  0  0  0  0  0
  -24.3582  -36.8948   22.2049 H   0  0  0  0  0  0
  -23.7213  -37.6491   23.6672 H   0  0  0  0  0  0
  -26.0737  -31.5625   20.6034 H   0  0  0  0  0  0
  -26.8360  -30.8430   21.9918 H   0  0  0  0  0  0
  -28.0985  -28.9774   21.1956 H   0  0  0  0  0  0
  -25.9949  -25.9908   18.8873 H   0  0  0  0  0  0
  -23.9797  -27.3551   18.9373 H   0  0  0  0  0  0
  -23.7337  -30.5937   19.3986 H   0  0  0  0  0  0
  -22.7486  -29.2424   19.8604 H   0  0  0  0  0  0
  -25.1294  -36.1918   25.0808 H   0  0  0  0  0  0
  -20.9991  -28.3192   24.1411 H   0  0  0  0  0  0
  -20.5611  -26.2280   23.3618 H   0  0  0  0  0  0
  -21.6657  -26.7352   22.1260 H   0  0  0  0  0  0
  -19.6934  -25.6249   21.1237 H   0  0  0  0  0  0
  -19.6680  -27.3146   20.6718 H   0  0  0  0  0  0
  -17.4215  -26.6626   21.4028 H   0  0  0  0  0  0
  -18.0367  -25.9973   22.8984 H   0  0  0  0  0  0
  -19.7958  -30.7206   24.2298 H   0  0  0  0  0  0
  -17.5039  -31.6230   24.5127 H   0  0  0  0  0  0
  -15.5372  -30.2977   23.7551 H   0  0  0  0  0  0
  -15.8707  -28.0776   22.7033 H   0  0  0  0  0  0
  -24.5846  -30.7089   25.7715 H   0  0  0  0  0  0
  -24.8904  -32.2887   26.4820 H   0  0  0  0  0  0
  -25.8002  -30.8878   27.0148 H   0  0  0  0  0  0
  -26.2711  -29.6867   24.1008 H   0  0  0  0  0  0
  -27.3937  -29.7126   25.4401 H   0  0  0  0  0  0
  -27.8599  -30.4326   23.9157 H   0  0  0  0  0  0
  -27.2527  -33.3544   26.2084 H   0  0  0  0  0  0
  -28.3798  -32.6901   25.0334 H   0  0  0  0  0  0
  -28.0616  -31.8386   26.5396 H   0  0  0  0  0  0
  -28.2579  -38.0120   24.7519 H   0  0  0  0  0  0
  -28.1066  -36.2654   24.6251 H   0  0  0  0  0  0
  -27.2312  -37.1415   25.8867 H   0  0  0  0  0  0
  -20.9329  -29.8778   21.6955 H   0  0  0  0  0  0
  -26.0153  -38.2864   24.1451 H   0  0  0  0  0  0
  -28.0697  -16.4245   20.7102 H   0  0  0  0  0  0
  -29.0351  -16.0435   22.1093 H   0  0  0  0  0  0
  -31.3550  -16.4790   18.6600 H   0  0  0  0  0  0
  -29.6855  -16.8360   18.4261 H   0  0  0  0  0  0
  -30.0720  -18.2042   22.1733 H   0  0  0  0  0  0
  -28.3788  -18.5094   21.9444 H   0  0  0  0  0  0
  -30.9863  -18.8274   18.6411 H   0  0  0  0  0  0
  -31.6550  -18.4086   20.1898 H   0  0  0  0  0  0
  -31.0702  -21.7045   15.7323 H   0  0  0  0  0  0
  -32.4260  -22.4969   16.5290 H   0  0  0  0  0  0
  -31.0695  -23.4543   15.9352 H   0  0  0  0  0  0
  -29.0023  -20.8015   21.3596 H   0  0  0  0  0  0
  -30.7278  -20.5518   21.3250 H   0  0  0  0  0  0
  -28.6294  -23.4108   21.2993 H   0  0  0  0  0  0
  -29.9809  -24.4232   20.9231 H   0  0  0  0  0  0
  -27.1625  -24.7042   20.1301 H   0  0  0  0  0  0
  -28.1735  -24.9839   18.7588 H   0  0  0  0  0  0
  -28.8301  -19.0371   19.6608 H   0  0  0  0  0  0
  1 25  1  0  0  0
  1 30  2  0  0  0
  1 84  1  0  0  0
  2  3  1  0  0  0
  2 25  1  0  0  0
  2 86  1  0  0  0
  2 87  1  0  0  0
  3  4  1  0  0  0
  3 88  1  0  0  0
  3 89  1  0  0  0
  4  5  1  0  0  0
  4 90  1  0  0  0
  4 91  1  0  0  0
  5  6  1  0  0  0
  5 26  1  0  0  0
  5 92  1  0  0  0
  6 25  1  0  0  0
  6 93  1  0  0  0
  6 94  1  0  0  0
  7  8  2  0  0  0
  7 26  1  0  0  0
  7 29  1  0  0  0
  8  9  1  0  0  0
  8 22  1  0  0  0
  9 10  1  0  0  0
  9 27  2  0  0  0
 10 11  2  0  0  0
 10 15  1  0  0  0
 11 12  1  0  0  0
 11 95  1  0  0  0
 12 13  2  0  0  0
 12 96  1  0  0  0
 13 14  1  0  0  0
 13 31  1  0  0  0
 14 15  2  0  0  0
 14 97  1  0  0  0
 15 98  1  0  0  0
 16 17  2  0  0  0
 16 21  1  0  0  0
 16 31  1  0  0  0
 17 18  1  0  0  0
 17 99  1  0  0  0
 18 19  2  0  0  0
 18100  1  0  0  0
 19 20  1  0  0  0
 19 24  1  0  0  0
 20 21  2  0  0  0
 20101  1  0  0  0
 21 23  1  0  0  0
 22 28  1  0  0  0
 22 32  2  0  0  0
 26 27  1  0  0  0
 28102  1  0  0  0
 28103  1  0  0  0
 29104  1  0  0  0
 29105  1  0  0  0
 33 34  1  0  0  0
 33 66  1  0  0  0
 33 70  2  0  0  0
 34 36  1  0  0  0
 34 59  1  0  0  0
 34106  1  0  0  0
 35 44  2  0  0  0
 35 45  1  0  0  0
 35 68  1  0  0  0
 36 56  1  0  0  0
 36107  1  0  0  0
 37 39  1  0  0  0
 37 47  1  0  0  0
 37 66  1  0  0  0
 37108  1  0  0  0
 38 43  2  0  0  0
 38 46  1  0  0  0
 38 47  1  0  0  0
 39 64  1  0  0  0
 39 67  2  0  0  0
 40 52  1  0  0  0
 40 53  2  0  0  0
 40 58  1  0  0  0
 41109  1  0  0  0
 41110  1  0  0  0
 41111  1  0  0  0
 41 48  1  0  0  0
 42 43  1  0  0  0
 42 66  1  0  0  0
 42112  1  0  0  0
 42113  1  0  0  0
 43 44  1  0  0  0
 44114  1  0  0  0
 45 46  2  0  0  0
 45115  1  0  0  0
 46116  1  0  0  0
 47117  1  0  0  0
 47118  1  0  0  0
 48 56  1  0  0  0
 48 65  1  0  0  0
 48119  1  0  0  0
 49 50  1  0  0  0
 49 53  1  0  0  0
 49 64  1  0  0  0
 49120  1  0  0  0
 50 51  1  0  0  0
 50121  1  0  0  0
 50122  1  0  0  0
 51 52  1  0  0  0
 51123  1  0  0  0
 51124  1  0  0  0
 52125  1  0  0  0
 52126  1  0  0  0
 53 54  1  0  0  0
 54 55  2  0  0  0
 54127  1  0  0  0
 55 57  1  0  0  0
 55128  1  0  0  0
 56 69  2  0  0  0
 57 58  2  0  0  0
 57129  1  0  0  0
 58130  1  0  0  0
 59 60  1  0  0  0
 59 61  1  0  0  0
 59 62  1  0  0  0
 60131  1  0  0  0
 60132  1  0  0  0
 60133  1  0  0  0
 61134  1  0  0  0
 61135  1  0  0  0
 61136  1  0  0  0
 62137  1  0  0  0
 62138  1  0  0  0
 62139  1  0  0  0
 63 65  1  0  0  0
 63140  1  0  0  0
 63141  1  0  0  0
 63142  1  0  0  0
 64143  1  0  0  0
 65144  1  0  0  0
 68 80  1  0  0  0
 71 77  1  0  0  0
 71 81  1  0  0  0
 71 82  2  0  0  0
 72 78  1  0  0  0
 72 81  2  0  0  0
 72 83  1  0  0  0
 73 75  1  0  0  0
 73 84  1  0  0  0
 73145  1  0  0  0
 73146  1  0  0  0
 74 76  1  0  0  0
 74 84  1  0  0  0
 74147  1  0  0  0
 74148  1  0  0  0
 75 85  1  0  0  0
 75149  1  0  0  0
 75150  1  0  0  0
 76 85  1  0  0  0
 76151  1  0  0  0
 76152  1  0  0  0
 77153  1  0  0  0
 77154  1  0  0  0
 77155  1  0  0  0
 78156  1  0  0  0
 78157  1  0  0  0
 78 85  1  0  0  0
 79 80  1  0  0  0
 79 83  1  0  0  0
 79158  1  0  0  0
 79159  1  0  0  0
 80160  1  0  0  0
 80161  1  0  0  0
 82 83  1  0  0  0
 85162  1  0  0  0
M  CHG  1  85   1
M  ISO  4   1 100  68 101  80 101  84 100
M  END
> <chiral flag>
0

> <version>
0

> <s_m_source_file>
/data/baiqing/PycharmProjects/Reinvent-master-3.2/result/LINK_invent/BTK/process_docking_weight1_custom_sum_contain_oxygen_bond_distance_aromatic_linkinvent_7_9_3/rearranged_h_0192.sdf

> <i_m_source_file_index>
35

> <r_mmod_Potential_Energy-OPLS-2005>
133.263107299805

> <r_mmod_Stretch_Energy-OPLS-2005>
101.385528564453

> <r_mmod_Bend_Energy-OPLS-2005>
200.498947143555

> <r_mmod_Torsional_Energy-OPLS-2005>
387.811920166016

> <r_mmod_Improper_Torsional_Energy-OPLS-2005>
19.2094631195068

> <r_mmod_Van_der_Waal_Energy-OPLS-2005>
138.149215698242

> <r_mmod_Electrostatic_Energy-OPLS-2005>
-310.848266601562

> <r_mmod_Solvation_Energy-OPLS-2005>
-466.451263427734

> <b_mmod_Minimization_Converged-OPLS-2005>
0

> <r_mmod_RMS_Derivative-OPLS-2005>
5.60801267623901

$$$$
35
                    3D
 Structure written by MMmdl.
164173  0  0  1  0            999 V2000
  -30.5799  -14.6069   20.4570 C   0  0  0  0  0  0
  -30.4130  -12.3540   19.4518 C   0  0  0  0  0  0
  -29.4935  -12.5110   18.2179 C   0  0  0  0  0  0
  -28.0108  -12.3534   18.6192 C   0  0  0  0  0  0
  -27.6408  -13.2053   19.8625 C   0  0  2  0  0  0
  -28.6811  -13.0466   20.9962 C   0  0  0  0  0  0
  -25.2486  -13.8122   20.5714 C   0  0  0  0  0  0
  -24.1780  -13.0409   20.9245 C   0  0  0  0  0  0
  -24.6341  -11.6882   20.8811 C   0  0  0  0  0  0
  -23.9035  -10.4274   21.0459 C   0  0  0  0  0  0
  -24.3618   -9.4201   21.9231 C   0  0  0  0  0  0
  -23.6314   -8.2216   22.0760 C   0  0  0  0  0  0
  -22.4300   -8.0271   21.3545 C   0  0  0  0  0  0
  -21.9932   -9.0220   20.4638 C   0  0  0  0  0  0
  -22.7222  -10.2107   20.3071 C   0  0  0  0  0  0
  -21.6832   -6.0760   22.5301 C   0  0  0  0  0  0
  -21.3998   -6.5659   23.8239 C   0  0  0  0  0  0
  -21.3665   -5.6799   24.9204 C   0  0  0  0  0  0
  -21.6051   -4.3065   24.7246 C   0  0  0  0  0  0
  -21.8807   -3.8161   23.4355 C   0  0  0  0  0  0
  -21.9182   -4.6994   22.3424 C   0  0  0  0  0  0
  -22.7818  -13.5205   21.1889 C   0  0  0  0  0  0
  -22.1639   -4.2185   21.1010 F   0  0  0  0  0  0
  -21.5645   -3.4542   25.7747 F   0  0  0  0  0  0
  -30.0020  -13.3681   20.4382 N   0  0  0  0  0  0
  -26.2899  -12.9285   20.3324 N   0  0  0  0  0  0
  -25.9255  -11.6459   20.5812 N   0  0  0  0  0  0
  -22.0415  -12.8204   22.0432 N   0  0  0  0  0  0
  -25.4161  -15.1833   20.4058 N   0  0  0  0  0  0
  -31.7463  -14.7909   20.0981 O   0  0  0  0  0  0
  -21.6629   -6.8892   21.4262 O   0  0  0  0  0  0
  -22.3547  -14.5537   20.6730 O   0  0  0  0  0  0
  -24.6260  -31.8665   23.2073 C   0  0  0  0  0  0
  -25.9105  -32.4817   23.8410 C   0  0  1  0  0  0
  -27.2080  -27.3478   20.0787 C   0  0  0  0  0  0
  -25.5938  -33.8617   24.2333 N   0  0  0  0  0  0
  -23.4158  -30.4950   21.5559 C   0  0  2  0  0  0
  -24.8510  -28.9596   20.1148 C   0  0  0  0  0  0
  -22.7463  -29.4677   22.4991 C   0  0  0  0  0  0
  -18.0295  -28.1396   22.8498 C   0  0  0  0  0  0
  -24.1491  -36.7291   23.2639 C   0  0  0  0  0  0
  -25.9580  -30.8035   21.3731 C   0  0  0  0  0  0
  -26.0279  -29.4354   20.7099 C   0  0  0  0  0  0
  -27.2108  -28.6414   20.6832 C   0  0  0  0  0  0
  -25.9992  -26.9227   19.4792 C   0  0  0  0  0  0
  -24.8367  -27.7046   19.4980 C   0  0  0  0  0  0
  -23.6221  -29.8382   20.1697 C   0  0  0  0  0  0
  -25.4119  -36.3112   24.0343 C   0  0  1  0  0  0
  -20.5893  -28.3707   23.1295 C   0  0  2  0  0  0
  -20.6797  -26.9431   22.5411 C   0  0  0  0  0  0
  -19.5758  -26.6399   21.5232 C   0  0  0  0  0  0
  -18.1929  -26.7957   22.1622 C   0  0  0  0  0  0
  -19.1540  -28.8869   23.2895 C   0  0  0  0  0  0
  -18.9454  -30.1474   23.8907 C   0  0  0  0  0  0
  -17.6442  -30.6586   24.0571 C   0  0  0  0  0  0
  -25.9054  -34.9474   23.5130 C   0  0  0  0  0  0
  -16.5342  -29.9073   23.6331 C   0  0  0  0  0  0
  -16.7271  -28.6498   23.0352 C   0  0  0  0  0  0
  -26.4481  -31.6602   25.0752 C   0  0  0  0  0  0
  -25.3713  -31.3670   26.1457 C   0  0  0  0  0  0
  -27.0324  -30.3057   24.6140 C   0  0  0  0  0  0
  -27.6051  -32.4327   25.7506 C   0  0  0  0  0  0
  -27.5590  -37.1803   24.8455 C   0  0  0  0  0  0
  -21.4186  -29.3068   22.3697 N   0  0  0  0  0  0
  -26.4296  -37.3806   23.9410 N   0  0  0  0  0  0
  -24.6867  -31.0693   22.1025 N   0  0  0  0  0  0
  -23.4185  -28.8196   23.3053 O   0  0  0  0  0  0
  -28.3240  -26.5011   20.0839 O   0  0  0  0  0  0
  -26.5592  -34.8929   22.4679 O   0  0  0  0  0  0
  -23.5423  -32.1452   23.7412 O   0  0  0  0  0  0
  -28.3962  -17.2776   19.2957 C   0  0  0  0  0  0
  -30.1984  -21.8042   20.4323 C   0  0  0  0  0  0
  -29.9617  -20.3259   20.8717 C   0  0  0  0  0  0
  -28.0785  -21.9054   19.4110 C   0  0  0  0  0  0
  -28.8022  -18.1781   20.4140 C   0  0  1  0  0  0
  -29.7117  -16.9676   20.0002 C   0  0  1  0  0  0
  -27.7573  -20.4267   19.8570 C   0  0  2  0  0  0
  -26.7882  -20.4650   21.0780 C   0  0  0  0  0  0
  -29.2560  -24.0528   20.0443 C   0  0  0  0  0  0
  -28.0553  -25.0583   19.9497 C   0  0  0  0  0  0
  -28.9646  -22.6099   20.3586 N   0  0  0  0  0  0
  -29.0059  -19.6047   20.0121 N   0  0  0  0  0  0
  -29.6844  -15.6292   20.5990 N   0  0  0  0  0  0
  -25.7178  -19.4510   21.0244 N   0  3  0  0  0  0
  -31.4609  -12.4534   19.1635 H   0  0  0  0  0  0
  -30.3069  -11.3537   19.8769 H   0  0  0  0  0  0
  -29.7537  -11.7788   17.4518 H   0  0  0  0  0  0
  -29.6490  -13.4940   17.7694 H   0  0  0  0  0  0
  -27.8259  -11.2945   18.8173 H   0  0  0  0  0  0
  -27.3629  -12.6159   17.7798 H   0  0  0  0  0  0
  -27.6529  -14.2430   19.5337 H   0  0  0  0  0  0
  -28.6772  -12.0278   21.3790 H   0  0  0  0  0  0
  -28.4370  -13.6870   21.8433 H   0  0  0  0  0  0
  -25.2755   -9.5681   22.4826 H   0  0  0  0  0  0
  -24.0034   -7.4599   22.7453 H   0  0  0  0  0  0
  -21.0873   -8.8718   19.8934 H   0  0  0  0  0  0
  -22.3690  -10.9665   19.6191 H   0  0  0  0  0  0
  -21.1977   -7.6153   23.9772 H   0  0  0  0  0  0
  -21.1498   -6.0525   25.9113 H   0  0  0  0  0  0
  -22.0587   -2.7629   23.2846 H   0  0  0  0  0  0
  -22.3947  -11.9828   22.4818 H   0  0  0  0  0  0
  -21.1034  -13.1256   22.2600 H   0  0  0  0  0  0
  -24.5963  -15.7786   20.3887 H   0  0  0  0  0  0
  -26.1995  -15.5646   19.8958 H   0  0  0  0  0  0
  -26.7175  -32.5493   23.1174 H   0  0  0  0  0  0
  -25.0133  -33.9787   25.0505 H   0  0  0  0  0  0
  -22.7099  -31.3172   21.4212 H   0  0  0  0  0  0
  -23.3793  -35.9579   23.3270 H   0  0  0  0  0  0
  -24.3608  -36.8929   22.2059 H   0  0  0  0  0  0
  -23.7179  -37.6463   23.6671 H   0  0  0  0  0  0
  -26.0887  -31.5694   20.6076 H   0  0  0  0  0  0
  -26.8406  -30.8505   21.9976 H   0  0  0  0  0  0
  -28.1158  -29.0095   21.1484 H   0  0  0  0  0  0
  -25.9002  -25.9740   18.9810 H   0  0  0  0  0  0
  -23.9358  -27.3260   19.0347 H   0  0  0  0  0  0
  -23.7408  -30.6223   19.4218 H   0  0  0  0  0  0
  -22.7412  -29.2713   19.8627 H   0  0  0  0  0  0
  -25.1298  -36.1995   25.0840 H   0  0  0  0  0  0
  -20.9990  -28.3286   24.1419 H   0  0  0  0  0  0
  -20.5780  -26.2302   23.3608 H   0  0  0  0  0  0
  -21.6648  -26.7521   22.1139 H   0  0  0  0  0  0
  -19.6918  -25.6311   21.1260 H   0  0  0  0  0  0
  -19.6703  -27.3225   20.6776 H   0  0  0  0  0  0
  -17.4216  -26.6743   21.3995 H   0  0  0  0  0  0
  -18.0288  -26.0097   22.9007 H   0  0  0  0  0  0
  -19.7909  -30.7321   24.2266 H   0  0  0  0  0  0
  -17.4973  -31.6275   24.5153 H   0  0  0  0  0  0
  -15.5341  -30.2970   23.7668 H   0  0  0  0  0  0
  -15.8667  -28.0833   22.7053 H   0  0  0  0  0  0
  -24.5930  -30.6994   25.7743 H   0  0  0  0  0  0
  -24.8848  -32.2788   26.4926 H   0  0  0  0  0  0
  -25.8039  -30.8813   27.0206 H   0  0  0  0  0  0
  -26.2879  -29.6820   24.1180 H   0  0  0  0  0  0
  -27.4082  -29.7298   25.4601 H   0  0  0  0  0  0
  -27.8715  -30.4398   23.9314 H   0  0  0  0  0  0
  -27.2692  -33.3648   26.2062 H   0  0  0  0  0  0
  -28.3850  -32.6853   25.0308 H   0  0  0  0  0  0
  -28.0719  -31.8461   26.5422 H   0  0  0  0  0  0
  -28.2571  -38.0140   24.7585 H   0  0  0  0  0  0
  -28.1137  -36.2681   24.6205 H   0  0  0  0  0  0
  -27.2313  -37.1320   25.8855 H   0  0  0  0  0  0
  -20.9358  -29.8784   21.6899 H   0  0  0  0  0  0
  -26.0194  -38.2883   24.1445 H   0  0  0  0  0  0
  -28.4676  -17.6523   18.2751 H   0  0  0  0  0  0
  -27.5272  -16.6553   19.4895 H   0  0  0  0  0  0
  -30.6989  -21.8049   19.4615 H   0  0  0  0  0  0
  -30.9027  -22.2662   21.1227 H   0  0  0  0  0  0
  -29.6449  -20.3017   21.9149 H   0  0  0  0  0  0
  -30.9229  -19.8055   20.8385 H   0  0  0  0  0  0
  -27.1445  -22.4581   19.2858 H   0  0  0  0  0  0
  -28.5382  -21.8881   18.4201 H   0  0  0  0  0  0
  -28.2887  -18.0961   21.3718 H   0  0  0  0  0  0
  -30.6248  -17.2394   19.4730 H   0  0  0  0  0  0
  -27.1916  -20.0025   19.0254 H   0  0  0  0  0  0
  -26.2803  -21.4297   21.1222 H   0  0  0  0  0  0
  -27.3339  -20.3783   22.0175 H   0  0  0  0  0  0
  -29.9149  -24.4302   20.8258 H   0  0  0  0  0  0
  -29.8401  -24.1169   19.1236 H   0  0  0  0  0  0
  -27.3113  -24.7811   20.6976 H   0  0  0  0  0  0
  -27.6149  -24.8557   18.9738 H   0  0  0  0  0  0
  -28.7801  -15.3224   20.9269 H   0  0  0  0  0  0
  -25.1043  -19.6215   20.2482 H   0  0  0  0  0  0
  -25.1660  -19.5070   21.8646 H   0  0  0  0  0  0
  -26.0876  -18.5223   20.9465 H   0  0  0  0  0  0
  1 25  1  0  0  0
  1 30  2  0  0  0
  1 83  1  0  0  0
  2  3  1  0  0  0
  2 25  1  0  0  0
  2 85  1  0  0  0
  2 86  1  0  0  0
  3  4  1  0  0  0
  3 87  1  0  0  0
  3 88  1  0  0  0
  4  5  1  0  0  0
  4 89  1  0  0  0
  4 90  1  0  0  0
  5  6  1  0  0  0
  5 26  1  0  0  0
  5 91  1  0  0  0
  6 25  1  0  0  0
  6 92  1  0  0  0
  6 93  1  0  0  0
  7  8  2  0  0  0
  7 26  1  0  0  0
  7 29  1  0  0  0
  8  9  1  0  0  0
  8 22  1  0  0  0
  9 10  1  0  0  0
  9 27  2  0  0  0
 10 11  2  0  0  0
 10 15  1  0  0  0
 11 12  1  0  0  0
 11 94  1  0  0  0
 12 13  2  0  0  0
 12 95  1  0  0  0
 13 14  1  0  0  0
 13 31  1  0  0  0
 14 15  2  0  0  0
 14 96  1  0  0  0
 15 97  1  0  0  0
 16 17  2  0  0  0
 16 21  1  0  0  0
 16 31  1  0  0  0
 17 18  1  0  0  0
 17 98  1  0  0  0
 18 19  2  0  0  0
 18 99  1  0  0  0
 19 20  1  0  0  0
 19 24  1  0  0  0
 20 21  2  0  0  0
 20100  1  0  0  0
 21 23  1  0  0  0
 22 28  1  0  0  0
 22 32  2  0  0  0
 26 27  1  0  0  0
 28101  1  0  0  0
 28102  1  0  0  0
 29103  1  0  0  0
 29104  1  0  0  0
 33 34  1  0  0  0
 33 66  1  0  0  0
 33 70  2  0  0  0
 34 36  1  0  0  0
 34 59  1  0  0  0
 34105  1  0  0  0
 35 44  2  0  0  0
 35 45  1  0  0  0
 35 68  1  0  0  0
 36 56  1  0  0  0
 36106  1  0  0  0
 37 39  1  0  0  0
 37 47  1  0  0  0
 37 66  1  0  0  0
 37107  1  0  0  0
 38 43  2  0  0  0
 38 46  1  0  0  0
 38 47  1  0  0  0
 39 64  1  0  0  0
 39 67  2  0  0  0
 40 52  1  0  0  0
 40 53  2  0  0  0
 40 58  1  0  0  0
 41108  1  0  0  0
 41109  1  0  0  0
 41110  1  0  0  0
 41 48  1  0  0  0
 42 43  1  0  0  0
 42 66  1  0  0  0
 42111  1  0  0  0
 42112  1  0  0  0
 43 44  1  0  0  0
 44113  1  0  0  0
 45 46  2  0  0  0
 45114  1  0  0  0
 46115  1  0  0  0
 47116  1  0  0  0
 47117  1  0  0  0
 48 56  1  0  0  0
 48 65  1  0  0  0
 48118  1  0  0  0
 49 50  1  0  0  0
 49 53  1  0  0  0
 49 64  1  0  0  0
 49119  1  0  0  0
 50 51  1  0  0  0
 50120  1  0  0  0
 50121  1  0  0  0
 51 52  1  0  0  0
 51122  1  0  0  0
 51123  1  0  0  0
 52124  1  0  0  0
 52125  1  0  0  0
 53 54  1  0  0  0
 54 55  2  0  0  0
 54126  1  0  0  0
 55 57  1  0  0  0
 55127  1  0  0  0
 56 69  2  0  0  0
 57 58  2  0  0  0
 57128  1  0  0  0
 58129  1  0  0  0
 59 60  1  0  0  0
 59 61  1  0  0  0
 59 62  1  0  0  0
 60130  1  0  0  0
 60131  1  0  0  0
 60132  1  0  0  0
 61133  1  0  0  0
 61134  1  0  0  0
 61135  1  0  0  0
 62136  1  0  0  0
 62137  1  0  0  0
 62138  1  0  0  0
 63 65  1  0  0  0
 63139  1  0  0  0
 63140  1  0  0  0
 63141  1  0  0  0
 64142  1  0  0  0
 65143  1  0  0  0
 68 80  1  0  0  0
 71 75  1  0  0  0
 71 76  1  0  0  0
 71144  1  0  0  0
 71145  1  0  0  0
 72 73  1  0  0  0
 72 81  1  0  0  0
 72146  1  0  0  0
 72147  1  0  0  0
 73148  1  0  0  0
 73149  1  0  0  0
 73 82  1  0  0  0
 74 77  1  0  0  0
 74 81  1  0  0  0
 74150  1  0  0  0
 74151  1  0  0  0
 75 76  1  0  0  0
 75 82  1  0  0  0
 75152  1  0  0  0
 76 83  1  0  0  0
 76153  1  0  0  0
 77 78  1  0  0  0
 77 82  1  0  0  0
 77154  1  0  0  0
 78 84  1  0  0  0
 78155  1  0  0  0
 78156  1  0  0  0
 79 80  1  0  0  0
 79 81  1  0  0  0
 79157  1  0  0  0
 79158  1  0  0  0
 80159  1  0  0  0
 80160  1  0  0  0
 83161  1  0  0  0
 84162  1  0  0  0
 84163  1  0  0  0
 84164  1  0  0  0
M  CHG  1  84   1
M  ISO  4   1 100  68 101  80 101  83 100
M  END
> <chiral flag>
0

> <version>
0

> <s_m_source_file>
/data/baiqing/PycharmProjects/Reinvent-master-3.2/result/LINK_invent/BTK/process_docking_weight1_custom_sum_contain_oxygen_bond_distance_aromatic_linkinvent_7_9_3/rearranged_h_0192.sdf

> <i_m_source_file_index>
36

> <r_mmod_Potential_Energy-OPLS-2005>
52.8787651062012

> <r_mmod_Stretch_Energy-OPLS-2005>
71.309814453125

> <r_mmod_Bend_Energy-OPLS-2005>
133.359146118164

> <r_mmod_Torsional_Energy-OPLS-2005>
422.801116943359

> <r_mmod_Improper_Torsional_Energy-OPLS-2005>
10.7477378845215

> <r_mmod_Van_der_Waal_Energy-OPLS-2005>
138.535400390625

> <r_mmod_Electrostatic_Energy-OPLS-2005>
-241.150009155273

> <r_mmod_Solvation_Energy-OPLS-2005>
-524.134887695312

> <b_mmod_Minimization_Converged-OPLS-2005>
0

> <r_mmod_RMS_Derivative-OPLS-2005>
4.458092212677

$$$$
36
                    3D
 Structure written by MMmdl.
154163  0  0  1  0            999 V2000
  -30.3823  -15.4288   20.3441 C   0  0  0  0  0  0
  -30.4326  -12.9224   19.5469 C   0  0  0  0  0  0
  -29.5449  -12.6128   18.3115 C   0  0  0  0  0  0
  -28.1024  -12.3023   18.7410 C   0  0  0  0  0  0
  -27.6055  -13.2918   19.8220 C   0  0  2  0  0  0
  -28.6291  -13.5362   20.9545 C   0  0  0  0  0  0
  -25.2357  -13.8270   20.5768 C   0  0  0  0  0  0
  -24.1727  -13.0438   20.9270 C   0  0  0  0  0  0
  -24.6405  -11.6942   20.8762 C   0  0  0  0  0  0
  -23.9105  -10.4294   21.0401 C   0  0  0  0  0  0
  -24.3646   -9.4207   21.9182 C   0  0  0  0  0  0
  -23.6310   -8.2246   22.0754 C   0  0  0  0  0  0
  -22.4290   -8.0286   21.3545 C   0  0  0  0  0  0
  -21.9934   -9.0262   20.4646 C   0  0  0  0  0  0
  -22.7273  -10.2135   20.3052 C   0  0  0  0  0  0
  -21.6857   -6.0741   22.5279 C   0  0  0  0  0  0
  -21.4018   -6.5643   23.8213 C   0  0  0  0  0  0
  -21.3660   -5.6794   24.9174 C   0  0  0  0  0  0
  -21.6044   -4.3056   24.7224 C   0  0  0  0  0  0
  -21.8819   -3.8149   23.4344 C   0  0  0  0  0  0
  -21.9194   -4.6968   22.3401 C   0  0  0  0  0  0
  -22.7742  -13.5179   21.1911 C   0  0  0  0  0  0
  -22.1661   -4.2153   21.0979 F   0  0  0  0  0  0
  -21.5628   -3.4540   25.7736 F   0  0  0  0  0  0
  -29.8424  -14.0907   20.3237 N   0  0  0  0  0  0
  -26.2795  -12.9574   20.3230 N   0  0  0  0  0  0
  -25.9347  -11.6661   20.5714 N   0  0  0  0  0  0
  -22.0405  -12.8157   22.0464 N   0  0  0  0  0  0
  -25.3973  -15.2008   20.4209 N   0  0  0  0  0  0
  -31.6002  -15.4013   20.1011 O   0  0  0  0  0  0
  -21.6647   -6.8887   21.4243 O   0  0  0  0  0  0
  -22.3418  -14.5478   20.6748 O   0  0  0  0  0  0
  -24.6726  -31.8121   23.1613 C   0  0  0  0  0  0
  -25.9360  -32.4529   23.8117 C   0  0  1  0  0  0
  -27.2230  -26.8194   20.1963 C   0  0  0  0  0  0
  -25.5987  -33.8350   24.2012 N   0  0  0  0  0  0
  -23.4937  -30.4187   21.5117 C   0  0  2  0  0  0
  -24.9512  -28.7863   20.1100 C   0  0  0  0  0  0
  -22.7718  -29.4377   22.4738 C   0  0  0  0  0  0
  -18.0332  -28.1416   22.8463 C   0  0  0  0  0  0
  -24.1494  -36.7179   23.2650 C   0  0  0  0  0  0
  -26.0684  -30.5820   21.4103 C   0  0  0  0  0  0
  -26.1353  -29.1606   20.7562 C   0  0  0  0  0  0
  -27.2589  -28.1992   20.7762 C   0  0  0  0  0  0
  -26.0134  -26.6315   19.4849 C   0  0  0  0  0  0
  -24.9226  -27.5454   19.4522 C   0  0  0  0  0  0
  -23.7410  -29.7261   20.1415 C   0  0  0  0  0  0
  -25.4141  -36.2932   24.0290 C   0  0  1  0  0  0
  -20.5962  -28.3769   23.1164 C   0  0  2  0  0  0
  -20.6802  -26.9439   22.5403 C   0  0  0  0  0  0
  -19.5776  -26.6376   21.5217 C   0  0  0  0  0  0
  -18.1959  -26.7948   22.1623 C   0  0  0  0  0  0
  -19.1596  -28.8916   23.2797 C   0  0  0  0  0  0
  -18.9504  -30.1502   23.8838 C   0  0  0  0  0  0
  -17.6495  -30.6603   24.0554 C   0  0  0  0  0  0
  -25.9113  -34.9318   23.4980 C   0  0  0  0  0  0
  -16.5384  -29.9088   23.6348 C   0  0  0  0  0  0
  -16.7312  -28.6509   23.0367 C   0  0  0  0  0  0
  -26.4576  -31.6519   25.0692 C   0  0  0  0  0  0
  -25.3672  -31.3807   26.1328 C   0  0  0  0  0  0
  -27.0492  -30.2871   24.6515 C   0  0  0  0  0  0
  -27.6045  -32.4357   25.7502 C   0  0  0  0  0  0
  -27.5565  -37.1750   24.8469 C   0  0  0  0  0  0
  -21.4375  -29.3036   22.3494 N   0  0  0  0  0  0
  -26.4276  -37.3679   23.9406 N   0  0  0  0  0  0
  -24.7669  -30.9678   22.0806 N   0  0  0  0  0  0
  -23.4215  -28.7964   23.3031 O   0  0  0  0  0  0
  -28.1841  -25.6437   20.3181 O   0  0  0  0  0  0
  -26.5736  -34.8873   22.4585 O   0  0  0  0  0  0
  -23.5771  -32.1144   23.6635 O   0  0  0  0  0  0
  -29.1909  -20.5930   21.7852 C   0  0  0  0  0  0
  -28.9283  -21.0249   19.7623 C   0  0  0  0  0  0
  -28.6353  -22.3758   20.3660 C   0  0  0  0  0  0
  -29.3131  -18.7834   18.6069 C   0  0  0  0  0  0
  -29.8158  -18.4132   20.0507 C   0  0  1  0  0  0
  -29.0161  -20.3659   18.4037 C   0  0  0  0  0  0
  -30.1715  -20.9950   17.6077 C   0  0  0  0  0  0
  -27.7084  -20.5665   17.6206 C   0  0  0  0  0  0
  -27.9710  -24.0079   19.9100 C   0  0  0  0  0  0
  -28.8329  -21.9298   21.7087 N   0  0  0  0  0  0
  -29.2796  -19.8862   20.6286 N   0  0  0  0  0  0
  -29.6273  -16.7451   20.4423 N   0  0  0  0  0  0
  -31.4452  -13.1412   19.2064 H   0  0  0  0  0  0
  -30.5309  -12.0408   20.1826 H   0  0  0  0  0  0
  -29.9575  -11.7779   17.7434 H   0  0  0  0  0  0
  -29.5482  -13.4731   17.6406 H   0  0  0  0  0  0
  -28.0874  -11.2877   19.1411 H   0  0  0  0  0  0
  -27.4348  -12.3030   17.8785 H   0  0  0  0  0  0
  -27.4987  -14.2401   19.2935 H   0  0  0  0  0  0
  -28.8328  -12.6240   21.5172 H   0  0  0  0  0  0
  -28.2346  -14.2594   21.6698 H   0  0  0  0  0  0
  -25.2787   -9.5681   22.4763 H   0  0  0  0  0  0
  -24.0014   -7.4637   22.7475 H   0  0  0  0  0  0
  -21.0865   -8.8787   19.8950 H   0  0  0  0  0  0
  -22.3733  -10.9676   19.6163 H   0  0  0  0  0  0
  -21.2011   -7.6151   23.9718 H   0  0  0  0  0  0
  -21.1482   -6.0524   25.9078 H   0  0  0  0  0  0
  -22.0596   -2.7612   23.2842 H   0  0  0  0  0  0
  -22.4043  -11.9832   22.4859 H   0  0  0  0  0  0
  -21.1012  -13.1156   22.2662 H   0  0  0  0  0  0
  -24.6247  -15.8483   20.5324 H   0  0  0  0  0  0
  -26.2346  -15.6421   20.0649 H   0  0  0  0  0  0
  -26.7435  -32.5033   23.0829 H   0  0  0  0  0  0
  -25.0071  -33.9412   25.0122 H   0  0  0  0  0  0
  -22.8126  -31.2531   21.3317 H   0  0  0  0  0  0
  -23.3768  -35.9496   23.3283 H   0  0  0  0  0  0
  -24.3565  -36.8862   22.2070 H   0  0  0  0  0  0
  -23.7243  -37.6351   23.6734 H   0  0  0  0  0  0
  -26.2616  -31.3161   20.6269 H   0  0  0  0  0  0
  -26.9231  -30.6431   22.0718 H   0  0  0  0  0  0
  -28.1461  -28.4819   21.3249 H   0  0  0  0  0  0
  -25.8650  -25.6887   18.9791 H   0  0  0  0  0  0
  -24.0271  -27.2535   18.9209 H   0  0  0  0  0  0
  -23.9046  -30.4913   19.3818 H   0  0  0  0  0  0
  -22.8490  -29.1852   19.8208 H   0  0  0  0  0  0
  -25.1347  -36.1711   25.0781 H   0  0  0  0  0  0
  -21.0049  -28.3386   24.1289 H   0  0  0  0  0  0
  -20.5676  -26.2391   23.3656 H   0  0  0  0  0  0
  -21.6664  -26.7399   22.1214 H   0  0  0  0  0  0
  -19.6933  -25.6271   21.1287 H   0  0  0  0  0  0
  -19.6716  -27.3152   20.6720 H   0  0  0  0  0  0
  -17.4229  -26.6691   21.4026 H   0  0  0  0  0  0
  -18.0349  -26.0104   22.9033 H   0  0  0  0  0  0
  -19.7978  -30.7335   24.2180 H   0  0  0  0  0  0
  -17.5046  -31.6276   24.5166 H   0  0  0  0  0  0
  -15.5382  -30.2971   23.7707 H   0  0  0  0  0  0
  -15.8713  -28.0807   22.7116 H   0  0  0  0  0  0
  -24.5869  -30.7144   25.7632 H   0  0  0  0  0  0
  -24.8846  -32.3022   26.4594 H   0  0  0  0  0  0
  -25.7873  -30.9074   27.0210 H   0  0  0  0  0  0
  -26.3186  -29.6514   24.1501 H   0  0  0  0  0  0
  -27.3955  -29.7278   25.5217 H   0  0  0  0  0  0
  -27.9155  -30.4022   23.9999 H   0  0  0  0  0  0
  -27.2597  -33.3715   26.1913 H   0  0  0  0  0  0
  -28.3941  -32.6828   25.0393 H   0  0  0  0  0  0
  -28.0620  -31.8597   26.5556 H   0  0  0  0  0  0
  -28.2565  -38.0060   24.7503 H   0  0  0  0  0  0
  -28.1075  -36.2583   24.6313 H   0  0  0  0  0  0
  -27.2278  -37.1411   25.8870 H   0  0  0  0  0  0
  -20.9652  -29.8709   21.6593 H   0  0  0  0  0  0
  -26.0113  -38.2733   24.1408 H   0  0  0  0  0  0
  -29.4325  -20.1307   22.7321 H   0  0  0  0  0  0
  -28.3754  -18.2453   18.4647 H   0  0  0  0  0  0
  -29.9827  -18.3927   17.8398 H   0  0  0  0  0  0
  -30.9006  -18.5267   20.0476 H   0  0  0  0  0  0
  -31.1240  -20.8648   18.1230 H   0  0  0  0  0  0
  -30.0209  -22.0656   17.4637 H   0  0  0  0  0  0
  -30.2687  -20.5426   16.6201 H   0  0  0  0  0  0
  -26.8573  -20.1474   18.1586 H   0  0  0  0  0  0
  -27.7512  -20.0819   16.6446 H   0  0  0  0  0  0
  -27.5001  -21.6239   17.4543 H   0  0  0  0  0  0
  -26.8976  -23.8931   20.0580 H   0  0  0  0  0  0
  -28.0609  -24.0450   18.8243 H   0  0  0  0  0  0
  -28.6703  -16.5565   20.7020 H   0  0  0  0  0  0
  1 25  1  0  0  0
  1 30  2  0  0  0
  1 82  1  0  0  0
  2  3  1  0  0  0
  2 25  1  0  0  0
  2 83  1  0  0  0
  2 84  1  0  0  0
  3  4  1  0  0  0
  3 85  1  0  0  0
  3 86  1  0  0  0
  4  5  1  0  0  0
  4 87  1  0  0  0
  4 88  1  0  0  0
  5  6  1  0  0  0
  5 26  1  0  0  0
  5 89  1  0  0  0
  6 25  1  0  0  0
  6 90  1  0  0  0
  6 91  1  0  0  0
  7  8  2  0  0  0
  7 26  1  0  0  0
  7 29  1  0  0  0
  8  9  1  0  0  0
  8 22  1  0  0  0
  9 10  1  0  0  0
  9 27  2  0  0  0
 10 11  2  0  0  0
 10 15  1  0  0  0
 11 12  1  0  0  0
 11 92  1  0  0  0
 12 13  2  0  0  0
 12 93  1  0  0  0
 13 14  1  0  0  0
 13 31  1  0  0  0
 14 15  2  0  0  0
 14 94  1  0  0  0
 15 95  1  0  0  0
 16 17  2  0  0  0
 16 21  1  0  0  0
 16 31  1  0  0  0
 17 18  1  0  0  0
 17 96  1  0  0  0
 18 19  2  0  0  0
 18 97  1  0  0  0
 19 20  1  0  0  0
 19 24  1  0  0  0
 20 21  2  0  0  0
 20 98  1  0  0  0
 21 23  1  0  0  0
 22 28  1  0  0  0
 22 32  2  0  0  0
 26 27  1  0  0  0
 28 99  1  0  0  0
 28100  1  0  0  0
 29101  1  0  0  0
 29102  1  0  0  0
 33 34  1  0  0  0
 33 66  1  0  0  0
 33 70  2  0  0  0
 34 36  1  0  0  0
 34 59  1  0  0  0
 34103  1  0  0  0
 35 44  2  0  0  0
 35 45  1  0  0  0
 35 68  1  0  0  0
 36 56  1  0  0  0
 36104  1  0  0  0
 37 39  1  0  0  0
 37 47  1  0  0  0
 37 66  1  0  0  0
 37105  1  0  0  0
 38 43  2  0  0  0
 38 46  1  0  0  0
 38 47  1  0  0  0
 39 64  1  0  0  0
 39 67  2  0  0  0
 40 52  1  0  0  0
 40 53  2  0  0  0
 40 58  1  0  0  0
 41106  1  0  0  0
 41107  1  0  0  0
 41108  1  0  0  0
 41 48  1  0  0  0
 42 43  1  0  0  0
 42 66  1  0  0  0
 42109  1  0  0  0
 42110  1  0  0  0
 43 44  1  0  0  0
 44111  1  0  0  0
 45 46  2  0  0  0
 45112  1  0  0  0
 46113  1  0  0  0
 47114  1  0  0  0
 47115  1  0  0  0
 48 56  1  0  0  0
 48 65  1  0  0  0
 48116  1  0  0  0
 49 50  1  0  0  0
 49 53  1  0  0  0
 49 64  1  0  0  0
 49117  1  0  0  0
 50 51  1  0  0  0
 50118  1  0  0  0
 50119  1  0  0  0
 51 52  1  0  0  0
 51120  1  0  0  0
 51121  1  0  0  0
 52122  1  0  0  0
 52123  1  0  0  0
 53 54  1  0  0  0
 54 55  2  0  0  0
 54124  1  0  0  0
 55 57  1  0  0  0
 55125  1  0  0  0
 56 69  2  0  0  0
 57 58  2  0  0  0
 57126  1  0  0  0
 58127  1  0  0  0
 59 60  1  0  0  0
 59 61  1  0  0  0
 59 62  1  0  0  0
 60128  1  0  0  0
 60129  1  0  0  0
 60130  1  0  0  0
 61131  1  0  0  0
 61132  1  0  0  0
 61133  1  0  0  0
 62134  1  0  0  0
 62135  1  0  0  0
 62136  1  0  0  0
 63 65  1  0  0  0
 63137  1  0  0  0
 63138  1  0  0  0
 63139  1  0  0  0
 64140  1  0  0  0
 65141  1  0  0  0
 68 79  1  0  0  0
 71 80  2  0  0  0
 71 81  1  0  0  0
 71142  1  0  0  0
 72 73  2  0  0  0
 72 76  1  0  0  0
 72 81  1  0  0  0
 73 79  1  0  0  0
 73 80  1  0  0  0
 74 75  1  0  0  0
 74 76  1  0  0  0
 74143  1  0  0  0
 74144  1  0  0  0
 75 81  1  0  0  0
 75 82  1  0  0  0
 75145  1  0  0  0
 76 77  1  0  0  0
 76 78  1  0  0  0
 77146  1  0  0  0
 77147  1  0  0  0
 77148  1  0  0  0
 78149  1  0  0  0
 78150  1  0  0  0
 78151  1  0  0  0
 79152  1  0  0  0
 79153  1  0  0  0
 82154  1  0  0  0
M  ISO  4   1 100  68 101  79 101  82 100
M  END
> <chiral flag>
0

> <version>
0

> <s_m_source_file>
/data/baiqing/PycharmProjects/Reinvent-master-3.2/result/LINK_invent/BTK/process_docking_weight1_custom_sum_contain_oxygen_bond_distance_aromatic_linkinvent_7_9_3/rearranged_h_0192.sdf

> <i_m_source_file_index>
37

> <r_mmod_Potential_Energy-OPLS-2005>
1755.98620605469

> <r_mmod_Stretch_Energy-OPLS-2005>
718.235046386719

> <r_mmod_Bend_Energy-OPLS-2005>
617.123168945312

> <r_mmod_Torsional_Energy-OPLS-2005>
251.215774536133

> <r_mmod_Improper_Torsional_Energy-OPLS-2005>
6.74148273468018

> <r_mmod_Van_der_Waal_Energy-OPLS-2005>
101.097496032715

> <r_mmod_Electrostatic_Energy-OPLS-2005>
-347.136016845703

> <r_mmod_Solvation_Energy-OPLS-2005>
-237.562225341797

> <b_mmod_Minimization_Converged-OPLS-2005>
0

> <r_mmod_RMS_Derivative-OPLS-2005>
0.215023368597031

$$$$
37
                    3D
 Structure written by MMmdl.
153162  0  0  1  0            999 V2000
  -30.5380  -14.9536   20.4138 C   0  0  0  0  0  0
  -30.4354  -12.5897   19.5044 C   0  0  0  0  0  0
  -29.5217  -12.5320   18.2587 C   0  0  0  0  0  0
  -28.0527  -12.3219   18.6714 C   0  0  0  0  0  0
  -27.6278  -13.2509   19.8392 C   0  0  2  0  0  0
  -28.6682  -13.2817   20.9790 C   0  0  0  0  0  0
  -25.2454  -13.8223   20.5718 C   0  0  0  0  0  0
  -24.1773  -13.0446   20.9233 C   0  0  0  0  0  0
  -24.6388  -11.6930   20.8752 C   0  0  0  0  0  0
  -23.9074  -10.4298   21.0403 C   0  0  0  0  0  0
  -24.3623   -9.4213   21.9182 C   0  0  0  0  0  0
  -23.6298   -8.2248   22.0751 C   0  0  0  0  0  0
  -22.4283   -8.0282   21.3542 C   0  0  0  0  0  0
  -21.9919   -9.0254   20.4643 C   0  0  0  0  0  0
  -22.7246  -10.2135   20.3051 C   0  0  0  0  0  0
  -21.6857   -6.0735   22.5277 C   0  0  0  0  0  0
  -21.4017   -6.5638   23.8210 C   0  0  0  0  0  0
  -21.3662   -5.6793   24.9173 C   0  0  0  0  0  0
  -21.6043   -4.3055   24.7224 C   0  0  0  0  0  0
  -21.8820   -3.8145   23.4346 C   0  0  0  0  0  0
  -21.9196   -4.6961   22.3401 C   0  0  0  0  0  0
  -22.7795  -13.5216   21.1882 C   0  0  0  0  0  0
  -22.1662   -4.2147   21.0981 F   0  0  0  0  0  0
  -21.5627   -3.4538   25.7734 F   0  0  0  0  0  0
  -29.9432  -13.6928   20.3809 N   0  0  0  0  0  0
  -26.2872  -12.9455   20.3244 N   0  0  0  0  0  0
  -25.9320  -11.6583   20.5732 N   0  0  0  0  0  0
  -22.0444  -12.8203   22.0433 N   0  0  0  0  0  0
  -25.4127  -15.1954   20.4146 N   0  0  0  0  0  0
  -31.7400  -15.0114   20.1324 O   0  0  0  0  0  0
  -21.6646   -6.8879   21.4238 O   0  0  0  0  0  0
  -22.3476  -14.5515   20.6723 O   0  0  0  0  0  0
  -24.6417  -31.8421   23.1852 C   0  0  0  0  0  0
  -25.9189  -32.4677   23.8251 C   0  0  1  0  0  0
  -27.2199  -27.1239   20.1662 C   0  0  0  0  0  0
  -25.5943  -33.8488   24.2172 N   0  0  0  0  0  0
  -23.4452  -30.4580   21.5308 C   0  0  2  0  0  0
  -24.8940  -28.8713   20.1164 C   0  0  0  0  0  0
  -22.7549  -29.4533   22.4861 C   0  0  0  0  0  0
  -18.0298  -28.1394   22.8476 C   0  0  0  0  0  0
  -24.1497  -36.7252   23.2642 C   0  0  0  0  0  0
  -25.9984  -30.7108   21.3852 C   0  0  0  0  0  0
  -26.0671  -29.3168   20.7369 C   0  0  0  0  0  0
  -27.2265  -28.4583   20.7442 C   0  0  0  0  0  0
  -26.0227  -26.7747   19.5055 C   0  0  0  0  0  0
  -24.8839  -27.6142   19.4874 C   0  0  0  0  0  0
  -23.6717  -29.7769   20.1540 C   0  0  0  0  0  0
  -25.4128  -36.3021   24.0314 C   0  0  1  0  0  0
  -20.5907  -28.3722   23.1238 C   0  0  2  0  0  0
  -20.6782  -26.9425   22.5409 C   0  0  0  0  0  0
  -19.5764  -26.6381   21.5211 C   0  0  0  0  0  0
  -18.1941  -26.7932   22.1618 C   0  0  0  0  0  0
  -19.1552  -28.8876   23.2849 C   0  0  0  0  0  0
  -18.9467  -30.1469   23.8881 C   0  0  0  0  0  0
  -17.6464  -30.6592   24.0558 C   0  0  0  0  0  0
  -25.9075  -34.9398   23.5055 C   0  0  0  0  0  0
  -16.5358  -29.9084   23.6337 C   0  0  0  0  0  0
  -16.7280  -28.6499   23.0362 C   0  0  0  0  0  0
  -26.4520  -31.6551   25.0697 C   0  0  0  0  0  0
  -25.3707  -31.3743   26.1393 C   0  0  0  0  0  0
  -27.0387  -30.2944   24.6289 C   0  0  0  0  0  0
  -27.6050  -32.4322   25.7486 C   0  0  0  0  0  0
  -27.5578  -37.1782   24.8461 C   0  0  0  0  0  0
  -21.4242  -29.3042   22.3604 N   0  0  0  0  0  0
  -26.4291  -37.3733   23.9400 N   0  0  0  0  0  0
  -24.7148  -31.0271   22.0888 N   0  0  0  0  0  0
  -23.4192  -28.8089   23.3018 O   0  0  0  0  0  0
  -28.3362  -26.2124   20.1798 O   0  0  0  0  0  0
  -26.5668  -34.8902   22.4641 O   0  0  0  0  0  0
  -23.5539  -32.1303   23.7075 O   0  0  0  0  0  0
  -29.3223  -22.8393   19.1405 C   0  0  0  0  0  0
  -28.9467  -21.8777   20.1354 C   0  0  0  0  0  0
  -28.1670  -22.5922   21.1173 C   0  0  0  0  0  0
  -28.3179  -24.7725   20.0963 C   0  0  0  0  0  0
  -29.4538  -20.3404   20.0098 C   0  0  0  0  0  0
  -29.3353  -19.0553   20.6085 C   0  0  0  0  0  0
  -26.6482  -20.7252   22.1390 C   0  0  0  0  0  0
  -26.1612  -22.0280   22.7134 C   0  0  0  0  0  0
  -27.6144  -21.8775   22.3129 C   0  0  0  0  0  0
  -30.1603  -17.6611   20.2532 C   0  0  0  0  0  0
  -29.0483  -24.1961   19.1284 N   0  0  0  0  0  0
  -27.8987  -23.9705   21.1039 N   0  0  0  0  0  0
  -29.7713  -16.1513   20.5423 N   0  0  0  0  0  0
  -31.4697  -12.7442   19.1949 H   0  0  0  0  0  0
  -30.4244  -11.6389   20.0394 H   0  0  0  0  0  0
  -29.8421  -11.7342   17.5875 H   0  0  0  0  0  0
  -29.6135  -13.4616   17.6949 H   0  0  0  0  0  0
  -27.9427  -11.2792   18.9710 H   0  0  0  0  0  0
  -27.3935  -12.4633   17.8137 H   0  0  0  0  0  0
  -27.5902  -14.2538   19.4130 H   0  0  0  0  0  0
  -28.7561  -12.3079   21.4630 H   0  0  0  0  0  0
  -28.3674  -13.9886   21.7537 H   0  0  0  0  0  0
  -25.2760   -9.5695   22.4767 H   0  0  0  0  0  0
  -24.0003   -7.4644   22.7479 H   0  0  0  0  0  0
  -21.0847   -8.8776   19.8954 H   0  0  0  0  0  0
  -22.3696  -10.9675   19.6167 H   0  0  0  0  0  0
  -21.2010   -7.6147   23.9713 H   0  0  0  0  0  0
  -21.1483   -6.0522   25.9075 H   0  0  0  0  0  0
  -22.0597   -2.7607   23.2847 H   0  0  0  0  0  0
  -22.4057  -11.9862   22.4819 H   0  0  0  0  0  0
  -21.1058  -13.1220   22.2630 H   0  0  0  0  0  0
  -24.6439  -15.8476   20.5269 H   0  0  0  0  0  0
  -26.2531  -15.6339   20.0613 H   0  0  0  0  0  0
  -26.7245  -32.5281   23.0972 H   0  0  0  0  0  0
  -25.0064  -33.9605   25.0300 H   0  0  0  0  0  0
  -22.7480  -31.2831   21.3718 H   0  0  0  0  0  0
  -23.3763  -35.9579   23.3284 H   0  0  0  0  0  0
  -24.3575  -36.8907   22.2059 H   0  0  0  0  0  0
  -23.7257  -37.6445   23.6696 H   0  0  0  0  0  0
  -26.1525  -31.4579   20.6059 H   0  0  0  0  0  0
  -26.8698  -30.7676   22.0257 H   0  0  0  0  0  0
  -28.1279  -28.8017   21.2321 H   0  0  0  0  0  0
  -25.9511  -25.8164   19.0113 H   0  0  0  0  0  0
  -23.9874  -27.2715   18.9893 H   0  0  0  0  0  0
  -23.8072  -30.5448   19.3916 H   0  0  0  0  0  0
  -22.7867  -29.2153   19.8494 H   0  0  0  0  0  0
  -25.1319  -36.1845   25.0807 H   0  0  0  0  0  0
  -21.0002  -28.3319   24.1357 H   0  0  0  0  0  0
  -20.5668  -26.2339   23.3628 H   0  0  0  0  0  0
  -21.6649  -26.7427   22.1213 H   0  0  0  0  0  0
  -19.6927  -25.6284   21.1259 H   0  0  0  0  0  0
  -19.6705  -27.3173   20.6726 H   0  0  0  0  0  0
  -17.4212  -26.6674   21.4018 H   0  0  0  0  0  0
  -18.0341  -26.0076   22.9016 H   0  0  0  0  0  0
  -19.7942  -30.7286   24.2251 H   0  0  0  0  0  0
  -17.5017  -31.6272   24.5157 H   0  0  0  0  0  0
  -15.5356  -30.2982   23.7671 H   0  0  0  0  0  0
  -15.8676  -28.0807   22.7103 H   0  0  0  0  0  0
  -24.5907  -30.7067   25.7712 H   0  0  0  0  0  0
  -24.8874  -32.2924   26.4744 H   0  0  0  0  0  0
  -25.7992  -30.8968   27.0215 H   0  0  0  0  0  0
  -26.3003  -29.6657   24.1303 H   0  0  0  0  0  0
  -27.3991  -29.7252   25.4868 H   0  0  0  0  0  0
  -27.8913  -30.4160   23.9605 H   0  0  0  0  0  0
  -27.2642  -33.3646   26.2001 H   0  0  0  0  0  0
  -28.3900  -32.6845   25.0345 H   0  0  0  0  0  0
  -28.0680  -31.8491   26.5457 H   0  0  0  0  0  0
  -28.2578  -38.0094   24.7508 H   0  0  0  0  0  0
  -28.1093  -36.2622   24.6286 H   0  0  0  0  0  0
  -27.2293  -37.1426   25.8863 H   0  0  0  0  0  0
  -20.9452  -29.8734   21.6763 H   0  0  0  0  0  0
  -26.0156  -38.2799   24.1400 H   0  0  0  0  0  0
  -29.9192  -22.5066   18.3044 H   0  0  0  0  0  0
  -30.1589  -20.2832   19.1913 H   0  0  0  0  0  0
  -28.6662  -18.9580   21.4507 H   0  0  0  0  0  0
  -26.3416  -20.4759   21.1252 H   0  0  0  0  0  0
  -26.7347  -19.8844   22.8240 H   0  0  0  0  0  0
  -25.9308  -22.0436   23.7764 H   0  0  0  0  0  0
  -25.5237  -22.6479   22.0859 H   0  0  0  0  0  0
  -28.3582  -21.7992   23.1033 H   0  0  0  0  0  0
  -31.1233  -17.7897   20.7490 H   0  0  0  0  0  0
  -30.3978  -17.7130   19.1898 H   0  0  0  0  0  0
  -28.7961  -15.9933   20.7495 H   0  0  0  0  0  0
  1 25  1  0  0  0
  1 30  2  0  0  0
  1 83  1  0  0  0
  2  3  1  0  0  0
  2 25  1  0  0  0
  2 84  1  0  0  0
  2 85  1  0  0  0
  3  4  1  0  0  0
  3 86  1  0  0  0
  3 87  1  0  0  0
  4  5  1  0  0  0
  4 88  1  0  0  0
  4 89  1  0  0  0
  5  6  1  0  0  0
  5 26  1  0  0  0
  5 90  1  0  0  0
  6 25  1  0  0  0
  6 91  1  0  0  0
  6 92  1  0  0  0
  7  8  2  0  0  0
  7 26  1  0  0  0
  7 29  1  0  0  0
  8  9  1  0  0  0
  8 22  1  0  0  0
  9 10  1  0  0  0
  9 27  2  0  0  0
 10 11  2  0  0  0
 10 15  1  0  0  0
 11 12  1  0  0  0
 11 93  1  0  0  0
 12 13  2  0  0  0
 12 94  1  0  0  0
 13 14  1  0  0  0
 13 31  1  0  0  0
 14 15  2  0  0  0
 14 95  1  0  0  0
 15 96  1  0  0  0
 16 17  2  0  0  0
 16 21  1  0  0  0
 16 31  1  0  0  0
 17 18  1  0  0  0
 17 97  1  0  0  0
 18 19  2  0  0  0
 18 98  1  0  0  0
 19 20  1  0  0  0
 19 24  1  0  0  0
 20 21  2  0  0  0
 20 99  1  0  0  0
 21 23  1  0  0  0
 22 28  1  0  0  0
 22 32  2  0  0  0
 26 27  1  0  0  0
 28100  1  0  0  0
 28101  1  0  0  0
 29102  1  0  0  0
 29103  1  0  0  0
 33 34  1  0  0  0
 33 66  1  0  0  0
 33 70  2  0  0  0
 34 36  1  0  0  0
 34 59  1  0  0  0
 34104  1  0  0  0
 35 44  2  0  0  0
 35 45  1  0  0  0
 35 68  1  0  0  0
 36 56  1  0  0  0
 36105  1  0  0  0
 37 39  1  0  0  0
 37 47  1  0  0  0
 37 66  1  0  0  0
 37106  1  0  0  0
 38 43  2  0  0  0
 38 46  1  0  0  0
 38 47  1  0  0  0
 39 64  1  0  0  0
 39 67  2  0  0  0
 40 52  1  0  0  0
 40 53  2  0  0  0
 40 58  1  0  0  0
 41107  1  0  0  0
 41108  1  0  0  0
 41109  1  0  0  0
 41 48  1  0  0  0
 42 43  1  0  0  0
 42 66  1  0  0  0
 42110  1  0  0  0
 42111  1  0  0  0
 43 44  1  0  0  0
 44112  1  0  0  0
 45 46  2  0  0  0
 45113  1  0  0  0
 46114  1  0  0  0
 47115  1  0  0  0
 47116  1  0  0  0
 48 56  1  0  0  0
 48 65  1  0  0  0
 48117  1  0  0  0
 49 50  1  0  0  0
 49 53  1  0  0  0
 49 64  1  0  0  0
 49118  1  0  0  0
 50 51  1  0  0  0
 50119  1  0  0  0
 50120  1  0  0  0
 51 52  1  0  0  0
 51121  1  0  0  0
 51122  1  0  0  0
 52123  1  0  0  0
 52124  1  0  0  0
 53 54  1  0  0  0
 54 55  2  0  0  0
 54125  1  0  0  0
 55 57  1  0  0  0
 55126  1  0  0  0
 56 69  2  0  0  0
 57 58  2  0  0  0
 57127  1  0  0  0
 58128  1  0  0  0
 59 60  1  0  0  0
 59 61  1  0  0  0
 59 62  1  0  0  0
 60129  1  0  0  0
 60130  1  0  0  0
 60131  1  0  0  0
 61132  1  0  0  0
 61133  1  0  0  0
 61134  1  0  0  0
 62135  1  0  0  0
 62136  1  0  0  0
 62137  1  0  0  0
 63 65  1  0  0  0
 63138  1  0  0  0
 63139  1  0  0  0
 63140  1  0  0  0
 64141  1  0  0  0
 65142  1  0  0  0
 68 74  1  0  0  0
 71 72  2  0  0  0
 71 81  1  0  0  0
 71143  1  0  0  0
 72 73  1  0  0  0
 72 75  1  0  0  0
 73 82  2  0  0  0
 73 79  1  0  0  0
 74 81  2  0  0  0
 74 82  1  0  0  0
 75 76  2  0  0  0
 75144  1  0  0  0
 76 80  1  0  0  0
 76145  1  0  0  0
 77 78  1  0  0  0
 77 79  1  0  0  0
 77146  1  0  0  0
 77147  1  0  0  0
 78 79  1  0  0  0
 78148  1  0  0  0
 78149  1  0  0  0
 79150  1  0  0  0
 80 83  1  0  0  0
 80151  1  0  0  0
 80152  1  0  0  0
 83153  1  0  0  0
M  ISO  4   1 100  68 101  74 101  83 100
M  END
> <chiral flag>
0

> <version>
0

> <s_m_source_file>
/data/baiqing/PycharmProjects/Reinvent-master-3.2/result/LINK_invent/BTK/process_docking_weight1_custom_sum_contain_oxygen_bond_distance_aromatic_linkinvent_7_9_3/rearranged_h_0192.sdf

> <i_m_source_file_index>
38

> <r_mmod_Potential_Energy-OPLS-2005>
138.828750610352

> <r_mmod_Stretch_Energy-OPLS-2005>
229.150207519531

> <r_mmod_Bend_Energy-OPLS-2005>
279.360137939453

> <r_mmod_Torsional_Energy-OPLS-2005>
249.580627441406

> <r_mmod_Improper_Torsional_Energy-OPLS-2005>
8.34626483917236

> <r_mmod_Van_der_Waal_Energy-OPLS-2005>
129.686096191406

> <r_mmod_Electrostatic_Energy-OPLS-2005>
-714.183715820312

> <r_mmod_Solvation_Energy-OPLS-2005>
-231.26237487793

> <b_mmod_Minimization_Converged-OPLS-2005>
0

> <r_mmod_RMS_Derivative-OPLS-2005>
0.789905309677124

$$$$
38
                    3D
 Structure written by MMmdl.
157166  0  0  1  0            999 V2000
  -30.5663  -14.9936   20.4236 C   0  0  0  0  0  0
  -30.4317  -12.6343   19.4966 C   0  0  0  0  0  0
  -29.5154  -12.5510   18.2560 C   0  0  0  0  0  0
  -28.0497  -12.3262   18.6692 C   0  0  0  0  0  0
  -27.6256  -13.2509   19.8406 C   0  0  2  0  0  0
  -28.6738  -13.2900   20.9715 C   0  0  0  0  0  0
  -25.2408  -13.8150   20.5725 C   0  0  0  0  0  0
  -24.1738  -13.0376   20.9209 C   0  0  0  0  0  0
  -24.6384  -11.6856   20.8735 C   0  0  0  0  0  0
  -23.9081  -10.4237   21.0400 C   0  0  0  0  0  0
  -24.3614   -9.4154   21.9182 C   0  0  0  0  0  0
  -23.6288   -8.2191   22.0757 C   0  0  0  0  0  0
  -22.4274   -8.0244   21.3535 C   0  0  0  0  0  0
  -21.9898   -9.0221   20.4633 C   0  0  0  0  0  0
  -22.7243  -10.2094   20.3066 C   0  0  0  0  0  0
  -21.6830   -6.0717   22.5284 C   0  0  0  0  0  0
  -21.3987   -6.5626   23.8214 C   0  0  0  0  0  0
  -21.3687   -5.6789   24.9175 C   0  0  0  0  0  0
  -21.6057   -4.3051   24.7214 C   0  0  0  0  0  0
  -21.8817   -3.8137   23.4332 C   0  0  0  0  0  0
  -21.9184   -4.6949   22.3394 C   0  0  0  0  0  0
  -22.7752  -13.5120   21.1851 C   0  0  0  0  0  0
  -22.1649   -4.2139   21.0969 F   0  0  0  0  0  0
  -21.5666   -3.4533   25.7722 F   0  0  0  0  0  0
  -29.9269  -13.7469   20.3547 N   0  0  0  0  0  0
  -26.2884  -12.9419   20.3296 N   0  0  0  0  0  0
  -25.9338  -11.6535   20.5787 N   0  0  0  0  0  0
  -22.0440  -12.8168   22.0480 N   0  0  0  0  0  0
  -25.3905  -15.1886   20.4090 N   0  0  0  0  0  0
  -31.7770  -14.9763   20.1754 O   0  0  0  0  0  0
  -21.6620   -6.8860   21.4250 O   0  0  0  0  0  0
  -22.3446  -14.5450   20.6708 O   0  0  0  0  0  0
  -24.6437  -31.8479   23.1972 C   0  0  0  0  0  0
  -25.9237  -32.4701   23.8353 C   0  0  1  0  0  0
  -27.2000  -27.0991   20.1596 C   0  0  0  0  0  0
  -25.6009  -33.8510   24.2244 N   0  0  0  0  0  0
  -23.4471  -30.4675   21.5424 C   0  0  2  0  0  0
  -24.8938  -28.8886   20.1201 C   0  0  0  0  0  0
  -22.7606  -29.4522   22.4899 C   0  0  0  0  0  0
  -18.0404  -28.1316   22.8539 C   0  0  0  0  0  0
  -24.1485  -36.7236   23.2649 C   0  0  0  0  0  0
  -26.0038  -30.7026   21.4094 C   0  0  0  0  0  0
  -26.0669  -29.3060   20.7624 C   0  0  0  0  0  0
  -27.2097  -28.4163   20.7880 C   0  0  0  0  0  0
  -26.0449  -26.8563   19.3930 C   0  0  0  0  0  0
  -24.8963  -27.6753   19.4204 C   0  0  0  0  0  0
  -23.6744  -29.7982   20.1606 C   0  0  0  0  0  0
  -25.4119  -36.3022   24.0327 C   0  0  1  0  0  0
  -20.5992  -28.3654   23.1313 C   0  0  2  0  0  0
  -20.6918  -26.9352   22.5569 C   0  0  0  0  0  0
  -19.5997  -26.6323   21.5277 C   0  0  0  0  0  0
  -18.2102  -26.7873   22.1637 C   0  0  0  0  0  0
  -19.1640  -28.8817   23.2879 C   0  0  0  0  0  0
  -18.9594  -30.1458   23.8807 C   0  0  0  0  0  0
  -17.6600  -30.6627   24.0414 C   0  0  0  0  0  0
  -25.9106  -34.9401   23.5083 C   0  0  0  0  0  0
  -16.5481  -29.9086   23.6278 C   0  0  0  0  0  0
  -16.7371  -28.6450   23.0392 C   0  0  0  0  0  0
  -26.4531  -31.6597   25.0815 C   0  0  0  0  0  0
  -25.3715  -31.3794   26.1518 C   0  0  0  0  0  0
  -27.0400  -30.2977   24.6457 C   0  0  0  0  0  0
  -27.6041  -32.4367   25.7603 C   0  0  0  0  0  0
  -27.5561  -37.1777   24.8459 C   0  0  0  0  0  0
  -21.4303  -29.3004   22.3667 N   0  0  0  0  0  0
  -26.4267  -37.3740   23.9412 N   0  0  0  0  0  0
  -24.7173  -31.0309   22.1032 N   0  0  0  0  0  0
  -23.4240  -28.8018   23.2989 O   0  0  0  0  0  0
  -28.2742  -26.1281   20.1760 O   0  0  0  0  0  0
  -26.5628  -34.8889   22.4622 O   0  0  0  0  0  0
  -23.5578  -32.1389   23.7223 O   0  0  0  0  0  0
  -27.8450  -22.1288   20.1095 C   0  0  0  0  0  0
  -27.3955  -23.5254   20.0846 C   0  0  0  0  0  0
  -29.2000  -21.7426   20.3290 C   0  0  0  0  0  0
  -28.3502  -24.6351   20.2188 C   0  0  0  0  0  0
  -28.4238  -18.2033   21.1254 C   0  0  0  0  0  0
  -28.5352  -16.6443   20.8998 C   0  0  0  0  0  0
  -30.4751  -17.6766   20.1288 C   0  0  0  0  0  0
  -29.3747  -18.8989   20.1346 C   0  0  2  0  0  0
  -25.8801  -23.6610   19.9122 C   0  0  0  0  0  0
  -30.0287  -22.8344   20.4817 N   0  0  0  0  0  0
  -29.6376  -24.1555   20.4178 N   0  0  0  0  0  0
  -29.8966  -16.2732   20.4523 N   0  0  0  0  0  0
  -29.7932  -20.3791   20.4344 N   0  0  0  0  0  0
  -25.1881  -24.1995   21.0932 N   0  3  0  0  0  0
  -31.4625  -12.7910   19.1763 H   0  0  0  0  0  0
  -30.4398  -11.6941   20.0504 H   0  0  0  0  0  0
  -29.8472  -11.7536   17.5923 H   0  0  0  0  0  0
  -29.5924  -13.4805   17.6888 H   0  0  0  0  0  0
  -27.9423  -11.2812   18.9617 H   0  0  0  0  0  0
  -27.3897  -12.4717   17.8117 H   0  0  0  0  0  0
  -27.5797  -14.2461   19.4014 H   0  0  0  0  0  0
  -28.7824  -12.3092   21.4410 H   0  0  0  0  0  0
  -28.3584  -13.9571   21.7704 H   0  0  0  0  0  0
  -25.2760   -9.5597   22.4737 H   0  0  0  0  0  0
  -23.9988   -7.4559   22.7455 H   0  0  0  0  0  0
  -21.0844   -8.8738   19.8902 H   0  0  0  0  0  0
  -22.3728  -10.9631   19.6167 H   0  0  0  0  0  0
  -21.1954   -7.6127   23.9709 H   0  0  0  0  0  0
  -21.1542   -6.0509   25.9087 H   0  0  0  0  0  0
  -22.0570   -2.7592   23.2830 H   0  0  0  0  0  0
  -22.4102  -11.9878   22.4908 H   0  0  0  0  0  0
  -21.1039  -13.1111   22.2675 H   0  0  0  0  0  0
  -24.5899  -15.8095   20.4714 H   0  0  0  0  0  0
  -26.2198  -15.6485   20.0601 H   0  0  0  0  0  0
  -26.7289  -32.5253   23.1083 H   0  0  0  0  0  0
  -25.0078  -33.9639   25.0340 H   0  0  0  0  0  0
  -22.7453  -31.2881   21.3919 H   0  0  0  0  0  0
  -23.3751  -35.9569   23.3293 H   0  0  0  0  0  0
  -24.3561  -36.8878   22.2060 H   0  0  0  0  0  0
  -23.7211  -37.6414   23.6694 H   0  0  0  0  0  0
  -26.1705  -31.4556   20.6378 H   0  0  0  0  0  0
  -26.8699  -30.7488   22.0545 H   0  0  0  0  0  0
  -28.0951  -28.7276   21.3251 H   0  0  0  0  0  0
  -26.0391  -26.0329   18.7055 H   0  0  0  0  0  0
  -24.0270  -27.3864   18.8465 H   0  0  0  0  0  0
  -23.8113  -30.5651   19.3983 H   0  0  0  0  0  0
  -22.7846  -29.2456   19.8567 H   0  0  0  0  0  0
  -25.1312  -36.1846   25.0818 H   0  0  0  0  0  0
  -21.0084  -28.3290   24.1442 H   0  0  0  0  0  0
  -20.5756  -26.2276   23.3804 H   0  0  0  0  0  0
  -21.6841  -26.7364   22.1514 H   0  0  0  0  0  0
  -19.7222  -25.6207   21.1375 H   0  0  0  0  0  0
  -19.7080  -27.3118   20.6843 H   0  0  0  0  0  0
  -17.4458  -26.6707   21.3930 H   0  0  0  0  0  0
  -18.0443  -25.9973   22.8962 H   0  0  0  0  0  0
  -19.8087  -30.7320   24.2107 H   0  0  0  0  0  0
  -17.5222  -31.6368   24.4868 H   0  0  0  0  0  0
  -15.5486  -30.3060   23.7611 H   0  0  0  0  0  0
  -15.8780  -28.0792   22.7089 H   0  0  0  0  0  0
  -24.5951  -30.7082   25.7816 H   0  0  0  0  0  0
  -24.8887  -32.3007   26.4824 H   0  0  0  0  0  0
  -25.8077  -30.9037   27.0336 H   0  0  0  0  0  0
  -26.3070  -29.6680   24.1424 H   0  0  0  0  0  0
  -27.3865  -29.7309   25.5096 H   0  0  0  0  0  0
  -27.9028  -30.4089   23.9892 H   0  0  0  0  0  0
  -27.2620  -33.3677   26.2124 H   0  0  0  0  0  0
  -28.3935  -32.6922   25.0526 H   0  0  0  0  0  0
  -28.0636  -31.8544   26.5597 H   0  0  0  0  0  0
  -28.2577  -38.0072   24.7517 H   0  0  0  0  0  0
  -28.1073  -36.2607   24.6308 H   0  0  0  0  0  0
  -27.2284  -37.1447   25.8861 H   0  0  0  0  0  0
  -20.9517  -29.9037   21.7126 H   0  0  0  0  0  0
  -26.0133  -38.2808   24.1413 H   0  0  0  0  0  0
  -27.1298  -21.3339   19.9750 H   0  0  0  0  0  0
  -28.7287  -18.4375   22.1466 H   0  0  0  0  0  0
  -27.3960  -18.5534   21.0242 H   0  0  0  0  0  0
  -27.8441  -16.3644   20.1070 H   0  0  0  0  0  0
  -28.2290  -16.1212   21.8070 H   0  0  0  0  0  0
  -31.2504  -17.8768   20.8722 H   0  0  0  0  0  0
  -30.9953  -17.6463   19.1673 H   0  0  0  0  0  0
  -28.8935  -18.9024   19.1515 H   0  0  0  0  0  0
  -25.4536  -22.6667   19.7734 H   0  0  0  0  0  0
  -25.6048  -24.1374   18.9773 H   0  0  0  0  0  0
  -30.7955  -20.4529   20.5957 H   0  0  0  0  0  0
  -25.3857  -23.6451   21.9073 H   0  0  0  0  0  0
  -24.1947  -24.1683   20.9349 H   0  0  0  0  0  0
  -25.4499  -25.1505   21.2676 H   0  0  0  0  0  0
  1 25  1  0  0  0
  1 30  2  0  0  0
  1 82  1  0  0  0
  2  3  1  0  0  0
  2 25  1  0  0  0
  2 85  1  0  0  0
  2 86  1  0  0  0
  3  4  1  0  0  0
  3 87  1  0  0  0
  3 88  1  0  0  0
  4  5  1  0  0  0
  4 89  1  0  0  0
  4 90  1  0  0  0
  5  6  1  0  0  0
  5 26  1  0  0  0
  5 91  1  0  0  0
  6 25  1  0  0  0
  6 92  1  0  0  0
  6 93  1  0  0  0
  7  8  2  0  0  0
  7 26  1  0  0  0
  7 29  1  0  0  0
  8  9  1  0  0  0
  8 22  1  0  0  0
  9 10  1  0  0  0
  9 27  2  0  0  0
 10 11  2  0  0  0
 10 15  1  0  0  0
 11 12  1  0  0  0
 11 94  1  0  0  0
 12 13  2  0  0  0
 12 95  1  0  0  0
 13 14  1  0  0  0
 13 31  1  0  0  0
 14 15  2  0  0  0
 14 96  1  0  0  0
 15 97  1  0  0  0
 16 17  2  0  0  0
 16 21  1  0  0  0
 16 31  1  0  0  0
 17 18  1  0  0  0
 17 98  1  0  0  0
 18 19  2  0  0  0
 18 99  1  0  0  0
 19 20  1  0  0  0
 19 24  1  0  0  0
 20 21  2  0  0  0
 20100  1  0  0  0
 21 23  1  0  0  0
 22 28  1  0  0  0
 22 32  2  0  0  0
 26 27  1  0  0  0
 28101  1  0  0  0
 28102  1  0  0  0
 29103  1  0  0  0
 29104  1  0  0  0
 33 34  1  0  0  0
 33 66  1  0  0  0
 33 70  2  0  0  0
 34 36  1  0  0  0
 34 59  1  0  0  0
 34105  1  0  0  0
 35 44  2  0  0  0
 35 45  1  0  0  0
 35 68  1  0  0  0
 36 56  1  0  0  0
 36106  1  0  0  0
 37 39  1  0  0  0
 37 47  1  0  0  0
 37 66  1  0  0  0
 37107  1  0  0  0
 38 43  2  0  0  0
 38 46  1  0  0  0
 38 47  1  0  0  0
 39 64  1  0  0  0
 39 67  2  0  0  0
 40 52  1  0  0  0
 40 53  2  0  0  0
 40 58  1  0  0  0
 41108  1  0  0  0
 41109  1  0  0  0
 41110  1  0  0  0
 41 48  1  0  0  0
 42 43  1  0  0  0
 42 66  1  0  0  0
 42111  1  0  0  0
 42112  1  0  0  0
 43 44  1  0  0  0
 44113  1  0  0  0
 45 46  2  0  0  0
 45114  1  0  0  0
 46115  1  0  0  0
 47116  1  0  0  0
 47117  1  0  0  0
 48 56  1  0  0  0
 48 65  1  0  0  0
 48118  1  0  0  0
 49 50  1  0  0  0
 49 53  1  0  0  0
 49 64  1  0  0  0
 49119  1  0  0  0
 50 51  1  0  0  0
 50120  1  0  0  0
 50121  1  0  0  0
 51 52  1  0  0  0
 51122  1  0  0  0
 51123  1  0  0  0
 52124  1  0  0  0
 52125  1  0  0  0
 53 54  1  0  0  0
 54 55  2  0  0  0
 54126  1  0  0  0
 55 57  1  0  0  0
 55127  1  0  0  0
 56 69  2  0  0  0
 57 58  2  0  0  0
 57128  1  0  0  0
 58129  1  0  0  0
 59 60  1  0  0  0
 59 61  1  0  0  0
 59 62  1  0  0  0
 60130  1  0  0  0
 60131  1  0  0  0
 60132  1  0  0  0
 61133  1  0  0  0
 61134  1  0  0  0
 61135  1  0  0  0
 62136  1  0  0  0
 62137  1  0  0  0
 62138  1  0  0  0
 63 65  1  0  0  0
 63139  1  0  0  0
 63140  1  0  0  0
 63141  1  0  0  0
 64142  1  0  0  0
 65143  1  0  0  0
 68 74  1  0  0  0
 71 72  2  0  0  0
 71 73  1  0  0  0
 71144  1  0  0  0
 72 74  1  0  0  0
 72 79  1  0  0  0
 73 80  2  0  0  0
 73 83  1  0  0  0
 74 81  2  0  0  0
 75 76  1  0  0  0
 75 78  1  0  0  0
 75145  1  0  0  0
 75146  1  0  0  0
 76 82  1  0  0  0
 76147  1  0  0  0
 76148  1  0  0  0
 77 78  1  0  0  0
 77 82  1  0  0  0
 77149  1  0  0  0
 77150  1  0  0  0
 78 83  1  0  0  0
 78151  1  0  0  0
 79 84  1  0  0  0
 79152  1  0  0  0
 79153  1  0  0  0
 80 81  1  0  0  0
 83154  1  0  0  0
 84155  1  0  0  0
 84156  1  0  0  0
 84157  1  0  0  0
M  CHG  1  84   1
M  ISO  4   1 100  68 101  74 101  82 100
M  END
> <chiral flag>
0

> <version>
0

> <s_m_source_file>
/data/baiqing/PycharmProjects/Reinvent-master-3.2/result/LINK_invent/BTK/process_docking_weight1_custom_sum_contain_oxygen_bond_distance_aromatic_linkinvent_7_9_3/rearranged_h_0192.sdf

> <i_m_source_file_index>
39

> <r_mmod_Potential_Energy-OPLS-2005>
373.054901123047

> <r_mmod_Stretch_Energy-OPLS-2005>
236.770492553711

> <r_mmod_Bend_Energy-OPLS-2005>
385.228149414062

> <r_mmod_Torsional_Energy-OPLS-2005>
288.120422363281

> <r_mmod_Improper_Torsional_Energy-OPLS-2005>
8.66672801971436

> <r_mmod_Van_der_Waal_Energy-OPLS-2005>
129.125076293945

> <r_mmod_Electrostatic_Energy-OPLS-2005>
-350.900756835938

> <r_mmod_Solvation_Energy-OPLS-2005>
-539.679016113281

> <b_mmod_Minimization_Converged-OPLS-2005>
0

> <r_mmod_RMS_Derivative-OPLS-2005>
6.37361907958984

$$$$
39
                    3D
 Structure written by MMmdl.
160168  0  0  1  0            999 V2000
  -30.6916  -14.7134   20.4333 C   0  0  0  0  0  0
  -30.4051  -12.4348   19.4835 C   0  0  0  0  0  0
  -29.5004  -12.4962   18.2364 C   0  0  0  0  0  0
  -28.0254  -12.3397   18.6466 C   0  0  0  0  0  0
  -27.6343  -13.2470   19.8453 C   0  0  2  0  0  0
  -28.6821  -13.2194   20.9804 C   0  0  0  0  0  0
  -25.2457  -13.8247   20.5720 C   0  0  0  0  0  0
  -24.1764  -13.0456   20.9224 C   0  0  0  0  0  0
  -24.6379  -11.6941   20.8740 C   0  0  0  0  0  0
  -23.9067  -10.4302   21.0392 C   0  0  0  0  0  0
  -24.3618   -9.4222   21.9169 C   0  0  0  0  0  0
  -23.6297   -8.2253   22.0743 C   0  0  0  0  0  0
  -22.4278   -8.0282   21.3541 C   0  0  0  0  0  0
  -21.9906   -9.0252   20.4639 C   0  0  0  0  0  0
  -22.7234  -10.2139   20.3048 C   0  0  0  0  0  0
  -21.6863   -6.0718   22.5265 C   0  0  0  0  0  0
  -21.4021   -6.5625   23.8194 C   0  0  0  0  0  0
  -21.3672   -5.6784   24.9161 C   0  0  0  0  0  0
  -21.6050   -4.3045   24.7221 C   0  0  0  0  0  0
  -21.8821   -3.8131   23.4343 C   0  0  0  0  0  0
  -21.9200   -4.6944   22.3395 C   0  0  0  0  0  0
  -22.7788  -13.5223   21.1878 C   0  0  0  0  0  0
  -22.1671   -4.2132   21.0972 F   0  0  0  0  0  0
  -21.5632   -3.4528   25.7736 F   0  0  0  0  0  0
  -29.9830  -13.5350   20.3821 N   0  0  0  0  0  0
  -26.2897  -12.9480   20.3297 N   0  0  0  0  0  0
  -25.9323  -11.6603   20.5763 N   0  0  0  0  0  0
  -22.0456  -12.8186   22.0435 N   0  0  0  0  0  0
  -25.4127  -15.1976   20.4141 N   0  0  0  0  0  0
  -31.8966  -14.6854   20.1772 O   0  0  0  0  0  0
  -21.6661   -6.8869   21.4228 O   0  0  0  0  0  0
  -22.3455  -14.5522   20.6722 O   0  0  0  0  0  0
  -24.6315  -31.8563   23.1987 C   0  0  0  0  0  0
  -25.9141  -32.4762   23.8330 C   0  0  1  0  0  0
  -27.2163  -27.2684   20.1245 C   0  0  0  0  0  0
  -25.5924  -33.8567   24.2251 N   0  0  0  0  0  0
  -23.4257  -30.4808   21.5439 C   0  0  2  0  0  0
  -24.8710  -28.9301   20.1105 C   0  0  0  0  0  0
  -22.7503  -29.4603   22.4928 C   0  0  0  0  0  0
  -18.0287  -28.1385   22.8483 C   0  0  0  0  0  0
  -24.1486  -36.7292   23.2641 C   0  0  0  0  0  0
  -25.9724  -30.7720   21.3763 C   0  0  0  0  0  0
  -26.0451  -29.3966   20.7164 C   0  0  0  0  0  0
  -27.2201  -28.5795   20.7105 C   0  0  0  0  0  0
  -26.0186  -26.8736   19.4835 C   0  0  0  0  0  0
  -24.8630  -27.6761   19.4845 C   0  0  0  0  0  0
  -23.6416  -29.8170   20.1600 C   0  0  0  0  0  0
  -25.4116  -36.3082   24.0325 C   0  0  1  0  0  0
  -20.5892  -28.3692   23.1282 C   0  0  2  0  0  0
  -20.6778  -26.9417   22.5412 C   0  0  0  0  0  0
  -19.5753  -26.6386   21.5215 C   0  0  0  0  0  0
  -18.1930  -26.7924   22.1625 C   0  0  0  0  0  0
  -19.1541  -28.8854   23.2870 C   0  0  0  0  0  0
  -18.9468  -30.1456   23.8889 C   0  0  0  0  0  0
  -17.6465  -30.6586   24.0563 C   0  0  0  0  0  0
  -25.9059  -34.9451   23.5098 C   0  0  0  0  0  0
  -16.5354  -29.9086   23.6339 C   0  0  0  0  0  0
  -16.7271  -28.6506   23.0354 C   0  0  0  0  0  0
  -26.4496  -31.6585   25.0727 C   0  0  0  0  0  0
  -25.3709  -31.3740   26.1445 C   0  0  0  0  0  0
  -27.0341  -30.3000   24.6209 C   0  0  0  0  0  0
  -27.6042  -32.4337   25.7498 C   0  0  0  0  0  0
  -27.5579  -37.1801   24.8469 C   0  0  0  0  0  0
  -21.4209  -29.3039   22.3675 N   0  0  0  0  0  0
  -26.4294  -37.3780   23.9407 N   0  0  0  0  0  0
  -24.6963  -31.0533   22.0958 N   0  0  0  0  0  0
  -23.4204  -28.8143   23.3028 O   0  0  0  0  0  0
  -28.3091  -26.3716   20.1978 O   0  0  0  0  0  0
  -26.5637  -34.8926   22.4672 O   0  0  0  0  0  0
  -23.5470  -32.1384   23.7287 O   0  0  0  0  0  0
  -30.5995  -18.7786   20.2235 C   0  0  0  0  0  0
  -29.5462  -19.6324   20.5203 C   0  0  0  0  0  0
  -32.0052  -19.3748   19.9743 C   0  0  0  0  0  0
  -30.8986  -17.1025   18.3254 C   0  0  0  0  0  0
  -31.6466  -18.3221   17.7300 C   0  0  0  0  0  0
  -30.7066  -17.2145   19.8618 C   0  0  2  0  0  0
  -29.6014  -21.1931   20.9103 C   0  0  0  0  0  0
  -29.0919  -23.7625   20.5145 C   0  0  0  0  0  0
  -28.0650  -24.8992   19.9960 C   0  0  0  0  0  0
  -30.0517  -15.9541   20.4539 N   0  0  0  0  0  0
  -32.6109  -18.8971   18.6989 N   0  3  0  0  0  0
  -28.8175  -22.2803   20.1593 N   0  3  0  0  0  0
  -31.4533  -12.5042   19.1891 H   0  0  0  0  0  0
  -30.3041  -11.4719   19.9883 H   0  0  0  0  0  0
  -29.7752  -11.7128   17.5297 H   0  0  0  0  0  0
  -29.6443  -13.4466   17.7185 H   0  0  0  0  0  0
  -27.8693  -11.2928   18.9074 H   0  0  0  0  0  0
  -27.3731  -12.5423   17.7962 H   0  0  0  0  0  0
  -27.6182  -14.2636   19.4516 H   0  0  0  0  0  0
  -28.7079  -12.2412   21.4622 H   0  0  0  0  0  0
  -28.4304  -13.9412   21.7583 H   0  0  0  0  0  0
  -25.2767   -9.5700   22.4730 H   0  0  0  0  0  0
  -24.0016   -7.4645   22.7454 H   0  0  0  0  0  0
  -21.0841   -8.8755   19.8940 H   0  0  0  0  0  0
  -22.3681  -10.9663   19.6146 H   0  0  0  0  0  0
  -21.2016   -7.6134   23.9687 H   0  0  0  0  0  0
  -21.1498   -6.0518   25.9064 H   0  0  0  0  0  0
  -22.0594   -2.7591   23.2844 H   0  0  0  0  0  0
  -22.4112  -11.9877   22.4831 H   0  0  0  0  0  0
  -21.1051  -13.1143   22.2626 H   0  0  0  0  0  0
  -24.6454  -15.8518   20.5279 H   0  0  0  0  0  0
  -26.2613  -15.6393   20.0837 H   0  0  0  0  0  0
  -26.7206  -32.5401   23.1064 H   0  0  0  0  0  0
  -25.0063  -33.9698   25.0391 H   0  0  0  0  0  0
  -22.7214  -31.3047   21.4019 H   0  0  0  0  0  0
  -23.3753  -35.9621   23.3314 H   0  0  0  0  0  0
  -24.3579  -36.8913   22.2056 H   0  0  0  0  0  0
  -23.7239  -37.6497   23.6660 H   0  0  0  0  0  0
  -26.1116  -31.5302   20.6044 H   0  0  0  0  0  0
  -26.8506  -30.8190   22.0082 H   0  0  0  0  0  0
  -28.1172  -28.9316   21.1991 H   0  0  0  0  0  0
  -25.9373  -25.9181   18.9884 H   0  0  0  0  0  0
  -23.9627  -27.3144   19.0069 H   0  0  0  0  0  0
  -23.7609  -30.5963   19.4065 H   0  0  0  0  0  0
  -22.7594  -29.2506   19.8566 H   0  0  0  0  0  0
  -25.1290  -36.1938   25.0816 H   0  0  0  0  0  0
  -20.9972  -28.3269   24.1408 H   0  0  0  0  0  0
  -20.5706  -26.2291   23.3610 H   0  0  0  0  0  0
  -21.6642  -26.7452   22.1191 H   0  0  0  0  0  0
  -19.6926  -25.6301   21.1244 H   0  0  0  0  0  0
  -19.6703  -27.3200   20.6752 H   0  0  0  0  0  0
  -17.4206  -26.6682   21.4025 H   0  0  0  0  0  0
  -18.0327  -26.0058   22.9016 H   0  0  0  0  0  0
  -19.7944  -30.7276   24.2258 H   0  0  0  0  0  0
  -17.5022  -31.6274   24.5161 H   0  0  0  0  0  0
  -15.5356  -30.2983   23.7678 H   0  0  0  0  0  0
  -15.8666  -28.0827   22.7067 H   0  0  0  0  0  0
  -24.5887  -30.7083   25.7777 H   0  0  0  0  0  0
  -24.8889  -32.2910   26.4843 H   0  0  0  0  0  0
  -25.8017  -30.8941   27.0240 H   0  0  0  0  0  0
  -26.2926  -29.6751   24.1212 H   0  0  0  0  0  0
  -27.4013  -29.7256   25.4723 H   0  0  0  0  0  0
  -27.8805  -30.4283   23.9460 H   0  0  0  0  0  0
  -27.2638  -33.3648   26.2039 H   0  0  0  0  0  0
  -28.3852  -32.6887   25.0324 H   0  0  0  0  0  0
  -28.0695  -31.8489   26.5437 H   0  0  0  0  0  0
  -28.2597  -38.0094   24.7502 H   0  0  0  0  0  0
  -28.1073  -36.2624   24.6308 H   0  0  0  0  0  0
  -27.2298  -37.1464   25.8875 H   0  0  0  0  0  0
  -20.9402  -29.8758   21.6869 H   0  0  0  0  0  0
  -26.0183  -38.2866   24.1388 H   0  0  0  0  0  0
  -28.5632  -19.1903   20.5880 H   0  0  0  0  0  0
  -32.6692  -19.1279   20.8035 H   0  0  0  0  0  0
  -31.9994  -20.4573   19.9012 H   0  0  0  0  0  0
  -31.4585  -16.2002   18.0779 H   0  0  0  0  0  0
  -29.9333  -17.0009   17.8275 H   0  0  0  0  0  0
  -30.9328  -19.1001   17.4551 H   0  0  0  0  0  0
  -32.1623  -18.0422   16.8100 H   0  0  0  0  0  0
  -31.6982  -17.0515   20.2869 H   0  0  0  0  0  0
  -30.6279  -21.5447   20.9675 H   0  0  0  0  0  0
  -29.2610  -21.2402   21.9457 H   0  0  0  0  0  0
  -30.0879  -24.0087   20.1446 H   0  0  0  0  0  0
  -29.1535  -23.8422   21.6002 H   0  0  0  0  0  0
  -27.1107  -24.6574   20.4659 H   0  0  0  0  0  0
  -27.9236  -24.7517   18.9250 H   0  0  0  0  0  0
  -29.0574  -15.9676   20.6294 H   0  0  0  0  0  0
  -33.3047  -18.1967   18.9088 H   0  0  0  0  0  0
  -33.1026  -19.6634   18.2661 H   0  0  0  0  0  0
  -27.8384  -22.0955   20.3107 H   0  0  0  0  0  0
  -28.9805  -22.1662   19.1713 H   0  0  0  0  0  0
  1 25  1  0  0  0
  1 30  2  0  0  0
  1 80  1  0  0  0
  2  3  1  0  0  0
  2 25  1  0  0  0
  2 83  1  0  0  0
  2 84  1  0  0  0
  3  4  1  0  0  0
  3 85  1  0  0  0
  3 86  1  0  0  0
  4  5  1  0  0  0
  4 87  1  0  0  0
  4 88  1  0  0  0
  5  6  1  0  0  0
  5 26  1  0  0  0
  5 89  1  0  0  0
  6 25  1  0  0  0
  6 90  1  0  0  0
  6 91  1  0  0  0
  7  8  2  0  0  0
  7 26  1  0  0  0
  7 29  1  0  0  0
  8  9  1  0  0  0
  8 22  1  0  0  0
  9 10  1  0  0  0
  9 27  2  0  0  0
 10 11  2  0  0  0
 10 15  1  0  0  0
 11 12  1  0  0  0
 11 92  1  0  0  0
 12 13  2  0  0  0
 12 93  1  0  0  0
 13 14  1  0  0  0
 13 31  1  0  0  0
 14 15  2  0  0  0
 14 94  1  0  0  0
 15 95  1  0  0  0
 16 17  2  0  0  0
 16 21  1  0  0  0
 16 31  1  0  0  0
 17 18  1  0  0  0
 17 96  1  0  0  0
 18 19  2  0  0  0
 18 97  1  0  0  0
 19 20  1  0  0  0
 19 24  1  0  0  0
 20 21  2  0  0  0
 20 98  1  0  0  0
 21 23  1  0  0  0
 22 28  1  0  0  0
 22 32  2  0  0  0
 26 27  1  0  0  0
 28 99  1  0  0  0
 28100  1  0  0  0
 29101  1  0  0  0
 29102  1  0  0  0
 33 34  1  0  0  0
 33 66  1  0  0  0
 33 70  2  0  0  0
 34 36  1  0  0  0
 34 59  1  0  0  0
 34103  1  0  0  0
 35 44  2  0  0  0
 35 45  1  0  0  0
 35 68  1  0  0  0
 36 56  1  0  0  0
 36104  1  0  0  0
 37 39  1  0  0  0
 37 47  1  0  0  0
 37 66  1  0  0  0
 37105  1  0  0  0
 38 43  2  0  0  0
 38 46  1  0  0  0
 38 47  1  0  0  0
 39 64  1  0  0  0
 39 67  2  0  0  0
 40 52  1  0  0  0
 40 53  2  0  0  0
 40 58  1  0  0  0
 41106  1  0  0  0
 41107  1  0  0  0
 41108  1  0  0  0
 41 48  1  0  0  0
 42 43  1  0  0  0
 42 66  1  0  0  0
 42109  1  0  0  0
 42110  1  0  0  0
 43 44  1  0  0  0
 44111  1  0  0  0
 45 46  2  0  0  0
 45112  1  0  0  0
 46113  1  0  0  0
 47114  1  0  0  0
 47115  1  0  0  0
 48 56  1  0  0  0
 48 65  1  0  0  0
 48116  1  0  0  0
 49 50  1  0  0  0
 49 53  1  0  0  0
 49 64  1  0  0  0
 49117  1  0  0  0
 50 51  1  0  0  0
 50118  1  0  0  0
 50119  1  0  0  0
 51 52  1  0  0  0
 51120  1  0  0  0
 51121  1  0  0  0
 52122  1  0  0  0
 52123  1  0  0  0
 53 54  1  0  0  0
 54 55  2  0  0  0
 54124  1  0  0  0
 55 57  1  0  0  0
 55125  1  0  0  0
 56 69  2  0  0  0
 57 58  2  0  0  0
 57126  1  0  0  0
 58127  1  0  0  0
 59 60  1  0  0  0
 59 61  1  0  0  0
 59 62  1  0  0  0
 60128  1  0  0  0
 60129  1  0  0  0
 60130  1  0  0  0
 61131  1  0  0  0
 61132  1  0  0  0
 61133  1  0  0  0
 62134  1  0  0  0
 62135  1  0  0  0
 62136  1  0  0  0
 63 65  1  0  0  0
 63137  1  0  0  0
 63138  1  0  0  0
 63139  1  0  0  0
 64140  1  0  0  0
 65141  1  0  0  0
 68 79  1  0  0  0
 71 72  2  0  0  0
 71 73  1  0  0  0
 71 76  1  0  0  0
 72 77  1  0  0  0
 72142  1  0  0  0
 73 81  1  0  0  0
 73143  1  0  0  0
 73144  1  0  0  0
 74 75  1  0  0  0
 74 76  1  0  0  0
 74145  1  0  0  0
 74146  1  0  0  0
 75 81  1  0  0  0
 75147  1  0  0  0
 75148  1  0  0  0
 76 80  1  0  0  0
 76149  1  0  0  0
 77 82  1  0  0  0
 77150  1  0  0  0
 77151  1  0  0  0
 78 79  1  0  0  0
 78 82  1  0  0  0
 78152  1  0  0  0
 78153  1  0  0  0
 79154  1  0  0  0
 79155  1  0  0  0
 80156  1  0  0  0
 81157  1  0  0  0
 81158  1  0  0  0
 82159  1  0  0  0
 82160  1  0  0  0
M  CHG  2  81   1  82   1
M  ISO  4   1 100  68 101  79 101  80 100
M  END
> <chiral flag>
0

> <version>
0

> <s_m_source_file>
/data/baiqing/PycharmProjects/Reinvent-master-3.2/result/LINK_invent/BTK/process_docking_weight1_custom_sum_contain_oxygen_bond_distance_aromatic_linkinvent_7_9_3/rearranged_h_0192.sdf

> <i_m_source_file_index>
40

> <r_mmod_Potential_Energy-OPLS-2005>
-44.2480888366699

> <r_mmod_Stretch_Energy-OPLS-2005>
133.6171875

> <r_mmod_Bend_Energy-OPLS-2005>
243.278717041016

> <r_mmod_Torsional_Energy-OPLS-2005>
238.649032592773

> <r_mmod_Improper_Torsional_Energy-OPLS-2005>
8.49257659912109

> <r_mmod_Van_der_Waal_Energy-OPLS-2005>
153.809478759766

> <r_mmod_Electrostatic_Energy-OPLS-2005>
65.505859375

> <r_mmod_Solvation_Energy-OPLS-2005>
-971.878723144531

> <b_mmod_Minimization_Converged-OPLS-2005>
0

> <r_mmod_RMS_Derivative-OPLS-2005>
1.90424561500549

$$$$
40
                    3D
 Structure written by MMmdl.
161170  0  0  1  0            999 V2000
  -30.6587  -14.6880   20.4726 C   0  0  0  0  0  0
  -30.4227  -12.4211   19.4673 C   0  0  0  0  0  0
  -29.5040  -12.5016   18.2298 C   0  0  0  0  0  0
  -28.0288  -12.3385   18.6430 C   0  0  0  0  0  0
  -27.6432  -13.2313   19.8535 C   0  0  2  0  0  0
  -28.6892  -13.1489   20.9862 C   0  0  0  0  0  0
  -25.2511  -13.8197   20.5699 C   0  0  0  0  0  0
  -24.1800  -13.0443   20.9204 C   0  0  0  0  0  0
  -24.6389  -11.6921   20.8741 C   0  0  0  0  0  0
  -23.9065  -10.4295   21.0399 C   0  0  0  0  0  0
  -24.3616   -9.4213   21.9179 C   0  0  0  0  0  0
  -23.6297   -8.2245   22.0750 C   0  0  0  0  0  0
  -22.4278   -8.0279   21.3543 C   0  0  0  0  0  0
  -21.9913   -9.0250   20.4643 C   0  0  0  0  0  0
  -22.7236  -10.2132   20.3051 C   0  0  0  0  0  0
  -21.6854   -6.0732   22.5279 C   0  0  0  0  0  0
  -21.4013   -6.5637   23.8214 C   0  0  0  0  0  0
  -21.3662   -5.6790   24.9177 C   0  0  0  0  0  0
  -21.6046   -4.3052   24.7225 C   0  0  0  0  0  0
  -21.8818   -3.8143   23.4345 C   0  0  0  0  0  0
  -21.9193   -4.6959   22.3400 C   0  0  0  0  0  0
  -22.7823  -13.5227   21.1864 C   0  0  0  0  0  0
  -22.1663   -4.2144   21.0979 F   0  0  0  0  0  0
  -21.5633   -3.4537   25.7739 F   0  0  0  0  0  0
  -29.9920  -13.4865   20.4008 N   0  0  0  0  0  0
  -26.2943  -12.9408   20.3302 N   0  0  0  0  0  0
  -25.9320  -11.6547   20.5755 N   0  0  0  0  0  0
  -22.0467  -12.8215   22.0420 N   0  0  0  0  0  0
  -25.4202  -15.1919   20.4110 N   0  0  0  0  0  0
  -31.8494  -14.7368   20.1473 O   0  0  0  0  0  0
  -21.6642   -6.8877   21.4242 O   0  0  0  0  0  0
  -22.3508  -14.5535   20.6717 O   0  0  0  0  0  0
  -24.6306  -31.8581   23.2030 C   0  0  0  0  0  0
  -25.9142  -32.4767   23.8356 C   0  0  1  0  0  0
  -27.2106  -27.2781   20.1134 C   0  0  0  0  0  0
  -25.5945  -33.8569   24.2272 N   0  0  0  0  0  0
  -23.4251  -30.4861   21.5466 C   0  0  2  0  0  0
  -24.8705  -28.9474   20.1064 C   0  0  0  0  0  0
  -22.7498  -29.4621   22.4913 C   0  0  0  0  0  0
  -18.0293  -28.1382   22.8486 C   0  0  0  0  0  0
  -24.1493  -36.7288   23.2636 C   0  0  0  0  0  0
  -25.9733  -30.7751   21.3844 C   0  0  0  0  0  0
  -26.0441  -29.4025   20.7213 C   0  0  0  0  0  0
  -27.2164  -28.5788   20.7202 C   0  0  0  0  0  0
  -26.0148  -26.9106   19.4455 C   0  0  0  0  0  0
  -24.8607  -27.7082   19.4587 C   0  0  0  0  0  0
  -23.6415  -29.8307   20.1596 C   0  0  0  0  0  0
  -25.4117  -36.3073   24.0324 C   0  0  1  0  0  0
  -20.5898  -28.3694   23.1266 C   0  0  2  0  0  0
  -20.6779  -26.9412   22.5404 C   0  0  0  0  0  0
  -19.5753  -26.6381   21.5208 C   0  0  0  0  0  0
  -18.1935  -26.7925   22.1624 C   0  0  0  0  0  0
  -19.1546  -28.8854   23.2872 C   0  0  0  0  0  0
  -18.9470  -30.1454   23.8890 C   0  0  0  0  0  0
  -17.6469  -30.6586   24.0560 C   0  0  0  0  0  0
  -25.9061  -34.9444   23.5096 C   0  0  0  0  0  0
  -16.5360  -29.9083   23.6330 C   0  0  0  0  0  0
  -16.7279  -28.6498   23.0355 C   0  0  0  0  0  0
  -26.4512  -31.6583   25.0737 C   0  0  0  0  0  0
  -25.3733  -31.3737   26.1455 C   0  0  0  0  0  0
  -27.0362  -30.2998   24.6225 C   0  0  0  0  0  0
  -27.6062  -32.4323   25.7515 C   0  0  0  0  0  0
  -27.5581  -37.1794   24.8458 C   0  0  0  0  0  0
  -21.4206  -29.3048   22.3656 N   0  0  0  0  0  0
  -26.4286  -37.3776   23.9412 N   0  0  0  0  0  0
  -24.6953  -31.0565   22.1008 N   0  0  0  0  0  0
  -23.4210  -28.8146   23.2990 O   0  0  0  0  0  0
  -28.2805  -26.3525   20.1998 O   0  0  0  0  0  0
  -26.5627  -34.8915   22.4661 O   0  0  0  0  0  0
  -23.5459  -32.1398   23.7334 O   0  0  0  0  0  0
  -28.8797  -23.7776   20.3656 C   0  0  0  0  0  0
  -29.6244  -21.7961   20.7616 C   0  0  0  0  0  0
  -29.4752  -18.0220   21.7985 C   0  0  0  0  0  0
  -30.3654  -18.2912   19.5441 C   0  0  0  0  0  0
  -29.1538  -16.4980   21.5138 C   0  0  0  0  0  0
  -30.0070  -16.7892   19.2438 C   0  0  0  0  0  0
  -29.4502  -19.0006   20.5778 C   0  0  0  0  0  0
  -31.3310  -22.4567   23.6293 C   0  0  0  0  0  0
  -27.9411  -24.9264   19.8786 C   0  0  0  0  0  0
  -31.6481  -22.5310   22.1293 C   0  0  0  0  0  0
  -28.6177  -22.4211   20.1239 N   0  0  0  0  0  0
  -29.9793  -23.9751   21.0934 N   0  0  0  0  0  0
  -30.4432  -22.7072   21.3317 N   0  0  0  0  0  0
  -29.9164  -15.8633   20.4089 N   0  0  0  0  0  0
  -29.9041  -20.3938   20.9216 N   0  0  0  0  0  0
  -31.4661  -12.5215   19.1644 H   0  0  0  0  0  0
  -30.3456  -11.4422   19.9435 H   0  0  0  0  0  0
  -29.7779  -11.7340   17.5046 H   0  0  0  0  0  0
  -29.6413  -13.4610   17.7278 H   0  0  0  0  0  0
  -27.8751  -11.2890   18.8967 H   0  0  0  0  0  0
  -27.3731  -12.5441   17.7959 H   0  0  0  0  0  0
  -27.6435  -14.2574   19.4851 H   0  0  0  0  0  0
  -28.7136  -12.1485   21.4205 H   0  0  0  0  0  0
  -28.4310  -13.8271   21.7991 H   0  0  0  0  0  0
  -25.2758   -9.5698   22.4757 H   0  0  0  0  0  0
  -24.0009   -7.4635   22.7466 H   0  0  0  0  0  0
  -21.0846   -8.8764   19.8948 H   0  0  0  0  0  0
  -22.3688  -10.9669   19.6162 H   0  0  0  0  0  0
  -21.2005   -7.6144   23.9717 H   0  0  0  0  0  0
  -21.1491   -6.0518   25.9081 H   0  0  0  0  0  0
  -22.0596   -2.7604   23.2843 H   0  0  0  0  0  0
  -22.4085  -11.9881   22.4814 H   0  0  0  0  0  0
  -21.1083  -13.1238   22.2613 H   0  0  0  0  0  0
  -24.6540  -15.8468   20.5217 H   0  0  0  0  0  0
  -26.2738  -15.6304   20.0900 H   0  0  0  0  0  0
  -26.7207  -32.5421   23.1097 H   0  0  0  0  0  0
  -25.0075  -33.9707   25.0404 H   0  0  0  0  0  0
  -22.7206  -31.3086   21.4066 H   0  0  0  0  0  0
  -23.3756  -35.9618   23.3285 H   0  0  0  0  0  0
  -24.3590  -36.8925   22.2054 H   0  0  0  0  0  0
  -23.7243  -37.6484   23.6671 H   0  0  0  0  0  0
  -26.1143  -31.5396   20.6191 H   0  0  0  0  0  0
  -26.8503  -30.8180   22.0184 H   0  0  0  0  0  0
  -28.1090  -28.9176   21.2274 H   0  0  0  0  0  0
  -25.9167  -25.9793   18.9097 H   0  0  0  0  0  0
  -23.9659  -27.3594   18.9609 H   0  0  0  0  0  0
  -23.7636  -30.6116   19.4081 H   0  0  0  0  0  0
  -22.7599  -29.2647   19.8528 H   0  0  0  0  0  0
  -25.1296  -36.1915   25.0816 H   0  0  0  0  0  0
  -20.9994  -28.3268   24.1385 H   0  0  0  0  0  0
  -20.5676  -26.2303   23.3606 H   0  0  0  0  0  0
  -21.6646  -26.7432   22.1199 H   0  0  0  0  0  0
  -19.6915  -25.6292   21.1238 H   0  0  0  0  0  0
  -19.6689  -27.3189   20.6737 H   0  0  0  0  0  0
  -17.4203  -26.6668   21.4029 H   0  0  0  0  0  0
  -18.0342  -26.0067   22.9022 H   0  0  0  0  0  0
  -19.7949  -30.7269   24.2256 H   0  0  0  0  0  0
  -17.5029  -31.6267   24.5158 H   0  0  0  0  0  0
  -15.5361  -30.2984   23.7660 H   0  0  0  0  0  0
  -15.8678  -28.0816   22.7073 H   0  0  0  0  0  0
  -24.5908  -30.7085   25.7783 H   0  0  0  0  0  0
  -24.8928  -32.2912   26.4863 H   0  0  0  0  0  0
  -25.8049  -30.8924   27.0240 H   0  0  0  0  0  0
  -26.2952  -29.6739   24.1238 H   0  0  0  0  0  0
  -27.4029  -29.7263   25.4749 H   0  0  0  0  0  0
  -27.8838  -30.4265   23.9486 H   0  0  0  0  0  0
  -27.2665  -33.3625   26.2081 H   0  0  0  0  0  0
  -28.3888  -32.6876   25.0358 H   0  0  0  0  0  0
  -28.0714  -31.8453   26.5445 H   0  0  0  0  0  0
  -28.2576  -38.0114   24.7534 H   0  0  0  0  0  0
  -28.1099  -36.2645   24.6246 H   0  0  0  0  0  0
  -27.2304  -37.1395   25.8861 H   0  0  0  0  0  0
  -20.9380  -29.8782   21.6878 H   0  0  0  0  0  0
  -26.0160  -38.2842   24.1433 H   0  0  0  0  0  0
  -30.4623  -18.0671   22.2615 H   0  0  0  0  0  0
  -28.7826  -18.3857   22.5594 H   0  0  0  0  0  0
  -30.3444  -18.8510   18.6077 H   0  0  0  0  0  0
  -31.4002  -18.3319   19.8873 H   0  0  0  0  0  0
  -28.0939  -16.3986   21.2777 H   0  0  0  0  0  0
  -29.3097  -15.9311   22.4328 H   0  0  0  0  0  0
  -30.7181  -16.4034   18.5112 H   0  0  0  0  0  0
  -29.0402  -16.7577   18.7402 H   0  0  0  0  0  0
  -28.4352  -19.0593   20.1821 H   0  0  0  0  0  0
  -32.2428  -22.3407   24.2150 H   0  0  0  0  0  0
  -30.6821  -21.6098   23.8544 H   0  0  0  0  0  0
  -30.8294  -23.3626   23.9713 H   0  0  0  0  0  0
  -26.9699  -24.6835   20.3113 H   0  0  0  0  0  0
  -27.8453  -24.8307   18.7962 H   0  0  0  0  0  0
  -32.1668  -21.6298   21.8018 H   0  0  0  0  0  0
  -32.3265  -23.3614   21.9299 H   0  0  0  0  0  0
  -30.7318  -20.3221   21.5023 H   0  0  0  0  0  0
  1 25  1  0  0  0
  1 30  2  0  0  0
  1 84  1  0  0  0
  2  3  1  0  0  0
  2 25  1  0  0  0
  2 86  1  0  0  0
  2 87  1  0  0  0
  3  4  1  0  0  0
  3 88  1  0  0  0
  3 89  1  0  0  0
  4  5  1  0  0  0
  4 90  1  0  0  0
  4 91  1  0  0  0
  5  6  1  0  0  0
  5 26  1  0  0  0
  5 92  1  0  0  0
  6 25  1  0  0  0
  6 93  1  0  0  0
  6 94  1  0  0  0
  7  8  2  0  0  0
  7 26  1  0  0  0
  7 29  1  0  0  0
  8  9  1  0  0  0
  8 22  1  0  0  0
  9 10  1  0  0  0
  9 27  2  0  0  0
 10 11  2  0  0  0
 10 15  1  0  0  0
 11 12  1  0  0  0
 11 95  1  0  0  0
 12 13  2  0  0  0
 12 96  1  0  0  0
 13 14  1  0  0  0
 13 31  1  0  0  0
 14 15  2  0  0  0
 14 97  1  0  0  0
 15 98  1  0  0  0
 16 17  2  0  0  0
 16 21  1  0  0  0
 16 31  1  0  0  0
 17 18  1  0  0  0
 17 99  1  0  0  0
 18 19  2  0  0  0
 18100  1  0  0  0
 19 20  1  0  0  0
 19 24  1  0  0  0
 20 21  2  0  0  0
 20101  1  0  0  0
 21 23  1  0  0  0
 22 28  1  0  0  0
 22 32  2  0  0  0
 26 27  1  0  0  0
 28102  1  0  0  0
 28103  1  0  0  0
 29104  1  0  0  0
 29105  1  0  0  0
 33 34  1  0  0  0
 33 66  1  0  0  0
 33 70  2  0  0  0
 34 36  1  0  0  0
 34 59  1  0  0  0
 34106  1  0  0  0
 35 44  2  0  0  0
 35 45  1  0  0  0
 35 68  1  0  0  0
 36 56  1  0  0  0
 36107  1  0  0  0
 37 39  1  0  0  0
 37 47  1  0  0  0
 37 66  1  0  0  0
 37108  1  0  0  0
 38 43  2  0  0  0
 38 46  1  0  0  0
 38 47  1  0  0  0
 39 64  1  0  0  0
 39 67  2  0  0  0
 40 52  1  0  0  0
 40 53  2  0  0  0
 40 58  1  0  0  0
 41109  1  0  0  0
 41110  1  0  0  0
 41111  1  0  0  0
 41 48  1  0  0  0
 42 43  1  0  0  0
 42 66  1  0  0  0
 42112  1  0  0  0
 42113  1  0  0  0
 43 44  1  0  0  0
 44114  1  0  0  0
 45 46  2  0  0  0
 45115  1  0  0  0
 46116  1  0  0  0
 47117  1  0  0  0
 47118  1  0  0  0
 48 56  1  0  0  0
 48 65  1  0  0  0
 48119  1  0  0  0
 49 50  1  0  0  0
 49 53  1  0  0  0
 49 64  1  0  0  0
 49120  1  0  0  0
 50 51  1  0  0  0
 50121  1  0  0  0
 50122  1  0  0  0
 51 52  1  0  0  0
 51123  1  0  0  0
 51124  1  0  0  0
 52125  1  0  0  0
 52126  1  0  0  0
 53 54  1  0  0  0
 54 55  2  0  0  0
 54127  1  0  0  0
 55 57  1  0  0  0
 55128  1  0  0  0
 56 69  2  0  0  0
 57 58  2  0  0  0
 57129  1  0  0  0
 58130  1  0  0  0
 59 60  1  0  0  0
 59 61  1  0  0  0
 59 62  1  0  0  0
 60131  1  0  0  0
 60132  1  0  0  0
 60133  1  0  0  0
 61134  1  0  0  0
 61135  1  0  0  0
 61136  1  0  0  0
 62137  1  0  0  0
 62138  1  0  0  0
 62139  1  0  0  0
 63 65  1  0  0  0
 63140  1  0  0  0
 63141  1  0  0  0
 63142  1  0  0  0
 64143  1  0  0  0
 65144  1  0  0  0
 68 79  1  0  0  0
 71 79  1  0  0  0
 71 81  1  0  0  0
 71 82  2  0  0  0
 72 81  2  0  0  0
 72 83  1  0  0  0
 72 85  1  0  0  0
 73 75  1  0  0  0
 73 77  1  0  0  0
 73145  1  0  0  0
 73146  1  0  0  0
 74 76  1  0  0  0
 74 77  1  0  0  0
 74147  1  0  0  0
 74148  1  0  0  0
 75 84  1  0  0  0
 75149  1  0  0  0
 75150  1  0  0  0
 76 84  1  0  0  0
 76151  1  0  0  0
 76152  1  0  0  0
 77 85  1  0  0  0
 77153  1  0  0  0
 78 80  1  0  0  0
 78154  1  0  0  0
 78155  1  0  0  0
 78156  1  0  0  0
 79157  1  0  0  0
 79158  1  0  0  0
 80 83  1  0  0  0
 80159  1  0  0  0
 80160  1  0  0  0
 82 83  1  0  0  0
 85161  1  0  0  0
M  ISO  4   1 100  68 101  79 101  84 100
M  END
> <chiral flag>
0

> <version>
0

> <s_m_source_file>
/data/baiqing/PycharmProjects/Reinvent-master-3.2/result/LINK_invent/BTK/process_docking_weight1_custom_sum_contain_oxygen_bond_distance_aromatic_linkinvent_7_9_3/rearranged_h_0192.sdf

> <i_m_source_file_index>
41

> <r_mmod_Potential_Energy-OPLS-2005>
277.560607910156

> <r_mmod_Stretch_Energy-OPLS-2005>
94.1718139648438

> <r_mmod_Bend_Energy-OPLS-2005>
175.876708984375

> <r_mmod_Torsional_Energy-OPLS-2005>
323.4521484375

> <r_mmod_Improper_Torsional_Energy-OPLS-2005>
16.281135559082

> <r_mmod_Van_der_Waal_Energy-OPLS-2005>
124.237617492676

> <r_mmod_Electrostatic_Energy-OPLS-2005>
-307.677459716797

> <r_mmod_Solvation_Energy-OPLS-2005>
-222.861511230469

> <b_mmod_Minimization_Converged-OPLS-2005>
0

> <r_mmod_RMS_Derivative-OPLS-2005>
0.712661564350128

$$$$
41
                    3D
 Structure written by MMmdl.
165175  0  0  1  0            999 V2000
  -30.6192  -14.9117   20.4243 C   0  0  0  0  0  0
  -30.4182  -12.5748   19.4860 C   0  0  0  0  0  0
  -29.5046  -12.5193   18.2436 C   0  0  0  0  0  0
  -28.0400  -12.3140   18.6690 C   0  0  0  0  0  0
  -27.6229  -13.2502   19.8344 C   0  0  2  0  0  0
  -28.6719  -13.2878   20.9659 C   0  0  0  0  0  0
  -25.2430  -13.8216   20.5728 C   0  0  0  0  0  0
  -24.1757  -13.0437   20.9251 C   0  0  0  0  0  0
  -24.6379  -11.6926   20.8774 C   0  0  0  0  0  0
  -23.9069  -10.4293   21.0417 C   0  0  0  0  0  0
  -24.3622   -9.4206   21.9189 C   0  0  0  0  0  0
  -23.6298   -8.2238   22.0751 C   0  0  0  0  0  0
  -22.4278   -8.0279   21.3543 C   0  0  0  0  0  0
  -21.9916   -9.0254   20.4647 C   0  0  0  0  0  0
  -22.7244  -10.2134   20.3064 C   0  0  0  0  0  0
  -21.6856   -6.0734   22.5278 C   0  0  0  0  0  0
  -21.4014   -6.5637   23.8212 C   0  0  0  0  0  0
  -21.3660   -5.6788   24.9172 C   0  0  0  0  0  0
  -21.6047   -4.3051   24.7224 C   0  0  0  0  0  0
  -21.8816   -3.8144   23.4345 C   0  0  0  0  0  0
  -21.9192   -4.6962   22.3400 C   0  0  0  0  0  0
  -22.7778  -13.5212   21.1894 C   0  0  0  0  0  0
  -22.1663   -4.2145   21.0981 F   0  0  0  0  0  0
  -21.5631   -3.4536   25.7739 F   0  0  0  0  0  0
  -29.9371  -13.6978   20.3452 N   0  0  0  0  0  0
  -26.2852  -12.9458   20.3261 N   0  0  0  0  0  0
  -25.9310  -11.6586   20.5760 N   0  0  0  0  0  0
  -22.0425  -12.8205   22.0451 N   0  0  0  0  0  0
  -25.4071  -15.1940   20.4125 N   0  0  0  0  0  0
  -31.8329  -14.8504   20.1988 O   0  0  0  0  0  0
  -21.6642   -6.8878   21.4241 O   0  0  0  0  0  0
  -22.3468  -14.5516   20.6731 O   0  0  0  0  0  0
  -24.6413  -31.8461   23.1900 C   0  0  0  0  0  0
  -25.9196  -32.4702   23.8278 C   0  0  1  0  0  0
  -27.2141  -27.1548   20.1366 C   0  0  0  0  0  0
  -25.5956  -33.8508   24.2197 N   0  0  0  0  0  0
  -23.4427  -30.4669   21.5357 C   0  0  2  0  0  0
  -24.8891  -28.8973   20.1094 C   0  0  0  0  0  0
  -22.7552  -29.4556   22.4866 C   0  0  0  0  0  0
  -18.0301  -28.1395   22.8474 C   0  0  0  0  0  0
  -24.1493  -36.7261   23.2642 C   0  0  0  0  0  0
  -25.9974  -30.7251   21.3857 C   0  0  0  0  0  0
  -26.0660  -29.3384   20.7258 C   0  0  0  0  0  0
  -27.2268  -28.4817   20.7253 C   0  0  0  0  0  0
  -26.0045  -26.8079   19.4937 C   0  0  0  0  0  0
  -24.8693  -27.6441   19.4810 C   0  0  0  0  0  0
  -23.6668  -29.7985   20.1537 C   0  0  0  0  0  0
  -25.4122  -36.3033   24.0317 C   0  0  1  0  0  0
  -20.5913  -28.3717   23.1244 C   0  0  2  0  0  0
  -20.6782  -26.9420   22.5415 C   0  0  0  0  0  0
  -19.5764  -26.6378   21.5215 C   0  0  0  0  0  0
  -18.1940  -26.7936   22.1615 C   0  0  0  0  0  0
  -19.1558  -28.8872   23.2855 C   0  0  0  0  0  0
  -18.9474  -30.1468   23.8878 C   0  0  0  0  0  0
  -17.6471  -30.6590   24.0559 C   0  0  0  0  0  0
  -25.9072  -34.9410   23.5064 C   0  0  0  0  0  0
  -16.5362  -29.9080   23.6338 C   0  0  0  0  0  0
  -16.7287  -28.6504   23.0351 C   0  0  0  0  0  0
  -26.4524  -31.6568   25.0717 C   0  0  0  0  0  0
  -25.3716  -31.3765   26.1422 C   0  0  0  0  0  0
  -27.0386  -30.2960   24.6294 C   0  0  0  0  0  0
  -27.6057  -32.4336   25.7494 C   0  0  0  0  0  0
  -27.5581  -37.1776   24.8456 C   0  0  0  0  0  0
  -21.4247  -29.3042   22.3614 N   0  0  0  0  0  0
  -26.4283  -37.3748   23.9414 N   0  0  0  0  0  0
  -24.7137  -31.0335   22.0923 N   0  0  0  0  0  0
  -23.4212  -28.8102   23.3004 O   0  0  0  0  0  0
  -28.2916  -26.2025   20.2195 O   0  0  0  0  0  0
  -26.5654  -34.8904   22.4639 O   0  0  0  0  0  0
  -23.5539  -32.1329   23.7137 O   0  0  0  0  0  0
  -28.7247  -23.6355   20.7261 C   0  0  0  0  0  0
  -28.7264  -22.2565   20.1940 C   0  0  0  0  0  0
  -28.2651  -24.7675   19.9089 C   0  0  0  0  0  0
  -27.9192  -23.1832   18.2402 C   0  0  0  0  0  0
  -30.1005  -25.0351   22.4870 C   0  0  0  0  0  0
  -30.5905  -23.6114   22.5840 C   0  0  0  0  0  0
  -28.7184  -16.7623   20.8731 C   0  0  0  0  0  0
  -30.6226  -17.3307   19.5315 C   0  0  0  0  0  0
  -28.6082  -18.3309   21.2855 C   0  0  0  0  0  0
  -30.5373  -18.8601   20.0203 C   0  0  0  0  0  0
  -29.1723  -23.8917   22.1373 C   0  0  0  0  0  0
  -27.4382  -22.9393   16.8262 C   0  0  0  0  0  0
  -29.1568  -20.8825   20.9714 C   0  0  0  0  0  0
  -28.2991  -22.1009   18.9269 N   0  0  0  0  0  0
  -27.8973  -24.4545   18.6500 N   0  0  0  0  0  0
  -30.0019  -16.2057   20.3299 N   0  0  0  0  0  0
  -29.1855  -19.4115   20.3846 N   0  3  0  0  0  0
  -31.4545  -12.6979   19.1676 H   0  0  0  0  0  0
  -30.3916  -11.6290   20.0299 H   0  0  0  0  0  0
  -29.8189  -11.7156   17.5760 H   0  0  0  0  0  0
  -29.5974  -13.4457   17.6750 H   0  0  0  0  0  0
  -27.9335  -11.2737   18.9786 H   0  0  0  0  0  0
  -27.3733  -12.4462   17.8160 H   0  0  0  0  0  0
  -27.5823  -14.2497   19.4022 H   0  0  0  0  0  0
  -28.7656  -12.3127   21.4464 H   0  0  0  0  0  0
  -28.3765  -13.9822   21.7503 H   0  0  0  0  0  0
  -25.2763   -9.5689   22.4764 H   0  0  0  0  0  0
  -24.0008   -7.4633   22.7468 H   0  0  0  0  0  0
  -21.0845   -8.8779   19.8957 H   0  0  0  0  0  0
  -22.3698  -10.9677   19.6180 H   0  0  0  0  0  0
  -21.2006   -7.6144   23.9713 H   0  0  0  0  0  0
  -21.1488   -6.0519   25.9076 H   0  0  0  0  0  0
  -22.0597   -2.7607   23.2843 H   0  0  0  0  0  0
  -22.4044  -11.9878   22.4857 H   0  0  0  0  0  0
  -21.1037  -13.1224   22.2641 H   0  0  0  0  0  0
  -24.6309  -15.8394   20.5099 H   0  0  0  0  0  0
  -26.2368  -15.6258   20.0312 H   0  0  0  0  0  0
  -26.7256  -32.5309   23.1003 H   0  0  0  0  0  0
  -25.0084  -33.9628   25.0331 H   0  0  0  0  0  0
  -22.7439  -31.2922   21.3838 H   0  0  0  0  0  0
  -23.3763  -35.9584   23.3276 H   0  0  0  0  0  0
  -24.3583  -36.8921   22.2063 H   0  0  0  0  0  0
  -23.7238  -37.6443   23.6699 H   0  0  0  0  0  0
  -26.1519  -31.4818   20.6154 H   0  0  0  0  0  0
  -26.8684  -30.7721   22.0276 H   0  0  0  0  0  0
  -28.1249  -28.8149   21.2264 H   0  0  0  0  0  0
  -25.8925  -25.8464   19.0185 H   0  0  0  0  0  0
  -23.9672  -27.2992   18.9949 H   0  0  0  0  0  0
  -23.8025  -30.5740   19.3988 H   0  0  0  0  0  0
  -22.7812  -29.2409   19.8441 H   0  0  0  0  0  0
  -25.1308  -36.1855   25.0809 H   0  0  0  0  0  0
  -21.0007  -28.3308   24.1365 H   0  0  0  0  0  0
  -20.5667  -26.2330   23.3634 H   0  0  0  0  0  0
  -21.6652  -26.7419   22.1222 H   0  0  0  0  0  0
  -19.6925  -25.6282   21.1259 H   0  0  0  0  0  0
  -19.6711  -27.3173   20.6735 H   0  0  0  0  0  0
  -17.4217  -26.6688   21.4012 H   0  0  0  0  0  0
  -18.0332  -26.0083   22.9013 H   0  0  0  0  0  0
  -19.7950  -30.7288   24.2241 H   0  0  0  0  0  0
  -17.5024  -31.6266   24.5167 H   0  0  0  0  0  0
  -15.5361  -30.2969   23.7681 H   0  0  0  0  0  0
  -15.8689  -28.0816   22.7070 H   0  0  0  0  0  0
  -24.5876  -30.7137   25.7741 H   0  0  0  0  0  0
  -24.8934  -32.2959   26.4813 H   0  0  0  0  0  0
  -25.8003  -30.8949   27.0220 H   0  0  0  0  0  0
  -26.2999  -29.6678   24.1306 H   0  0  0  0  0  0
  -27.3995  -29.7265   25.4868 H   0  0  0  0  0  0
  -27.8908  -30.4185   23.9608 H   0  0  0  0  0  0
  -27.2641  -33.3633   26.2054 H   0  0  0  0  0  0
  -28.3873  -32.6908   25.0336 H   0  0  0  0  0  0
  -28.0727  -31.8486   26.5426 H   0  0  0  0  0  0
  -28.2575  -38.0095   24.7523 H   0  0  0  0  0  0
  -28.1097  -36.2625   24.6248 H   0  0  0  0  0  0
  -27.2310  -37.1386   25.8862 H   0  0  0  0  0  0
  -20.9452  -29.8751   21.6792 H   0  0  0  0  0  0
  -26.0149  -38.2811   24.1436 H   0  0  0  0  0  0
  -30.5163  -25.6419   21.6846 H   0  0  0  0  0  0
  -29.9301  -25.5599   23.4256 H   0  0  0  0  0  0
  -30.7426  -23.2168   23.5874 H   0  0  0  0  0  0
  -31.3217  -23.2942   21.8422 H   0  0  0  0  0  0
  -27.9608  -16.5648   20.1156 H   0  0  0  0  0  0
  -28.4246  -16.1778   21.7437 H   0  0  0  0  0  0
  -31.6779  -17.1250   19.3515 H   0  0  0  0  0  0
  -30.1671  -17.2767   18.5420 H   0  0  0  0  0  0
  -29.0947  -18.4396   22.2561 H   0  0  0  0  0  0
  -27.5583  -18.5661   21.4668 H   0  0  0  0  0  0
  -30.9700  -19.5036   19.2528 H   0  0  0  0  0  0
  -31.1886  -18.9661   20.8894 H   0  0  0  0  0  0
  -28.3694  -23.6721   22.8394 H   0  0  0  0  0  0
  -27.7538  -21.9620   16.4610 H   0  0  0  0  0  0
  -27.8328  -23.6949   16.1468 H   0  0  0  0  0  0
  -26.3498  -22.9801   16.7893 H   0  0  0  0  0  0
  -28.4739  -20.8522   21.8201 H   0  0  0  0  0  0
  -30.1299  -21.0673   21.4241 H   0  0  0  0  0  0
  -28.6244  -19.4606   19.5468 H   0  0  0  0  0  0
  1 25  1  0  0  0
  1 30  2  0  0  0
  1 86  1  0  0  0
  2  3  1  0  0  0
  2 25  1  0  0  0
  2 88  1  0  0  0
  2 89  1  0  0  0
  3  4  1  0  0  0
  3 90  1  0  0  0
  3 91  1  0  0  0
  4  5  1  0  0  0
  4 92  1  0  0  0
  4 93  1  0  0  0
  5  6  1  0  0  0
  5 26  1  0  0  0
  5 94  1  0  0  0
  6 25  1  0  0  0
  6 95  1  0  0  0
  6 96  1  0  0  0
  7  8  2  0  0  0
  7 26  1  0  0  0
  7 29  1  0  0  0
  8  9  1  0  0  0
  8 22  1  0  0  0
  9 10  1  0  0  0
  9 27  2  0  0  0
 10 11  2  0  0  0
 10 15  1  0  0  0
 11 12  1  0  0  0
 11 97  1  0  0  0
 12 13  2  0  0  0
 12 98  1  0  0  0
 13 14  1  0  0  0
 13 31  1  0  0  0
 14 15  2  0  0  0
 14 99  1  0  0  0
 15100  1  0  0  0
 16 17  2  0  0  0
 16 21  1  0  0  0
 16 31  1  0  0  0
 17 18  1  0  0  0
 17101  1  0  0  0
 18 19  2  0  0  0
 18102  1  0  0  0
 19 20  1  0  0  0
 19 24  1  0  0  0
 20 21  2  0  0  0
 20103  1  0  0  0
 21 23  1  0  0  0
 22 28  1  0  0  0
 22 32  2  0  0  0
 26 27  1  0  0  0
 28104  1  0  0  0
 28105  1  0  0  0
 29106  1  0  0  0
 29107  1  0  0  0
 33 34  1  0  0  0
 33 66  1  0  0  0
 33 70  2  0  0  0
 34 36  1  0  0  0
 34 59  1  0  0  0
 34108  1  0  0  0
 35 44  2  0  0  0
 35 45  1  0  0  0
 35 68  1  0  0  0
 36 56  1  0  0  0
 36109  1  0  0  0
 37 39  1  0  0  0
 37 47  1  0  0  0
 37 66  1  0  0  0
 37110  1  0  0  0
 38 43  2  0  0  0
 38 46  1  0  0  0
 38 47  1  0  0  0
 39 64  1  0  0  0
 39 67  2  0  0  0
 40 52  1  0  0  0
 40 53  2  0  0  0
 40 58  1  0  0  0
 41111  1  0  0  0
 41112  1  0  0  0
 41113  1  0  0  0
 41 48  1  0  0  0
 42 43  1  0  0  0
 42 66  1  0  0  0
 42114  1  0  0  0
 42115  1  0  0  0
 43 44  1  0  0  0
 44116  1  0  0  0
 45 46  2  0  0  0
 45117  1  0  0  0
 46118  1  0  0  0
 47119  1  0  0  0
 47120  1  0  0  0
 48 56  1  0  0  0
 48 65  1  0  0  0
 48121  1  0  0  0
 49 50  1  0  0  0
 49 53  1  0  0  0
 49 64  1  0  0  0
 49122  1  0  0  0
 50 51  1  0  0  0
 50123  1  0  0  0
 50124  1  0  0  0
 51 52  1  0  0  0
 51125  1  0  0  0
 51126  1  0  0  0
 52127  1  0  0  0
 52128  1  0  0  0
 53 54  1  0  0  0
 54 55  2  0  0  0
 54129  1  0  0  0
 55 57  1  0  0  0
 55130  1  0  0  0
 56 69  2  0  0  0
 57 58  2  0  0  0
 57131  1  0  0  0
 58132  1  0  0  0
 59 60  1  0  0  0
 59 61  1  0  0  0
 59 62  1  0  0  0
 60133  1  0  0  0
 60134  1  0  0  0
 60135  1  0  0  0
 61136  1  0  0  0
 61137  1  0  0  0
 61138  1  0  0  0
 62139  1  0  0  0
 62140  1  0  0  0
 62141  1  0  0  0
 63 65  1  0  0  0
 63142  1  0  0  0
 63143  1  0  0  0
 63144  1  0  0  0
 64145  1  0  0  0
 65146  1  0  0  0
 68 73  1  0  0  0
 71 72  2  0  0  0
 71 73  1  0  0  0
 71 81  1  0  0  0
 72 83  1  0  0  0
 72 84  1  0  0  0
 73 85  2  0  0  0
 74 82  1  0  0  0
 74 84  2  0  0  0
 74 85  1  0  0  0
 75 76  1  0  0  0
 75 81  1  0  0  0
 75147  1  0  0  0
 75148  1  0  0  0
 76 81  1  0  0  0
 76149  1  0  0  0
 76150  1  0  0  0
 77 79  1  0  0  0
 77 86  1  0  0  0
 77151  1  0  0  0
 77152  1  0  0  0
 78 80  1  0  0  0
 78 86  1  0  0  0
 78153  1  0  0  0
 78154  1  0  0  0
 79 87  1  0  0  0
 79155  1  0  0  0
 79156  1  0  0  0
 80 87  1  0  0  0
 80157  1  0  0  0
 80158  1  0  0  0
 81159  1  0  0  0
 82160  1  0  0  0
 82161  1  0  0  0
 82162  1  0  0  0
 83163  1  0  0  0
 83164  1  0  0  0
 83 87  1  0  0  0
 87165  1  0  0  0
M  CHG  1  87   1
M  ISO  4   1 100  68 101  73 101  86 100
M  END
> <chiral flag>
0

> <version>
0

> <s_m_source_file>
/data/baiqing/PycharmProjects/Reinvent-master-3.2/result/LINK_invent/BTK/process_docking_weight1_custom_sum_contain_oxygen_bond_distance_aromatic_linkinvent_7_9_3/rearranged_h_0192.sdf

> <i_m_source_file_index>
42

> <r_mmod_Potential_Energy-OPLS-2005>
53.5739822387695

> <r_mmod_Stretch_Energy-OPLS-2005>
197.343185424805

> <r_mmod_Bend_Energy-OPLS-2005>
266.819366455078

> <r_mmod_Torsional_Energy-OPLS-2005>
403.16259765625

> <r_mmod_Improper_Torsional_Energy-OPLS-2005>
12.8100090026855

> <r_mmod_Van_der_Waal_Energy-OPLS-2005>
140.923980712891

> <r_mmod_Electrostatic_Energy-OPLS-2005>
-678.548522949219

> <r_mmod_Solvation_Energy-OPLS-2005>
-458.373138427734

> <b_mmod_Minimization_Converged-OPLS-2005>
0

> <r_mmod_RMS_Derivative-OPLS-2005>
0.68183159828186

$$$$
42
                    3D
 Structure written by MMmdl.
153162  0  0  1  0            999 V2000
  -30.5056  -15.1645   20.3989 C   0  0  0  0  0  0
  -30.4317  -12.7426   19.5161 C   0  0  0  0  0  0
  -29.5250  -12.5684   18.2742 C   0  0  0  0  0  0
  -28.0671  -12.3175   18.6968 C   0  0  0  0  0  0
  -27.6147  -13.2720   19.8319 C   0  0  2  0  0  0
  -28.6564  -13.3917   20.9641 C   0  0  0  0  0  0
  -25.2351  -13.8226   20.5736 C   0  0  0  0  0  0
  -24.1714  -13.0412   20.9261 C   0  0  0  0  0  0
  -24.6381  -11.6924   20.8762 C   0  0  0  0  0  0
  -23.9084  -10.4284   21.0400 C   0  0  0  0  0  0
  -24.3637   -9.4207   21.9180 C   0  0  0  0  0  0
  -23.6303   -8.2245   22.0756 C   0  0  0  0  0  0
  -22.4292   -8.0279   21.3540 C   0  0  0  0  0  0
  -21.9921   -9.0252   20.4644 C   0  0  0  0  0  0
  -22.7256  -10.2125   20.3049 C   0  0  0  0  0  0
  -21.6860   -6.0738   22.5282 C   0  0  0  0  0  0
  -21.4016   -6.5640   23.8214 C   0  0  0  0  0  0
  -21.3658   -5.6792   24.9172 C   0  0  0  0  0  0
  -21.6045   -4.3052   24.7222 C   0  0  0  0  0  0
  -21.8822   -3.8146   23.4346 C   0  0  0  0  0  0
  -21.9196   -4.6964   22.3399 C   0  0  0  0  0  0
  -22.7729  -13.5160   21.1897 C   0  0  0  0  0  0
  -22.1669   -4.2151   21.0979 F   0  0  0  0  0  0
  -21.5622   -3.4541   25.7734 F   0  0  0  0  0  0
  -29.8954  -13.8842   20.3415 N   0  0  0  0  0  0
  -26.2814  -12.9524   20.3258 N   0  0  0  0  0  0
  -25.9328  -11.6627   20.5752 N   0  0  0  0  0  0
  -22.0392  -12.8143   22.0464 N   0  0  0  0  0  0
  -25.3873  -15.1950   20.4148 N   0  0  0  0  0  0
  -31.7165  -15.1341   20.1358 O   0  0  0  0  0  0
  -21.6649   -6.8880   21.4241 O   0  0  0  0  0  0
  -22.3410  -14.5459   20.6742 O   0  0  0  0  0  0
  -24.6548  -31.8316   23.1802 C   0  0  0  0  0  0
  -25.9271  -32.4629   23.8217 C   0  0  1  0  0  0
  -27.2072  -26.9827   20.1853 C   0  0  0  0  0  0
  -25.5978  -33.8448   24.2124 N   0  0  0  0  0  0
  -23.4657  -30.4480   21.5283 C   0  0  2  0  0  0
  -24.9178  -28.8504   20.1120 C   0  0  0  0  0  0
  -22.7626  -29.4481   22.4826 C   0  0  0  0  0  0
  -18.0314  -28.1406   22.8473 C   0  0  0  0  0  0
  -24.1487  -36.7218   23.2642 C   0  0  0  0  0  0
  -26.0320  -30.6537   21.4062 C   0  0  0  0  0  0
  -26.0977  -29.2491   20.7535 C   0  0  0  0  0  0
  -27.2368  -28.3344   20.7737 C   0  0  0  0  0  0
  -26.0108  -26.7432   19.4685 C   0  0  0  0  0  0
  -24.8967  -27.6159   19.4490 C   0  0  0  0  0  0
  -23.7014  -29.7710   20.1509 C   0  0  0  0  0  0
  -25.4128  -36.2996   24.0303 C   0  0  1  0  0  0
  -20.5934  -28.3742   23.1212 C   0  0  2  0  0  0
  -20.6801  -26.9435   22.5406 C   0  0  0  0  0  0
  -19.5776  -26.6378   21.5216 C   0  0  0  0  0  0
  -18.1954  -26.7942   22.1623 C   0  0  0  0  0  0
  -19.1573  -28.8897   23.2828 C   0  0  0  0  0  0
  -18.9487  -30.1492   23.8855 C   0  0  0  0  0  0
  -17.6481  -30.6599   24.0558 C   0  0  0  0  0  0
  -25.9093  -34.9374   23.5025 C   0  0  0  0  0  0
  -16.5372  -29.9085   23.6343 C   0  0  0  0  0  0
  -16.7300  -28.6504   23.0365 C   0  0  0  0  0  0
  -26.4545  -31.6561   25.0725 C   0  0  0  0  0  0
  -25.3684  -31.3797   26.1388 C   0  0  0  0  0  0
  -27.0434  -30.2931   24.6428 C   0  0  0  0  0  0
  -27.6043  -32.4363   25.7522 C   0  0  0  0  0  0
  -27.5570  -37.1768   24.8463 C   0  0  0  0  0  0
  -21.4308  -29.3033   22.3564 N   0  0  0  0  0  0
  -26.4277  -37.3728   23.9409 N   0  0  0  0  0  0
  -24.7381  -31.0029   22.0916 N   0  0  0  0  0  0
  -23.4201  -28.8035   23.3036 O   0  0  0  0  0  0
  -28.2297  -25.9073   20.2123 O   0  0  0  0  0  0
  -26.5688  -34.8891   22.4611 O   0  0  0  0  0  0
  -23.5635  -32.1274   23.6928 O   0  0  0  0  0  0
  -26.5155  -22.8490   21.0383 C   0  0  0  0  0  0
  -28.5259  -22.0438   20.4401 C   0  0  0  0  0  0
  -27.9822  -24.4532   20.4066 C   0  0  0  0  0  0
  -28.3565  -18.4068   21.2976 C   0  0  0  0  0  0
  -28.5208  -16.8299   21.0729 C   0  0  0  0  0  0
  -30.2819  -17.9493   20.0892 C   0  0  0  0  0  0
  -29.1293  -19.1789   20.2055 C   0  0  2  0  0  0
  -25.1378  -22.5347   21.5857 C   0  0  0  0  0  0
  -27.2992  -21.7848   20.8438 N   0  0  0  0  0  0
  -26.7699  -24.1471   20.8528 N   0  0  0  0  0  0
  -28.9213  -23.3920   20.2131 N   0  0  0  0  0  0
  -29.8206  -16.4733   20.4529 N   0  0  0  0  0  0
  -29.3733  -20.7788   20.3369 N   0  0  0  0  0  0
  -31.4556  -12.9213   19.1848 H   0  0  0  0  0  0
  -30.4747  -11.8212   20.0991 H   0  0  0  0  0  0
  -29.8843  -11.7465   17.6537 H   0  0  0  0  0  0
  -29.5769  -13.4657   17.6560 H   0  0  0  0  0  0
  -27.9986  -11.2846   19.0387 H   0  0  0  0  0  0
  -27.4000  -12.3999   17.8376 H   0  0  0  0  0  0
  -27.5445  -14.2549   19.3646 H   0  0  0  0  0  0
  -28.8075  -12.4357   21.4664 H   0  0  0  0  0  0
  -28.3129  -14.0835   21.7313 H   0  0  0  0  0  0
  -25.2780   -9.5695   22.4756 H   0  0  0  0  0  0
  -24.0016   -7.4645   22.7482 H   0  0  0  0  0  0
  -21.0852   -8.8771   19.8949 H   0  0  0  0  0  0
  -22.3713  -10.9665   19.6163 H   0  0  0  0  0  0
  -21.2013   -7.6152   23.9718 H   0  0  0  0  0  0
  -21.1474   -6.0520   25.9075 H   0  0  0  0  0  0
  -22.0601   -2.7614   23.2841 H   0  0  0  0  0  0
  -22.4043  -11.9832   22.4863 H   0  0  0  0  0  0
  -21.1005  -13.1137   22.2683 H   0  0  0  0  0  0
  -24.6119  -15.8380   20.5310 H   0  0  0  0  0  0
  -26.2259  -15.6432   20.0716 H   0  0  0  0  0  0
  -26.7331  -32.5179   23.0924 H   0  0  0  0  0  0
  -25.0101  -33.9548   25.0257 H   0  0  0  0  0  0
  -22.7740  -31.2778   21.3664 H   0  0  0  0  0  0
  -23.3775  -35.9522   23.3274 H   0  0  0  0  0  0
  -24.3560  -36.8892   22.2062 H   0  0  0  0  0  0
  -23.7215  -37.6384   23.6715 H   0  0  0  0  0  0
  -26.2078  -31.3975   20.6279 H   0  0  0  0  0  0
  -26.8935  -30.7056   22.0595 H   0  0  0  0  0  0
  -28.1302  -28.6429   21.2965 H   0  0  0  0  0  0
  -25.9008  -25.8063   18.9421 H   0  0  0  0  0  0
  -24.0052  -27.3113   18.9176 H   0  0  0  0  0  0
  -23.8511  -30.5444   19.3969 H   0  0  0  0  0  0
  -22.8111  -29.2243   19.8329 H   0  0  0  0  0  0
  -25.1325  -36.1798   25.0794 H   0  0  0  0  0  0
  -21.0018  -28.3345   24.1337 H   0  0  0  0  0  0
  -20.5697  -26.2356   23.3635 H   0  0  0  0  0  0
  -21.6667  -26.7432   22.1201 H   0  0  0  0  0  0
  -19.6937  -25.6273   21.1279 H   0  0  0  0  0  0
  -19.6718  -27.3161   20.6724 H   0  0  0  0  0  0
  -17.4225  -26.6686   21.4025 H   0  0  0  0  0  0
  -18.0356  -26.0092   22.9028 H   0  0  0  0  0  0
  -19.7964  -30.7329   24.2198 H   0  0  0  0  0  0
  -17.5032  -31.6278   24.5167 H   0  0  0  0  0  0
  -15.5372  -30.2975   23.7701 H   0  0  0  0  0  0
  -15.8698  -28.0813   22.7107 H   0  0  0  0  0  0
  -24.5866  -30.7149   25.7697 H   0  0  0  0  0  0
  -24.8872  -32.2995   26.4716 H   0  0  0  0  0  0
  -25.7920  -30.9021   27.0230 H   0  0  0  0  0  0
  -26.3094  -29.6625   24.1395 H   0  0  0  0  0  0
  -27.3934  -29.7272   25.5074 H   0  0  0  0  0  0
  -27.9052  -30.4121   23.9858 H   0  0  0  0  0  0
  -27.2606  -33.3689   26.2003 H   0  0  0  0  0  0
  -28.3900  -32.6885   25.0394 H   0  0  0  0  0  0
  -28.0657  -31.8561   26.5519 H   0  0  0  0  0  0
  -28.2573  -38.0085   24.7530 H   0  0  0  0  0  0
  -28.1087  -36.2609   24.6274 H   0  0  0  0  0  0
  -27.2286  -37.1389   25.8868 H   0  0  0  0  0  0
  -20.9554  -29.8705   21.6687 H   0  0  0  0  0  0
  -26.0131  -38.2781   24.1443 H   0  0  0  0  0  0
  -28.7623  -18.6660   22.2763 H   0  0  0  0  0  0
  -27.3036  -18.6914   21.3126 H   0  0  0  0  0  0
  -27.7439  -16.4909   20.3913 H   0  0  0  0  0  0
  -28.3793  -16.3051   22.0175 H   0  0  0  0  0  0
  -31.1141  -18.1770   20.7560 H   0  0  0  0  0  0
  -30.7056  -17.9350   19.0846 H   0  0  0  0  0  0
  -28.5265  -19.0995   19.2986 H   0  0  0  0  0  0
  -24.8117  -21.5408   21.2803 H   0  0  0  0  0  0
  -24.3963  -23.2506   21.2323 H   0  0  0  0  0  0
  -25.1502  -22.5690   22.6751 H   0  0  0  0  0  0
  -30.3320  -21.0161   20.1084 H   0  0  0  0  0  0
  1 25  1  0  0  0
  1 30  2  0  0  0
  1 82  1  0  0  0
  2  3  1  0  0  0
  2 25  1  0  0  0
  2 84  1  0  0  0
  2 85  1  0  0  0
  3  4  1  0  0  0
  3 86  1  0  0  0
  3 87  1  0  0  0
  4  5  1  0  0  0
  4 88  1  0  0  0
  4 89  1  0  0  0
  5  6  1  0  0  0
  5 26  1  0  0  0
  5 90  1  0  0  0
  6 25  1  0  0  0
  6 91  1  0  0  0
  6 92  1  0  0  0
  7  8  2  0  0  0
  7 26  1  0  0  0
  7 29  1  0  0  0
  8  9  1  0  0  0
  8 22  1  0  0  0
  9 10  1  0  0  0
  9 27  2  0  0  0
 10 11  2  0  0  0
 10 15  1  0  0  0
 11 12  1  0  0  0
 11 93  1  0  0  0
 12 13  2  0  0  0
 12 94  1  0  0  0
 13 14  1  0  0  0
 13 31  1  0  0  0
 14 15  2  0  0  0
 14 95  1  0  0  0
 15 96  1  0  0  0
 16 17  2  0  0  0
 16 21  1  0  0  0
 16 31  1  0  0  0
 17 18  1  0  0  0
 17 97  1  0  0  0
 18 19  2  0  0  0
 18 98  1  0  0  0
 19 20  1  0  0  0
 19 24  1  0  0  0
 20 21  2  0  0  0
 20 99  1  0  0  0
 21 23  1  0  0  0
 22 28  1  0  0  0
 22 32  2  0  0  0
 26 27  1  0  0  0
 28100  1  0  0  0
 28101  1  0  0  0
 29102  1  0  0  0
 29103  1  0  0  0
 33 34  1  0  0  0
 33 66  1  0  0  0
 33 70  2  0  0  0
 34 36  1  0  0  0
 34 59  1  0  0  0
 34104  1  0  0  0
 35 44  2  0  0  0
 35 45  1  0  0  0
 35 68  1  0  0  0
 36 56  1  0  0  0
 36105  1  0  0  0
 37 39  1  0  0  0
 37 47  1  0  0  0
 37 66  1  0  0  0
 37106  1  0  0  0
 38 43  2  0  0  0
 38 46  1  0  0  0
 38 47  1  0  0  0
 39 64  1  0  0  0
 39 67  2  0  0  0
 40 52  1  0  0  0
 40 53  2  0  0  0
 40 58  1  0  0  0
 41107  1  0  0  0
 41108  1  0  0  0
 41109  1  0  0  0
 41 48  1  0  0  0
 42 43  1  0  0  0
 42 66  1  0  0  0
 42110  1  0  0  0
 42111  1  0  0  0
 43 44  1  0  0  0
 44112  1  0  0  0
 45 46  2  0  0  0
 45113  1  0  0  0
 46114  1  0  0  0
 47115  1  0  0  0
 47116  1  0  0  0
 48 56  1  0  0  0
 48 65  1  0  0  0
 48117  1  0  0  0
 49 50  1  0  0  0
 49 53  1  0  0  0
 49 64  1  0  0  0
 49118  1  0  0  0
 50 51  1  0  0  0
 50119  1  0  0  0
 50120  1  0  0  0
 51 52  1  0  0  0
 51121  1  0  0  0
 51122  1  0  0  0
 52123  1  0  0  0
 52124  1  0  0  0
 53 54  1  0  0  0
 54 55  2  0  0  0
 54125  1  0  0  0
 55 57  1  0  0  0
 55126  1  0  0  0
 56 69  2  0  0  0
 57 58  2  0  0  0
 57127  1  0  0  0
 58128  1  0  0  0
 59 60  1  0  0  0
 59 61  1  0  0  0
 59 62  1  0  0  0
 60129  1  0  0  0
 60130  1  0  0  0
 60131  1  0  0  0
 61132  1  0  0  0
 61133  1  0  0  0
 61134  1  0  0  0
 62135  1  0  0  0
 62136  1  0  0  0
 62137  1  0  0  0
 63 65  1  0  0  0
 63138  1  0  0  0
 63139  1  0  0  0
 63140  1  0  0  0
 64141  1  0  0  0
 65142  1  0  0  0
 68 73  1  0  0  0
 71 78  1  0  0  0
 71 79  2  0  0  0
 71 80  1  0  0  0
 72 79  1  0  0  0
 72 81  2  0  0  0
 72 83  1  0  0  0
 73 80  2  0  0  0
 73 81  1  0  0  0
 74 75  1  0  0  0
 74 77  1  0  0  0
 74143  1  0  0  0
 74144  1  0  0  0
 75 82  1  0  0  0
 75145  1  0  0  0
 75146  1  0  0  0
 76 77  1  0  0  0
 76 82  1  0  0  0
 76147  1  0  0  0
 76148  1  0  0  0
 77 83  1  0  0  0
 77149  1  0  0  0
 78150  1  0  0  0
 78151  1  0  0  0
 78152  1  0  0  0
 83153  1  0  0  0
M  ISO  4   1 100  68 101  73 101  82 100
M  END
> <chiral flag>
0

> <version>
0

> <s_m_source_file>
/data/baiqing/PycharmProjects/Reinvent-master-3.2/result/LINK_invent/BTK/process_docking_weight1_custom_sum_contain_oxygen_bond_distance_aromatic_linkinvent_7_9_3/rearranged_h_0192.sdf

> <i_m_source_file_index>
43

> <r_mmod_Potential_Energy-OPLS-2005>
279.982574462891

> <r_mmod_Stretch_Energy-OPLS-2005>
383.568695068359

> <r_mmod_Bend_Energy-OPLS-2005>
386.246734619141

> <r_mmod_Torsional_Energy-OPLS-2005>
289.253326416016

> <r_mmod_Improper_Torsional_Energy-OPLS-2005>
7.70505380630493

> <r_mmod_Van_der_Waal_Energy-OPLS-2005>
140.290237426758

> <r_mmod_Electrostatic_Energy-OPLS-2005>
-1045.11853027344

> <r_mmod_Solvation_Energy-OPLS-2005>
-239.379470825195

> <b_mmod_Minimization_Converged-OPLS-2005>
0

> <r_mmod_RMS_Derivative-OPLS-2005>
2.07455205917358

$$$$
43
                    3D
 Structure written by MMmdl.
159167  0  0  1  0            999 V2000
  -30.6393  -14.6867   20.5021 C   0  0  0  0  0  0
  -30.4321  -12.4292   19.4577 C   0  0  0  0  0  0
  -29.5055  -12.5192   18.2254 C   0  0  0  0  0  0
  -28.0300  -12.3512   18.6394 C   0  0  0  0  0  0
  -27.6495  -13.2270   19.8632 C   0  0  2  0  0  0
  -28.6976  -13.1007   20.9894 C   0  0  0  0  0  0
  -25.2550  -13.8198   20.5715 C   0  0  0  0  0  0
  -24.1826  -13.0446   20.9191 C   0  0  0  0  0  0
  -24.6406  -11.6920   20.8745 C   0  0  0  0  0  0
  -23.9079  -10.4297   21.0403 C   0  0  0  0  0  0
  -24.3622   -9.4209   21.9184 C   0  0  0  0  0  0
  -23.6294   -8.2248   22.0759 C   0  0  0  0  0  0
  -22.4279   -8.0285   21.3549 C   0  0  0  0  0  0
  -21.9918   -9.0259   20.4647 C   0  0  0  0  0  0
  -22.7251  -10.2136   20.3051 C   0  0  0  0  0  0
  -21.6850   -6.0738   22.5280 C   0  0  0  0  0  0
  -21.4011   -6.5640   23.8214 C   0  0  0  0  0  0
  -21.3661   -5.6794   24.9176 C   0  0  0  0  0  0
  -21.6043   -4.3057   24.7229 C   0  0  0  0  0  0
  -21.8820   -3.8150   23.4351 C   0  0  0  0  0  0
  -21.9193   -4.6966   22.3405 C   0  0  0  0  0  0
  -22.7845  -13.5226   21.1853 C   0  0  0  0  0  0
  -22.1660   -4.2148   21.0983 F   0  0  0  0  0  0
  -21.5633   -3.4542   25.7742 F   0  0  0  0  0  0
  -29.9975  -13.4708   20.4167 N   0  0  0  0  0  0
  -26.2983  -12.9396   20.3352 N   0  0  0  0  0  0
  -25.9338  -11.6534   20.5772 N   0  0  0  0  0  0
  -22.0489  -12.8204   22.0394 N   0  0  0  0  0  0
  -25.4276  -15.1921   20.4169 N   0  0  0  0  0  0
  -31.8058  -14.7849   20.1071 O   0  0  0  0  0  0
  -21.6640   -6.8884   21.4244 O   0  0  0  0  0  0
  -22.3529  -14.5544   20.6716 O   0  0  0  0  0  0
  -24.6295  -31.8581   23.2030 C   0  0  0  0  0  0
  -25.9139  -32.4767   23.8368 C   0  0  1  0  0  0
  -27.2210  -27.2947   20.1226 C   0  0  0  0  0  0
  -25.5947  -33.8568   24.2298 N   0  0  0  0  0  0
  -23.4243  -30.4836   21.5452 C   0  0  2  0  0  0
  -24.8710  -28.9402   20.1089 C   0  0  0  0  0  0
  -22.7487  -29.4618   22.4915 C   0  0  0  0  0  0
  -18.0289  -28.1373   22.8484 C   0  0  0  0  0  0
  -24.1482  -36.7283   23.2642 C   0  0  0  0  0  0
  -25.9683  -30.7819   21.3785 C   0  0  0  0  0  0
  -26.0413  -29.4086   20.7192 C   0  0  0  0  0  0
  -27.2184  -28.5977   20.7184 C   0  0  0  0  0  0
  -26.0299  -26.8961   19.4701 C   0  0  0  0  0  0
  -24.8694  -27.6907   19.4738 C   0  0  0  0  0  0
  -23.6408  -29.8233   20.1594 C   0  0  0  0  0  0
  -25.4108  -36.3081   24.0340 C   0  0  1  0  0  0
  -20.5894  -28.3687   23.1269 C   0  0  2  0  0  0
  -20.6776  -26.9411   22.5400 C   0  0  0  0  0  0
  -19.5752  -26.6386   21.5196 C   0  0  0  0  0  0
  -18.1930  -26.7921   22.1611 C   0  0  0  0  0  0
  -19.1543  -28.8844   23.2874 C   0  0  0  0  0  0
  -18.9464  -30.1440   23.8903 C   0  0  0  0  0  0
  -17.6466  -30.6583   24.0557 C   0  0  0  0  0  0
  -25.9052  -34.9444   23.5119 C   0  0  0  0  0  0
  -16.5353  -29.9081   23.6331 C   0  0  0  0  0  0
  -16.7274  -28.6490   23.0368 C   0  0  0  0  0  0
  -26.4523  -31.6576   25.0735 C   0  0  0  0  0  0
  -25.3758  -31.3665   26.1453 C   0  0  0  0  0  0
  -27.0392  -30.3014   24.6192 C   0  0  0  0  0  0
  -27.6080  -32.4313   25.7503 C   0  0  0  0  0  0
  -27.5584  -37.1804   24.8473 C   0  0  0  0  0  0
  -21.4199  -29.3039   22.3654 N   0  0  0  0  0  0
  -26.4290  -37.3778   23.9417 N   0  0  0  0  0  0
  -24.6929  -31.0577   22.0991 N   0  0  0  0  0  0
  -23.4198  -28.8152   23.2997 O   0  0  0  0  0  0
  -28.3205  -26.4142   20.2002 O   0  0  0  0  0  0
  -26.5618  -34.8917   22.4687 O   0  0  0  0  0  0
  -23.5452  -32.1387   23.7346 O   0  0  0  0  0  0
  -29.0506  -17.8170   21.8847 C   0  0  0  0  0  0
  -29.4531  -16.3230   22.0027 C   0  0  0  0  0  0
  -29.9919  -17.0890   19.8427 C   0  0  0  0  0  0
  -29.8620  -18.3941   20.7272 C   0  0  1  0  0  0
  -31.0851  -21.4954   20.7339 C   0  0  0  0  0  0
  -29.2940  -19.7549   20.0659 C   0  0  0  0  0  0
  -29.0967  -23.8317   20.5028 C   0  0  0  0  0  0
  -28.0840  -24.9556   19.9720 C   0  0  0  0  0  0
  -29.5697  -21.2080   20.7158 C   0  0  2  0  0  0
  -29.8783  -15.8392   20.6779 N   0  0  0  0  0  0
  -28.8043  -22.3798   20.0857 N   0  3  0  0  0  0
  -31.4721  -12.5498   19.1507 H   0  0  0  0  0  0
  -30.3717  -11.4404   19.9143 H   0  0  0  0  0  0
  -29.7765  -11.7616   17.4887 H   0  0  0  0  0  0
  -29.6399  -13.4846   17.7342 H   0  0  0  0  0  0
  -27.8734  -11.2985   18.8765 H   0  0  0  0  0  0
  -27.3737  -12.5744   17.7974 H   0  0  0  0  0  0
  -27.6613  -14.2617   19.5192 H   0  0  0  0  0  0
  -28.7297  -12.0796   21.3722 H   0  0  0  0  0  0
  -28.4350  -13.7208   21.8415 H   0  0  0  0  0  0
  -25.2764   -9.5688   22.4763 H   0  0  0  0  0  0
  -24.0002   -7.4642   22.7480 H   0  0  0  0  0  0
  -21.0852   -8.8780   19.8948 H   0  0  0  0  0  0
  -22.3711  -10.9677   19.6163 H   0  0  0  0  0  0
  -21.1997   -7.6145   23.9714 H   0  0  0  0  0  0
  -21.1480   -6.0526   25.9080 H   0  0  0  0  0  0
  -22.0598   -2.7610   23.2853 H   0  0  0  0  0  0
  -22.4100  -11.9853   22.4757 H   0  0  0  0  0  0
  -21.1107  -13.1228   22.2607 H   0  0  0  0  0  0
  -24.6682  -15.8533   20.5363 H   0  0  0  0  0  0
  -26.2947  -15.6309   20.1330 H   0  0  0  0  0  0
  -26.7198  -32.5436   23.1107 H   0  0  0  0  0  0
  -25.0105  -33.9688   25.0456 H   0  0  0  0  0  0
  -22.7212  -31.3068   21.4038 H   0  0  0  0  0  0
  -23.3761  -35.9599   23.3285 H   0  0  0  0  0  0
  -24.3572  -36.8929   22.2061 H   0  0  0  0  0  0
  -23.7210  -37.6471   23.6672 H   0  0  0  0  0  0
  -26.1052  -31.5441   20.6101 H   0  0  0  0  0  0
  -26.8468  -30.8284   22.0101 H   0  0  0  0  0  0
  -28.1126  -28.9496   21.2153 H   0  0  0  0  0  0
  -25.9570  -25.9492   18.9570 H   0  0  0  0  0  0
  -23.9754  -27.3301   18.9830 H   0  0  0  0  0  0
  -23.7620  -30.6036   19.4069 H   0  0  0  0  0  0
  -22.7585  -29.2570   19.8544 H   0  0  0  0  0  0
  -25.1283  -36.1941   25.0832 H   0  0  0  0  0  0
  -20.9984  -28.3259   24.1389 H   0  0  0  0  0  0
  -20.5662  -26.2298   23.3592 H   0  0  0  0  0  0
  -21.6644  -26.7422   22.1204 H   0  0  0  0  0  0
  -19.6916  -25.6297   21.1228 H   0  0  0  0  0  0
  -19.6699  -27.3186   20.6721 H   0  0  0  0  0  0
  -17.4205  -26.6677   21.4008 H   0  0  0  0  0  0
  -18.0327  -26.0049   22.8988 H   0  0  0  0  0  0
  -19.7937  -30.7246   24.2291 H   0  0  0  0  0  0
  -17.5024  -31.6267   24.5150 H   0  0  0  0  0  0
  -15.5355  -30.2993   23.7652 H   0  0  0  0  0  0
  -15.8670  -28.0806   22.7107 H   0  0  0  0  0  0
  -24.5973  -30.6974   25.7772 H   0  0  0  0  0  0
  -24.8889  -32.2787   26.4901 H   0  0  0  0  0  0
  -25.8100  -30.8844   27.0221 H   0  0  0  0  0  0
  -26.2969  -29.6725   24.1260 H   0  0  0  0  0  0
  -27.4156  -29.7309   25.4697 H   0  0  0  0  0  0
  -27.8808  -30.4328   23.9386 H   0  0  0  0  0  0
  -27.2726  -33.3656   26.2014 H   0  0  0  0  0  0
  -28.3919  -32.6796   25.0334 H   0  0  0  0  0  0
  -28.0708  -31.8468   26.5465 H   0  0  0  0  0  0
  -28.2594  -38.0114   24.7551 H   0  0  0  0  0  0
  -28.1097  -36.2650   24.6270 H   0  0  0  0  0  0
  -27.2305  -37.1415   25.8878 H   0  0  0  0  0  0
  -20.9372  -29.8792   21.6894 H   0  0  0  0  0  0
  -26.0179  -38.2859   24.1421 H   0  0  0  0  0  0
  -29.2110  -18.3620   22.8160 H   0  0  0  0  0  0
  -27.9862  -17.8827   21.6547 H   0  0  0  0  0  0
  -28.6175  -15.7542   22.4062 H   0  0  0  0  0  0
  -30.2843  -16.2168   22.7024 H   0  0  0  0  0  0
  -30.9232  -17.1079   19.2731 H   0  0  0  0  0  0
  -29.1844  -17.0596   19.1098 H   0  0  0  0  0  0
  -30.8657  -18.5948   21.1031 H   0  0  0  0  0  0
  -31.6333  -20.7109   21.2541 H   0  0  0  0  0  0
  -31.3201  -22.4237   21.2544 H   0  0  0  0  0  0
  -31.4900  -21.5668   19.7242 H   0  0  0  0  0  0
  -28.2167  -19.6371   19.9455 H   0  0  0  0  0  0
  -29.6805  -19.7920   19.0467 H   0  0  0  0  0  0
  -29.1270  -23.8785   21.5917 H   0  0  0  0  0  0
  -30.0973  -24.0910   20.1585 H   0  0  0  0  0  0
  -27.1176  -24.6951   20.4051 H   0  0  0  0  0  0
  -27.9848  -24.8256   18.8941 H   0  0  0  0  0  0
  -29.2385  -21.1626   21.7545 H   0  0  0  0  0  0
  -28.9234  -22.3249   19.0856 H   0  0  0  0  0  0
  -27.8257  -22.2046   20.2583 H   0  0  0  0  0  0
  1 25  1  0  0  0
  1 30  2  0  0  0
  1 80  1  0  0  0
  2  3  1  0  0  0
  2 25  1  0  0  0
  2 82  1  0  0  0
  2 83  1  0  0  0
  3  4  1  0  0  0
  3 84  1  0  0  0
  3 85  1  0  0  0
  4  5  1  0  0  0
  4 86  1  0  0  0
  4 87  1  0  0  0
  5  6  1  0  0  0
  5 26  1  0  0  0
  5 88  1  0  0  0
  6 25  1  0  0  0
  6 89  1  0  0  0
  6 90  1  0  0  0
  7  8  2  0  0  0
  7 26  1  0  0  0
  7 29  1  0  0  0
  8  9  1  0  0  0
  8 22  1  0  0  0
  9 10  1  0  0  0
  9 27  2  0  0  0
 10 11  2  0  0  0
 10 15  1  0  0  0
 11 12  1  0  0  0
 11 91  1  0  0  0
 12 13  2  0  0  0
 12 92  1  0  0  0
 13 14  1  0  0  0
 13 31  1  0  0  0
 14 15  2  0  0  0
 14 93  1  0  0  0
 15 94  1  0  0  0
 16 17  2  0  0  0
 16 21  1  0  0  0
 16 31  1  0  0  0
 17 18  1  0  0  0
 17 95  1  0  0  0
 18 19  2  0  0  0
 18 96  1  0  0  0
 19 20  1  0  0  0
 19 24  1  0  0  0
 20 21  2  0  0  0
 20 97  1  0  0  0
 21 23  1  0  0  0
 22 28  1  0  0  0
 22 32  2  0  0  0
 26 27  1  0  0  0
 28 98  1  0  0  0
 28 99  1  0  0  0
 29100  1  0  0  0
 29101  1  0  0  0
 33 34  1  0  0  0
 33 66  1  0  0  0
 33 70  2  0  0  0
 34 36  1  0  0  0
 34 59  1  0  0  0
 34102  1  0  0  0
 35 44  2  0  0  0
 35 45  1  0  0  0
 35 68  1  0  0  0
 36 56  1  0  0  0
 36103  1  0  0  0
 37 39  1  0  0  0
 37 47  1  0  0  0
 37 66  1  0  0  0
 37104  1  0  0  0
 38 43  2  0  0  0
 38 46  1  0  0  0
 38 47  1  0  0  0
 39 64  1  0  0  0
 39 67  2  0  0  0
 40 52  1  0  0  0
 40 53  2  0  0  0
 40 58  1  0  0  0
 41105  1  0  0  0
 41106  1  0  0  0
 41107  1  0  0  0
 41 48  1  0  0  0
 42 43  1  0  0  0
 42 66  1  0  0  0
 42108  1  0  0  0
 42109  1  0  0  0
 43 44  1  0  0  0
 44110  1  0  0  0
 45 46  2  0  0  0
 45111  1  0  0  0
 46112  1  0  0  0
 47113  1  0  0  0
 47114  1  0  0  0
 48 56  1  0  0  0
 48 65  1  0  0  0
 48115  1  0  0  0
 49 50  1  0  0  0
 49 53  1  0  0  0
 49 64  1  0  0  0
 49116  1  0  0  0
 50 51  1  0  0  0
 50117  1  0  0  0
 50118  1  0  0  0
 51 52  1  0  0  0
 51119  1  0  0  0
 51120  1  0  0  0
 52121  1  0  0  0
 52122  1  0  0  0
 53 54  1  0  0  0
 54 55  2  0  0  0
 54123  1  0  0  0
 55 57  1  0  0  0
 55124  1  0  0  0
 56 69  2  0  0  0
 57 58  2  0  0  0
 57125  1  0  0  0
 58126  1  0  0  0
 59 60  1  0  0  0
 59 61  1  0  0  0
 59 62  1  0  0  0
 60127  1  0  0  0
 60128  1  0  0  0
 60129  1  0  0  0
 61130  1  0  0  0
 61131  1  0  0  0
 61132  1  0  0  0
 62133  1  0  0  0
 62134  1  0  0  0
 62135  1  0  0  0
 63 65  1  0  0  0
 63136  1  0  0  0
 63137  1  0  0  0
 63138  1  0  0  0
 64139  1  0  0  0
 65140  1  0  0  0
 68 78  1  0  0  0
 71 72  1  0  0  0
 71 74  1  0  0  0
 71141  1  0  0  0
 71142  1  0  0  0
 72 80  1  0  0  0
 72143  1  0  0  0
 72144  1  0  0  0
 73 74  1  0  0  0
 73 80  1  0  0  0
 73145  1  0  0  0
 73146  1  0  0  0
 74 76  1  0  0  0
 74147  1  0  0  0
 75148  1  0  0  0
 75149  1  0  0  0
 75150  1  0  0  0
 75 79  1  0  0  0
 76 79  1  0  0  0
 76151  1  0  0  0
 76152  1  0  0  0
 77 78  1  0  0  0
 77 81  1  0  0  0
 77153  1  0  0  0
 77154  1  0  0  0
 78155  1  0  0  0
 78156  1  0  0  0
 79 81  1  0  0  0
 79157  1  0  0  0
 81158  1  0  0  0
 81159  1  0  0  0
M  CHG  1  81   1
M  ISO  4   1 100  68 101  78 101  80 100
M  END
> <chiral flag>
0

> <version>
0

> <s_m_source_file>
/data/baiqing/PycharmProjects/Reinvent-master-3.2/result/LINK_invent/BTK/process_docking_weight1_custom_sum_contain_oxygen_bond_distance_aromatic_linkinvent_7_9_3/rearranged_h_0192.sdf

> <i_m_source_file_index>
44

> <r_mmod_Potential_Energy-OPLS-2005>
203.690673828125

> <r_mmod_Stretch_Energy-OPLS-2005>
103.158081054688

> <r_mmod_Bend_Energy-OPLS-2005>
171.780944824219

> <r_mmod_Torsional_Energy-OPLS-2005>
331.702667236328

> <r_mmod_Improper_Torsional_Energy-OPLS-2005>
12.2709445953369

> <r_mmod_Van_der_Waal_Energy-OPLS-2005>
121.463775634766

> <r_mmod_Electrostatic_Energy-OPLS-2005>
-159.39079284668

> <r_mmod_Solvation_Energy-OPLS-2005>
-439.925811767578

> <b_mmod_Minimization_Converged-OPLS-2005>
0

> <r_mmod_RMS_Derivative-OPLS-2005>
1.36560916900635

$$$$
44
                    3D
 Structure written by MMmdl.
155163  0  0  1  0            999 V2000
  -30.6697  -14.5143   20.5646 C   0  0  0  0  0  0
  -30.4310  -12.3346   19.4280 C   0  0  0  0  0  0
  -29.4977  -12.5065   18.2102 C   0  0  0  0  0  0
  -28.0208  -12.3532   18.6275 C   0  0  0  0  0  0
  -27.6586  -13.2060   19.8730 C   0  0  2  0  0  0
  -28.6987  -13.0024   20.9964 C   0  0  0  0  0  0
  -25.2567  -13.8120   20.5727 C   0  0  0  0  0  0
  -24.1807  -13.0406   20.9155 C   0  0  0  0  0  0
  -24.6384  -11.6880   20.8714 C   0  0  0  0  0  0
  -23.9063  -10.4274   21.0397 C   0  0  0  0  0  0
  -24.3609   -9.4187   21.9179 C   0  0  0  0  0  0
  -23.6268   -8.2234   22.0742 C   0  0  0  0  0  0
  -22.4251   -8.0290   21.3528 C   0  0  0  0  0  0
  -21.9886   -9.0263   20.4626 C   0  0  0  0  0  0
  -22.7240  -10.2126   20.3037 C   0  0  0  0  0  0
  -21.6855   -6.0725   22.5285 C   0  0  0  0  0  0
  -21.4035   -6.5614   23.8224 C   0  0  0  0  0  0
  -21.3645   -5.6756   24.9177 C   0  0  0  0  0  0
  -21.6027   -4.3015   24.7226 C   0  0  0  0  0  0
  -21.8823   -3.8123   23.4350 C   0  0  0  0  0  0
  -21.9191   -4.6950   22.3405 C   0  0  0  0  0  0
  -22.7844  -13.5241   21.1821 C   0  0  0  0  0  0
  -22.1666   -4.2141   21.0989 F   0  0  0  0  0  0
  -21.5615   -3.4495   25.7737 F   0  0  0  0  0  0
  -30.0262  -13.3219   20.4432 N   0  0  0  0  0  0
  -26.2987  -12.9309   20.3344 N   0  0  0  0  0  0
  -25.9298  -11.6475   20.5729 N   0  0  0  0  0  0
  -22.0439  -12.8277   22.0360 N   0  0  0  0  0  0
  -25.4294  -15.1835   20.4302 N   0  0  0  0  0  0
  -31.8021  -14.7098   20.1131 O   0  0  0  0  0  0
  -21.6629   -6.8888   21.4247 O   0  0  0  0  0  0
  -22.3580  -14.5580   20.6680 O   0  0  0  0  0  0
  -24.6213  -31.8655   23.2049 C   0  0  0  0  0  0
  -25.9087  -32.4808   23.8371 C   0  0  1  0  0  0
  -27.2332  -27.3799   20.1049 C   0  0  0  0  0  0
  -25.5915  -33.8603   24.2312 N   0  0  0  0  0  0
  -23.4109  -30.4890   21.5460 C   0  0  2  0  0  0
  -24.8543  -28.9479   20.1126 C   0  0  0  0  0  0
  -22.7461  -29.4651   22.4960 C   0  0  0  0  0  0
  -18.0291  -28.1395   22.8494 C   0  0  0  0  0  0
  -24.1480  -36.7297   23.2635 C   0  0  0  0  0  0
  -25.9447  -30.8160   21.3638 C   0  0  0  0  0  0
  -26.0183  -29.4455   20.7093 C   0  0  0  0  0  0
  -27.2056  -28.6719   20.6946 C   0  0  0  0  0  0
  -26.0383  -26.9034   19.5124 C   0  0  0  0  0  0
  -24.8625  -27.6807   19.5079 C   0  0  0  0  0  0
  -23.6197  -29.8215   20.1609 C   0  0  0  0  0  0
  -25.4102  -36.3099   24.0342 C   0  0  1  0  0  0
  -20.5889  -28.3688   23.1295 C   0  0  2  0  0  0
  -20.6771  -26.9414   22.5404 C   0  0  0  0  0  0
  -19.5738  -26.6396   21.5211 C   0  0  0  0  0  0
  -18.1928  -26.7937   22.1634 C   0  0  0  0  0  0
  -19.1543  -28.8852   23.2887 C   0  0  0  0  0  0
  -18.9462  -30.1459   23.8909 C   0  0  0  0  0  0
  -17.6464  -30.6585   24.0564 C   0  0  0  0  0  0
  -25.9042  -34.9468   23.5128 C   0  0  0  0  0  0
  -16.5354  -29.9090   23.6321 C   0  0  0  0  0  0
  -16.7278  -28.6499   23.0343 C   0  0  0  0  0  0
  -26.4484  -31.6598   25.0717 C   0  0  0  0  0  0
  -25.3728  -31.3735   26.1456 C   0  0  0  0  0  0
  -27.0304  -30.3026   24.6123 C   0  0  0  0  0  0
  -27.6060  -32.4318   25.7479 C   0  0  0  0  0  0
  -27.5588  -37.1802   24.8464 C   0  0  0  0  0  0
  -21.4176  -29.3040   22.3692 N   0  0  0  0  0  0
  -26.4286  -37.3788   23.9424 N   0  0  0  0  0  0
  -24.6781  -31.0725   22.0960 N   0  0  0  0  0  0
  -23.4206  -28.8200   23.3009 O   0  0  0  0  0  0
  -28.4168  -26.6486   20.1262 O   0  0  0  0  0  0
  -26.5586  -34.8927   22.4682 O   0  0  0  0  0  0
  -23.5394  -32.1418   23.7419 O   0  0  0  0  0  0
  -28.7401  -20.8896   19.0568 C   0  0  0  0  0  0
  -28.9038  -21.8395   20.2342 C   0  0  2  0  0  0
  -28.4890  -20.3677   20.4504 C   0  0  2  0  0  0
  -30.3208  -16.9573   21.1937 C   0  0  0  0  0  0
  -28.2667  -24.2143   20.8512 C   0  0  0  0  0  0
  -29.1871  -17.9631   20.7883 C   0  0  0  0  0  0
  -28.4734  -25.2575   19.7052 C   0  0  0  0  0  0
  -29.9362  -15.5273   21.0790 N   0  0  0  0  0  0
  -27.8609  -22.8650   20.4062 N   0  0  0  0  0  0
  -29.5311  -19.4143   20.9496 N   0  3  0  0  0  0
  -31.4733  -12.4498   19.1261 H   0  0  0  0  0  0
  -30.3511  -11.3262   19.8361 H   0  0  0  0  0  0
  -29.7443  -11.7769   17.4375 H   0  0  0  0  0  0
  -29.6502  -13.4892   17.7618 H   0  0  0  0  0  0
  -27.8453  -11.2987   18.8408 H   0  0  0  0  0  0
  -27.3714  -12.6088   17.7903 H   0  0  0  0  0  0
  -27.6991  -14.2516   19.5667 H   0  0  0  0  0  0
  -28.6825  -11.9685   21.3430 H   0  0  0  0  0  0
  -28.4518  -13.6023   21.8732 H   0  0  0  0  0  0
  -25.2750   -9.5627   22.4766 H   0  0  0  0  0  0
  -23.9906   -7.4617   22.7483 H   0  0  0  0  0  0
  -21.0785   -8.8837   19.8967 H   0  0  0  0  0  0
  -22.3724  -10.9671   19.6144 H   0  0  0  0  0  0
  -21.2073   -7.6117   23.9737 H   0  0  0  0  0  0
  -21.1448   -6.0479   25.9082 H   0  0  0  0  0  0
  -22.0612   -2.7589   23.2856 H   0  0  0  0  0  0
  -22.4035  -11.9947   22.4785 H   0  0  0  0  0  0
  -21.1075  -13.1405   22.2566 H   0  0  0  0  0  0
  -24.6675  -15.8358   20.5785 H   0  0  0  0  0  0
  -26.2859  -15.6327   20.1368 H   0  0  0  0  0  0
  -26.7163  -32.5506   23.1141 H   0  0  0  0  0  0
  -25.0094  -33.9742   25.0479 H   0  0  0  0  0  0
  -22.7015  -31.3074   21.4061 H   0  0  0  0  0  0
  -23.3754  -35.9618   23.3288 H   0  0  0  0  0  0
  -24.3579  -36.8916   22.2052 H   0  0  0  0  0  0
  -23.7219  -37.6497   23.6639 H   0  0  0  0  0  0
  -26.0648  -31.5819   20.5968 H   0  0  0  0  0  0
  -26.8303  -30.8671   21.9857 H   0  0  0  0  0  0
  -28.1079  -29.0570   21.1490 H   0  0  0  0  0  0
  -25.9734  -25.9319   19.0505 H   0  0  0  0  0  0
  -23.9656  -27.2937   19.0432 H   0  0  0  0  0  0
  -23.7321  -30.5961   19.4010 H   0  0  0  0  0  0
  -22.7418  -29.2453   19.8636 H   0  0  0  0  0  0
  -25.1276  -36.1962   25.0833 H   0  0  0  0  0  0
  -20.9983  -28.3261   24.1416 H   0  0  0  0  0  0
  -20.5684  -26.2297   23.3599 H   0  0  0  0  0  0
  -21.6642  -26.7452   22.1190 H   0  0  0  0  0  0
  -19.6888  -25.6311   21.1225 H   0  0  0  0  0  0
  -19.6665  -27.3219   20.6745 H   0  0  0  0  0  0
  -17.4193  -26.6698   21.4037 H   0  0  0  0  0  0
  -18.0322  -26.0083   22.9031 H   0  0  0  0  0  0
  -19.7936  -30.7270   24.2294 H   0  0  0  0  0  0
  -17.5009  -31.6267   24.5171 H   0  0  0  0  0  0
  -15.5354  -30.2984   23.7627 H   0  0  0  0  0  0
  -15.8686  -28.0811   22.7056 H   0  0  0  0  0  0
  -24.5889  -30.7098   25.7789 H   0  0  0  0  0  0
  -24.8935  -32.2904   26.4892 H   0  0  0  0  0  0
  -25.8063  -30.8904   27.0222 H   0  0  0  0  0  0
  -26.2860  -29.6814   24.1133 H   0  0  0  0  0  0
  -27.4004  -29.7241   25.4598 H   0  0  0  0  0  0
  -27.8718  -30.4319   23.9315 H   0  0  0  0  0  0
  -27.2680  -33.3606   26.2084 H   0  0  0  0  0  0
  -28.3849  -32.6918   25.0298 H   0  0  0  0  0  0
  -28.0747  -31.8435   26.5374 H   0  0  0  0  0  0
  -28.2595  -38.0109   24.7543 H   0  0  0  0  0  0
  -28.1100  -36.2656   24.6245 H   0  0  0  0  0  0
  -27.2314  -37.1397   25.8864 H   0  0  0  0  0  0
  -20.9361  -29.8753   21.6899 H   0  0  0  0  0  0
  -26.0183  -38.2867   24.1432 H   0  0  0  0  0  0
  -29.6422  -20.5694   18.5383 H   0  0  0  0  0  0
  -27.8714  -21.0032   18.4099 H   0  0  0  0  0  0
  -29.9322  -22.0897   20.4993 H   0  0  0  0  0  0
  -27.4750  -20.1439   20.7790 H   0  0  0  0  0  0
  -30.6171  -17.1300   22.2289 H   0  0  0  0  0  0
  -31.2079  -17.1586   20.5902 H   0  0  0  0  0  0
  -27.4523  -24.5782   21.4811 H   0  0  0  0  0  0
  -29.1436  -24.1634   21.5011 H   0  0  0  0  0  0
  -28.2965  -17.7550   21.3847 H   0  0  0  0  0  0
  -28.9103  -17.7934   19.7473 H   0  0  0  0  0  0
  -27.8248  -25.0525   18.8585 H   0  0  0  0  0  0
  -29.4754  -25.1026   19.3038 H   0  0  0  0  0  0
  -29.0252  -15.2675   21.4283 H   0  0  0  0  0  0
  -27.2864  -22.9471   19.5691 H   0  0  0  0  0  0
  -29.6714  -19.5936   21.9308 H   0  0  0  0  0  0
  -30.4037  -19.6054   20.4873 H   0  0  0  0  0  0
  1 25  1  0  0  0
  1 30  2  0  0  0
  1 78  1  0  0  0
  2  3  1  0  0  0
  2 25  1  0  0  0
  2 81  1  0  0  0
  2 82  1  0  0  0
  3  4  1  0  0  0
  3 83  1  0  0  0
  3 84  1  0  0  0
  4  5  1  0  0  0
  4 85  1  0  0  0
  4 86  1  0  0  0
  5  6  1  0  0  0
  5 26  1  0  0  0
  5 87  1  0  0  0
  6 25  1  0  0  0
  6 88  1  0  0  0
  6 89  1  0  0  0
  7  8  2  0  0  0
  7 26  1  0  0  0
  7 29  1  0  0  0
  8  9  1  0  0  0
  8 22  1  0  0  0
  9 10  1  0  0  0
  9 27  2  0  0  0
 10 11  2  0  0  0
 10 15  1  0  0  0
 11 12  1  0  0  0
 11 90  1  0  0  0
 12 13  2  0  0  0
 12 91  1  0  0  0
 13 14  1  0  0  0
 13 31  1  0  0  0
 14 15  2  0  0  0
 14 92  1  0  0  0
 15 93  1  0  0  0
 16 17  2  0  0  0
 16 21  1  0  0  0
 16 31  1  0  0  0
 17 18  1  0  0  0
 17 94  1  0  0  0
 18 19  2  0  0  0
 18 95  1  0  0  0
 19 20  1  0  0  0
 19 24  1  0  0  0
 20 21  2  0  0  0
 20 96  1  0  0  0
 21 23  1  0  0  0
 22 28  1  0  0  0
 22 32  2  0  0  0
 26 27  1  0  0  0
 28 97  1  0  0  0
 28 98  1  0  0  0
 29 99  1  0  0  0
 29100  1  0  0  0
 33 34  1  0  0  0
 33 66  1  0  0  0
 33 70  2  0  0  0
 34 36  1  0  0  0
 34 59  1  0  0  0
 34101  1  0  0  0
 35 44  2  0  0  0
 35 45  1  0  0  0
 35 68  1  0  0  0
 36 56  1  0  0  0
 36102  1  0  0  0
 37 39  1  0  0  0
 37 47  1  0  0  0
 37 66  1  0  0  0
 37103  1  0  0  0
 38 43  2  0  0  0
 38 46  1  0  0  0
 38 47  1  0  0  0
 39 64  1  0  0  0
 39 67  2  0  0  0
 40 52  1  0  0  0
 40 53  2  0  0  0
 40 58  1  0  0  0
 41104  1  0  0  0
 41105  1  0  0  0
 41106  1  0  0  0
 41 48  1  0  0  0
 42 43  1  0  0  0
 42 66  1  0  0  0
 42107  1  0  0  0
 42108  1  0  0  0
 43 44  1  0  0  0
 44109  1  0  0  0
 45 46  2  0  0  0
 45110  1  0  0  0
 46111  1  0  0  0
 47112  1  0  0  0
 47113  1  0  0  0
 48 56  1  0  0  0
 48 65  1  0  0  0
 48114  1  0  0  0
 49 50  1  0  0  0
 49 53  1  0  0  0
 49 64  1  0  0  0
 49115  1  0  0  0
 50 51  1  0  0  0
 50116  1  0  0  0
 50117  1  0  0  0
 51 52  1  0  0  0
 51118  1  0  0  0
 51119  1  0  0  0
 52120  1  0  0  0
 52121  1  0  0  0
 53 54  1  0  0  0
 54 55  2  0  0  0
 54122  1  0  0  0
 55 57  1  0  0  0
 55123  1  0  0  0
 56 69  2  0  0  0
 57 58  2  0  0  0
 57124  1  0  0  0
 58125  1  0  0  0
 59 60  1  0  0  0
 59 61  1  0  0  0
 59 62  1  0  0  0
 60126  1  0  0  0
 60127  1  0  0  0
 60128  1  0  0  0
 61129  1  0  0  0
 61130  1  0  0  0
 61131  1  0  0  0
 62132  1  0  0  0
 62133  1  0  0  0
 62134  1  0  0  0
 63 65  1  0  0  0
 63135  1  0  0  0
 63136  1  0  0  0
 63137  1  0  0  0
 64138  1  0  0  0
 65139  1  0  0  0
 68 77  1  0  0  0
 71 72  1  0  0  0
 71 73  1  0  0  0
 71140  1  0  0  0
 71141  1  0  0  0
 72 73  1  0  0  0
 72 79  1  0  0  0
 72142  1  0  0  0
 73 80  1  0  0  0
 73143  1  0  0  0
 74 76  1  0  0  0
 74 78  1  0  0  0
 74144  1  0  0  0
 74145  1  0  0  0
 75 77  1  0  0  0
 75 79  1  0  0  0
 75146  1  0  0  0
 75147  1  0  0  0
 76 80  1  0  0  0
 76148  1  0  0  0
 76149  1  0  0  0
 77150  1  0  0  0
 77151  1  0  0  0
 78152  1  0  0  0
 79153  1  0  0  0
 80154  1  0  0  0
 80155  1  0  0  0
M  CHG  1  80   1
M  ISO  4   1 100  68 101  77 101  78 100
M  END
> <chiral flag>
0

> <version>
0

> <s_m_source_file>
/data/baiqing/PycharmProjects/Reinvent-master-3.2/result/LINK_invent/BTK/process_docking_weight1_custom_sum_contain_oxygen_bond_distance_aromatic_linkinvent_7_9_3/rearranged_h_0192.sdf

> <i_m_source_file_index>
45

> <r_mmod_Potential_Energy-OPLS-2005>
-216.738967895508

> <r_mmod_Stretch_Energy-OPLS-2005>
47.0443725585938

> <r_mmod_Bend_Energy-OPLS-2005>
122.201133728027

> <r_mmod_Torsional_Energy-OPLS-2005>
245.493316650391

> <r_mmod_Improper_Torsional_Energy-OPLS-2005>
3.10277700424194

> <r_mmod_Van_der_Waal_Energy-OPLS-2005>
127.164199829102

> <r_mmod_Electrostatic_Energy-OPLS-2005>
-280.529754638672

> <r_mmod_Solvation_Energy-OPLS-2005>
-501.175140380859

> <b_mmod_Minimization_Converged-OPLS-2005>
0

> <r_mmod_RMS_Derivative-OPLS-2005>
3.75754618644714

$$$$
45
                    3D
 Structure written by MMmdl.
165174  0  0  1  0            999 V2000
  -30.6782  -14.6093   20.4813 C   0  0  0  0  0  0
  -30.4143  -12.3774   19.4466 C   0  0  0  0  0  0
  -29.4936  -12.5041   18.2163 C   0  0  0  0  0  0
  -28.0182  -12.3530   18.6316 C   0  0  0  0  0  0
  -27.6443  -13.2264   19.8598 C   0  0  2  0  0  0
  -28.6919  -13.1192   20.9892 C   0  0  0  0  0  0
  -25.2517  -13.8193   20.5718 C   0  0  0  0  0  0
  -24.1800  -13.0446   20.9198 C   0  0  0  0  0  0
  -24.6382  -11.6912   20.8746 C   0  0  0  0  0  0
  -23.9060  -10.4293   21.0405 C   0  0  0  0  0  0
  -24.3605   -9.4210   21.9189 C   0  0  0  0  0  0
  -23.6285   -8.2243   22.0758 C   0  0  0  0  0  0
  -22.4266   -8.0282   21.3545 C   0  0  0  0  0  0
  -21.9907   -9.0250   20.4637 C   0  0  0  0  0  0
  -22.7234  -10.2132   20.3050 C   0  0  0  0  0  0
  -21.6850   -6.0731   22.5274 C   0  0  0  0  0  0
  -21.4014   -6.5635   23.8209 C   0  0  0  0  0  0
  -21.3660   -5.6791   24.9169 C   0  0  0  0  0  0
  -21.6044   -4.3050   24.7218 C   0  0  0  0  0  0
  -21.8821   -3.8144   23.4341 C   0  0  0  0  0  0
  -21.9190   -4.6959   22.3398 C   0  0  0  0  0  0
  -22.7821  -13.5227   21.1859 C   0  0  0  0  0  0
  -22.1661   -4.2145   21.0973 F   0  0  0  0  0  0
  -21.5628   -3.4537   25.7735 F   0  0  0  0  0  0
  -30.0024  -13.4226   20.4038 N   0  0  0  0  0  0
  -26.2953  -12.9392   20.3348 N   0  0  0  0  0  0
  -25.9314  -11.6536   20.5777 N   0  0  0  0  0  0
  -22.0460  -12.8205   22.0395 N   0  0  0  0  0  0
  -25.4243  -15.1921   20.4165 N   0  0  0  0  0  0
  -31.8685  -14.6789   20.1603 O   0  0  0  0  0  0
  -21.6636   -6.8875   21.4239 O   0  0  0  0  0  0
  -22.3518  -14.5553   20.6734 O   0  0  0  0  0  0
  -24.6241  -31.8589   23.2020 C   0  0  0  0  0  0
  -25.9104  -32.4767   23.8339 C   0  0  1  0  0  0
  -27.2309  -27.3494   20.0978 C   0  0  0  0  0  0
  -25.5944  -33.8570   24.2278 N   0  0  0  0  0  0
  -23.4138  -30.4791   21.5468 C   0  0  2  0  0  0
  -24.8582  -28.9322   20.1104 C   0  0  0  0  0  0
  -22.7446  -29.4614   22.4988 C   0  0  0  0  0  0
  -18.0284  -28.1380   22.8501 C   0  0  0  0  0  0
  -24.1484  -36.7271   23.2622 C   0  0  0  0  0  0
  -25.9492  -30.7971   21.3645 C   0  0  0  0  0  0
  -26.0242  -29.4260   20.7077 C   0  0  0  0  0  0
  -27.2090  -28.6412   20.6987 C   0  0  0  0  0  0
  -26.0371  -26.8843   19.5024 C   0  0  0  0  0  0
  -24.8631  -27.6636   19.5071 C   0  0  0  0  0  0
  -23.6217  -29.8048   20.1647 C   0  0  0  0  0  0
  -25.4106  -36.3059   24.0319 C   0  0  1  0  0  0
  -20.5873  -28.3672   23.1313 C   0  0  2  0  0  0
  -20.6770  -26.9408   22.5414 C   0  0  0  0  0  0
  -19.5746  -26.6395   21.5217 C   0  0  0  0  0  0
  -18.1923  -26.7940   22.1613 C   0  0  0  0  0  0
  -19.1532  -28.8851   23.2899 C   0  0  0  0  0  0
  -18.9450  -30.1467   23.8889 C   0  0  0  0  0  0
  -17.6449  -30.6590   24.0566 C   0  0  0  0  0  0
  -25.9054  -34.9439   23.5092 C   0  0  0  0  0  0
  -16.5346  -29.9074   23.6351 C   0  0  0  0  0  0
  -16.7271  -28.6495   23.0369 C   0  0  0  0  0  0
  -26.4506  -31.6587   25.0716 C   0  0  0  0  0  0
  -25.3748  -31.3685   26.1448 C   0  0  0  0  0  0
  -27.0367  -30.3029   24.6141 C   0  0  0  0  0  0
  -27.6058  -32.4334   25.7500 C   0  0  0  0  0  0
  -27.5594  -37.1760   24.8441 C   0  0  0  0  0  0
  -21.4168  -29.3024   22.3716 N   0  0  0  0  0  0
  -26.4267  -37.3778   23.9438 N   0  0  0  0  0  0
  -24.6813  -31.0611   22.0954 N   0  0  0  0  0  0
  -23.4181  -28.8171   23.3071 O   0  0  0  0  0  0
  -28.3776  -26.5562   20.1666 O   0  0  0  0  0  0
  -26.5600  -34.8904   22.4642 O   0  0  0  0  0  0
  -23.5421  -32.1403   23.7367 O   0  0  0  0  0  0
  -28.6595  -23.9647   19.7076 C   0  0  0  0  0  0
  -29.2822  -22.9338   18.9337 C   0  0  0  0  0  0
  -28.6572  -21.3670   20.4890 C   0  0  0  0  0  0
  -28.7332  -17.8250   19.6876 C   0  0  0  0  0  0
  -29.6819  -18.0173   21.9285 C   0  0  0  0  0  0
  -29.5997  -16.5381   19.4652 C   0  0  0  0  0  0
  -30.5318  -16.7328   21.6702 C   0  0  0  0  0  0
  -29.3890  -18.8444   20.6500 C   0  0  0  0  0  0
  -31.4691  -23.3182   17.7028 C   0  0  0  0  0  0
  -28.6145  -25.4603   19.2259 C   0  0  0  0  0  0
  -29.9395  -23.1884   17.5778 C   0  0  1  0  0  0
  -29.2893  -21.6257   19.3430 N   0  0  0  0  0  0
  -28.0449  -23.5981   20.8650 N   0  0  0  0  0  0
  -28.0372  -22.2960   21.2435 N   0  0  0  0  0  0
  -29.9650  -15.7721   20.6890 N   0  0  0  0  0  0
  -28.5561  -20.0434   20.9395 N   0  0  0  0  0  0
  -29.5718  -22.0941   16.6686 N   0  3  0  0  0  0
  -31.4586  -12.4725   19.1440 H   0  0  0  0  0  0
  -30.3225  -11.3885   19.8981 H   0  0  0  0  0  0
  -29.7513  -11.7523   17.4696 H   0  0  0  0  0  0
  -29.6446  -13.4739   17.7386 H   0  0  0  0  0  0
  -27.8477  -11.3006   18.8604 H   0  0  0  0  0  0
  -27.3645  -12.5913   17.7922 H   0  0  0  0  0  0
  -27.6473  -14.2575   19.5123 H   0  0  0  0  0  0
  -28.6948  -12.1200   21.4279 H   0  0  0  0  0  0
  -28.4550  -13.8122   21.7989 H   0  0  0  0  0  0
  -25.2742   -9.5692   22.4769 H   0  0  0  0  0  0
  -23.9988   -7.4641   22.7485 H   0  0  0  0  0  0
  -21.0840   -8.8763   19.8942 H   0  0  0  0  0  0
  -22.3692  -10.9666   19.6154 H   0  0  0  0  0  0
  -21.2014   -7.6143   23.9709 H   0  0  0  0  0  0
  -21.1481   -6.0519   25.9072 H   0  0  0  0  0  0
  -22.0600   -2.7606   23.2840 H   0  0  0  0  0  0
  -22.4059  -11.9833   22.4735 H   0  0  0  0  0  0
  -21.1082  -13.1233   22.2612 H   0  0  0  0  0  0
  -24.6636  -15.8517   20.5362 H   0  0  0  0  0  0
  -26.2914  -15.6311   20.1355 H   0  0  0  0  0  0
  -26.7157  -32.5434   23.1076 H   0  0  0  0  0  0
  -25.0158  -33.9723   25.0466 H   0  0  0  0  0  0
  -22.7074  -31.2990   21.4021 H   0  0  0  0  0  0
  -23.3780  -35.9567   23.3213 H   0  0  0  0  0  0
  -24.3587  -36.8980   22.2053 H   0  0  0  0  0  0
  -23.7195  -37.6426   23.6703 H   0  0  0  0  0  0
  -26.0689  -31.5600   20.5941 H   0  0  0  0  0  0
  -26.8340  -30.8492   21.9882 H   0  0  0  0  0  0
  -28.1077  -29.0155   21.1689 H   0  0  0  0  0  0
  -25.9770  -25.8965   19.0684 H   0  0  0  0  0  0
  -23.9597  -27.2679   19.0632 H   0  0  0  0  0  0
  -23.7218  -30.5747   19.3990 H   0  0  0  0  0  0
  -22.7451  -29.2208   19.8785 H   0  0  0  0  0  0
  -25.1274  -36.1877   25.0808 H   0  0  0  0  0  0
  -20.9953  -28.3222   24.1441 H   0  0  0  0  0  0
  -20.5706  -26.2261   23.3585 H   0  0  0  0  0  0
  -21.6635  -26.7460   22.1185 H   0  0  0  0  0  0
  -19.6899  -25.6310   21.1230 H   0  0  0  0  0  0
  -19.6694  -27.3216   20.6754 H   0  0  0  0  0  0
  -17.4206  -26.6743   21.3990 H   0  0  0  0  0  0
  -18.0281  -26.0065   22.8977 H   0  0  0  0  0  0
  -19.7924  -30.7306   24.2232 H   0  0  0  0  0  0
  -17.4994  -31.6268   24.5163 H   0  0  0  0  0  0
  -15.5340  -30.2957   23.7695 H   0  0  0  0  0  0
  -15.8675  -28.0808   22.7081 H   0  0  0  0  0  0
  -24.6007  -30.6923   25.7802 H   0  0  0  0  0  0
  -24.8829  -32.2814   26.4814 H   0  0  0  0  0  0
  -25.8114  -30.8961   27.0256 H   0  0  0  0  0  0
  -26.2931  -29.6766   24.1196 H   0  0  0  0  0  0
  -27.4130  -29.7301   25.4626 H   0  0  0  0  0  0
  -27.8763  -30.4365   23.9316 H   0  0  0  0  0  0
  -27.2681  -33.3670   26.2017 H   0  0  0  0  0  0
  -28.3909  -32.6835   25.0351 H   0  0  0  0  0  0
  -28.0672  -31.8489   26.5473 H   0  0  0  0  0  0
  -28.2489  -38.0177   24.7658 H   0  0  0  0  0  0
  -28.1213  -36.2714   24.6052 H   0  0  0  0  0  0
  -27.2333  -37.1142   25.8839 H   0  0  0  0  0  0
  -20.9342  -29.8698   21.6890 H   0  0  0  0  0  0
  -26.0130  -38.2820   24.1548 H   0  0  0  0  0  0
  -27.7533  -17.5327   20.0689 H   0  0  0  0  0  0
  -28.5512  -18.3037   18.7238 H   0  0  0  0  0  0
  -30.2035  -18.6411   22.6559 H   0  0  0  0  0  0
  -28.7438  -17.7251   22.4041 H   0  0  0  0  0  0
  -30.5217  -16.8301   18.9572 H   0  0  0  0  0  0
  -29.0797  -15.8811   18.7670 H   0  0  0  0  0  0
  -30.6905  -16.2175   22.6191 H   0  0  0  0  0  0
  -31.5221  -17.0414   21.3291 H   0  0  0  0  0  0
  -30.3345  -19.1807   20.2199 H   0  0  0  0  0  0
  -31.7424  -24.1129   18.3969 H   0  0  0  0  0  0
  -31.9219  -23.5622   16.7414 H   0  0  0  0  0  0
  -31.9258  -22.3959   18.0626 H   0  0  0  0  0  0
  -27.9770  -25.5271   18.3449 H   0  0  0  0  0  0
  -29.6149  -25.6766   18.8523 H   0  0  0  0  0  0
  -29.5495  -24.1043   17.1325 H   0  0  0  0  0  0
  -28.0003  -19.9796   21.7815 H   0  0  0  0  0  0
  -29.7323  -21.2371   17.1703 H   0  0  0  0  0  0
  -30.1022  -22.1149   15.8183 H   0  0  0  0  0  0
  -28.5923  -22.1438   16.4569 H   0  0  0  0  0  0
  1 25  1  0  0  0
  1 30  2  0  0  0
  1 85  1  0  0  0
  2  3  1  0  0  0
  2 25  1  0  0  0
  2 88  1  0  0  0
  2 89  1  0  0  0
  3  4  1  0  0  0
  3 90  1  0  0  0
  3 91  1  0  0  0
  4  5  1  0  0  0
  4 92  1  0  0  0
  4 93  1  0  0  0
  5  6  1  0  0  0
  5 26  1  0  0  0
  5 94  1  0  0  0
  6 25  1  0  0  0
  6 95  1  0  0  0
  6 96  1  0  0  0
  7  8  2  0  0  0
  7 26  1  0  0  0
  7 29  1  0  0  0
  8  9  1  0  0  0
  8 22  1  0  0  0
  9 10  1  0  0  0
  9 27  2  0  0  0
 10 11  2  0  0  0
 10 15  1  0  0  0
 11 12  1  0  0  0
 11 97  1  0  0  0
 12 13  2  0  0  0
 12 98  1  0  0  0
 13 14  1  0  0  0
 13 31  1  0  0  0
 14 15  2  0  0  0
 14 99  1  0  0  0
 15100  1  0  0  0
 16 17  2  0  0  0
 16 21  1  0  0  0
 16 31  1  0  0  0
 17 18  1  0  0  0
 17101  1  0  0  0
 18 19  2  0  0  0
 18102  1  0  0  0
 19 20  1  0  0  0
 19 24  1  0  0  0
 20 21  2  0  0  0
 20103  1  0  0  0
 21 23  1  0  0  0
 22 28  1  0  0  0
 22 32  2  0  0  0
 26 27  1  0  0  0
 28104  1  0  0  0
 28105  1  0  0  0
 29106  1  0  0  0
 29107  1  0  0  0
 33 34  1  0  0  0
 33 66  1  0  0  0
 33 70  2  0  0  0
 34 36  1  0  0  0
 34 59  1  0  0  0
 34108  1  0  0  0
 35 44  2  0  0  0
 35 45  1  0  0  0
 35 68  1  0  0  0
 36 56  1  0  0  0
 36109  1  0  0  0
 37 39  1  0  0  0
 37 47  1  0  0  0
 37 66  1  0  0  0
 37110  1  0  0  0
 38 43  2  0  0  0
 38 46  1  0  0  0
 38 47  1  0  0  0
 39 64  1  0  0  0
 39 67  2  0  0  0
 40 52  1  0  0  0
 40 53  2  0  0  0
 40 58  1  0  0  0
 41111  1  0  0  0
 41112  1  0  0  0
 41113  1  0  0  0
 41 48  1  0  0  0
 42 43  1  0  0  0
 42 66  1  0  0  0
 42114  1  0  0  0
 42115  1  0  0  0
 43 44  1  0  0  0
 44116  1  0  0  0
 45 46  2  0  0  0
 45117  1  0  0  0
 46118  1  0  0  0
 47119  1  0  0  0
 47120  1  0  0  0
 48 56  1  0  0  0
 48 65  1  0  0  0
 48121  1  0  0  0
 49 50  1  0  0  0
 49 53  1  0  0  0
 49 64  1  0  0  0
 49122  1  0  0  0
 50 51  1  0  0  0
 50123  1  0  0  0
 50124  1  0  0  0
 51 52  1  0  0  0
 51125  1  0  0  0
 51126  1  0  0  0
 52127  1  0  0  0
 52128  1  0  0  0
 53 54  1  0  0  0
 54 55  2  0  0  0
 54129  1  0  0  0
 55 57  1  0  0  0
 55130  1  0  0  0
 56 69  2  0  0  0
 57 58  2  0  0  0
 57131  1  0  0  0
 58132  1  0  0  0
 59 60  1  0  0  0
 59 61  1  0  0  0
 59 62  1  0  0  0
 60133  1  0  0  0
 60134  1  0  0  0
 60135  1  0  0  0
 61136  1  0  0  0
 61137  1  0  0  0
 61138  1  0  0  0
 62139  1  0  0  0
 62140  1  0  0  0
 62141  1  0  0  0
 63 65  1  0  0  0
 63142  1  0  0  0
 63143  1  0  0  0
 63144  1  0  0  0
 64145  1  0  0  0
 65146  1  0  0  0
 68 80  1  0  0  0
 71 72  2  0  0  0
 71 80  1  0  0  0
 71 83  1  0  0  0
 72 81  1  0  0  0
 72 82  1  0  0  0
 73 82  2  0  0  0
 73 84  1  0  0  0
 73 86  1  0  0  0
 74 76  1  0  0  0
 74 78  1  0  0  0
 74147  1  0  0  0
 74148  1  0  0  0
 75 77  1  0  0  0
 75 78  1  0  0  0
 75149  1  0  0  0
 75150  1  0  0  0
 76 85  1  0  0  0
 76151  1  0  0  0
 76152  1  0  0  0
 77 85  1  0  0  0
 77153  1  0  0  0
 77154  1  0  0  0
 78 86  1  0  0  0
 78155  1  0  0  0
 79156  1  0  0  0
 79157  1  0  0  0
 79158  1  0  0  0
 79 81  1  0  0  0
 80159  1  0  0  0
 80160  1  0  0  0
 81 87  1  0  0  0
 81161  1  0  0  0
 83 84  2  0  0  0
 86162  1  0  0  0
 87163  1  0  0  0
 87164  1  0  0  0
 87165  1  0  0  0
M  CHG  1  87   1
M  ISO  4   1 100  68 101  80 101  85 100
M  END
> <chiral flag>
0

> <version>
0

> <s_m_source_file>
/data/baiqing/PycharmProjects/Reinvent-master-3.2/result/LINK_invent/BTK/process_docking_weight1_custom_sum_contain_oxygen_bond_distance_aromatic_linkinvent_7_9_3/rearranged_h_0192.sdf

> <i_m_source_file_index>
46

> <r_mmod_Potential_Energy-OPLS-2005>
-262.625091552734

> <r_mmod_Stretch_Energy-OPLS-2005>
68.8937759399414

> <r_mmod_Bend_Energy-OPLS-2005>
167.319107055664

> <r_mmod_Torsional_Energy-OPLS-2005>
309.122711181641

> <r_mmod_Improper_Torsional_Energy-OPLS-2005>
11.4702548980713

> <r_mmod_Van_der_Waal_Energy-OPLS-2005>
155.465835571289

> <r_mmod_Electrostatic_Energy-OPLS-2005>
-485.001983642578

> <r_mmod_Solvation_Energy-OPLS-2005>
-531.053894042969

> <b_mmod_Minimization_Converged-OPLS-2005>
0

> <r_mmod_RMS_Derivative-OPLS-2005>
1.80084574222565

$$$$
46
                    3D
 Structure written by MMmdl.
157165  0  0  1  0            999 V2000
  -30.6902  -14.5985   20.4863 C   0  0  0  0  0  0
  -30.4155  -12.3660   19.4507 C   0  0  0  0  0  0
  -29.4959  -12.4880   18.2185 C   0  0  0  0  0  0
  -28.0182  -12.3437   18.6324 C   0  0  0  0  0  0
  -27.6456  -13.2237   19.8564 C   0  0  2  0  0  0
  -28.6932  -13.1064   20.9853 C   0  0  0  0  0  0
  -25.2530  -13.8197   20.5694 C   0  0  0  0  0  0
  -24.1809  -13.0452   20.9206 C   0  0  0  0  0  0
  -24.6387  -11.6923   20.8748 C   0  0  0  0  0  0
  -23.9063  -10.4295   21.0398 C   0  0  0  0  0  0
  -24.3619   -9.4210   21.9174 C   0  0  0  0  0  0
  -23.6297   -8.2245   22.0747 C   0  0  0  0  0  0
  -22.4278   -8.0281   21.3543 C   0  0  0  0  0  0
  -21.9910   -9.0249   20.4642 C   0  0  0  0  0  0
  -22.7233  -10.2133   20.3046 C   0  0  0  0  0  0
  -21.6855   -6.0731   22.5273 C   0  0  0  0  0  0
  -21.4018   -6.5637   23.8207 C   0  0  0  0  0  0
  -21.3662   -5.6789   24.9171 C   0  0  0  0  0  0
  -21.6051   -4.3052   24.7220 C   0  0  0  0  0  0
  -21.8824   -3.8142   23.4341 C   0  0  0  0  0  0
  -21.9197   -4.6959   22.3397 C   0  0  0  0  0  0
  -22.7832  -13.5232   21.1874 C   0  0  0  0  0  0
  -22.1661   -4.2144   21.0974 F   0  0  0  0  0  0
  -21.5632   -3.4536   25.7733 F   0  0  0  0  0  0
  -30.0035  -13.4177   20.4016 N   0  0  0  0  0  0
  -26.2957  -12.9390   20.3323 N   0  0  0  0  0  0
  -25.9320  -11.6540   20.5777 N   0  0  0  0  0  0
  -22.0484  -12.8207   22.0424 N   0  0  0  0  0  0
  -25.4248  -15.1915   20.4088 N   0  0  0  0  0  0
  -31.8831  -14.6453   20.1737 O   0  0  0  0  0  0
  -21.6649   -6.8873   21.4235 O   0  0  0  0  0  0
  -22.3514  -14.5533   20.6715 O   0  0  0  0  0  0
  -24.6249  -31.8615   23.2060 C   0  0  0  0  0  0
  -25.9102  -32.4793   23.8373 C   0  0  1  0  0  0
  -27.2117  -27.3410   20.1028 C   0  0  0  0  0  0
  -25.5924  -33.8592   24.2293 N   0  0  0  0  0  0
  -23.4158  -30.4914   21.5471 C   0  0  2  0  0  0
  -24.8585  -28.9560   20.1089 C   0  0  0  0  0  0
  -22.7460  -29.4643   22.4913 C   0  0  0  0  0  0
  -18.0291  -28.1378   22.8486 C   0  0  0  0  0  0
  -24.1491  -36.7300   23.2641 C   0  0  0  0  0  0
  -25.9582  -30.7996   21.3760 C   0  0  0  0  0  0
  -26.0288  -29.4320   20.7116 C   0  0  0  0  0  0
  -27.2104  -28.6357   20.7006 C   0  0  0  0  0  0
  -26.0167  -26.9204   19.4697 C   0  0  0  0  0  0
  -24.8526  -27.7040   19.4807 C   0  0  0  0  0  0
  -23.6283  -29.8344   20.1601 C   0  0  0  0  0  0
  -25.4114  -36.3091   24.0332 C   0  0  1  0  0  0
  -20.5887  -28.3677   23.1272 C   0  0  2  0  0  0
  -20.6773  -26.9399   22.5394 C   0  0  0  0  0  0
  -19.5751  -26.6376   21.5197 C   0  0  0  0  0  0
  -18.1935  -26.7920   22.1620 C   0  0  0  0  0  0
  -19.1543  -28.8840   23.2883 C   0  0  0  0  0  0
  -18.9475  -30.1446   23.8900 C   0  0  0  0  0  0
  -17.6474  -30.6581   24.0561 C   0  0  0  0  0  0
  -25.9048  -34.9462   23.5107 C   0  0  0  0  0  0
  -16.5362  -29.9082   23.6334 C   0  0  0  0  0  0
  -16.7278  -28.6499   23.0352 C   0  0  0  0  0  0
  -26.4491  -31.6606   25.0739 C   0  0  0  0  0  0
  -25.3737  -31.3750   26.1482 C   0  0  0  0  0  0
  -27.0330  -30.3031   24.6182 C   0  0  0  0  0  0
  -27.6041  -32.4353   25.7512 C   0  0  0  0  0  0
  -27.5581  -37.1808   24.8468 C   0  0  0  0  0  0
  -21.4172  -29.3053   22.3672 N   0  0  0  0  0  0
  -26.4295  -37.3781   23.9413 N   0  0  0  0  0  0
  -24.6851  -31.0666   22.0995 N   0  0  0  0  0  0
  -23.4205  -28.8157   23.2956 O   0  0  0  0  0  0
  -28.3213  -26.4872   20.1612 O   0  0  0  0  0  0
  -26.5603  -34.8916   22.4669 O   0  0  0  0  0  0
  -23.5419  -32.1391   23.7411 O   0  0  0  0  0  0
  -29.3317  -21.4076   20.5268 C   0  0  0  0  0  0
  -30.2993  -16.7335   19.3270 C   0  0  0  0  0  0
  -29.2283  -16.3895   21.5248 C   0  0  0  0  0  0
  -29.4072  -18.0081   19.2851 C   0  0  0  0  0  0
  -29.4720  -17.9352   21.7503 C   0  0  0  0  0  0
  -28.5865  -20.0356   20.5502 C   0  0  0  0  0  0
  -29.1250  -23.9757   20.4375 C   0  0  0  0  0  0
  -28.0456  -25.0456   20.0208 C   0  0  0  0  0  0
  -29.9599  -15.7639   20.3974 N   0  0  0  0  0  0
  -28.6212  -22.5641   20.4044 N   0  0  0  0  0  0
  -29.4857  -18.8146   20.5315 N   0  3  0  0  0  0
  -30.5592  -21.4112   20.6322 O   0  0  0  0  0  0
  -31.4605  -12.4518   19.1481 H   0  0  0  0  0  0
  -30.3195  -11.3800   19.9086 H   0  0  0  0  0  0
  -29.7499  -11.7256   17.4807 H   0  0  0  0  0  0
  -29.6520  -13.4521   17.7311 H   0  0  0  0  0  0
  -27.8466  -11.2931   18.8694 H   0  0  0  0  0  0
  -27.3649  -12.5717   17.7887 H   0  0  0  0  0  0
  -27.6573  -14.2550   19.5048 H   0  0  0  0  0  0
  -28.6991  -12.0995   21.4050 H   0  0  0  0  0  0
  -28.4532  -13.7751   21.8117 H   0  0  0  0  0  0
  -25.2762   -9.5698   22.4752 H   0  0  0  0  0  0
  -24.0013   -7.4639   22.7462 H   0  0  0  0  0  0
  -21.0843   -8.8759   19.8944 H   0  0  0  0  0  0
  -22.3676  -10.9675   19.6159 H   0  0  0  0  0  0
  -21.2005   -7.6144   23.9708 H   0  0  0  0  0  0
  -21.1485   -6.0518   25.9075 H   0  0  0  0  0  0
  -22.0601   -2.7603   23.2840 H   0  0  0  0  0  0
  -22.4097  -11.9859   22.4795 H   0  0  0  0  0  0
  -21.1101  -13.1215   22.2637 H   0  0  0  0  0  0
  -24.6577  -15.8476   20.5083 H   0  0  0  0  0  0
  -26.2707  -15.6204   20.0584 H   0  0  0  0  0  0
  -26.7162  -32.5463   23.1113 H   0  0  0  0  0  0
  -25.0101  -33.9736   25.0455 H   0  0  0  0  0  0
  -22.7100  -31.3135   21.4073 H   0  0  0  0  0  0
  -23.3751  -35.9639   23.3313 H   0  0  0  0  0  0
  -24.3581  -36.8901   22.2053 H   0  0  0  0  0  0
  -23.7242  -37.6505   23.6648 H   0  0  0  0  0  0
  -26.0945  -31.5682   20.6142 H   0  0  0  0  0  0
  -26.8376  -30.8393   22.0078 H   0  0  0  0  0  0
  -28.1084  -28.9921   21.1860 H   0  0  0  0  0  0
  -25.9410  -25.9688   18.9660 H   0  0  0  0  0  0
  -23.9549  -27.3348   19.0041 H   0  0  0  0  0  0
  -23.7494  -30.6141   19.4065 H   0  0  0  0  0  0
  -22.7479  -29.2658   19.8555 H   0  0  0  0  0  0
  -25.1293  -36.1948   25.0824 H   0  0  0  0  0  0
  -21.0001  -28.3246   24.1383 H   0  0  0  0  0  0
  -20.5658  -26.2286   23.3590 H   0  0  0  0  0  0
  -21.6642  -26.7415   22.1197 H   0  0  0  0  0  0
  -19.6912  -25.6289   21.1227 H   0  0  0  0  0  0
  -19.6693  -27.3186   20.6727 H   0  0  0  0  0  0
  -17.4195  -26.6668   21.4030 H   0  0  0  0  0  0
  -18.0348  -26.0058   22.9014 H   0  0  0  0  0  0
  -19.7954  -30.7257   24.2267 H   0  0  0  0  0  0
  -17.5035  -31.6265   24.5158 H   0  0  0  0  0  0
  -15.5368  -30.2988   23.7652 H   0  0  0  0  0  0
  -15.8677  -28.0820   22.7065 H   0  0  0  0  0  0
  -24.5898  -30.7099   25.7835 H   0  0  0  0  0  0
  -24.8952  -32.2925   26.4922 H   0  0  0  0  0  0
  -25.8081  -30.8930   27.0249 H   0  0  0  0  0  0
  -26.2895  -29.6796   24.1197 H   0  0  0  0  0  0
  -27.4019  -29.7272   25.4680 H   0  0  0  0  0  0
  -27.8768  -30.4325   23.9402 H   0  0  0  0  0  0
  -27.2621  -33.3641   26.2092 H   0  0  0  0  0  0
  -28.3846  -32.6937   25.0346 H   0  0  0  0  0  0
  -28.0706  -31.8484   26.5433 H   0  0  0  0  0  0
  -28.2602  -38.0101   24.7501 H   0  0  0  0  0  0
  -28.1064  -36.2626   24.6306 H   0  0  0  0  0  0
  -27.2293  -37.1470   25.8870 H   0  0  0  0  0  0
  -20.9323  -29.8815   21.6935 H   0  0  0  0  0  0
  -26.0180  -38.2859   24.1405 H   0  0  0  0  0  0
  -31.3430  -17.0396   19.4275 H   0  0  0  0  0  0
  -30.2281  -16.2253   18.3629 H   0  0  0  0  0  0
  -29.4606  -15.8643   22.4535 H   0  0  0  0  0  0
  -28.1652  -16.2239   21.3498 H   0  0  0  0  0  0
  -28.3708  -17.7119   19.1128 H   0  0  0  0  0  0
  -29.6915  -18.6338   18.4382 H   0  0  0  0  0  0
  -30.4488  -18.0579   22.2173 H   0  0  0  0  0  0
  -28.7604  -18.3023   22.4900 H   0  0  0  0  0  0
  -27.9098  -20.0073   19.6955 H   0  0  0  0  0  0
  -27.9422  -20.0269   21.4289 H   0  0  0  0  0  0
  -29.4693  -24.1919   21.4494 H   0  0  0  0  0  0
  -29.9993  -24.0671   19.7904 H   0  0  0  0  0  0
  -27.1520  -24.8163   20.6052 H   0  0  0  0  0  0
  -27.7989  -24.8526   18.9758 H   0  0  0  0  0  0
  -27.6192  -22.4609   20.2994 H   0  0  0  0  0  0
  -30.4018  -19.2452   20.5284 H   0  0  0  0  0  0
  1 25  1  0  0  0
  1 30  2  0  0  0
  1 79  1  0  0  0
  2  3  1  0  0  0
  2 25  1  0  0  0
  2 83  1  0  0  0
  2 84  1  0  0  0
  3  4  1  0  0  0
  3 85  1  0  0  0
  3 86  1  0  0  0
  4  5  1  0  0  0
  4 87  1  0  0  0
  4 88  1  0  0  0
  5  6  1  0  0  0
  5 26  1  0  0  0
  5 89  1  0  0  0
  6 25  1  0  0  0
  6 90  1  0  0  0
  6 91  1  0  0  0
  7  8  2  0  0  0
  7 26  1  0  0  0
  7 29  1  0  0  0
  8  9  1  0  0  0
  8 22  1  0  0  0
  9 10  1  0  0  0
  9 27  2  0  0  0
 10 11  2  0  0  0
 10 15  1  0  0  0
 11 12  1  0  0  0
 11 92  1  0  0  0
 12 13  2  0  0  0
 12 93  1  0  0  0
 13 14  1  0  0  0
 13 31  1  0  0  0
 14 15  2  0  0  0
 14 94  1  0  0  0
 15 95  1  0  0  0
 16 17  2  0  0  0
 16 21  1  0  0  0
 16 31  1  0  0  0
 17 18  1  0  0  0
 17 96  1  0  0  0
 18 19  2  0  0  0
 18 97  1  0  0  0
 19 20  1  0  0  0
 19 24  1  0  0  0
 20 21  2  0  0  0
 20 98  1  0  0  0
 21 23  1  0  0  0
 22 28  1  0  0  0
 22 32  2  0  0  0
 26 27  1  0  0  0
 28 99  1  0  0  0
 28100  1  0  0  0
 29101  1  0  0  0
 29102  1  0  0  0
 33 34  1  0  0  0
 33 66  1  0  0  0
 33 70  2  0  0  0
 34 36  1  0  0  0
 34 59  1  0  0  0
 34103  1  0  0  0
 35 44  2  0  0  0
 35 45  1  0  0  0
 35 68  1  0  0  0
 36 56  1  0  0  0
 36104  1  0  0  0
 37 39  1  0  0  0
 37 47  1  0  0  0
 37 66  1  0  0  0
 37105  1  0  0  0
 38 43  2  0  0  0
 38 46  1  0  0  0
 38 47  1  0  0  0
 39 64  1  0  0  0
 39 67  2  0  0  0
 40 52  1  0  0  0
 40 53  2  0  0  0
 40 58  1  0  0  0
 41106  1  0  0  0
 41107  1  0  0  0
 41108  1  0  0  0
 41 48  1  0  0  0
 42 43  1  0  0  0
 42 66  1  0  0  0
 42109  1  0  0  0
 42110  1  0  0  0
 43 44  1  0  0  0
 44111  1  0  0  0
 45 46  2  0  0  0
 45112  1  0  0  0
 46113  1  0  0  0
 47114  1  0  0  0
 47115  1  0  0  0
 48 56  1  0  0  0
 48 65  1  0  0  0
 48116  1  0  0  0
 49 50  1  0  0  0
 49 53  1  0  0  0
 49 64  1  0  0  0
 49117  1  0  0  0
 50 51  1  0  0  0
 50118  1  0  0  0
 50119  1  0  0  0
 51 52  1  0  0  0
 51120  1  0  0  0
 51121  1  0  0  0
 52122  1  0  0  0
 52123  1  0  0  0
 53 54  1  0  0  0
 54 55  2  0  0  0
 54124  1  0  0  0
 55 57  1  0  0  0
 55125  1  0  0  0
 56 69  2  0  0  0
 57 58  2  0  0  0
 57126  1  0  0  0
 58127  1  0  0  0
 59 60  1  0  0  0
 59 61  1  0  0  0
 59 62  1  0  0  0
 60128  1  0  0  0
 60129  1  0  0  0
 60130  1  0  0  0
 61131  1  0  0  0
 61132  1  0  0  0
 61133  1  0  0  0
 62134  1  0  0  0
 62135  1  0  0  0
 62136  1  0  0  0
 63 65  1  0  0  0
 63137  1  0  0  0
 63138  1  0  0  0
 63139  1  0  0  0
 64140  1  0  0  0
 65141  1  0  0  0
 68 78  1  0  0  0
 71 76  1  0  0  0
 71 80  1  0  0  0
 71 82  2  0  0  0
 72 74  1  0  0  0
 72 79  1  0  0  0
 72142  1  0  0  0
 72143  1  0  0  0
 73 75  1  0  0  0
 73 79  1  0  0  0
 73144  1  0  0  0
 73145  1  0  0  0
 74 81  1  0  0  0
 74146  1  0  0  0
 74147  1  0  0  0
 75 81  1  0  0  0
 75148  1  0  0  0
 75149  1  0  0  0
 76150  1  0  0  0
 76151  1  0  0  0
 76 81  1  0  0  0
 77 78  1  0  0  0
 77 80  1  0  0  0
 77152  1  0  0  0
 77153  1  0  0  0
 78154  1  0  0  0
 78155  1  0  0  0
 80156  1  0  0  0
 81157  1  0  0  0
M  CHG  1  81   1
M  ISO  4   1 100  68 101  78 101  79 100
M  END
> <chiral flag>
0

> <version>
0

> <s_m_source_file>
/data/baiqing/PycharmProjects/Reinvent-master-3.2/result/LINK_invent/BTK/process_docking_weight1_custom_sum_contain_oxygen_bond_distance_aromatic_linkinvent_7_9_3/rearranged_h_0192.sdf

> <i_m_source_file_index>
47

> <r_mmod_Potential_Energy-OPLS-2005>
-38.0706977844238

> <r_mmod_Stretch_Energy-OPLS-2005>
66.7483139038086

> <r_mmod_Bend_Energy-OPLS-2005>
128.10124206543

> <r_mmod_Torsional_Energy-OPLS-2005>
391.3076171875

> <r_mmod_Improper_Torsional_Energy-OPLS-2005>
18.394510269165

> <r_mmod_Van_der_Waal_Energy-OPLS-2005>
140.421127319336

> <r_mmod_Electrostatic_Energy-OPLS-2005>
-358.600189208984

> <r_mmod_Solvation_Energy-OPLS-2005>
-468.824096679688

> <b_mmod_Minimization_Converged-OPLS-2005>
0

> <r_mmod_RMS_Derivative-OPLS-2005>
1.42668509483337

$$$$
47
                    3D
 Structure written by MMmdl.
169178  0  0  1  0            999 V2000
  -29.6826  -15.8742   20.9077 C   0  0  0  0  0  0
  -30.2945  -13.3830   19.7706 C   0  0  0  0  0  0
  -29.5570  -12.8276   18.4922 C   0  0  0  0  0  0
  -28.1456  -12.3346   18.8320 C   0  0  0  0  0  0
  -27.5277  -13.2931   19.8652 C   0  0  2  0  0  0
  -28.3993  -13.5652   21.0957 C   0  0  0  0  0  0
  -25.1880  -13.8188   20.5663 C   0  0  0  0  0  0
  -24.1343  -13.0338   20.9239 C   0  0  0  0  0  0
  -24.6078  -11.6858   20.8720 C   0  0  0  0  0  0
  -23.8892  -10.4228   21.0414 C   0  0  0  0  0  0
  -24.3535   -9.4183   21.9180 C   0  0  0  0  0  0
  -23.6256   -8.2196   22.0743 C   0  0  0  0  0  0
  -22.4232   -8.0223   21.3540 C   0  0  0  0  0  0
  -21.9828   -9.0162   20.4631 C   0  0  0  0  0  0
  -22.7100  -10.2054   20.3042 C   0  0  0  0  0  0
  -21.6841   -6.0696   22.5284 C   0  0  0  0  0  0
  -21.4000   -6.5617   23.8213 C   0  0  0  0  0  0
  -21.3659   -5.6775   24.9179 C   0  0  0  0  0  0
  -21.6046   -4.3039   24.7231 C   0  0  0  0  0  0
  -21.8823   -3.8124   23.4358 C   0  0  0  0  0  0
  -21.9189   -4.6929   22.3411 C   0  0  0  0  0  0
  -22.7441  -13.5129   21.1974 C   0  0  0  0  0  0
  -22.1663   -4.2125   21.0987 F   0  0  0  0  0  0
  -21.5634   -3.4533   25.7748 F   0  0  0  0  0  0
  -29.4631  -14.4252   20.6137 N   0  0  0  0  0  0
  -26.2123  -12.9396   20.2977 N   0  0  0  0  0  0
  -25.8940  -11.6509   20.5532 N   0  0  0  0  0  0
  -22.0170  -12.8092   22.0567 N   0  0  0  0  0  0
  -25.3640  -15.1929   20.4264 N   0  0  0  0  0  0
  -30.9190  -15.9607   20.6247 O   0  0  0  0  0  0
  -21.6609   -6.8819   21.4238 O   0  0  0  0  0  0
  -22.3153  -14.5460   20.6859 O   0  0  0  0  0  0
  -24.8158  -31.8345   23.2863 C   0  0  0  0  0  0
  -26.0294  -32.5153   23.9146 C   0  0  1  0  0  0
  -25.9440  -27.3462   20.2178 C   0  0  0  0  0  0
  -25.6436  -33.8834   24.2726 N   0  0  0  0  0  0
  -24.0270  -30.0468   21.7871 C   0  0  2  0  0  0
  -25.2142  -29.6587   19.6448 C   0  0  0  0  0  0
  -23.9734  -28.3995   22.4796 C   0  0  0  0  0  0
  -18.1691  -27.8349   22.8036 C   0  0  0  0  0  0
  -24.1508  -36.7311   23.2556 C   0  0  0  0  0  0
  -26.3229  -30.7628   21.5875 C   0  0  0  0  0  0
  -26.2448  -29.6312   20.5834 C   0  0  0  0  0  0
  -26.7420  -28.3596   20.8401 C   0  0  0  0  0  0
  -25.9460  -27.4680   18.8641 C   0  0  0  0  0  0
  -25.1783  -28.6366   18.6353 C   0  0  0  0  0  0
  -24.0617  -30.4373   20.2177 C   0  0  0  0  0  0
  -25.4116  -36.3193   24.0303 C   0  0  1  0  0  0
  -20.9173  -27.1112   22.7602 C   0  0  2  0  0  0
  -20.4721  -26.0438   21.9042 C   0  0  0  0  0  0
  -19.2692  -26.4299   21.1116 C   0  0  0  0  0  0
  -18.0649  -26.5680   22.0318 C   0  0  0  0  0  0
  -19.4992  -28.2406   23.1768 C   0  0  0  0  0  0
  -19.3491  -29.6070   23.7627 C   0  0  0  0  0  0
  -18.1189  -30.3370   23.9672 C   0  0  0  0  0  0
  -25.9133  -34.9574   23.5212 C   0  0  0  0  0  0
  -16.8815  -29.7871   23.6188 C   0  0  0  0  0  0
  -16.9301  -28.5222   23.0265 C   0  0  0  0  0  0
  -26.5144  -31.6914   25.1624 C   0  0  0  0  0  0
  -25.3970  -31.3827   26.1904 C   0  0  0  0  0  0
  -27.1548  -30.3389   24.7678 C   0  0  0  0  0  0
  -27.6351  -32.4860   25.8568 C   0  0  0  0  0  0
  -27.5584  -37.1838   24.8453 C   0  0  0  0  0  0
  -22.7729  -27.2377   22.3716 N   0  0  0  0  0  0
  -26.4308  -37.3850   23.9380 N   0  0  0  0  0  0
  -25.0587  -30.8924   22.3343 N   0  0  0  0  0  0
  -24.6973  -28.3640   23.4273 O   0  0  0  0  0  0
  -24.4646  -27.2453   20.3529 O   0  0  0  0  0  0
  -26.5527  -34.8937   22.4674 O   0  0  0  0  0  0
  -23.6898  -32.1046   23.7438 O   0  0  0  0  0  0
  -24.4626  -23.4692   23.6823 C   0  0  0  0  0  0
  -23.2002  -22.9709   24.1581 C   0  0  0  0  0  0
  -25.3872  -22.0320   23.1665 C   0  0  0  0  0  0
  -23.4940  -20.7577   23.6428 C   0  0  0  0  0  0
  -27.5605  -18.2238   20.9675 C   0  0  0  0  0  0
  -28.8412  -18.5145   22.3604 C   0  0  0  0  0  0
  -27.2765  -19.3379   22.3154 C   0  0  0  0  0  0
  -22.1475  -23.8371   24.8288 C   0  0  0  0  0  0
  -22.8921  -19.3768   23.5090 C   0  0  0  0  0  0
  -24.1846  -25.4574   23.9636 C   0  0  0  0  0  0
  -22.8959  -27.0841   24.7138 C   0  0  0  0  0  0
  -21.6989  -29.2486   21.9592 C   0  0  0  0  0  0
  -22.7939  -28.2294   20.2682 C   0  0  0  0  0  0
  -22.7422  -21.7152   24.1022 N   0  0  0  0  0  0
  -24.7244  -20.8787   23.2512 N   0  0  0  0  0  0
  -28.7049  -17.1145   21.4677 N   0  0  0  0  0  0
  -26.6902  -21.1058   22.5607 N   0  0  0  0  0  0
  -22.0760  -28.7894   23.9750 N   0  3  0  0  0  0
  -31.2235  -13.8474   19.4393 H   0  0  0  0  0  0
  -30.6154  -12.5569   20.4087 H   0  0  0  0  0  0
  -30.1416  -12.0377   18.0207 H   0  0  0  0  0  0
  -29.4830  -13.6328   17.7600 H   0  0  0  0  0  0
  -28.2143  -11.3315   19.2522 H   0  0  0  0  0  0
  -27.5296  -12.2594   17.9352 H   0  0  0  0  0  0
  -27.4171  -14.2296   19.3173 H   0  0  0  0  0  0
  -28.7437  -12.6496   21.5792 H   0  0  0  0  0  0
  -27.8352  -14.1149   21.8525 H   0  0  0  0  0  0
  -25.2687   -9.5688   22.4737 H   0  0  0  0  0  0
  -23.9984   -7.4587   22.7455 H   0  0  0  0  0  0
  -21.0767   -8.8641   19.8945 H   0  0  0  0  0  0
  -22.3549  -10.9577   19.6148 H   0  0  0  0  0  0
  -21.1985   -7.6130   23.9708 H   0  0  0  0  0  0
  -21.1484   -6.0511   25.9081 H   0  0  0  0  0  0
  -22.0607   -2.7592   23.2860 H   0  0  0  0  0  0
  -22.3837  -11.9740   22.4881 H   0  0  0  0  0  0
  -21.0807  -13.1085   22.2881 H   0  0  0  0  0  0
  -24.6079  -15.8541   20.5634 H   0  0  0  0  0  0
  -26.2166  -15.6255   20.0972 H   0  0  0  0  0  0
  -26.8623  -32.5776   23.2164 H   0  0  0  0  0  0
  -25.0621  -33.9990   25.0902 H   0  0  0  0  0  0
  -23.2692  -30.7285   22.0776 H   0  0  0  0  0  0
  -23.3801  -35.9614   23.3213 H   0  0  0  0  0  0
  -24.3617  -36.8898   22.1974 H   0  0  0  0  0  0
  -23.7202  -37.6502   23.6523 H   0  0  0  0  0  0
  -26.5445  -31.6892   21.0548 H   0  0  0  0  0  0
  -27.1834  -30.5733   22.2190 H   0  0  0  0  0  0
  -27.2799  -28.1694   21.7591 H   0  0  0  0  0  0
  -25.6762  -26.6375   18.2272 H   0  0  0  0  0  0
  -24.4681  -28.6630   17.8248 H   0  0  0  0  0  0
  -24.3386  -31.4897   20.1121 H   0  0  0  0  0  0
  -23.1279  -30.5058   19.6664 H   0  0  0  0  0  0
  -25.1251  -36.2115   25.0783 H   0  0  0  0  0  0
  -20.8306  -26.5768   23.6965 H   0  0  0  0  0  0
  -20.2095  -25.1529   22.4787 H   0  0  0  0  0  0
  -21.2636  -25.6971   21.2404 H   0  0  0  0  0  0
  -19.0608  -25.6452   20.3781 H   0  0  0  0  0  0
  -19.4321  -27.3294   20.5232 H   0  0  0  0  0  0
  -17.1528  -26.5620   21.4313 H   0  0  0  0  0  0
  -17.9776  -25.7273   22.7227 H   0  0  0  0  0  0
  -20.1948  -30.2052   24.0559 H   0  0  0  0  0  0
  -18.1438  -31.3365   24.3800 H   0  0  0  0  0  0
  -15.9489  -30.3147   23.7761 H   0  0  0  0  0  0
  -15.9949  -28.0815   22.7076 H   0  0  0  0  0  0
  -24.6655  -30.6708   25.8056 H   0  0  0  0  0  0
  -24.8583  -32.2821   26.4904 H   0  0  0  0  0  0
  -25.8063  -30.9372   27.0977 H   0  0  0  0  0  0
  -26.4787  -29.6790   24.2437 H   0  0  0  0  0  0
  -27.4678  -29.7891   25.6567 H   0  0  0  0  0  0
  -28.0546  -30.4699   24.1673 H   0  0  0  0  0  0
  -27.2694  -33.4160   26.2927 H   0  0  0  0  0  0
  -28.4310  -32.7461   25.1574 H   0  0  0  0  0  0
  -28.0888  -31.9179   26.6698 H   0  0  0  0  0  0
  -28.2605  -38.0140   24.7588 H   0  0  0  0  0  0
  -28.1112  -36.2700   24.6230 H   0  0  0  0  0  0
  -27.2292  -37.1381   25.8845 H   0  0  0  0  0  0
  -23.1869  -26.3186   22.4351 H   0  0  0  0  0  0
  -26.0230  -38.2951   24.1315 H   0  0  0  0  0  0
  -27.8981  -18.7692   20.0811 H   0  0  0  0  0  0
  -26.6202  -17.7514   20.6845 H   0  0  0  0  0  0
  -29.1190  -18.3121   23.3945 H   0  0  0  0  0  0
  -29.6316  -19.1601   21.9692 H   0  0  0  0  0  0
  -26.6378  -18.7939   23.0138 H   0  0  0  0  0  0
  -21.7514  -24.5690   24.1344 H   0  0  0  0  0  0
  -22.5571  -24.3169   25.7177 H   0  0  0  0  0  0
  -21.2803  -23.2581   25.1656 H   0  0  0  0  0  0
  -22.2617  -19.1285   24.3612 H   0  0  0  0  0  0
  -23.6661  -18.6113   23.4340 H   0  0  0  0  0  0
  -22.2910  -19.3197   22.6015 H   0  0  0  0  0  0
  -24.6600  -25.8164   23.0538 H   0  0  0  0  0  0
  -25.0092  -25.5986   24.6644 H   0  0  0  0  0  0
  -23.4885  -27.4904   25.5336 H   0  0  0  0  0  0
  -22.1176  -26.6096   25.3103 H   0  0  0  0  0  0
  -20.7271  -29.1035   21.5049 H   0  0  0  0  0  0
  -21.4625  -30.3086   21.8464 H   0  0  0  0  0  0
  -22.1360  -27.3887   20.0371 H   0  0  0  0  0  0
  -22.6045  -28.6486   19.2841 H   0  0  0  0  0  0
  -27.4178  -21.7559   22.2710 H   0  0  0  0  0  0
  -22.7039  -29.5102   24.3026 H   0  0  0  0  0  0
  -21.2144  -28.9368   24.4808 H   0  0  0  0  0  0
  1 25  1  0  0  0
  1 30  2  0  0  0
  1 86  1  0  0  0
  2  3  1  0  0  0
  2 25  1  0  0  0
  2 89  1  0  0  0
  2 90  1  0  0  0
  3  4  1  0  0  0
  3 91  1  0  0  0
  3 92  1  0  0  0
  4  5  1  0  0  0
  4 93  1  0  0  0
  4 94  1  0  0  0
  5  6  1  0  0  0
  5 26  1  0  0  0
  5 95  1  0  0  0
  6 25  1  0  0  0
  6 96  1  0  0  0
  6 97  1  0  0  0
  7  8  2  0  0  0
  7 26  1  0  0  0
  7 29  1  0  0  0
  8  9  1  0  0  0
  8 22  1  0  0  0
  9 10  1  0  0  0
  9 27  2  0  0  0
 10 11  2  0  0  0
 10 15  1  0  0  0
 11 12  1  0  0  0
 11 98  1  0  0  0
 12 13  2  0  0  0
 12 99  1  0  0  0
 13 14  1  0  0  0
 13 31  1  0  0  0
 14 15  2  0  0  0
 14100  1  0  0  0
 15101  1  0  0  0
 16 17  2  0  0  0
 16 21  1  0  0  0
 16 31  1  0  0  0
 17 18  1  0  0  0
 17102  1  0  0  0
 18 19  2  0  0  0
 18103  1  0  0  0
 19 20  1  0  0  0
 19 24  1  0  0  0
 20 21  2  0  0  0
 20104  1  0  0  0
 21 23  1  0  0  0
 22 28  1  0  0  0
 22 32  2  0  0  0
 26 27  1  0  0  0
 28105  1  0  0  0
 28106  1  0  0  0
 29107  1  0  0  0
 29108  1  0  0  0
 33 34  1  0  0  0
 33 66  1  0  0  0
 33 70  2  0  0  0
 34 36  1  0  0  0
 34 59  1  0  0  0
 34109  1  0  0  0
 35 44  2  0  0  0
 35 45  1  0  0  0
 35 68  1  0  0  0
 36 56  1  0  0  0
 36110  1  0  0  0
 37 39  1  0  0  0
 37 47  1  0  0  0
 37 66  1  0  0  0
 37111  1  0  0  0
 38 43  2  0  0  0
 38 46  1  0  0  0
 38 47  1  0  0  0
 39 64  1  0  0  0
 39 67  2  0  0  0
 40 52  1  0  0  0
 40 53  2  0  0  0
 40 58  1  0  0  0
 41112  1  0  0  0
 41113  1  0  0  0
 41114  1  0  0  0
 41 48  1  0  0  0
 42 43  1  0  0  0
 42 66  1  0  0  0
 42115  1  0  0  0
 42116  1  0  0  0
 43 44  1  0  0  0
 44117  1  0  0  0
 45 46  2  0  0  0
 45118  1  0  0  0
 46119  1  0  0  0
 47120  1  0  0  0
 47121  1  0  0  0
 48 56  1  0  0  0
 48 65  1  0  0  0
 48122  1  0  0  0
 49 50  1  0  0  0
 49 53  1  0  0  0
 49 64  1  0  0  0
 49123  1  0  0  0
 50 51  1  0  0  0
 50124  1  0  0  0
 50125  1  0  0  0
 51 52  1  0  0  0
 51126  1  0  0  0
 51127  1  0  0  0
 52128  1  0  0  0
 52129  1  0  0  0
 53 54  1  0  0  0
 54 55  2  0  0  0
 54130  1  0  0  0
 55 57  1  0  0  0
 55131  1  0  0  0
 56 69  2  0  0  0
 57 58  2  0  0  0
 57132  1  0  0  0
 58133  1  0  0  0
 59 60  1  0  0  0
 59 61  1  0  0  0
 59 62  1  0  0  0
 60134  1  0  0  0
 60135  1  0  0  0
 60136  1  0  0  0
 61137  1  0  0  0
 61138  1  0  0  0
 61139  1  0  0  0
 62140  1  0  0  0
 62141  1  0  0  0
 62142  1  0  0  0
 63 65  1  0  0  0
 63143  1  0  0  0
 63144  1  0  0  0
 63145  1  0  0  0
 64146  1  0  0  0
 65147  1  0  0  0
 68 83  1  0  0  0
 71 72  2  0  0  0
 71 73  1  0  0  0
 71 80  1  0  0  0
 72 78  1  0  0  0
 72 84  1  0  0  0
 73 85  2  0  0  0
 73 87  1  0  0  0
 74 79  1  0  0  0
 74 84  2  0  0  0
 74 85  1  0  0  0
 75 77  1  0  0  0
 75 86  1  0  0  0
 75148  1  0  0  0
 75149  1  0  0  0
 76 77  1  0  0  0
 76 86  1  0  0  0
 76150  1  0  0  0
 76151  1  0  0  0
 77 87  1  0  0  0
 77152  1  0  0  0
 78153  1  0  0  0
 78154  1  0  0  0
 78155  1  0  0  0
 79156  1  0  0  0
 79157  1  0  0  0
 79158  1  0  0  0
 80 81  1  0  0  0
 80159  1  0  0  0
 80160  1  0  0  0
 81 88  1  0  0  0
 81161  1  0  0  0
 81162  1  0  0  0
 82 83  1  0  0  0
 82 88  1  0  0  0
 82163  1  0  0  0
 82164  1  0  0  0
 83165  1  0  0  0
 83166  1  0  0  0
 87167  1  0  0  0
 88168  1  0  0  0
 88169  1  0  0  0
M  CHG  1  88   1
M  ISO  4   1 100  68 101  83 101  86 100
M  END
> <chiral flag>
0

> <version>
0

> <s_m_source_file>
/data/baiqing/PycharmProjects/Reinvent-master-3.2/result/LINK_invent/BTK/process_docking_weight1_custom_sum_contain_oxygen_bond_distance_aromatic_linkinvent_7_9_3/rearranged_h_0192.sdf

> <i_m_source_file_index>
48

> <r_mmod_Potential_Energy-OPLS-2005>
13423.96484375

> <r_mmod_Stretch_Energy-OPLS-2005>
5197.05078125

> <r_mmod_Bend_Energy-OPLS-2005>
1928.1669921875

> <r_mmod_Torsional_Energy-OPLS-2005>
675.874389648438

> <r_mmod_Improper_Torsional_Energy-OPLS-2005>
72.8788375854492

> <r_mmod_Van_der_Waal_Energy-OPLS-2005>
1815.9609375

> <r_mmod_Electrostatic_Energy-OPLS-2005>
-776.284606933594

> <r_mmod_Solvation_Energy-OPLS-2005>
-441.865447998047

> <b_mmod_Minimization_Converged-OPLS-2005>
0

> <r_mmod_RMS_Derivative-OPLS-2005>
7.59043598175049

$$$$
48
                    3D
 Structure written by MMmdl.
161171  0  0  1  0            999 V2000
  -30.6842  -14.6711   20.5131 C   0  0  0  0  0  0
  -30.4246  -12.4259   19.4586 C   0  0  0  0  0  0
  -29.5006  -12.5112   18.2252 C   0  0  0  0  0  0
  -28.0257  -12.3456   18.6390 C   0  0  0  0  0  0
  -27.6465  -13.2257   19.8599 C   0  0  2  0  0  0
  -28.6961  -13.1047   20.9865 C   0  0  0  0  0  0
  -25.2508  -13.8182   20.5676 C   0  0  0  0  0  0
  -24.1801  -13.0433   20.9203 C   0  0  0  0  0  0
  -24.6393  -11.6912   20.8757 C   0  0  0  0  0  0
  -23.9070  -10.4290   21.0412 C   0  0  0  0  0  0
  -24.3620   -9.4203   21.9188 C   0  0  0  0  0  0
  -23.6294   -8.2240   22.0755 C   0  0  0  0  0  0
  -22.4276   -8.0280   21.3544 C   0  0  0  0  0  0
  -21.9913   -9.0254   20.4647 C   0  0  0  0  0  0
  -22.7243  -10.2133   20.3058 C   0  0  0  0  0  0
  -21.6853   -6.0735   22.5278 C   0  0  0  0  0  0
  -21.4014   -6.5639   23.8211 C   0  0  0  0  0  0
  -21.3659   -5.6792   24.9174 C   0  0  0  0  0  0
  -21.6044   -4.3055   24.7225 C   0  0  0  0  0  0
  -21.8819   -3.8146   23.4346 C   0  0  0  0  0  0
  -21.9192   -4.6963   22.3402 C   0  0  0  0  0  0
  -22.7821  -13.5216   21.1860 C   0  0  0  0  0  0
  -22.1661   -4.2148   21.0980 F   0  0  0  0  0  0
  -21.5629   -3.4539   25.7738 F   0  0  0  0  0  0
  -29.9952  -13.4797   20.4096 N   0  0  0  0  0  0
  -26.2957  -12.9390   20.3332 N   0  0  0  0  0  0
  -25.9327  -11.6535   20.5785 N   0  0  0  0  0  0
  -22.0470  -12.8209   22.0421 N   0  0  0  0  0  0
  -25.4149  -15.1900   20.4025 N   0  0  0  0  0  0
  -31.8607  -14.7126   20.1395 O   0  0  0  0  0  0
  -21.6639   -6.8878   21.4240 O   0  0  0  0  0  0
  -22.3503  -14.5521   20.6706 O   0  0  0  0  0  0
  -24.6301  -31.8603   23.2061 C   0  0  0  0  0  0
  -25.9143  -32.4780   23.8381 C   0  0  1  0  0  0
  -27.2060  -27.2890   20.1061 C   0  0  0  0  0  0
  -25.5953  -33.8582   24.2298 N   0  0  0  0  0  0
  -23.4237  -30.4904   21.5502 C   0  0  2  0  0  0
  -24.8672  -28.9576   20.1073 C   0  0  0  0  0  0
  -22.7497  -29.4635   22.4926 C   0  0  0  0  0  0
  -18.0293  -28.1386   22.8485 C   0  0  0  0  0  0
  -24.1492  -36.7291   23.2636 C   0  0  0  0  0  0
  -25.9725  -30.7791   21.3879 C   0  0  0  0  0  0
  -26.0420  -29.4087   20.7227 C   0  0  0  0  0  0
  -27.2139  -28.5850   20.7204 C   0  0  0  0  0  0
  -26.0076  -26.9281   19.4360 C   0  0  0  0  0  0
  -24.8542  -27.7226   19.4553 C   0  0  0  0  0  0
  -23.6390  -29.8404   20.1617 C   0  0  0  0  0  0
  -25.4116  -36.3083   24.0329 C   0  0  1  0  0  0
  -20.5898  -28.3698   23.1267 C   0  0  2  0  0  0
  -20.6784  -26.9418   22.5401 C   0  0  0  0  0  0
  -19.5755  -26.6385   21.5209 C   0  0  0  0  0  0
  -18.1937  -26.7928   22.1625 C   0  0  0  0  0  0
  -19.1547  -28.8858   23.2872 C   0  0  0  0  0  0
  -18.9467  -30.1459   23.8892 C   0  0  0  0  0  0
  -17.6466  -30.6587   24.0562 C   0  0  0  0  0  0
  -25.9058  -34.9452   23.5109 C   0  0  0  0  0  0
  -16.5357  -29.9083   23.6331 C   0  0  0  0  0  0
  -16.7279  -28.6501   23.0353 C   0  0  0  0  0  0
  -26.4511  -31.6587   25.0754 C   0  0  0  0  0  0
  -25.3733  -31.3732   26.1471 C   0  0  0  0  0  0
  -27.0357  -30.3001   24.6236 C   0  0  0  0  0  0
  -27.6067  -32.4324   25.7525 C   0  0  0  0  0  0
  -27.5581  -37.1803   24.8464 C   0  0  0  0  0  0
  -21.4207  -29.3054   22.3663 N   0  0  0  0  0  0
  -26.4292  -37.3779   23.9409 N   0  0  0  0  0  0
  -24.6945  -31.0595   22.1037 N   0  0  0  0  0  0
  -23.4211  -28.8152   23.2995 O   0  0  0  0  0  0
  -28.2730  -26.3595   20.1863 O   0  0  0  0  0  0
  -26.5616  -34.8916   22.4669 O   0  0  0  0  0  0
  -23.5457  -32.1420   23.7366 O   0  0  0  0  0  0
  -30.4322  -22.1665   21.1040 C   0  0  0  0  0  0
  -29.9199  -23.4906   20.9107 C   0  0  0  0  0  0
  -28.6921  -23.6209   20.2117 C   0  0  0  0  0  0
  -29.7185  -21.0278   20.6334 C   0  0  0  0  0  0
  -31.3870  -24.6707   22.7478 C   0  0  0  0  0  0
  -30.1257  -25.4857   22.5916 C   0  0  0  0  0  0
  -28.9459  -17.7663   21.8069 C   0  0  0  0  0  0
  -28.9379  -16.2282   21.6002 C   0  0  0  0  0  0
  -30.5565  -17.1932   20.1748 C   0  0  0  0  0  0
  -30.6582  -24.6905   21.4220 C   0  0  0  0  0  0
  -29.5938  -18.3766   20.5622 C   0  0  2  0  0  0
  -27.8973  -24.9460   19.8722 C   0  0  0  0  0  0
  -28.0603  -22.4778   19.7859 N   0  0  0  0  0  0
  -28.5411  -21.2284   19.9884 N   0  0  0  0  0  0
  -30.0143  -15.8815   20.6627 N   0  0  0  0  0  0
  -30.2434  -19.7047   20.8074 N   0  0  0  0  0  0
  -31.4655  -12.5304   19.1481 H   0  0  0  0  0  0
  -30.3586  -11.4404   19.9223 H   0  0  0  0  0  0
  -29.7720  -11.7477   17.4949 H   0  0  0  0  0  0
  -29.6371  -13.4730   17.7283 H   0  0  0  0  0  0
  -27.8687  -11.2936   18.8802 H   0  0  0  0  0  0
  -27.3688  -12.5642   17.7962 H   0  0  0  0  0  0
  -27.6559  -14.2563   19.5057 H   0  0  0  0  0  0
  -28.7311  -12.0809   21.3619 H   0  0  0  0  0  0
  -28.4300  -13.7090   21.8495 H   0  0  0  0  0  0
  -25.2764   -9.5679   22.4765 H   0  0  0  0  0  0
  -24.0002   -7.4630   22.7474 H   0  0  0  0  0  0
  -21.0845   -8.8774   19.8952 H   0  0  0  0  0  0
  -22.3702  -10.9673   19.6169 H   0  0  0  0  0  0
  -21.2006   -7.6148   23.9715 H   0  0  0  0  0  0
  -21.1482   -6.0523   25.9077 H   0  0  0  0  0  0
  -22.0599   -2.7609   23.2846 H   0  0  0  0  0  0
  -22.4091  -11.9873   22.4810 H   0  0  0  0  0  0
  -21.1088  -13.1231   22.2629 H   0  0  0  0  0  0
  -24.6437  -15.8402   20.5069 H   0  0  0  0  0  0
  -26.2596  -15.6295   20.0609 H   0  0  0  0  0  0
  -26.7208  -32.5436   23.1122 H   0  0  0  0  0  0
  -25.0108  -33.9731   25.0448 H   0  0  0  0  0  0
  -22.7187  -31.3131   21.4133 H   0  0  0  0  0  0
  -23.3755  -35.9623   23.3298 H   0  0  0  0  0  0
  -24.3585  -36.8910   22.2050 H   0  0  0  0  0  0
  -23.7243  -37.6493   23.6656 H   0  0  0  0  0  0
  -26.1155  -31.5448   20.6241 H   0  0  0  0  0  0
  -26.8491  -30.8193   22.0225 H   0  0  0  0  0  0
  -28.1062  -28.9194   21.2309 H   0  0  0  0  0  0
  -25.8976  -26.0033   18.8920 H   0  0  0  0  0  0
  -23.9592  -27.3771   18.9559 H   0  0  0  0  0  0
  -23.7632  -30.6242   19.4136 H   0  0  0  0  0  0
  -22.7569  -29.2770   19.8522 H   0  0  0  0  0  0
  -25.1294  -36.1937   25.0821 H   0  0  0  0  0  0
  -20.9991  -28.3272   24.1387 H   0  0  0  0  0  0
  -20.5690  -26.2308   23.3604 H   0  0  0  0  0  0
  -21.6651  -26.7448   22.1189 H   0  0  0  0  0  0
  -19.6918  -25.6295   21.1241 H   0  0  0  0  0  0
  -19.6688  -27.3193   20.6736 H   0  0  0  0  0  0
  -17.4204  -26.6671   21.4031 H   0  0  0  0  0  0
  -18.0343  -26.0071   22.9024 H   0  0  0  0  0  0
  -19.7942  -30.7277   24.2258 H   0  0  0  0  0  0
  -17.5020  -31.6267   24.5163 H   0  0  0  0  0  0
  -15.5357  -30.2983   23.7659 H   0  0  0  0  0  0
  -15.8679  -28.0818   22.7072 H   0  0  0  0  0  0
  -24.5918  -30.7070   25.7800 H   0  0  0  0  0  0
  -24.8914  -32.2899   26.4880 H   0  0  0  0  0  0
  -25.8052  -30.8923   27.0257 H   0  0  0  0  0  0
  -26.2945  -29.6753   24.1238 H   0  0  0  0  0  0
  -27.4011  -29.7258   25.4759 H   0  0  0  0  0  0
  -27.8839  -30.4270   23.9505 H   0  0  0  0  0  0
  -27.2676  -33.3626   26.2096 H   0  0  0  0  0  0
  -28.3882  -32.6880   25.0357 H   0  0  0  0  0  0
  -28.0730  -31.8453   26.5447 H   0  0  0  0  0  0
  -28.2593  -38.0106   24.7518 H   0  0  0  0  0  0
  -28.1083  -36.2638   24.6280 H   0  0  0  0  0  0
  -27.2301  -37.1439   25.8867 H   0  0  0  0  0  0
  -20.9383  -29.8797   21.6892 H   0  0  0  0  0  0
  -26.0172  -38.2853   24.1412 H   0  0  0  0  0  0
  -31.3732  -22.0300   21.6158 H   0  0  0  0  0  0
  -31.3228  -23.7771   23.3658 H   0  0  0  0  0  0
  -32.3216  -25.2233   22.8223 H   0  0  0  0  0  0
  -30.2360  -26.5681   22.5597 H   0  0  0  0  0  0
  -29.2287  -25.1220   23.0896 H   0  0  0  0  0  0
  -29.5485  -17.9947   22.6878 H   0  0  0  0  0  0
  -27.9468  -18.1638   21.9915 H   0  0  0  0  0  0
  -27.9840  -15.9228   21.1752 H   0  0  0  0  0  0
  -29.0621  -15.7200   22.5574 H   0  0  0  0  0  0
  -31.5342  -17.3410   20.6371 H   0  0  0  0  0  0
  -30.7185  -17.1609   19.0963 H   0  0  0  0  0  0
  -31.1139  -25.2449   20.6031 H   0  0  0  0  0  0
  -28.8354  -18.4804   19.7836 H   0  0  0  0  0  0
  -26.9375  -24.7494   20.3529 H   0  0  0  0  0  0
  -27.7399  -24.8972   18.7938 H   0  0  0  0  0  0
  -31.1441  -19.6692   21.2722 H   0  0  0  0  0  0
  1 25  1  0  0  0
  1 30  2  0  0  0
  1 85  1  0  0  0
  2  3  1  0  0  0
  2 25  1  0  0  0
  2 87  1  0  0  0
  2 88  1  0  0  0
  3  4  1  0  0  0
  3 89  1  0  0  0
  3 90  1  0  0  0
  4  5  1  0  0  0
  4 91  1  0  0  0
  4 92  1  0  0  0
  5  6  1  0  0  0
  5 26  1  0  0  0
  5 93  1  0  0  0
  6 25  1  0  0  0
  6 94  1  0  0  0
  6 95  1  0  0  0
  7  8  2  0  0  0
  7 26  1  0  0  0
  7 29  1  0  0  0
  8  9  1  0  0  0
  8 22  1  0  0  0
  9 10  1  0  0  0
  9 27  2  0  0  0
 10 11  2  0  0  0
 10 15  1  0  0  0
 11 12  1  0  0  0
 11 96  1  0  0  0
 12 13  2  0  0  0
 12 97  1  0  0  0
 13 14  1  0  0  0
 13 31  1  0  0  0
 14 15  2  0  0  0
 14 98  1  0  0  0
 15 99  1  0  0  0
 16 17  2  0  0  0
 16 21  1  0  0  0
 16 31  1  0  0  0
 17 18  1  0  0  0
 17100  1  0  0  0
 18 19  2  0  0  0
 18101  1  0  0  0
 19 20  1  0  0  0
 19 24  1  0  0  0
 20 21  2  0  0  0
 20102  1  0  0  0
 21 23  1  0  0  0
 22 28  1  0  0  0
 22 32  2  0  0  0
 26 27  1  0  0  0
 28103  1  0  0  0
 28104  1  0  0  0
 29105  1  0  0  0
 29106  1  0  0  0
 33 34  1  0  0  0
 33 66  1  0  0  0
 33 70  2  0  0  0
 34 36  1  0  0  0
 34 59  1  0  0  0
 34107  1  0  0  0
 35 44  2  0  0  0
 35 45  1  0  0  0
 35 68  1  0  0  0
 36 56  1  0  0  0
 36108  1  0  0  0
 37 39  1  0  0  0
 37 47  1  0  0  0
 37 66  1  0  0  0
 37109  1  0  0  0
 38 43  2  0  0  0
 38 46  1  0  0  0
 38 47  1  0  0  0
 39 64  1  0  0  0
 39 67  2  0  0  0
 40 52  1  0  0  0
 40 53  2  0  0  0
 40 58  1  0  0  0
 41110  1  0  0  0
 41111  1  0  0  0
 41112  1  0  0  0
 41 48  1  0  0  0
 42 43  1  0  0  0
 42 66  1  0  0  0
 42113  1  0  0  0
 42114  1  0  0  0
 43 44  1  0  0  0
 44115  1  0  0  0
 45 46  2  0  0  0
 45116  1  0  0  0
 46117  1  0  0  0
 47118  1  0  0  0
 47119  1  0  0  0
 48 56  1  0  0  0
 48 65  1  0  0  0
 48120  1  0  0  0
 49 50  1  0  0  0
 49 53  1  0  0  0
 49 64  1  0  0  0
 49121  1  0  0  0
 50 51  1  0  0  0
 50122  1  0  0  0
 50123  1  0  0  0
 51 52  1  0  0  0
 51124  1  0  0  0
 51125  1  0  0  0
 52126  1  0  0  0
 52127  1  0  0  0
 53 54  1  0  0  0
 54 55  2  0  0  0
 54128  1  0  0  0
 55 57  1  0  0  0
 55129  1  0  0  0
 56 69  2  0  0  0
 57 58  2  0  0  0
 57130  1  0  0  0
 58131  1  0  0  0
 59 60  1  0  0  0
 59 61  1  0  0  0
 59 62  1  0  0  0
 60132  1  0  0  0
 60133  1  0  0  0
 60134  1  0  0  0
 61135  1  0  0  0
 61136  1  0  0  0
 61137  1  0  0  0
 62138  1  0  0  0
 62139  1  0  0  0
 62140  1  0  0  0
 63 65  1  0  0  0
 63141  1  0  0  0
 63142  1  0  0  0
 63143  1  0  0  0
 64144  1  0  0  0
 65145  1  0  0  0
 68 82  1  0  0  0
 71 72  2  0  0  0
 71 74  1  0  0  0
 71146  1  0  0  0
 72 73  1  0  0  0
 72 80  1  0  0  0
 73 82  1  0  0  0
 73 83  2  0  0  0
 74 84  2  0  0  0
 74 86  1  0  0  0
 75 76  1  0  0  0
 75 80  1  0  0  0
 75147  1  0  0  0
 75148  1  0  0  0
 76 80  1  0  0  0
 76149  1  0  0  0
 76150  1  0  0  0
 77 78  1  0  0  0
 77 81  1  0  0  0
 77151  1  0  0  0
 77152  1  0  0  0
 78 85  1  0  0  0
 78153  1  0  0  0
 78154  1  0  0  0
 79 81  1  0  0  0
 79 85  1  0  0  0
 79155  1  0  0  0
 79156  1  0  0  0
 80157  1  0  0  0
 81 86  1  0  0  0
 81158  1  0  0  0
 82159  1  0  0  0
 82160  1  0  0  0
 83 84  1  0  0  0
 86161  1  0  0  0
M  ISO  4   1 100  68 101  82 101  85 100
M  END
> <chiral flag>
0

> <version>
0

> <s_m_source_file>
/data/baiqing/PycharmProjects/Reinvent-master-3.2/result/LINK_invent/BTK/process_docking_weight1_custom_sum_contain_oxygen_bond_distance_aromatic_linkinvent_7_9_3/rearranged_h_0192.sdf

> <i_m_source_file_index>
49

> <r_mmod_Potential_Energy-OPLS-2005>
307.610778808594

> <r_mmod_Stretch_Energy-OPLS-2005>
90.8010025024414

> <r_mmod_Bend_Energy-OPLS-2005>
215.720199584961

> <r_mmod_Torsional_Energy-OPLS-2005>
331.323822021484

> <r_mmod_Improper_Torsional_Energy-OPLS-2005>
11.2016868591309

> <r_mmod_Van_der_Waal_Energy-OPLS-2005>
148.506912231445

> <r_mmod_Electrostatic_Energy-OPLS-2005>
-327.684661865234

> <r_mmod_Solvation_Energy-OPLS-2005>
-229.32536315918

> <b_mmod_Minimization_Converged-OPLS-2005>
0

> <r_mmod_RMS_Derivative-OPLS-2005>
0.103783905506134

$$$$
49
                    3D
 Structure written by MMmdl.
167177  0  0  1  0            999 V2000
  -30.7444  -14.7530   20.5023 C   0  0  0  0  0  0
  -30.4125  -12.4951   19.4711 C   0  0  0  0  0  0
  -29.4935  -12.5117   18.2337 C   0  0  0  0  0  0
  -28.0291  -12.3333   18.6666 C   0  0  0  0  0  0
  -27.6392  -13.2460   19.8589 C   0  0  2  0  0  0
  -28.7006  -13.2313   20.9871 C   0  0  0  0  0  0
  -25.2486  -13.8246   20.5857 C   0  0  0  0  0  0
  -24.1783  -13.0458   20.9263 C   0  0  0  0  0  0
  -24.6390  -11.6930   20.8798 C   0  0  0  0  0  0
  -23.9091  -10.4303   21.0431 C   0  0  0  0  0  0
  -24.3610   -9.4169   21.9185 C   0  0  0  0  0  0
  -23.6287   -8.2203   22.0774 C   0  0  0  0  0  0
  -22.4266   -8.0290   21.3562 C   0  0  0  0  0  0
  -21.9891   -9.0272   20.4675 C   0  0  0  0  0  0
  -22.7244  -10.2151   20.3061 C   0  0  0  0  0  0
  -21.6844   -6.0717   22.5277 C   0  0  0  0  0  0
  -21.4038   -6.5610   23.8213 C   0  0  0  0  0  0
  -21.3676   -5.6766   24.9180 C   0  0  0  0  0  0
  -21.6036   -4.3026   24.7221 C   0  0  0  0  0  0
  -21.8814   -3.8127   23.4342 C   0  0  0  0  0  0
  -21.9177   -4.6949   22.3399 C   0  0  0  0  0  0
  -22.7790  -13.5242   21.1849 C   0  0  0  0  0  0
  -22.1647   -4.2126   21.0983 F   0  0  0  0  0  0
  -21.5609   -3.4524   25.7736 F   0  0  0  0  0  0
  -29.9814  -13.6028   20.3695 N   0  0  0  0  0  0
  -26.2943  -12.9481   20.3437 N   0  0  0  0  0  0
  -25.9335  -11.6609   20.5845 N   0  0  0  0  0  0
  -22.0377  -12.8327   22.0445 N   0  0  0  0  0  0
  -25.4028  -15.1971   20.4286 N   0  0  0  0  0  0
  -31.9398  -14.6505   20.2192 O   0  0  0  0  0  0
  -21.6634   -6.8876   21.4248 O   0  0  0  0  0  0
  -22.3490  -14.5527   20.6638 O   0  0  0  0  0  0
  -24.6297  -31.8549   23.1994 C   0  0  0  0  0  0
  -25.9118  -32.4766   23.8350 C   0  0  1  0  0  0
  -27.2228  -27.2702   20.1210 C   0  0  0  0  0  0
  -25.5917  -33.8577   24.2274 N   0  0  0  0  0  0
  -23.4282  -30.4759   21.5459 C   0  0  2  0  0  0
  -24.8739  -28.9212   20.1110 C   0  0  0  0  0  0
  -22.7518  -29.4573   22.4956 C   0  0  0  0  0  0
  -18.0294  -28.1359   22.8494 C   0  0  0  0  0  0
  -24.1471  -36.7275   23.2641 C   0  0  0  0  0  0
  -25.9738  -30.7660   21.3823 C   0  0  0  0  0  0
  -26.0425  -29.3894   20.7227 C   0  0  0  0  0  0
  -27.2156  -28.5719   20.7276 C   0  0  0  0  0  0
  -26.0233  -26.8574   19.4983 C   0  0  0  0  0  0
  -24.8674  -27.6618   19.4920 C   0  0  0  0  0  0
  -23.6449  -29.8095   20.1602 C   0  0  0  0  0  0
  -25.4099  -36.3090   24.0340 C   0  0  1  0  0  0
  -20.5911  -28.3667   23.1275 C   0  0  2  0  0  0
  -20.6774  -26.9380   22.5418 C   0  0  0  0  0  0
  -19.5741  -26.6364   21.5215 C   0  0  0  0  0  0
  -18.1929  -26.7909   22.1624 C   0  0  0  0  0  0
  -19.1556  -28.8834   23.2878 C   0  0  0  0  0  0
  -18.9456  -30.1446   23.8884 C   0  0  0  0  0  0
  -17.6456  -30.6575   24.0550 C   0  0  0  0  0  0
  -25.9038  -34.9461   23.5120 C   0  0  0  0  0  0
  -16.5354  -29.9066   23.6333 C   0  0  0  0  0  0
  -16.7274  -28.6475   23.0367 C   0  0  0  0  0  0
  -26.4485  -31.6616   25.0767 C   0  0  0  0  0  0
  -25.3719  -31.3786   26.1515 C   0  0  0  0  0  0
  -27.0350  -30.3042   24.6254 C   0  0  0  0  0  0
  -27.6016  -32.4402   25.7534 C   0  0  0  0  0  0
  -27.5591  -37.1765   24.8448 C   0  0  0  0  0  0
  -21.4229  -29.3018   22.3692 N   0  0  0  0  0  0
  -26.4259  -37.3800   23.9451 N   0  0  0  0  0  0
  -24.6968  -31.0519   22.0980 N   0  0  0  0  0  0
  -23.4241  -28.8108   23.3037 O   0  0  0  0  0  0
  -28.3092  -26.3755   20.2298 O   0  0  0  0  0  0
  -26.5629  -34.8927   22.4697 O   0  0  0  0  0  0
  -23.5443  -32.1368   23.7297 O   0  0  0  0  0  0
  -28.9943  -23.1170   18.2761 C   0  0  0  0  0  0
  -29.2954  -21.8432   18.6808 C   0  0  0  0  0  0
  -29.0898  -21.8303   20.0996 C   0  0  0  0  0  0
  -31.2887  -20.7989   17.4280 C   0  0  0  0  0  0
  -30.2727  -21.0804   16.3540 C   0  0  0  0  0  0
  -31.2249  -17.2182   20.5883 C   0  0  0  0  0  0
  -28.9176  -16.5566   21.1489 C   0  0  0  0  0  0
  -30.7179  -18.6659   20.1893 C   0  0  0  0  0  0
  -28.4868  -18.0813   20.8879 C   0  0  0  0  0  0
  -29.8121  -20.7709   17.7638 C   0  0  0  0  0  0
  -27.9539  -20.7715   22.0906 C   0  0  0  0  0  0
  -28.6092  -25.4656   19.1427 C   0  0  0  0  0  0
  -29.2063  -20.6581   21.1918 C   0  0  1  0  0  0
  -28.8346  -23.1458   20.4820 N   0  0  0  0  0  0
  -28.7594  -23.9507   19.3484 N   0  0  0  0  0  0
  -30.2456  -16.0693   20.6636 N   0  0  0  0  0  0
  -29.5569  -19.1365   20.9913 N   0  3  0  0  0  0
  -31.4512  -12.5758   19.1461 H   0  0  0  0  0  0
  -30.3591  -11.5370   19.9917 H   0  0  0  0  0  0
  -29.7788  -11.7154   17.5450 H   0  0  0  0  0  0
  -29.6090  -13.4516   17.6902 H   0  0  0  0  0  0
  -27.8994  -11.2919   18.9603 H   0  0  0  0  0  0
  -27.3592  -12.5003   17.8219 H   0  0  0  0  0  0
  -27.6166  -14.2558   19.4512 H   0  0  0  0  0  0
  -28.7683  -12.2400   21.4415 H   0  0  0  0  0  0
  -28.4428  -13.9138   21.7959 H   0  0  0  0  0  0
  -25.2740   -9.5638   22.4795 H   0  0  0  0  0  0
  -23.9963   -7.4587   22.7501 H   0  0  0  0  0  0
  -21.0783   -8.8822   19.9014 H   0  0  0  0  0  0
  -22.3682  -10.9697   19.6207 H   0  0  0  0  0  0
  -21.2078   -7.6124   23.9738 H   0  0  0  0  0  0
  -21.1499   -6.0482   25.9078 H   0  0  0  0  0  0
  -22.0581   -2.7585   23.2837 H   0  0  0  0  0  0
  -22.3892  -12.0004   22.4928 H   0  0  0  0  0  0
  -21.0999  -13.1449   22.2572 H   0  0  0  0  0  0
  -24.6299  -15.8402   20.5675 H   0  0  0  0  0  0
  -26.2409  -15.6519   20.0965 H   0  0  0  0  0  0
  -26.7196  -32.5399   23.1090 H   0  0  0  0  0  0
  -25.0100  -33.9724   25.0452 H   0  0  0  0  0  0
  -22.7188  -31.2959   21.4012 H   0  0  0  0  0  0
  -23.3773  -35.9558   23.3258 H   0  0  0  0  0  0
  -24.3564  -36.8947   22.2061 H   0  0  0  0  0  0
  -23.7137  -37.6430   23.6684 H   0  0  0  0  0  0
  -26.1229  -31.5259   20.6156 H   0  0  0  0  0  0
  -26.8466  -30.8057   22.0217 H   0  0  0  0  0  0
  -28.1081  -28.9174   21.2322 H   0  0  0  0  0  0
  -25.9409  -25.8711   19.0645 H   0  0  0  0  0  0
  -23.9671  -27.2877   19.0260 H   0  0  0  0  0  0
  -23.7674  -30.5870   19.4040 H   0  0  0  0  0  0
  -22.7619  -29.2454   19.8552 H   0  0  0  0  0  0
  -25.1252  -36.1950   25.0821 H   0  0  0  0  0  0
  -20.9973  -28.3233   24.1401 H   0  0  0  0  0  0
  -20.5663  -26.2269   23.3624 H   0  0  0  0  0  0
  -21.6644  -26.7401   22.1207 H   0  0  0  0  0  0
  -19.6902  -25.6278   21.1233 H   0  0  0  0  0  0
  -19.6681  -27.3181   20.6750 H   0  0  0  0  0  0
  -17.4208  -26.6683   21.4012 H   0  0  0  0  0  0
  -18.0299  -26.0039   22.8997 H   0  0  0  0  0  0
  -19.7953  -30.7257   24.2241 H   0  0  0  0  0  0
  -17.5021  -31.6244   24.5158 H   0  0  0  0  0  0
  -15.5347  -30.2944   23.7661 H   0  0  0  0  0  0
  -15.8687  -28.0764   22.7102 H   0  0  0  0  0  0
  -24.5796  -30.7246   25.7853 H   0  0  0  0  0  0
  -24.9033  -32.2984   26.5030 H   0  0  0  0  0  0
  -25.8035  -30.8876   27.0248 H   0  0  0  0  0  0
  -26.2953  -29.6806   24.1216 H   0  0  0  0  0  0
  -27.3982  -29.7280   25.4772 H   0  0  0  0  0  0
  -27.8851  -30.4351   23.9555 H   0  0  0  0  0  0
  -27.2560  -33.3663   26.2143 H   0  0  0  0  0  0
  -28.3783  -32.7051   25.0353 H   0  0  0  0  0  0
  -28.0741  -31.8551   26.5430 H   0  0  0  0  0  0
  -28.2541  -38.0137   24.7647 H   0  0  0  0  0  0
  -28.1158  -36.2682   24.6075 H   0  0  0  0  0  0
  -27.2353  -37.1196   25.8857 H   0  0  0  0  0  0
  -20.9422  -29.8758   21.6912 H   0  0  0  0  0  0
  -26.0157  -38.2864   24.1529 H   0  0  0  0  0  0
  -29.0162  -23.5340   17.2773 H   0  0  0  0  0  0
  -31.8609  -21.6473   17.8001 H   0  0  0  0  0  0
  -31.8368  -19.8614   17.3727 H   0  0  0  0  0  0
  -30.1401  -20.3101   15.5976 H   0  0  0  0  0  0
  -30.1986  -22.0993   15.9839 H   0  0  0  0  0  0
  -31.7538  -17.2680   21.5428 H   0  0  0  0  0  0
  -31.9986  -16.9951   19.8500 H   0  0  0  0  0  0
  -28.1412  -15.9367   20.7167 H   0  0  0  0  0  0
  -28.8806  -16.3593   22.2213 H   0  0  0  0  0  0
  -30.4317  -18.6065   19.1449 H   0  0  0  0  0  0
  -31.5338  -19.3843   20.2432 H   0  0  0  0  0  0
  -27.6756  -18.2910   21.5825 H   0  0  0  0  0  0
  -28.0455  -18.1721   19.8925 H   0  0  0  0  0  0
  -29.2778  -19.8308   17.8607 H   0  0  0  0  0  0
  -27.8401  -21.7811   22.4856 H   0  0  0  0  0  0
  -28.0006  -20.1144   22.9571 H   0  0  0  0  0  0
  -27.0519  -20.5442   21.5218 H   0  0  0  0  0  0
  -27.9399  -25.6133   18.2946 H   0  0  0  0  0  0
  -29.5809  -25.8027   18.7771 H   0  0  0  0  0  0
  -30.0394  -20.9748   21.8196 H   0  0  0  0  0  0
  -29.9070  -18.9720   21.9225 H   0  0  0  0  0  0
  1 25  1  0  0  0
  1 30  2  0  0  0
  1 86  1  0  0  0
  2  3  1  0  0  0
  2 25  1  0  0  0
  2 88  1  0  0  0
  2 89  1  0  0  0
  3  4  1  0  0  0
  3 90  1  0  0  0
  3 91  1  0  0  0
  4  5  1  0  0  0
  4 92  1  0  0  0
  4 93  1  0  0  0
  5  6  1  0  0  0
  5 26  1  0  0  0
  5 94  1  0  0  0
  6 25  1  0  0  0
  6 95  1  0  0  0
  6 96  1  0  0  0
  7  8  2  0  0  0
  7 26  1  0  0  0
  7 29  1  0  0  0
  8  9  1  0  0  0
  8 22  1  0  0  0
  9 10  1  0  0  0
  9 27  2  0  0  0
 10 11  2  0  0  0
 10 15  1  0  0  0
 11 12  1  0  0  0
 11 97  1  0  0  0
 12 13  2  0  0  0
 12 98  1  0  0  0
 13 14  1  0  0  0
 13 31  1  0  0  0
 14 15  2  0  0  0
 14 99  1  0  0  0
 15100  1  0  0  0
 16 17  2  0  0  0
 16 21  1  0  0  0
 16 31  1  0  0  0
 17 18  1  0  0  0
 17101  1  0  0  0
 18 19  2  0  0  0
 18102  1  0  0  0
 19 20  1  0  0  0
 19 24  1  0  0  0
 20 21  2  0  0  0
 20103  1  0  0  0
 21 23  1  0  0  0
 22 28  1  0  0  0
 22 32  2  0  0  0
 26 27  1  0  0  0
 28104  1  0  0  0
 28105  1  0  0  0
 29106  1  0  0  0
 29107  1  0  0  0
 33 34  1  0  0  0
 33 66  1  0  0  0
 33 70  2  0  0  0
 34 36  1  0  0  0
 34 59  1  0  0  0
 34108  1  0  0  0
 35 44  2  0  0  0
 35 45  1  0  0  0
 35 68  1  0  0  0
 36 56  1  0  0  0
 36109  1  0  0  0
 37 39  1  0  0  0
 37 47  1  0  0  0
 37 66  1  0  0  0
 37110  1  0  0  0
 38 43  2  0  0  0
 38 46  1  0  0  0
 38 47  1  0  0  0
 39 64  1  0  0  0
 39 67  2  0  0  0
 40 52  1  0  0  0
 40 53  2  0  0  0
 40 58  1  0  0  0
 41111  1  0  0  0
 41112  1  0  0  0
 41113  1  0  0  0
 41 48  1  0  0  0
 42 43  1  0  0  0
 42 66  1  0  0  0
 42114  1  0  0  0
 42115  1  0  0  0
 43 44  1  0  0  0
 44116  1  0  0  0
 45 46  2  0  0  0
 45117  1  0  0  0
 46118  1  0  0  0
 47119  1  0  0  0
 47120  1  0  0  0
 48 56  1  0  0  0
 48 65  1  0  0  0
 48121  1  0  0  0
 49 50  1  0  0  0
 49 53  1  0  0  0
 49 64  1  0  0  0
 49122  1  0  0  0
 50 51  1  0  0  0
 50123  1  0  0  0
 50124  1  0  0  0
 51 52  1  0  0  0
 51125  1  0  0  0
 51126  1  0  0  0
 52127  1  0  0  0
 52128  1  0  0  0
 53 54  1  0  0  0
 54 55  2  0  0  0
 54129  1  0  0  0
 55 57  1  0  0  0
 55130  1  0  0  0
 56 69  2  0  0  0
 57 58  2  0  0  0
 57131  1  0  0  0
 58132  1  0  0  0
 59 60  1  0  0  0
 59 61  1  0  0  0
 59 62  1  0  0  0
 60133  1  0  0  0
 60134  1  0  0  0
 60135  1  0  0  0
 61136  1  0  0  0
 61137  1  0  0  0
 61138  1  0  0  0
 62139  1  0  0  0
 62140  1  0  0  0
 62141  1  0  0  0
 63 65  1  0  0  0
 63142  1  0  0  0
 63143  1  0  0  0
 63144  1  0  0  0
 64145  1  0  0  0
 65146  1  0  0  0
 68 82  1  0  0  0
 71 72  2  0  0  0
 71 85  1  0  0  0
 71147  1  0  0  0
 72 73  1  0  0  0
 72 80  1  0  0  0
 73 83  1  0  0  0
 73 84  2  0  0  0
 74 75  1  0  0  0
 74 80  1  0  0  0
 74148  1  0  0  0
 74149  1  0  0  0
 75 80  1  0  0  0
 75150  1  0  0  0
 75151  1  0  0  0
 76 78  1  0  0  0
 76 86  1  0  0  0
 76152  1  0  0  0
 76153  1  0  0  0
 77 79  1  0  0  0
 77 86  1  0  0  0
 77154  1  0  0  0
 77155  1  0  0  0
 78156  1  0  0  0
 78157  1  0  0  0
 78 87  1  0  0  0
 79 87  1  0  0  0
 79158  1  0  0  0
 79159  1  0  0  0
 80160  1  0  0  0
 81161  1  0  0  0
 81162  1  0  0  0
 81163  1  0  0  0
 81 83  1  0  0  0
 82 85  1  0  0  0
 82164  1  0  0  0
 82165  1  0  0  0
 83 87  1  0  0  0
 83166  1  0  0  0
 84 85  1  0  0  0
 87167  1  0  0  0
M  CHG  1  87   1
M  ISO  4   1 100  68 101  82 101  86 100
M  END
> <chiral flag>
0

> <version>
0

> <s_m_source_file>
/data/baiqing/PycharmProjects/Reinvent-master-3.2/result/LINK_invent/BTK/process_docking_weight1_custom_sum_contain_oxygen_bond_distance_aromatic_linkinvent_7_9_3/rearranged_h_0192.sdf

> <i_m_source_file_index>
50

> <r_mmod_Potential_Energy-OPLS-2005>
379.439666748047

> <r_mmod_Stretch_Energy-OPLS-2005>
141.878829956055

> <r_mmod_Bend_Energy-OPLS-2005>
313.914276123047

> <r_mmod_Torsional_Energy-OPLS-2005>
395.732208251953

> <r_mmod_Improper_Torsional_Energy-OPLS-2005>
7.84328126907349

> <r_mmod_Van_der_Waal_Energy-OPLS-2005>
131.546676635742

> <r_mmod_Electrostatic_Energy-OPLS-2005>
-241.807891845703

> <r_mmod_Solvation_Energy-OPLS-2005>
-466.296783447266

> <b_mmod_Minimization_Converged-OPLS-2005>
0

> <r_mmod_RMS_Derivative-OPLS-2005>
5.93591451644897

$$$$
50
                    3D
 Structure written by MMmdl.
168177  0  0  1  0            999 V2000
  -30.7638  -14.3629   20.6554 C   0  0  0  0  0  0
  -30.4122  -12.2678   19.4040 C   0  0  0  0  0  0
  -29.4854  -12.5146   18.1982 C   0  0  0  0  0  0
  -28.0079  -12.3799   18.6117 C   0  0  0  0  0  0
  -27.6675  -13.2015   19.8831 C   0  0  2  0  0  0
  -28.7041  -12.9388   20.9991 C   0  0  0  0  0  0
  -25.2606  -13.8157   20.5676 C   0  0  0  0  0  0
  -24.1845  -13.0440   20.9159 C   0  0  0  0  0  0
  -24.6391  -11.6905   20.8727 C   0  0  0  0  0  0
  -23.9056  -10.4294   21.0401 C   0  0  0  0  0  0
  -24.3611   -9.4210   21.9179 C   0  0  0  0  0  0
  -23.6290   -8.2244   22.0752 C   0  0  0  0  0  0
  -22.4271   -8.0281   21.3545 C   0  0  0  0  0  0
  -21.9903   -9.0252   20.4645 C   0  0  0  0  0  0
  -22.7229  -10.2132   20.3052 C   0  0  0  0  0  0
  -21.6852   -6.0735   22.5281 C   0  0  0  0  0  0
  -21.4012   -6.5639   23.8214 C   0  0  0  0  0  0
  -21.3660   -5.6793   24.9175 C   0  0  0  0  0  0
  -21.6045   -4.3056   24.7225 C   0  0  0  0  0  0
  -21.8819   -3.8148   23.4347 C   0  0  0  0  0  0
  -21.9192   -4.6964   22.3404 C   0  0  0  0  0  0
  -22.7869  -13.5242   21.1835 C   0  0  0  0  0  0
  -22.1661   -4.2150   21.0981 F   0  0  0  0  0  0
  -21.5629   -3.4540   25.7737 F   0  0  0  0  0  0
  -30.0503  -13.2213   20.4640 N   0  0  0  0  0  0
  -26.3048  -12.9320   20.3396 N   0  0  0  0  0  0
  -25.9319  -11.6483   20.5770 N   0  0  0  0  0  0
  -22.0511  -12.8233   22.0391 N   0  0  0  0  0  0
  -25.4350  -15.1872   20.4096 N   0  0  0  0  0  0
  -31.8124  -14.5885   20.0380 O   0  0  0  0  0  0
  -21.6638   -6.8876   21.4242 O   0  0  0  0  0  0
  -22.3555  -14.5555   20.6694 O   0  0  0  0  0  0
  -24.6094  -31.8710   23.2131 C   0  0  0  0  0  0
  -25.9009  -32.4838   23.8409 C   0  0  1  0  0  0
  -27.2356  -27.4760   20.0856 C   0  0  0  0  0  0
  -25.5884  -33.8636   24.2346 N   0  0  0  0  0  0
  -23.3946  -30.4951   21.5528 C   0  0  2  0  0  0
  -24.8393  -28.9650   20.1155 C   0  0  0  0  0  0
  -22.7379  -29.4673   22.5007 C   0  0  0  0  0  0
  -18.0264  -28.1372   22.8491 C   0  0  0  0  0  0
  -24.1486  -36.7323   23.2639 C   0  0  0  0  0  0
  -25.9185  -30.8493   21.3591 C   0  0  0  0  0  0
  -25.9958  -29.4866   20.7072 C   0  0  0  0  0  0
  -27.1958  -28.7491   20.6882 C   0  0  0  0  0  0
  -26.0626  -26.9587   19.4875 C   0  0  0  0  0  0
  -24.8655  -27.6983   19.5054 C   0  0  0  0  0  0
  -23.5993  -29.8269   20.1667 C   0  0  0  0  0  0
  -25.4104  -36.3122   24.0343 C   0  0  1  0  0  0
  -20.5850  -28.3648   23.1332 C   0  0  2  0  0  0
  -20.6755  -26.9390   22.5419 C   0  0  0  0  0  0
  -19.5738  -26.6383   21.5210 C   0  0  0  0  0  0
  -18.1914  -26.7921   22.1619 C   0  0  0  0  0  0
  -19.1513  -28.8826   23.2912 C   0  0  0  0  0  0
  -18.9445  -30.1433   23.8920 C   0  0  0  0  0  0
  -17.6451  -30.6580   24.0566 C   0  0  0  0  0  0
  -25.9026  -34.9485   23.5141 C   0  0  0  0  0  0
  -16.5339  -29.9087   23.6323 C   0  0  0  0  0  0
  -16.7255  -28.6503   23.0342 C   0  0  0  0  0  0
  -26.4456  -31.6604   25.0718 C   0  0  0  0  0  0
  -25.3743  -31.3704   26.1482 C   0  0  0  0  0  0
  -27.0279  -30.3056   24.6059 C   0  0  0  0  0  0
  -27.6041  -32.4313   25.7475 C   0  0  0  0  0  0
  -27.5583  -37.1814   24.8465 C   0  0  0  0  0  0
  -21.4112  -29.3027   22.3748 N   0  0  0  0  0  0
  -26.4296  -37.3801   23.9408 N   0  0  0  0  0  0
  -24.6590  -31.0851   22.1008 N   0  0  0  0  0  0
  -23.4177  -28.8211   23.3024 O   0  0  0  0  0  0
  -28.4314  -26.8010   20.0874 O   0  0  0  0  0  0
  -26.5586  -34.8927   22.4699 O   0  0  0  0  0  0
  -23.5302  -32.1440   23.7557 O   0  0  0  0  0  0
  -29.4333  -18.5765   22.0480 C   0  0  0  0  0  0
  -30.6296  -19.2423   21.7316 C   0  0  0  0  0  0
  -31.7361  -18.4220   21.4687 C   0  0  0  0  0  0
  -30.4260  -16.5531   21.6973 C   0  0  0  0  0  0
  -30.0772  -21.2144   20.2638 C   0  0  0  0  0  0
  -30.0772  -21.5383   22.7606 C   0  0  0  0  0  0
  -30.1770  -22.7368   20.0866 C   0  0  0  0  0  0
  -30.1874  -23.0581   22.5283 C   0  0  0  0  0  0
  -30.7092  -20.7602   21.5910 C   0  0  1  0  0  0
  -35.2542  -18.9666   20.4435 C   0  0  0  0  0  0
  -29.5448  -24.9275   21.0412 C   0  0  0  0  0  0
  -34.0347  -18.1134   20.8044 C   0  0  0  0  0  0
  -28.3846  -25.3811   20.1429 C   0  0  0  0  0  0
  -29.3384  -17.2343   22.0303 N   0  0  0  0  0  0
  -31.6240  -17.0836   21.4740 N   0  0  0  0  0  0
  -30.2363  -15.2084   21.5564 N   0  0  0  0  0  0
  -29.5657  -23.4555   21.2361 N   0  3  1  0  0  0
  -32.9570  -18.9806   21.1466 O   0  0  0  0  0  0
  -31.4577  -12.3479   19.1001 H   0  0  0  0  0  0
  -30.2942  -11.2469   19.7710 H   0  0  0  0  0  0
  -29.7136  -11.8091   17.3980 H   0  0  0  0  0  0
  -29.6652  -13.5104   17.7899 H   0  0  0  0  0  0
  -27.8083  -11.3225   18.7896 H   0  0  0  0  0  0
  -27.3577  -12.6758   17.7876 H   0  0  0  0  0  0
  -27.7275  -14.2558   19.6119 H   0  0  0  0  0  0
  -28.6593  -11.8945   21.3128 H   0  0  0  0  0  0
  -28.4545  -13.5112   21.8928 H   0  0  0  0  0  0
  -25.2758   -9.5688   22.4750 H   0  0  0  0  0  0
  -24.0004   -7.4635   22.7469 H   0  0  0  0  0  0
  -21.0835   -8.8767   19.8950 H   0  0  0  0  0  0
  -22.3688  -10.9668   19.6159 H   0  0  0  0  0  0
  -21.2003   -7.6147   23.9717 H   0  0  0  0  0  0
  -21.1482   -6.0523   25.9078 H   0  0  0  0  0  0
  -22.0598   -2.7611   23.2847 H   0  0  0  0  0  0
  -22.4122  -11.9885   22.4766 H   0  0  0  0  0  0
  -21.1132  -13.1262   22.2608 H   0  0  0  0  0  0
  -24.6740  -15.8479   20.5245 H   0  0  0  0  0  0
  -26.2996  -15.6268   20.1191 H   0  0  0  0  0  0
  -26.7079  -32.5564   23.1178 H   0  0  0  0  0  0
  -25.0043  -33.9805   25.0495 H   0  0  0  0  0  0
  -22.6812  -31.3104   21.4160 H   0  0  0  0  0  0
  -23.3743  -35.9662   23.3313 H   0  0  0  0  0  0
  -24.3583  -36.8922   22.2051 H   0  0  0  0  0  0
  -23.7244  -37.6536   23.6638 H   0  0  0  0  0  0
  -26.0239  -31.6172   20.5916 H   0  0  0  0  0  0
  -26.8093  -30.9032   21.9734 H   0  0  0  0  0  0
  -28.0918  -29.1521   21.1398 H   0  0  0  0  0  0
  -26.0619  -25.9981   18.9920 H   0  0  0  0  0  0
  -23.9766  -27.2934   19.0416 H   0  0  0  0  0  0
  -23.7020  -30.6013   19.4057 H   0  0  0  0  0  0
  -22.7248  -29.2432   19.8740 H   0  0  0  0  0  0
  -25.1281  -36.1996   25.0838 H   0  0  0  0  0  0
  -20.9940  -28.3206   24.1453 H   0  0  0  0  0  0
  -20.5651  -26.2255   23.3596 H   0  0  0  0  0  0
  -21.6627  -26.7436   22.1214 H   0  0  0  0  0  0
  -19.6902  -25.6302   21.1217 H   0  0  0  0  0  0
  -19.6685  -27.3208   20.6753 H   0  0  0  0  0  0
  -17.4184  -26.6665   21.4019 H   0  0  0  0  0  0
  -18.0317  -26.0058   22.9011 H   0  0  0  0  0  0
  -19.7927  -30.7235   24.2300 H   0  0  0  0  0  0
  -17.5013  -31.6265   24.5158 H   0  0  0  0  0  0
  -15.5344  -30.3000   23.7640 H   0  0  0  0  0  0
  -15.8650  -28.0835   22.7047 H   0  0  0  0  0  0
  -24.5901  -30.7065   25.7828 H   0  0  0  0  0  0
  -24.8950  -32.2861   26.4956 H   0  0  0  0  0  0
  -25.8108  -30.8857   27.0224 H   0  0  0  0  0  0
  -26.2807  -29.6827   24.1125 H   0  0  0  0  0  0
  -27.4083  -29.7276   25.4492 H   0  0  0  0  0  0
  -27.8626  -30.4391   23.9173 H   0  0  0  0  0  0
  -27.2663  -33.3594   26.2096 H   0  0  0  0  0  0
  -28.3827  -32.6902   25.0287 H   0  0  0  0  0  0
  -28.0735  -31.8411   26.5356 H   0  0  0  0  0  0
  -28.2606  -38.0106   24.7505 H   0  0  0  0  0  0
  -28.1073  -36.2636   24.6297 H   0  0  0  0  0  0
  -27.2299  -37.1473   25.8868 H   0  0  0  0  0  0
  -20.9249  -29.8765   21.6997 H   0  0  0  0  0  0
  -26.0193  -38.2884   24.1403 H   0  0  0  0  0  0
  -28.5239  -19.1180   22.2617 H   0  0  0  0  0  0
  -30.5770  -20.7263   19.4260 H   0  0  0  0  0  0
  -29.0309  -20.9095   20.2140 H   0  0  0  0  0  0
  -29.0266  -21.2753   22.8870 H   0  0  0  0  0  0
  -30.5747  -21.2784   23.6961 H   0  0  0  0  0  0
  -29.6853  -23.0156   19.1547 H   0  0  0  0  0  0
  -31.2229  -23.0305   19.9836 H   0  0  0  0  0  0
  -31.2342  -23.3659   22.5412 H   0  0  0  0  0  0
  -29.6992  -23.5793   23.3528 H   0  0  0  0  0  0
  -31.7635  -21.0417   21.5663 H   0  0  0  0  0  0
  -36.1010  -18.3372   20.1687 H   0  0  0  0  0  0
  -35.5606  -19.5901   21.2836 H   0  0  0  0  0  0
  -35.0382  -19.6218   19.5991 H   0  0  0  0  0  0
  -29.4208  -25.4209   22.0062 H   0  0  0  0  0  0
  -30.4995  -25.2740   20.6433 H   0  0  0  0  0  0
  -34.2762  -17.4582   21.6431 H   0  0  0  0  0  0
  -33.7637  -17.4849   19.9539 H   0  0  0  0  0  0
  -27.4499  -25.0167   20.5729 H   0  0  0  0  0  0
  -28.4687  -24.9806   19.1325 H   0  0  0  0  0  0
  -29.3975  -14.8655   21.9906 H   0  0  0  0  0  0
  -28.6008  -23.1621   21.2950 H   0  0  0  0  0  0
  1 25  1  0  0  0
  1 30  2  0  0  0
  1 86  1  0  0  0
  2  3  1  0  0  0
  2 25  1  0  0  0
  2 89  1  0  0  0
  2 90  1  0  0  0
  3  4  1  0  0  0
  3 91  1  0  0  0
  3 92  1  0  0  0
  4  5  1  0  0  0
  4 93  1  0  0  0
  4 94  1  0  0  0
  5  6  1  0  0  0
  5 26  1  0  0  0
  5 95  1  0  0  0
  6 25  1  0  0  0
  6 96  1  0  0  0
  6 97  1  0  0  0
  7  8  2  0  0  0
  7 26  1  0  0  0
  7 29  1  0  0  0
  8  9  1  0  0  0
  8 22  1  0  0  0
  9 10  1  0  0  0
  9 27  2  0  0  0
 10 11  2  0  0  0
 10 15  1  0  0  0
 11 12  1  0  0  0
 11 98  1  0  0  0
 12 13  2  0  0  0
 12 99  1  0  0  0
 13 14  1  0  0  0
 13 31  1  0  0  0
 14 15  2  0  0  0
 14100  1  0  0  0
 15101  1  0  0  0
 16 17  2  0  0  0
 16 21  1  0  0  0
 16 31  1  0  0  0
 17 18  1  0  0  0
 17102  1  0  0  0
 18 19  2  0  0  0
 18103  1  0  0  0
 19 20  1  0  0  0
 19 24  1  0  0  0
 20 21  2  0  0  0
 20104  1  0  0  0
 21 23  1  0  0  0
 22 28  1  0  0  0
 22 32  2  0  0  0
 26 27  1  0  0  0
 28105  1  0  0  0
 28106  1  0  0  0
 29107  1  0  0  0
 29108  1  0  0  0
 33 34  1  0  0  0
 33 66  1  0  0  0
 33 70  2  0  0  0
 34 36  1  0  0  0
 34 59  1  0  0  0
 34109  1  0  0  0
 35 44  2  0  0  0
 35 45  1  0  0  0
 35 68  1  0  0  0
 36 56  1  0  0  0
 36110  1  0  0  0
 37 39  1  0  0  0
 37 47  1  0  0  0
 37 66  1  0  0  0
 37111  1  0  0  0
 38 43  2  0  0  0
 38 46  1  0  0  0
 38 47  1  0  0  0
 39 64  1  0  0  0
 39 67  2  0  0  0
 40 52  1  0  0  0
 40 53  2  0  0  0
 40 58  1  0  0  0
 41112  1  0  0  0
 41113  1  0  0  0
 41114  1  0  0  0
 41 48  1  0  0  0
 42 43  1  0  0  0
 42 66  1  0  0  0
 42115  1  0  0  0
 42116  1  0  0  0
 43 44  1  0  0  0
 44117  1  0  0  0
 45 46  2  0  0  0
 45118  1  0  0  0
 46119  1  0  0  0
 47120  1  0  0  0
 47121  1  0  0  0
 48 56  1  0  0  0
 48 65  1  0  0  0
 48122  1  0  0  0
 49 50  1  0  0  0
 49 53  1  0  0  0
 49 64  1  0  0  0
 49123  1  0  0  0
 50 51  1  0  0  0
 50124  1  0  0  0
 50125  1  0  0  0
 51 52  1  0  0  0
 51126  1  0  0  0
 51127  1  0  0  0
 52128  1  0  0  0
 52129  1  0  0  0
 53 54  1  0  0  0
 54 55  2  0  0  0
 54130  1  0  0  0
 55 57  1  0  0  0
 55131  1  0  0  0
 56 69  2  0  0  0
 57 58  2  0  0  0
 57132  1  0  0  0
 58133  1  0  0  0
 59 60  1  0  0  0
 59 61  1  0  0  0
 59 62  1  0  0  0
 60134  1  0  0  0
 60135  1  0  0  0
 60136  1  0  0  0
 61137  1  0  0  0
 61138  1  0  0  0
 61139  1  0  0  0
 62140  1  0  0  0
 62141  1  0  0  0
 62142  1  0  0  0
 63 65  1  0  0  0
 63143  1  0  0  0
 63144  1  0  0  0
 63145  1  0  0  0
 64146  1  0  0  0
 65147  1  0  0  0
 68 83  1  0  0  0
 71 72  2  0  0  0
 71 84  1  0  0  0
 71148  1  0  0  0
 72 73  1  0  0  0
 72 79  1  0  0  0
 73 85  2  0  0  0
 73 88  1  0  0  0
 74 84  2  0  0  0
 74 85  1  0  0  0
 74 86  1  0  0  0
 75 77  1  0  0  0
 75 79  1  0  0  0
 75149  1  0  0  0
 75150  1  0  0  0
 76 78  1  0  0  0
 76 79  1  0  0  0
 76151  1  0  0  0
 76152  1  0  0  0
 77 87  1  0  0  0
 77153  1  0  0  0
 77154  1  0  0  0
 78 87  1  0  0  0
 78155  1  0  0  0
 78156  1  0  0  0
 79157  1  0  0  0
 80 82  1  0  0  0
 80158  1  0  0  0
 80159  1  0  0  0
 80160  1  0  0  0
 81 83  1  0  0  0
 81161  1  0  0  0
 81162  1  0  0  0
 81 87  1  0  0  0
 82 88  1  0  0  0
 82163  1  0  0  0
 82164  1  0  0  0
 83165  1  0  0  0
 83166  1  0  0  0
 86167  1  0  0  0
 87168  1  0  0  0
M  CHG  1  87   1
M  ISO  4   1 100  68 101  83 101  86 100
M  END
> <chiral flag>
0

> <version>
0

> <s_m_source_file>
/data/baiqing/PycharmProjects/Reinvent-master-3.2/result/LINK_invent/BTK/process_docking_weight1_custom_sum_contain_oxygen_bond_distance_aromatic_linkinvent_7_9_3/rearranged_h_0192.sdf

> <i_m_source_file_index>
51

> <r_mmod_Potential_Energy-OPLS-2005>
-501.075988769531

> <r_mmod_Stretch_Energy-OPLS-2005>
32.1951484680176

> <r_mmod_Bend_Energy-OPLS-2005>
107.606140136719

> <r_mmod_Torsional_Energy-OPLS-2005>
229.368499755859

> <r_mmod_Improper_Torsional_Energy-OPLS-2005>
3.05335283279419

> <r_mmod_Van_der_Waal_Energy-OPLS-2005>
182.342315673828

> <r_mmod_Electrostatic_Energy-OPLS-2005>
-622.462585449219

> <r_mmod_Solvation_Energy-OPLS-2005>
-441.181182861328

> <b_mmod_Minimization_Converged-OPLS-2005>
0

> <r_mmod_RMS_Derivative-OPLS-2005>
0.476498782634735

$$$$
51
                    3D
 Structure written by MMmdl.
166175  0  0  1  0            999 V2000
  -30.7286  -14.5415   20.5454 C   0  0  0  0  0  0
  -30.4201  -12.3513   19.4307 C   0  0  0  0  0  0
  -29.4893  -12.4876   18.2097 C   0  0  0  0  0  0
  -28.0178  -12.3186   18.6334 C   0  0  0  0  0  0
  -27.6463  -13.1957   19.8561 C   0  0  2  0  0  0
  -28.6989  -13.0754   20.9837 C   0  0  0  0  0  0
  -25.2551  -13.8111   20.5685 C   0  0  0  0  0  0
  -24.1812  -13.0406   20.9210 C   0  0  0  0  0  0
  -24.6360  -11.6870   20.8770 C   0  0  0  0  0  0
  -23.9029  -10.4270   21.0431 C   0  0  0  0  0  0
  -24.3595   -9.4186   21.9197 C   0  0  0  0  0  0
  -23.6278   -8.2220   22.0754 C   0  0  0  0  0  0
  -22.4261   -8.0264   21.3544 C   0  0  0  0  0  0
  -21.9890   -9.0236   20.4649 C   0  0  0  0  0  0
  -22.7209  -10.2121   20.3066 C   0  0  0  0  0  0
  -21.6844   -6.0724   22.5278 C   0  0  0  0  0  0
  -21.4008   -6.5632   23.8209 C   0  0  0  0  0  0
  -21.3658   -5.6789   24.9173 C   0  0  0  0  0  0
  -21.6046   -4.3051   24.7228 C   0  0  0  0  0  0
  -21.8819   -3.8138   23.4348 C   0  0  0  0  0  0
  -21.9193   -4.6953   22.3402 C   0  0  0  0  0  0
  -22.7841  -13.5221   21.1866 C   0  0  0  0  0  0
  -22.1661   -4.2141   21.0981 F   0  0  0  0  0  0
  -21.5632   -3.4535   25.7739 F   0  0  0  0  0  0
  -30.0208  -13.3785   20.4105 N   0  0  0  0  0  0
  -26.2953  -12.9249   20.3330 N   0  0  0  0  0  0
  -25.9281  -11.6428   20.5797 N   0  0  0  0  0  0
  -22.0473  -12.8228   22.0423 N   0  0  0  0  0  0
  -25.4252  -15.1824   20.4049 N   0  0  0  0  0  0
  -31.8884  -14.6460   20.1378 O   0  0  0  0  0  0
  -21.6628   -6.8862   21.4237 O   0  0  0  0  0  0
  -22.3544  -14.5533   20.6708 O   0  0  0  0  0  0
  -24.6211  -31.8664   23.2090 C   0  0  0  0  0  0
  -25.9092  -32.4817   23.8383 C   0  0  1  0  0  0
  -27.2216  -27.3801   20.0923 C   0  0  0  0  0  0
  -25.5939  -33.8614   24.2309 N   0  0  0  0  0  0
  -23.4108  -30.4948   21.5512 C   0  0  2  0  0  0
  -24.8536  -28.9655   20.1099 C   0  0  0  0  0  0
  -22.7446  -29.4667   22.4959 C   0  0  0  0  0  0
  -18.0284  -28.1389   22.8498 C   0  0  0  0  0  0
  -24.1492  -36.7296   23.2638 C   0  0  0  0  0  0
  -25.9489  -30.8143   21.3736 C   0  0  0  0  0  0
  -26.0220  -29.4488   20.7121 C   0  0  0  0  0  0
  -27.2080  -28.6657   20.7005 C   0  0  0  0  0  0
  -26.0268  -26.9456   19.4619 C   0  0  0  0  0  0
  -24.8544  -27.7150   19.4803 C   0  0  0  0  0  0
  -23.6204  -29.8381   20.1635 C   0  0  0  0  0  0
  -25.4118  -36.3105   24.0339 C   0  0  1  0  0  0
  -20.5881  -28.3690   23.1298 C   0  0  2  0  0  0
  -20.6775  -26.9419   22.5417 C   0  0  0  0  0  0
  -19.5754  -26.6392   21.5220 C   0  0  0  0  0  0
  -18.1927  -26.7939   22.1623 C   0  0  0  0  0  0
  -19.1536  -28.8856   23.2898 C   0  0  0  0  0  0
  -18.9463  -30.1458   23.8917 C   0  0  0  0  0  0
  -17.6465  -30.6597   24.0572 C   0  0  0  0  0  0
  -25.9052  -34.9475   23.5115 C   0  0  0  0  0  0
  -16.5352  -29.9103   23.6334 C   0  0  0  0  0  0
  -16.7273  -28.6516   23.0361 C   0  0  0  0  0  0
  -26.4499  -31.6607   25.0725 C   0  0  0  0  0  0
  -25.3755  -31.3741   26.1470 C   0  0  0  0  0  0
  -27.0331  -30.3042   24.6135 C   0  0  0  0  0  0
  -27.6067  -32.4340   25.7479 C   0  0  0  0  0  0
  -27.5588  -37.1800   24.8470 C   0  0  0  0  0  0
  -21.4167  -29.3052   22.3698 N   0  0  0  0  0  0
  -26.4299  -37.3795   23.9419 N   0  0  0  0  0  0
  -24.6792  -31.0725   22.1019 N   0  0  0  0  0  0
  -23.4202  -28.8194   23.3006 O   0  0  0  0  0  0
  -28.3517  -26.5603   20.1399 O   0  0  0  0  0  0
  -26.5601  -34.8929   22.4669 O   0  0  0  0  0  0
  -23.5395  -32.1435   23.7459 O   0  0  0  0  0  0
  -30.4329  -24.5344   20.8216 C   0  0  0  0  0  0
  -31.0660  -23.3320   21.0275 C   0  0  0  0  0  0
  -30.1411  -22.3417   20.5637 C   0  0  0  0  0  0
  -30.9027  -17.9111   21.9875 C   0  0  0  0  0  0
  -29.1719  -17.8738   20.2385 C   0  0  0  0  0  0
  -30.7584  -16.3772   22.2050 C   0  0  0  0  0  0
  -29.0164  -16.3328   20.3944 C   0  0  0  0  0  0
  -29.5686  -18.5582   21.5575 C   0  0  0  0  0  0
  -32.4382  -23.1125   21.6059 C   0  0  0  0  0  0
  -29.7071  -20.6276   22.9287 C   0  0  0  0  0  0
  -30.3042  -20.8086   20.5221 C   0  0  0  0  0  0
  -28.1247  -25.1811   19.8425 C   0  0  0  0  0  0
  -29.0235  -22.9256   20.1274 N   0  0  0  0  0  0
  -29.1998  -24.2726   20.2704 N   0  0  0  0  0  0
  -30.1091  -15.6239   21.1056 N   0  0  0  0  0  0
  -29.5207  -20.0721   21.5628 N   0  3  1  0  0  0
  -31.4617  -12.4473   19.1186 H   0  0  0  0  0  0
  -30.3342  -11.3575   19.8729 H   0  0  0  0  0  0
  -29.7468  -11.7412   17.4566 H   0  0  0  0  0  0
  -29.6310  -13.4616   17.7380 H   0  0  0  0  0  0
  -27.8638  -11.2662   18.8756 H   0  0  0  0  0  0
  -27.3549  -12.5362   17.7955 H   0  0  0  0  0  0
  -27.6403  -14.2143   19.4855 H   0  0  0  0  0  0
  -28.6998  -12.0673   21.4006 H   0  0  0  0  0  0
  -28.4533  -13.7408   21.8127 H   0  0  0  0  0  0
  -25.2740   -9.5661   22.4770 H   0  0  0  0  0  0
  -23.9989   -7.4604   22.7465 H   0  0  0  0  0  0
  -21.0821   -8.8755   19.8955 H   0  0  0  0  0  0
  -22.3669  -10.9663   19.6180 H   0  0  0  0  0  0
  -21.1995   -7.6140   23.9711 H   0  0  0  0  0  0
  -21.1482   -6.0518   25.9078 H   0  0  0  0  0  0
  -22.0603   -2.7602   23.2849 H   0  0  0  0  0  0
  -22.4079  -11.9889   22.4816 H   0  0  0  0  0  0
  -21.1096  -13.1271   22.2628 H   0  0  0  0  0  0
  -24.6543  -15.8336   20.5058 H   0  0  0  0  0  0
  -26.2696  -15.6182   20.0589 H   0  0  0  0  0  0
  -26.7154  -32.5512   23.1134 H   0  0  0  0  0  0
  -25.0144  -33.9771   25.0496 H   0  0  0  0  0  0
  -22.7032  -31.3156   21.4147 H   0  0  0  0  0  0
  -23.3765  -35.9617   23.3318 H   0  0  0  0  0  0
  -24.3588  -36.8890   22.2047 H   0  0  0  0  0  0
  -23.7230  -37.6499   23.6642 H   0  0  0  0  0  0
  -26.0766  -31.5826   20.6095 H   0  0  0  0  0  0
  -26.8311  -30.8572   22.0000 H   0  0  0  0  0  0
  -28.1036  -29.0318   21.1826 H   0  0  0  0  0  0
  -25.9557  -25.9987   18.9480 H   0  0  0  0  0  0
  -23.9598  -27.3388   19.0034 H   0  0  0  0  0  0
  -23.7360  -30.6186   19.4106 H   0  0  0  0  0  0
  -22.7415  -29.2659   19.8607 H   0  0  0  0  0  0
  -25.1293  -36.1958   25.0833 H   0  0  0  0  0  0
  -20.9980  -28.3257   24.1416 H   0  0  0  0  0  0
  -20.5676  -26.2300   23.3616 H   0  0  0  0  0  0
  -21.6645  -26.7457   22.1207 H   0  0  0  0  0  0
  -19.6917  -25.6305   21.1246 H   0  0  0  0  0  0
  -19.6697  -27.3205   20.6755 H   0  0  0  0  0  0
  -17.4206  -26.6721   21.4006 H   0  0  0  0  0  0
  -18.0302  -26.0064   22.8996 H   0  0  0  0  0  0
  -19.7941  -30.7273   24.2282 H   0  0  0  0  0  0
  -17.5027  -31.6279   24.5176 H   0  0  0  0  0  0
  -15.5355  -30.3015   23.7657 H   0  0  0  0  0  0
  -15.8670  -28.0845   22.7070 H   0  0  0  0  0  0
  -24.5935  -30.7073   25.7826 H   0  0  0  0  0  0
  -24.8940  -32.2905   26.4891 H   0  0  0  0  0  0
  -25.8101  -30.8943   27.0248 H   0  0  0  0  0  0
  -26.2877  -29.6792   24.1201 H   0  0  0  0  0  0
  -27.4101  -29.7296   25.4604 H   0  0  0  0  0  0
  -27.8722  -30.4352   23.9298 H   0  0  0  0  0  0
  -27.2683  -33.3639   26.2063 H   0  0  0  0  0  0
  -28.3862  -32.6906   25.0290 H   0  0  0  0  0  0
  -28.0756  -31.8467   26.5384 H   0  0  0  0  0  0
  -28.2613  -38.0088   24.7522 H   0  0  0  0  0  0
  -28.1065  -36.2625   24.6281 H   0  0  0  0  0  0
  -27.2312  -37.1434   25.8872 H   0  0  0  0  0  0
  -20.9326  -29.8795   21.6938 H   0  0  0  0  0  0
  -26.0187  -38.2868   24.1427 H   0  0  0  0  0  0
  -30.7549  -25.5487   21.0166 H   0  0  0  0  0  0
  -31.6715  -18.1027   21.2378 H   0  0  0  0  0  0
  -31.2686  -18.3512   22.9145 H   0  0  0  0  0  0
  -28.2341  -18.2879   19.8659 H   0  0  0  0  0  0
  -29.9205  -18.0777   19.4717 H   0  0  0  0  0  0
  -30.1606  -16.2026   23.1005 H   0  0  0  0  0  0
  -31.7418  -15.9603   22.4334 H   0  0  0  0  0  0
  -28.9027  -15.9285   19.3877 H   0  0  0  0  0  0
  -28.0915  -16.1202   20.9306 H   0  0  0  0  0  0
  -28.8169  -18.2546   22.2890 H   0  0  0  0  0  0
  -33.0460  -24.0173   21.5657 H   0  0  0  0  0  0
  -32.9904  -22.3405   21.0704 H   0  0  0  0  0  0
  -32.3922  -22.8076   22.6514 H   0  0  0  0  0  0
  -29.1219  -20.0757   23.6648 H   0  0  0  0  0  0
  -29.3799  -21.6655   22.9914 H   0  0  0  0  0  0
  -30.7523  -20.5911   23.2362 H   0  0  0  0  0  0
  -31.3563  -20.5455   20.6305 H   0  0  0  0  0  0
  -30.0114  -20.4490   19.5356 H   0  0  0  0  0  0
  -27.2271  -24.8278   20.3540 H   0  0  0  0  0  0
  -28.0014  -25.0554   18.7654 H   0  0  0  0  0  0
  -28.5663  -20.3083   21.3313 H   0  0  0  0  0  0
  1 25  1  0  0  0
  1 30  2  0  0  0
  1 85  1  0  0  0
  2  3  1  0  0  0
  2 25  1  0  0  0
  2 87  1  0  0  0
  2 88  1  0  0  0
  3  4  1  0  0  0
  3 89  1  0  0  0
  3 90  1  0  0  0
  4  5  1  0  0  0
  4 91  1  0  0  0
  4 92  1  0  0  0
  5  6  1  0  0  0
  5 26  1  0  0  0
  5 93  1  0  0  0
  6 25  1  0  0  0
  6 94  1  0  0  0
  6 95  1  0  0  0
  7  8  2  0  0  0
  7 26  1  0  0  0
  7 29  1  0  0  0
  8  9  1  0  0  0
  8 22  1  0  0  0
  9 10  1  0  0  0
  9 27  2  0  0  0
 10 11  2  0  0  0
 10 15  1  0  0  0
 11 12  1  0  0  0
 11 96  1  0  0  0
 12 13  2  0  0  0
 12 97  1  0  0  0
 13 14  1  0  0  0
 13 31  1  0  0  0
 14 15  2  0  0  0
 14 98  1  0  0  0
 15 99  1  0  0  0
 16 17  2  0  0  0
 16 21  1  0  0  0
 16 31  1  0  0  0
 17 18  1  0  0  0
 17100  1  0  0  0
 18 19  2  0  0  0
 18101  1  0  0  0
 19 20  1  0  0  0
 19 24  1  0  0  0
 20 21  2  0  0  0
 20102  1  0  0  0
 21 23  1  0  0  0
 22 28  1  0  0  0
 22 32  2  0  0  0
 26 27  1  0  0  0
 28103  1  0  0  0
 28104  1  0  0  0
 29105  1  0  0  0
 29106  1  0  0  0
 33 34  1  0  0  0
 33 66  1  0  0  0
 33 70  2  0  0  0
 34 36  1  0  0  0
 34 59  1  0  0  0
 34107  1  0  0  0
 35 44  2  0  0  0
 35 45  1  0  0  0
 35 68  1  0  0  0
 36 56  1  0  0  0
 36108  1  0  0  0
 37 39  1  0  0  0
 37 47  1  0  0  0
 37 66  1  0  0  0
 37109  1  0  0  0
 38 43  2  0  0  0
 38 46  1  0  0  0
 38 47  1  0  0  0
 39 64  1  0  0  0
 39 67  2  0  0  0
 40 52  1  0  0  0
 40 53  2  0  0  0
 40 58  1  0  0  0
 41110  1  0  0  0
 41111  1  0  0  0
 41112  1  0  0  0
 41 48  1  0  0  0
 42 43  1  0  0  0
 42 66  1  0  0  0
 42113  1  0  0  0
 42114  1  0  0  0
 43 44  1  0  0  0
 44115  1  0  0  0
 45 46  2  0  0  0
 45116  1  0  0  0
 46117  1  0  0  0
 47118  1  0  0  0
 47119  1  0  0  0
 48 56  1  0  0  0
 48 65  1  0  0  0
 48120  1  0  0  0
 49 50  1  0  0  0
 49 53  1  0  0  0
 49 64  1  0  0  0
 49121  1  0  0  0
 50 51  1  0  0  0
 50122  1  0  0  0
 50123  1  0  0  0
 51 52  1  0  0  0
 51124  1  0  0  0
 51125  1  0  0  0
 52126  1  0  0  0
 52127  1  0  0  0
 53 54  1  0  0  0
 54 55  2  0  0  0
 54128  1  0  0  0
 55 57  1  0  0  0
 55129  1  0  0  0
 56 69  2  0  0  0
 57 58  2  0  0  0
 57130  1  0  0  0
 58131  1  0  0  0
 59 60  1  0  0  0
 59 61  1  0  0  0
 59 62  1  0  0  0
 60132  1  0  0  0
 60133  1  0  0  0
 60134  1  0  0  0
 61135  1  0  0  0
 61136  1  0  0  0
 61137  1  0  0  0
 62138  1  0  0  0
 62139  1  0  0  0
 62140  1  0  0  0
 63 65  1  0  0  0
 63141  1  0  0  0
 63142  1  0  0  0
 63143  1  0  0  0
 64144  1  0  0  0
 65145  1  0  0  0
 68 82  1  0  0  0
 71 72  2  0  0  0
 71 84  1  0  0  0
 71146  1  0  0  0
 72 73  1  0  0  0
 72 79  1  0  0  0
 73 81  1  0  0  0
 73 83  2  0  0  0
 74 76  1  0  0  0
 74147  1  0  0  0
 74148  1  0  0  0
 74 78  1  0  0  0
 75 77  1  0  0  0
 75 78  1  0  0  0
 75149  1  0  0  0
 75150  1  0  0  0
 76 85  1  0  0  0
 76151  1  0  0  0
 76152  1  0  0  0
 77 85  1  0  0  0
 77153  1  0  0  0
 77154  1  0  0  0
 78 86  1  0  0  0
 78155  1  0  0  0
 79156  1  0  0  0
 79157  1  0  0  0
 79158  1  0  0  0
 80159  1  0  0  0
 80160  1  0  0  0
 80161  1  0  0  0
 80 86  1  0  0  0
 81 86  1  0  0  0
 81162  1  0  0  0
 81163  1  0  0  0
 82 84  1  0  0  0
 82164  1  0  0  0
 82165  1  0  0  0
 83 84  1  0  0  0
 86166  1  0  0  0
M  CHG  1  86   1
M  ISO  4   1 100  68 101  82 101  85 100
M  END
> <chiral flag>
0

> <version>
0

> <s_m_source_file>
/data/baiqing/PycharmProjects/Reinvent-master-3.2/result/LINK_invent/BTK/process_docking_weight1_custom_sum_contain_oxygen_bond_distance_aromatic_linkinvent_7_9_3/rearranged_h_0192.sdf

> <i_m_source_file_index>
52

> <r_mmod_Potential_Energy-OPLS-2005>
33.7592468261719

> <r_mmod_Stretch_Energy-OPLS-2005>
53.2614631652832

> <r_mmod_Bend_Energy-OPLS-2005>
125.446899414062

> <r_mmod_Torsional_Energy-OPLS-2005>
326.343353271484

> <r_mmod_Improper_Torsional_Energy-OPLS-2005>
2.71195244789124

> <r_mmod_Van_der_Waal_Energy-OPLS-2005>
136.740173339844

> <r_mmod_Electrostatic_Energy-OPLS-2005>
-211.619232177734

> <r_mmod_Solvation_Energy-OPLS-2005>
-428.569549560547

> <b_mmod_Minimization_Converged-OPLS-2005>
0

> <r_mmod_RMS_Derivative-OPLS-2005>
1.02649128437042

$$$$
52
                    3D
 Structure written by MMmdl.
156164  0  0  1  0            999 V2000
  -30.4273  -15.3089   20.3496 C   0  0  0  0  0  0
  -30.4316  -12.8336   19.5400 C   0  0  0  0  0  0
  -29.5357  -12.5878   18.2990 C   0  0  0  0  0  0
  -28.0841  -12.3108   18.7228 C   0  0  0  0  0  0
  -27.6087  -13.2845   19.8281 C   0  0  2  0  0  0
  -28.6385  -13.4841   20.9611 C   0  0  0  0  0  0
  -25.2343  -13.8255   20.5744 C   0  0  0  0  0  0
  -24.1715  -13.0429   20.9268 C   0  0  0  0  0  0
  -24.6393  -11.6938   20.8770 C   0  0  0  0  0  0
  -23.9088  -10.4289   21.0406 C   0  0  0  0  0  0
  -24.3626   -9.4208   21.9197 C   0  0  0  0  0  0
  -23.6291   -8.2249   22.0768 C   0  0  0  0  0  0
  -22.4278   -8.0273   21.3547 C   0  0  0  0  0  0
  -21.9912   -9.0254   20.4659 C   0  0  0  0  0  0
  -22.7247  -10.2135   20.3068 C   0  0  0  0  0  0
  -21.6862   -6.0709   22.5270 C   0  0  0  0  0  0
  -21.4026   -6.5622   23.8201 C   0  0  0  0  0  0
  -21.3668   -5.6785   24.9166 C   0  0  0  0  0  0
  -21.6053   -4.3048   24.7225 C   0  0  0  0  0  0
  -21.8823   -3.8137   23.4352 C   0  0  0  0  0  0
  -21.9190   -4.6943   22.3400 C   0  0  0  0  0  0
  -22.7735  -13.5174   21.1891 C   0  0  0  0  0  0
  -22.1651   -4.2124   21.0983 F   0  0  0  0  0  0
  -21.5634   -3.4546   25.7747 F   0  0  0  0  0  0
  -29.8701  -13.9927   20.3341 N   0  0  0  0  0  0
  -26.2796  -12.9565   20.3260 N   0  0  0  0  0  0
  -25.9336  -11.6653   20.5745 N   0  0  0  0  0  0
  -22.0392  -12.8168   22.0457 N   0  0  0  0  0  0
  -25.3914  -15.1985   20.4104 N   0  0  0  0  0  0
  -31.6431  -15.3026   20.1032 O   0  0  0  0  0  0
  -21.6652   -6.8860   21.4235 O   0  0  0  0  0  0
  -22.3422  -14.5466   20.6712 O   0  0  0  0  0  0
  -24.6640  -31.8207   23.1681 C   0  0  0  0  0  0
  -25.9319  -32.4569   23.8149 C   0  0  1  0  0  0
  -27.2255  -26.9069   20.1827 C   0  0  0  0  0  0
  -25.5989  -33.8385   24.2057 N   0  0  0  0  0  0
  -23.4797  -30.4301   21.5173 C   0  0  2  0  0  0
  -24.9349  -28.8119   20.1069 C   0  0  0  0  0  0
  -22.7664  -29.4428   22.4766 C   0  0  0  0  0  0
  -18.0321  -28.1407   22.8463 C   0  0  0  0  0  0
  -24.1503  -36.7197   23.2648 C   0  0  0  0  0  0
  -26.0489  -30.6191   21.4024 C   0  0  0  0  0  0
  -26.1155  -29.2074   20.7452 C   0  0  0  0  0  0
  -27.2484  -28.2739   20.7630 C   0  0  0  0  0  0
  -26.0180  -26.6706   19.4868 C   0  0  0  0  0  0
  -24.9137  -27.5649   19.4576 C   0  0  0  0  0  0
  -23.7197  -29.7396   20.1454 C   0  0  0  0  0  0
  -25.4146  -36.2959   24.0295 C   0  0  1  0  0  0
  -20.5949  -28.3761   23.1182 C   0  0  2  0  0  0
  -20.6796  -26.9433   22.5411 C   0  0  0  0  0  0
  -19.5781  -26.6375   21.5213 C   0  0  0  0  0  0
  -18.1958  -26.7938   22.1610 C   0  0  0  0  0  0
  -19.1584  -28.8900   23.2812 C   0  0  0  0  0  0
  -18.9493  -30.1486   23.8845 C   0  0  0  0  0  0
  -17.6490  -30.6593   24.0545 C   0  0  0  0  0  0
  -25.9111  -34.9339   23.4999 C   0  0  0  0  0  0
  -16.5379  -29.9077   23.6349 C   0  0  0  0  0  0
  -16.7303  -28.6503   23.0360 C   0  0  0  0  0  0
  -26.4570  -31.6517   25.0681 C   0  0  0  0  0  0
  -25.3694  -31.3763   26.1334 C   0  0  0  0  0  0
  -27.0466  -30.2879   24.6417 C   0  0  0  0  0  0
  -27.6075  -32.4321   25.7475 C   0  0  0  0  0  0
  -27.5569  -37.1758   24.8467 C   0  0  0  0  0  0
  -21.4336  -29.3041   22.3514 N   0  0  0  0  0  0
  -26.4288  -37.3701   23.9404 N   0  0  0  0  0  0
  -24.7523  -30.9841   22.0833 N   0  0  0  0  0  0
  -23.4203  -28.7996   23.3018 O   0  0  0  0  0  0
  -28.2326  -25.8062   20.3234 O   0  0  0  0  0  0
  -26.5708  -34.8879   22.4591 O   0  0  0  0  0  0
  -23.5704  -32.1190   23.6762 O   0  0  0  0  0  0
  -27.5698  -20.0331   20.3969 C   0  0  0  0  0  0
  -27.1885  -21.6049   20.3575 C   0  0  2  0  0  0
  -29.1030  -19.8143   20.5510 C   0  0  2  0  0  0
  -28.4627  -22.5253   20.4926 C   0  0  2  0  0  0
  -26.0691  -21.9870   21.3543 C   0  0  0  0  0  0
  -29.8947  -18.2306   20.0884 C   0  0  0  0  0  0
  -28.3025  -24.2197   19.8148 C   0  0  0  0  0  0
  -29.6666  -16.5920   20.4371 N   0  0  0  0  0  0
  -29.4896  -21.3269   20.1015 N   0  3  0  0  0  0
  -24.7739  -21.3630   21.0226 N   0  3  0  0  0  0
  -31.4522  -13.0284   19.2114 H   0  0  0  0  0  0
  -30.4943  -11.9364   20.1569 H   0  0  0  0  0  0
  -29.9202  -11.7562   17.7071 H   0  0  0  0  0  0
  -29.5654  -13.4671   17.6538 H   0  0  0  0  0  0
  -28.0357  -11.2863   19.0919 H   0  0  0  0  0  0
  -27.4173  -12.3582   17.8601 H   0  0  0  0  0  0
  -27.5161  -14.2478   19.3255 H   0  0  0  0  0  0
  -28.8090  -12.5646   21.5225 H   0  0  0  0  0  0
  -28.2689  -14.2219   21.6761 H   0  0  0  0  0  0
  -25.2764   -9.5696   22.4780 H   0  0  0  0  0  0
  -24.0001   -7.4642   22.7497 H   0  0  0  0  0  0
  -21.0842   -8.8782   19.8958 H   0  0  0  0  0  0
  -22.3697  -10.9681   19.6188 H   0  0  0  0  0  0
  -21.2041   -7.6141   23.9695 H   0  0  0  0  0  0
  -21.1478   -6.0519   25.9059 H   0  0  0  0  0  0
  -22.0603   -2.7593   23.2866 H   0  0  0  0  0  0
  -22.4011  -11.9844   22.4856 H   0  0  0  0  0  0
  -21.1015  -13.1197   22.2671 H   0  0  0  0  0  0
  -24.6097  -15.8381   20.5058 H   0  0  0  0  0  0
  -26.2152  -15.6332   20.0173 H   0  0  0  0  0  0
  -26.7376  -32.5088   23.0844 H   0  0  0  0  0  0
  -25.0112  -33.9482   25.0187 H   0  0  0  0  0  0
  -22.7944  -31.2618   21.3413 H   0  0  0  0  0  0
  -23.3782  -35.9509   23.3275 H   0  0  0  0  0  0
  -24.3586  -36.8875   22.2071 H   0  0  0  0  0  0
  -23.7235  -37.6365   23.6723 H   0  0  0  0  0  0
  -26.2303  -31.3598   20.6225 H   0  0  0  0  0  0
  -26.9098  -30.6791   22.0564 H   0  0  0  0  0  0
  -28.1338  -28.5724   21.3059 H   0  0  0  0  0  0
  -25.8834  -25.7182   18.9965 H   0  0  0  0  0  0
  -24.0157  -27.2572   18.9400 H   0  0  0  0  0  0
  -23.8689  -30.5043   19.3829 H   0  0  0  0  0  0
  -22.8318  -29.1893   19.8317 H   0  0  0  0  0  0
  -25.1345  -36.1756   25.0785 H   0  0  0  0  0  0
  -21.0036  -28.3371   24.1308 H   0  0  0  0  0  0
  -20.5663  -26.2376   23.3656 H   0  0  0  0  0  0
  -21.6661  -26.7401   22.1220 H   0  0  0  0  0  0
  -19.6945  -25.6275   21.1271 H   0  0  0  0  0  0
  -19.6720  -27.3156   20.6716 H   0  0  0  0  0  0
  -17.4231  -26.6688   21.4007 H   0  0  0  0  0  0
  -18.0340  -26.0087   22.9016 H   0  0  0  0  0  0
  -19.7972  -30.7316   24.2182 H   0  0  0  0  0  0
  -17.5043  -31.6267   24.5156 H   0  0  0  0  0  0
  -15.5379  -30.2956   23.7700 H   0  0  0  0  0  0
  -15.8707  -28.0794   22.7102 H   0  0  0  0  0  0
  -24.5936  -30.7033   25.7644 H   0  0  0  0  0  0
  -24.8812  -32.2958   26.4586 H   0  0  0  0  0  0
  -25.7949  -30.9066   27.0214 H   0  0  0  0  0  0
  -26.3136  -29.6550   24.1404 H   0  0  0  0  0  0
  -27.3967  -29.7246   25.5076 H   0  0  0  0  0  0
  -27.9089  -30.4048   23.9850 H   0  0  0  0  0  0
  -27.2678  -33.3706   26.1873 H   0  0  0  0  0  0
  -28.3987  -32.6742   25.0361 H   0  0  0  0  0  0
  -28.0622  -31.8547   26.5534 H   0  0  0  0  0  0
  -28.2571  -38.0069   24.7528 H   0  0  0  0  0  0
  -28.1086  -36.2600   24.6291 H   0  0  0  0  0  0
  -27.2287  -37.1387   25.8870 H   0  0  0  0  0  0
  -20.9579  -29.8721   21.6637 H   0  0  0  0  0  0
  -26.0129  -38.2758   24.1410 H   0  0  0  0  0  0
  -27.2461  -19.5715   19.4636 H   0  0  0  0  0  0
  -27.0453  -19.5047   21.1926 H   0  0  0  0  0  0
  -26.8037  -21.7939   19.3536 H   0  0  0  0  0  0
  -29.2814  -19.8518   21.6268 H   0  0  0  0  0  0
  -28.6503  -22.6726   21.5570 H   0  0  0  0  0  0
  -25.9301  -23.0701   21.3674 H   0  0  0  0  0  0
  -26.3534  -21.7009   22.3685 H   0  0  0  0  0  0
  -30.9497  -18.3853   20.3205 H   0  0  0  0  0  0
  -29.8714  -18.2391   18.9977 H   0  0  0  0  0  0
  -27.4966  -24.1422   19.0867 H   0  0  0  0  0  0
  -29.1832  -24.2812   19.1763 H   0  0  0  0  0  0
  -28.7010  -16.4012   20.6615 H   0  0  0  0  0  0
  -30.4114  -21.5474   20.4468 H   0  0  0  0  0  0
  -29.5651  -21.3162   19.0969 H   0  0  0  0  0  0
  -24.4466  -21.6640   20.1221 H   0  0  0  0  0  0
  -24.0836  -21.6278   21.7035 H   0  0  0  0  0  0
  -24.8370  -20.3612   21.0217 H   0  0  0  0  0  0
  1 25  1  0  0  0
  1 30  2  0  0  0
  1 78  1  0  0  0
  2  3  1  0  0  0
  2 25  1  0  0  0
  2 81  1  0  0  0
  2 82  1  0  0  0
  3  4  1  0  0  0
  3 83  1  0  0  0
  3 84  1  0  0  0
  4  5  1  0  0  0
  4 85  1  0  0  0
  4 86  1  0  0  0
  5  6  1  0  0  0
  5 26  1  0  0  0
  5 87  1  0  0  0
  6 25  1  0  0  0
  6 88  1  0  0  0
  6 89  1  0  0  0
  7  8  2  0  0  0
  7 26  1  0  0  0
  7 29  1  0  0  0
  8  9  1  0  0  0
  8 22  1  0  0  0
  9 10  1  0  0  0
  9 27  2  0  0  0
 10 11  2  0  0  0
 10 15  1  0  0  0
 11 12  1  0  0  0
 11 90  1  0  0  0
 12 13  2  0  0  0
 12 91  1  0  0  0
 13 14  1  0  0  0
 13 31  1  0  0  0
 14 15  2  0  0  0
 14 92  1  0  0  0
 15 93  1  0  0  0
 16 17  2  0  0  0
 16 21  1  0  0  0
 16 31  1  0  0  0
 17 18  1  0  0  0
 17 94  1  0  0  0
 18 19  2  0  0  0
 18 95  1  0  0  0
 19 20  1  0  0  0
 19 24  1  0  0  0
 20 21  2  0  0  0
 20 96  1  0  0  0
 21 23  1  0  0  0
 22 28  1  0  0  0
 22 32  2  0  0  0
 26 27  1  0  0  0
 28 97  1  0  0  0
 28 98  1  0  0  0
 29 99  1  0  0  0
 29100  1  0  0  0
 33 34  1  0  0  0
 33 66  1  0  0  0
 33 70  2  0  0  0
 34 36  1  0  0  0
 34 59  1  0  0  0
 34101  1  0  0  0
 35 44  2  0  0  0
 35 45  1  0  0  0
 35 68  1  0  0  0
 36 56  1  0  0  0
 36102  1  0  0  0
 37 39  1  0  0  0
 37 47  1  0  0  0
 37 66  1  0  0  0
 37103  1  0  0  0
 38 43  2  0  0  0
 38 46  1  0  0  0
 38 47  1  0  0  0
 39 64  1  0  0  0
 39 67  2  0  0  0
 40 52  1  0  0  0
 40 53  2  0  0  0
 40 58  1  0  0  0
 41104  1  0  0  0
 41105  1  0  0  0
 41106  1  0  0  0
 41 48  1  0  0  0
 42 43  1  0  0  0
 42 66  1  0  0  0
 42107  1  0  0  0
 42108  1  0  0  0
 43 44  1  0  0  0
 44109  1  0  0  0
 45 46  2  0  0  0
 45110  1  0  0  0
 46111  1  0  0  0
 47112  1  0  0  0
 47113  1  0  0  0
 48 56  1  0  0  0
 48 65  1  0  0  0
 48114  1  0  0  0
 49 50  1  0  0  0
 49 53  1  0  0  0
 49 64  1  0  0  0
 49115  1  0  0  0
 50 51  1  0  0  0
 50116  1  0  0  0
 50117  1  0  0  0
 51 52  1  0  0  0
 51118  1  0  0  0
 51119  1  0  0  0
 52120  1  0  0  0
 52121  1  0  0  0
 53 54  1  0  0  0
 54 55  2  0  0  0
 54122  1  0  0  0
 55 57  1  0  0  0
 55123  1  0  0  0
 56 69  2  0  0  0
 57 58  2  0  0  0
 57124  1  0  0  0
 58125  1  0  0  0
 59 60  1  0  0  0
 59 61  1  0  0  0
 59 62  1  0  0  0
 60126  1  0  0  0
 60127  1  0  0  0
 60128  1  0  0  0
 61129  1  0  0  0
 61130  1  0  0  0
 61131  1  0  0  0
 62132  1  0  0  0
 62133  1  0  0  0
 62134  1  0  0  0
 63 65  1  0  0  0
 63135  1  0  0  0
 63136  1  0  0  0
 63137  1  0  0  0
 64138  1  0  0  0
 65139  1  0  0  0
 68 77  1  0  0  0
 71 72  1  0  0  0
 71 73  1  0  0  0
 71140  1  0  0  0
 71141  1  0  0  0
 72 74  1  0  0  0
 72 75  1  0  0  0
 72142  1  0  0  0
 73 76  1  0  0  0
 73 79  1  0  0  0
 73143  1  0  0  0
 74 77  1  0  0  0
 74 79  1  0  0  0
 74144  1  0  0  0
 75 80  1  0  0  0
 75145  1  0  0  0
 75146  1  0  0  0
 76 78  1  0  0  0
 76147  1  0  0  0
 76148  1  0  0  0
 77149  1  0  0  0
 77150  1  0  0  0
 78151  1  0  0  0
 79152  1  0  0  0
 79153  1  0  0  0
 80154  1  0  0  0
 80155  1  0  0  0
 80156  1  0  0  0
M  CHG  2  79   1  80   1
M  ISO  4   1 100  68 101  77 101  78 100
M  END
> <chiral flag>
0

> <version>
0

> <s_m_source_file>
/data/baiqing/PycharmProjects/Reinvent-master-3.2/result/LINK_invent/BTK/process_docking_weight1_custom_sum_contain_oxygen_bond_distance_aromatic_linkinvent_7_9_3/rearranged_h_0192.sdf

> <i_m_source_file_index>
53

> <r_mmod_Potential_Energy-OPLS-2005>
1041.40637207031

> <r_mmod_Stretch_Energy-OPLS-2005>
632.32763671875

> <r_mmod_Bend_Energy-OPLS-2005>
528.853881835938

> <r_mmod_Torsional_Energy-OPLS-2005>
290.932708740234

> <r_mmod_Improper_Torsional_Energy-OPLS-2005>
4.65213298797607

> <r_mmod_Van_der_Waal_Energy-OPLS-2005>
104.391662597656

> <r_mmod_Electrostatic_Energy-OPLS-2005>
46.7638969421387

> <r_mmod_Solvation_Energy-OPLS-2005>
-1065.55676269531

> <b_mmod_Minimization_Converged-OPLS-2005>
0

> <r_mmod_RMS_Derivative-OPLS-2005>
2.37070965766907

$$$$
53
                    3D
 Structure written by MMmdl.
161170  0  0  1  0            999 V2000
  -30.4282  -15.2276   20.3899 C   0  0  0  0  0  0
  -30.4400  -12.7845   19.5222 C   0  0  0  0  0  0
  -29.5352  -12.5695   18.2826 C   0  0  0  0  0  0
  -28.0801  -12.2996   18.7064 C   0  0  0  0  0  0
  -27.6127  -13.2682   19.8211 C   0  0  2  0  0  0
  -28.6439  -13.4153   20.9590 C   0  0  0  0  0  0
  -25.2400  -13.8224   20.5702 C   0  0  0  0  0  0
  -24.1750  -13.0436   20.9257 C   0  0  0  0  0  0
  -24.6388  -11.6925   20.8750 C   0  0  0  0  0  0
  -23.9079  -10.4287   21.0398 C   0  0  0  0  0  0
  -24.3627   -9.4196   21.9170 C   0  0  0  0  0  0
  -23.6294   -8.2236   22.0758 C   0  0  0  0  0  0
  -22.4277   -8.0273   21.3547 C   0  0  0  0  0  0
  -21.9913   -9.0246   20.4645 C   0  0  0  0  0  0
  -22.7253  -10.2118   20.3041 C   0  0  0  0  0  0
  -21.6854   -6.0723   22.5273 C   0  0  0  0  0  0
  -21.4018   -6.5628   23.8207 C   0  0  0  0  0  0
  -21.3656   -5.6780   24.9170 C   0  0  0  0  0  0
  -21.6050   -4.3045   24.7226 C   0  0  0  0  0  0
  -21.8821   -3.8132   23.4349 C   0  0  0  0  0  0
  -21.9199   -4.6949   22.3403 C   0  0  0  0  0  0
  -22.7761  -13.5191   21.1894 C   0  0  0  0  0  0
  -22.1663   -4.2134   21.0981 F   0  0  0  0  0  0
  -21.5634   -3.4530   25.7742 F   0  0  0  0  0  0
  -29.8787  -13.9201   20.3401 N   0  0  0  0  0  0
  -26.2815  -12.9480   20.3175 N   0  0  0  0  0  0
  -25.9318  -11.6603   20.5698 N   0  0  0  0  0  0
  -22.0409  -12.8183   22.0447 N   0  0  0  0  0  0
  -25.4037  -15.1957   20.4084 N   0  0  0  0  0  0
  -31.6483  -15.2530   20.1739 O   0  0  0  0  0  0
  -21.6644   -6.8865   21.4234 O   0  0  0  0  0  0
  -22.3447  -14.5488   20.6720 O   0  0  0  0  0  0
  -24.6609  -31.8242   23.1709 C   0  0  0  0  0  0
  -25.9326  -32.4584   23.8156 C   0  0  1  0  0  0
  -27.2168  -26.9257   20.2014 C   0  0  0  0  0  0
  -25.6015  -33.8397   24.2082 N   0  0  0  0  0  0
  -23.4739  -30.4313   21.5210 C   0  0  2  0  0  0
  -24.9251  -28.8074   20.1220 C   0  0  0  0  0  0
  -22.7639  -29.4450   22.4826 C   0  0  0  0  0  0
  -18.0310  -28.1428   22.8503 C   0  0  0  0  0  0
  -24.1474  -36.7140   23.2640 C   0  0  0  0  0  0
  -26.0385  -30.6290   21.4025 C   0  0  0  0  0  0
  -26.1059  -29.2143   20.7556 C   0  0  0  0  0  0
  -27.2435  -28.2917   20.7698 C   0  0  0  0  0  0
  -26.0099  -26.6659   19.5187 C   0  0  0  0  0  0
  -24.9009  -27.5542   19.4863 C   0  0  0  0  0  0
  -23.7123  -29.7362   20.1522 C   0  0  0  0  0  0
  -25.4135  -36.2947   24.0291 C   0  0  1  0  0  0
  -20.5922  -28.3763   23.1203 C   0  0  2  0  0  0
  -20.6766  -26.9450   22.5420 C   0  0  0  0  0  0
  -19.5744  -26.6418   21.5213 C   0  0  0  0  0  0
  -18.1941  -26.7970   22.1643 C   0  0  0  0  0  0
  -19.1574  -28.8915   23.2840 C   0  0  0  0  0  0
  -18.9496  -30.1507   23.8880 C   0  0  0  0  0  0
  -17.6491  -30.6626   24.0566 C   0  0  0  0  0  0
  -25.9119  -34.9343   23.5007 C   0  0  0  0  0  0
  -16.5376  -29.9121   23.6356 C   0  0  0  0  0  0
  -16.7294  -28.6525   23.0403 C   0  0  0  0  0  0
  -26.4608  -31.6513   25.0663 C   0  0  0  0  0  0
  -25.3746  -31.3743   26.1324 C   0  0  0  0  0  0
  -27.0494  -30.2877   24.6371 C   0  0  0  0  0  0
  -27.6110  -32.4295   25.7476 C   0  0  0  0  0  0
  -27.5564  -37.1717   24.8484 C   0  0  0  0  0  0
  -21.4317  -29.3024   22.3542 N   0  0  0  0  0  0
  -26.4275  -37.3698   23.9416 N   0  0  0  0  0  0
  -24.7453  -30.9889   22.0856 N   0  0  0  0  0  0
  -23.4174  -28.8075   23.3112 O   0  0  0  0  0  0
  -28.2755  -25.8795   20.2335 O   0  0  0  0  0  0
  -26.5712  -34.8888   22.4593 O   0  0  0  0  0  0
  -23.5690  -32.1248   23.6798 O   0  0  0  0  0  0
  -27.8897  -22.0324   19.4803 C   0  0  0  0  0  0
  -28.7541  -21.2346   20.3633 C   0  0  0  0  0  0
  -29.1901  -23.5500   21.2112 C   0  0  0  0  0  0
  -28.3163  -24.3433   20.3335 C   0  0  0  0  0  0
  -28.3412  -19.2569   22.0368 C   0  0  0  0  0  0
  -30.6134  -18.4423   21.7947 C   0  0  0  0  0  0
  -28.7347  -19.4876   20.5705 C   0  0  2  0  0  0
  -29.8894  -18.1311   20.4808 C   0  0  2  0  0  0
  -30.0180  -24.2806   22.2536 C   0  0  0  0  0  0
  -31.5126  -24.3783   21.8906 C   0  0  0  0  0  0
  -27.6950  -23.4545   19.4520 N   0  0  0  0  0  0
  -29.3850  -22.1304   21.2271 N   0  0  0  0  0  0
  -29.6373  -16.4758   20.4905 N   0  0  0  0  0  0
  -29.5704  -18.8554   22.7585 N   0  3  0  0  0  0
  -32.1869  -23.0660   21.8245 N   0  3  0  0  0  0
  -31.4583  -12.9933   19.1900 H   0  0  0  0  0  0
  -30.5095  -11.8725   20.1160 H   0  0  0  0  0  0
  -29.9096  -11.7426   17.6763 H   0  0  0  0  0  0
  -29.5722  -13.4569   17.6481 H   0  0  0  0  0  0
  -28.0300  -11.2713   19.0686 H   0  0  0  0  0  0
  -27.4138  -12.3510   17.8447 H   0  0  0  0  0  0
  -27.5362  -14.2411   19.3337 H   0  0  0  0  0  0
  -28.8019  -12.4701   21.4802 H   0  0  0  0  0  0
  -28.2840  -14.1246   21.7052 H   0  0  0  0  0  0
  -25.2767   -9.5673   22.4755 H   0  0  0  0  0  0
  -23.9995   -7.4631   22.7486 H   0  0  0  0  0  0
  -21.0844   -8.8765   19.8949 H   0  0  0  0  0  0
  -22.3708  -10.9656   19.6149 H   0  0  0  0  0  0
  -21.2001   -7.6133   23.9707 H   0  0  0  0  0  0
  -21.1477   -6.0509   25.9074 H   0  0  0  0  0  0
  -22.0605   -2.7595   23.2858 H   0  0  0  0  0  0
  -22.4030  -11.9851   22.4839 H   0  0  0  0  0  0
  -21.1011  -13.1181   22.2616 H   0  0  0  0  0  0
  -24.6202  -15.8347   20.4947 H   0  0  0  0  0  0
  -26.2155  -15.6226   19.9833 H   0  0  0  0  0  0
  -26.7384  -32.5157   23.0859 H   0  0  0  0  0  0
  -25.0123  -33.9470   25.0209 H   0  0  0  0  0  0
  -22.7878  -31.2631   21.3452 H   0  0  0  0  0  0
  -23.3784  -35.9420   23.3305 H   0  0  0  0  0  0
  -24.3529  -36.8783   22.2046 H   0  0  0  0  0  0
  -23.7197  -37.6312   23.6700 H   0  0  0  0  0  0
  -26.2204  -31.3661   20.6192 H   0  0  0  0  0  0
  -26.8990  -30.6902   22.0575 H   0  0  0  0  0  0
  -28.1437  -28.6031   21.2797 H   0  0  0  0  0  0
  -25.9003  -25.7089   19.0291 H   0  0  0  0  0  0
  -24.0016  -27.2350   18.9777 H   0  0  0  0  0  0
  -23.8677  -30.4972   19.3882 H   0  0  0  0  0  0
  -22.8215  -29.1861   19.8401 H   0  0  0  0  0  0
  -25.1335  -36.1729   25.0775 H   0  0  0  0  0  0
  -21.0020  -28.3388   24.1312 H   0  0  0  0  0  0
  -20.5653  -26.2385   23.3662 H   0  0  0  0  0  0
  -21.6632  -26.7441   22.1232 H   0  0  0  0  0  0
  -19.6910  -25.6324   21.1268 H   0  0  0  0  0  0
  -19.6677  -27.3208   20.6718 H   0  0  0  0  0  0
  -17.4208  -26.6729   21.4058 H   0  0  0  0  0  0
  -18.0345  -26.0102   22.9027 H   0  0  0  0  0  0
  -19.7974  -30.7328   24.2248 H   0  0  0  0  0  0
  -17.5051  -31.6307   24.5175 H   0  0  0  0  0  0
  -15.5386  -30.3024   23.7691 H   0  0  0  0  0  0
  -15.8690  -28.0830   22.7152 H   0  0  0  0  0  0
  -24.5983  -30.7030   25.7647 H   0  0  0  0  0  0
  -24.8876  -32.2912   26.4620 H   0  0  0  0  0  0
  -25.8000  -30.9031   27.0187 H   0  0  0  0  0  0
  -26.3150  -29.6555   24.1362 H   0  0  0  0  0  0
  -27.3999  -29.7240   25.5024 H   0  0  0  0  0  0
  -27.9104  -30.4046   23.9787 H   0  0  0  0  0  0
  -27.2717  -33.3644   26.1946 H   0  0  0  0  0  0
  -28.4002  -32.6739   25.0361 H   0  0  0  0  0  0
  -28.0691  -31.8472   26.5496 H   0  0  0  0  0  0
  -28.2578  -38.0013   24.7550 H   0  0  0  0  0  0
  -28.1064  -36.2542   24.6316 H   0  0  0  0  0  0
  -27.2265  -37.1370   25.8885 H   0  0  0  0  0  0
  -20.9602  -29.8607   21.6571 H   0  0  0  0  0  0
  -26.0116  -38.2743   24.1482 H   0  0  0  0  0  0
  -27.2725  -21.4954   18.7748 H   0  0  0  0  0  0
  -27.6294  -18.4341   22.1026 H   0  0  0  0  0  0
  -27.8650  -20.1211   22.5010 H   0  0  0  0  0  0
  -31.2855  -19.2886   21.6484 H   0  0  0  0  0  0
  -31.2210  -17.6217   22.1756 H   0  0  0  0  0  0
  -27.8928  -19.1909   19.9444 H   0  0  0  0  0  0
  -30.5554  -18.3098   19.6367 H   0  0  0  0  0  0
  -29.8850  -23.7879   23.2183 H   0  0  0  0  0  0
  -29.6182  -25.2860   22.3837 H   0  0  0  0  0  0
  -32.0265  -24.9968   22.6279 H   0  0  0  0  0  0
  -31.6222  -24.8816   20.9295 H   0  0  0  0  0  0
  -28.6597  -16.2516   20.5970 H   0  0  0  0  0  0
  -29.3535  -18.0901   23.3755 H   0  0  0  0  0  0
  -29.9147  -19.6138   23.3233 H   0  0  0  0  0  0
  -33.1473  -23.1803   21.5533 H   0  0  0  0  0  0
  -31.7338  -22.4709   21.1523 H   0  0  0  0  0  0
  -32.1654  -22.6125   22.7200 H   0  0  0  0  0  0
  1 25  1  0  0  0
  1 30  2  0  0  0
  1 83  1  0  0  0
  2  3  1  0  0  0
  2 25  1  0  0  0
  2 86  1  0  0  0
  2 87  1  0  0  0
  3  4  1  0  0  0
  3 88  1  0  0  0
  3 89  1  0  0  0
  4  5  1  0  0  0
  4 90  1  0  0  0
  4 91  1  0  0  0
  5  6  1  0  0  0
  5 26  1  0  0  0
  5 92  1  0  0  0
  6 25  1  0  0  0
  6 93  1  0  0  0
  6 94  1  0  0  0
  7  8  2  0  0  0
  7 26  1  0  0  0
  7 29  1  0  0  0
  8  9  1  0  0  0
  8 22  1  0  0  0
  9 10  1  0  0  0
  9 27  2  0  0  0
 10 11  2  0  0  0
 10 15  1  0  0  0
 11 12  1  0  0  0
 11 95  1  0  0  0
 12 13  2  0  0  0
 12 96  1  0  0  0
 13 14  1  0  0  0
 13 31  1  0  0  0
 14 15  2  0  0  0
 14 97  1  0  0  0
 15 98  1  0  0  0
 16 17  2  0  0  0
 16 21  1  0  0  0
 16 31  1  0  0  0
 17 18  1  0  0  0
 17 99  1  0  0  0
 18 19  2  0  0  0
 18100  1  0  0  0
 19 20  1  0  0  0
 19 24  1  0  0  0
 20 21  2  0  0  0
 20101  1  0  0  0
 21 23  1  0  0  0
 22 28  1  0  0  0
 22 32  2  0  0  0
 26 27  1  0  0  0
 28102  1  0  0  0
 28103  1  0  0  0
 29104  1  0  0  0
 29105  1  0  0  0
 33 34  1  0  0  0
 33 66  1  0  0  0
 33 70  2  0  0  0
 34 36  1  0  0  0
 34 59  1  0  0  0
 34106  1  0  0  0
 35 44  2  0  0  0
 35 45  1  0  0  0
 35 68  1  0  0  0
 36 56  1  0  0  0
 36107  1  0  0  0
 37 39  1  0  0  0
 37 47  1  0  0  0
 37 66  1  0  0  0
 37108  1  0  0  0
 38 43  2  0  0  0
 38 46  1  0  0  0
 38 47  1  0  0  0
 39 64  1  0  0  0
 39 67  2  0  0  0
 40 52  1  0  0  0
 40 53  2  0  0  0
 40 58  1  0  0  0
 41109  1  0  0  0
 41110  1  0  0  0
 41111  1  0  0  0
 41 48  1  0  0  0
 42 43  1  0  0  0
 42 66  1  0  0  0
 42112  1  0  0  0
 42113  1  0  0  0
 43 44  1  0  0  0
 44114  1  0  0  0
 45 46  2  0  0  0
 45115  1  0  0  0
 46116  1  0  0  0
 47117  1  0  0  0
 47118  1  0  0  0
 48 56  1  0  0  0
 48 65  1  0  0  0
 48119  1  0  0  0
 49 50  1  0  0  0
 49 53  1  0  0  0
 49 64  1  0  0  0
 49120  1  0  0  0
 50 51  1  0  0  0
 50121  1  0  0  0
 50122  1  0  0  0
 51 52  1  0  0  0
 51123  1  0  0  0
 51124  1  0  0  0
 52125  1  0  0  0
 52126  1  0  0  0
 53 54  1  0  0  0
 54 55  2  0  0  0
 54127  1  0  0  0
 55 57  1  0  0  0
 55128  1  0  0  0
 56 69  2  0  0  0
 57 58  2  0  0  0
 57129  1  0  0  0
 58130  1  0  0  0
 59 60  1  0  0  0
 59 61  1  0  0  0
 59 62  1  0  0  0
 60131  1  0  0  0
 60132  1  0  0  0
 60133  1  0  0  0
 61134  1  0  0  0
 61135  1  0  0  0
 61136  1  0  0  0
 62137  1  0  0  0
 62138  1  0  0  0
 62139  1  0  0  0
 63 65  1  0  0  0
 63140  1  0  0  0
 63141  1  0  0  0
 63142  1  0  0  0
 64143  1  0  0  0
 65144  1  0  0  0
 68 74  1  0  0  0
 71 72  2  0  0  0
 71 81  1  0  0  0
 71145  1  0  0  0
 72 82  1  0  0  0
 72 77  1  0  0  0
 73 74  1  0  0  0
 73 79  1  0  0  0
 73 82  2  0  0  0
 74 81  2  0  0  0
 75 77  1  0  0  0
 75 84  1  0  0  0
 75146  1  0  0  0
 75147  1  0  0  0
 76 78  1  0  0  0
 76 84  1  0  0  0
 76148  1  0  0  0
 76149  1  0  0  0
 77 78  1  0  0  0
 77150  1  0  0  0
 78 83  1  0  0  0
 78151  1  0  0  0
 79 80  1  0  0  0
 79152  1  0  0  0
 79153  1  0  0  0
 80 85  1  0  0  0
 80154  1  0  0  0
 80155  1  0  0  0
 83156  1  0  0  0
 84157  1  0  0  0
 84158  1  0  0  0
 85159  1  0  0  0
 85160  1  0  0  0
 85161  1  0  0  0
M  CHG  2  84   1  85   1
M  ISO  4   1 100  68 101  74 101  83 100
M  END
> <chiral flag>
0

> <version>
0

> <s_m_source_file>
/data/baiqing/PycharmProjects/Reinvent-master-3.2/result/LINK_invent/BTK/process_docking_weight1_custom_sum_contain_oxygen_bond_distance_aromatic_linkinvent_7_9_3/rearranged_h_0192.sdf

> <i_m_source_file_index>
54

> <r_mmod_Potential_Energy-OPLS-2005>
785.569152832031

> <r_mmod_Stretch_Energy-OPLS-2005>
504.640777587891

> <r_mmod_Bend_Energy-OPLS-2005>
462.736206054688

> <r_mmod_Torsional_Energy-OPLS-2005>
318.129638671875

> <r_mmod_Improper_Torsional_Energy-OPLS-2005>
7.44795083999634

> <r_mmod_Van_der_Waal_Energy-OPLS-2005>
122.807655334473

> <r_mmod_Electrostatic_Energy-OPLS-2005>
-20.8866710662842

> <r_mmod_Solvation_Energy-OPLS-2005>
-1036.20849609375

> <b_mmod_Minimization_Converged-OPLS-2005>
0

> <r_mmod_RMS_Derivative-OPLS-2005>
3.1407949924469

$$$$
54
                    3D
 Structure written by MMmdl.
150158  0  0  1  0            999 V2000
  -30.5302  -14.9864   20.4024 C   0  0  0  0  0  0
  -30.4382  -12.6082   19.5131 C   0  0  0  0  0  0
  -29.5248  -12.5345   18.2668 C   0  0  0  0  0  0
  -28.0588  -12.3156   18.6822 C   0  0  0  0  0  0
  -27.6285  -13.2537   19.8399 C   0  0  2  0  0  0
  -28.6682  -13.3003   20.9810 C   0  0  0  0  0  0
  -25.2449  -13.8235   20.5718 C   0  0  0  0  0  0
  -24.1769  -13.0450   20.9225 C   0  0  0  0  0  0
  -24.6393  -11.6935   20.8751 C   0  0  0  0  0  0
  -23.9080  -10.4302   21.0403 C   0  0  0  0  0  0
  -24.3629   -9.4213   21.9179 C   0  0  0  0  0  0
  -23.6299   -8.2250   22.0751 C   0  0  0  0  0  0
  -22.4282   -8.0290   21.3541 C   0  0  0  0  0  0
  -21.9919   -9.0263   20.4642 C   0  0  0  0  0  0
  -22.7252  -10.2139   20.3051 C   0  0  0  0  0  0
  -21.6858   -6.0738   22.5275 C   0  0  0  0  0  0
  -21.4020   -6.5639   23.8210 C   0  0  0  0  0  0
  -21.3658   -5.6790   24.9171 C   0  0  0  0  0  0
  -21.6043   -4.3052   24.7221 C   0  0  0  0  0  0
  -21.8821   -3.8146   23.4341 C   0  0  0  0  0  0
  -21.9195   -4.6964   22.3399 C   0  0  0  0  0  0
  -22.7786  -13.5212   21.1880 C   0  0  0  0  0  0
  -22.1664   -4.2150   21.0975 F   0  0  0  0  0  0
  -21.5622   -3.4535   25.7731 F   0  0  0  0  0  0
  -29.9439  -13.7172   20.3849 N   0  0  0  0  0  0
  -26.2879  -12.9475   20.3254 N   0  0  0  0  0  0
  -25.9329  -11.6598   20.5743 N   0  0  0  0  0  0
  -22.0441  -12.8197   22.0438 N   0  0  0  0  0  0
  -25.4115  -15.1968   20.4159 N   0  0  0  0  0  0
  -31.7254  -15.0449   20.0932 O   0  0  0  0  0  0
  -21.6647   -6.8884   21.4239 O   0  0  0  0  0  0
  -22.3463  -14.5513   20.6722 O   0  0  0  0  0  0
  -24.6464  -31.8406   23.1853 C   0  0  0  0  0  0
  -25.9225  -32.4675   23.8255 C   0  0  1  0  0  0
  -27.2174  -27.0995   20.1553 C   0  0  0  0  0  0
  -25.5963  -33.8484   24.2173 N   0  0  0  0  0  0
  -23.4521  -30.4582   21.5307 C   0  0  2  0  0  0
  -24.9034  -28.8798   20.1066 C   0  0  0  0  0  0
  -22.7585  -29.4527   22.4838 C   0  0  0  0  0  0
  -18.0311  -28.1395   22.8478 C   0  0  0  0  0  0
  -24.1491  -36.7245   23.2641 C   0  0  0  0  0  0
  -26.0101  -30.7015   21.3912 C   0  0  0  0  0  0
  -26.0798  -29.3092   20.7332 C   0  0  0  0  0  0
  -27.2345  -28.4339   20.7430 C   0  0  0  0  0  0
  -26.0207  -26.7887   19.4727 C   0  0  0  0  0  0
  -24.8896  -27.6351   19.4595 C   0  0  0  0  0  0
  -23.6807  -29.7854   20.1506 C   0  0  0  0  0  0
  -25.4125  -36.3018   24.0311 C   0  0  1  0  0  0
  -20.5925  -28.3727   23.1222 C   0  0  2  0  0  0
  -20.6790  -26.9424   22.5399 C   0  0  0  0  0  0
  -19.5762  -26.6379   21.5208 C   0  0  0  0  0  0
  -18.1947  -26.7935   22.1623 C   0  0  0  0  0  0
  -19.1568  -28.8880   23.2844 C   0  0  0  0  0  0
  -18.9485  -30.1476   23.8869 C   0  0  0  0  0  0
  -17.6480  -30.6591   24.0557 C   0  0  0  0  0  0
  -25.9080  -34.9395   23.5053 C   0  0  0  0  0  0
  -16.5371  -29.9082   23.6334 C   0  0  0  0  0  0
  -16.7296  -28.6500   23.0358 C   0  0  0  0  0  0
  -26.4535  -31.6560   25.0713 C   0  0  0  0  0  0
  -25.3709  -31.3768   26.1404 C   0  0  0  0  0  0
  -27.0406  -30.2948   24.6327 C   0  0  0  0  0  0
  -27.6054  -32.4338   25.7507 C   0  0  0  0  0  0
  -27.5573  -37.1781   24.8466 C   0  0  0  0  0  0
  -21.4273  -29.3050   22.3593 N   0  0  0  0  0  0
  -26.4283  -37.3736   23.9407 N   0  0  0  0  0  0
  -24.7226  -31.0226   22.0905 N   0  0  0  0  0  0
  -23.4213  -28.8079   23.3006 O   0  0  0  0  0  0
  -28.2552  -26.0890   20.2593 O   0  0  0  0  0  0
  -26.5665  -34.8900   22.4632 O   0  0  0  0  0  0
  -23.5575  -32.1303   23.7049 O   0  0  0  0  0  0
  -29.1257  -20.3063   19.7857 C   0  0  0  0  0  0
  -29.1343  -19.5021   18.5307 C   0  0  0  0  0  0
  -28.9000  -21.7303   19.6787 C   0  0  0  0  0  0
  -29.4336  -19.1124   20.8398 C   0  0  0  0  0  0
  -29.4141  -17.9846   18.6952 C   0  0  0  0  0  0
  -29.9777  -17.7067   20.1058 C   0  0  2  0  0  0
  -28.8405  -23.1628   20.5060 C   0  0  0  0  0  0
  -28.0490  -24.5638   19.9220 C   0  0  0  0  0  0
  -29.7548  -16.1831   20.5475 N   0  0  0  0  0  0
  -28.9284  -19.9563   17.4007 O   0  0  0  0  0  0
  -31.4735  -12.7598   19.2032 H   0  0  0  0  0  0
  -30.4293  -11.6613   20.0558 H   0  0  0  0  0  0
  -29.8504  -11.7323   17.6033 H   0  0  0  0  0  0
  -29.6097  -13.4596   17.6943 H   0  0  0  0  0  0
  -27.9589  -11.2760   18.9961 H   0  0  0  0  0  0
  -27.3970  -12.4390   17.8244 H   0  0  0  0  0  0
  -27.5866  -14.2520   19.4029 H   0  0  0  0  0  0
  -28.7595  -12.3302   21.4716 H   0  0  0  0  0  0
  -28.3604  -14.0091   21.7513 H   0  0  0  0  0  0
  -25.2772   -9.5686   22.4757 H   0  0  0  0  0  0
  -24.0001   -7.4641   22.7474 H   0  0  0  0  0  0
  -21.0849   -8.8789   19.8949 H   0  0  0  0  0  0
  -22.3713  -10.9679   19.6161 H   0  0  0  0  0  0
  -21.2021   -7.6149   23.9714 H   0  0  0  0  0  0
  -21.1473   -6.0519   25.9071 H   0  0  0  0  0  0
  -22.0601   -2.7608   23.2842 H   0  0  0  0  0  0
  -22.4072  -11.9872   22.4837 H   0  0  0  0  0  0
  -21.1050  -13.1202   22.2636 H   0  0  0  0  0  0
  -24.6418  -15.8477   20.5294 H   0  0  0  0  0  0
  -26.2562  -15.6392   20.0782 H   0  0  0  0  0  0
  -26.7286  -32.5271   23.0977 H   0  0  0  0  0  0
  -25.0093  -33.9593   25.0308 H   0  0  0  0  0  0
  -22.7564  -31.2851   21.3735 H   0  0  0  0  0  0
  -23.3757  -35.9572   23.3290 H   0  0  0  0  0  0
  -24.3570  -36.8895   22.2057 H   0  0  0  0  0  0
  -23.7244  -37.6436   23.6691 H   0  0  0  0  0  0
  -26.1705  -31.4538   20.6175 H   0  0  0  0  0  0
  -26.8782  -30.7524   22.0367 H   0  0  0  0  0  0
  -28.1261  -28.7536   21.2639 H   0  0  0  0  0  0
  -25.9215  -25.8434   18.9606 H   0  0  0  0  0  0
  -23.9951  -27.3046   18.9496 H   0  0  0  0  0  0
  -23.8191  -30.5593   19.3948 H   0  0  0  0  0  0
  -22.7949  -29.2286   19.8391 H   0  0  0  0  0  0
  -25.1312  -36.1839   25.0802 H   0  0  0  0  0  0
  -21.0019  -28.3321   24.1341 H   0  0  0  0  0  0
  -20.5673  -26.2341   23.3625 H   0  0  0  0  0  0
  -21.6656  -26.7418   22.1201 H   0  0  0  0  0  0
  -19.6920  -25.6282   21.1257 H   0  0  0  0  0  0
  -19.6694  -27.3170   20.6721 H   0  0  0  0  0  0
  -17.4212  -26.6681   21.4031 H   0  0  0  0  0  0
  -18.0348  -26.0083   22.9024 H   0  0  0  0  0  0
  -19.7961  -30.7302   24.2222 H   0  0  0  0  0  0
  -17.5032  -31.6267   24.5166 H   0  0  0  0  0  0
  -15.5370  -30.2972   23.7673 H   0  0  0  0  0  0
  -15.8699  -28.0806   22.7087 H   0  0  0  0  0  0
  -24.5895  -30.7106   25.7731 H   0  0  0  0  0  0
  -24.8893  -32.2954   26.4761 H   0  0  0  0  0  0
  -25.7984  -30.8992   27.0228 H   0  0  0  0  0  0
  -26.3035  -29.6664   24.1314 H   0  0  0  0  0  0
  -27.3979  -29.7261   25.4924 H   0  0  0  0  0  0
  -27.8959  -30.4172   23.9679 H   0  0  0  0  0  0
  -27.2636  -33.3659   26.2020 H   0  0  0  0  0  0
  -28.3901  -32.6867   25.0365 H   0  0  0  0  0  0
  -28.0678  -31.8508   26.5482 H   0  0  0  0  0  0
  -28.2582  -38.0084   24.7502 H   0  0  0  0  0  0
  -28.1077  -36.2611   24.6306 H   0  0  0  0  0  0
  -27.2288  -37.1438   25.8869 H   0  0  0  0  0  0
  -20.9493  -29.8763   21.6766 H   0  0  0  0  0  0
  -26.0148  -38.2801   24.1413 H   0  0  0  0  0  0
  -28.7628  -22.0264   18.6482 H   0  0  0  0  0  0
  -28.5029  -18.9019   21.3677 H   0  0  0  0  0  0
  -30.1444  -19.4570   21.5913 H   0  0  0  0  0  0
  -30.0996  -17.6399   17.9213 H   0  0  0  0  0  0
  -28.4698  -17.4598   18.5536 H   0  0  0  0  0  0
  -31.0612  -17.8165   20.0315 H   0  0  0  0  0  0
  -29.8874  -23.4440   20.6207 H   0  0  0  0  0  0
  -28.4971  -22.9535   21.5190 H   0  0  0  0  0  0
  -26.9961  -24.3515   20.1026 H   0  0  0  0  0  0
  -28.1539  -24.5268   18.8374 H   0  0  0  0  0  0
  -28.8121  -15.9875   20.8515 H   0  0  0  0  0  0
  1 25  1  0  0  0
  1 30  2  0  0  0
  1 79  1  0  0  0
  2  3  1  0  0  0
  2 25  1  0  0  0
  2 81  1  0  0  0
  2 82  1  0  0  0
  3  4  1  0  0  0
  3 83  1  0  0  0
  3 84  1  0  0  0
  4  5  1  0  0  0
  4 85  1  0  0  0
  4 86  1  0  0  0
  5  6  1  0  0  0
  5 26  1  0  0  0
  5 87  1  0  0  0
  6 25  1  0  0  0
  6 88  1  0  0  0
  6 89  1  0  0  0
  7  8  2  0  0  0
  7 26  1  0  0  0
  7 29  1  0  0  0
  8  9  1  0  0  0
  8 22  1  0  0  0
  9 10  1  0  0  0
  9 27  2  0  0  0
 10 11  2  0  0  0
 10 15  1  0  0  0
 11 12  1  0  0  0
 11 90  1  0  0  0
 12 13  2  0  0  0
 12 91  1  0  0  0
 13 14  1  0  0  0
 13 31  1  0  0  0
 14 15  2  0  0  0
 14 92  1  0  0  0
 15 93  1  0  0  0
 16 17  2  0  0  0
 16 21  1  0  0  0
 16 31  1  0  0  0
 17 18  1  0  0  0
 17 94  1  0  0  0
 18 19  2  0  0  0
 18 95  1  0  0  0
 19 20  1  0  0  0
 19 24  1  0  0  0
 20 21  2  0  0  0
 20 96  1  0  0  0
 21 23  1  0  0  0
 22 28  1  0  0  0
 22 32  2  0  0  0
 26 27  1  0  0  0
 28 97  1  0  0  0
 28 98  1  0  0  0
 29 99  1  0  0  0
 29100  1  0  0  0
 33 34  1  0  0  0
 33 66  1  0  0  0
 33 70  2  0  0  0
 34 36  1  0  0  0
 34 59  1  0  0  0
 34101  1  0  0  0
 35 44  2  0  0  0
 35 45  1  0  0  0
 35 68  1  0  0  0
 36 56  1  0  0  0
 36102  1  0  0  0
 37 39  1  0  0  0
 37 47  1  0  0  0
 37 66  1  0  0  0
 37103  1  0  0  0
 38 43  2  0  0  0
 38 46  1  0  0  0
 38 47  1  0  0  0
 39 64  1  0  0  0
 39 67  2  0  0  0
 40 52  1  0  0  0
 40 53  2  0  0  0
 40 58  1  0  0  0
 41104  1  0  0  0
 41105  1  0  0  0
 41106  1  0  0  0
 41 48  1  0  0  0
 42 43  1  0  0  0
 42 66  1  0  0  0
 42107  1  0  0  0
 42108  1  0  0  0
 43 44  1  0  0  0
 44109  1  0  0  0
 45 46  2  0  0  0
 45110  1  0  0  0
 46111  1  0  0  0
 47112  1  0  0  0
 47113  1  0  0  0
 48 56  1  0  0  0
 48 65  1  0  0  0
 48114  1  0  0  0
 49 50  1  0  0  0
 49 53  1  0  0  0
 49 64  1  0  0  0
 49115  1  0  0  0
 50 51  1  0  0  0
 50116  1  0  0  0
 50117  1  0  0  0
 51 52  1  0  0  0
 51118  1  0  0  0
 51119  1  0  0  0
 52120  1  0  0  0
 52121  1  0  0  0
 53 54  1  0  0  0
 54 55  2  0  0  0
 54122  1  0  0  0
 55 57  1  0  0  0
 55123  1  0  0  0
 56 69  2  0  0  0
 57 58  2  0  0  0
 57124  1  0  0  0
 58125  1  0  0  0
 59 60  1  0  0  0
 59 61  1  0  0  0
 59 62  1  0  0  0
 60126  1  0  0  0
 60127  1  0  0  0
 60128  1  0  0  0
 61129  1  0  0  0
 61130  1  0  0  0
 61131  1  0  0  0
 62132  1  0  0  0
 62133  1  0  0  0
 62134  1  0  0  0
 63 65  1  0  0  0
 63135  1  0  0  0
 63136  1  0  0  0
 63137  1  0  0  0
 64138  1  0  0  0
 65139  1  0  0  0
 68 78  1  0  0  0
 71 72  1  0  0  0
 71 73  2  0  0  0
 71 74  1  0  0  0
 72 75  1  0  0  0
 72 80  2  0  0  0
 73 77  1  0  0  0
 73140  1  0  0  0
 74 76  1  0  0  0
 74141  1  0  0  0
 74142  1  0  0  0
 75 76  1  0  0  0
 75143  1  0  0  0
 75144  1  0  0  0
 76 79  1  0  0  0
 76145  1  0  0  0
 77 78  1  0  0  0
 77146  1  0  0  0
 77147  1  0  0  0
 78148  1  0  0  0
 78149  1  0  0  0
 79150  1  0  0  0
M  ISO  4   1 100  68 101  78 101  79 100
M  END
> <chiral flag>
0

> <version>
0

> <s_m_source_file>
/data/baiqing/PycharmProjects/Reinvent-master-3.2/result/LINK_invent/BTK/process_docking_weight1_custom_sum_contain_oxygen_bond_distance_aromatic_linkinvent_7_9_3/rearranged_h_0192.sdf

> <i_m_source_file_index>
55

> <r_mmod_Potential_Energy-OPLS-2005>
657.342651367188

> <r_mmod_Stretch_Energy-OPLS-2005>
292.765899658203

> <r_mmod_Bend_Energy-OPLS-2005>
354.135498046875

> <r_mmod_Torsional_Energy-OPLS-2005>
218.513290405273

> <r_mmod_Improper_Torsional_Energy-OPLS-2005>
5.09384632110596

> <r_mmod_Van_der_Waal_Energy-OPLS-2005>
115.693756103516

> <r_mmod_Electrostatic_Energy-OPLS-2005>
-329.153656005859

> <r_mmod_Solvation_Energy-OPLS-2005>
-224.715316772461

> <b_mmod_Minimization_Converged-OPLS-2005>
0

> <r_mmod_RMS_Derivative-OPLS-2005>
0.701761066913605

$$$$
55
                    3D
 Structure written by MMmdl.
164173  0  0  1  0            999 V2000
  -30.6715  -14.5917   20.4596 C   0  0  0  0  0  0
  -30.4251  -12.3544   19.4459 C   0  0  0  0  0  0
  -29.5000  -12.4833   18.2177 C   0  0  0  0  0  0
  -28.0228  -12.3366   18.6353 C   0  0  0  0  0  0
  -27.6498  -13.2083   19.8653 C   0  0  2  0  0  0
  -28.7020  -13.0914   20.9899 C   0  0  0  0  0  0
  -25.2565  -13.8143   20.5719 C   0  0  0  0  0  0
  -24.1819  -13.0425   20.9206 C   0  0  0  0  0  0
  -24.6375  -11.6892   20.8762 C   0  0  0  0  0  0
  -23.9043  -10.4283   21.0416 C   0  0  0  0  0  0
  -24.3598   -9.4195   21.9187 C   0  0  0  0  0  0
  -23.6276   -8.2233   22.0757 C   0  0  0  0  0  0
  -22.4259   -8.0274   21.3550 C   0  0  0  0  0  0
  -21.9891   -9.0251   20.4654 C   0  0  0  0  0  0
  -22.7218  -10.2129   20.3063 C   0  0  0  0  0  0
  -21.6849   -6.0725   22.5279 C   0  0  0  0  0  0
  -21.4012   -6.5628   23.8212 C   0  0  0  0  0  0
  -21.3659   -5.6786   24.9176 C   0  0  0  0  0  0
  -21.6044   -4.3048   24.7227 C   0  0  0  0  0  0
  -21.8819   -3.8139   23.4346 C   0  0  0  0  0  0
  -21.9193   -4.6954   22.3401 C   0  0  0  0  0  0
  -22.7843  -13.5237   21.1844 C   0  0  0  0  0  0
  -22.1660   -4.2141   21.0979 F   0  0  0  0  0  0
  -21.5629   -3.4535   25.7741 F   0  0  0  0  0  0
  -30.0135  -13.3960   20.4024 N   0  0  0  0  0  0
  -26.2981  -12.9300   20.3382 N   0  0  0  0  0  0
  -25.9304  -11.6466   20.5805 N   0  0  0  0  0  0
  -22.0468  -12.8254   22.0399 N   0  0  0  0  0  0
  -25.4304  -15.1858   20.4129 N   0  0  0  0  0  0
  -31.8676  -14.6787   20.1683 O   0  0  0  0  0  0
  -21.6628   -6.8870   21.4242 O   0  0  0  0  0  0
  -22.3548  -14.5545   20.6679 O   0  0  0  0  0  0
  -24.6210  -31.8637   23.2062 C   0  0  0  0  0  0
  -25.9079  -32.4800   23.8378 C   0  0  1  0  0  0
  -27.2270  -27.3761   20.1155 C   0  0  0  0  0  0
  -25.5918  -33.8601   24.2311 N   0  0  0  0  0  0
  -23.4130  -30.4866   21.5468 C   0  0  2  0  0  0
  -24.8637  -28.9518   20.1079 C   0  0  0  0  0  0
  -22.7453  -29.4632   22.4950 C   0  0  0  0  0  0
  -18.0284  -28.1380   22.8482 C   0  0  0  0  0  0
  -24.1489  -36.7303   23.2634 C   0  0  0  0  0  0
  -25.9487  -30.8132   21.3696 C   0  0  0  0  0  0
  -26.0281  -29.4452   20.7126 C   0  0  0  0  0  0
  -27.2176  -28.6666   20.7112 C   0  0  0  0  0  0
  -26.0515  -26.9250   19.4792 C   0  0  0  0  0  0
  -24.8740  -27.6944   19.4824 C   0  0  0  0  0  0
  -23.6263  -29.8222   20.1606 C   0  0  0  0  0  0
  -25.4108  -36.3096   24.0335 C   0  0  1  0  0  0
  -20.5880  -28.3676   23.1294 C   0  0  2  0  0  0
  -20.6772  -26.9402   22.5415 C   0  0  0  0  0  0
  -19.5753  -26.6381   21.5209 C   0  0  0  0  0  0
  -18.1930  -26.7926   22.1612 C   0  0  0  0  0  0
  -19.1534  -28.8844   23.2884 C   0  0  0  0  0  0
  -18.9458  -30.1448   23.8898 C   0  0  0  0  0  0
  -17.6458  -30.6582   24.0559 C   0  0  0  0  0  0
  -25.9041  -34.9463   23.5120 C   0  0  0  0  0  0
  -16.5349  -29.9080   23.6327 C   0  0  0  0  0  0
  -16.7272  -28.6496   23.0346 C   0  0  0  0  0  0
  -26.4483  -31.6589   25.0723 C   0  0  0  0  0  0
  -25.3741  -31.3724   26.1471 C   0  0  0  0  0  0
  -27.0306  -30.3018   24.6136 C   0  0  0  0  0  0
  -27.6065  -32.4308   25.7479 C   0  0  0  0  0  0
  -27.5584  -37.1797   24.8457 C   0  0  0  0  0  0
  -21.4170  -29.3034   22.3694 N   0  0  0  0  0  0
  -26.4289  -37.3787   23.9414 N   0  0  0  0  0  0
  -24.6791  -31.0695   22.0985 N   0  0  0  0  0  0
  -23.4200  -28.8167   23.3007 O   0  0  0  0  0  0
  -28.3142  -26.5134   20.1735 O   0  0  0  0  0  0
  -26.5599  -34.8921   22.4678 O   0  0  0  0  0  0
  -23.5386  -32.1411   23.7421 O   0  0  0  0  0  0
  -29.8506  -22.1810   21.7728 C   0  0  0  0  0  0
  -29.8133  -21.4402   20.5755 C   0  0  0  0  0  0
  -29.2152  -22.1317   19.4935 C   0  0  0  0  0  0
  -28.8019  -24.0067   20.8033 C   0  0  0  0  0  0
  -29.3688  -16.4914   21.4578 C   0  0  0  0  0  0
  -29.9453  -17.9462   21.5973 C   0  0  0  0  0  0
  -30.5820  -17.9312   19.2604 C   0  0  0  0  0  0
  -29.9624  -16.5183   19.0679 C   0  0  2  0  0  0
  -29.1301  -21.5270   18.1058 C   0  0  0  0  0  0
  -28.6020  -16.5785   18.3454 C   0  0  0  0  0  0
  -30.6226  -20.1064   20.4485 C   0  0  0  0  0  0
  -28.0531  -25.3557   21.0333 C   0  0  0  0  0  0
  -29.3516  -23.4351   21.8773 N   0  0  0  0  0  0
  -28.7079  -23.3878   19.6213 N   0  0  0  0  0  0
  -29.8867  -15.7094   20.3128 N   0  0  0  0  0  0
  -29.9488  -18.7490   20.3342 N   0  3  2  0  0  0
  -31.4692  -12.4511   19.1426 H   0  0  0  0  0  0
  -30.3340  -11.3659   19.8988 H   0  0  0  0  0  0
  -29.7539  -11.7269   17.4741 H   0  0  0  0  0  0
  -29.6554  -13.4485   17.7335 H   0  0  0  0  0  0
  -27.8537  -11.2843   18.8667 H   0  0  0  0  0  0
  -27.3683  -12.5703   17.7948 H   0  0  0  0  0  0
  -27.6546  -14.2394   19.5283 H   0  0  0  0  0  0
  -28.7049  -12.0874   21.4164 H   0  0  0  0  0  0
  -28.4684  -13.7730   21.8086 H   0  0  0  0  0  0
  -25.2744   -9.5667   22.4758 H   0  0  0  0  0  0
  -23.9986   -7.4621   22.7472 H   0  0  0  0  0  0
  -21.0820   -8.8773   19.8961 H   0  0  0  0  0  0
  -22.3679  -10.9671   19.6172 H   0  0  0  0  0  0
  -21.2000   -7.6135   23.9712 H   0  0  0  0  0  0
  -21.1481   -6.0514   25.9079 H   0  0  0  0  0  0
  -22.0598   -2.7601   23.2854 H   0  0  0  0  0  0
  -22.4058  -11.9920   22.4812 H   0  0  0  0  0  0
  -21.1092  -13.1312   22.2588 H   0  0  0  0  0  0
  -24.6644  -15.8426   20.5130 H   0  0  0  0  0  0
  -26.2839  -15.6171   20.0847 H   0  0  0  0  0  0
  -26.7147  -32.5498   23.1136 H   0  0  0  0  0  0
  -25.0088  -33.9761   25.0469 H   0  0  0  0  0  0
  -22.7037  -31.3045   21.4055 H   0  0  0  0  0  0
  -23.3755  -35.9630   23.3289 H   0  0  0  0  0  0
  -24.3591  -36.8929   22.2052 H   0  0  0  0  0  0
  -23.7236  -37.6502   23.6656 H   0  0  0  0  0  0
  -26.0720  -31.5800   20.6034 H   0  0  0  0  0  0
  -26.8315  -30.8638   21.9949 H   0  0  0  0  0  0
  -28.1098  -29.0342   21.1989 H   0  0  0  0  0  0
  -26.0375  -25.9545   19.0022 H   0  0  0  0  0  0
  -23.9819  -27.3112   19.0062 H   0  0  0  0  0  0
  -23.7366  -30.5986   19.4027 H   0  0  0  0  0  0
  -22.7498  -29.2444   19.8625 H   0  0  0  0  0  0
  -25.1281  -36.1953   25.0827 H   0  0  0  0  0  0
  -20.9970  -28.3251   24.1416 H   0  0  0  0  0  0
  -20.5664  -26.2283   23.3610 H   0  0  0  0  0  0
  -21.6645  -26.7436   22.1213 H   0  0  0  0  0  0
  -19.6913  -25.6293   21.1237 H   0  0  0  0  0  0
  -19.6692  -27.3188   20.6738 H   0  0  0  0  0  0
  -17.4202  -26.6677   21.4012 H   0  0  0  0  0  0
  -18.0322  -26.0066   22.9003 H   0  0  0  0  0  0
  -19.7937  -30.7263   24.2264 H   0  0  0  0  0  0
  -17.5017  -31.6265   24.5156 H   0  0  0  0  0  0
  -15.5351  -30.2977   23.7655 H   0  0  0  0  0  0
  -15.8672  -28.0816   22.7059 H   0  0  0  0  0  0
  -24.5911  -30.7065   25.7819 H   0  0  0  0  0  0
  -24.8934  -32.2889   26.4902 H   0  0  0  0  0  0
  -25.8091  -30.8909   27.0239 H   0  0  0  0  0  0
  -26.2856  -29.6784   24.1176 H   0  0  0  0  0  0
  -27.4036  -29.7253   25.4614 H   0  0  0  0  0  0
  -27.8716  -30.4309   23.9320 H   0  0  0  0  0  0
  -27.2692  -33.3600   26.2080 H   0  0  0  0  0  0
  -28.3856  -32.6879   25.0290 H   0  0  0  0  0  0
  -28.0753  -31.8417   26.5372 H   0  0  0  0  0  0
  -28.2590  -38.0107   24.7534 H   0  0  0  0  0  0
  -28.1093  -36.2646   24.6237 H   0  0  0  0  0  0
  -27.2316  -37.1399   25.8862 H   0  0  0  0  0  0
  -20.9338  -29.8767   21.6921 H   0  0  0  0  0  0
  -26.0176  -38.2860   24.1431 H   0  0  0  0  0  0
  -30.3341  -21.7862   22.6545 H   0  0  0  0  0  0
  -28.2846  -16.5442   21.3571 H   0  0  0  0  0  0
  -29.5437  -15.9514   22.3901 H   0  0  0  0  0  0
  -30.9707  -17.8702   21.9631 H   0  0  0  0  0  0
  -29.3923  -18.4897   22.3650 H   0  0  0  0  0  0
  -30.5441  -18.4742   18.3141 H   0  0  0  0  0  0
  -31.6422  -17.8158   19.4943 H   0  0  0  0  0  0
  -30.6260  -16.0098   18.3632 H   0  0  0  0  0  0
  -30.1230  -21.4362   17.6664 H   0  0  0  0  0  0
  -28.5257  -22.1448   17.4412 H   0  0  0  0  0  0
  -28.6732  -20.5388   18.1436 H   0  0  0  0  0  0
  -27.8016  -16.9376   18.9920 H   0  0  0  0  0  0
  -28.3138  -15.6023   17.9583 H   0  0  0  0  0  0
  -28.6444  -17.2435   17.4819 H   0  0  0  0  0  0
  -31.3375  -20.0660   21.2722 H   0  0  0  0  0  0
  -31.2625  -20.2554   19.5772 H   0  0  0  0  0  0
  -28.2621  -25.6853   22.0520 H   0  0  0  0  0  0
  -26.9941  -25.0947   21.0442 H   0  0  0  0  0  0
  -28.9885  -18.8938   20.0626 H   0  0  0  0  0  0
  1 25  1  0  0  0
  1 30  2  0  0  0
  1 85  1  0  0  0
  2  3  1  0  0  0
  2 25  1  0  0  0
  2 87  1  0  0  0
  2 88  1  0  0  0
  3  4  1  0  0  0
  3 89  1  0  0  0
  3 90  1  0  0  0
  4  5  1  0  0  0
  4 91  1  0  0  0
  4 92  1  0  0  0
  5  6  1  0  0  0
  5 26  1  0  0  0
  5 93  1  0  0  0
  6 25  1  0  0  0
  6 94  1  0  0  0
  6 95  1  0  0  0
  7  8  2  0  0  0
  7 26  1  0  0  0
  7 29  1  0  0  0
  8  9  1  0  0  0
  8 22  1  0  0  0
  9 10  1  0  0  0
  9 27  2  0  0  0
 10 11  2  0  0  0
 10 15  1  0  0  0
 11 12  1  0  0  0
 11 96  1  0  0  0
 12 13  2  0  0  0
 12 97  1  0  0  0
 13 14  1  0  0  0
 13 31  1  0  0  0
 14 15  2  0  0  0
 14 98  1  0  0  0
 15 99  1  0  0  0
 16 17  2  0  0  0
 16 21  1  0  0  0
 16 31  1  0  0  0
 17 18  1  0  0  0
 17100  1  0  0  0
 18 19  2  0  0  0
 18101  1  0  0  0
 19 20  1  0  0  0
 19 24  1  0  0  0
 20 21  2  0  0  0
 20102  1  0  0  0
 21 23  1  0  0  0
 22 28  1  0  0  0
 22 32  2  0  0  0
 26 27  1  0  0  0
 28103  1  0  0  0
 28104  1  0  0  0
 29105  1  0  0  0
 29106  1  0  0  0
 33 34  1  0  0  0
 33 66  1  0  0  0
 33 70  2  0  0  0
 34 36  1  0  0  0
 34 59  1  0  0  0
 34107  1  0  0  0
 35 44  2  0  0  0
 35 45  1  0  0  0
 35 68  1  0  0  0
 36 56  1  0  0  0
 36108  1  0  0  0
 37 39  1  0  0  0
 37 47  1  0  0  0
 37 66  1  0  0  0
 37109  1  0  0  0
 38 43  2  0  0  0
 38 46  1  0  0  0
 38 47  1  0  0  0
 39 64  1  0  0  0
 39 67  2  0  0  0
 40 52  1  0  0  0
 40 53  2  0  0  0
 40 58  1  0  0  0
 41110  1  0  0  0
 41111  1  0  0  0
 41112  1  0  0  0
 41 48  1  0  0  0
 42 43  1  0  0  0
 42 66  1  0  0  0
 42113  1  0  0  0
 42114  1  0  0  0
 43 44  1  0  0  0
 44115  1  0  0  0
 45 46  2  0  0  0
 45116  1  0  0  0
 46117  1  0  0  0
 47118  1  0  0  0
 47119  1  0  0  0
 48 56  1  0  0  0
 48 65  1  0  0  0
 48120  1  0  0  0
 49 50  1  0  0  0
 49 53  1  0  0  0
 49 64  1  0  0  0
 49121  1  0  0  0
 50 51  1  0  0  0
 50122  1  0  0  0
 50123  1  0  0  0
 51 52  1  0  0  0
 51124  1  0  0  0
 51125  1  0  0  0
 52126  1  0  0  0
 52127  1  0  0  0
 53 54  1  0  0  0
 54 55  2  0  0  0
 54128  1  0  0  0
 55 57  1  0  0  0
 55129  1  0  0  0
 56 69  2  0  0  0
 57 58  2  0  0  0
 57130  1  0  0  0
 58131  1  0  0  0
 59 60  1  0  0  0
 59 61  1  0  0  0
 59 62  1  0  0  0
 60132  1  0  0  0
 60133  1  0  0  0
 60134  1  0  0  0
 61135  1  0  0  0
 61136  1  0  0  0
 61137  1  0  0  0
 62138  1  0  0  0
 62139  1  0  0  0
 62140  1  0  0  0
 63 65  1  0  0  0
 63141  1  0  0  0
 63142  1  0  0  0
 63143  1  0  0  0
 64144  1  0  0  0
 65145  1  0  0  0
 68 82  1  0  0  0
 71 72  2  0  0  0
 71 83  1  0  0  0
 71146  1  0  0  0
 72 73  1  0  0  0
 72 81  1  0  0  0
 73 79  1  0  0  0
 73 84  2  0  0  0
 74 82  1  0  0  0
 74 83  2  0  0  0
 74 84  1  0  0  0
 75 76  1  0  0  0
 75 85  1  0  0  0
 75147  1  0  0  0
 75148  1  0  0  0
 76 86  1  0  0  0
 76149  1  0  0  0
 76150  1  0  0  0
 77 78  1  0  0  0
 77 86  1  0  0  0
 77151  1  0  0  0
 77152  1  0  0  0
 78 80  1  0  0  0
 78 85  1  0  0  0
 78153  1  0  0  0
 79154  1  0  0  0
 79155  1  0  0  0
 79156  1  0  0  0
 80157  1  0  0  0
 80158  1  0  0  0
 80159  1  0  0  0
 81160  1  0  0  0
 81161  1  0  0  0
 81 86  1  0  0  0
 82162  1  0  0  0
 82163  1  0  0  0
 86164  1  0  0  0
M  CHG  1  86   1
M  ISO  4   1 100  68 101  82 101  85 100
M  END
> <chiral flag>
0

> <version>
0

> <s_m_source_file>
/data/baiqing/PycharmProjects/Reinvent-master-3.2/result/LINK_invent/BTK/process_docking_weight1_custom_sum_contain_oxygen_bond_distance_aromatic_linkinvent_7_9_3/rearranged_h_0192.sdf

> <i_m_source_file_index>
56

> <r_mmod_Potential_Energy-OPLS-2005>
-142.731430053711

> <r_mmod_Stretch_Energy-OPLS-2005>
61.1169204711914

> <r_mmod_Bend_Energy-OPLS-2005>
135.732681274414

> <r_mmod_Torsional_Energy-OPLS-2005>
428.073791503906

> <r_mmod_Improper_Torsional_Energy-OPLS-2005>
21.4008636474609

> <r_mmod_Van_der_Waal_Energy-OPLS-2005>
147.046310424805

> <r_mmod_Electrostatic_Energy-OPLS-2005>
-516.877014160156

> <r_mmod_Solvation_Energy-OPLS-2005>
-458.441772460938

> <b_mmod_Minimization_Converged-OPLS-2005>
0

> <r_mmod_RMS_Derivative-OPLS-2005>
0.858162820339203

$$$$
56
                    3D
 Structure written by MMmdl.
157166  0  0  1  0            999 V2000
  -30.5031  -15.0813   20.4291 C   0  0  0  0  0  0
  -30.4632  -12.6885   19.5130 C   0  0  0  0  0  0
  -29.5465  -12.5586   18.2731 C   0  0  0  0  0  0
  -28.0759  -12.3306   18.6788 C   0  0  0  0  0  0
  -27.6329  -13.2627   19.8387 C   0  0  2  0  0  0
  -28.6779  -13.3413   20.9716 C   0  0  0  0  0  0
  -25.2459  -13.8231   20.5684 C   0  0  0  0  0  0
  -24.1804  -13.0438   20.9256 C   0  0  0  0  0  0
  -24.6444  -11.6930   20.8800 C   0  0  0  0  0  0
  -23.9114  -10.4313   21.0435 C   0  0  0  0  0  0
  -24.3639   -9.4236   21.9222 C   0  0  0  0  0  0
  -23.6292   -8.2270   22.0800 C   0  0  0  0  0  0
  -22.4274   -8.0314   21.3579 C   0  0  0  0  0  0
  -21.9917   -9.0302   20.4693 C   0  0  0  0  0  0
  -22.7271  -10.2165   20.3099 C   0  0  0  0  0  0
  -21.6859   -6.0728   22.5277 C   0  0  0  0  0  0
  -21.4034   -6.5635   23.8218 C   0  0  0  0  0  0
  -21.3658   -5.6777   24.9182 C   0  0  0  0  0  0
  -21.6049   -4.3049   24.7226 C   0  0  0  0  0  0
  -21.8815   -3.8133   23.4355 C   0  0  0  0  0  0
  -21.9210   -4.6946   22.3415 C   0  0  0  0  0  0
  -22.7818  -13.5235   21.1877 C   0  0  0  0  0  0
  -22.1646   -4.2118   21.0991 F   0  0  0  0  0  0
  -21.5635   -3.4543   25.7750 F   0  0  0  0  0  0
  -29.9307  -13.8023   20.3539 N   0  0  0  0  0  0
  -26.2920  -12.9461   20.3263 N   0  0  0  0  0  0
  -25.9398  -11.6602   20.5773 N   0  0  0  0  0  0
  -22.0401  -12.8277   22.0433 N   0  0  0  0  0  0
  -25.4096  -15.1946   20.3979 N   0  0  0  0  0  0
  -31.7267  -15.1379   20.2519 O   0  0  0  0  0  0
  -21.6662   -6.8880   21.4245 O   0  0  0  0  0  0
  -22.3514  -14.5504   20.6655 O   0  0  0  0  0  0
  -24.6563  -31.8390   23.1840 C   0  0  0  0  0  0
  -25.9304  -32.4667   23.8271 C   0  0  1  0  0  0
  -27.2219  -27.0682   20.1086 C   0  0  0  0  0  0
  -25.6019  -33.8471   24.2194 N   0  0  0  0  0  0
  -23.4609  -30.4582   21.5330 C   0  0  2  0  0  0
  -24.9065  -28.8770   20.1059 C   0  0  0  0  0  0
  -22.7641  -29.4556   22.4870 C   0  0  0  0  0  0
  -18.0312  -28.1442   22.8451 C   0  0  0  0  0  0
  -24.1467  -36.7248   23.2629 C   0  0  0  0  0  0
  -26.0259  -30.6858   21.3887 C   0  0  0  0  0  0
  -26.0920  -29.2916   20.7267 C   0  0  0  0  0  0
  -27.2422  -28.4024   20.7166 C   0  0  0  0  0  0
  -26.0036  -26.7887   19.4385 C   0  0  0  0  0  0
  -24.8808  -27.6427   19.4502 C   0  0  0  0  0  0
  -23.6885  -29.7911   20.1520 C   0  0  0  0  0  0
  -25.4107  -36.3025   24.0311 C   0  0  1  0  0  0
  -20.5933  -28.3777   23.1219 C   0  0  2  0  0  0
  -20.6822  -26.9482   22.5404 C   0  0  0  0  0  0
  -19.5812  -26.6410   21.5214 C   0  0  0  0  0  0
  -18.1978  -26.7976   22.1592 C   0  0  0  0  0  0
  -19.1575  -28.8939   23.2794 C   0  0  0  0  0  0
  -18.9472  -30.1531   23.8850 C   0  0  0  0  0  0
  -17.6474  -30.6624   24.0571 C   0  0  0  0  0  0
  -25.9081  -34.9394   23.5054 C   0  0  0  0  0  0
  -16.5365  -29.9119   23.6332 C   0  0  0  0  0  0
  -16.7300  -28.6535   23.0335 C   0  0  0  0  0  0
  -26.4552  -31.6551   25.0749 C   0  0  0  0  0  0
  -25.3740  -31.3730   26.1442 C   0  0  0  0  0  0
  -27.0381  -30.2934   24.6366 C   0  0  0  0  0  0
  -27.6072  -32.4320   25.7534 C   0  0  0  0  0  0
  -27.5573  -37.1781   24.8476 C   0  0  0  0  0  0
  -21.4330  -29.3078   22.3590 N   0  0  0  0  0  0
  -26.4267  -37.3752   23.9423 N   0  0  0  0  0  0
  -24.7364  -31.0164   22.0904 N   0  0  0  0  0  0
  -23.4267  -28.8124   23.3052 O   0  0  0  0  0  0
  -28.2627  -26.0409   20.2097 O   0  0  0  0  0  0
  -26.5654  -34.8901   22.4617 O   0  0  0  0  0  0
  -23.5661  -32.1296   23.7020 O   0  0  0  0  0  0
  -28.6170  -21.4821   21.4812 C   0  0  0  0  0  0
  -29.0934  -20.8229   20.2914 C   0  0  0  0  0  0
  -29.1703  -22.0147   19.5015 C   0  0  0  0  0  0
  -29.4659  -21.0489   17.0539 C   0  0  0  0  0  0
  -28.8052  -22.4031   16.9247 C   0  0  0  0  0  0
  -29.7030  -22.1155   18.0992 C   0  0  0  0  0  0
  -30.9298  -18.1534   21.8288 C   0  0  0  0  0  0
  -29.3347  -19.1838   19.9254 C   0  0  0  0  0  0
  -28.1784  -24.6514   19.5194 C   0  0  0  0  0  0
  -29.7420  -17.8372   20.9045 C   0  0  1  0  0  0
  -28.3385  -22.8132   21.3798 N   0  0  0  0  0  0
  -28.6574  -23.2373   20.1275 N   0  0  0  0  0  0
  -29.6805  -16.2680   20.5022 N   0  0  0  0  0  0
  -31.4847  -12.8938   19.1870 H   0  0  0  0  0  0
  -30.5213  -11.7600   20.0819 H   0  0  0  0  0  0
  -29.8987  -11.7499   17.6311 H   0  0  0  0  0  0
  -29.6243  -13.4743   17.6855 H   0  0  0  0  0  0
  -27.9723  -11.2892   18.9785 H   0  0  0  0  0  0
  -27.4241  -12.4764   17.8169 H   0  0  0  0  0  0
  -27.5793  -14.2592   19.4020 H   0  0  0  0  0  0
  -28.8016  -12.3836   21.4770 H   0  0  0  0  0  0
  -28.3589  -14.0549   21.7360 H   0  0  0  0  0  0
  -25.2766   -9.5698   22.4821 H   0  0  0  0  0  0
  -23.9997   -7.4663   22.7523 H   0  0  0  0  0  0
  -21.0845   -8.8845   19.8999 H   0  0  0  0  0  0
  -22.3739  -10.9724   19.6229 H   0  0  0  0  0  0
  -21.2020   -7.6139   23.9699 H   0  0  0  0  0  0
  -21.1477   -6.0521   25.9079 H   0  0  0  0  0  0
  -22.0597   -2.7596   23.2866 H   0  0  0  0  0  0
  -22.3909  -11.9911   22.4837 H   0  0  0  0  0  0
  -21.1076  -13.1429   22.2630 H   0  0  0  0  0  0
  -24.6358  -15.8449   20.4859 H   0  0  0  0  0  0
  -26.2348  -15.6248   20.0005 H   0  0  0  0  0  0
  -26.7415  -32.5213   23.1014 H   0  0  0  0  0  0
  -25.0197  -33.9585   25.0367 H   0  0  0  0  0  0
  -22.7672  -31.2873   21.3796 H   0  0  0  0  0  0
  -23.3749  -35.9560   23.3270 H   0  0  0  0  0  0
  -24.3548  -36.8920   22.2062 H   0  0  0  0  0  0
  -23.7215  -37.6421   23.6684 H   0  0  0  0  0  0
  -26.1890  -31.4320   20.6097 H   0  0  0  0  0  0
  -26.8963  -30.7395   22.0311 H   0  0  0  0  0  0
  -28.1421  -28.7147   21.2233 H   0  0  0  0  0  0
  -25.8386  -25.8689   18.9055 H   0  0  0  0  0  0
  -23.9761  -27.3225   18.9468 H   0  0  0  0  0  0
  -23.8415  -30.5707   19.4047 H   0  0  0  0  0  0
  -22.7980  -29.2519   19.8229 H   0  0  0  0  0  0
  -25.1280  -36.1830   25.0809 H   0  0  0  0  0  0
  -20.9972  -28.3371   24.1359 H   0  0  0  0  0  0
  -20.5760  -26.2400   23.3620 H   0  0  0  0  0  0
  -21.6677  -26.7535   22.1188 H   0  0  0  0  0  0
  -19.6984  -25.6303   21.1302 H   0  0  0  0  0  0
  -19.6753  -27.3161   20.6707 H   0  0  0  0  0  0
  -17.4247  -26.6694   21.3991 H   0  0  0  0  0  0
  -18.0372  -26.0145   22.9024 H   0  0  0  0  0  0
  -19.7945  -30.7344   24.2212 H   0  0  0  0  0  0
  -17.5017  -31.6286   24.5205 H   0  0  0  0  0  0
  -15.5358  -30.3010   23.7702 H   0  0  0  0  0  0
  -15.8675  -28.0848   22.7089 H   0  0  0  0  0  0
  -24.5986  -30.6980   25.7797 H   0  0  0  0  0  0
  -24.8840  -32.2890   26.4769 H   0  0  0  0  0  0
  -25.8065  -30.9028   27.0290 H   0  0  0  0  0  0
  -26.2980  -29.6688   24.1364 H   0  0  0  0  0  0
  -27.3943  -29.7201   25.4929 H   0  0  0  0  0  0
  -27.8923  -30.4122   23.9697 H   0  0  0  0  0  0
  -27.2685  -33.3691   26.1949 H   0  0  0  0  0  0
  -28.3958  -32.6776   25.0415 H   0  0  0  0  0  0
  -28.0645  -31.8561   26.5589 H   0  0  0  0  0  0
  -28.2568  -38.0093   24.7506 H   0  0  0  0  0  0
  -28.1079  -36.2625   24.6281 H   0  0  0  0  0  0
  -27.2300  -37.1419   25.8878 H   0  0  0  0  0  0
  -20.9628  -29.8739   21.6659 H   0  0  0  0  0  0
  -26.0128  -38.2804   24.1429 H   0  0  0  0  0  0
  -28.3990  -21.0224   22.4358 H   0  0  0  0  0  0
  -30.2792  -20.8250   16.3656 H   0  0  0  0  0  0
  -28.8359  -20.2039   17.3181 H   0  0  0  0  0  0
  -27.7322  -22.4534   17.1034 H   0  0  0  0  0  0
  -29.1941  -23.0946   16.1805 H   0  0  0  0  0  0
  -30.6810  -22.5937   18.0929 H   0  0  0  0  0  0
  -30.8656  -19.1839   22.1800 H   0  0  0  0  0  0
  -31.8922  -18.0404   21.3297 H   0  0  0  0  0  0
  -30.9405  -17.5211   22.7210 H   0  0  0  0  0  0
  -30.0625  -19.1450   19.1201 H   0  0  0  0  0  0
  -28.4136  -18.8689   19.4348 H   0  0  0  0  0  0
  -27.1631  -24.4332   19.2080 H   0  0  0  0  0  0
  -28.7288  -24.7716   18.5824 H   0  0  0  0  0  0
  -28.8940  -17.8629   21.5902 H   0  0  0  0  0  0
  -28.7142  -15.9983   20.3879 H   0  0  0  0  0  0
  1 25  1  0  0  0
  1 30  2  0  0  0
  1 83  1  0  0  0
  2  3  1  0  0  0
  2 25  1  0  0  0
  2 84  1  0  0  0
  2 85  1  0  0  0
  3  4  1  0  0  0
  3 86  1  0  0  0
  3 87  1  0  0  0
  4  5  1  0  0  0
  4 88  1  0  0  0
  4 89  1  0  0  0
  5  6  1  0  0  0
  5 26  1  0  0  0
  5 90  1  0  0  0
  6 25  1  0  0  0
  6 91  1  0  0  0
  6 92  1  0  0  0
  7  8  2  0  0  0
  7 26  1  0  0  0
  7 29  1  0  0  0
  8  9  1  0  0  0
  8 22  1  0  0  0
  9 10  1  0  0  0
  9 27  2  0  0  0
 10 11  2  0  0  0
 10 15  1  0  0  0
 11 12  1  0  0  0
 11 93  1  0  0  0
 12 13  2  0  0  0
 12 94  1  0  0  0
 13 14  1  0  0  0
 13 31  1  0  0  0
 14 15  2  0  0  0
 14 95  1  0  0  0
 15 96  1  0  0  0
 16 17  2  0  0  0
 16 21  1  0  0  0
 16 31  1  0  0  0
 17 18  1  0  0  0
 17 97  1  0  0  0
 18 19  2  0  0  0
 18 98  1  0  0  0
 19 20  1  0  0  0
 19 24  1  0  0  0
 20 21  2  0  0  0
 20 99  1  0  0  0
 21 23  1  0  0  0
 22 28  1  0  0  0
 22 32  2  0  0  0
 26 27  1  0  0  0
 28100  1  0  0  0
 28101  1  0  0  0
 29102  1  0  0  0
 29103  1  0  0  0
 33 34  1  0  0  0
 33 66  1  0  0  0
 33 70  2  0  0  0
 34 36  1  0  0  0
 34 59  1  0  0  0
 34104  1  0  0  0
 35 44  2  0  0  0
 35 45  1  0  0  0
 35 68  1  0  0  0
 36 56  1  0  0  0
 36105  1  0  0  0
 37 39  1  0  0  0
 37 47  1  0  0  0
 37 66  1  0  0  0
 37106  1  0  0  0
 38 43  2  0  0  0
 38 46  1  0  0  0
 38 47  1  0  0  0
 39 64  1  0  0  0
 39 67  2  0  0  0
 40 52  1  0  0  0
 40 53  2  0  0  0
 40 58  1  0  0  0
 41107  1  0  0  0
 41108  1  0  0  0
 41109  1  0  0  0
 41 48  1  0  0  0
 42 43  1  0  0  0
 42 66  1  0  0  0
 42110  1  0  0  0
 42111  1  0  0  0
 43 44  1  0  0  0
 44112  1  0  0  0
 45 46  2  0  0  0
 45113  1  0  0  0
 46114  1  0  0  0
 47115  1  0  0  0
 47116  1  0  0  0
 48 56  1  0  0  0
 48 65  1  0  0  0
 48117  1  0  0  0
 49 50  1  0  0  0
 49 53  1  0  0  0
 49 64  1  0  0  0
 49118  1  0  0  0
 50 51  1  0  0  0
 50119  1  0  0  0
 50120  1  0  0  0
 51 52  1  0  0  0
 51121  1  0  0  0
 51122  1  0  0  0
 52123  1  0  0  0
 52124  1  0  0  0
 53 54  1  0  0  0
 54 55  2  0  0  0
 54125  1  0  0  0
 55 57  1  0  0  0
 55126  1  0  0  0
 56 69  2  0  0  0
 57 58  2  0  0  0
 57127  1  0  0  0
 58128  1  0  0  0
 59 60  1  0  0  0
 59 61  1  0  0  0
 59 62  1  0  0  0
 60129  1  0  0  0
 60130  1  0  0  0
 60131  1  0  0  0
 61132  1  0  0  0
 61133  1  0  0  0
 61134  1  0  0  0
 62135  1  0  0  0
 62136  1  0  0  0
 62137  1  0  0  0
 63 65  1  0  0  0
 63138  1  0  0  0
 63139  1  0  0  0
 63140  1  0  0  0
 64141  1  0  0  0
 65142  1  0  0  0
 68 79  1  0  0  0
 71 72  1  0  0  0
 71 81  2  0  0  0
 71143  1  0  0  0
 72 73  2  0  0  0
 72 78  1  0  0  0
 73 82  1  0  0  0
 73 76  1  0  0  0
 74 75  1  0  0  0
 74 76  1  0  0  0
 74144  1  0  0  0
 74145  1  0  0  0
 75 76  1  0  0  0
 75146  1  0  0  0
 75147  1  0  0  0
 76148  1  0  0  0
 77149  1  0  0  0
 77150  1  0  0  0
 77151  1  0  0  0
 77 80  1  0  0  0
 78 80  1  0  0  0
 78152  1  0  0  0
 78153  1  0  0  0
 79 82  1  0  0  0
 79154  1  0  0  0
 79155  1  0  0  0
 80 83  1  0  0  0
 80156  1  0  0  0
 81 82  1  0  0  0
 83157  1  0  0  0
M  ISO  4   1 100  68 101  79 101  83 100
M  END
> <chiral flag>
0

> <version>
0

> <s_m_source_file>
/data/baiqing/PycharmProjects/Reinvent-master-3.2/result/LINK_invent/BTK/process_docking_weight1_custom_sum_contain_oxygen_bond_distance_aromatic_linkinvent_7_9_3/rearranged_h_0192.sdf

> <i_m_source_file_index>
57

> <r_mmod_Potential_Energy-OPLS-2005>
729.605163574219

> <r_mmod_Stretch_Energy-OPLS-2005>
337.643524169922

> <r_mmod_Bend_Energy-OPLS-2005>
342.061981201172

> <r_mmod_Torsional_Energy-OPLS-2005>
251.012084960938

> <r_mmod_Improper_Torsional_Energy-OPLS-2005>
6.9898624420166

> <r_mmod_Van_der_Waal_Energy-OPLS-2005>
103.841659545898

> <r_mmod_Electrostatic_Energy-OPLS-2005>
-353.536437988281

> <r_mmod_Solvation_Energy-OPLS-2005>
-240.557662963867

> <b_mmod_Minimization_Converged-OPLS-2005>
0

> <r_mmod_RMS_Derivative-OPLS-2005>
6.33843612670898

$$$$
57
                    3D
 Structure written by MMmdl.
157166  0  0  1  0            999 V2000
  -30.3126  -15.6378   20.3273 C   0  0  0  0  0  0
  -30.4298  -13.0793   19.5443 C   0  0  0  0  0  0
  -29.5525  -12.6526   18.3307 C   0  0  0  0  0  0
  -28.1278  -12.2886   18.7753 C   0  0  0  0  0  0
  -27.5958  -13.2976   19.8146 C   0  0  2  0  0  0
  -28.6157  -13.6382   20.9311 C   0  0  0  0  0  0
  -25.2222  -13.8159   20.5741 C   0  0  0  0  0  0
  -24.1665  -13.0319   20.9315 C   0  0  0  0  0  0
  -24.6405  -11.6858   20.8786 C   0  0  0  0  0  0
  -23.9113  -10.4217   21.0398 C   0  0  0  0  0  0
  -24.3652   -9.4150   21.9189 C   0  0  0  0  0  0
  -23.6319   -8.2194   22.0750 C   0  0  0  0  0  0
  -22.4295   -8.0252   21.3544 C   0  0  0  0  0  0
  -21.9941   -9.0214   20.4630 C   0  0  0  0  0  0
  -22.7279  -10.2089   20.3051 C   0  0  0  0  0  0
  -21.6849   -6.0730   22.5283 C   0  0  0  0  0  0
  -21.4003   -6.5638   23.8206 C   0  0  0  0  0  0
  -21.3665   -5.6797   24.9172 C   0  0  0  0  0  0
  -21.6054   -4.3054   24.7224 C   0  0  0  0  0  0
  -21.8820   -3.8151   23.4341 C   0  0  0  0  0  0
  -21.9186   -4.6962   22.3400 C   0  0  0  0  0  0
  -22.7683  -13.5063   21.1928 C   0  0  0  0  0  0
  -22.1662   -4.2151   21.0975 F   0  0  0  0  0  0
  -21.5643   -3.4545   25.7734 F   0  0  0  0  0  0
  -29.7932  -14.2644   20.2787 N   0  0  0  0  0  0
  -26.2749  -12.9545   20.3257 N   0  0  0  0  0  0
  -25.9358  -11.6615   20.5748 N   0  0  0  0  0  0
  -22.0367  -12.8061   22.0505 N   0  0  0  0  0  0
  -25.3521  -15.1867   20.4020 N   0  0  0  0  0  0
  -31.5501  -15.5743   20.1904 O   0  0  0  0  0  0
  -21.6646   -6.8868   21.4240 O   0  0  0  0  0  0
  -22.3375  -14.5373   20.6764 O   0  0  0  0  0  0
  -24.6830  -31.8020   23.1503 C   0  0  0  0  0  0
  -25.9420  -32.4482   23.8033 C   0  0  1  0  0  0
  -27.2320  -26.7126   20.2294 C   0  0  0  0  0  0
  -25.6020  -33.8306   24.1932 N   0  0  0  0  0  0
  -23.5069  -30.4042   21.5019 C   0  0  2  0  0  0
  -24.9641  -28.7398   20.1225 C   0  0  0  0  0  0
  -22.7753  -29.4347   22.4694 C   0  0  0  0  0  0
  -18.0340  -28.1459   22.8462 C   0  0  0  0  0  0
  -24.1478  -36.7146   23.2650 C   0  0  0  0  0  0
  -26.0857  -30.5426   21.4082 C   0  0  0  0  0  0
  -26.1524  -29.1052   20.7649 C   0  0  0  0  0  0
  -27.2727  -28.1226   20.7793 C   0  0  0  0  0  0
  -26.0069  -26.5507   19.5339 C   0  0  0  0  0  0
  -24.9300  -27.4886   19.4810 C   0  0  0  0  0  0
  -23.7631  -29.6993   20.1377 C   0  0  0  0  0  0
  -25.4131  -36.2898   24.0272 C   0  0  1  0  0  0
  -20.5971  -28.3818   23.1162 C   0  0  2  0  0  0
  -20.6796  -26.9481   22.5420 C   0  0  0  0  0  0
  -19.5770  -26.6404   21.5233 C   0  0  0  0  0  0
  -18.1954  -26.7992   22.1634 C   0  0  0  0  0  0
  -19.1601  -28.8962   23.2787 C   0  0  0  0  0  0
  -18.9520  -30.1537   23.8844 C   0  0  0  0  0  0
  -17.6518  -30.6637   24.0573 C   0  0  0  0  0  0
  -25.9119  -34.9301   23.4940 C   0  0  0  0  0  0
  -16.5403  -29.9145   23.6369 C   0  0  0  0  0  0
  -16.7317  -28.6568   23.0368 C   0  0  0  0  0  0
  -26.4588  -31.6508   25.0644 C   0  0  0  0  0  0
  -25.3658  -31.3850   26.1257 C   0  0  0  0  0  0
  -27.0500  -30.2835   24.6528 C   0  0  0  0  0  0
  -27.6022  -32.4370   25.7485 C   0  0  0  0  0  0
  -27.5538  -37.1741   24.8468 C   0  0  0  0  0  0
  -21.4397  -29.3067   22.3468 N   0  0  0  0  0  0
  -26.4253  -37.3667   23.9421 N   0  0  0  0  0  0
  -24.7809  -30.9489   22.0741 N   0  0  0  0  0  0
  -23.4198  -28.7943   23.3029 O   0  0  0  0  0  0
  -28.2436  -25.5351   20.2626 O   0  0  0  0  0  0
  -26.5752  -34.8886   22.4541 O   0  0  0  0  0  0
  -23.5850  -32.1083   23.6478 O   0  0  0  0  0  0
  -26.3101  -18.5875   17.4617 C   0  0  0  0  0  0
  -26.8456  -19.9813   17.6955 C   0  0  0  0  0  0
  -28.2857  -16.8350   19.5910 C   0  0  0  0  0  0
  -27.7335  -18.7808   17.9376 C   0  0  0  0  0  0
  -28.1200  -18.3335   19.3335 C   0  0  2  0  0  0
  -29.4411  -18.7597   19.9819 C   0  0  2  0  0  0
  -30.4959  -22.2886   19.6983 C   0  0  0  0  0  0
  -28.2320  -23.7665   20.3921 C   0  0  0  0  0  0
  -28.9971  -22.0131   19.9636 C   0  0  2  0  0  0
  -29.5268  -16.9981   20.3309 N   0  0  0  0  0  0
  -28.9874  -20.3623   20.6032 N   0  3  0  0  0  0
  -31.4231  -13.3429   19.1804 H   0  0  0  0  0  0
  -30.5928  -12.2404   20.2231 H   0  0  0  0  0  0
  -30.0074  -11.8136   17.8037 H   0  0  0  0  0  0
  -29.5055  -13.4777   17.6190 H   0  0  0  0  0  0
  -28.1558  -11.2917   19.2192 H   0  0  0  0  0  0
  -27.4581  -12.2263   17.9168 H   0  0  0  0  0  0
  -27.4485  -14.2057   19.2332 H   0  0  0  0  0  0
  -28.8784  -12.7565   21.5172 H   0  0  0  0  0  0
  -28.1800  -14.3534   21.6299 H   0  0  0  0  0  0
  -25.2786   -9.5637   22.4778 H   0  0  0  0  0  0
  -24.0017   -7.4591   22.7490 H   0  0  0  0  0  0
  -21.0871   -8.8727   19.8949 H   0  0  0  0  0  0
  -22.3725  -10.9627   19.6175 H   0  0  0  0  0  0
  -21.1984   -7.6146   23.9710 H   0  0  0  0  0  0
  -21.1497   -6.0524   25.9076 H   0  0  0  0  0  0
  -22.0594   -2.7612   23.2831 H   0  0  0  0  0  0
  -22.4037  -11.9738   22.4879 H   0  0  0  0  0  0
  -21.0975  -13.1053   22.2720 H   0  0  0  0  0  0
  -24.5370  -15.7878   20.4423 H   0  0  0  0  0  0
  -26.1284  -15.6061   19.9114 H   0  0  0  0  0  0
  -26.7490  -32.4958   23.0746 H   0  0  0  0  0  0
  -25.0142  -33.9313   25.0060 H   0  0  0  0  0  0
  -22.8326  -31.2410   21.3119 H   0  0  0  0  0  0
  -23.3752  -35.9466   23.3289 H   0  0  0  0  0  0
  -24.3540  -36.8828   22.2070 H   0  0  0  0  0  0
  -23.7220  -37.6317   23.6740 H   0  0  0  0  0  0
  -26.2813  -31.2656   20.6167 H   0  0  0  0  0  0
  -26.9390  -30.6168   22.0703 H   0  0  0  0  0  0
  -28.1739  -28.4159   21.2990 H   0  0  0  0  0  0
  -25.8503  -25.6050   19.0318 H   0  0  0  0  0  0
  -24.0331  -27.2035   18.9483 H   0  0  0  0  0  0
  -23.9461  -30.4592   19.3765 H   0  0  0  0  0  0
  -22.8660  -29.1715   19.8088 H   0  0  0  0  0  0
  -25.1347  -36.1646   25.0760 H   0  0  0  0  0  0
  -21.0052  -28.3454   24.1281 H   0  0  0  0  0  0
  -20.5686  -26.2448   23.3688 H   0  0  0  0  0  0
  -21.6668  -26.7437   22.1226 H   0  0  0  0  0  0
  -19.6929  -25.6299   21.1315 H   0  0  0  0  0  0
  -19.6713  -27.3179   20.6737 H   0  0  0  0  0  0
  -17.4221  -26.6735   21.4033 H   0  0  0  0  0  0
  -18.0320  -26.0157   22.9053 H   0  0  0  0  0  0
  -19.7987  -30.7354   24.2184 H   0  0  0  0  0  0
  -17.5078  -31.6312   24.5207 H   0  0  0  0  0  0
  -15.5397  -30.3046   23.7729 H   0  0  0  0  0  0
  -15.8696  -28.0879   22.7117 H   0  0  0  0  0  0
  -24.5857  -30.7182   25.7573 H   0  0  0  0  0  0
  -24.8834  -32.3094   26.4457 H   0  0  0  0  0  0
  -25.7834  -30.9173   27.0178 H   0  0  0  0  0  0
  -26.3202  -29.6464   24.1524 H   0  0  0  0  0  0
  -27.3927  -29.7277   25.5265 H   0  0  0  0  0  0
  -27.9193  -30.3946   24.0040 H   0  0  0  0  0  0
  -27.2539  -33.3737   26.1854 H   0  0  0  0  0  0
  -28.3965  -32.6821   25.0422 H   0  0  0  0  0  0
  -28.0541  -31.8638   26.5588 H   0  0  0  0  0  0
  -28.2562  -38.0030   24.7502 H   0  0  0  0  0  0
  -28.1027  -36.2564   24.6323 H   0  0  0  0  0  0
  -27.2268  -37.1429   25.8874 H   0  0  0  0  0  0
  -20.9696  -29.8738   21.6560 H   0  0  0  0  0  0
  -26.0061  -38.2709   24.1444 H   0  0  0  0  0  0
  -26.1593  -18.2711   16.4326 H   0  0  0  0  0  0
  -25.5812  -18.2009   18.1744 H   0  0  0  0  0  0
  -26.4504  -20.5215   18.5538 H   0  0  0  0  0  0
  -27.0527  -20.5927   16.8179 H   0  0  0  0  0  0
  -28.3908  -16.2755   18.6580 H   0  0  0  0  0  0
  -27.4936  -16.4256   20.2056 H   0  0  0  0  0  0
  -28.5113  -18.6041   17.1954 H   0  0  0  0  0  0
  -27.3215  -18.6265   20.0194 H   0  0  0  0  0  0
  -30.1935  -18.9784   19.2245 H   0  0  0  0  0  0
  -30.6627  -23.1760   19.0858 H   0  0  0  0  0  0
  -30.9645  -21.4570   19.1690 H   0  0  0  0  0  0
  -31.0369  -22.4357   20.6341 H   0  0  0  0  0  0
  -28.7280  -24.0236   19.4583 H   0  0  0  0  0  0
  -28.7901  -23.8516   21.3243 H   0  0  0  0  0  0
  -28.5587  -21.8328   18.9824 H   0  0  0  0  0  0
  -29.5019  -20.4391   21.4678 H   0  0  0  0  0  0
  -28.0330  -20.2405   20.9030 H   0  0  0  0  0  0
  1 25  1  0  0  0
  1 30  2  0  0  0
  1 80  1  0  0  0
  2  3  1  0  0  0
  2 25  1  0  0  0
  2 82  1  0  0  0
  2 83  1  0  0  0
  3  4  1  0  0  0
  3 84  1  0  0  0
  3 85  1  0  0  0
  4  5  1  0  0  0
  4 86  1  0  0  0
  4 87  1  0  0  0
  5  6  1  0  0  0
  5 26  1  0  0  0
  5 88  1  0  0  0
  6 25  1  0  0  0
  6 89  1  0  0  0
  6 90  1  0  0  0
  7  8  2  0  0  0
  7 26  1  0  0  0
  7 29  1  0  0  0
  8  9  1  0  0  0
  8 22  1  0  0  0
  9 10  1  0  0  0
  9 27  2  0  0  0
 10 11  2  0  0  0
 10 15  1  0  0  0
 11 12  1  0  0  0
 11 91  1  0  0  0
 12 13  2  0  0  0
 12 92  1  0  0  0
 13 14  1  0  0  0
 13 31  1  0  0  0
 14 15  2  0  0  0
 14 93  1  0  0  0
 15 94  1  0  0  0
 16 17  2  0  0  0
 16 21  1  0  0  0
 16 31  1  0  0  0
 17 18  1  0  0  0
 17 95  1  0  0  0
 18 19  2  0  0  0
 18 96  1  0  0  0
 19 20  1  0  0  0
 19 24  1  0  0  0
 20 21  2  0  0  0
 20 97  1  0  0  0
 21 23  1  0  0  0
 22 28  1  0  0  0
 22 32  2  0  0  0
 26 27  1  0  0  0
 28 98  1  0  0  0
 28 99  1  0  0  0
 29100  1  0  0  0
 29101  1  0  0  0
 33 34  1  0  0  0
 33 66  1  0  0  0
 33 70  2  0  0  0
 34 36  1  0  0  0
 34 59  1  0  0  0
 34102  1  0  0  0
 35 44  2  0  0  0
 35 45  1  0  0  0
 35 68  1  0  0  0
 36 56  1  0  0  0
 36103  1  0  0  0
 37 39  1  0  0  0
 37 47  1  0  0  0
 37 66  1  0  0  0
 37104  1  0  0  0
 38 43  2  0  0  0
 38 46  1  0  0  0
 38 47  1  0  0  0
 39 64  1  0  0  0
 39 67  2  0  0  0
 40 52  1  0  0  0
 40 53  2  0  0  0
 40 58  1  0  0  0
 41105  1  0  0  0
 41106  1  0  0  0
 41107  1  0  0  0
 41 48  1  0  0  0
 42 43  1  0  0  0
 42 66  1  0  0  0
 42108  1  0  0  0
 42109  1  0  0  0
 43 44  1  0  0  0
 44110  1  0  0  0
 45 46  2  0  0  0
 45111  1  0  0  0
 46112  1  0  0  0
 47113  1  0  0  0
 47114  1  0  0  0
 48 56  1  0  0  0
 48 65  1  0  0  0
 48115  1  0  0  0
 49 50  1  0  0  0
 49 53  1  0  0  0
 49 64  1  0  0  0
 49116  1  0  0  0
 50 51  1  0  0  0
 50117  1  0  0  0
 50118  1  0  0  0
 51 52  1  0  0  0
 51119  1  0  0  0
 51120  1  0  0  0
 52121  1  0  0  0
 52122  1  0  0  0
 53 54  1  0  0  0
 54 55  2  0  0  0
 54123  1  0  0  0
 55 57  1  0  0  0
 55124  1  0  0  0
 56 69  2  0  0  0
 57 58  2  0  0  0
 57125  1  0  0  0
 58126  1  0  0  0
 59 60  1  0  0  0
 59 61  1  0  0  0
 59 62  1  0  0  0
 60127  1  0  0  0
 60128  1  0  0  0
 60129  1  0  0  0
 61130  1  0  0  0
 61131  1  0  0  0
 61132  1  0  0  0
 62133  1  0  0  0
 62134  1  0  0  0
 62135  1  0  0  0
 63 65  1  0  0  0
 63136  1  0  0  0
 63137  1  0  0  0
 63138  1  0  0  0
 64139  1  0  0  0
 65140  1  0  0  0
 68 78  1  0  0  0
 71 72  1  0  0  0
 71141  1  0  0  0
 71142  1  0  0  0
 71 74  1  0  0  0
 72 74  1  0  0  0
 72143  1  0  0  0
 72144  1  0  0  0
 73 80  1  0  0  0
 73145  1  0  0  0
 73146  1  0  0  0
 73 75  1  0  0  0
 74 75  1  0  0  0
 74147  1  0  0  0
 75 76  1  0  0  0
 75148  1  0  0  0
 76 80  1  0  0  0
 76 81  1  0  0  0
 76149  1  0  0  0
 77150  1  0  0  0
 77151  1  0  0  0
 77152  1  0  0  0
 77 79  1  0  0  0
 78 79  1  0  0  0
 78153  1  0  0  0
 78154  1  0  0  0
 79 81  1  0  0  0
 79155  1  0  0  0
 81156  1  0  0  0
 81157  1  0  0  0
M  CHG  1  81   1
M  ISO  4   1 100  68 101  78 101  80 100
M  END
> <chiral flag>
0

> <version>
0

> <s_m_source_file>
/data/baiqing/PycharmProjects/Reinvent-master-3.2/result/LINK_invent/BTK/process_docking_weight1_custom_sum_contain_oxygen_bond_distance_aromatic_linkinvent_7_9_3/rearranged_h_0192.sdf

> <i_m_source_file_index>
58

> <r_mmod_Potential_Energy-OPLS-2005>
2676.45385742188

> <r_mmod_Stretch_Energy-OPLS-2005>
1155.68811035156

> <r_mmod_Bend_Energy-OPLS-2005>
865.128967285156

> <r_mmod_Torsional_Energy-OPLS-2005>
334.908172607422

> <r_mmod_Improper_Torsional_Energy-OPLS-2005>
11.0654430389404

> <r_mmod_Van_der_Waal_Energy-OPLS-2005>
106.747077941895

> <r_mmod_Electrostatic_Energy-OPLS-2005>
-200.807006835938

> <r_mmod_Solvation_Energy-OPLS-2005>
-476.564178466797

> <b_mmod_Minimization_Converged-OPLS-2005>
0

> <r_mmod_RMS_Derivative-OPLS-2005>
3.2074089050293

$$$$
58
                    3D
 Structure written by MMmdl.
162171  0  0  1  0            999 V2000
  -30.6638  -14.6082   20.4973 C   0  0  0  0  0  0
  -30.4246  -12.3734   19.4519 C   0  0  0  0  0  0
  -29.5024  -12.5003   18.2205 C   0  0  0  0  0  0
  -28.0238  -12.3494   18.6308 C   0  0  0  0  0  0
  -27.6500  -13.2188   19.8621 C   0  0  2  0  0  0
  -28.6949  -13.0741   20.9897 C   0  0  0  0  0  0
  -25.2543  -13.8177   20.5686 C   0  0  0  0  0  0
  -24.1812  -13.0440   20.9189 C   0  0  0  0  0  0
  -24.6383  -11.6913   20.8739 C   0  0  0  0  0  0
  -23.9052  -10.4297   21.0406 C   0  0  0  0  0  0
  -24.3606   -9.4213   21.9184 C   0  0  0  0  0  0
  -23.6285   -8.2246   22.0753 C   0  0  0  0  0  0
  -22.4269   -8.0280   21.3542 C   0  0  0  0  0  0
  -21.9901   -9.0254   20.4647 C   0  0  0  0  0  0
  -22.7224  -10.2136   20.3056 C   0  0  0  0  0  0
  -21.6853   -6.0730   22.5274 C   0  0  0  0  0  0
  -21.4018   -6.5635   23.8207 C   0  0  0  0  0  0
  -21.3661   -5.6786   24.9170 C   0  0  0  0  0  0
  -21.6045   -4.3049   24.7223 C   0  0  0  0  0  0
  -21.8821   -3.8141   23.4345 C   0  0  0  0  0  0
  -21.9194   -4.6957   22.3399 C   0  0  0  0  0  0
  -22.7834  -13.5234   21.1847 C   0  0  0  0  0  0
  -22.1663   -4.2143   21.0977 F   0  0  0  0  0  0
  -21.5628   -3.4534   25.7735 F   0  0  0  0  0  0
  -30.0060  -13.4085   20.4182 N   0  0  0  0  0  0
  -26.2971  -12.9364   20.3325 N   0  0  0  0  0  0
  -25.9313  -11.6515   20.5757 N   0  0  0  0  0  0
  -22.0475  -12.8236   22.0410 N   0  0  0  0  0  0
  -25.4248  -15.1895   20.4089 N   0  0  0  0  0  0
  -31.8452  -14.6952   20.1459 O   0  0  0  0  0  0
  -21.6638   -6.8873   21.4237 O   0  0  0  0  0  0
  -22.3522  -14.5539   20.6689 O   0  0  0  0  0  0
  -24.6226  -31.8615   23.2040 C   0  0  0  0  0  0
  -25.9087  -32.4783   23.8354 C   0  0  1  0  0  0
  -27.2288  -27.3476   20.0990 C   0  0  0  0  0  0
  -25.5911  -33.8583   24.2284 N   0  0  0  0  0  0
  -23.4138  -30.4856   21.5465 C   0  0  2  0  0  0
  -24.8585  -28.9430   20.1113 C   0  0  0  0  0  0
  -22.7449  -29.4630   22.4952 C   0  0  0  0  0  0
  -18.0279  -28.1377   22.8486 C   0  0  0  0  0  0
  -24.1489  -36.7299   23.2639 C   0  0  0  0  0  0
  -25.9518  -30.8001   21.3698 C   0  0  0  0  0  0
  -26.0247  -29.4292   20.7128 C   0  0  0  0  0  0
  -27.2078  -28.6396   20.7030 C   0  0  0  0  0  0
  -26.0281  -26.8937   19.5027 C   0  0  0  0  0  0
  -24.8600  -27.6785   19.5033 C   0  0  0  0  0  0
  -23.6252  -29.8195   20.1612 C   0  0  0  0  0  0
  -25.4111  -36.3085   24.0330 C   0  0  1  0  0  0
  -20.5875  -28.3674   23.1295 C   0  0  2  0  0  0
  -20.6767  -26.9399   22.5413 C   0  0  0  0  0  0
  -19.5746  -26.6380   21.5208 C   0  0  0  0  0  0
  -18.1925  -26.7920   22.1621 C   0  0  0  0  0  0
  -19.1530  -28.8841   23.2888 C   0  0  0  0  0  0
  -18.9456  -30.1447   23.8903 C   0  0  0  0  0  0
  -17.6457  -30.6583   24.0562 C   0  0  0  0  0  0
  -25.9044  -34.9453   23.5108 C   0  0  0  0  0  0
  -16.5347  -29.9080   23.6327 C   0  0  0  0  0  0
  -16.7267  -28.6498   23.0351 C   0  0  0  0  0  0
  -26.4483  -31.6586   25.0717 C   0  0  0  0  0  0
  -25.3731  -31.3717   26.1456 C   0  0  0  0  0  0
  -27.0320  -30.3013   24.6149 C   0  0  0  0  0  0
  -27.6048  -32.4316   25.7485 C   0  0  0  0  0  0
  -27.5580  -37.1799   24.8461 C   0  0  0  0  0  0
  -21.4168  -29.3034   22.3695 N   0  0  0  0  0  0
  -26.4288  -37.3778   23.9410 N   0  0  0  0  0  0
  -24.6816  -31.0651   22.0973 N   0  0  0  0  0  0
  -23.4188  -28.8169   23.3017 O   0  0  0  0  0  0
  -28.3837  -26.5608   20.1524 O   0  0  0  0  0  0
  -26.5615  -34.8917   22.4676 O   0  0  0  0  0  0
  -23.5401  -32.1400   23.7392 O   0  0  0  0  0  0
  -30.1148  -22.6112   21.3314 C   0  0  0  0  0  0
  -29.4890  -21.4416   20.7991 C   0  0  0  0  0  0
  -28.7810  -23.9578   20.0214 C   0  0  0  0  0  0
  -29.4485  -17.7881   21.9600 C   0  0  0  0  0  0
  -30.3128  -18.1654   19.6869 C   0  0  0  0  0  0
  -29.1171  -16.2986   21.6079 C   0  0  0  0  0  0
  -29.9291  -16.6948   19.3295 C   0  0  0  0  0  0
  -29.4159  -18.7966   20.7761 C   0  0  0  0  0  0
  -30.7435  -22.7883   23.7898 C   0  0  0  0  0  0
  -31.2397  -22.5536   22.3567 C   0  0  0  0  0  0
  -28.5421  -25.3481   19.3356 C   0  0  0  0  0  0
  -29.7514  -23.8642   20.9414 N   0  0  0  0  0  0
  -28.4898  -21.6232   19.8932 N   0  0  0  0  0  0
  -28.1451  -22.8763   19.5018 N   0  0  0  0  0  0
  -29.8879  -15.7479   20.4729 N   0  0  0  0  0  0
  -29.8921  -20.1367   21.2082 N   0  0  0  0  0  0
  -31.4689  -12.4751   19.1511 H   0  0  0  0  0  0
  -30.3397  -11.3809   19.8969 H   0  0  0  0  0  0
  -29.7623  -11.7480   17.4746 H   0  0  0  0  0  0
  -29.6551  -13.4697   17.7432 H   0  0  0  0  0  0
  -27.8529  -11.2960   18.8571 H   0  0  0  0  0  0
  -27.3721  -12.5879   17.7897 H   0  0  0  0  0  0
  -27.6682  -14.2548   19.5240 H   0  0  0  0  0  0
  -28.7028  -12.0545   21.3768 H   0  0  0  0  0  0
  -28.4441  -13.7086   21.8375 H   0  0  0  0  0  0
  -25.2754   -9.5693   22.4753 H   0  0  0  0  0  0
  -23.9996   -7.4640   22.7475 H   0  0  0  0  0  0
  -21.0831   -8.8771   19.8954 H   0  0  0  0  0  0
  -22.3682  -10.9671   19.6160 H   0  0  0  0  0  0
  -21.2014   -7.6142   23.9707 H   0  0  0  0  0  0
  -21.1480   -6.0519   25.9071 H   0  0  0  0  0  0
  -22.0600   -2.7603   23.2844 H   0  0  0  0  0  0
  -22.4082  -11.9903   22.4812 H   0  0  0  0  0  0
  -21.1092  -13.1267   22.2606 H   0  0  0  0  0  0
  -24.6588  -15.8451   20.5170 H   0  0  0  0  0  0
  -26.2792  -15.6270   20.0890 H   0  0  0  0  0  0
  -26.7153  -32.5458   23.1103 H   0  0  0  0  0  0
  -25.0053  -33.9728   25.0425 H   0  0  0  0  0  0
  -22.7059  -31.3048   21.4051 H   0  0  0  0  0  0
  -23.3745  -35.9638   23.3302 H   0  0  0  0  0  0
  -24.3586  -36.8918   22.2054 H   0  0  0  0  0  0
  -23.7247  -37.6503   23.6661 H   0  0  0  0  0  0
  -26.0787  -31.5646   20.6019 H   0  0  0  0  0  0
  -26.8343  -30.8493   21.9961 H   0  0  0  0  0  0
  -28.1047  -29.0115   21.1783 H   0  0  0  0  0  0
  -25.9391  -25.9158   19.0575 H   0  0  0  0  0  0
  -23.9590  -27.2926   19.0467 H   0  0  0  0  0  0
  -23.7397  -30.5947   19.4027 H   0  0  0  0  0  0
  -22.7462  -29.2452   19.8630 H   0  0  0  0  0  0
  -25.1290  -36.1937   25.0821 H   0  0  0  0  0  0
  -20.9967  -28.3244   24.1416 H   0  0  0  0  0  0
  -20.5660  -26.2281   23.3607 H   0  0  0  0  0  0
  -21.6639  -26.7429   22.1213 H   0  0  0  0  0  0
  -19.6907  -25.6291   21.1234 H   0  0  0  0  0  0
  -19.6685  -27.3195   20.6741 H   0  0  0  0  0  0
  -17.4193  -26.6666   21.4023 H   0  0  0  0  0  0
  -18.0328  -26.0061   22.9018 H   0  0  0  0  0  0
  -19.7934  -30.7257   24.2274 H   0  0  0  0  0  0
  -17.5014  -31.6265   24.5159 H   0  0  0  0  0  0
  -15.5347  -30.2982   23.7652 H   0  0  0  0  0  0
  -15.8668  -28.0816   22.7065 H   0  0  0  0  0  0
  -24.5902  -30.7065   25.7796 H   0  0  0  0  0  0
  -24.8925  -32.2882   26.4891 H   0  0  0  0  0  0
  -25.8070  -30.8894   27.0224 H   0  0  0  0  0  0
  -26.2882  -29.6767   24.1186 H   0  0  0  0  0  0
  -27.4041  -29.7262   25.4637 H   0  0  0  0  0  0
  -27.8742  -30.4305   23.9348 H   0  0  0  0  0  0
  -27.2656  -33.3610   26.2074 H   0  0  0  0  0  0
  -28.3850  -32.6885   25.0308 H   0  0  0  0  0  0
  -28.0724  -31.8434   26.5391 H   0  0  0  0  0  0
  -28.2590  -38.0103   24.7516 H   0  0  0  0  0  0
  -28.1080  -36.2634   24.6273 H   0  0  0  0  0  0
  -27.2303  -37.1437   25.8865 H   0  0  0  0  0  0
  -20.9334  -29.8759   21.6917 H   0  0  0  0  0  0
  -26.0169  -38.2851   24.1415 H   0  0  0  0  0  0
  -30.4404  -17.8068   22.4147 H   0  0  0  0  0  0
  -28.7624  -18.1250   22.7388 H   0  0  0  0  0  0
  -30.2712  -18.7757   18.7839 H   0  0  0  0  0  0
  -31.3540  -18.1824   20.0127 H   0  0  0  0  0  0
  -28.0570  -16.2118   21.3692 H   0  0  0  0  0  0
  -29.2814  -15.6916   22.4992 H   0  0  0  0  0  0
  -30.6062  -16.3312   18.5538 H   0  0  0  0  0  0
  -28.9401  -16.6889   18.8696 H   0  0  0  0  0  0
  -28.3933  -18.8797   20.4024 H   0  0  0  0  0  0
  -31.5728  -22.7627   24.4969 H   0  0  0  0  0  0
  -30.0268  -22.0227   24.0880 H   0  0  0  0  0  0
  -30.2563  -23.7592   23.8830 H   0  0  0  0  0  0
  -31.9818  -23.3113   22.1023 H   0  0  0  0  0  0
  -31.7679  -21.6029   22.2937 H   0  0  0  0  0  0
  -27.7975  -25.2426   18.5509 H   0  0  0  0  0  0
  -29.4551  -25.5299   18.7681 H   0  0  0  0  0  0
  -30.6184  -20.1259   21.9152 H   0  0  0  0  0  0
  1 25  1  0  0  0
  1 30  2  0  0  0
  1 85  1  0  0  0
  2  3  1  0  0  0
  2 25  1  0  0  0
  2 87  1  0  0  0
  2 88  1  0  0  0
  3  4  1  0  0  0
  3 89  1  0  0  0
  3 90  1  0  0  0
  4  5  1  0  0  0
  4 91  1  0  0  0
  4 92  1  0  0  0
  5  6  1  0  0  0
  5 26  1  0  0  0
  5 93  1  0  0  0
  6 25  1  0  0  0
  6 94  1  0  0  0
  6 95  1  0  0  0
  7  8  2  0  0  0
  7 26  1  0  0  0
  7 29  1  0  0  0
  8  9  1  0  0  0
  8 22  1  0  0  0
  9 10  1  0  0  0
  9 27  2  0  0  0
 10 11  2  0  0  0
 10 15  1  0  0  0
 11 12  1  0  0  0
 11 96  1  0  0  0
 12 13  2  0  0  0
 12 97  1  0  0  0
 13 14  1  0  0  0
 13 31  1  0  0  0
 14 15  2  0  0  0
 14 98  1  0  0  0
 15 99  1  0  0  0
 16 17  2  0  0  0
 16 21  1  0  0  0
 16 31  1  0  0  0
 17 18  1  0  0  0
 17100  1  0  0  0
 18 19  2  0  0  0
 18101  1  0  0  0
 19 20  1  0  0  0
 19 24  1  0  0  0
 20 21  2  0  0  0
 20102  1  0  0  0
 21 23  1  0  0  0
 22 28  1  0  0  0
 22 32  2  0  0  0
 26 27  1  0  0  0
 28103  1  0  0  0
 28104  1  0  0  0
 29105  1  0  0  0
 29106  1  0  0  0
 33 34  1  0  0  0
 33 66  1  0  0  0
 33 70  2  0  0  0
 34 36  1  0  0  0
 34 59  1  0  0  0
 34107  1  0  0  0
 35 44  2  0  0  0
 35 45  1  0  0  0
 35 68  1  0  0  0
 36 56  1  0  0  0
 36108  1  0  0  0
 37 39  1  0  0  0
 37 47  1  0  0  0
 37 66  1  0  0  0
 37109  1  0  0  0
 38 43  2  0  0  0
 38 46  1  0  0  0
 38 47  1  0  0  0
 39 64  1  0  0  0
 39 67  2  0  0  0
 40 52  1  0  0  0
 40 53  2  0  0  0
 40 58  1  0  0  0
 41110  1  0  0  0
 41111  1  0  0  0
 41112  1  0  0  0
 41 48  1  0  0  0
 42 43  1  0  0  0
 42 66  1  0  0  0
 42113  1  0  0  0
 42114  1  0  0  0
 43 44  1  0  0  0
 44115  1  0  0  0
 45 46  2  0  0  0
 45116  1  0  0  0
 46117  1  0  0  0
 47118  1  0  0  0
 47119  1  0  0  0
 48 56  1  0  0  0
 48 65  1  0  0  0
 48120  1  0  0  0
 49 50  1  0  0  0
 49 53  1  0  0  0
 49 64  1  0  0  0
 49121  1  0  0  0
 50 51  1  0  0  0
 50122  1  0  0  0
 50123  1  0  0  0
 51 52  1  0  0  0
 51124  1  0  0  0
 51125  1  0  0  0
 52126  1  0  0  0
 52127  1  0  0  0
 53 54  1  0  0  0
 54 55  2  0  0  0
 54128  1  0  0  0
 55 57  1  0  0  0
 55129  1  0  0  0
 56 69  2  0  0  0
 57 58  2  0  0  0
 57130  1  0  0  0
 58131  1  0  0  0
 59 60  1  0  0  0
 59 61  1  0  0  0
 59 62  1  0  0  0
 60132  1  0  0  0
 60133  1  0  0  0
 60134  1  0  0  0
 61135  1  0  0  0
 61136  1  0  0  0
 61137  1  0  0  0
 62138  1  0  0  0
 62139  1  0  0  0
 62140  1  0  0  0
 63 65  1  0  0  0
 63141  1  0  0  0
 63142  1  0  0  0
 63143  1  0  0  0
 64144  1  0  0  0
 65145  1  0  0  0
 68 81  1  0  0  0
 71 72  2  0  0  0
 71 80  1  0  0  0
 71 82  1  0  0  0
 72 83  1  0  0  0
 72 86  1  0  0  0
 73 81  1  0  0  0
 73 82  2  0  0  0
 73 84  1  0  0  0
 74 76  1  0  0  0
 74 78  1  0  0  0
 74146  1  0  0  0
 74147  1  0  0  0
 75 77  1  0  0  0
 75 78  1  0  0  0
 75148  1  0  0  0
 75149  1  0  0  0
 76 85  1  0  0  0
 76150  1  0  0  0
 76151  1  0  0  0
 77 85  1  0  0  0
 77152  1  0  0  0
 77153  1  0  0  0
 78 86  1  0  0  0
 78154  1  0  0  0
 79 80  1  0  0  0
 79155  1  0  0  0
 79156  1  0  0  0
 79157  1  0  0  0
 80158  1  0  0  0
 80159  1  0  0  0
 81160  1  0  0  0
 81161  1  0  0  0
 83 84  2  0  0  0
 86162  1  0  0  0
M  ISO  4   1 100  68 101  81 101  85 100
M  END
> <chiral flag>
0

> <version>
0

> <s_m_source_file>
/data/baiqing/PycharmProjects/Reinvent-master-3.2/result/LINK_invent/BTK/process_docking_weight1_custom_sum_contain_oxygen_bond_distance_aromatic_linkinvent_7_9_3/rearranged_h_0192.sdf

> <i_m_source_file_index>
59

> <r_mmod_Potential_Energy-OPLS-2005>
252.964004516602

> <r_mmod_Stretch_Energy-OPLS-2005>
70.077033996582

> <r_mmod_Bend_Energy-OPLS-2005>
166.985809326172

> <r_mmod_Torsional_Energy-OPLS-2005>
306.498596191406

> <r_mmod_Improper_Torsional_Energy-OPLS-2005>
17.4596309661865

> <r_mmod_Van_der_Waal_Energy-OPLS-2005>
151.454681396484

> <r_mmod_Electrostatic_Energy-OPLS-2005>
-272.052490234375

> <r_mmod_Solvation_Energy-OPLS-2005>
-224.96321105957

> <b_mmod_Minimization_Converged-OPLS-2005>
0

> <r_mmod_RMS_Derivative-OPLS-2005>
0.612328052520752

$$$$
59
                    3D
 Structure written by MMmdl.
163173  0  0  1  0            999 V2000
  -30.6288  -14.7296   20.4435 C   0  0  0  0  0  0
  -30.4149  -12.4425   19.4698 C   0  0  0  0  0  0
  -29.5031  -12.5007   18.2273 C   0  0  0  0  0  0
  -28.0288  -12.3309   18.6422 C   0  0  0  0  0  0
  -27.6363  -13.2296   19.8470 C   0  0  2  0  0  0
  -28.6790  -13.1802   20.9808 C   0  0  0  0  0  0
  -25.2522  -13.8195   20.5724 C   0  0  0  0  0  0
  -24.1796  -13.0448   20.9197 C   0  0  0  0  0  0
  -24.6372  -11.6919   20.8730 C   0  0  0  0  0  0
  -23.9044  -10.4300   21.0396 C   0  0  0  0  0  0
  -24.3609   -9.4224   21.9175 C   0  0  0  0  0  0
  -23.6294   -8.2256   22.0757 C   0  0  0  0  0  0
  -22.4272   -8.0282   21.3554 C   0  0  0  0  0  0
  -21.9885   -9.0251   20.4661 C   0  0  0  0  0  0
  -22.7209  -10.2127   20.3054 C   0  0  0  0  0  0
  -21.6863   -6.0721   22.5275 C   0  0  0  0  0  0
  -21.4027   -6.5631   23.8205 C   0  0  0  0  0  0
  -21.3669   -5.6790   24.9172 C   0  0  0  0  0  0
  -21.6045   -4.3048   24.7226 C   0  0  0  0  0  0
  -21.8824   -3.8136   23.4348 C   0  0  0  0  0  0
  -21.9209   -4.6951   22.3401 C   0  0  0  0  0  0
  -22.7828  -13.5240   21.1861 C   0  0  0  0  0  0
  -22.1674   -4.2135   21.0979 F   0  0  0  0  0  0
  -21.5628   -3.4537   25.7742 F   0  0  0  0  0  0
  -29.9736  -13.5214   20.3844 N   0  0  0  0  0  0
  -26.2921  -12.9378   20.3293 N   0  0  0  0  0  0
  -25.9299  -11.6524   20.5736 N   0  0  0  0  0  0
  -22.0473  -12.8228   22.0412 N   0  0  0  0  0  0
  -25.4271  -15.1915   20.4188 N   0  0  0  0  0  0
  -31.8310  -14.7730   20.1595 O   0  0  0  0  0  0
  -21.6650   -6.8865   21.4240 O   0  0  0  0  0  0
  -22.3530  -14.5563   20.6742 O   0  0  0  0  0  0
  -24.6288  -31.8529   23.1973 C   0  0  0  0  0  0
  -25.9124  -32.4741   23.8315 C   0  0  1  0  0  0
  -27.2293  -27.2781   20.1019 C   0  0  0  0  0  0
  -25.5923  -33.8539   24.2246 N   0  0  0  0  0  0
  -23.4259  -30.4727   21.5396 C   0  0  2  0  0  0
  -24.8757  -28.9190   20.1009 C   0  0  0  0  0  0
  -22.7500  -29.4556   22.4899 C   0  0  0  0  0  0
  -18.0298  -28.1392   22.8473 C   0  0  0  0  0  0
  -24.1475  -36.7256   23.2637 C   0  0  0  0  0  0
  -25.9700  -30.7632   21.3811 C   0  0  0  0  0  0
  -26.0414  -29.3876   20.7191 C   0  0  0  0  0  0
  -27.2131  -28.5705   20.7247 C   0  0  0  0  0  0
  -26.0464  -26.8679   19.4555 C   0  0  0  0  0  0
  -24.8809  -27.6648   19.4630 C   0  0  0  0  0  0
  -23.6451  -29.8047   20.1537 C   0  0  0  0  0  0
  -25.4099  -36.3053   24.0326 C   0  0  1  0  0  0
  -20.5897  -28.3680   23.1277 C   0  0  2  0  0  0
  -20.6770  -26.9390   22.5418 C   0  0  0  0  0  0
  -19.5752  -26.6375   21.5208 C   0  0  0  0  0  0
  -18.1933  -26.7934   22.1619 C   0  0  0  0  0  0
  -19.1552  -28.8860   23.2870 C   0  0  0  0  0  0
  -18.9476  -30.1462   23.8887 C   0  0  0  0  0  0
  -17.6469  -30.6580   24.0568 C   0  0  0  0  0  0
  -25.9054  -34.9431   23.5091 C   0  0  0  0  0  0
  -16.5358  -29.9073   23.6337 C   0  0  0  0  0  0
  -16.7279  -28.6503   23.0337 C   0  0  0  0  0  0
  -26.4492  -31.6580   25.0719 C   0  0  0  0  0  0
  -25.3722  -31.3783   26.1461 C   0  0  0  0  0  0
  -27.0331  -30.2985   24.6239 C   0  0  0  0  0  0
  -27.6049  -32.4328   25.7496 C   0  0  0  0  0  0
  -27.5583  -37.1766   24.8441 C   0  0  0  0  0  0
  -21.4215  -29.3008   22.3659 N   0  0  0  0  0  0
  -26.4265  -37.3764   23.9436 N   0  0  0  0  0  0
  -24.6932  -31.0481   22.0944 N   0  0  0  0  0  0
  -23.4213  -28.8101   23.3003 O   0  0  0  0  0  0
  -28.3152  -26.3909   20.2274 O   0  0  0  0  0  0
  -26.5631  -34.8905   22.4667 O   0  0  0  0  0  0
  -23.5443  -32.1360   23.7263 O   0  0  0  0  0  0
  -28.5205  -22.1951   17.5528 C   0  0  0  0  0  0
  -28.5058  -23.8408   19.0910 C   0  0  0  0  0  0
  -28.8484  -21.6243   19.6617 C   0  0  0  0  0  0
  -27.3636  -21.9271   15.1957 C   0  0  0  0  0  0
  -27.8432  -20.5633   15.6123 C   0  0  0  0  0  0
  -28.8088  -18.0981   19.5089 C   0  0  0  0  0  0
  -29.7483  -18.3297   21.7026 C   0  0  0  0  0  0
  -29.5175  -16.6779   19.3636 C   0  0  0  0  0  0
  -30.4674  -16.9255   21.5692 C   0  0  0  0  0  0
  -28.5698  -21.7989   16.1039 C   0  0  0  0  0  0
  -29.5823  -19.1389   20.3812 C   0  0  0  0  0  0
  -28.7265  -25.4351   19.1692 C   0  0  0  0  0  0
  -28.3326  -23.4806   17.8171 N   0  0  0  0  0  0
  -28.7928  -21.2295   18.4118 N   0  0  0  0  0  0
  -28.7542  -22.9225   20.0827 N   0  0  0  0  0  0
  -29.9158  -15.9276   20.6018 N   0  0  0  0  0  0
  -29.0080  -20.5423   20.5779 N   0  0  0  0  0  0
  -31.4612  -12.5393   19.1761 H   0  0  0  0  0  0
  -30.3319  -11.4718   19.9602 H   0  0  0  0  0  0
  -29.7814  -11.7233   17.5143 H   0  0  0  0  0  0
  -29.6391  -13.4542   17.7143 H   0  0  0  0  0  0
  -27.8830  -11.2817   18.9016 H   0  0  0  0  0  0
  -27.3721  -12.5323   17.7935 H   0  0  0  0  0  0
  -27.6228  -14.2485   19.4657 H   0  0  0  0  0  0
  -28.7139  -12.1904   21.4393 H   0  0  0  0  0  0
  -28.4209  -13.8842   21.7738 H   0  0  0  0  0  0
  -25.2756   -9.5721   22.4736 H   0  0  0  0  0  0
  -24.0028   -7.4651   22.7471 H   0  0  0  0  0  0
  -21.0808   -8.8762   19.8962 H   0  0  0  0  0  0
  -22.3665  -10.9666   19.6158 H   0  0  0  0  0  0
  -21.2006   -7.6138   23.9702 H   0  0  0  0  0  0
  -21.1487   -6.0518   25.9072 H   0  0  0  0  0  0
  -22.0590   -2.7595   23.2861 H   0  0  0  0  0  0
  -22.4076  -11.9869   22.4774 H   0  0  0  0  0  0
  -21.1105  -13.1292   22.2644 H   0  0  0  0  0  0
  -24.6688  -15.8539   20.5357 H   0  0  0  0  0  0
  -26.2984  -15.6277   20.1438 H   0  0  0  0  0  0
  -26.7186  -32.5384   23.1045 H   0  0  0  0  0  0
  -25.0055  -33.9672   25.0385 H   0  0  0  0  0  0
  -22.7213  -31.2940   21.3930 H   0  0  0  0  0  0
  -23.3761  -35.9558   23.3240 H   0  0  0  0  0  0
  -24.3583  -36.8936   22.2065 H   0  0  0  0  0  0
  -23.7172  -37.6411   23.6706 H   0  0  0  0  0  0
  -26.1177  -31.5269   20.6161 H   0  0  0  0  0  0
  -26.8441  -30.8071   22.0193 H   0  0  0  0  0  0
  -28.1007  -28.9125   21.2401 H   0  0  0  0  0  0
  -25.9976  -25.8966   18.9840 H   0  0  0  0  0  0
  -23.9865  -27.2980   18.9799 H   0  0  0  0  0  0
  -23.7685  -30.5816   19.3980 H   0  0  0  0  0  0
  -22.7646  -29.2384   19.8481 H   0  0  0  0  0  0
  -25.1258  -36.1888   25.0810 H   0  0  0  0  0  0
  -20.9994  -28.3264   24.1396 H   0  0  0  0  0  0
  -20.5641  -26.2277   23.3616 H   0  0  0  0  0  0
  -21.6643  -26.7391   22.1232 H   0  0  0  0  0  0
  -19.6893  -25.6281   21.1239 H   0  0  0  0  0  0
  -19.6692  -27.3181   20.6732 H   0  0  0  0  0  0
  -17.4192  -26.6678   21.4032 H   0  0  0  0  0  0
  -18.0325  -26.0087   22.9028 H   0  0  0  0  0  0
  -19.7960  -30.7295   24.2231 H   0  0  0  0  0  0
  -17.5018  -31.6256   24.5172 H   0  0  0  0  0  0
  -15.5353  -30.2961   23.7670 H   0  0  0  0  0  0
  -15.8686  -28.0810   22.7039 H   0  0  0  0  0  0
  -24.5816  -30.7218   25.7803 H   0  0  0  0  0  0
  -24.9015  -32.2986   26.4925 H   0  0  0  0  0  0
  -25.8018  -30.8907   27.0220 H   0  0  0  0  0  0
  -26.2917  -29.6743   24.1229 H   0  0  0  0  0  0
  -27.3951  -29.7243   25.4779 H   0  0  0  0  0  0
  -27.8824  -30.4234   23.9518 H   0  0  0  0  0  0
  -27.2646  -33.3633   26.2049 H   0  0  0  0  0  0
  -28.3867  -32.6878   25.0332 H   0  0  0  0  0  0
  -28.0696  -31.8465   26.5434 H   0  0  0  0  0  0
  -28.2530  -38.0135   24.7602 H   0  0  0  0  0  0
  -28.1151  -36.2679   24.6110 H   0  0  0  0  0  0
  -27.2338  -37.1220   25.8848 H   0  0  0  0  0  0
  -20.9396  -29.8736   21.6869 H   0  0  0  0  0  0
  -26.0131  -38.2814   24.1525 H   0  0  0  0  0  0
  -26.4387  -22.2933   15.6356 H   0  0  0  0  0  0
  -27.5417  -22.2284   14.1654 H   0  0  0  0  0  0
  -28.3552  -19.9525   14.8714 H   0  0  0  0  0  0
  -27.2402  -20.0134   16.3332 H   0  0  0  0  0  0
  -27.8071  -17.9511   19.9143 H   0  0  0  0  0  0
  -28.6611  -18.5035   18.5070 H   0  0  0  0  0  0
  -30.3047  -18.9315   22.4223 H   0  0  0  0  0  0
  -28.7653  -18.1723   22.1516 H   0  0  0  0  0  0
  -30.4178  -16.8177   18.7615 H   0  0  0  0  0  0
  -28.8728  -16.0329   18.7656 H   0  0  0  0  0  0
  -30.4904  -16.4561   22.5536 H   0  0  0  0  0  0
  -31.5102  -17.1162   21.3118 H   0  0  0  0  0  0
  -29.5492  -22.0080   15.6761 H   0  0  0  0  0  0
  -30.5714  -19.2788   19.9416 H   0  0  0  0  0  0
  -28.3884  -25.8698   18.2255 H   0  0  0  0  0  0
  -29.8092  -25.5510   19.1217 H   0  0  0  0  0  0
  -29.0051  -20.8559   21.5417 H   0  0  0  0  0  0
  1 25  1  0  0  0
  1 30  2  0  0  0
  1 86  1  0  0  0
  2  3  1  0  0  0
  2 25  1  0  0  0
  2 88  1  0  0  0
  2 89  1  0  0  0
  3  4  1  0  0  0
  3 90  1  0  0  0
  3 91  1  0  0  0
  4  5  1  0  0  0
  4 92  1  0  0  0
  4 93  1  0  0  0
  5  6  1  0  0  0
  5 26  1  0  0  0
  5 94  1  0  0  0
  6 25  1  0  0  0
  6 95  1  0  0  0
  6 96  1  0  0  0
  7  8  2  0  0  0
  7 26  1  0  0  0
  7 29  1  0  0  0
  8  9  1  0  0  0
  8 22  1  0  0  0
  9 10  1  0  0  0
  9 27  2  0  0  0
 10 11  2  0  0  0
 10 15  1  0  0  0
 11 12  1  0  0  0
 11 97  1  0  0  0
 12 13  2  0  0  0
 12 98  1  0  0  0
 13 14  1  0  0  0
 13 31  1  0  0  0
 14 15  2  0  0  0
 14 99  1  0  0  0
 15100  1  0  0  0
 16 17  2  0  0  0
 16 21  1  0  0  0
 16 31  1  0  0  0
 17 18  1  0  0  0
 17101  1  0  0  0
 18 19  2  0  0  0
 18102  1  0  0  0
 19 20  1  0  0  0
 19 24  1  0  0  0
 20 21  2  0  0  0
 20103  1  0  0  0
 21 23  1  0  0  0
 22 28  1  0  0  0
 22 32  2  0  0  0
 26 27  1  0  0  0
 28104  1  0  0  0
 28105  1  0  0  0
 29106  1  0  0  0
 29107  1  0  0  0
 33 34  1  0  0  0
 33 66  1  0  0  0
 33 70  2  0  0  0
 34 36  1  0  0  0
 34 59  1  0  0  0
 34108  1  0  0  0
 35 44  2  0  0  0
 35 45  1  0  0  0
 35 68  1  0  0  0
 36 56  1  0  0  0
 36109  1  0  0  0
 37 39  1  0  0  0
 37 47  1  0  0  0
 37 66  1  0  0  0
 37110  1  0  0  0
 38 43  2  0  0  0
 38 46  1  0  0  0
 38 47  1  0  0  0
 39 64  1  0  0  0
 39 67  2  0  0  0
 40 52  1  0  0  0
 40 53  2  0  0  0
 40 58  1  0  0  0
 41111  1  0  0  0
 41112  1  0  0  0
 41113  1  0  0  0
 41 48  1  0  0  0
 42 43  1  0  0  0
 42 66  1  0  0  0
 42114  1  0  0  0
 42115  1  0  0  0
 43 44  1  0  0  0
 44116  1  0  0  0
 45 46  2  0  0  0
 45117  1  0  0  0
 46118  1  0  0  0
 47119  1  0  0  0
 47120  1  0  0  0
 48 56  1  0  0  0
 48 65  1  0  0  0
 48121  1  0  0  0
 49 50  1  0  0  0
 49 53  1  0  0  0
 49 64  1  0  0  0
 49122  1  0  0  0
 50 51  1  0  0  0
 50123  1  0  0  0
 50124  1  0  0  0
 51 52  1  0  0  0
 51125  1  0  0  0
 51126  1  0  0  0
 52127  1  0  0  0
 52128  1  0  0  0
 53 54  1  0  0  0
 54 55  2  0  0  0
 54129  1  0  0  0
 55 57  1  0  0  0
 55130  1  0  0  0
 56 69  2  0  0  0
 57 58  2  0  0  0
 57131  1  0  0  0
 58132  1  0  0  0
 59 60  1  0  0  0
 59 61  1  0  0  0
 59 62  1  0  0  0
 60133  1  0  0  0
 60134  1  0  0  0
 60135  1  0  0  0
 61136  1  0  0  0
 61137  1  0  0  0
 61138  1  0  0  0
 62139  1  0  0  0
 62140  1  0  0  0
 62141  1  0  0  0
 63 65  1  0  0  0
 63142  1  0  0  0
 63143  1  0  0  0
 63144  1  0  0  0
 64145  1  0  0  0
 65146  1  0  0  0
 68 82  1  0  0  0
 71 83  2  0  0  0
 71 84  1  0  0  0
 71 80  1  0  0  0
 72 82  1  0  0  0
 72 83  1  0  0  0
 72 85  2  0  0  0
 73 84  2  0  0  0
 73 85  1  0  0  0
 73 87  1  0  0  0
 74 75  1  0  0  0
 74 80  1  0  0  0
 74147  1  0  0  0
 74148  1  0  0  0
 75 80  1  0  0  0
 75149  1  0  0  0
 75150  1  0  0  0
 76 78  1  0  0  0
 76 81  1  0  0  0
 76151  1  0  0  0
 76152  1  0  0  0
 77 79  1  0  0  0
 77 81  1  0  0  0
 77153  1  0  0  0
 77154  1  0  0  0
 78 86  1  0  0  0
 78155  1  0  0  0
 78156  1  0  0  0
 79 86  1  0  0  0
 79157  1  0  0  0
 79158  1  0  0  0
 80159  1  0  0  0
 81 87  1  0  0  0
 81160  1  0  0  0
 82161  1  0  0  0
 82162  1  0  0  0
 87163  1  0  0  0
M  ISO  4   1 100  68 101  82 101  86 100
M  END
> <chiral flag>
0

> <version>
0

> <s_m_source_file>
/data/baiqing/PycharmProjects/Reinvent-master-3.2/result/LINK_invent/BTK/process_docking_weight1_custom_sum_contain_oxygen_bond_distance_aromatic_linkinvent_7_9_3/rearranged_h_0192.sdf

> <i_m_source_file_index>
60

> <r_mmod_Potential_Energy-OPLS-2005>
-326.583862304688

> <r_mmod_Stretch_Energy-OPLS-2005>
113.407196044922

> <r_mmod_Bend_Energy-OPLS-2005>
236.859298706055

> <r_mmod_Torsional_Energy-OPLS-2005>
339.796264648438

> <r_mmod_Improper_Torsional_Energy-OPLS-2005>
13.6267490386963

> <r_mmod_Van_der_Waal_Energy-OPLS-2005>
153.249420166016

> <r_mmod_Electrostatic_Energy-OPLS-2005>
-1038.54870605469

> <r_mmod_Solvation_Energy-OPLS-2005>
-228.408386230469

> <b_mmod_Minimization_Converged-OPLS-2005>
0

> <r_mmod_RMS_Derivative-OPLS-2005>
2.77787947654724

$$$$
60
                    3D
 Structure written by MMmdl.
161170  0  0  1  0            999 V2000
  -30.6585  -14.6002   20.5136 C   0  0  0  0  0  0
  -30.4338  -12.3700   19.4576 C   0  0  0  0  0  0
  -29.5062  -12.5032   18.2291 C   0  0  0  0  0  0
  -28.0294  -12.3441   18.6410 C   0  0  0  0  0  0
  -27.6562  -13.2161   19.8693 C   0  0  2  0  0  0
  -28.7004  -13.0716   21.0015 C   0  0  0  0  0  0
  -25.2574  -13.8175   20.5707 C   0  0  0  0  0  0
  -24.1832  -13.0436   20.9191 C   0  0  0  0  0  0
  -24.6401  -11.6908   20.8743 C   0  0  0  0  0  0
  -23.9067  -10.4290   21.0408 C   0  0  0  0  0  0
  -24.3618   -9.4206   21.9188 C   0  0  0  0  0  0
  -23.6292   -8.2243   22.0755 C   0  0  0  0  0  0
  -22.4277   -8.0285   21.3540 C   0  0  0  0  0  0
  -21.9913   -9.0259   20.4644 C   0  0  0  0  0  0
  -22.7238  -10.2137   20.3057 C   0  0  0  0  0  0
  -21.6849   -6.0739   22.5272 C   0  0  0  0  0  0
  -21.4015   -6.5641   23.8208 C   0  0  0  0  0  0
  -21.3665   -5.6792   24.9171 C   0  0  0  0  0  0
  -21.6043   -4.3052   24.7218 C   0  0  0  0  0  0
  -21.8820   -3.8146   23.4338 C   0  0  0  0  0  0
  -21.9191   -4.6967   22.3395 C   0  0  0  0  0  0
  -22.7853  -13.5235   21.1847 C   0  0  0  0  0  0
  -22.1659   -4.2155   21.0972 F   0  0  0  0  0  0
  -21.5633   -3.4537   25.7731 F   0  0  0  0  0  0
  -30.0225  -13.3914   20.4403 N   0  0  0  0  0  0
  -26.3005  -12.9354   20.3359 N   0  0  0  0  0  0
  -25.9335  -11.6504   20.5786 N   0  0  0  0  0  0
  -22.0490  -12.8229   22.0399 N   0  0  0  0  0  0
  -25.4293  -15.1899   20.4121 N   0  0  0  0  0  0
  -31.8107  -14.7548   20.1011 O   0  0  0  0  0  0
  -21.6637   -6.8887   21.4234 O   0  0  0  0  0  0
  -22.3546  -14.5546   20.6697 O   0  0  0  0  0  0
  -24.6251  -31.8627   23.2070 C   0  0  0  0  0  0
  -25.9108  -32.4791   23.8387 C   0  0  1  0  0  0
  -27.2144  -27.3372   20.1102 C   0  0  0  0  0  0
  -25.5929  -33.8591   24.2300 N   0  0  0  0  0  0
  -23.4165  -30.4920   21.5493 C   0  0  2  0  0  0
  -24.8616  -28.9621   20.1057 C   0  0  0  0  0  0
  -22.7471  -29.4648   22.4936 C   0  0  0  0  0  0
  -18.0289  -28.1379   22.8489 C   0  0  0  0  0  0
  -24.1487  -36.7300   23.2640 C   0  0  0  0  0  0
  -25.9583  -30.8014   21.3769 C   0  0  0  0  0  0
  -26.0319  -29.4336   20.7141 C   0  0  0  0  0  0
  -27.2123  -28.6331   20.7095 C   0  0  0  0  0  0
  -26.0215  -26.9300   19.4601 C   0  0  0  0  0  0
  -24.8589  -27.7158   19.4684 C   0  0  0  0  0  0
  -23.6284  -29.8379   20.1606 C   0  0  0  0  0  0
  -25.4110  -36.3090   24.0328 C   0  0  1  0  0  0
  -20.5891  -28.3683   23.1280 C   0  0  2  0  0  0
  -20.6775  -26.9401   22.5416 C   0  0  0  0  0  0
  -19.5752  -26.6381   21.5216 C   0  0  0  0  0  0
  -18.1929  -26.7924   22.1626 C   0  0  0  0  0  0
  -19.1544  -28.8850   23.2885 C   0  0  0  0  0  0
  -18.9465  -30.1452   23.8895 C   0  0  0  0  0  0
  -17.6465  -30.6582   24.0563 C   0  0  0  0  0  0
  -25.9042  -34.9455   23.5111 C   0  0  0  0  0  0
  -16.5354  -29.9078   23.6331 C   0  0  0  0  0  0
  -16.7277  -28.6500   23.0347 C   0  0  0  0  0  0
  -26.4492  -31.6593   25.0750 C   0  0  0  0  0  0
  -25.3726  -31.3735   26.1476 C   0  0  0  0  0  0
  -27.0329  -30.3015   24.6199 C   0  0  0  0  0  0
  -27.6053  -32.4328   25.7514 C   0  0  0  0  0  0
  -27.5577  -37.1807   24.8464 C   0  0  0  0  0  0
  -21.4188  -29.3043   22.3673 N   0  0  0  0  0  0
  -26.4290  -37.3786   23.9407 N   0  0  0  0  0  0
  -24.6853  -31.0668   22.1009 N   0  0  0  0  0  0
  -23.4209  -28.8167   23.2987 O   0  0  0  0  0  0
  -28.3127  -26.4642   20.1881 O   0  0  0  0  0  0
  -26.5612  -34.8918   22.4676 O   0  0  0  0  0  0
  -23.5418  -32.1417   23.7408 O   0  0  0  0  0  0
  -30.7379  -17.7003   22.9422 C   0  0  0  0  0  0
  -30.3245  -18.0744   21.6871 C   0  0  0  0  0  0
  -30.5527  -19.9070   22.9741 C   0  0  0  0  0  0
  -27.6386  -21.8177   19.8428 C   0  0  0  0  0  0
  -28.4124  -21.1672   20.9648 C   0  0  2  0  0  0
  -30.6097  -21.3109   23.4970 C   0  0  0  0  0  0
  -30.0983  -17.1216   20.5152 C   0  0  0  0  0  0
  -29.8013  -20.5212   20.7129 C   0  0  0  0  0  0
  -28.9323  -23.8443   20.5810 C   0  0  0  0  0  0
  -27.9883  -25.0234   20.0914 C   0  0  0  0  0  0
  -30.1980  -19.4853   21.7405 N   0  0  0  0  0  0
  -30.8629  -18.8285   23.6929 N   0  3  0  0  0  0
  -29.8878  -15.6714   20.8524 N   0  0  0  0  0  0
  -28.0995  -22.6364   20.9558 N   0  3  1  0  0  0
  -31.4783  -12.4778   19.1571 H   0  0  0  0  0  0
  -30.3508  -11.3742   19.8961 H   0  0  0  0  0  0
  -29.7669  -11.7568   17.4779 H   0  0  0  0  0  0
  -29.6535  -13.4757   17.7573 H   0  0  0  0  0  0
  -27.8645  -11.2915   18.8736 H   0  0  0  0  0  0
  -27.3736  -12.5747   17.8006 H   0  0  0  0  0  0
  -27.6763  -14.2519   19.5290 H   0  0  0  0  0  0
  -28.7010  -12.0538   21.3939 H   0  0  0  0  0  0
  -28.4536  -13.7158   21.8466 H   0  0  0  0  0  0
  -25.2766   -9.5679   22.4760 H   0  0  0  0  0  0
  -23.9998   -7.4637   22.7474 H   0  0  0  0  0  0
  -21.0845   -8.8775   19.8957 H   0  0  0  0  0  0
  -22.3696  -10.9675   19.6169 H   0  0  0  0  0  0
  -21.2006   -7.6150   23.9713 H   0  0  0  0  0  0
  -21.1489   -6.0522   25.9077 H   0  0  0  0  0  0
  -22.0596   -2.7609   23.2827 H   0  0  0  0  0  0
  -22.4098  -11.9885   22.4779 H   0  0  0  0  0  0
  -21.1115  -13.1267   22.2614 H   0  0  0  0  0  0
  -24.6615  -15.8436   20.5207 H   0  0  0  0  0  0
  -26.2752  -15.6270   20.0695 H   0  0  0  0  0  0
  -26.7180  -32.5467   23.1145 H   0  0  0  0  0  0
  -25.0076  -33.9734   25.0442 H   0  0  0  0  0  0
  -22.7099  -31.3133   21.4138 H   0  0  0  0  0  0
  -23.3740  -35.9646   23.3311 H   0  0  0  0  0  0
  -24.3588  -36.8910   22.2056 H   0  0  0  0  0  0
  -23.7245  -37.6508   23.6653 H   0  0  0  0  0  0
  -26.0915  -31.5698   20.6142 H   0  0  0  0  0  0
  -26.8368  -30.8444   22.0084 H   0  0  0  0  0  0
  -28.1059  -28.9878   21.2053 H   0  0  0  0  0  0
  -25.9415  -25.9858   18.9429 H   0  0  0  0  0  0
  -23.9646  -27.3543   18.9787 H   0  0  0  0  0  0
  -23.7420  -30.6197   19.4090 H   0  0  0  0  0  0
  -22.7481  -29.2682   19.8582 H   0  0  0  0  0  0
  -25.1289  -36.1957   25.0825 H   0  0  0  0  0  0
  -20.9995  -28.3261   24.1397 H   0  0  0  0  0  0
  -20.5676  -26.2291   23.3616 H   0  0  0  0  0  0
  -21.6638  -26.7426   22.1207 H   0  0  0  0  0  0
  -19.6904  -25.6297   21.1234 H   0  0  0  0  0  0
  -19.6683  -27.3199   20.6751 H   0  0  0  0  0  0
  -17.4199  -26.6685   21.4020 H   0  0  0  0  0  0
  -18.0313  -26.0064   22.9021 H   0  0  0  0  0  0
  -19.7944  -30.7273   24.2252 H   0  0  0  0  0  0
  -17.5017  -31.6258   24.5166 H   0  0  0  0  0  0
  -15.5352  -30.2973   23.7654 H   0  0  0  0  0  0
  -15.8683  -28.0817   22.7046 H   0  0  0  0  0  0
  -24.5924  -30.7048   25.7823 H   0  0  0  0  0  0
  -24.8882  -32.2898   26.4866 H   0  0  0  0  0  0
  -25.8056  -30.8964   27.0276 H   0  0  0  0  0  0
  -26.2908  -29.6775   24.1208 H   0  0  0  0  0  0
  -27.4001  -29.7268   25.4712 H   0  0  0  0  0  0
  -27.8790  -30.4291   23.9444 H   0  0  0  0  0  0
  -27.2668  -33.3636   26.2078 H   0  0  0  0  0  0
  -28.3871  -32.6870   25.0346 H   0  0  0  0  0  0
  -28.0711  -31.8463   26.5445 H   0  0  0  0  0  0
  -28.2594  -38.0102   24.7504 H   0  0  0  0  0  0
  -28.1067  -36.2631   24.6294 H   0  0  0  0  0  0
  -27.2294  -37.1468   25.8867 H   0  0  0  0  0  0
  -20.9348  -29.8798   21.6922 H   0  0  0  0  0  0
  -26.0169  -38.2865   24.1407 H   0  0  0  0  0  0
  -30.9616  -16.7207   23.3419 H   0  0  0  0  0  0
  -26.5505  -21.7876   19.8345 H   0  0  0  0  0  0
  -28.1458  -22.0599   18.9114 H   0  0  0  0  0  0
  -27.8118  -20.6778   21.7294 H   0  0  0  0  0  0
  -31.1110  -21.3057   24.4646 H   0  0  0  0  0  0
  -29.5943  -21.6872   23.6149 H   0  0  0  0  0  0
  -31.1755  -21.9355   22.8066 H   0  0  0  0  0  0
  -30.9417  -17.2237   19.8314 H   0  0  0  0  0  0
  -29.2246  -17.4639   19.9602 H   0  0  0  0  0  0
  -30.5759  -21.2869   20.6626 H   0  0  0  0  0  0
  -29.7893  -20.0263   19.7418 H   0  0  0  0  0  0
  -29.6849  -23.6040   19.8305 H   0  0  0  0  0  0
  -29.4657  -24.1629   21.4764 H   0  0  0  0  0  0
  -27.0646  -24.8905   20.6578 H   0  0  0  0  0  0
  -27.7435  -24.8054   19.0506 H   0  0  0  0  0  0
  -31.1632  -18.8446   24.6606 H   0  0  0  0  0  0
  -28.9634  -15.4359   21.1795 H   0  0  0  0  0  0
  -27.3372  -22.8480   21.5837 H   0  0  0  0  0  0
  1 25  1  0  0  0
  1 30  2  0  0  0
  1 83  1  0  0  0
  2  3  1  0  0  0
  2 25  1  0  0  0
  2 85  1  0  0  0
  2 86  1  0  0  0
  3  4  1  0  0  0
  3 87  1  0  0  0
  3 88  1  0  0  0
  4  5  1  0  0  0
  4 89  1  0  0  0
  4 90  1  0  0  0
  5  6  1  0  0  0
  5 26  1  0  0  0
  5 91  1  0  0  0
  6 25  1  0  0  0
  6 92  1  0  0  0
  6 93  1  0  0  0
  7  8  2  0  0  0
  7 26  1  0  0  0
  7 29  1  0  0  0
  8  9  1  0  0  0
  8 22  1  0  0  0
  9 10  1  0  0  0
  9 27  2  0  0  0
 10 11  2  0  0  0
 10 15  1  0  0  0
 11 12  1  0  0  0
 11 94  1  0  0  0
 12 13  2  0  0  0
 12 95  1  0  0  0
 13 14  1  0  0  0
 13 31  1  0  0  0
 14 15  2  0  0  0
 14 96  1  0  0  0
 15 97  1  0  0  0
 16 17  2  0  0  0
 16 21  1  0  0  0
 16 31  1  0  0  0
 17 18  1  0  0  0
 17 98  1  0  0  0
 18 19  2  0  0  0
 18 99  1  0  0  0
 19 20  1  0  0  0
 19 24  1  0  0  0
 20 21  2  0  0  0
 20100  1  0  0  0
 21 23  1  0  0  0
 22 28  1  0  0  0
 22 32  2  0  0  0
 26 27  1  0  0  0
 28101  1  0  0  0
 28102  1  0  0  0
 29103  1  0  0  0
 29104  1  0  0  0
 33 34  1  0  0  0
 33 66  1  0  0  0
 33 70  2  0  0  0
 34 36  1  0  0  0
 34 59  1  0  0  0
 34105  1  0  0  0
 35 44  2  0  0  0
 35 45  1  0  0  0
 35 68  1  0  0  0
 36 56  1  0  0  0
 36106  1  0  0  0
 37 39  1  0  0  0
 37 47  1  0  0  0
 37 66  1  0  0  0
 37107  1  0  0  0
 38 43  2  0  0  0
 38 46  1  0  0  0
 38 47  1  0  0  0
 39 64  1  0  0  0
 39 67  2  0  0  0
 40 52  1  0  0  0
 40 53  2  0  0  0
 40 58  1  0  0  0
 41108  1  0  0  0
 41109  1  0  0  0
 41110  1  0  0  0
 41 48  1  0  0  0
 42 43  1  0  0  0
 42 66  1  0  0  0
 42111  1  0  0  0
 42112  1  0  0  0
 43 44  1  0  0  0
 44113  1  0  0  0
 45 46  2  0  0  0
 45114  1  0  0  0
 46115  1  0  0  0
 47116  1  0  0  0
 47117  1  0  0  0
 48 56  1  0  0  0
 48 65  1  0  0  0
 48118  1  0  0  0
 49 50  1  0  0  0
 49 53  1  0  0  0
 49 64  1  0  0  0
 49119  1  0  0  0
 50 51  1  0  0  0
 50120  1  0  0  0
 50121  1  0  0  0
 51 52  1  0  0  0
 51122  1  0  0  0
 51123  1  0  0  0
 52124  1  0  0  0
 52125  1  0  0  0
 53 54  1  0  0  0
 54 55  2  0  0  0
 54126  1  0  0  0
 55 57  1  0  0  0
 55127  1  0  0  0
 56 69  2  0  0  0
 57 58  2  0  0  0
 57128  1  0  0  0
 58129  1  0  0  0
 59 60  1  0  0  0
 59 61  1  0  0  0
 59 62  1  0  0  0
 60130  1  0  0  0
 60131  1  0  0  0
 60132  1  0  0  0
 61133  1  0  0  0
 61134  1  0  0  0
 61135  1  0  0  0
 62136  1  0  0  0
 62137  1  0  0  0
 62138  1  0  0  0
 63 65  1  0  0  0
 63139  1  0  0  0
 63140  1  0  0  0
 63141  1  0  0  0
 64142  1  0  0  0
 65143  1  0  0  0
 68 80  1  0  0  0
 71 72  2  0  0  0
 71 82  1  0  0  0
 71144  1  0  0  0
 72 77  1  0  0  0
 72 81  1  0  0  0
 73 76  1  0  0  0
 73 81  1  0  0  0
 73 82  2  0  0  0
 74 75  1  0  0  0
 74 84  1  0  0  0
 74145  1  0  0  0
 74146  1  0  0  0
 75 78  1  0  0  0
 75 84  1  0  0  0
 75147  1  0  0  0
 76148  1  0  0  0
 76149  1  0  0  0
 76150  1  0  0  0
 77 83  1  0  0  0
 77151  1  0  0  0
 77152  1  0  0  0
 78 81  1  0  0  0
 78153  1  0  0  0
 78154  1  0  0  0
 79 80  1  0  0  0
 79155  1  0  0  0
 79156  1  0  0  0
 79 84  1  0  0  0
 80157  1  0  0  0
 80158  1  0  0  0
 82159  1  0  0  0
 83160  1  0  0  0
 84161  1  0  0  0
M  CHG  2  82   1  84   1
M  ISO  4   1 100  68 101  80 101  83 100
M  END
> <chiral flag>
0

> <version>
0

> <s_m_source_file>
/data/baiqing/PycharmProjects/Reinvent-master-3.2/result/LINK_invent/BTK/process_docking_weight1_custom_sum_contain_oxygen_bond_distance_aromatic_linkinvent_7_9_3/rearranged_h_0192.sdf

> <i_m_source_file_index>
61

> <r_mmod_Potential_Energy-OPLS-2005>
-200.477127075195

> <r_mmod_Stretch_Energy-OPLS-2005>
72.8131484985352

> <r_mmod_Bend_Energy-OPLS-2005>
185.231796264648

> <r_mmod_Torsional_Energy-OPLS-2005>
258.523620605469

> <r_mmod_Improper_Torsional_Energy-OPLS-2005>
5.72836065292358

> <r_mmod_Van_der_Waal_Energy-OPLS-2005>
126.222816467285

> <r_mmod_Electrostatic_Energy-OPLS-2005>
50.5772895812988

> <r_mmod_Solvation_Energy-OPLS-2005>
-942.33447265625

> <b_mmod_Minimization_Converged-OPLS-2005>
0

> <r_mmod_RMS_Derivative-OPLS-2005>
1.22156226634979

$$$$
61
                    3D
 Structure written by MMmdl.
149157  0  0  1  0            999 V2000
  -29.7657  -13.3514   20.5361 C   0  0  0  0  0  0
  -30.7959  -12.1125   20.2219 C   0  0  0  0  0  0
  -29.8429  -11.8271   18.6737 C   0  0  0  0  0  0
  -28.2636  -12.3821   18.5513 C   0  0  0  0  0  0
  -27.6563  -13.6300   19.5144 C   0  0  2  0  0  0
  -28.7309  -14.4090   20.9089 C   0  0  0  0  0  0
  -25.3091  -14.0323   19.8017 C   0  0  0  0  0  0
  -24.2826  -13.5919   20.4960 C   0  0  0  0  0  0
  -24.5555  -12.1086   20.7378 C   0  0  0  0  0  0
  -23.8324  -10.7522   21.0378 C   0  0  0  0  0  0
  -24.3413   -9.6876   21.8668 C   0  0  0  0  0  0
  -23.6745   -8.4285   22.0383 C   0  0  0  0  0  0
  -22.4653   -8.1502   21.3549 C   0  0  0  0  0  0
  -21.9920   -9.1518   20.4816 C   0  0  0  0  0  0
  -22.6537  -10.4022   20.3321 C   0  0  0  0  0  0
  -21.7385   -6.1252   22.5153 C   0  0  0  0  0  0
  -21.4398   -6.5984   23.8130 C   0  0  0  0  0  0
  -21.3787   -5.7026   24.9028 C   0  0  0  0  0  0
  -21.6045   -4.3273   24.7055 C   0  0  0  0  0  0
  -21.8768   -3.8448   23.4128 C   0  0  0  0  0  0
  -21.9352   -4.7372   22.3253 C   0  0  0  0  0  0
  -23.7124  -14.9563   21.1596 C   0  0  0  0  0  0
  -22.1730   -4.2487   21.0836 F   0  0  0  0  0  0
  -21.5546   -3.4681   25.7514 F   0  0  0  0  0  0
  -30.2564  -13.4565   21.3099 N   0  0  0  0  0  0
  -26.3105  -13.1769   19.9260 N   0  0  0  0  0  0
  -25.8608  -11.9407   20.3758 N   0  0  0  0  0  0
  -24.3300  -15.9639   23.4682 N   0  0  0  0  0  0
  -25.5126  -15.2753   19.2215 N   0  0  0  0  0  0
  -30.4076  -14.1459   19.5334 O   0  0  0  0  0  0
  -21.7526   -6.9592   21.4137 O   0  0  0  0  0  0
  -22.6971  -15.1186   20.4263 O   0  0  0  0  0  0
  -24.7060  -31.7620   23.1424 C   0  0  0  0  0  0
  -25.9584  -32.4194   23.7957 C   0  0  1  0  0  0
  -26.4205  -26.0565   20.5230 C   0  0  0  0  0  0
  -25.6093  -33.8084   24.1763 N   0  0  0  0  0  0
  -23.5131  -30.3971   21.5012 C   0  0  2  0  0  0
  -24.8611  -28.6649   20.0883 C   0  0  0  0  0  0
  -22.7710  -29.4195   22.4532 C   0  0  0  0  0  0
  -18.0320  -28.1417   22.8440 C   0  0  0  0  0  0
  -24.1506  -36.7031   23.2655 C   0  0  0  0  0  0
  -26.0810  -30.2558   21.5171 C   0  0  0  0  0  0
  -25.9893  -28.7745   20.8960 C   0  0  0  0  0  0
  -26.7794  -27.4838   21.0867 C   0  0  0  0  0  0
  -25.5522  -26.3485   19.4546 C   0  0  0  0  0  0
  -24.7506  -27.5133   19.3011 C   0  0  0  0  0  0
  -23.7661  -29.7413   20.1088 C   0  0  0  0  0  0
  -25.4177  -36.2742   24.0242 C   0  0  1  0  0  0
  -20.5954  -28.3784   23.1072 C   0  0  2  0  0  0
  -20.6772  -26.9420   22.5394 C   0  0  0  0  0  0
  -19.5760  -26.6349   21.5201 C   0  0  0  0  0  0
  -18.1941  -26.7942   22.1599 C   0  0  0  0  0  0
  -19.1589  -28.8926   23.2751 C   0  0  0  0  0  0
  -18.9509  -30.1506   23.8813 C   0  0  0  0  0  0
  -17.6504  -30.6603   24.0552 C   0  0  0  0  0  0
  -25.9199  -34.9147   23.4852 C   0  0  0  0  0  0
  -16.5389  -29.9093   23.6353 C   0  0  0  0  0  0
  -16.7306  -28.6511   23.0369 C   0  0  0  0  0  0
  -26.4663  -31.6459   25.0777 C   0  0  0  0  0  0
  -25.3633  -31.3940   26.1332 C   0  0  0  0  0  0
  -27.0676  -30.2734   24.7111 C   0  0  0  0  0  0
  -27.6033  -32.4455   25.7569 C   0  0  0  0  0  0
  -27.5557  -37.1669   24.8458 C   0  0  0  0  0  0
  -21.4355  -29.3001   22.3325 N   0  0  0  0  0  0
  -26.4253  -37.3563   23.9410 N   0  0  0  0  0  0
  -24.8019  -30.8638   22.0956 N   0  0  0  0  0  0
  -23.4088  -28.7771   23.2917 O   0  0  0  0  0  0
  -26.6657  -24.4299   20.7984 O   0  0  0  0  0  0
  -26.5864  -34.8785   22.4488 O   0  0  0  0  0  0
  -23.6067  -32.1051   23.6149 O   0  0  0  0  0  0
  -25.7165  -16.0741   21.7884 C   0  0  0  0  0  0
  -24.2885  -17.3576   21.7182 C   0  0  0  0  0  0
  -25.7229  -22.8828   20.9152 C   0  0  0  0  0  0
  -24.5674  -19.4945   21.3290 C   0  0  0  0  0  0
  -26.2444  -12.9695   23.0308 C   0  0  0  0  0  0
  -27.8826  -12.5183   22.6239 C   0  0  0  0  0  0
  -22.4539  -16.3406   22.5265 N   0  0  0  0  0  0
  -22.9986  -14.3293   23.2145 N   0  0  0  0  0  0
  -25.6778  -21.2468   21.2228 N   0  0  0  0  0  0
  -25.2531  -14.1964   22.7108 N   0  0  0  0  0  0
  -28.7426  -12.2451   21.2608 N   0  0  0  0  0  0
  -31.8577  -12.2341   19.9592 H   0  0  0  0  0  0
  -30.8567  -11.1599   20.7736 H   0  0  0  0  0  0
  -29.8666  -10.7656   18.4286 H   0  0  0  0  0  0
  -30.3993  -12.2882   17.8538 H   0  0  0  0  0  0
  -27.6504  -11.4926   18.6843 H   0  0  0  0  0  0
  -28.0755  -12.6395   17.5084 H   0  0  0  0  0  0
  -27.6168  -14.4176   18.7670 H   0  0  0  0  0  0
  -28.1291  -14.6859   21.7810 H   0  0  0  0  0  0
  -28.9158  -15.4781   20.6466 H   0  0  0  0  0  0
  -25.2790   -9.8433   22.3790 H   0  0  0  0  0  0
  -24.1153   -7.6811   22.6821 H   0  0  0  0  0  0
  -21.0912   -8.9665   19.9109 H   0  0  0  0  0  0
  -22.2387  -11.1233   19.6420 H   0  0  0  0  0  0
  -21.2544   -7.6503   23.9750 H   0  0  0  0  0  0
  -21.1612   -6.0720   25.8945 H   0  0  0  0  0  0
  -22.0379   -2.7894   23.2525 H   0  0  0  0  0  0
  -25.1882  -15.7222   23.9402 H   0  0  0  0  0  0
  -23.6923  -16.6636   23.8202 H   0  0  0  0  0  0
  -24.7310  -15.8852   19.0165 H   0  0  0  0  0  0
  -26.3056  -15.4620   18.6225 H   0  0  0  0  0  0
  -26.7632  -32.4419   23.0596 H   0  0  0  0  0  0
  -25.0115  -33.9097   24.9834 H   0  0  0  0  0  0
  -22.8623  -31.2581   21.3333 H   0  0  0  0  0  0
  -23.3806  -35.9315   23.3214 H   0  0  0  0  0  0
  -24.3564  -36.8827   22.2089 H   0  0  0  0  0  0
  -23.7227  -37.6147   23.6840 H   0  0  0  0  0  0
  -26.3935  -30.9163   20.7060 H   0  0  0  0  0  0
  -26.9164  -30.2754   22.2003 H   0  0  0  0  0  0
  -27.5524  -27.5154   21.8420 H   0  0  0  0  0  0
  -25.2674  -25.5110   18.8322 H   0  0  0  0  0  0
  -23.9526  -27.4685   18.5719 H   0  0  0  0  0  0
  -24.0480  -30.5136   19.3923 H   0  0  0  0  0  0
  -22.8367  -29.3152   19.7279 H   0  0  0  0  0  0
  -25.1400  -36.1441   25.0728 H   0  0  0  0  0  0
  -21.0063  -28.3449   24.1192 H   0  0  0  0  0  0
  -20.5595  -26.2422   23.3682 H   0  0  0  0  0  0
  -21.6634  -26.7321   22.1242 H   0  0  0  0  0  0
  -19.6912  -25.6235   21.1296 H   0  0  0  0  0  0
  -19.6712  -27.3101   20.6686 H   0  0  0  0  0  0
  -17.4209  -26.6687   21.4005 H   0  0  0  0  0  0
  -18.0326  -26.0106   22.9013 H   0  0  0  0  0  0
  -19.7996  -30.7329   24.2143 H   0  0  0  0  0  0
  -17.5067  -31.6271   24.5171 H   0  0  0  0  0  0
  -15.5390  -30.2977   23.7730 H   0  0  0  0  0  0
  -15.8699  -28.0810   22.7137 H   0  0  0  0  0  0
  -24.5879  -30.7197   25.7678 H   0  0  0  0  0  0
  -24.8765  -32.3214   26.4356 H   0  0  0  0  0  0
  -25.7739  -30.9403   27.0362 H   0  0  0  0  0  0
  -26.3406  -29.6083   24.2443 H   0  0  0  0  0  0
  -27.4158  -29.7525   25.6041 H   0  0  0  0  0  0
  -27.9407  -30.3711   24.0656 H   0  0  0  0  0  0
  -27.2511  -33.3877   26.1779 H   0  0  0  0  0  0
  -28.4005  -32.6819   25.0511 H   0  0  0  0  0  0
  -28.0529  -31.8868   26.5789 H   0  0  0  0  0  0
  -28.2482  -38.0049   24.7553 H   0  0  0  0  0  0
  -28.1143  -36.2565   24.6229 H   0  0  0  0  0  0
  -27.2275  -37.1220   25.8858 H   0  0  0  0  0  0
  -20.9647  -29.8694   21.6432 H   0  0  0  0  0  0
  -26.0029  -38.2576   24.1466 H   0  0  0  0  0  0
  -26.7328  -16.2839   21.4952 H   0  0  0  0  0  0
  -24.7111  -23.2044   20.6556 H   0  0  0  0  0  0
  -23.7433  -19.8625   21.9400 H   0  0  0  0  0  0
  -24.1251  -19.5198   20.3329 H   0  0  0  0  0  0
  -26.3316  -13.0637   24.1138 H   0  0  0  0  0  0
  -25.6471  -12.0648   22.9787 H   0  0  0  0  0  0
  -27.9974  -11.5629   23.1351 H   0  0  0  0  0  0
  -28.5051  -13.1573   23.2516 H   0  0  0  0  0  0
  -28.2199  -11.7024   20.5861 H   0  0  0  0  0  0
  1 25  1  0  0  0
  1 30  2  0  0  0
  1 81  1  0  0  0
  2  3  1  0  0  0
  2 25  1  0  0  0
  2 82  1  0  0  0
  2 83  1  0  0  0
  3  4  1  0  0  0
  3 84  1  0  0  0
  3 85  1  0  0  0
  4  5  1  0  0  0
  4 86  1  0  0  0
  4 87  1  0  0  0
  5  6  1  0  0  0
  5 26  1  0  0  0
  5 88  1  0  0  0
  6 25  1  0  0  0
  6 89  1  0  0  0
  6 90  1  0  0  0
  7  8  2  0  0  0
  7 26  1  0  0  0
  7 29  1  0  0  0
  8  9  1  0  0  0
  8 22  1  0  0  0
  9 10  1  0  0  0
  9 27  2  0  0  0
 10 11  2  0  0  0
 10 15  1  0  0  0
 11 12  1  0  0  0
 11 91  1  0  0  0
 12 13  2  0  0  0
 12 92  1  0  0  0
 13 14  1  0  0  0
 13 31  1  0  0  0
 14 15  2  0  0  0
 14 93  1  0  0  0
 15 94  1  0  0  0
 16 17  2  0  0  0
 16 21  1  0  0  0
 16 31  1  0  0  0
 17 18  1  0  0  0
 17 95  1  0  0  0
 18 19  2  0  0  0
 18 96  1  0  0  0
 19 20  1  0  0  0
 19 24  1  0  0  0
 20 21  2  0  0  0
 20 97  1  0  0  0
 21 23  1  0  0  0
 22 28  1  0  0  0
 22 32  2  0  0  0
 26 27  1  0  0  0
 28 98  1  0  0  0
 28 99  1  0  0  0
 29100  1  0  0  0
 29101  1  0  0  0
 33 34  1  0  0  0
 33 66  1  0  0  0
 33 70  2  0  0  0
 34 36  1  0  0  0
 34 59  1  0  0  0
 34102  1  0  0  0
 35 44  2  0  0  0
 35 45  1  0  0  0
 35 68  1  0  0  0
 36 56  1  0  0  0
 36103  1  0  0  0
 37 39  1  0  0  0
 37 47  1  0  0  0
 37 66  1  0  0  0
 37104  1  0  0  0
 38 43  2  0  0  0
 38 46  1  0  0  0
 38 47  1  0  0  0
 39 64  1  0  0  0
 39 67  2  0  0  0
 40 52  1  0  0  0
 40 53  2  0  0  0
 40 58  1  0  0  0
 41105  1  0  0  0
 41106  1  0  0  0
 41107  1  0  0  0
 41 48  1  0  0  0
 42 43  1  0  0  0
 42 66  1  0  0  0
 42108  1  0  0  0
 42109  1  0  0  0
 43 44  1  0  0  0
 44110  1  0  0  0
 45 46  2  0  0  0
 45111  1  0  0  0
 46112  1  0  0  0
 47113  1  0  0  0
 47114  1  0  0  0
 48 56  1  0  0  0
 48 65  1  0  0  0
 48115  1  0  0  0
 49 50  1  0  0  0
 49 53  1  0  0  0
 49 64  1  0  0  0
 49116  1  0  0  0
 50 51  1  0  0  0
 50117  1  0  0  0
 50118  1  0  0  0
 51 52  1  0  0  0
 51119  1  0  0  0
 51120  1  0  0  0
 52121  1  0  0  0
 52122  1  0  0  0
 53 54  1  0  0  0
 54 55  2  0  0  0
 54123  1  0  0  0
 55 57  1  0  0  0
 55124  1  0  0  0
 56 69  2  0  0  0
 57 58  2  0  0  0
 57125  1  0  0  0
 58126  1  0  0  0
 59 60  1  0  0  0
 59 61  1  0  0  0
 59 62  1  0  0  0
 60127  1  0  0  0
 60128  1  0  0  0
 60129  1  0  0  0
 61130  1  0  0  0
 61131  1  0  0  0
 61132  1  0  0  0
 62133  1  0  0  0
 62134  1  0  0  0
 62135  1  0  0  0
 63 65  1  0  0  0
 63136  1  0  0  0
 63137  1  0  0  0
 63138  1  0  0  0
 64139  1  0  0  0
 65140  1  0  0  0
 68 73  1  0  0  0
 71 72  2  0  0  0
 71 80  1  0  0  0
 71141  1  0  0  0
 72 74  1  0  0  0
 72 77  1  0  0  0
 73 79  2  0  0  0
 73142  1  0  0  0
 74 79  1  0  0  0
 74143  1  0  0  0
 74144  1  0  0  0
 75 76  1  0  0  0
 75 80  1  0  0  0
 75145  1  0  0  0
 75146  1  0  0  0
 76 81  1  0  0  0
 76147  1  0  0  0
 76148  1  0  0  0
 77 78  2  0  0  0
 78 80  1  0  0  0
 81149  1  0  0  0
M  ISO  4   1 100  68 101  73 101  81 100
M  END
> <chiral flag>
0

> <version>
0

> <s_m_source_file>
/data/baiqing/PycharmProjects/Reinvent-master-3.2/result/LINK_invent/BTK/process_docking_weight1_custom_sum_contain_oxygen_bond_distance_aromatic_linkinvent_7_9_3/rearranged_h_0192.sdf

> <i_m_source_file_index>
62

> <r_mmod_Potential_Energy-OPLS-2005>
24167.68359375

> <r_mmod_Stretch_Energy-OPLS-2005>
13034.568359375

> <r_mmod_Bend_Energy-OPLS-2005>
1863.77282714844

> <r_mmod_Torsional_Energy-OPLS-2005>
497.064666748047

> <r_mmod_Improper_Torsional_Energy-OPLS-2005>
40.6231536865234

> <r_mmod_Van_der_Waal_Energy-OPLS-2005>
4351.9482421875

> <r_mmod_Electrostatic_Energy-OPLS-2005>
-332.292266845703

> <r_mmod_Solvation_Energy-OPLS-2005>
-255.736251831055

> <b_mmod_Minimization_Converged-OPLS-2005>
0

> <r_mmod_RMS_Derivative-OPLS-2005>
4.43445730209351

$$$$
62
                    3D
 Structure written by MMmdl.
155164  0  0  1  0            999 V2000
  -30.4140  -15.3230   20.4480 C   0  0  0  0  0  0
  -30.4310  -12.8627   19.5361 C   0  0  0  0  0  0
  -29.5303  -12.6035   18.2975 C   0  0  0  0  0  0
  -28.0793  -12.3191   18.7192 C   0  0  0  0  0  0
  -27.6058  -13.2860   19.8303 C   0  0  2  0  0  0
  -28.6310  -13.4700   20.9722 C   0  0  0  0  0  0
  -25.2349  -13.8311   20.5800 C   0  0  0  0  0  0
  -24.1767  -13.0482   20.9256 C   0  0  0  0  0  0
  -24.6422  -11.6953   20.8778 C   0  0  0  0  0  0
  -23.9146  -10.4291   21.0403 C   0  0  0  0  0  0
  -24.3682   -9.4183   21.9171 C   0  0  0  0  0  0
  -23.6285   -8.2268   22.0763 C   0  0  0  0  0  0
  -22.4267   -8.0314   21.3555 C   0  0  0  0  0  0
  -21.9945   -9.0313   20.4686 C   0  0  0  0  0  0
  -22.7319  -10.2150   20.3038 C   0  0  0  0  0  0
  -21.6859   -6.0733   22.5275 C   0  0  0  0  0  0
  -21.4005   -6.5642   23.8206 C   0  0  0  0  0  0
  -21.3651   -5.6802   24.9182 C   0  0  0  0  0  0
  -21.6037   -4.3063   24.7231 C   0  0  0  0  0  0
  -21.8832   -3.8143   23.4359 C   0  0  0  0  0  0
  -21.9185   -4.6957   22.3397 C   0  0  0  0  0  0
  -22.7738  -13.5162   21.1935 C   0  0  0  0  0  0
  -22.1655   -4.2152   21.0966 F   0  0  0  0  0  0
  -21.5633   -3.4544   25.7736 F   0  0  0  0  0  0
  -29.8589  -14.0020   20.3616 N   0  0  0  0  0  0
  -26.2765  -12.9613   20.3236 N   0  0  0  0  0  0
  -25.9342  -11.6699   20.5754 N   0  0  0  0  0  0
  -22.0424  -12.8123   22.0483 N   0  0  0  0  0  0
  -25.4060  -15.2081   20.4390 N   0  0  0  0  0  0
  -31.6074  -15.3227   20.0999 O   0  0  0  0  0  0
  -21.6649   -6.8897   21.4227 O   0  0  0  0  0  0
  -22.3436  -14.5494   20.6809 O   0  0  0  0  0  0
  -24.6622  -31.8221   23.1720 C   0  0  0  0  0  0
  -25.9302  -32.4576   23.8208 C   0  0  1  0  0  0
  -27.2051  -26.8807   20.2446 C   0  0  0  0  0  0
  -25.5954  -33.8390   24.2084 N   0  0  0  0  0  0
  -23.4863  -30.4307   21.5149 C   0  0  2  0  0  0
  -24.9402  -28.8026   20.1172 C   0  0  0  0  0  0
  -22.7677  -29.4432   22.4710 C   0  0  0  0  0  0
  -18.0314  -28.1359   22.8471 C   0  0  0  0  0  0
  -24.1478  -36.7185   23.2663 C   0  0  0  0  0  0
  -26.0512  -30.6150   21.4084 C   0  0  0  0  0  0
  -26.1136  -29.1996   20.7663 C   0  0  0  0  0  0
  -27.2399  -28.2601   20.8013 C   0  0  0  0  0  0
  -26.0099  -26.6505   19.5331 C   0  0  0  0  0  0
  -24.9126  -27.5551   19.4723 C   0  0  0  0  0  0
  -23.7317  -29.7396   20.1470 C   0  0  0  0  0  0
  -25.4098  -36.2945   24.0304 C   0  0  1  0  0  0
  -20.5969  -28.3718   23.1141 C   0  0  2  0  0  0
  -20.6812  -26.9396   22.5392 C   0  0  0  0  0  0
  -19.5755  -26.6350   21.5230 C   0  0  0  0  0  0
  -18.1885  -26.7923   22.1584 C   0  0  0  0  0  0
  -19.1594  -28.8860   23.2797 C   0  0  0  0  0  0
  -18.9504  -30.1468   23.8829 C   0  0  0  0  0  0
  -17.6488  -30.6582   24.0526 C   0  0  0  0  0  0
  -25.9073  -34.9333   23.5010 C   0  0  0  0  0  0
  -16.5398  -29.9040   23.6360 C   0  0  0  0  0  0
  -16.7291  -28.6468   23.0379 C   0  0  0  0  0  0
  -26.4553  -31.6563   25.0768 C   0  0  0  0  0  0
  -25.3701  -31.3831   26.1458 C   0  0  0  0  0  0
  -27.0468  -30.2920   24.6574 C   0  0  0  0  0  0
  -27.6068  -32.4417   25.7497 C   0  0  0  0  0  0
  -27.5490  -37.1766   24.8468 C   0  0  0  0  0  0
  -21.4308  -29.3006   22.3436 N   0  0  0  0  0  0
  -26.4259  -37.3678   23.9347 N   0  0  0  0  0  0
  -24.7560  -30.9842   22.0873 N   0  0  0  0  0  0
  -23.4211  -28.8024   23.2968 O   0  0  0  0  0  0
  -28.2590  -25.8168   20.2819 O   0  0  0  0  0  0
  -26.5704  -34.8851   22.4605 O   0  0  0  0  0  0
  -23.5644  -32.1238   23.6773 O   0  0  0  0  0  0
  -29.5790  -22.2056   19.9688 C   0  0  0  0  0  0
  -28.8100  -21.1928   20.6956 C   0  0  0  0  0  0
  -27.6570  -22.0186   21.1660 C   0  0  0  0  0  0
  -28.2779  -24.2989   20.3307 C   0  0  0  0  0  0
  -28.2999  -18.5355   21.7577 C   0  0  0  0  0  0
  -28.8269  -17.0074   21.8082 C   0  0  0  0  0  0
  -29.7996  -18.1547   20.0715 C   0  0  0  0  0  0
  -29.3210  -19.5007   21.0592 C   0  0  1  0  0  0
  -26.4862  -21.3718   21.9300 C   0  0  0  0  0  0
  -29.3458  -23.6059   19.8290 N   0  0  0  0  0  0
  -27.4426  -23.4370   21.0049 N   0  0  0  0  0  0
  -29.6776  -16.6282   20.6325 N   0  0  0  0  0  0
  -30.4488  -19.6541   22.0291 N   0  3  0  0  0  0
  -31.4472  -13.0756   19.1929 H   0  0  0  0  0  0
  -30.5073  -11.9536   20.1384 H   0  0  0  0  0  0
  -29.9172  -11.7686   17.7178 H   0  0  0  0  0  0
  -29.5589  -13.4653   17.6300 H   0  0  0  0  0  0
  -28.0451  -11.2934   19.0938 H   0  0  0  0  0  0
  -27.4101  -12.3650   17.8583 H   0  0  0  0  0  0
  -27.5216  -14.2573   19.3390 H   0  0  0  0  0  0
  -28.8193  -12.5419   21.5108 H   0  0  0  0  0  0
  -28.2533  -14.1756   21.7082 H   0  0  0  0  0  0
  -25.2832   -9.5667   22.4764 H   0  0  0  0  0  0
  -24.0006   -7.4651   22.7478 H   0  0  0  0  0  0
  -21.0873   -8.8855   19.8992 H   0  0  0  0  0  0
  -22.3780  -10.9714   19.6173 H   0  0  0  0  0  0
  -21.1999   -7.6153   23.9720 H   0  0  0  0  0  0
  -21.1454   -6.0530   25.9099 H   0  0  0  0  0  0
  -22.0605   -2.7599   23.2849 H   0  0  0  0  0  0
  -22.4062  -11.9716   22.4740 H   0  0  0  0  0  0
  -21.1075  -13.1196   22.2812 H   0  0  0  0  0  0
  -24.6477  -15.8652   20.5833 H   0  0  0  0  0  0
  -26.2745  -15.6557   20.1819 H   0  0  0  0  0  0
  -26.7396  -32.5104   23.0944 H   0  0  0  0  0  0
  -25.0251  -33.9571   25.0312 H   0  0  0  0  0  0
  -22.8054  -31.2631   21.3372 H   0  0  0  0  0  0
  -23.3720  -35.9559   23.3442 H   0  0  0  0  0  0
  -24.3556  -36.8721   22.2069 H   0  0  0  0  0  0
  -23.7328  -37.6427   23.6681 H   0  0  0  0  0  0
  -26.2442  -31.3512   20.6281 H   0  0  0  0  0  0
  -26.9055  -30.6786   22.0655 H   0  0  0  0  0  0
  -28.1279  -28.5708   21.3348 H   0  0  0  0  0  0
  -25.8947  -25.6982   19.0355 H   0  0  0  0  0  0
  -24.0221  -27.2525   18.9330 H   0  0  0  0  0  0
  -23.8768  -30.5035   19.3860 H   0  0  0  0  0  0
  -22.8456  -29.1990   19.8337 H   0  0  0  0  0  0
  -25.1325  -36.1780   25.0831 H   0  0  0  0  0  0
  -21.0052  -28.3321   24.1269 H   0  0  0  0  0  0
  -20.5604  -26.2335   23.3653 H   0  0  0  0  0  0
  -21.6641  -26.7342   22.1154 H   0  0  0  0  0  0
  -19.6912  -25.6295   21.1232 H   0  0  0  0  0  0
  -19.6662  -27.3095   20.6739 H   0  0  0  0  0  0
  -17.4177  -26.6708   21.3954 H   0  0  0  0  0  0
  -18.0255  -26.0079   22.9004 H   0  0  0  0  0  0
  -19.7996  -30.7265   24.2124 H   0  0  0  0  0  0
  -17.5062  -31.6275   24.5130 H   0  0  0  0  0  0
  -15.5400  -30.2865   23.7751 H   0  0  0  0  0  0
  -15.8701  -28.0719   22.7111 H   0  0  0  0  0  0
  -24.5867  -30.7212   25.7786 H   0  0  0  0  0  0
  -24.8903  -32.3038   26.4847 H   0  0  0  0  0  0
  -25.7926  -30.9061   27.0312 H   0  0  0  0  0  0
  -26.3181  -29.6560   24.1555 H   0  0  0  0  0  0
  -27.3940  -29.7371   25.5291 H   0  0  0  0  0  0
  -27.9133  -30.4091   24.0045 H   0  0  0  0  0  0
  -27.2744  -33.3860   26.1812 H   0  0  0  0  0  0
  -28.3953  -32.6759   25.0345 H   0  0  0  0  0  0
  -28.0648  -31.8752   26.5624 H   0  0  0  0  0  0
  -28.2591  -37.9951   24.7363 H   0  0  0  0  0  0
  -28.0913  -36.2518   24.6524 H   0  0  0  0  0  0
  -27.2229  -37.1649   25.8877 H   0  0  0  0  0  0
  -20.9545  -29.8800   21.6651 H   0  0  0  0  0  0
  -26.0104  -38.2746   24.1332 H   0  0  0  0  0  0
  -30.5061  -21.8935   19.5096 H   0  0  0  0  0  0
  -28.0273  -18.8659   22.7680 H   0  0  0  0  0  0
  -27.3742  -18.5427   21.1807 H   0  0  0  0  0  0
  -27.9579  -16.3477   21.8950 H   0  0  0  0  0  0
  -29.4108  -16.8611   22.7248 H   0  0  0  0  0  0
  -30.7982  -18.3195   19.6638 H   0  0  0  0  0  0
  -29.1535  -18.1695   19.1945 H   0  0  0  0  0  0
  -26.7986  -20.8388   22.8250 H   0  0  0  0  0  0
  -25.9228  -20.6869   21.2918 H   0  0  0  0  0  0
  -25.7679  -22.1228   22.2744 H   0  0  0  0  0  0
  -30.3513  -20.4415   22.6506 H   0  0  0  0  0  0
  -31.3393  -19.7409   21.5580 H   0  0  0  0  0  0
  -30.5185  -18.8341   22.6108 H   0  0  0  0  0  0
  1 25  1  0  0  0
  1 30  2  0  0  0
  1 82  1  0  0  0
  2  3  1  0  0  0
  2 25  1  0  0  0
  2 84  1  0  0  0
  2 85  1  0  0  0
  3  4  1  0  0  0
  3 86  1  0  0  0
  3 87  1  0  0  0
  4  5  1  0  0  0
  4 88  1  0  0  0
  4 89  1  0  0  0
  5  6  1  0  0  0
  5 26  1  0  0  0
  5 90  1  0  0  0
  6 25  1  0  0  0
  6 91  1  0  0  0
  6 92  1  0  0  0
  7  8  2  0  0  0
  7 26  1  0  0  0
  7 29  1  0  0  0
  8  9  1  0  0  0
  8 22  1  0  0  0
  9 10  1  0  0  0
  9 27  2  0  0  0
 10 11  2  0  0  0
 10 15  1  0  0  0
 11 12  1  0  0  0
 11 93  1  0  0  0
 12 13  2  0  0  0
 12 94  1  0  0  0
 13 14  1  0  0  0
 13 31  1  0  0  0
 14 15  2  0  0  0
 14 95  1  0  0  0
 15 96  1  0  0  0
 16 17  2  0  0  0
 16 21  1  0  0  0
 16 31  1  0  0  0
 17 18  1  0  0  0
 17 97  1  0  0  0
 18 19  2  0  0  0
 18 98  1  0  0  0
 19 20  1  0  0  0
 19 24  1  0  0  0
 20 21  2  0  0  0
 20 99  1  0  0  0
 21 23  1  0  0  0
 22 28  1  0  0  0
 22 32  2  0  0  0
 26 27  1  0  0  0
 28100  1  0  0  0
 28101  1  0  0  0
 29102  1  0  0  0
 29103  1  0  0  0
 33 34  1  0  0  0
 33 66  1  0  0  0
 33 70  2  0  0  0
 34 36  1  0  0  0
 34 59  1  0  0  0
 34104  1  0  0  0
 35 44  2  0  0  0
 35 45  1  0  0  0
 35 68  1  0  0  0
 36 56  1  0  0  0
 36105  1  0  0  0
 37 39  1  0  0  0
 37 47  1  0  0  0
 37 66  1  0  0  0
 37106  1  0  0  0
 38 43  2  0  0  0
 38 46  1  0  0  0
 38 47  1  0  0  0
 39 64  1  0  0  0
 39 67  2  0  0  0
 40 52  1  0  0  0
 40 53  2  0  0  0
 40 58  1  0  0  0
 41107  1  0  0  0
 41108  1  0  0  0
 41109  1  0  0  0
 41 48  1  0  0  0
 42 43  1  0  0  0
 42 66  1  0  0  0
 42110  1  0  0  0
 42111  1  0  0  0
 43 44  1  0  0  0
 44112  1  0  0  0
 45 46  2  0  0  0
 45113  1  0  0  0
 46114  1  0  0  0
 47115  1  0  0  0
 47116  1  0  0  0
 48 56  1  0  0  0
 48 65  1  0  0  0
 48117  1  0  0  0
 49 50  1  0  0  0
 49 53  1  0  0  0
 49 64  1  0  0  0
 49118  1  0  0  0
 50 51  1  0  0  0
 50119  1  0  0  0
 50120  1  0  0  0
 51 52  1  0  0  0
 51121  1  0  0  0
 51122  1  0  0  0
 52123  1  0  0  0
 52124  1  0  0  0
 53 54  1  0  0  0
 54 55  2  0  0  0
 54125  1  0  0  0
 55 57  1  0  0  0
 55126  1  0  0  0
 56 69  2  0  0  0
 57 58  2  0  0  0
 57127  1  0  0  0
 58128  1  0  0  0
 59 60  1  0  0  0
 59 61  1  0  0  0
 59 62  1  0  0  0
 60129  1  0  0  0
 60130  1  0  0  0
 60131  1  0  0  0
 61132  1  0  0  0
 61133  1  0  0  0
 61134  1  0  0  0
 62135  1  0  0  0
 62136  1  0  0  0
 62137  1  0  0  0
 63 65  1  0  0  0
 63138  1  0  0  0
 63139  1  0  0  0
 63140  1  0  0  0
 64141  1  0  0  0
 65142  1  0  0  0
 68 74  1  0  0  0
 71 72  2  0  0  0
 71 80  1  0  0  0
 71143  1  0  0  0
 72 73  1  0  0  0
 72 78  1  0  0  0
 73 79  1  0  0  0
 73 81  2  0  0  0
 74 80  2  0  0  0
 74 81  1  0  0  0
 75 76  1  0  0  0
 75 78  1  0  0  0
 75144  1  0  0  0
 75145  1  0  0  0
 76 82  1  0  0  0
 76146  1  0  0  0
 76147  1  0  0  0
 77 78  1  0  0  0
 77 82  1  0  0  0
 77148  1  0  0  0
 77149  1  0  0  0
 78 83  1  0  0  0
 79150  1  0  0  0
 79151  1  0  0  0
 79152  1  0  0  0
 83153  1  0  0  0
 83154  1  0  0  0
 83155  1  0  0  0
M  CHG  1  83   1
M  ISO  4   1 100  68 101  74 101  82 100
M  END
> <chiral flag>
0

> <version>
0

> <s_m_source_file>
/data/baiqing/PycharmProjects/Reinvent-master-3.2/result/LINK_invent/BTK/process_docking_weight1_custom_sum_contain_oxygen_bond_distance_aromatic_linkinvent_7_9_3/rearranged_h_0192.sdf

> <i_m_source_file_index>
63

> <r_mmod_Potential_Energy-OPLS-2005>
972.170288085938

> <r_mmod_Stretch_Energy-OPLS-2005>
551.9111328125

> <r_mmod_Bend_Energy-OPLS-2005>
528.98828125

> <r_mmod_Torsional_Energy-OPLS-2005>
359.974609375

> <r_mmod_Improper_Torsional_Energy-OPLS-2005>
9.6071834564209

> <r_mmod_Van_der_Waal_Energy-OPLS-2005>
122.318328857422

> <r_mmod_Electrostatic_Energy-OPLS-2005>
-590.633666992188

> <r_mmod_Solvation_Energy-OPLS-2005>
-518.587280273438

> <b_mmod_Minimization_Converged-OPLS-2005>
0

> <r_mmod_RMS_Derivative-OPLS-2005>
10.9721298217773

$$$$
63
                    3D
 Structure written by MMmdl.
157166  0  0  1  0            999 V2000
  -30.5211  -14.8520   20.4373 C   0  0  0  0  0  0
  -30.4583  -12.5396   19.4492 C   0  0  0  0  0  0
  -29.5133  -12.4968   18.2258 C   0  0  0  0  0  0
  -28.0437  -12.3027   18.6541 C   0  0  0  0  0  0
  -27.6312  -13.2228   19.8318 C   0  0  2  0  0  0
  -28.6807  -13.2096   20.9597 C   0  0  0  0  0  0
  -25.2514  -13.8165   20.5691 C   0  0  0  0  0  0
  -24.1797  -13.0425   20.9228 C   0  0  0  0  0  0
  -24.6379  -11.6912   20.8767 C   0  0  0  0  0  0
  -23.9053  -10.4299   21.0425 C   0  0  0  0  0  0
  -24.3615   -9.4213   21.9184 C   0  0  0  0  0  0
  -23.6296   -8.2230   22.0763 C   0  0  0  0  0  0
  -22.4277   -8.0265   21.3545 C   0  0  0  0  0  0
  -21.9908   -9.0243   20.4659 C   0  0  0  0  0  0
  -22.7221  -10.2136   20.3070 C   0  0  0  0  0  0
  -21.6853   -6.0723   22.5269 C   0  0  0  0  0  0
  -21.4021   -6.5636   23.8195 C   0  0  0  0  0  0
  -21.3661   -5.6792   24.9164 C   0  0  0  0  0  0
  -21.6041   -4.3048   24.7217 C   0  0  0  0  0  0
  -21.8829   -3.8135   23.4339 C   0  0  0  0  0  0
  -21.9198   -4.6953   22.3396 C   0  0  0  0  0  0
  -22.7833  -13.5261   21.1861 C   0  0  0  0  0  0
  -22.1650   -4.2137   21.0972 F   0  0  0  0  0  0
  -21.5639   -3.4532   25.7730 F   0  0  0  0  0  0
  -29.9569  -13.5973   20.3527 N   0  0  0  0  0  0
  -26.2891  -12.9326   20.3216 N   0  0  0  0  0  0
  -25.9283  -11.6490   20.5719 N   0  0  0  0  0  0
  -22.0415  -12.8254   22.0375 N   0  0  0  0  0  0
  -25.4146  -15.1893   20.4064 N   0  0  0  0  0  0
  -31.7448  -14.9664   20.2742 O   0  0  0  0  0  0
  -21.6634   -6.8858   21.4225 O   0  0  0  0  0  0
  -22.3554  -14.5575   20.6702 O   0  0  0  0  0  0
  -24.6344  -31.8507   23.1893 C   0  0  0  0  0  0
  -25.9155  -32.4743   23.8274 C   0  0  1  0  0  0
  -27.2203  -27.2222   20.1268 C   0  0  0  0  0  0
  -25.5937  -33.8557   24.2216 N   0  0  0  0  0  0
  -23.4316  -30.4691   21.5326 C   0  0  2  0  0  0
  -24.8761  -28.8981   20.1030 C   0  0  0  0  0  0
  -22.7518  -29.4589   22.4889 C   0  0  0  0  0  0
  -18.0288  -28.1400   22.8498 C   0  0  0  0  0  0
  -24.1458  -36.7256   23.2637 C   0  0  0  0  0  0
  -25.9745  -30.7512   21.3646 C   0  0  0  0  0  0
  -26.0442  -29.3653   20.7164 C   0  0  0  0  0  0
  -27.2120  -28.5362   20.7194 C   0  0  0  0  0  0
  -26.0324  -26.8222   19.4803 C   0  0  0  0  0  0
  -24.8779  -27.6408   19.4731 C   0  0  0  0  0  0
  -23.6462  -29.7905   20.1515 C   0  0  0  0  0  0
  -25.4107  -36.3087   24.0332 C   0  0  1  0  0  0
  -20.5896  -28.3700   23.1263 C   0  0  2  0  0  0
  -20.6771  -26.9415   22.5406 C   0  0  0  0  0  0
  -19.5742  -26.6383   21.5212 C   0  0  0  0  0  0
  -18.1921  -26.7945   22.1629 C   0  0  0  0  0  0
  -19.1546  -28.8877   23.2875 C   0  0  0  0  0  0
  -18.9468  -30.1478   23.8891 C   0  0  0  0  0  0
  -17.6467  -30.6596   24.0575 C   0  0  0  0  0  0
  -25.9058  -34.9457   23.5081 C   0  0  0  0  0  0
  -16.5360  -29.9101   23.6334 C   0  0  0  0  0  0
  -16.7282  -28.6525   23.0358 C   0  0  0  0  0  0
  -26.4496  -31.6591   25.0688 C   0  0  0  0  0  0
  -25.3690  -31.3772   26.1389 C   0  0  0  0  0  0
  -27.0320  -30.3021   24.6158 C   0  0  0  0  0  0
  -27.6067  -32.4311   25.7476 C   0  0  0  0  0  0
  -27.5564  -37.1792   24.8486 C   0  0  0  0  0  0
  -21.4211  -29.3048   22.3647 N   0  0  0  0  0  0
  -26.4272  -37.3804   23.9432 N   0  0  0  0  0  0
  -24.7002  -31.0452   22.0861 N   0  0  0  0  0  0
  -23.4223  -28.8149   23.3001 O   0  0  0  0  0  0
  -28.3380  -26.3576   20.2400 O   0  0  0  0  0  0
  -26.5623  -34.8944   22.4634 O   0  0  0  0  0  0
  -23.5489  -32.1332   23.7188 O   0  0  0  0  0  0
  -28.7228  -18.5014   22.5315 C   0  0  0  0  0  0
  -29.0260  -19.5745   20.5915 C   0  0  0  0  0  0
  -29.5221  -17.2797   20.8138 C   0  0  0  0  0  0
  -28.5223  -19.3061   25.0271 C   0  0  0  0  0  0
  -28.5127  -17.8006   25.0882 C   0  0  0  0  0  0
  -27.9968  -18.5069   23.8519 C   0  0  0  0  0  0
  -28.7803  -20.9473   19.7824 C   0  0  0  0  0  0
  -27.9366  -23.5401   20.2765 C   0  0  0  0  0  0
  -28.5205  -24.9540   19.6829 C   0  0  0  0  0  0
  -28.6729  -19.6551   21.8680 N   0  0  0  0  0  0
  -29.1455  -17.3173   22.0877 N   0  0  0  0  0  0
  -29.4279  -18.3907   20.0038 N   0  0  0  0  0  0
  -29.6476  -15.9409   20.2922 N   0  0  0  0  0  0
  -28.8379  -22.2881   20.5504 N   0  3  0  0  0  0
  -31.4742  -12.7582   19.1150 H   0  0  0  0  0  0
  -30.5000  -11.5802   19.9661 H   0  0  0  0  0  0
  -29.8146  -11.6959   17.5502 H   0  0  0  0  0  0
  -29.6132  -13.4233   17.6577 H   0  0  0  0  0  0
  -27.9273  -11.2583   18.9487 H   0  0  0  0  0  0
  -27.3750  -12.4553   17.8073 H   0  0  0  0  0  0
  -27.5988  -14.2252   19.4094 H   0  0  0  0  0  0
  -28.7577  -12.2337   21.4373 H   0  0  0  0  0  0
  -28.3992  -13.9159   21.7416 H   0  0  0  0  0  0
  -25.2750   -9.5691   22.4773 H   0  0  0  0  0  0
  -23.9986   -7.4642   22.7507 H   0  0  0  0  0  0
  -21.0817   -8.8788   19.8992 H   0  0  0  0  0  0
  -22.3667  -10.9682   19.6201 H   0  0  0  0  0  0
  -21.2009   -7.6140   23.9699 H   0  0  0  0  0  0
  -21.1463   -6.0513   25.9067 H   0  0  0  0  0  0
  -22.0607   -2.7592   23.2840 H   0  0  0  0  0  0
  -22.3990  -11.9960   22.4865 H   0  0  0  0  0  0
  -21.1010  -13.1304   22.2465 H   0  0  0  0  0  0
  -24.6244  -15.8202   20.4938 H   0  0  0  0  0  0
  -26.2257  -15.6324   20.0015 H   0  0  0  0  0  0
  -26.7230  -32.5376   23.1018 H   0  0  0  0  0  0
  -25.0191  -33.9698   25.0441 H   0  0  0  0  0  0
  -22.7306  -31.2935   21.3835 H   0  0  0  0  0  0
  -23.3758  -35.9542   23.3311 H   0  0  0  0  0  0
  -24.3543  -36.8860   22.2049 H   0  0  0  0  0  0
  -23.7166  -37.6445   23.6631 H   0  0  0  0  0  0
  -26.0962  -31.4928   20.5719 H   0  0  0  0  0  0
  -26.8619  -30.8219   21.9820 H   0  0  0  0  0  0
  -28.1034  -28.8899   21.2183 H   0  0  0  0  0  0
  -25.9716  -25.8494   19.0131 H   0  0  0  0  0  0
  -23.9795  -27.2854   18.9852 H   0  0  0  0  0  0
  -23.7683  -30.5587   19.3869 H   0  0  0  0  0  0
  -22.7631  -29.2213   19.8572 H   0  0  0  0  0  0
  -25.1283  -36.1915   25.0825 H   0  0  0  0  0  0
  -21.0006  -28.3271   24.1375 H   0  0  0  0  0  0
  -20.5635  -26.2326   23.3623 H   0  0  0  0  0  0
  -21.6635  -26.7393   22.1214 H   0  0  0  0  0  0
  -19.6877  -25.6285   21.1250 H   0  0  0  0  0  0
  -19.6673  -27.3188   20.6740 H   0  0  0  0  0  0
  -17.4188  -26.6715   21.4029 H   0  0  0  0  0  0
  -18.0305  -26.0082   22.9022 H   0  0  0  0  0  0
  -19.7944  -30.7306   24.2242 H   0  0  0  0  0  0
  -17.5024  -31.6273   24.5175 H   0  0  0  0  0  0
  -15.5367  -30.3014   23.7649 H   0  0  0  0  0  0
  -15.8686  -28.0851   22.7060 H   0  0  0  0  0  0
  -24.5885  -30.7103   25.7695 H   0  0  0  0  0  0
  -24.8833  -32.2954   26.4704 H   0  0  0  0  0  0
  -25.7959  -30.9012   27.0218 H   0  0  0  0  0  0
  -26.2873  -29.6830   24.1136 H   0  0  0  0  0  0
  -27.3994  -29.7256   25.4646 H   0  0  0  0  0  0
  -27.8760  -30.4351   23.9397 H   0  0  0  0  0  0
  -27.2715  -33.3671   26.1963 H   0  0  0  0  0  0
  -28.3927  -32.6759   25.0321 H   0  0  0  0  0  0
  -28.0656  -31.8458   26.5454 H   0  0  0  0  0  0
  -28.2622  -38.0053   24.7528 H   0  0  0  0  0  0
  -28.1013  -36.2591   24.6305 H   0  0  0  0  0  0
  -27.2275  -37.1443   25.8889 H   0  0  0  0  0  0
  -20.9393  -29.8786   21.6852 H   0  0  0  0  0  0
  -26.0151  -38.2865   24.1451 H   0  0  0  0  0  0
  -29.4865  -19.7952   24.9202 H   0  0  0  0  0  0
  -27.7907  -19.8534   25.6177 H   0  0  0  0  0  0
  -27.7687  -17.3209   25.7240 H   0  0  0  0  0  0
  -29.4644  -17.2806   25.0119 H   0  0  0  0  0  0
  -26.9207  -18.5049   23.6935 H   0  0  0  0  0  0
  -27.8060  -20.8597   19.3024 H   0  0  0  0  0  0
  -29.5037  -21.0026   18.9699 H   0  0  0  0  0  0
  -27.4915  -23.7838   21.2394 H   0  0  0  0  0  0
  -27.0888  -23.2302   19.6653 H   0  0  0  0  0  0
  -29.6043  -24.8397   19.7003 H   0  0  0  0  0  0
  -28.3025  -24.9989   18.6148 H   0  0  0  0  0  0
  -28.7531  -15.6061   19.9795 H   0  0  0  0  0  0
  -28.5816  -21.9541   21.4706 H   0  0  0  0  0  0
  -29.8060  -22.5504   20.6236 H   0  0  0  0  0  0
  1 25  1  0  0  0
  1 30  2  0  0  0
  1 83  1  0  0  0
  2  3  1  0  0  0
  2 25  1  0  0  0
  2 85  1  0  0  0
  2 86  1  0  0  0
  3  4  1  0  0  0
  3 87  1  0  0  0
  3 88  1  0  0  0
  4  5  1  0  0  0
  4 89  1  0  0  0
  4 90  1  0  0  0
  5  6  1  0  0  0
  5 26  1  0  0  0
  5 91  1  0  0  0
  6 25  1  0  0  0
  6 92  1  0  0  0
  6 93  1  0  0  0
  7  8  2  0  0  0
  7 26  1  0  0  0
  7 29  1  0  0  0
  8  9  1  0  0  0
  8 22  1  0  0  0
  9 10  1  0  0  0
  9 27  2  0  0  0
 10 11  2  0  0  0
 10 15  1  0  0  0
 11 12  1  0  0  0
 11 94  1  0  0  0
 12 13  2  0  0  0
 12 95  1  0  0  0
 13 14  1  0  0  0
 13 31  1  0  0  0
 14 15  2  0  0  0
 14 96  1  0  0  0
 15 97  1  0  0  0
 16 17  2  0  0  0
 16 21  1  0  0  0
 16 31  1  0  0  0
 17 18  1  0  0  0
 17 98  1  0  0  0
 18 19  2  0  0  0
 18 99  1  0  0  0
 19 20  1  0  0  0
 19 24  1  0  0  0
 20 21  2  0  0  0
 20100  1  0  0  0
 21 23  1  0  0  0
 22 28  1  0  0  0
 22 32  2  0  0  0
 26 27  1  0  0  0
 28101  1  0  0  0
 28102  1  0  0  0
 29103  1  0  0  0
 29104  1  0  0  0
 33 34  1  0  0  0
 33 66  1  0  0  0
 33 70  2  0  0  0
 34 36  1  0  0  0
 34 59  1  0  0  0
 34105  1  0  0  0
 35 44  2  0  0  0
 35 45  1  0  0  0
 35 68  1  0  0  0
 36 56  1  0  0  0
 36106  1  0  0  0
 37 39  1  0  0  0
 37 47  1  0  0  0
 37 66  1  0  0  0
 37107  1  0  0  0
 38 43  2  0  0  0
 38 46  1  0  0  0
 38 47  1  0  0  0
 39 64  1  0  0  0
 39 67  2  0  0  0
 40 52  1  0  0  0
 40 53  2  0  0  0
 40 58  1  0  0  0
 41108  1  0  0  0
 41109  1  0  0  0
 41110  1  0  0  0
 41 48  1  0  0  0
 42 43  1  0  0  0
 42 66  1  0  0  0
 42111  1  0  0  0
 42112  1  0  0  0
 43 44  1  0  0  0
 44113  1  0  0  0
 45 46  2  0  0  0
 45114  1  0  0  0
 46115  1  0  0  0
 47116  1  0  0  0
 47117  1  0  0  0
 48 56  1  0  0  0
 48 65  1  0  0  0
 48118  1  0  0  0
 49 50  1  0  0  0
 49 53  1  0  0  0
 49 64  1  0  0  0
 49119  1  0  0  0
 50 51  1  0  0  0
 50120  1  0  0  0
 50121  1  0  0  0
 51 52  1  0  0  0
 51122  1  0  0  0
 51123  1  0  0  0
 52124  1  0  0  0
 52125  1  0  0  0
 53 54  1  0  0  0
 54 55  2  0  0  0
 54126  1  0  0  0
 55 57  1  0  0  0
 55127  1  0  0  0
 56 69  2  0  0  0
 57 58  2  0  0  0
 57128  1  0  0  0
 58129  1  0  0  0
 59 60  1  0  0  0
 59 61  1  0  0  0
 59 62  1  0  0  0
 60130  1  0  0  0
 60131  1  0  0  0
 60132  1  0  0  0
 61133  1  0  0  0
 61134  1  0  0  0
 61135  1  0  0  0
 62136  1  0  0  0
 62137  1  0  0  0
 62138  1  0  0  0
 63 65  1  0  0  0
 63139  1  0  0  0
 63140  1  0  0  0
 63141  1  0  0  0
 64142  1  0  0  0
 65143  1  0  0  0
 68 79  1  0  0  0
 71 80  2  0  0  0
 71 81  1  0  0  0
 71 76  1  0  0  0
 72 77  1  0  0  0
 72 80  1  0  0  0
 72 82  2  0  0  0
 73 81  2  0  0  0
 73 82  1  0  0  0
 73 83  1  0  0  0
 74 75  1  0  0  0
 74 76  1  0  0  0
 74144  1  0  0  0
 74145  1  0  0  0
 75 76  1  0  0  0
 75146  1  0  0  0
 75147  1  0  0  0
 76148  1  0  0  0
 77 84  1  0  0  0
 77149  1  0  0  0
 77150  1  0  0  0
 78 79  1  0  0  0
 78 84  1  0  0  0
 78151  1  0  0  0
 78152  1  0  0  0
 79153  1  0  0  0
 79154  1  0  0  0
 83155  1  0  0  0
 84156  1  0  0  0
 84157  1  0  0  0
M  CHG  1  84   1
M  ISO  4   1 100  68 101  79 101  83 100
M  END
> <chiral flag>
0

> <version>
0

> <s_m_source_file>
/data/baiqing/PycharmProjects/Reinvent-master-3.2/result/LINK_invent/BTK/process_docking_weight1_custom_sum_contain_oxygen_bond_distance_aromatic_linkinvent_7_9_3/rearranged_h_0192.sdf

> <i_m_source_file_index>
64

> <r_mmod_Potential_Energy-OPLS-2005>
-589.557922363281

> <r_mmod_Stretch_Energy-OPLS-2005>
147.05729675293

> <r_mmod_Bend_Energy-OPLS-2005>
237.462509155273

> <r_mmod_Torsional_Energy-OPLS-2005>
277.892150878906

> <r_mmod_Improper_Torsional_Energy-OPLS-2005>
17.7263927459717

> <r_mmod_Van_der_Waal_Energy-OPLS-2005>
137.838958740234

> <r_mmod_Electrostatic_Energy-OPLS-2005>
-1058.64904785156

> <r_mmod_Solvation_Energy-OPLS-2005>
-481.202484130859

> <b_mmod_Minimization_Converged-OPLS-2005>
0

> <r_mmod_RMS_Derivative-OPLS-2005>
4.49089622497559

$$$$
64
                    3D
 Structure written by MMmdl.
145153  0  0  1  0            999 V2000
  -30.4191  -15.2922   20.3626 C   0  0  0  0  0  0
  -30.4402  -12.8221   19.5394 C   0  0  0  0  0  0
  -29.5410  -12.5878   18.2978 C   0  0  0  0  0  0
  -28.0902  -12.3042   18.7217 C   0  0  0  0  0  0
  -27.6138  -13.2782   19.8276 C   0  0  2  0  0  0
  -28.6437  -13.4562   20.9655 C   0  0  0  0  0  0
  -25.2392  -13.8254   20.5747 C   0  0  0  0  0  0
  -24.1747  -13.0441   20.9261 C   0  0  0  0  0  0
  -24.6404  -11.6938   20.8757 C   0  0  0  0  0  0
  -23.9098  -10.4295   21.0402 C   0  0  0  0  0  0
  -24.3640   -9.4208   21.9182 C   0  0  0  0  0  0
  -23.6309   -8.2246   22.0752 C   0  0  0  0  0  0
  -22.4290   -8.0283   21.3542 C   0  0  0  0  0  0
  -21.9931   -9.0258   20.4644 C   0  0  0  0  0  0
  -22.7267  -10.2135   20.3052 C   0  0  0  0  0  0
  -21.6859   -6.0738   22.5280 C   0  0  0  0  0  0
  -21.4018   -6.5641   23.8213 C   0  0  0  0  0  0
  -21.3661   -5.6794   24.9174 C   0  0  0  0  0  0
  -21.6045   -4.3056   24.7225 C   0  0  0  0  0  0
  -21.8819   -3.8148   23.4346 C   0  0  0  0  0  0
  -21.9195   -4.6966   22.3402 C   0  0  0  0  0  0
  -22.7761  -13.5190   21.1903 C   0  0  0  0  0  0
  -22.1662   -4.2152   21.0979 F   0  0  0  0  0  0
  -21.5627   -3.4539   25.7736 F   0  0  0  0  0  0
  -29.8784  -13.9700   20.3484 N   0  0  0  0  0  0
  -26.2826  -12.9535   20.3228 N   0  0  0  0  0  0
  -25.9344  -11.6637   20.5722 N   0  0  0  0  0  0
  -22.0420  -12.8167   22.0457 N   0  0  0  0  0  0
  -25.4024  -15.1990   20.4169 N   0  0  0  0  0  0
  -31.6290  -15.3075   20.0899 O   0  0  0  0  0  0
  -21.6647   -6.8884   21.4243 O   0  0  0  0  0  0
  -22.3437  -14.5489   20.6741 O   0  0  0  0  0  0
  -24.6643  -31.8213   23.1685 C   0  0  0  0  0  0
  -25.9315  -32.4577   23.8161 C   0  0  1  0  0  0
  -27.2228  -26.9085   20.1839 C   0  0  0  0  0  0
  -25.5976  -33.8393   24.2062 N   0  0  0  0  0  0
  -23.4808  -30.4311   21.5177 C   0  0  2  0  0  0
  -24.9367  -28.8156   20.1085 C   0  0  0  0  0  0
  -22.7676  -29.4424   22.4771 C   0  0  0  0  0  0
  -18.0322  -28.1411   22.8464 C   0  0  0  0  0  0
  -24.1495  -36.7204   23.2648 C   0  0  0  0  0  0
  -26.0504  -30.6202   21.4038 C   0  0  0  0  0  0
  -26.1186  -29.2079   20.7486 C   0  0  0  0  0  0
  -27.2522  -28.2739   20.7659 C   0  0  0  0  0  0
  -26.0170  -26.6800   19.4817 C   0  0  0  0  0  0
  -24.9129  -27.5730   19.4545 C   0  0  0  0  0  0
  -23.7225  -29.7446   20.1443 C   0  0  0  0  0  0
  -25.4137  -36.2962   24.0297 C   0  0  1  0  0  0
  -20.5948  -28.3758   23.1183 C   0  0  2  0  0  0
  -20.6798  -26.9437   22.5403 C   0  0  0  0  0  0
  -19.5772  -26.6377   21.5215 C   0  0  0  0  0  0
  -18.1955  -26.7943   22.1621 C   0  0  0  0  0  0
  -19.1585  -28.8904   23.2810 C   0  0  0  0  0  0
  -18.9495  -30.1492   23.8848 C   0  0  0  0  0  0
  -17.6488  -30.6599   24.0554 C   0  0  0  0  0  0
  -25.9103  -34.9345   23.5004 C   0  0  0  0  0  0
  -16.5378  -29.9087   23.6344 C   0  0  0  0  0  0
  -16.7304  -28.6508   23.0361 C   0  0  0  0  0  0
  -26.4561  -31.6531   25.0698 C   0  0  0  0  0  0
  -25.3680  -31.3788   26.1349 C   0  0  0  0  0  0
  -27.0462  -30.2894   24.6451 C   0  0  0  0  0  0
  -27.6048  -32.4346   25.7502 C   0  0  0  0  0  0
  -27.5571  -37.1760   24.8465 C   0  0  0  0  0  0
  -21.4343  -29.3041   22.3527 N   0  0  0  0  0  0
  -26.4281  -37.3701   23.9406 N   0  0  0  0  0  0
  -24.7532  -30.9852   22.0835 N   0  0  0  0  0  0
  -23.4213  -28.8000   23.3028 O   0  0  0  0  0  0
  -28.2107  -25.7866   20.3034 O   0  0  0  0  0  0
  -26.5718  -34.8884   22.4604 O   0  0  0  0  0  0
  -23.5708  -32.1195   23.6762 O   0  0  0  0  0  0
  -28.7277  -22.7202   20.5778 C   0  0  0  0  0  0
  -28.4288  -18.7619   19.7810 C   0  0  0  0  0  0
  -29.1129  -19.7964   20.6336 C   0  0  1  0  0  0
  -29.7666  -18.1671   20.1254 C   0  0  1  0  0  0
  -28.0411  -24.1902   19.8757 C   0  0  0  0  0  0
  -28.8278  -21.3283   20.0487 N   0  0  0  0  0  0
  -29.6274  -16.5503   20.4868 N   0  0  0  0  0  0
  -29.1470  -22.8701   21.7279 O   0  0  0  0  0  0
  -31.4600  -13.0253   19.2105 H   0  0  0  0  0  0
  -30.5073  -11.9162   20.1442 H   0  0  0  0  0  0
  -29.9260  -11.7629   17.6966 H   0  0  0  0  0  0
  -29.5684  -13.4725   17.6599 H   0  0  0  0  0  0
  -28.0506  -11.2803   19.0954 H   0  0  0  0  0  0
  -27.4232  -12.3425   17.8594 H   0  0  0  0  0  0
  -27.5288  -14.2445   19.3291 H   0  0  0  0  0  0
  -28.8123  -12.5219   21.5029 H   0  0  0  0  0  0
  -28.2767  -14.1745   21.7002 H   0  0  0  0  0  0
  -25.2782   -9.5683   22.4765 H   0  0  0  0  0  0
  -24.0013   -7.4637   22.7474 H   0  0  0  0  0  0
  -21.0862   -8.8782   19.8948 H   0  0  0  0  0  0
  -22.3724  -10.9675   19.6163 H   0  0  0  0  0  0
  -21.2012   -7.6149   23.9717 H   0  0  0  0  0  0
  -21.1483   -6.0523   25.9077 H   0  0  0  0  0  0
  -22.0596   -2.7611   23.2845 H   0  0  0  0  0  0
  -22.4056  -11.9841   22.4851 H   0  0  0  0  0  0
  -21.1027  -13.1163   22.2652 H   0  0  0  0  0  0
  -24.6290  -15.8464   20.5225 H   0  0  0  0  0  0
  -26.2354  -15.6365   20.0460 H   0  0  0  0  0  0
  -26.7385  -32.5110   23.0876 H   0  0  0  0  0  0
  -25.0063  -33.9471   25.0172 H   0  0  0  0  0  0
  -22.7951  -31.2631   21.3448 H   0  0  0  0  0  0
  -23.3771  -35.9522   23.3277 H   0  0  0  0  0  0
  -24.3571  -36.8885   22.2068 H   0  0  0  0  0  0
  -23.7241  -37.6378   23.6726 H   0  0  0  0  0  0
  -26.2327  -31.3599   20.6232 H   0  0  0  0  0  0
  -26.9095  -30.6788   22.0599 H   0  0  0  0  0  0
  -28.1411  -28.5683   21.3061 H   0  0  0  0  0  0
  -25.8849  -25.7352   18.9760 H   0  0  0  0  0  0
  -24.0175  -27.2687   18.9299 H   0  0  0  0  0  0
  -23.8775  -30.5124   19.3856 H   0  0  0  0  0  0
  -22.8325  -29.1986   19.8269 H   0  0  0  0  0  0
  -25.1338  -36.1758   25.0788 H   0  0  0  0  0  0
  -21.0033  -28.3369   24.1307 H   0  0  0  0  0  0
  -20.5675  -26.2380   23.3648 H   0  0  0  0  0  0
  -21.6662  -26.7408   22.1214 H   0  0  0  0  0  0
  -19.6933  -25.6274   21.1278 H   0  0  0  0  0  0
  -19.6711  -27.3159   20.6721 H   0  0  0  0  0  0
  -17.4224  -26.6683   21.4026 H   0  0  0  0  0  0
  -18.0349  -26.0097   22.9029 H   0  0  0  0  0  0
  -19.7970  -30.7321   24.2198 H   0  0  0  0  0  0
  -17.5039  -31.6274   24.5169 H   0  0  0  0  0  0
  -15.5376  -30.2973   23.7694 H   0  0  0  0  0  0
  -15.8704  -28.0808   22.7105 H   0  0  0  0  0  0
  -24.5880  -30.7120   25.7656 H   0  0  0  0  0  0
  -24.8851  -32.2990   26.4645 H   0  0  0  0  0  0
  -25.7905  -30.9039   27.0212 H   0  0  0  0  0  0
  -26.3134  -29.6559   24.1441 H   0  0  0  0  0  0
  -27.3965  -29.7272   25.5117 H   0  0  0  0  0  0
  -27.9087  -30.4068   23.9888 H   0  0  0  0  0  0
  -27.2614  -33.3694   26.1945 H   0  0  0  0  0  0
  -28.3928  -32.6831   25.0379 H   0  0  0  0  0  0
  -28.0640  -31.8562   26.5529 H   0  0  0  0  0  0
  -28.2568  -38.0074   24.7513 H   0  0  0  0  0  0
  -28.1087  -36.2601   24.6293 H   0  0  0  0  0  0
  -27.2286  -37.1400   25.8867 H   0  0  0  0  0  0
  -20.9604  -29.8728   21.6648 H   0  0  0  0  0  0
  -26.0128  -38.2759   24.1411 H   0  0  0  0  0  0
  -28.2877  -18.9950   18.7271 H   0  0  0  0  0  0
  -27.5460  -18.3091   20.2288 H   0  0  0  0  0  0
  -28.9213  -19.7671   21.7048 H   0  0  0  0  0  0
  -30.5795  -18.3239   19.4187 H   0  0  0  0  0  0
  -26.9693  -23.9974   19.8987 H   0  0  0  0  0  0
  -28.3039  -24.1496   18.8188 H   0  0  0  0  0  0
  -28.5238  -21.3044   19.0838 H   0  0  0  0  0  0
  -28.6845  -16.3226   20.7650 H   0  0  0  0  0  0
  1 25  1  0  0  0
  1 30  2  0  0  0
  1 77  1  0  0  0
  2  3  1  0  0  0
  2 25  1  0  0  0
  2 79  1  0  0  0
  2 80  1  0  0  0
  3  4  1  0  0  0
  3 81  1  0  0  0
  3 82  1  0  0  0
  4  5  1  0  0  0
  4 83  1  0  0  0
  4 84  1  0  0  0
  5  6  1  0  0  0
  5 26  1  0  0  0
  5 85  1  0  0  0
  6 25  1  0  0  0
  6 86  1  0  0  0
  6 87  1  0  0  0
  7  8  2  0  0  0
  7 26  1  0  0  0
  7 29  1  0  0  0
  8  9  1  0  0  0
  8 22  1  0  0  0
  9 10  1  0  0  0
  9 27  2  0  0  0
 10 11  2  0  0  0
 10 15  1  0  0  0
 11 12  1  0  0  0
 11 88  1  0  0  0
 12 13  2  0  0  0
 12 89  1  0  0  0
 13 14  1  0  0  0
 13 31  1  0  0  0
 14 15  2  0  0  0
 14 90  1  0  0  0
 15 91  1  0  0  0
 16 17  2  0  0  0
 16 21  1  0  0  0
 16 31  1  0  0  0
 17 18  1  0  0  0
 17 92  1  0  0  0
 18 19  2  0  0  0
 18 93  1  0  0  0
 19 20  1  0  0  0
 19 24  1  0  0  0
 20 21  2  0  0  0
 20 94  1  0  0  0
 21 23  1  0  0  0
 22 28  1  0  0  0
 22 32  2  0  0  0
 26 27  1  0  0  0
 28 95  1  0  0  0
 28 96  1  0  0  0
 29 97  1  0  0  0
 29 98  1  0  0  0
 33 34  1  0  0  0
 33 66  1  0  0  0
 33 70  2  0  0  0
 34 36  1  0  0  0
 34 59  1  0  0  0
 34 99  1  0  0  0
 35 44  2  0  0  0
 35 45  1  0  0  0
 35 68  1  0  0  0
 36 56  1  0  0  0
 36100  1  0  0  0
 37 39  1  0  0  0
 37 47  1  0  0  0
 37 66  1  0  0  0
 37101  1  0  0  0
 38 43  2  0  0  0
 38 46  1  0  0  0
 38 47  1  0  0  0
 39 64  1  0  0  0
 39 67  2  0  0  0
 40 52  1  0  0  0
 40 53  2  0  0  0
 40 58  1  0  0  0
 41102  1  0  0  0
 41103  1  0  0  0
 41104  1  0  0  0
 41 48  1  0  0  0
 42 43  1  0  0  0
 42 66  1  0  0  0
 42105  1  0  0  0
 42106  1  0  0  0
 43 44  1  0  0  0
 44107  1  0  0  0
 45 46  2  0  0  0
 45108  1  0  0  0
 46109  1  0  0  0
 47110  1  0  0  0
 47111  1  0  0  0
 48 56  1  0  0  0
 48 65  1  0  0  0
 48112  1  0  0  0
 49 50  1  0  0  0
 49 53  1  0  0  0
 49 64  1  0  0  0
 49113  1  0  0  0
 50 51  1  0  0  0
 50114  1  0  0  0
 50115  1  0  0  0
 51 52  1  0  0  0
 51116  1  0  0  0
 51117  1  0  0  0
 52118  1  0  0  0
 52119  1  0  0  0
 53 54  1  0  0  0
 54 55  2  0  0  0
 54120  1  0  0  0
 55 57  1  0  0  0
 55121  1  0  0  0
 56 69  2  0  0  0
 57 58  2  0  0  0
 57122  1  0  0  0
 58123  1  0  0  0
 59 60  1  0  0  0
 59 61  1  0  0  0
 59 62  1  0  0  0
 60124  1  0  0  0
 60125  1  0  0  0
 60126  1  0  0  0
 61127  1  0  0  0
 61128  1  0  0  0
 61129  1  0  0  0
 62130  1  0  0  0
 62131  1  0  0  0
 62132  1  0  0  0
 63 65  1  0  0  0
 63133  1  0  0  0
 63134  1  0  0  0
 63135  1  0  0  0
 64136  1  0  0  0
 65137  1  0  0  0
 68 75  1  0  0  0
 71 75  1  0  0  0
 71 76  1  0  0  0
 71 78  2  0  0  0
 72 73  1  0  0  0
 72 74  1  0  0  0
 72138  1  0  0  0
 72139  1  0  0  0
 73 74  1  0  0  0
 73 76  1  0  0  0
 73140  1  0  0  0
 74 77  1  0  0  0
 74141  1  0  0  0
 75142  1  0  0  0
 75143  1  0  0  0
 76144  1  0  0  0
 77145  1  0  0  0
M  ISO  4   1 100  68 101  75 101  77 100
M  END
> <chiral flag>
0

> <version>
0

> <s_m_source_file>
/data/baiqing/PycharmProjects/Reinvent-master-3.2/result/LINK_invent/BTK/process_docking_weight1_custom_sum_contain_oxygen_bond_distance_aromatic_linkinvent_7_9_3/rearranged_h_0192.sdf

> <i_m_source_file_index>
65

> <r_mmod_Potential_Energy-OPLS-2005>
1331.99450683594

> <r_mmod_Stretch_Energy-OPLS-2005>
660.180908203125

> <r_mmod_Bend_Energy-OPLS-2005>
449.058715820312

> <r_mmod_Torsional_Energy-OPLS-2005>
266.657836914062

> <r_mmod_Improper_Torsional_Energy-OPLS-2005>
4.84232187271118

> <r_mmod_Van_der_Waal_Energy-OPLS-2005>
108.048500061035

> <r_mmod_Electrostatic_Energy-OPLS-2005>
-381.397766113281

> <r_mmod_Solvation_Energy-OPLS-2005>
-266.014617919922

> <b_mmod_Minimization_Converged-OPLS-2005>
0

> <r_mmod_RMS_Derivative-OPLS-2005>
0.415881663560867

$$$$
65
                    3D
 Structure written by MMmdl.
161169  0  0  1  0            999 V2000
  -30.6634  -14.5289   20.5773 C   0  0  0  0  0  0
  -30.4318  -12.3432   19.4297 C   0  0  0  0  0  0
  -29.4997  -12.5145   18.2108 C   0  0  0  0  0  0
  -28.0201  -12.3657   18.6198 C   0  0  0  0  0  0
  -27.6598  -13.2061   19.8742 C   0  0  2  0  0  0
  -28.6999  -12.9902   20.9947 C   0  0  0  0  0  0
  -25.2585  -13.8151   20.5675 C   0  0  0  0  0  0
  -24.1833  -13.0432   20.9169 C   0  0  0  0  0  0
  -24.6386  -11.6897   20.8725 C   0  0  0  0  0  0
  -23.9052  -10.4289   21.0399 C   0  0  0  0  0  0
  -24.3606   -9.4206   21.9178 C   0  0  0  0  0  0
  -23.6285   -8.2241   22.0753 C   0  0  0  0  0  0
  -22.4268   -8.0275   21.3542 C   0  0  0  0  0  0
  -21.9897   -9.0245   20.4643 C   0  0  0  0  0  0
  -22.7222  -10.2127   20.3047 C   0  0  0  0  0  0
  -21.6851   -6.0730   22.5276 C   0  0  0  0  0  0
  -21.4010   -6.5636   23.8208 C   0  0  0  0  0  0
  -21.3658   -5.6792   24.9172 C   0  0  0  0  0  0
  -21.6042   -4.3055   24.7223 C   0  0  0  0  0  0
  -21.8819   -3.8143   23.4346 C   0  0  0  0  0  0
  -21.9193   -4.6958   22.3401 C   0  0  0  0  0  0
  -22.7860  -13.5237   21.1843 C   0  0  0  0  0  0
  -22.1663   -4.2145   21.0981 F   0  0  0  0  0  0
  -21.5632   -3.4539   25.7736 F   0  0  0  0  0  0
  -30.0241  -13.3279   20.4477 N   0  0  0  0  0  0
  -26.3014  -12.9315   20.3352 N   0  0  0  0  0  0
  -25.9311  -11.6477   20.5745 N   0  0  0  0  0  0
  -22.0500  -12.8221   22.0392 N   0  0  0  0  0  0
  -25.4327  -15.1863   20.4078 N   0  0  0  0  0  0
  -31.7768  -14.7355   20.0819 O   0  0  0  0  0  0
  -21.6637   -6.8868   21.4237 O   0  0  0  0  0  0
  -22.3546  -14.5554   20.6706 O   0  0  0  0  0  0
  -24.6191  -31.8637   23.2059 C   0  0  0  0  0  0
  -25.9072  -32.4795   23.8372 C   0  0  1  0  0  0
  -27.2376  -27.3930   20.0976 C   0  0  0  0  0  0
  -25.5927  -33.8599   24.2312 N   0  0  0  0  0  0
  -23.4086  -30.4869   21.5458 C   0  0  2  0  0  0
  -24.8541  -28.9437   20.1136 C   0  0  0  0  0  0
  -22.7431  -29.4643   22.4960 C   0  0  0  0  0  0
  -18.0277  -28.1380   22.8486 C   0  0  0  0  0  0
  -24.1490  -36.7301   23.2635 C   0  0  0  0  0  0
  -25.9407  -30.8158   21.3645 C   0  0  0  0  0  0
  -26.0148  -29.4462   20.7124 C   0  0  0  0  0  0
  -27.2045  -28.6775   20.7011 C   0  0  0  0  0  0
  -26.0506  -26.9066   19.5041 C   0  0  0  0  0  0
  -24.8688  -27.6749   19.5081 C   0  0  0  0  0  0
  -23.6197  -29.8176   20.1609 C   0  0  0  0  0  0
  -25.4108  -36.3092   24.0337 C   0  0  1  0  0  0
  -20.5872  -28.3670   23.1311 C   0  0  2  0  0  0
  -20.6763  -26.9399   22.5429 C   0  0  0  0  0  0
  -19.5754  -26.6381   21.5213 C   0  0  0  0  0  0
  -18.1923  -26.7937   22.1601 C   0  0  0  0  0  0
  -19.1525  -28.8841   23.2901 C   0  0  0  0  0  0
  -18.9454  -30.1442   23.8918 C   0  0  0  0  0  0
  -17.6453  -30.6583   24.0568 C   0  0  0  0  0  0
  -25.9044  -34.9462   23.5118 C   0  0  0  0  0  0
  -16.5345  -29.9085   23.6325 C   0  0  0  0  0  0
  -16.7263  -28.6504   23.0344 C   0  0  0  0  0  0
  -26.4475  -31.6582   25.0718 C   0  0  0  0  0  0
  -25.3719  -31.3707   26.1452 C   0  0  0  0  0  0
  -27.0296  -30.3014   24.6124 C   0  0  0  0  0  0
  -27.6060  -32.4286   25.7481 C   0  0  0  0  0  0
  -27.5582  -37.1803   24.8462 C   0  0  0  0  0  0
  -21.4155  -29.3033   22.3709 N   0  0  0  0  0  0
  -26.4290  -37.3781   23.9414 N   0  0  0  0  0  0
  -24.6743  -31.0718   22.0964 N   0  0  0  0  0  0
  -23.4188  -28.8188   23.3020 O   0  0  0  0  0  0
  -28.4250  -26.6742   20.1241 O   0  0  0  0  0  0
  -26.5598  -34.8920   22.4676 O   0  0  0  0  0  0
  -23.5376  -32.1402   23.7439 O   0  0  0  0  0  0
  -29.8264  -15.8820   22.4671 C   0  0  0  0  0  0
  -29.6309  -16.8191   20.3044 C   0  0  0  0  0  0
  -30.0689  -17.3972   22.6334 C   0  0  1  0  0  0
  -29.9767  -18.0223   21.2240 C   0  0  2  0  0  0
  -29.1853  -18.0213   23.7310 C   0  0  0  0  0  0
  -28.6457  -21.7052   20.7534 C   0  0  0  0  0  0
  -28.3038  -24.1394   20.4233 C   0  0  0  0  0  0
  -29.4803  -20.4246   20.3785 C   0  0  0  0  0  0
  -28.5678  -25.3748   19.4991 C   0  0  0  0  0  0
  -29.9019  -15.5628   21.0410 N   0  0  0  0  0  0
  -28.9087  -22.8888   19.9081 N   0  0  0  0  0  0
  -29.0539  -19.2066   21.1371 N   0  3  0  0  0  0
  -31.4741  -12.4624   19.1283 H   0  0  0  0  0  0
  -30.3544  -11.3322   19.8324 H   0  0  0  0  0  0
  -29.7485  -11.7843   17.4396 H   0  0  0  0  0  0
  -29.6575  -13.4965   17.7620 H   0  0  0  0  0  0
  -27.8351  -11.3093   18.8175 H   0  0  0  0  0  0
  -27.3703  -12.6356   17.7870 H   0  0  0  0  0  0
  -27.7007  -14.2537   19.5755 H   0  0  0  0  0  0
  -28.6911  -11.9502   21.3248 H   0  0  0  0  0  0
  -28.4457  -13.5736   21.8782 H   0  0  0  0  0  0
  -25.2753   -9.5685   22.4747 H   0  0  0  0  0  0
  -23.9995   -7.4632   22.7471 H   0  0  0  0  0  0
  -21.0829   -8.8751   19.8948 H   0  0  0  0  0  0
  -22.3677  -10.9657   19.6149 H   0  0  0  0  0  0
  -21.1995   -7.6142   23.9707 H   0  0  0  0  0  0
  -21.1482   -6.0525   25.9074 H   0  0  0  0  0  0
  -22.0599   -2.7604   23.2848 H   0  0  0  0  0  0
  -22.4114  -11.9866   22.4752 H   0  0  0  0  0  0
  -21.1116  -13.1230   22.2602 H   0  0  0  0  0  0
  -24.6665  -15.8435   20.5053 H   0  0  0  0  0  0
  -26.2872  -15.6163   20.0787 H   0  0  0  0  0  0
  -26.7148  -32.5483   23.1136 H   0  0  0  0  0  0
  -25.0122  -33.9760   25.0490 H   0  0  0  0  0  0
  -22.6999  -31.3049   21.4034 H   0  0  0  0  0  0
  -23.3752  -35.9633   23.3289 H   0  0  0  0  0  0
  -24.3594  -36.8918   22.2054 H   0  0  0  0  0  0
  -23.7240  -37.6503   23.6652 H   0  0  0  0  0  0
  -26.0611  -31.5783   20.5941 H   0  0  0  0  0  0
  -26.8263  -30.8677   21.9867 H   0  0  0  0  0  0
  -28.1021  -29.0654   21.1634 H   0  0  0  0  0  0
  -26.0095  -25.9314   19.0429 H   0  0  0  0  0  0
  -23.9734  -27.2791   19.0485 H   0  0  0  0  0  0
  -23.7363  -30.5919   19.4019 H   0  0  0  0  0  0
  -22.7420  -29.2426   19.8613 H   0  0  0  0  0  0
  -25.1280  -36.1949   25.0831 H   0  0  0  0  0  0
  -20.9962  -28.3237   24.1431 H   0  0  0  0  0  0
  -20.5640  -26.2283   23.3622 H   0  0  0  0  0  0
  -21.6637  -26.7429   22.1234 H   0  0  0  0  0  0
  -19.6917  -25.6290   21.1240 H   0  0  0  0  0  0
  -19.6710  -27.3195   20.6749 H   0  0  0  0  0  0
  -17.4207  -26.6712   21.3985 H   0  0  0  0  0  0
  -18.0298  -26.0066   22.8976 H   0  0  0  0  0  0
  -19.7931  -30.7256   24.2300 H   0  0  0  0  0  0
  -17.5009  -31.6270   24.5157 H   0  0  0  0  0  0
  -15.5346  -30.2996   23.7642 H   0  0  0  0  0  0
  -15.8663  -28.0832   22.7044 H   0  0  0  0  0  0
  -24.6031  -30.6864   25.7844 H   0  0  0  0  0  0
  -24.8730  -32.2837   26.4713 H   0  0  0  0  0  0
  -25.8083  -30.9094   27.0321 H   0  0  0  0  0  0
  -26.2852  -29.6796   24.1139 H   0  0  0  0  0  0
  -27.3998  -29.7235   25.4602 H   0  0  0  0  0  0
  -27.8718  -30.4305   23.9323 H   0  0  0  0  0  0
  -27.2713  -33.3606   26.2045 H   0  0  0  0  0  0
  -28.3891  -32.6793   25.0314 H   0  0  0  0  0  0
  -28.0703  -31.8400   26.5405 H   0  0  0  0  0  0
  -28.2596  -38.0103   24.7501 H   0  0  0  0  0  0
  -28.1077  -36.2635   24.6275 H   0  0  0  0  0  0
  -27.2315  -37.1441   25.8869 H   0  0  0  0  0  0
  -20.9315  -29.8776   21.6948 H   0  0  0  0  0  0
  -26.0173  -38.2857   24.1407 H   0  0  0  0  0  0
  -28.8279  -15.6188   22.8184 H   0  0  0  0  0  0
  -30.5351  -15.3014   23.0616 H   0  0  0  0  0  0
  -30.1905  -16.8697   19.3684 H   0  0  0  0  0  0
  -28.5735  -16.8197   20.0394 H   0  0  0  0  0  0
  -31.1040  -17.5182   22.9600 H   0  0  0  0  0  0
  -30.9814  -18.3625   20.9641 H   0  0  0  0  0  0
  -28.1219  -17.9285   23.5055 H   0  0  0  0  0  0
  -29.4149  -19.0764   23.8852 H   0  0  0  0  0  0
  -29.3540  -17.5209   24.6856 H   0  0  0  0  0  0
  -28.8509  -21.9624   21.7941 H   0  0  0  0  0  0
  -27.5793  -21.4793   20.6971 H   0  0  0  0  0  0
  -27.2279  -24.0108   20.5582 H   0  0  0  0  0  0
  -28.7206  -24.3417   21.4113 H   0  0  0  0  0  0
  -30.5346  -20.6249   20.5756 H   0  0  0  0  0  0
  -29.3965  -20.2111   19.3125 H   0  0  0  0  0  0
  -28.0098  -25.3009   18.5659 H   0  0  0  0  0  0
  -29.6130  -25.3358   19.1904 H   0  0  0  0  0  0
  -28.5626  -22.7139   18.9661 H   0  0  0  0  0  0
  -28.9386  -19.5069   22.0920 H   0  0  0  0  0  0
  -28.1465  -18.9113   20.8154 H   0  0  0  0  0  0
  1 25  1  0  0  0
  1 30  2  0  0  0
  1 80  1  0  0  0
  2  3  1  0  0  0
  2 25  1  0  0  0
  2 83  1  0  0  0
  2 84  1  0  0  0
  3  4  1  0  0  0
  3 85  1  0  0  0
  3 86  1  0  0  0
  4  5  1  0  0  0
  4 87  1  0  0  0
  4 88  1  0  0  0
  5  6  1  0  0  0
  5 26  1  0  0  0
  5 89  1  0  0  0
  6 25  1  0  0  0
  6 90  1  0  0  0
  6 91  1  0  0  0
  7  8  2  0  0  0
  7 26  1  0  0  0
  7 29  1  0  0  0
  8  9  1  0  0  0
  8 22  1  0  0  0
  9 10  1  0  0  0
  9 27  2  0  0  0
 10 11  2  0  0  0
 10 15  1  0  0  0
 11 12  1  0  0  0
 11 92  1  0  0  0
 12 13  2  0  0  0
 12 93  1  0  0  0
 13 14  1  0  0  0
 13 31  1  0  0  0
 14 15  2  0  0  0
 14 94  1  0  0  0
 15 95  1  0  0  0
 16 17  2  0  0  0
 16 21  1  0  0  0
 16 31  1  0  0  0
 17 18  1  0  0  0
 17 96  1  0  0  0
 18 19  2  0  0  0
 18 97  1  0  0  0
 19 20  1  0  0  0
 19 24  1  0  0  0
 20 21  2  0  0  0
 20 98  1  0  0  0
 21 23  1  0  0  0
 22 28  1  0  0  0
 22 32  2  0  0  0
 26 27  1  0  0  0
 28 99  1  0  0  0
 28100  1  0  0  0
 29101  1  0  0  0
 29102  1  0  0  0
 33 34  1  0  0  0
 33 66  1  0  0  0
 33 70  2  0  0  0
 34 36  1  0  0  0
 34 59  1  0  0  0
 34103  1  0  0  0
 35 44  2  0  0  0
 35 45  1  0  0  0
 35 68  1  0  0  0
 36 56  1  0  0  0
 36104  1  0  0  0
 37 39  1  0  0  0
 37 47  1  0  0  0
 37 66  1  0  0  0
 37105  1  0  0  0
 38 43  2  0  0  0
 38 46  1  0  0  0
 38 47  1  0  0  0
 39 64  1  0  0  0
 39 67  2  0  0  0
 40 52  1  0  0  0
 40 53  2  0  0  0
 40 58  1  0  0  0
 41106  1  0  0  0
 41107  1  0  0  0
 41108  1  0  0  0
 41 48  1  0  0  0
 42 43  1  0  0  0
 42 66  1  0  0  0
 42109  1  0  0  0
 42110  1  0  0  0
 43 44  1  0  0  0
 44111  1  0  0  0
 45 46  2  0  0  0
 45112  1  0  0  0
 46113  1  0  0  0
 47114  1  0  0  0
 47115  1  0  0  0
 48 56  1  0  0  0
 48 65  1  0  0  0
 48116  1  0  0  0
 49 50  1  0  0  0
 49 53  1  0  0  0
 49 64  1  0  0  0
 49117  1  0  0  0
 50 51  1  0  0  0
 50118  1  0  0  0
 50119  1  0  0  0
 51 52  1  0  0  0
 51120  1  0  0  0
 51121  1  0  0  0
 52122  1  0  0  0
 52123  1  0  0  0
 53 54  1  0  0  0
 54 55  2  0  0  0
 54124  1  0  0  0
 55 57  1  0  0  0
 55125  1  0  0  0
 56 69  2  0  0  0
 57 58  2  0  0  0
 57126  1  0  0  0
 58127  1  0  0  0
 59 60  1  0  0  0
 59 61  1  0  0  0
 59 62  1  0  0  0
 60128  1  0  0  0
 60129  1  0  0  0
 60130  1  0  0  0
 61131  1  0  0  0
 61132  1  0  0  0
 61133  1  0  0  0
 62134  1  0  0  0
 62135  1  0  0  0
 62136  1  0  0  0
 63 65  1  0  0  0
 63137  1  0  0  0
 63138  1  0  0  0
 63139  1  0  0  0
 64140  1  0  0  0
 65141  1  0  0  0
 68 79  1  0  0  0
 71 73  1  0  0  0
 71 80  1  0  0  0
 71142  1  0  0  0
 71143  1  0  0  0
 72 74  1  0  0  0
 72 80  1  0  0  0
 72144  1  0  0  0
 72145  1  0  0  0
 73 74  1  0  0  0
 73 75  1  0  0  0
 73146  1  0  0  0
 74 82  1  0  0  0
 74147  1  0  0  0
 75148  1  0  0  0
 75149  1  0  0  0
 75150  1  0  0  0
 76 78  1  0  0  0
 76 81  1  0  0  0
 76151  1  0  0  0
 76152  1  0  0  0
 77 79  1  0  0  0
 77 81  1  0  0  0
 77153  1  0  0  0
 77154  1  0  0  0
 78 82  1  0  0  0
 78155  1  0  0  0
 78156  1  0  0  0
 79157  1  0  0  0
 79158  1  0  0  0
 81159  1  0  0  0
 82160  1  0  0  0
 82161  1  0  0  0
M  CHG  1  82   1
M  ISO  4   1 100  68 101  79 101  80 100
M  END
> <chiral flag>
0

> <version>
0

> <s_m_source_file>
/data/baiqing/PycharmProjects/Reinvent-master-3.2/result/LINK_invent/BTK/process_docking_weight1_custom_sum_contain_oxygen_bond_distance_aromatic_linkinvent_7_9_3/rearranged_h_0192.sdf

> <i_m_source_file_index>
66

> <r_mmod_Potential_Energy-OPLS-2005>
60.3255767822266

> <r_mmod_Stretch_Energy-OPLS-2005>
49.1912612915039

> <r_mmod_Bend_Energy-OPLS-2005>
138.185897827148

> <r_mmod_Torsional_Energy-OPLS-2005>
375.134704589844

> <r_mmod_Improper_Torsional_Energy-OPLS-2005>
8.4644718170166

> <r_mmod_Van_der_Waal_Energy-OPLS-2005>
123.268692016602

> <r_mmod_Electrostatic_Energy-OPLS-2005>
-188.675521850586

> <r_mmod_Solvation_Energy-OPLS-2005>
-464.417999267578

> <b_mmod_Minimization_Converged-OPLS-2005>
0

> <r_mmod_RMS_Derivative-OPLS-2005>
0.991465091705322

$$$$
66
                    3D
 Structure written by MMmdl.
168177  0  0  1  0            999 V2000
  -30.7555  -14.4925   20.6085 C   0  0  0  0  0  0
  -30.4096  -12.3345   19.4487 C   0  0  0  0  0  0
  -29.4936  -12.5243   18.2242 C   0  0  0  0  0  0
  -28.0194  -12.3654   18.6356 C   0  0  0  0  0  0
  -27.6592  -13.2213   19.8798 C   0  0  2  0  0  0
  -28.7006  -13.0536   21.0133 C   0  0  0  0  0  0
  -25.2574  -13.8181   20.5706 C   0  0  0  0  0  0
  -24.1826  -13.0450   20.9180 C   0  0  0  0  0  0
  -24.6389  -11.6908   20.8736 C   0  0  0  0  0  0
  -23.9043  -10.4301   21.0386 C   0  0  0  0  0  0
  -24.3599   -9.4229   21.9178 C   0  0  0  0  0  0
  -23.6284   -8.2259   22.0738 C   0  0  0  0  0  0
  -22.4280   -8.0262   21.3515 C   0  0  0  0  0  0
  -21.9898   -9.0244   20.4641 C   0  0  0  0  0  0
  -22.7201  -10.2145   20.3046 C   0  0  0  0  0  0
  -21.6876   -6.0705   22.5268 C   0  0  0  0  0  0
  -21.4020   -6.5616   23.8195 C   0  0  0  0  0  0
  -21.3673   -5.6786   24.9158 C   0  0  0  0  0  0
  -21.6051   -4.3045   24.7239 C   0  0  0  0  0  0
  -21.8818   -3.8118   23.4361 C   0  0  0  0  0  0
  -21.9204   -4.6928   22.3404 C   0  0  0  0  0  0
  -22.7859  -13.5227   21.1847 C   0  0  0  0  0  0
  -22.1658   -4.2097   21.0989 F   0  0  0  0  0  0
  -21.5651   -3.4535   25.7757 F   0  0  0  0  0  0
  -30.0312  -13.3446   20.4571 N   0  0  0  0  0  0
  -26.3010  -12.9367   20.3402 N   0  0  0  0  0  0
  -25.9329  -11.6506   20.5790 N   0  0  0  0  0  0
  -22.0542  -12.8186   22.0415 N   0  0  0  0  0  0
  -25.4352  -15.1894   20.4120 N   0  0  0  0  0  0
  -31.8381  -14.6447   20.0358 O   0  0  0  0  0  0
  -21.6634   -6.8856   21.4237 O   0  0  0  0  0  0
  -22.3535  -14.5559   20.6755 O   0  0  0  0  0  0
  -24.6176  -31.8654   23.2076 C   0  0  0  0  0  0
  -25.9047  -32.4818   23.8403 C   0  0  1  0  0  0
  -27.2281  -27.3950   20.1218 C   0  0  0  0  0  0
  -25.5905  -33.8625   24.2338 N   0  0  0  0  0  0
  -23.4101  -30.4860   21.5487 C   0  0  2  0  0  0
  -24.8597  -28.9530   20.1187 C   0  0  0  0  0  0
  -22.7453  -29.4620   22.4973 C   0  0  0  0  0  0
  -18.0326  -28.1412   22.8482 C   0  0  0  0  0  0
  -24.1485  -36.7314   23.2637 C   0  0  0  0  0  0
  -25.9443  -30.8195   21.3706 C   0  0  0  0  0  0
  -26.0198  -29.4483   20.7237 C   0  0  0  0  0  0
  -27.2079  -28.6771   20.7238 C   0  0  0  0  0  0
  -26.0568  -26.9336   19.4875 C   0  0  0  0  0  0
  -24.8753  -27.6965   19.4925 C   0  0  0  0  0  0
  -23.6224  -29.8210   20.1652 C   0  0  0  0  0  0
  -25.4114  -36.3125   24.0337 C   0  0  1  0  0  0
  -20.5891  -28.3690   23.1342 C   0  0  2  0  0  0
  -20.6798  -26.9394   22.5513 C   0  0  0  0  0  0
  -19.5821  -26.6390   21.5273 C   0  0  0  0  0  0
  -18.2000  -26.7933   22.1686 C   0  0  0  0  0  0
  -19.1551  -28.8876   23.2904 C   0  0  0  0  0  0
  -18.9458  -30.1499   23.8897 C   0  0  0  0  0  0
  -17.6462  -30.6616   24.0535 C   0  0  0  0  0  0
  -25.9045  -34.9487   23.5133 C   0  0  0  0  0  0
  -16.5350  -29.9091   23.6307 C   0  0  0  0  0  0
  -16.7312  -28.6520   23.0326 C   0  0  0  0  0  0
  -26.4471  -31.6616   25.0745 C   0  0  0  0  0  0
  -25.3715  -31.3744   26.1467 C   0  0  0  0  0  0
  -27.0305  -30.3072   24.6132 C   0  0  0  0  0  0
  -27.6069  -32.4309   25.7490 C   0  0  0  0  0  0
  -27.5588  -37.1809   24.8470 C   0  0  0  0  0  0
  -21.4185  -29.3003   22.3707 N   0  0  0  0  0  0
  -26.4309  -37.3807   23.9404 N   0  0  0  0  0  0
  -24.6755  -31.0737   22.0996 N   0  0  0  0  0  0
  -23.4222  -28.8180   23.3039 O   0  0  0  0  0  0
  -28.3645  -26.6062   20.1183 O   0  0  0  0  0  0
  -26.5595  -34.8933   22.4691 O   0  0  0  0  0  0
  -23.5355  -32.1427   23.7450 O   0  0  0  0  0  0
  -28.3763  -20.8175   21.8044 C   0  0  0  0  0  0
  -31.3744  -16.8403   22.4147 C   0  0  0  0  0  0
  -28.2930  -22.3418   22.0142 C   0  0  0  0  0  0
  -30.4542  -15.6677   22.7429 C   0  0  0  0  0  0
  -29.9282  -21.8546   20.3300 C   0  0  0  0  0  0
  -29.7653  -20.5813   21.2039 C   0  0  2  0  0  0
  -30.6288  -16.9605   21.0906 C   0  0  2  0  0  0
  -29.4727  -17.9957   20.9701 C   0  0  0  0  0  0
  -27.5473  -23.6126   19.0917 C   0  0  0  0  0  0
  -28.3041  -25.3744   20.8918 C   0  0  0  0  0  0
  -28.6449  -24.0570   20.0993 C   0  0  1  0  0  0
  -30.1986  -15.5342   21.2988 N   0  0  0  0  0  0
  -29.1166  -22.9237   20.9493 N   0  0  0  0  0  0
  -26.2416  -23.3170   19.7182 N   0  3  0  0  0  0
  -29.9320  -19.3135   20.4188 N   0  3  0  0  0  0
  -31.4608  -12.3935   19.1587 H   0  0  0  0  0  0
  -30.2843  -11.3351   19.8630 H   0  0  0  0  0  0
  -29.7478  -11.8066   17.4456 H   0  0  0  0  0  0
  -29.6522  -13.5163   17.7947 H   0  0  0  0  0  0
  -27.8469  -11.3100   18.8522 H   0  0  0  0  0  0
  -27.3665  -12.6125   17.7965 H   0  0  0  0  0  0
  -27.6908  -14.2636   19.5599 H   0  0  0  0  0  0
  -28.6805  -12.0345   21.4028 H   0  0  0  0  0  0
  -28.4550  -13.7000   21.8570 H   0  0  0  0  0  0
  -25.2764   -9.5706   22.4744 H   0  0  0  0  0  0
  -23.9999   -7.4662   22.7460 H   0  0  0  0  0  0
  -21.0813   -8.8756   19.8976 H   0  0  0  0  0  0
  -22.3626  -10.9674   19.6149 H   0  0  0  0  0  0
  -21.1993   -7.6133   23.9661 H   0  0  0  0  0  0
  -21.1503   -6.0534   25.9056 H   0  0  0  0  0  0
  -22.0587   -2.7578   23.2888 H   0  0  0  0  0  0
  -22.4165  -11.9800   22.4711 H   0  0  0  0  0  0
  -21.1183  -13.1213   22.2712 H   0  0  0  0  0  0
  -24.6854  -15.8611   20.5323 H   0  0  0  0  0  0
  -26.2980  -15.6129   20.0939 H   0  0  0  0  0  0
  -26.7120  -32.5519   23.1167 H   0  0  0  0  0  0
  -25.0063  -33.9814   25.0488 H   0  0  0  0  0  0
  -22.6994  -31.3026   21.4105 H   0  0  0  0  0  0
  -23.3752  -35.9639   23.3325 H   0  0  0  0  0  0
  -24.3595  -36.8907   22.2050 H   0  0  0  0  0  0
  -23.7229  -37.6527   23.6632 H   0  0  0  0  0  0
  -26.0594  -31.5769   20.5942 H   0  0  0  0  0  0
  -26.8343  -30.8775   21.9864 H   0  0  0  0  0  0
  -28.0998  -29.0507   21.2048 H   0  0  0  0  0  0
  -26.0503  -25.9924   18.9660 H   0  0  0  0  0  0
  -23.9910  -27.3169   19.0014 H   0  0  0  0  0  0
  -23.7334  -30.5963   19.4052 H   0  0  0  0  0  0
  -22.7470  -29.2417   19.8672 H   0  0  0  0  0  0
  -25.1288  -36.2000   25.0832 H   0  0  0  0  0  0
  -20.9932  -28.3307   24.1495 H   0  0  0  0  0  0
  -21.6669  -26.7358   22.1336 H   0  0  0  0  0  0
  -20.5626  -26.2306   23.3729 H   0  0  0  0  0  0
  -19.6991  -25.6309   21.1261 H   0  0  0  0  0  0
  -19.6845  -27.3268   20.6862 H   0  0  0  0  0  0
  -17.4233  -26.6560   21.4126 H   0  0  0  0  0  0
  -18.0469  -26.0170   22.9197 H   0  0  0  0  0  0
  -19.7907  -30.7318   24.2307 H   0  0  0  0  0  0
  -17.4994  -31.6292   24.5150 H   0  0  0  0  0  0
  -15.5348  -30.2982   23.7651 H   0  0  0  0  0  0
  -15.8728  -28.0812   22.7045 H   0  0  0  0  0  0
  -24.5865  -30.7129   25.7794 H   0  0  0  0  0  0
  -24.8901  -32.2895   26.4915 H   0  0  0  0  0  0
  -25.7993  -30.8894   27.0236 H   0  0  0  0  0  0
  -26.2875  -29.6837   24.1137 H   0  0  0  0  0  0
  -27.4062  -29.7303   25.4587 H   0  0  0  0  0  0
  -27.8707  -30.4451   23.9322 H   0  0  0  0  0  0
  -27.2750  -33.3602   26.2128 H   0  0  0  0  0  0
  -28.3835  -32.6860   25.0271 H   0  0  0  0  0  0
  -28.0784  -31.8381   26.5339 H   0  0  0  0  0  0
  -28.2613  -38.0096   24.7504 H   0  0  0  0  0  0
  -28.1067  -36.2619   24.6294 H   0  0  0  0  0  0
  -27.2311  -37.1483   25.8879 H   0  0  0  0  0  0
  -20.9373  -29.8670   21.6858 H   0  0  0  0  0  0
  -26.0193  -38.2896   24.1358 H   0  0  0  0  0  0
  -27.6002  -20.5042   21.1066 H   0  0  0  0  0  0
  -28.2266  -20.2747   22.7394 H   0  0  0  0  0  0
  -32.4190  -16.5485   22.2888 H   0  0  0  0  0  0
  -31.2797  -17.7041   23.0760 H   0  0  0  0  0  0
  -28.7501  -22.6065   22.9695 H   0  0  0  0  0  0
  -27.2684  -22.7095   22.0525 H   0  0  0  0  0  0
  -29.5725  -15.9499   23.3243 H   0  0  0  0  0  0
  -30.9740  -14.8286   23.2117 H   0  0  0  0  0  0
  -29.5637  -21.6532   19.3236 H   0  0  0  0  0  0
  -30.9747  -22.1495   20.2322 H   0  0  0  0  0  0
  -30.5052  -20.6024   22.0089 H   0  0  0  0  0  0
  -31.3331  -17.0664   20.2631 H   0  0  0  0  0  0
  -28.9666  -18.1272   21.9260 H   0  0  0  0  0  0
  -28.7112  -17.6179   20.2879 H   0  0  0  0  0  0
  -27.8641  -22.7287   18.5378 H   0  0  0  0  0  0
  -27.4136  -24.3803   18.3302 H   0  0  0  0  0  0
  -29.0337  -25.4905   21.6935 H   0  0  0  0  0  0
  -27.3482  -25.2709   21.4047 H   0  0  0  0  0  0
  -29.5184  -24.3161   19.4996 H   0  0  0  0  0  0
  -26.3425  -22.6066   20.4195 H   0  0  0  0  0  0
  -25.6044  -22.9709   19.0201 H   0  0  0  0  0  0
  -25.8302  -24.1300   20.1414 H   0  0  0  0  0  0
  -30.9126  -19.2258   20.2026 H   0  0  0  0  0  0
  -29.4628  -19.4303   19.5357 H   0  0  0  0  0  0
  1 25  1  0  0  0
  1 30  2  0  0  0
  1 82  1  0  0  0
  2  3  1  0  0  0
  2 25  1  0  0  0
  2 86  1  0  0  0
  2 87  1  0  0  0
  3  4  1  0  0  0
  3 88  1  0  0  0
  3 89  1  0  0  0
  4  5  1  0  0  0
  4 90  1  0  0  0
  4 91  1  0  0  0
  5  6  1  0  0  0
  5 26  1  0  0  0
  5 92  1  0  0  0
  6 25  1  0  0  0
  6 93  1  0  0  0
  6 94  1  0  0  0
  7  8  2  0  0  0
  7 26  1  0  0  0
  7 29  1  0  0  0
  8  9  1  0  0  0
  8 22  1  0  0  0
  9 10  1  0  0  0
  9 27  2  0  0  0
 10 11  2  0  0  0
 10 15  1  0  0  0
 11 12  1  0  0  0
 11 95  1  0  0  0
 12 13  2  0  0  0
 12 96  1  0  0  0
 13 14  1  0  0  0
 13 31  1  0  0  0
 14 15  2  0  0  0
 14 97  1  0  0  0
 15 98  1  0  0  0
 16 17  2  0  0  0
 16 21  1  0  0  0
 16 31  1  0  0  0
 17 18  1  0  0  0
 17 99  1  0  0  0
 18 19  2  0  0  0
 18100  1  0  0  0
 19 20  1  0  0  0
 19 24  1  0  0  0
 20 21  2  0  0  0
 20101  1  0  0  0
 21 23  1  0  0  0
 22 28  1  0  0  0
 22 32  2  0  0  0
 26 27  1  0  0  0
 28102  1  0  0  0
 28103  1  0  0  0
 29104  1  0  0  0
 29105  1  0  0  0
 33 34  1  0  0  0
 33 66  1  0  0  0
 33 70  2  0  0  0
 34 36  1  0  0  0
 34 59  1  0  0  0
 34106  1  0  0  0
 35 44  2  0  0  0
 35 45  1  0  0  0
 35 68  1  0  0  0
 36 56  1  0  0  0
 36107  1  0  0  0
 37 39  1  0  0  0
 37 47  1  0  0  0
 37 66  1  0  0  0
 37108  1  0  0  0
 38 43  2  0  0  0
 38 46  1  0  0  0
 38 47  1  0  0  0
 39 64  1  0  0  0
 39 67  2  0  0  0
 40 52  1  0  0  0
 40 53  2  0  0  0
 40 58  1  0  0  0
 41109  1  0  0  0
 41110  1  0  0  0
 41111  1  0  0  0
 41 48  1  0  0  0
 42 43  1  0  0  0
 42 66  1  0  0  0
 42112  1  0  0  0
 42113  1  0  0  0
 43 44  1  0  0  0
 44114  1  0  0  0
 45 46  2  0  0  0
 45115  1  0  0  0
 46116  1  0  0  0
 47117  1  0  0  0
 47118  1  0  0  0
 48 56  1  0  0  0
 48 65  1  0  0  0
 48119  1  0  0  0
 49 50  1  0  0  0
 49 53  1  0  0  0
 49 64  1  0  0  0
 49120  1  0  0  0
 50 51  1  0  0  0
 50121  1  0  0  0
 50122  1  0  0  0
 51 52  1  0  0  0
 51123  1  0  0  0
 51124  1  0  0  0
 52125  1  0  0  0
 52126  1  0  0  0
 53 54  1  0  0  0
 54 55  2  0  0  0
 54127  1  0  0  0
 55 57  1  0  0  0
 55128  1  0  0  0
 56 69  2  0  0  0
 57 58  2  0  0  0
 57129  1  0  0  0
 58130  1  0  0  0
 59 60  1  0  0  0
 59 61  1  0  0  0
 59 62  1  0  0  0
 60131  1  0  0  0
 60132  1  0  0  0
 60133  1  0  0  0
 61134  1  0  0  0
 61135  1  0  0  0
 61136  1  0  0  0
 62137  1  0  0  0
 62138  1  0  0  0
 62139  1  0  0  0
 63 65  1  0  0  0
 63140  1  0  0  0
 63141  1  0  0  0
 63142  1  0  0  0
 64143  1  0  0  0
 65144  1  0  0  0
 68 80  1  0  0  0
 71 73  1  0  0  0
 71 76  1  0  0  0
 71145  1  0  0  0
 71146  1  0  0  0
 72 74  1  0  0  0
 72 77  1  0  0  0
 72147  1  0  0  0
 72148  1  0  0  0
 73 83  1  0  0  0
 73149  1  0  0  0
 73150  1  0  0  0
 74 82  1  0  0  0
 74151  1  0  0  0
 74152  1  0  0  0
 75 76  1  0  0  0
 75 83  1  0  0  0
 75153  1  0  0  0
 75154  1  0  0  0
 76 85  1  0  0  0
 76155  1  0  0  0
 77 78  1  0  0  0
 77 82  1  0  0  0
 77156  1  0  0  0
 78 85  1  0  0  0
 78157  1  0  0  0
 78158  1  0  0  0
 79 84  1  0  0  0
 79159  1  0  0  0
 79160  1  0  0  0
 79 81  1  0  0  0
 80 81  1  0  0  0
 80161  1  0  0  0
 80162  1  0  0  0
 81 83  1  0  0  0
 81163  1  0  0  0
 84164  1  0  0  0
 84165  1  0  0  0
 84166  1  0  0  0
 85167  1  0  0  0
 85168  1  0  0  0
M  CHG  2  84   1  85   1
M  ISO  4   1 100  68 101  80 101  82 100
M  END
> <chiral flag>
0

> <version>
0

> <s_m_source_file>
/data/baiqing/PycharmProjects/Reinvent-master-3.2/result/LINK_invent/BTK/process_docking_weight1_custom_sum_contain_oxygen_bond_distance_aromatic_linkinvent_7_9_3/rearranged_h_0192.sdf

> <i_m_source_file_index>
67

> <r_mmod_Potential_Energy-OPLS-2005>
-192.396850585938

> <r_mmod_Stretch_Energy-OPLS-2005>
55.1291465759277

> <r_mmod_Bend_Energy-OPLS-2005>
163.506759643555

> <r_mmod_Torsional_Energy-OPLS-2005>
378.100280761719

> <r_mmod_Improper_Torsional_Energy-OPLS-2005>
10.0411109924316

> <r_mmod_Van_der_Waal_Energy-OPLS-2005>
124.314979553223

> <r_mmod_Electrostatic_Energy-OPLS-2005>
45.7405281066895

> <r_mmod_Solvation_Energy-OPLS-2005>
-988.1025390625

> <b_mmod_Minimization_Converged-OPLS-2005>
0

> <r_mmod_RMS_Derivative-OPLS-2005>
4.30715274810791

$$$$
67
                    3D
 Structure written by MMmdl.
150159  0  0  1  0            999 V2000
  -30.5805  -14.8502   20.4316 C   0  0  0  0  0  0
  -30.4295  -12.5131   19.4942 C   0  0  0  0  0  0
  -29.5199  -12.5093   18.2463 C   0  0  0  0  0  0
  -28.0422  -12.3332   18.6507 C   0  0  0  0  0  0
  -27.6308  -13.2484   19.8363 C   0  0  2  0  0  0
  -28.6707  -13.2419   20.9750 C   0  0  0  0  0  0
  -25.2464  -13.8240   20.5700 C   0  0  0  0  0  0
  -24.1775  -13.0461   20.9204 C   0  0  0  0  0  0
  -24.6395  -11.6947   20.8741 C   0  0  0  0  0  0
  -23.9094  -10.4307   21.0415 C   0  0  0  0  0  0
  -24.3657   -9.4207   21.9173 C   0  0  0  0  0  0
  -23.6318   -8.2249   22.0743 C   0  0  0  0  0  0
  -22.4281   -8.0299   21.3558 C   0  0  0  0  0  0
  -21.9925   -9.0276   20.4658 C   0  0  0  0  0  0
  -22.7266  -10.2150   20.3063 C   0  0  0  0  0  0
  -21.6860   -6.0747   22.5289 C   0  0  0  0  0  0
  -21.4022   -6.5640   23.8226 C   0  0  0  0  0  0
  -21.3662   -5.6779   24.9182 C   0  0  0  0  0  0
  -21.6048   -4.3041   24.7215 C   0  0  0  0  0  0
  -21.8818   -3.8148   23.4329 C   0  0  0  0  0  0
  -21.9193   -4.6978   22.3399 C   0  0  0  0  0  0
  -22.7794  -13.5222   21.1850 C   0  0  0  0  0  0
  -22.1652   -4.2180   21.0966 F   0  0  0  0  0  0
  -21.5635   -3.4511   25.7714 F   0  0  0  0  0  0
  -29.9563  -13.6129   20.3767 N   0  0  0  0  0  0
  -26.2883  -12.9474   20.3216 N   0  0  0  0  0  0
  -25.9330  -11.6603   20.5737 N   0  0  0  0  0  0
  -22.0465  -12.8236   22.0449 N   0  0  0  0  0  0
  -25.4156  -15.1963   20.4159 N   0  0  0  0  0  0
  -31.7876  -14.8932   20.1735 O   0  0  0  0  0  0
  -21.6643   -6.8894   21.4257 O   0  0  0  0  0  0
  -22.3459  -14.5498   20.6654 O   0  0  0  0  0  0
  -24.6402  -31.8487   23.1894 C   0  0  0  0  0  0
  -25.9207  -32.4709   23.8266 C   0  0  1  0  0  0
  -27.2060  -27.1731   20.1535 C   0  0  0  0  0  0
  -25.5979  -33.8514   24.2195 N   0  0  0  0  0  0
  -23.4398  -30.4681   21.5341 C   0  0  2  0  0  0
  -24.8860  -28.8981   20.1097 C   0  0  0  0  0  0
  -22.7556  -29.4566   22.4867 C   0  0  0  0  0  0
  -18.0314  -28.1391   22.8495 C   0  0  0  0  0  0
  -24.1489  -36.7240   23.2636 C   0  0  0  0  0  0
  -25.9913  -30.7344   21.3812 C   0  0  0  0  0  0
  -26.0608  -29.3483   20.7242 C   0  0  0  0  0  0
  -27.2255  -28.5011   20.7273 C   0  0  0  0  0  0
  -26.0075  -26.8100   19.5061 C   0  0  0  0  0  0
  -24.8676  -27.6417   19.4862 C   0  0  0  0  0  0
  -23.6634  -29.7984   20.1522 C   0  0  0  0  0  0
  -25.4128  -36.3029   24.0308 C   0  0  1  0  0  0
  -20.5930  -28.3718   23.1243 C   0  0  2  0  0  0
  -20.6792  -26.9424   22.5408 C   0  0  0  0  0  0
  -19.5760  -26.6389   21.5220 C   0  0  0  0  0  0
  -18.1948  -26.7935   22.1635 C   0  0  0  0  0  0
  -19.1578  -28.8879   23.2858 C   0  0  0  0  0  0
  -18.9492  -30.1478   23.8868 C   0  0  0  0  0  0
  -17.6493  -30.6589   24.0574 C   0  0  0  0  0  0
  -25.9088  -34.9410   23.5053 C   0  0  0  0  0  0
  -16.5382  -29.9092   23.6326 C   0  0  0  0  0  0
  -16.7307  -28.6511   23.0350 C   0  0  0  0  0  0
  -26.4554  -31.6557   25.0684 C   0  0  0  0  0  0
  -25.3760  -31.3751   26.1395 C   0  0  0  0  0  0
  -27.0416  -30.2954   24.6228 C   0  0  0  0  0  0
  -27.6061  -32.4333   25.7491 C   0  0  0  0  0  0
  -27.5581  -37.1768   24.8477 C   0  0  0  0  0  0
  -21.4261  -29.3045   22.3614 N   0  0  0  0  0  0
  -26.4283  -37.3749   23.9429 N   0  0  0  0  0  0
  -24.7095  -31.0397   22.0894 N   0  0  0  0  0  0
  -23.4225  -28.8100   23.3000 O   0  0  0  0  0  0
  -28.2789  -26.2268   20.1719 O   0  0  0  0  0  0
  -26.5660  -34.8911   22.4620 O   0  0  0  0  0  0
  -23.5534  -32.1345   23.7141 O   0  0  0  0  0  0
  -29.7017  -21.5590   21.6212 C   0  0  0  0  0  0
  -29.0186  -21.9432   20.4259 C   0  0  0  0  0  0
  -29.4890  -17.0388   21.4479 C   0  0  0  0  0  0
  -30.2091  -17.2767   19.5796 C   0  0  0  0  0  0
  -29.2192  -18.1859   20.3893 C   0  0  0  0  0  0
  -28.8421  -23.4527   19.8293 C   0  0  0  0  0  0
  -28.0578  -24.7392   20.5292 C   0  0  0  0  0  0
  -29.8599  -20.2461   21.7408 N   0  0  0  0  0  0
  -28.7634  -20.7583   19.8153 N   0  0  0  0  0  0
  -29.2911  -19.7141   20.6231 N   0  0  0  0  0  0
  -29.8165  -16.0418   20.3650 N   0  0  0  0  0  0
  -31.4733  -12.6328   19.1985 H   0  0  0  0  0  0
  -30.3787  -11.5529   20.0109 H   0  0  0  0  0  0
  -29.8190  -11.7144   17.5606 H   0  0  0  0  0  0
  -29.6441  -13.4481   17.7027 H   0  0  0  0  0  0
  -27.8967  -11.2867   18.9239 H   0  0  0  0  0  0
  -27.3962  -12.5191   17.7913 H   0  0  0  0  0  0
  -27.6089  -14.2615   19.4327 H   0  0  0  0  0  0
  -28.7251  -12.2634   21.4548 H   0  0  0  0  0  0
  -28.3897  -13.9568   21.7503 H   0  0  0  0  0  0
  -25.2840   -9.5658   22.4697 H   0  0  0  0  0  0
  -24.0049   -7.4626   22.7430 H   0  0  0  0  0  0
  -21.0861   -8.8796   19.8960 H   0  0  0  0  0  0
  -22.3748  -10.9676   19.6142 H   0  0  0  0  0  0
  -21.2012   -7.6140   23.9748 H   0  0  0  0  0  0
  -21.1485   -6.0492   25.9089 H   0  0  0  0  0  0
  -22.0593   -2.7615   23.2804 H   0  0  0  0  0  0
  -22.4102  -11.9925   22.4874 H   0  0  0  0  0  0
  -21.1071  -13.1245   22.2615 H   0  0  0  0  0  0
  -24.6515  -15.8507   20.5405 H   0  0  0  0  0  0
  -26.2732  -15.6401   20.1127 H   0  0  0  0  0  0
  -26.7267  -32.5330   23.0988 H   0  0  0  0  0  0
  -25.0167  -33.9638   25.0373 H   0  0  0  0  0  0
  -22.7383  -31.2913   21.3798 H   0  0  0  0  0  0
  -23.3752  -35.9571   23.3308 H   0  0  0  0  0  0
  -24.3571  -36.8869   22.2051 H   0  0  0  0  0  0
  -23.7243  -37.6434   23.6673 H   0  0  0  0  0  0
  -26.1475  -31.4891   20.6092 H   0  0  0  0  0  0
  -26.8612  -30.7805   22.0235 H   0  0  0  0  0  0
  -28.1246  -28.8398   21.2210 H   0  0  0  0  0  0
  -25.9329  -25.8483   19.0198 H   0  0  0  0  0  0
  -23.9704  -27.2924   18.9927 H   0  0  0  0  0  0
  -23.8053  -30.5713   19.3969 H   0  0  0  0  0  0
  -22.7776  -29.2449   19.8385 H   0  0  0  0  0  0
  -25.1299  -36.1832   25.0792 H   0  0  0  0  0  0
  -21.0046  -28.3313   24.1358 H   0  0  0  0  0  0
  -20.5697  -26.2338   23.3630 H   0  0  0  0  0  0
  -21.6647  -26.7429   22.1190 H   0  0  0  0  0  0
  -19.6920  -25.6303   21.1247 H   0  0  0  0  0  0
  -19.6677  -27.3200   20.6751 H   0  0  0  0  0  0
  -17.4212  -26.6707   21.4042 H   0  0  0  0  0  0
  -18.0328  -26.0074   22.9022 H   0  0  0  0  0  0
  -19.7975  -30.7311   24.2203 H   0  0  0  0  0  0
  -17.5046  -31.6256   24.5199 H   0  0  0  0  0  0
  -15.5380  -30.2984   23.7661 H   0  0  0  0  0  0
  -15.8710  -28.0828   22.7053 H   0  0  0  0  0  0
  -24.5919  -30.7116   25.7744 H   0  0  0  0  0  0
  -24.8982  -32.2947   26.4775 H   0  0  0  0  0  0
  -25.8059  -30.8964   27.0198 H   0  0  0  0  0  0
  -26.3028  -29.6675   24.1229 H   0  0  0  0  0  0
  -27.4064  -29.7236   25.4773 H   0  0  0  0  0  0
  -27.8918  -30.4211   23.9514 H   0  0  0  0  0  0
  -27.2610  -33.3629   26.2026 H   0  0  0  0  0  0
  -28.3896  -32.6909   25.0355 H   0  0  0  0  0  0
  -28.0697  -31.8499   26.5454 H   0  0  0  0  0  0
  -28.2566  -38.0091   24.7516 H   0  0  0  0  0  0
  -28.1088  -36.2604   24.6276 H   0  0  0  0  0  0
  -27.2298  -37.1384   25.8881 H   0  0  0  0  0  0
  -20.9468  -29.8786   21.6816 H   0  0  0  0  0  0
  -26.0130  -38.2805   24.1447 H   0  0  0  0  0  0
  -30.1307  -22.2182   22.3654 H   0  0  0  0  0  0
  -28.6039  -16.7894   22.0329 H   0  0  0  0  0  0
  -30.3272  -17.2556   22.1135 H   0  0  0  0  0  0
  -29.9630  -17.2290   18.5192 H   0  0  0  0  0  0
  -31.2555  -17.5669   19.7063 H   0  0  0  0  0  0
  -28.2181  -18.0365   19.9829 H   0  0  0  0  0  0
  -28.4223  -23.3630   18.8274 H   0  0  0  0  0  0
  -29.8530  -23.8144   19.6457 H   0  0  0  0  0  0
  -26.9935  -24.5167   20.4888 H   0  0  0  0  0  0
  -28.2970  -24.6862   21.5915 H   0  0  0  0  0  0
  1 25  1  0  0  0
  1 30  2  0  0  0
  1 81  1  0  0  0
  2  3  1  0  0  0
  2 25  1  0  0  0
  2 82  1  0  0  0
  2 83  1  0  0  0
  3  4  1  0  0  0
  3 84  1  0  0  0
  3 85  1  0  0  0
  4  5  1  0  0  0
  4 86  1  0  0  0
  4 87  1  0  0  0
  5  6  1  0  0  0
  5 26  1  0  0  0
  5 88  1  0  0  0
  6 25  1  0  0  0
  6 89  1  0  0  0
  6 90  1  0  0  0
  7  8  2  0  0  0
  7 26  1  0  0  0
  7 29  1  0  0  0
  8  9  1  0  0  0
  8 22  1  0  0  0
  9 10  1  0  0  0
  9 27  2  0  0  0
 10 11  2  0  0  0
 10 15  1  0  0  0
 11 12  1  0  0  0
 11 91  1  0  0  0
 12 13  2  0  0  0
 12 92  1  0  0  0
 13 14  1  0  0  0
 13 31  1  0  0  0
 14 15  2  0  0  0
 14 93  1  0  0  0
 15 94  1  0  0  0
 16 17  2  0  0  0
 16 21  1  0  0  0
 16 31  1  0  0  0
 17 18  1  0  0  0
 17 95  1  0  0  0
 18 19  2  0  0  0
 18 96  1  0  0  0
 19 20  1  0  0  0
 19 24  1  0  0  0
 20 21  2  0  0  0
 20 97  1  0  0  0
 21 23  1  0  0  0
 22 28  1  0  0  0
 22 32  2  0  0  0
 26 27  1  0  0  0
 28 98  1  0  0  0
 28 99  1  0  0  0
 29100  1  0  0  0
 29101  1  0  0  0
 33 34  1  0  0  0
 33 66  1  0  0  0
 33 70  2  0  0  0
 34 36  1  0  0  0
 34 59  1  0  0  0
 34102  1  0  0  0
 35 44  2  0  0  0
 35 45  1  0  0  0
 35 68  1  0  0  0
 36 56  1  0  0  0
 36103  1  0  0  0
 37 39  1  0  0  0
 37 47  1  0  0  0
 37 66  1  0  0  0
 37104  1  0  0  0
 38 43  2  0  0  0
 38 46  1  0  0  0
 38 47  1  0  0  0
 39 64  1  0  0  0
 39 67  2  0  0  0
 40 52  1  0  0  0
 40 53  2  0  0  0
 40 58  1  0  0  0
 41105  1  0  0  0
 41106  1  0  0  0
 41107  1  0  0  0
 41 48  1  0  0  0
 42 43  1  0  0  0
 42 66  1  0  0  0
 42108  1  0  0  0
 42109  1  0  0  0
 43 44  1  0  0  0
 44110  1  0  0  0
 45 46  2  0  0  0
 45111  1  0  0  0
 46112  1  0  0  0
 47113  1  0  0  0
 47114  1  0  0  0
 48 56  1  0  0  0
 48 65  1  0  0  0
 48115  1  0  0  0
 49 50  1  0  0  0
 49 53  1  0  0  0
 49 64  1  0  0  0
 49116  1  0  0  0
 50 51  1  0  0  0
 50117  1  0  0  0
 50118  1  0  0  0
 51 52  1  0  0  0
 51119  1  0  0  0
 51120  1  0  0  0
 52121  1  0  0  0
 52122  1  0  0  0
 53 54  1  0  0  0
 54 55  2  0  0  0
 54123  1  0  0  0
 55 57  1  0  0  0
 55124  1  0  0  0
 56 69  2  0  0  0
 57 58  2  0  0  0
 57125  1  0  0  0
 58126  1  0  0  0
 59 60  1  0  0  0
 59 61  1  0  0  0
 59 62  1  0  0  0
 60127  1  0  0  0
 60128  1  0  0  0
 60129  1  0  0  0
 61130  1  0  0  0
 61131  1  0  0  0
 61132  1  0  0  0
 62133  1  0  0  0
 62134  1  0  0  0
 62135  1  0  0  0
 63 65  1  0  0  0
 63136  1  0  0  0
 63137  1  0  0  0
 63138  1  0  0  0
 64139  1  0  0  0
 65140  1  0  0  0
 68 77  1  0  0  0
 71 72  1  0  0  0
 71 78  2  0  0  0
 71141  1  0  0  0
 72 76  1  0  0  0
 72 79  2  0  0  0
 73 75  1  0  0  0
 73 81  1  0  0  0
 73142  1  0  0  0
 73143  1  0  0  0
 74 75  1  0  0  0
 74 81  1  0  0  0
 74144  1  0  0  0
 74145  1  0  0  0
 75 80  1  0  0  0
 75146  1  0  0  0
 76 77  1  0  0  0
 76147  1  0  0  0
 76148  1  0  0  0
 77149  1  0  0  0
 77150  1  0  0  0
 78 80  1  0  0  0
 79 80  1  0  0  0
M  ISO  4   1 100  68 101  77 101  81 100
M  END
> <chiral flag>
0

> <version>
0

> <s_m_source_file>
/data/baiqing/PycharmProjects/Reinvent-master-3.2/result/LINK_invent/BTK/process_docking_weight1_custom_sum_contain_oxygen_bond_distance_aromatic_linkinvent_7_9_3/rearranged_h_0192.sdf

> <i_m_source_file_index>
68

> <r_mmod_Potential_Energy-OPLS-2005>
438.977325439453

> <r_mmod_Stretch_Energy-OPLS-2005>
187.574523925781

> <r_mmod_Bend_Energy-OPLS-2005>
229.712707519531

> <r_mmod_Torsional_Energy-OPLS-2005>
292.287384033203

> <r_mmod_Improper_Torsional_Energy-OPLS-2005>
19.5316734313965

> <r_mmod_Van_der_Waal_Energy-OPLS-2005>
108.061302185059

> <r_mmod_Electrostatic_Energy-OPLS-2005>
-322.832305908203

> <r_mmod_Solvation_Energy-OPLS-2005>
-217.233337402344

> <b_mmod_Minimization_Converged-OPLS-2005>
0

> <r_mmod_RMS_Derivative-OPLS-2005>
2.64305543899536

$$$$
68
                    3D
 Structure written by MMmdl.
160170  0  0  1  0            999 V2000
  -30.5833  -14.8167   20.4317 C   0  0  0  0  0  0
  -30.4342  -12.4971   19.4855 C   0  0  0  0  0  0
  -29.5147  -12.5121   18.2450 C   0  0  0  0  0  0
  -28.0421  -12.3289   18.6654 C   0  0  0  0  0  0
  -27.6385  -13.2419   19.8535 C   0  0  2  0  0  0
  -28.6846  -13.2066   20.9863 C   0  0  0  0  0  0
  -25.2480  -13.8227   20.5724 C   0  0  0  0  0  0
  -24.1798  -13.0428   20.9229 C   0  0  0  0  0  0
  -24.6417  -11.6911   20.8759 C   0  0  0  0  0  0
  -23.9107  -10.4274   21.0406 C   0  0  0  0  0  0
  -24.3649   -9.4180   21.9191 C   0  0  0  0  0  0
  -23.6309   -8.2225   22.0753 C   0  0  0  0  0  0
  -22.4279   -8.0271   21.3541 C   0  0  0  0  0  0
  -21.9920   -9.0255   20.4652 C   0  0  0  0  0  0
  -22.7272  -10.2127   20.3060 C   0  0  0  0  0  0
  -21.6848   -6.0704   22.5250 C   0  0  0  0  0  0
  -21.4011   -6.5631   23.8175 C   0  0  0  0  0  0
  -21.3656   -5.6798   24.9150 C   0  0  0  0  0  0
  -21.6063   -4.3053   24.7213 C   0  0  0  0  0  0
  -21.8832   -3.8122   23.4341 C   0  0  0  0  0  0
  -21.9201   -4.6933   22.3383 C   0  0  0  0  0  0
  -22.7810  -13.5160   21.1884 C   0  0  0  0  0  0
  -22.1660   -4.2113   21.0959 F   0  0  0  0  0  0
  -21.5645   -3.4550   25.7733 F   0  0  0  0  0  0
  -29.9744  -13.5773   20.3944 N   0  0  0  0  0  0
  -26.2928  -12.9465   20.3327 N   0  0  0  0  0  0
  -25.9350  -11.6580   20.5795 N   0  0  0  0  0  0
  -22.0519  -12.8108   22.0458 N   0  0  0  0  0  0
  -25.4113  -15.1956   20.4092 N   0  0  0  0  0  0
  -31.7780  -14.8972   20.1301 O   0  0  0  0  0  0
  -21.6656   -6.8846   21.4205 O   0  0  0  0  0  0
  -22.3462  -14.5459   20.6741 O   0  0  0  0  0  0
  -24.6530  -31.8476   23.1794 C   0  0  0  0  0  0
  -25.9232  -32.4754   23.8260 C   0  0  1  0  0  0
  -27.2347  -27.2085   20.1213 C   0  0  0  0  0  0
  -25.5932  -33.8520   24.2205 N   0  0  0  0  0  0
  -23.5993  -30.2216   21.6485 C   0  0  2  0  0  0
  -24.9365  -28.9301   20.0031 C   0  0  0  0  0  0
  -22.6963  -29.4549   22.6421 C   0  0  0  0  0  0
  -18.0015  -28.1432   22.8397 C   0  0  0  0  0  0
  -24.1477  -36.7279   23.2640 C   0  0  0  0  0  0
  -26.0300  -30.7931   21.3236 C   0  0  0  0  0  0
  -26.1185  -29.4090   20.6152 C   0  0  0  0  0  0
  -27.2718  -28.5509   20.6547 C   0  0  0  0  0  0
  -26.0326  -26.8087   19.5097 C   0  0  0  0  0  0
  -24.8980  -27.6410   19.4545 C   0  0  0  0  0  0
  -23.6602  -29.7446   20.1806 C   0  0  0  0  0  0
  -25.4098  -36.3037   24.0316 C   0  0  1  0  0  0
  -20.5457  -28.3782   23.1159 C   0  0  2  0  0  0
  -20.6530  -26.9488   22.5357 C   0  0  0  0  0  0
  -19.5569  -26.6406   21.5169 C   0  0  0  0  0  0
  -18.1722  -26.7973   22.1565 C   0  0  0  0  0  0
  -19.1232  -28.8943   23.2718 C   0  0  0  0  0  0
  -18.9259  -30.1518   23.8794 C   0  0  0  0  0  0
  -17.6286  -30.6666   24.0513 C   0  0  0  0  0  0
  -25.9026  -34.9422   23.5058 C   0  0  0  0  0  0
  -16.5168  -29.9151   23.6349 C   0  0  0  0  0  0
  -16.7027  -28.6537   23.0368 C   0  0  0  0  0  0
  -26.4510  -31.6581   25.0690 C   0  0  0  0  0  0
  -25.3672  -31.3782   26.1383 C   0  0  0  0  0  0
  -27.0382  -30.3013   24.6161 C   0  0  0  0  0  0
  -27.6056  -32.4301   25.7495 C   0  0  0  0  0  0
  -27.5564  -37.1789   24.8465 C   0  0  0  0  0  0
  -21.3971  -29.3111   22.3692 N   0  0  0  0  0  0
  -26.4275  -37.3731   23.9401 N   0  0  0  0  0  0
  -24.7368  -31.0842   22.0490 N   0  0  0  0  0  0
  -23.1980  -28.8766   23.6203 O   0  0  0  0  0  0
  -28.3025  -26.2711   20.0725 O   0  0  0  0  0  0
  -26.5605  -34.8914   22.4629 O   0  0  0  0  0  0
  -23.5616  -32.1015   23.7109 O   0  0  0  0  0  0
  -27.0713  -22.8670   20.5651 C   0  0  0  0  0  0
  -27.3551  -21.5077   20.5746 C   0  0  0  0  0  0
  -28.7783  -21.4152   20.4661 C   0  0  0  0  0  0
  -25.1221  -20.5597   21.6067 C   0  0  0  0  0  0
  -26.2522  -19.6941   22.0988 C   0  0  0  0  0  0
  -28.6111  -18.2865   19.0186 C   0  0  0  0  0  0
  -29.9972  -17.6747   18.7440 C   0  0  0  0  0  0
  -26.3641  -20.3859   20.7572 C   0  0  0  0  0  0
  -29.1046  -18.6963   20.4155 C   0  0  1  0  0  0
  -30.1743  -17.4490   20.2550 C   0  0  1  0  0  0
  -28.3417  -25.1226   21.0137 C   0  0  0  0  0  0
  -29.2811  -22.6994   20.4703 N   0  0  0  0  0  0
  -28.2291  -23.6368   20.5494 N   0  0  0  0  0  0
  -29.5575  -20.1695   20.4440 N   0  0  0  0  0  0
  -29.8082  -15.9736   20.5728 N   0  0  0  0  0  0
  -31.4721  -12.6338   19.1833 H   0  0  0  0  0  0
  -30.3905  -11.5292   19.9877 H   0  0  0  0  0  0
  -29.8075  -11.7259   17.5481 H   0  0  0  0  0  0
  -29.6346  -13.4534   17.7076 H   0  0  0  0  0  0
  -27.9096  -11.2849   18.9509 H   0  0  0  0  0  0
  -27.3838  -12.4909   17.8122 H   0  0  0  0  0  0
  -27.6228  -14.2566   19.4561 H   0  0  0  0  0  0
  -28.7432  -12.2146   21.4360 H   0  0  0  0  0  0
  -28.4163  -13.8915   21.7915 H   0  0  0  0  0  0
  -25.2791   -9.5656   22.4772 H   0  0  0  0  0  0
  -24.0003   -7.4613   22.7471 H   0  0  0  0  0  0
  -21.0840   -8.8786   19.8979 H   0  0  0  0  0  0
  -22.3721  -10.9670   19.6170 H   0  0  0  0  0  0
  -21.2001   -7.6136   23.9654 H   0  0  0  0  0  0
  -21.1474   -6.0538   25.9054 H   0  0  0  0  0  0
  -22.0628   -2.7580   23.2856 H   0  0  0  0  0  0
  -22.4150  -11.9753   22.4805 H   0  0  0  0  0  0
  -21.1144  -13.1067   22.2717 H   0  0  0  0  0  0
  -24.6354  -15.8401   20.5125 H   0  0  0  0  0  0
  -26.2478  -15.6414   20.0578 H   0  0  0  0  0  0
  -26.7358  -32.5440   23.1081 H   0  0  0  0  0  0
  -25.0089  -33.9597   25.0355 H   0  0  0  0  0  0
  -24.2508  -29.4383   21.9952 H   0  0  0  0  0  0
  -23.3679  -35.9666   23.3288 H   0  0  0  0  0  0
  -24.3609  -36.8912   22.2070 H   0  0  0  0  0  0
  -23.7285  -37.6499   23.6668 H   0  0  0  0  0  0
  -26.1826  -31.5715   20.5746 H   0  0  0  0  0  0
  -26.8975  -30.8313   21.9751 H   0  0  0  0  0  0
  -28.1869  -28.8997   21.1140 H   0  0  0  0  0  0
  -25.9632  -25.8146   19.0913 H   0  0  0  0  0  0
  -23.9825  -27.2627   19.0221 H   0  0  0  0  0  0
  -23.6616  -30.5894   19.4898 H   0  0  0  0  0  0
  -22.7894  -29.1334   19.9330 H   0  0  0  0  0  0
  -25.1272  -36.1879   25.0806 H   0  0  0  0  0  0
  -20.9059  -28.3209   24.1444 H   0  0  0  0  0  0
  -20.5394  -26.2364   23.3556 H   0  0  0  0  0  0
  -21.6444  -26.7604   22.1216 H   0  0  0  0  0  0
  -19.6759  -25.6281   21.1284 H   0  0  0  0  0  0
  -19.6526  -27.3177   20.6662 H   0  0  0  0  0  0
  -17.4037  -26.6706   21.3935 H   0  0  0  0  0  0
  -18.0110  -26.0138   22.8991 H   0  0  0  0  0  0
  -19.7771  -30.7267   24.2163 H   0  0  0  0  0  0
  -17.4882  -31.6372   24.5053 H   0  0  0  0  0  0
  -15.5175  -30.3071   23.7720 H   0  0  0  0  0  0
  -15.8392  -28.0881   22.7183 H   0  0  0  0  0  0
  -24.5806  -30.7170   25.7714 H   0  0  0  0  0  0
  -24.8881  -32.2974   26.4791 H   0  0  0  0  0  0
  -25.7913  -30.8970   27.0196 H   0  0  0  0  0  0
  -26.3016  -29.6796   24.1057 H   0  0  0  0  0  0
  -27.4005  -29.7265   25.4699 H   0  0  0  0  0  0
  -27.8909  -30.4342   23.9495 H   0  0  0  0  0  0
  -27.2677  -33.3609   26.2064 H   0  0  0  0  0  0
  -28.3878  -32.6865   25.0328 H   0  0  0  0  0  0
  -28.0694  -31.8417   26.5433 H   0  0  0  0  0  0
  -28.2558  -38.0094   24.7430 H   0  0  0  0  0  0
  -28.1047  -36.2602   24.6318 H   0  0  0  0  0  0
  -27.2291  -37.1504   25.8873 H   0  0  0  0  0  0
  -20.9955  -29.7930   21.5784 H   0  0  0  0  0  0
  -26.0124  -38.2797   24.1328 H   0  0  0  0  0  0
  -26.1112  -23.3459   20.6965 H   0  0  0  0  0  0
  -24.9689  -21.5132   22.1101 H   0  0  0  0  0  0
  -24.2134  -20.0498   21.2939 H   0  0  0  0  0  0
  -26.1080  -18.6145   22.0947 H   0  0  0  0  0  0
  -26.8536  -20.0745   22.9225 H   0  0  0  0  0  0
  -27.8220  -17.5330   19.0575 H   0  0  0  0  0  0
  -28.3326  -19.1035   18.3492 H   0  0  0  0  0  0
  -29.9797  -16.7721   18.1292 H   0  0  0  0  0  0
  -30.7107  -18.3956   18.3420 H   0  0  0  0  0  0
  -26.2752  -19.7612   19.8704 H   0  0  0  0  0  0
  -28.3742  -18.4934   21.1979 H   0  0  0  0  0  0
  -31.1772  -17.7130   20.5985 H   0  0  0  0  0  0
  -29.2838  -25.2050   21.5518 H   0  0  0  0  0  0
  -27.5587  -25.2777   21.7571 H   0  0  0  0  0  0
  -30.5624  -20.3023   20.4494 H   0  0  0  0  0  0
  -28.8410  -15.8150   20.8048 H   0  0  0  0  0  0
  1 25  1  0  0  0
  1 30  2  0  0  0
  1 85  1  0  0  0
  2  3  1  0  0  0
  2 25  1  0  0  0
  2 86  1  0  0  0
  2 87  1  0  0  0
  3  4  1  0  0  0
  3 88  1  0  0  0
  3 89  1  0  0  0
  4  5  1  0  0  0
  4 90  1  0  0  0
  4 91  1  0  0  0
  5  6  1  0  0  0
  5 26  1  0  0  0
  5 92  1  0  0  0
  6 25  1  0  0  0
  6 93  1  0  0  0
  6 94  1  0  0  0
  7  8  2  0  0  0
  7 26  1  0  0  0
  7 29  1  0  0  0
  8  9  1  0  0  0
  8 22  1  0  0  0
  9 10  1  0  0  0
  9 27  2  0  0  0
 10 11  2  0  0  0
 10 15  1  0  0  0
 11 12  1  0  0  0
 11 95  1  0  0  0
 12 13  2  0  0  0
 12 96  1  0  0  0
 13 14  1  0  0  0
 13 31  1  0  0  0
 14 15  2  0  0  0
 14 97  1  0  0  0
 15 98  1  0  0  0
 16 17  2  0  0  0
 16 21  1  0  0  0
 16 31  1  0  0  0
 17 18  1  0  0  0
 17 99  1  0  0  0
 18 19  2  0  0  0
 18100  1  0  0  0
 19 20  1  0  0  0
 19 24  1  0  0  0
 20 21  2  0  0  0
 20101  1  0  0  0
 21 23  1  0  0  0
 22 28  1  0  0  0
 22 32  2  0  0  0
 26 27  1  0  0  0
 28102  1  0  0  0
 28103  1  0  0  0
 29104  1  0  0  0
 29105  1  0  0  0
 33 34  1  0  0  0
 33 66  1  0  0  0
 33 70  2  0  0  0
 34 36  1  0  0  0
 34 59  1  0  0  0
 34106  1  0  0  0
 35 44  2  0  0  0
 35 45  1  0  0  0
 35 68  1  0  0  0
 36 56  1  0  0  0
 36107  1  0  0  0
 37 39  1  0  0  0
 37 47  1  0  0  0
 37 66  1  0  0  0
 37108  1  0  0  0
 38 43  2  0  0  0
 38 46  1  0  0  0
 38 47  1  0  0  0
 39 64  1  0  0  0
 39 67  2  0  0  0
 40 52  1  0  0  0
 40 53  2  0  0  0
 40 58  1  0  0  0
 41109  1  0  0  0
 41110  1  0  0  0
 41111  1  0  0  0
 41 48  1  0  0  0
 42 43  1  0  0  0
 42 66  1  0  0  0
 42112  1  0  0  0
 42113  1  0  0  0
 43 44  1  0  0  0
 44114  1  0  0  0
 45 46  2  0  0  0
 45115  1  0  0  0
 46116  1  0  0  0
 47117  1  0  0  0
 47118  1  0  0  0
 48 56  1  0  0  0
 48 65  1  0  0  0
 48119  1  0  0  0
 49 50  1  0  0  0
 49 53  1  0  0  0
 49 64  1  0  0  0
 49120  1  0  0  0
 50 51  1  0  0  0
 50121  1  0  0  0
 50122  1  0  0  0
 51 52  1  0  0  0
 51123  1  0  0  0
 51124  1  0  0  0
 52125  1  0  0  0
 52126  1  0  0  0
 53 54  1  0  0  0
 54 55  2  0  0  0
 54127  1  0  0  0
 55 57  1  0  0  0
 55128  1  0  0  0
 56 69  2  0  0  0
 57 58  2  0  0  0
 57129  1  0  0  0
 58130  1  0  0  0
 59 60  1  0  0  0
 59 61  1  0  0  0
 59 62  1  0  0  0
 60131  1  0  0  0
 60132  1  0  0  0
 60133  1  0  0  0
 61134  1  0  0  0
 61135  1  0  0  0
 61136  1  0  0  0
 62137  1  0  0  0
 62138  1  0  0  0
 62139  1  0  0  0
 63 65  1  0  0  0
 63140  1  0  0  0
 63141  1  0  0  0
 63142  1  0  0  0
 64143  1  0  0  0
 65144  1  0  0  0
 68 81  1  0  0  0
 71 72  2  0  0  0
 71 83  1  0  0  0
 71145  1  0  0  0
 72 73  1  0  0  0
 72 78  1  0  0  0
 73 82  2  0  0  0
 73 84  1  0  0  0
 74 75  1  0  0  0
 74 78  1  0  0  0
 74146  1  0  0  0
 74147  1  0  0  0
 75 78  1  0  0  0
 75148  1  0  0  0
 75149  1  0  0  0
 76 77  1  0  0  0
 76 79  1  0  0  0
 76150  1  0  0  0
 76151  1  0  0  0
 77 80  1  0  0  0
 77152  1  0  0  0
 77153  1  0  0  0
 78154  1  0  0  0
 79 80  1  0  0  0
 79 84  1  0  0  0
 79155  1  0  0  0
 80 85  1  0  0  0
 80156  1  0  0  0
 81 83  1  0  0  0
 81157  1  0  0  0
 81158  1  0  0  0
 82 83  1  0  0  0
 84159  1  0  0  0
 85160  1  0  0  0
M  ISO  4   1 100  68 101  81 101  85 100
M  END
> <chiral flag>
0

> <version>
0

> <s_m_source_file>
/data/baiqing/PycharmProjects/Reinvent-master-3.2/result/LINK_invent/BTK/process_docking_weight1_custom_sum_contain_oxygen_bond_distance_aromatic_linkinvent_7_9_3/rearranged_h_0192.sdf

> <i_m_source_file_index>
69

> <r_mmod_Potential_Energy-OPLS-2005>
427.690307617188

> <r_mmod_Stretch_Energy-OPLS-2005>
164.532699584961

> <r_mmod_Bend_Energy-OPLS-2005>
356.112701416016

> <r_mmod_Torsional_Energy-OPLS-2005>
320.161834716797

> <r_mmod_Improper_Torsional_Energy-OPLS-2005>
13.1298036575317

> <r_mmod_Van_der_Waal_Energy-OPLS-2005>
152.858840942383

> <r_mmod_Electrostatic_Energy-OPLS-2005>
-496.237274169922

> <r_mmod_Solvation_Energy-OPLS-2005>
-236.293090820312

> <b_mmod_Minimization_Converged-OPLS-2005>
0

> <r_mmod_RMS_Derivative-OPLS-2005>
4.77832269668579

$$$$
69
                    3D
 Structure written by MMmdl.
161169  0  0  1  0            999 V2000
  -30.6978  -14.5169   20.4607 C   0  0  0  0  0  0
  -30.4176  -12.3088   19.4271 C   0  0  0  0  0  0
  -29.4899  -12.4753   18.2065 C   0  0  0  0  0  0
  -28.0119  -12.3375   18.6228 C   0  0  0  0  0  0
  -27.6487  -13.1945   19.8651 C   0  0  2  0  0  0
  -28.7063  -13.0577   20.9852 C   0  0  0  0  0  0
  -25.2568  -13.8106   20.5719 C   0  0  0  0  0  0
  -24.1818  -13.0407   20.9201 C   0  0  0  0  0  0
  -24.6358  -11.6866   20.8761 C   0  0  0  0  0  0
  -23.9018  -10.4265   21.0415 C   0  0  0  0  0  0
  -24.3583   -9.4181   21.9186 C   0  0  0  0  0  0
  -23.6268   -8.2216   22.0743 C   0  0  0  0  0  0
  -22.4253   -8.0258   21.3535 C   0  0  0  0  0  0
  -21.9883   -9.0228   20.4633 C   0  0  0  0  0  0
  -22.7201  -10.2107   20.3050 C   0  0  0  0  0  0
  -21.6851   -6.0709   22.5267 C   0  0  0  0  0  0
  -21.4019   -6.5617   23.8200 C   0  0  0  0  0  0
  -21.3667   -5.6777   24.9165 C   0  0  0  0  0  0
  -21.6053   -4.3038   24.7221 C   0  0  0  0  0  0
  -21.8824   -3.8122   23.4345 C   0  0  0  0  0  0
  -21.9192   -4.6938   22.3396 C   0  0  0  0  0  0
  -22.7841  -13.5219   21.1843 C   0  0  0  0  0  0
  -22.1658   -4.2121   21.0973 F   0  0  0  0  0  0
  -21.5635   -3.4525   25.7735 F   0  0  0  0  0  0
  -30.0254  -13.3353   20.3997 N   0  0  0  0  0  0
  -26.2973  -12.9232   20.3395 N   0  0  0  0  0  0
  -25.9281  -11.6413   20.5809 N   0  0  0  0  0  0
  -22.0470  -12.8229   22.0406 N   0  0  0  0  0  0
  -25.4311  -15.1829   20.4130 N   0  0  0  0  0  0
  -31.8987  -14.6201   20.1980 O   0  0  0  0  0  0
  -21.6633   -6.8849   21.4226 O   0  0  0  0  0  0
  -22.3538  -14.5522   20.6668 O   0  0  0  0  0  0
  -24.6165  -31.8673   23.2123 C   0  0  0  0  0  0
  -25.9060  -32.4819   23.8412 C   0  0  1  0  0  0
  -27.2268  -27.4169   20.0955 C   0  0  0  0  0  0
  -25.5914  -33.8621   24.2345 N   0  0  0  0  0  0
  -23.4040  -30.4949   21.5522 C   0  0  2  0  0  0
  -24.8494  -28.9674   20.1098 C   0  0  0  0  0  0
  -22.7410  -29.4657   22.4970 C   0  0  0  0  0  0
  -18.0276  -28.1377   22.8491 C   0  0  0  0  0  0
  -24.1481  -36.7307   23.2644 C   0  0  0  0  0  0
  -25.9366  -30.8276   21.3703 C   0  0  0  0  0  0
  -26.0121  -29.4644   20.7114 C   0  0  0  0  0  0
  -27.2029  -28.6971   20.7029 C   0  0  0  0  0  0
  -26.0441  -26.9541   19.4686 C   0  0  0  0  0  0
  -24.8622  -27.7122   19.4849 C   0  0  0  0  0  0
  -23.6130  -29.8357   20.1639 C   0  0  0  0  0  0
  -25.4102  -36.3110   24.0340 C   0  0  1  0  0  0
  -20.5866  -28.3658   23.1311 C   0  0  2  0  0  0
  -20.6768  -26.9393   22.5418 C   0  0  0  0  0  0
  -19.5748  -26.6383   21.5213 C   0  0  0  0  0  0
  -18.1922  -26.7923   22.1621 C   0  0  0  0  0  0
  -19.1526  -28.8832   23.2898 C   0  0  0  0  0  0
  -18.9461  -30.1440   23.8907 C   0  0  0  0  0  0
  -17.6465  -30.6582   24.0562 C   0  0  0  0  0  0
  -25.9039  -34.9473   23.5136 C   0  0  0  0  0  0
  -16.5352  -29.9084   23.6339 C   0  0  0  0  0  0
  -16.7266  -28.6505   23.0352 C   0  0  0  0  0  0
  -26.4484  -31.6602   25.0743 C   0  0  0  0  0  0
  -25.3752  -31.3712   26.1494 C   0  0  0  0  0  0
  -27.0337  -30.3054   24.6134 C   0  0  0  0  0  0
  -27.6061  -32.4317   25.7498 C   0  0  0  0  0  0
  -27.5570  -37.1807   24.8467 C   0  0  0  0  0  0
  -21.4137  -29.3026   22.3713 N   0  0  0  0  0  0
  -26.4286  -37.3795   23.9408 N   0  0  0  0  0  0
  -24.6707  -31.0766   22.1033 N   0  0  0  0  0  0
  -23.4185  -28.8190   23.3004 O   0  0  0  0  0  0
  -28.3784  -26.6447   20.1425 O   0  0  0  0  0  0
  -26.5583  -34.8910   22.4688 O   0  0  0  0  0  0
  -23.5352  -32.1425   23.7509 O   0  0  0  0  0  0
  -29.7860  -17.7124   19.1823 C   0  0  0  0  0  0
  -29.5745  -16.1975   19.1298 C   0  0  0  0  0  0
  -30.2284  -16.7928   21.3192 C   0  0  0  0  0  0
  -29.5675  -18.0186   20.6513 C   0  0  1  0  0  0
  -29.5697  -22.0231   22.6415 C   0  0  0  0  0  0
  -29.3040  -24.3245   20.5758 C   0  0  0  0  0  0
  -29.2464  -20.5028   20.5972 C   0  0  0  0  0  0
  -28.1969  -25.2229   19.9740 C   0  0  0  0  0  0
  -29.7090  -21.9027   21.1110 C   0  0  1  0  0  0
  -29.9206  -15.6318   20.4548 N   0  0  0  0  0  0
  -28.8699  -22.9218   20.4664 N   0  0  0  0  0  0
  -30.0582  -19.3566   21.0898 N   0  3  0  0  0  0
  -31.4634  -12.3961   19.1260 H   0  0  0  0  0  0
  -30.3121  -11.3155   19.8650 H   0  0  0  0  0  0
  -29.7337  -11.7330   17.4464 H   0  0  0  0  0  0
  -29.6519  -13.4478   17.7396 H   0  0  0  0  0  0
  -27.8264  -11.2831   18.8322 H   0  0  0  0  0  0
  -27.3614  -12.5969   17.7859 H   0  0  0  0  0  0
  -27.6461  -14.2234   19.5296 H   0  0  0  0  0  0
  -28.6943  -12.0505   21.4045 H   0  0  0  0  0  0
  -28.4894  -13.7395   21.8092 H   0  0  0  0  0  0
  -25.2725   -9.5668   22.4764 H   0  0  0  0  0  0
  -23.9984   -7.4606   22.7462 H   0  0  0  0  0  0
  -21.0813   -8.8735   19.8937 H   0  0  0  0  0  0
  -22.3656  -10.9646   19.6158 H   0  0  0  0  0  0
  -21.2014   -7.6123   23.9696 H   0  0  0  0  0  0
  -21.1494   -6.0502   25.9069 H   0  0  0  0  0  0
  -22.0604   -2.7580   23.2848 H   0  0  0  0  0  0
  -22.4072  -11.9899   22.4825 H   0  0  0  0  0  0
  -21.1077  -13.1243   22.2571 H   0  0  0  0  0  0
  -24.6700  -15.8433   20.5309 H   0  0  0  0  0  0
  -26.2949  -15.6218   20.1223 H   0  0  0  0  0  0
  -26.7122  -32.5523   23.1163 H   0  0  0  0  0  0
  -25.0089  -33.9786   25.0509 H   0  0  0  0  0  0
  -22.6932  -31.3126   21.4167 H   0  0  0  0  0  0
  -23.3737  -35.9646   23.3329 H   0  0  0  0  0  0
  -24.3592  -36.8899   22.2057 H   0  0  0  0  0  0
  -23.7220  -37.6513   23.6644 H   0  0  0  0  0  0
  -26.0550  -31.5961   20.6053 H   0  0  0  0  0  0
  -26.8233  -30.8745   21.9915 H   0  0  0  0  0  0
  -28.0946  -29.0719   21.1857 H   0  0  0  0  0  0
  -26.0054  -26.0010   18.9601 H   0  0  0  0  0  0
  -23.9717  -27.3251   19.0099 H   0  0  0  0  0  0
  -23.7221  -30.6158   19.4104 H   0  0  0  0  0  0
  -22.7352  -29.2610   19.8638 H   0  0  0  0  0  0
  -25.1274  -36.1988   25.0831 H   0  0  0  0  0  0
  -20.9966  -28.3228   24.1425 H   0  0  0  0  0  0
  -20.5685  -26.2257   23.3601 H   0  0  0  0  0  0
  -21.6635  -26.7442   22.1197 H   0  0  0  0  0  0
  -19.6914  -25.6302   21.1222 H   0  0  0  0  0  0
  -19.6698  -27.3206   20.6754 H   0  0  0  0  0  0
  -17.4198  -26.6678   21.4016 H   0  0  0  0  0  0
  -18.0318  -26.0059   22.9013 H   0  0  0  0  0  0
  -19.7942  -30.7247   24.2279 H   0  0  0  0  0  0
  -17.5028  -31.6269   24.5151 H   0  0  0  0  0  0
  -15.5355  -30.2989   23.7667 H   0  0  0  0  0  0
  -15.8663  -28.0831   22.7060 H   0  0  0  0  0  0
  -24.5923  -30.7053   25.7844 H   0  0  0  0  0  0
  -24.8941  -32.2869   26.4950 H   0  0  0  0  0  0
  -25.8113  -30.8887   27.0252 H   0  0  0  0  0  0
  -26.2904  -29.6781   24.1201 H   0  0  0  0  0  0
  -27.4135  -29.7319   25.4600 H   0  0  0  0  0  0
  -27.8715  -30.4391   23.9282 H   0  0  0  0  0  0
  -27.2701  -33.3614   26.2097 H   0  0  0  0  0  0
  -28.3864  -32.6877   25.0319 H   0  0  0  0  0  0
  -28.0732  -31.8422   26.5400 H   0  0  0  0  0  0
  -28.2600  -38.0092   24.7512 H   0  0  0  0  0  0
  -28.1050  -36.2627   24.6303 H   0  0  0  0  0  0
  -27.2293  -37.1461   25.8871 H   0  0  0  0  0  0
  -20.9291  -29.8775   21.6960 H   0  0  0  0  0  0
  -26.0180  -38.2872   24.1427 H   0  0  0  0  0  0
  -29.1034  -18.2506   18.5223 H   0  0  0  0  0  0
  -30.8076  -17.9554   18.8866 H   0  0  0  0  0  0
  -30.1517  -15.7628   18.3103 H   0  0  0  0  0  0
  -28.5261  -16.0118   18.9086 H   0  0  0  0  0  0
  -29.8524  -16.6376   22.3315 H   0  0  0  0  0  0
  -31.3097  -16.9305   21.3854 H   0  0  0  0  0  0
  -28.4974  -17.9662   20.8603 H   0  0  0  0  0  0
  -30.1719  -21.2729   23.1551 H   0  0  0  0  0  0
  -28.5371  -21.8905   22.9673 H   0  0  0  0  0  0
  -29.9112  -22.9880   23.0130 H   0  0  0  0  0  0
  -29.4532  -24.6040   21.6192 H   0  0  0  0  0  0
  -30.2532  -24.4753   20.0581 H   0  0  0  0  0  0
  -29.2748  -20.4977   19.5065 H   0  0  0  0  0  0
  -28.2041  -20.3365   20.8762 H   0  0  0  0  0  0
  -27.2680  -24.9166   20.4595 H   0  0  0  0  0  0
  -28.0923  -25.0070   18.9093 H   0  0  0  0  0  0
  -30.7487  -22.0685   20.8207 H   0  0  0  0  0  0
  -27.9223  -22.8469   20.8254 H   0  0  0  0  0  0
  -31.0132  -19.4844   20.7954 H   0  0  0  0  0  0
  -30.0422  -19.3811   22.0960 H   0  0  0  0  0  0
  1 25  1  0  0  0
  1 30  2  0  0  0
  1 80  1  0  0  0
  2  3  1  0  0  0
  2 25  1  0  0  0
  2 83  1  0  0  0
  2 84  1  0  0  0
  3  4  1  0  0  0
  3 85  1  0  0  0
  3 86  1  0  0  0
  4  5  1  0  0  0
  4 87  1  0  0  0
  4 88  1  0  0  0
  5  6  1  0  0  0
  5 26  1  0  0  0
  5 89  1  0  0  0
  6 25  1  0  0  0
  6 90  1  0  0  0
  6 91  1  0  0  0
  7  8  2  0  0  0
  7 26  1  0  0  0
  7 29  1  0  0  0
  8  9  1  0  0  0
  8 22  1  0  0  0
  9 10  1  0  0  0
  9 27  2  0  0  0
 10 11  2  0  0  0
 10 15  1  0  0  0
 11 12  1  0  0  0
 11 92  1  0  0  0
 12 13  2  0  0  0
 12 93  1  0  0  0
 13 14  1  0  0  0
 13 31  1  0  0  0
 14 15  2  0  0  0
 14 94  1  0  0  0
 15 95  1  0  0  0
 16 17  2  0  0  0
 16 21  1  0  0  0
 16 31  1  0  0  0
 17 18  1  0  0  0
 17 96  1  0  0  0
 18 19  2  0  0  0
 18 97  1  0  0  0
 19 20  1  0  0  0
 19 24  1  0  0  0
 20 21  2  0  0  0
 20 98  1  0  0  0
 21 23  1  0  0  0
 22 28  1  0  0  0
 22 32  2  0  0  0
 26 27  1  0  0  0
 28 99  1  0  0  0
 28100  1  0  0  0
 29101  1  0  0  0
 29102  1  0  0  0
 33 34  1  0  0  0
 33 66  1  0  0  0
 33 70  2  0  0  0
 34 36  1  0  0  0
 34 59  1  0  0  0
 34103  1  0  0  0
 35 44  2  0  0  0
 35 45  1  0  0  0
 35 68  1  0  0  0
 36 56  1  0  0  0
 36104  1  0  0  0
 37 39  1  0  0  0
 37 47  1  0  0  0
 37 66  1  0  0  0
 37105  1  0  0  0
 38 43  2  0  0  0
 38 46  1  0  0  0
 38 47  1  0  0  0
 39 64  1  0  0  0
 39 67  2  0  0  0
 40 52  1  0  0  0
 40 53  2  0  0  0
 40 58  1  0  0  0
 41106  1  0  0  0
 41107  1  0  0  0
 41108  1  0  0  0
 41 48  1  0  0  0
 42 43  1  0  0  0
 42 66  1  0  0  0
 42109  1  0  0  0
 42110  1  0  0  0
 43 44  1  0  0  0
 44111  1  0  0  0
 45 46  2  0  0  0
 45112  1  0  0  0
 46113  1  0  0  0
 47114  1  0  0  0
 47115  1  0  0  0
 48 56  1  0  0  0
 48 65  1  0  0  0
 48116  1  0  0  0
 49 50  1  0  0  0
 49 53  1  0  0  0
 49 64  1  0  0  0
 49117  1  0  0  0
 50 51  1  0  0  0
 50118  1  0  0  0
 50119  1  0  0  0
 51 52  1  0  0  0
 51120  1  0  0  0
 51121  1  0  0  0
 52122  1  0  0  0
 52123  1  0  0  0
 53 54  1  0  0  0
 54 55  2  0  0  0
 54124  1  0  0  0
 55 57  1  0  0  0
 55125  1  0  0  0
 56 69  2  0  0  0
 57 58  2  0  0  0
 57126  1  0  0  0
 58127  1  0  0  0
 59 60  1  0  0  0
 59 61  1  0  0  0
 59 62  1  0  0  0
 60128  1  0  0  0
 60129  1  0  0  0
 60130  1  0  0  0
 61131  1  0  0  0
 61132  1  0  0  0
 61133  1  0  0  0
 62134  1  0  0  0
 62135  1  0  0  0
 62136  1  0  0  0
 63 65  1  0  0  0
 63137  1  0  0  0
 63138  1  0  0  0
 63139  1  0  0  0
 64140  1  0  0  0
 65141  1  0  0  0
 68 78  1  0  0  0
 71 72  1  0  0  0
 71 74  1  0  0  0
 71142  1  0  0  0
 71143  1  0  0  0
 72 80  1  0  0  0
 72144  1  0  0  0
 72145  1  0  0  0
 73 74  1  0  0  0
 73 80  1  0  0  0
 73146  1  0  0  0
 73147  1  0  0  0
 74 82  1  0  0  0
 74148  1  0  0  0
 75149  1  0  0  0
 75150  1  0  0  0
 75151  1  0  0  0
 75 79  1  0  0  0
 76 78  1  0  0  0
 76 81  1  0  0  0
 76152  1  0  0  0
 76153  1  0  0  0
 77 79  1  0  0  0
 77 82  1  0  0  0
 77154  1  0  0  0
 77155  1  0  0  0
 78156  1  0  0  0
 78157  1  0  0  0
 79 81  1  0  0  0
 79158  1  0  0  0
 81159  1  0  0  0
 82160  1  0  0  0
 82161  1  0  0  0
M  CHG  1  82   1
M  ISO  4   1 100  68 101  78 101  80 100
M  END
> <chiral flag>
0

> <version>
0

> <s_m_source_file>
/data/baiqing/PycharmProjects/Reinvent-master-3.2/result/LINK_invent/BTK/process_docking_weight1_custom_sum_contain_oxygen_bond_distance_aromatic_linkinvent_7_9_3/rearranged_h_0192.sdf

> <i_m_source_file_index>
70

> <r_mmod_Potential_Energy-OPLS-2005>
32.7781448364258

> <r_mmod_Stretch_Energy-OPLS-2005>
40.5576782226562

> <r_mmod_Bend_Energy-OPLS-2005>
132.670028686523

> <r_mmod_Torsional_Energy-OPLS-2005>
345.525970458984

> <r_mmod_Improper_Torsional_Energy-OPLS-2005>
14.1413116455078

> <r_mmod_Van_der_Waal_Energy-OPLS-2005>
136.105316162109

> <r_mmod_Electrostatic_Energy-OPLS-2005>
-202.263870239258

> <r_mmod_Solvation_Energy-OPLS-2005>
-459.985107421875

> <b_mmod_Minimization_Converged-OPLS-2005>
0

> <r_mmod_RMS_Derivative-OPLS-2005>
1.97646880149841

$$$$
70
                    3D
 Structure written by MMmdl.
161171  0  0  1  0            999 V2000
  -30.5832  -14.9414   20.4164 C   0  0  0  0  0  0
  -30.4258  -12.5862   19.4963 C   0  0  0  0  0  0
  -29.5146  -12.5279   18.2512 C   0  0  0  0  0  0
  -28.0485  -12.3191   18.6714 C   0  0  0  0  0  0
  -27.6246  -13.2564   19.8337 C   0  0  2  0  0  0
  -28.6681  -13.3102   20.9688 C   0  0  0  0  0  0
  -25.2449  -13.8241   20.5737 C   0  0  0  0  0  0
  -24.1766  -13.0453   20.9230 C   0  0  0  0  0  0
  -24.6389  -11.6938   20.8749 C   0  0  0  0  0  0
  -23.9078  -10.4302   21.0402 C   0  0  0  0  0  0
  -24.3624   -9.4216   21.9181 C   0  0  0  0  0  0
  -23.6303   -8.2247   22.0750 C   0  0  0  0  0  0
  -22.4287   -8.0280   21.3541 C   0  0  0  0  0  0
  -21.9921   -9.0255   20.4644 C   0  0  0  0  0  0
  -22.7247  -10.2136   20.3053 C   0  0  0  0  0  0
  -21.6856   -6.0737   22.5278 C   0  0  0  0  0  0
  -21.4016   -6.5637   23.8212 C   0  0  0  0  0  0
  -21.3664   -5.6790   24.9175 C   0  0  0  0  0  0
  -21.6044   -4.3053   24.7222 C   0  0  0  0  0  0
  -21.8819   -3.8144   23.4343 C   0  0  0  0  0  0
  -21.9193   -4.6962   22.3401 C   0  0  0  0  0  0
  -22.7786  -13.5217   21.1879 C   0  0  0  0  0  0
  -22.1664   -4.2148   21.0979 F   0  0  0  0  0  0
  -21.5632   -3.4534   25.7735 F   0  0  0  0  0  0
  -29.9389  -13.7061   20.3539 N   0  0  0  0  0  0
  -26.2870  -12.9484   20.3255 N   0  0  0  0  0  0
  -25.9324  -11.6606   20.5733 N   0  0  0  0  0  0
  -22.0436  -12.8209   22.0434 N   0  0  0  0  0  0
  -25.4138  -15.1970   20.4207 N   0  0  0  0  0  0
  -31.7953  -14.9328   20.1714 O   0  0  0  0  0  0
  -21.6647   -6.8880   21.4240 O   0  0  0  0  0  0
  -22.3469  -14.5516   20.6718 O   0  0  0  0  0  0
  -24.6450  -31.8436   23.1884 C   0  0  0  0  0  0
  -25.9219  -32.4687   23.8275 C   0  0  1  0  0  0
  -27.2075  -27.1219   20.1495 C   0  0  0  0  0  0
  -25.5966  -33.8494   24.2189 N   0  0  0  0  0  0
  -23.4485  -30.4651   21.5346 C   0  0  2  0  0  0
  -24.8963  -28.8928   20.1099 C   0  0  0  0  0  0
  -22.7574  -29.4551   22.4854 C   0  0  0  0  0  0
  -18.0306  -28.1392   22.8477 C   0  0  0  0  0  0
  -24.1493  -36.7253   23.2642 C   0  0  0  0  0  0
  -26.0066  -30.7128   21.3902 C   0  0  0  0  0  0
  -26.0756  -29.3237   20.7304 C   0  0  0  0  0  0
  -27.2336  -28.4552   20.7324 C   0  0  0  0  0  0
  -26.0011  -26.8010   19.4869 C   0  0  0  0  0  0
  -24.8731  -27.6458   19.4717 C   0  0  0  0  0  0
  -23.6752  -29.7973   20.1532 C   0  0  0  0  0  0
  -25.4123  -36.3030   24.0315 C   0  0  1  0  0  0
  -20.5920  -28.3724   23.1228 C   0  0  2  0  0  0
  -20.6788  -26.9427   22.5400 C   0  0  0  0  0  0
  -19.5763  -26.6380   21.5209 C   0  0  0  0  0  0
  -18.1946  -26.7929   22.1624 C   0  0  0  0  0  0
  -19.1562  -28.8876   23.2844 C   0  0  0  0  0  0
  -18.9479  -30.1471   23.8871 C   0  0  0  0  0  0
  -17.6475  -30.6587   24.0557 C   0  0  0  0  0  0
  -25.9079  -34.9405   23.5061 C   0  0  0  0  0  0
  -16.5366  -29.9082   23.6335 C   0  0  0  0  0  0
  -16.7289  -28.6498   23.0358 C   0  0  0  0  0  0
  -26.4534  -31.6556   25.0720 C   0  0  0  0  0  0
  -25.3713  -31.3748   26.1412 C   0  0  0  0  0  0
  -27.0398  -30.2946   24.6315 C   0  0  0  0  0  0
  -27.6064  -32.4320   25.7507 C   0  0  0  0  0  0
  -27.5577  -37.1784   24.8463 C   0  0  0  0  0  0
  -21.4265  -29.3053   22.3600 N   0  0  0  0  0  0
  -26.4286  -37.3744   23.9411 N   0  0  0  0  0  0
  -24.7201  -31.0285   22.0927 N   0  0  0  0  0  0
  -23.4213  -28.8093   23.3005 O   0  0  0  0  0  0
  -28.2452  -26.1170   20.2147 O   0  0  0  0  0  0
  -26.5665  -34.8900   22.4638 O   0  0  0  0  0  0
  -23.5568  -32.1322   23.7100 O   0  0  0  0  0  0
  -31.1645  -22.7237   20.2540 C   0  0  0  0  0  0
  -30.9048  -21.3377   20.2853 C   0  0  0  0  0  0
  -29.5601  -20.9201   20.3180 C   0  0  0  0  0  0
  -28.9463  -23.3222   20.2598 C   0  0  0  0  0  0
  -32.4875  -19.5591   21.4303 C   0  0  0  0  0  0
  -33.3812  -20.6590   20.9144 C   0  0  0  0  0  0
  -29.1004  -18.5828   21.5243 C   0  0  0  0  0  0
  -29.3874  -18.5598   19.1433 C   0  0  0  0  0  0
  -29.8012  -17.1087   21.5907 C   0  0  0  0  0  0
  -30.2136  -17.1845   19.2965 C   0  0  0  0  0  0
  -32.0607  -20.3714   20.2289 C   0  0  0  0  0  0
  -27.8943  -24.5899   20.1422 C   0  0  0  0  0  0
  -30.2209  -23.6840   20.2468 N   0  0  0  0  0  0
  -28.5989  -21.9582   20.2992 N   0  0  0  0  0  0
  -29.3020  -19.4506   20.3279 N   0  0  0  0  0  0
  -29.8832  -16.1945   20.3889 N   0  0  0  0  0  0
  -31.4631  -12.7192   19.1863 H   0  0  0  0  0  0
  -30.3985  -11.6418   20.0429 H   0  0  0  0  0  0
  -29.8347  -11.7267   17.5833 H   0  0  0  0  0  0
  -29.6068  -13.4561   17.6842 H   0  0  0  0  0  0
  -27.9433  -11.2789   18.9809 H   0  0  0  0  0  0
  -27.3851  -12.4495   17.8155 H   0  0  0  0  0  0
  -27.5811  -14.2558   19.3985 H   0  0  0  0  0  0
  -28.7551  -12.3482   21.4769 H   0  0  0  0  0  0
  -28.3711  -14.0403   21.7236 H   0  0  0  0  0  0
  -25.2766   -9.5701   22.4759 H   0  0  0  0  0  0
  -24.0014   -7.4641   22.7470 H   0  0  0  0  0  0
  -21.0850   -8.8773   19.8952 H   0  0  0  0  0  0
  -22.3700  -10.9674   19.6163 H   0  0  0  0  0  0
  -21.2008   -7.6148   23.9720 H   0  0  0  0  0  0
  -21.1489   -6.0518   25.9082 H   0  0  0  0  0  0
  -22.0594   -2.7607   23.2841 H   0  0  0  0  0  0
  -22.4057  -11.9883   22.4846 H   0  0  0  0  0  0
  -21.1043  -13.1224   22.2616 H   0  0  0  0  0  0
  -24.6523  -15.8545   20.5460 H   0  0  0  0  0  0
  -26.2762  -15.6397   20.1292 H   0  0  0  0  0  0
  -26.7285  -32.5288   23.1003 H   0  0  0  0  0  0
  -25.0086  -33.9608   25.0320 H   0  0  0  0  0  0
  -22.7515  -31.2918   21.3808 H   0  0  0  0  0  0
  -23.3764  -35.9578   23.3282 H   0  0  0  0  0  0
  -24.3584  -36.8907   22.2063 H   0  0  0  0  0  0
  -23.7240  -37.6437   23.6693 H   0  0  0  0  0  0
  -26.1663  -31.4673   20.6187 H   0  0  0  0  0  0
  -26.8755  -30.7603   22.0348 H   0  0  0  0  0  0
  -28.1309  -28.7795   21.2408 H   0  0  0  0  0  0
  -25.8837  -25.8560   18.9812 H   0  0  0  0  0  0
  -23.9746  -27.3135   18.9703 H   0  0  0  0  0  0
  -23.8144  -30.5725   19.3986 H   0  0  0  0  0  0
  -22.7888  -29.2423   19.8406 H   0  0  0  0  0  0
  -25.1314  -36.1854   25.0809 H   0  0  0  0  0  0
  -21.0015  -28.3313   24.1349 H   0  0  0  0  0  0
  -20.5681  -26.2342   23.3622 H   0  0  0  0  0  0
  -21.6653  -26.7429   22.1200 H   0  0  0  0  0  0
  -19.6925  -25.6286   21.1255 H   0  0  0  0  0  0
  -19.6695  -27.3175   20.6726 H   0  0  0  0  0  0
  -17.4216  -26.6672   21.4027 H   0  0  0  0  0  0
  -18.0347  -26.0073   22.9023 H   0  0  0  0  0  0
  -19.7956  -30.7291   24.2231 H   0  0  0  0  0  0
  -17.5030  -31.6265   24.5162 H   0  0  0  0  0  0
  -15.5366  -30.2974   23.7672 H   0  0  0  0  0  0
  -15.8691  -28.0807   22.7091 H   0  0  0  0  0  0
  -24.5893  -30.7097   25.7726 H   0  0  0  0  0  0
  -24.8902  -32.2931   26.4787 H   0  0  0  0  0  0
  -25.7992  -30.8947   27.0222 H   0  0  0  0  0  0
  -26.3015  -29.6659   24.1318 H   0  0  0  0  0  0
  -27.3994  -29.7253   25.4898 H   0  0  0  0  0  0
  -27.8934  -30.4167   23.9644 H   0  0  0  0  0  0
  -27.2656  -33.3638   26.2026 H   0  0  0  0  0  0
  -28.3903  -32.6846   25.0357 H   0  0  0  0  0  0
  -28.0695  -31.8480   26.5469 H   0  0  0  0  0  0
  -28.2579  -38.0097   24.7521 H   0  0  0  0  0  0
  -28.1090  -36.2627   24.6274 H   0  0  0  0  0  0
  -27.2299  -37.1404   25.8866 H   0  0  0  0  0  0
  -20.9479  -29.8769   21.6778 H   0  0  0  0  0  0
  -26.0150  -38.2812   24.1412 H   0  0  0  0  0  0
  -32.1813  -23.0856   20.2138 H   0  0  0  0  0  0
  -31.9767  -19.7304   22.3758 H   0  0  0  0  0  0
  -32.8263  -18.5386   21.2603 H   0  0  0  0  0  0
  -34.2949  -20.3492   20.4099 H   0  0  0  0  0  0
  -33.4759  -21.5420   21.5441 H   0  0  0  0  0  0
  -29.3900  -19.1516   22.4090 H   0  0  0  0  0  0
  -28.0223  -18.4433   21.6162 H   0  0  0  0  0  0
  -28.3669  -18.3228   18.8401 H   0  0  0  0  0  0
  -29.8086  -19.1336   18.3161 H   0  0  0  0  0  0
  -29.3229  -16.5470   22.3946 H   0  0  0  0  0  0
  -30.8272  -17.2518   21.9326 H   0  0  0  0  0  0
  -31.2716  -17.4377   19.3837 H   0  0  0  0  0  0
  -30.1328  -16.6483   18.3493 H   0  0  0  0  0  0
  -32.1088  -19.8927   19.2518 H   0  0  0  0  0  0
  -27.1197  -24.4093   20.8885 H   0  0  0  0  0  0
  -27.4198  -24.4200   19.1773 H   0  0  0  0  0  0
  1 25  1  0  0  0
  1 30  2  0  0  0
  1 86  1  0  0  0
  2  3  1  0  0  0
  2 25  1  0  0  0
  2 87  1  0  0  0
  2 88  1  0  0  0
  3  4  1  0  0  0
  3 89  1  0  0  0
  3 90  1  0  0  0
  4  5  1  0  0  0
  4 91  1  0  0  0
  4 92  1  0  0  0
  5  6  1  0  0  0
  5 26  1  0  0  0
  5 93  1  0  0  0
  6 25  1  0  0  0
  6 94  1  0  0  0
  6 95  1  0  0  0
  7  8  2  0  0  0
  7 26  1  0  0  0
  7 29  1  0  0  0
  8  9  1  0  0  0
  8 22  1  0  0  0
  9 10  1  0  0  0
  9 27  2  0  0  0
 10 11  2  0  0  0
 10 15  1  0  0  0
 11 12  1  0  0  0
 11 96  1  0  0  0
 12 13  2  0  0  0
 12 97  1  0  0  0
 13 14  1  0  0  0
 13 31  1  0  0  0
 14 15  2  0  0  0
 14 98  1  0  0  0
 15 99  1  0  0  0
 16 17  2  0  0  0
 16 21  1  0  0  0
 16 31  1  0  0  0
 17 18  1  0  0  0
 17100  1  0  0  0
 18 19  2  0  0  0
 18101  1  0  0  0
 19 20  1  0  0  0
 19 24  1  0  0  0
 20 21  2  0  0  0
 20102  1  0  0  0
 21 23  1  0  0  0
 22 28  1  0  0  0
 22 32  2  0  0  0
 26 27  1  0  0  0
 28103  1  0  0  0
 28104  1  0  0  0
 29105  1  0  0  0
 29106  1  0  0  0
 33 34  1  0  0  0
 33 66  1  0  0  0
 33 70  2  0  0  0
 34 36  1  0  0  0
 34 59  1  0  0  0
 34107  1  0  0  0
 35 44  2  0  0  0
 35 45  1  0  0  0
 35 68  1  0  0  0
 36 56  1  0  0  0
 36108  1  0  0  0
 37 39  1  0  0  0
 37 47  1  0  0  0
 37 66  1  0  0  0
 37109  1  0  0  0
 38 43  2  0  0  0
 38 46  1  0  0  0
 38 47  1  0  0  0
 39 64  1  0  0  0
 39 67  2  0  0  0
 40 52  1  0  0  0
 40 53  2  0  0  0
 40 58  1  0  0  0
 41110  1  0  0  0
 41111  1  0  0  0
 41112  1  0  0  0
 41 48  1  0  0  0
 42 43  1  0  0  0
 42 66  1  0  0  0
 42113  1  0  0  0
 42114  1  0  0  0
 43 44  1  0  0  0
 44115  1  0  0  0
 45 46  2  0  0  0
 45116  1  0  0  0
 46117  1  0  0  0
 47118  1  0  0  0
 47119  1  0  0  0
 48 56  1  0  0  0
 48 65  1  0  0  0
 48120  1  0  0  0
 49 50  1  0  0  0
 49 53  1  0  0  0
 49 64  1  0  0  0
 49121  1  0  0  0
 50 51  1  0  0  0
 50122  1  0  0  0
 50123  1  0  0  0
 51 52  1  0  0  0
 51124  1  0  0  0
 51125  1  0  0  0
 52126  1  0  0  0
 52127  1  0  0  0
 53 54  1  0  0  0
 54 55  2  0  0  0
 54128  1  0  0  0
 55 57  1  0  0  0
 55129  1  0  0  0
 56 69  2  0  0  0
 57 58  2  0  0  0
 57130  1  0  0  0
 58131  1  0  0  0
 59 60  1  0  0  0
 59 61  1  0  0  0
 59 62  1  0  0  0
 60132  1  0  0  0
 60133  1  0  0  0
 60134  1  0  0  0
 61135  1  0  0  0
 61136  1  0  0  0
 61137  1  0  0  0
 62138  1  0  0  0
 62139  1  0  0  0
 62140  1  0  0  0
 63 65  1  0  0  0
 63141  1  0  0  0
 63142  1  0  0  0
 63143  1  0  0  0
 64144  1  0  0  0
 65145  1  0  0  0
 68 82  1  0  0  0
 71 72  2  0  0  0
 71 83  1  0  0  0
 71146  1  0  0  0
 72 73  1  0  0  0
 72 81  1  0  0  0
 73 84  2  0  0  0
 73 85  1  0  0  0
 74 82  1  0  0  0
 74 83  2  0  0  0
 74 84  1  0  0  0
 75 76  1  0  0  0
 75 81  1  0  0  0
 75147  1  0  0  0
 75148  1  0  0  0
 76 81  1  0  0  0
 76149  1  0  0  0
 76150  1  0  0  0
 77 79  1  0  0  0
 77 85  1  0  0  0
 77151  1  0  0  0
 77152  1  0  0  0
 78 80  1  0  0  0
 78 85  1  0  0  0
 78153  1  0  0  0
 78154  1  0  0  0
 79 86  1  0  0  0
 79155  1  0  0  0
 79156  1  0  0  0
 80 86  1  0  0  0
 80157  1  0  0  0
 80158  1  0  0  0
 81159  1  0  0  0
 82160  1  0  0  0
 82161  1  0  0  0
M  ISO  4   1 100  68 101  82 101  86 100
M  END
> <chiral flag>
0

> <version>
0

> <s_m_source_file>
/data/baiqing/PycharmProjects/Reinvent-master-3.2/result/LINK_invent/BTK/process_docking_weight1_custom_sum_contain_oxygen_bond_distance_aromatic_linkinvent_7_9_3/rearranged_h_0192.sdf

> <i_m_source_file_index>
71

> <r_mmod_Potential_Energy-OPLS-2005>
309.592346191406

> <r_mmod_Stretch_Energy-OPLS-2005>
227.516448974609

> <r_mmod_Bend_Energy-OPLS-2005>
285.331604003906

> <r_mmod_Torsional_Energy-OPLS-2005>
404.611358642578

> <r_mmod_Improper_Torsional_Energy-OPLS-2005>
14.9439659118652

> <r_mmod_Van_der_Waal_Energy-OPLS-2005>
135.088500976562

> <r_mmod_Electrostatic_Energy-OPLS-2005>
-721.857666015625

> <r_mmod_Solvation_Energy-OPLS-2005>
-233.619689941406

> <b_mmod_Minimization_Converged-OPLS-2005>
0

> <r_mmod_RMS_Derivative-OPLS-2005>
0.788772165775299

$$$$
71
                    3D
 Structure written by MMmdl.
171181  0  0  1  0            999 V2000
  -30.6397  -14.6223   20.5206 C   0  0  0  0  0  0
  -30.4503  -12.3784   19.4719 C   0  0  0  0  0  0
  -29.5278  -12.4887   18.2377 C   0  0  0  0  0  0
  -28.0439  -12.3472   18.6385 C   0  0  0  0  0  0
  -27.6634  -13.2166   19.8706 C   0  0  2  0  0  0
  -28.7023  -13.0540   21.0040 C   0  0  0  0  0  0
  -25.2613  -13.8165   20.5673 C   0  0  0  0  0  0
  -24.1842  -13.0444   20.9184 C   0  0  0  0  0  0
  -24.6412  -11.6927   20.8748 C   0  0  0  0  0  0
  -23.9074  -10.4294   21.0419 C   0  0  0  0  0  0
  -24.3622   -9.4183   21.9183 C   0  0  0  0  0  0
  -23.6281   -8.2225   22.0743 C   0  0  0  0  0  0
  -22.4259   -8.0279   21.3544 C   0  0  0  0  0  0
  -21.9911   -9.0252   20.4645 C   0  0  0  0  0  0
  -22.7251  -10.2128   20.3044 C   0  0  0  0  0  0
  -21.6836   -6.0718   22.5274 C   0  0  0  0  0  0
  -21.4007   -6.5613   23.8207 C   0  0  0  0  0  0
  -21.3682   -5.6777   24.9171 C   0  0  0  0  0  0
  -21.6059   -4.3037   24.7233 C   0  0  0  0  0  0
  -21.8799   -3.8126   23.4346 C   0  0  0  0  0  0
  -21.9184   -4.6946   22.3399 C   0  0  0  0  0  0
  -22.7857  -13.5262   21.1854 C   0  0  0  0  0  0
  -22.1629   -4.2123   21.0961 F   0  0  0  0  0  0
  -21.5673   -3.4494   25.7731 F   0  0  0  0  0  0
  -30.0251  -13.3980   20.4547 N   0  0  0  0  0  0
  -26.3036  -12.9351   20.3297 N   0  0  0  0  0  0
  -25.9342  -11.6520   20.5781 N   0  0  0  0  0  0
  -22.0480  -12.8227   22.0405 N   0  0  0  0  0  0
  -25.4427  -15.1862   20.4073 N   0  0  0  0  0  0
  -31.7844  -14.7783   20.0928 O   0  0  0  0  0  0
  -21.6630   -6.8861   21.4236 O   0  0  0  0  0  0
  -22.3529  -14.5567   20.6725 O   0  0  0  0  0  0
  -24.6217  -31.8640   23.2070 C   0  0  0  0  0  0
  -25.9084  -32.4810   23.8371 C   0  0  1  0  0  0
  -27.2290  -27.3612   20.1322 C   0  0  0  0  0  0
  -25.5924  -33.8603   24.2319 N   0  0  0  0  0  0
  -23.4130  -30.4896   21.5462 C   0  0  2  0  0  0
  -24.8615  -28.9506   20.1143 C   0  0  0  0  0  0
  -22.7454  -29.4644   22.4929 C   0  0  0  0  0  0
  -18.0283  -28.1392   22.8476 C   0  0  0  0  0  0
  -24.1483  -36.7308   23.2639 C   0  0  0  0  0  0
  -25.9465  -30.8172   21.3637 C   0  0  0  0  0  0
  -26.0260  -29.4438   20.7148 C   0  0  0  0  0  0
  -27.2142  -28.6630   20.7100 C   0  0  0  0  0  0
  -26.0426  -26.9086   19.5104 C   0  0  0  0  0  0
  -24.8694  -27.6872   19.5027 C   0  0  0  0  0  0
  -23.6276  -29.8280   20.1594 C   0  0  0  0  0  0
  -25.4110  -36.3105   24.0338 C   0  0  1  0  0  0
  -20.5884  -28.3697   23.1298 C   0  0  2  0  0  0
  -20.6783  -26.9422   22.5416 C   0  0  0  0  0  0
  -19.5760  -26.6394   21.5217 C   0  0  0  0  0  0
  -18.1940  -26.7937   22.1618 C   0  0  0  0  0  0
  -19.1532  -28.8856   23.2891 C   0  0  0  0  0  0
  -18.9459  -30.1465   23.8905 C   0  0  0  0  0  0
  -17.6460  -30.6595   24.0575 C   0  0  0  0  0  0
  -25.9033  -34.9474   23.5126 C   0  0  0  0  0  0
  -16.5355  -29.9100   23.6326 C   0  0  0  0  0  0
  -16.7274  -28.6521   23.0336 C   0  0  0  0  0  0
  -26.4497  -31.6583   25.0699 C   0  0  0  0  0  0
  -25.3756  -31.3689   26.1441 C   0  0  0  0  0  0
  -27.0329  -30.3034   24.6067 C   0  0  0  0  0  0
  -27.6080  -32.4274   25.7469 C   0  0  0  0  0  0
  -27.5573  -37.1823   24.8473 C   0  0  0  0  0  0
  -21.4173  -29.3058   22.3686 N   0  0  0  0  0  0
  -26.4297  -37.3795   23.9396 N   0  0  0  0  0  0
  -24.6790  -31.0717   22.0983 N   0  0  0  0  0  0
  -23.4210  -28.8186   23.2985 O   0  0  0  0  0  0
  -28.3651  -26.5535   20.1784 O   0  0  0  0  0  0
  -26.5597  -34.8931   22.4681 O   0  0  0  0  0  0
  -23.5404  -32.1383   23.7454 O   0  0  0  0  0  0
  -29.7089  -20.8940   22.0692 C   0  0  0  0  0  0
  -29.9161  -20.7236   20.6627 C   0  0  0  0  0  0
  -29.3583  -22.2331   22.2020 C   0  0  0  0  0  0
  -30.4251  -18.1697   19.8514 C   0  0  0  0  0  0
  -30.5165  -19.5387   19.9544 C   0  0  0  0  0  0
  -30.9210  -17.4469   18.6254 C   0  0  0  0  0  0
  -29.5129  -16.8107   18.6973 C   0  0  0  0  0  0
  -30.9758  -19.3466   25.2810 C   0  0  0  0  0  0
  -31.2174  -20.1528   24.0065 C   0  0  0  0  0  0
  -29.4455  -19.2339   25.3917 C   0  0  0  0  0  0
  -29.9846  -19.8494   23.1429 C   0  0  1  0  0  0
  -29.4579  -16.9942   20.2363 C   0  0  1  0  0  0
  -29.0597  -23.0419   23.4330 C   0  0  0  0  0  0
  -29.4944  -24.2914   20.5716 C   0  0  0  0  0  0
  -28.1673  -25.1149   20.4090 C   0  0  0  0  0  0
  -29.7159  -21.8837   20.0208 N   0  0  0  0  0  0
  -29.4303  -22.8385   20.9469 N   0  0  0  0  0  0
  -29.8437  -15.6761   20.8947 N   0  0  0  0  0  0
  -28.8780  -19.6576   24.0937 N   0  3  0  0  0  0
  -30.3833  -11.3811   19.9095 H   0  0  0  0  0  0
  -31.4946  -12.4999   19.1700 H   0  0  0  0  0  0
  -29.7893  -11.7137   17.5125 H   0  0  0  0  0  0
  -29.6938  -13.4424   17.7359 H   0  0  0  0  0  0
  -27.8706  -11.2970   18.8715 H   0  0  0  0  0  0
  -27.4020  -12.5752   17.7879 H   0  0  0  0  0  0
  -27.6919  -14.2556   19.5463 H   0  0  0  0  0  0
  -28.7038  -12.0241   21.3664 H   0  0  0  0  0  0
  -28.4502  -13.6742   21.8658 H   0  0  0  0  0  0
  -25.2775   -9.5599   22.4758 H   0  0  0  0  0  0
  -23.9963   -7.4589   22.7427 H   0  0  0  0  0  0
  -21.0853   -8.8760   19.8942 H   0  0  0  0  0  0
  -22.3721  -10.9649   19.6124 H   0  0  0  0  0  0
  -21.1951   -7.6107   23.9680 H   0  0  0  0  0  0
  -21.1564   -6.0517   25.9080 H   0  0  0  0  0  0
  -22.0572   -2.7577   23.2847 H   0  0  0  0  0  0
  -22.4126  -11.9902   22.4804 H   0  0  0  0  0  0
  -21.1076  -13.1210   22.2627 H   0  0  0  0  0  0
  -24.7029  -15.8647   20.5465 H   0  0  0  0  0  0
  -26.2909  -15.5959   20.0377 H   0  0  0  0  0  0
  -26.7161  -32.5520   23.1133 H   0  0  0  0  0  0
  -25.0095  -33.9757   25.0487 H   0  0  0  0  0  0
  -22.7041  -31.3084   21.4082 H   0  0  0  0  0  0
  -23.3735  -35.9649   23.3333 H   0  0  0  0  0  0
  -24.3572  -36.8889   22.2045 H   0  0  0  0  0  0
  -23.7254  -37.6533   23.6629 H   0  0  0  0  0  0
  -26.0566  -31.5777   20.5890 H   0  0  0  0  0  0
  -26.8362  -30.8817   21.9768 H   0  0  0  0  0  0
  -28.1072  -29.0414   21.1863 H   0  0  0  0  0  0
  -26.0009  -25.9444   19.0284 H   0  0  0  0  0  0
  -23.9770  -27.3076   19.0236 H   0  0  0  0  0  0
  -23.7527  -30.6085   19.4074 H   0  0  0  0  0  0
  -22.7477  -29.2605   19.8508 H   0  0  0  0  0  0
  -25.1291  -36.1964   25.0837 H   0  0  0  0  0  0
  -20.9985  -28.3277   24.1417 H   0  0  0  0  0  0
  -20.5710  -26.2298   23.3614 H   0  0  0  0  0  0
  -21.6658  -26.7476   22.1203 H   0  0  0  0  0  0
  -19.6935  -25.6309   21.1254 H   0  0  0  0  0  0
  -19.6718  -27.3201   20.6753 H   0  0  0  0  0  0
  -17.4220  -26.6685   21.4019 H   0  0  0  0  0  0
  -18.0339  -26.0088   22.9020 H   0  0  0  0  0  0
  -19.7941  -30.7278   24.2280 H   0  0  0  0  0  0
  -17.5022  -31.6277   24.5175 H   0  0  0  0  0  0
  -15.5362  -30.3007   23.7657 H   0  0  0  0  0  0
  -15.8674  -28.0866   22.7025 H   0  0  0  0  0  0
  -24.5953  -30.7011   25.7780 H   0  0  0  0  0  0
  -24.8915  -32.2839   26.4865 H   0  0  0  0  0  0
  -25.8108  -30.8883   27.0215 H   0  0  0  0  0  0
  -26.2877  -29.6782   24.1147 H   0  0  0  0  0  0
  -27.4151  -29.7278   25.4506 H   0  0  0  0  0  0
  -27.8678  -30.4366   23.9184 H   0  0  0  0  0  0
  -27.2741  -33.3587   26.2056 H   0  0  0  0  0  0
  -28.3907  -32.6805   25.0299 H   0  0  0  0  0  0
  -28.0729  -31.8369   26.5379 H   0  0  0  0  0  0
  -28.2635  -38.0081   24.7479 H   0  0  0  0  0  0
  -28.1032  -36.2616   24.6353 H   0  0  0  0  0  0
  -27.2287  -37.1541   25.8881 H   0  0  0  0  0  0
  -20.9326  -29.8771   21.6903 H   0  0  0  0  0  0
  -26.0182  -38.2875   24.1382 H   0  0  0  0  0  0
  -31.2522  -19.9161   19.2614 H   0  0  0  0  0  0
  -31.7577  -16.7670   18.7563 H   0  0  0  0  0  0
  -31.0607  -18.0172   17.7065 H   0  0  0  0  0  0
  -29.4879  -15.7854   18.3347 H   0  0  0  0  0  0
  -28.7535  -17.3977   18.1708 H   0  0  0  0  0  0
  -31.4248  -19.8181   26.1563 H   0  0  0  0  0  0
  -31.4176  -18.3546   25.1864 H   0  0  0  0  0  0
  -32.1518  -19.8901   23.5090 H   0  0  0  0  0  0
  -31.2718  -21.2087   24.2658 H   0  0  0  0  0  0
  -29.0567  -19.8721   26.1858 H   0  0  0  0  0  0
  -29.1533  -18.2077   25.6235 H   0  0  0  0  0  0
  -30.1548  -18.8705   22.6892 H   0  0  0  0  0  0
  -28.4596  -17.2999   20.5509 H   0  0  0  0  0  0
  -28.1985  -22.6437   23.9669 H   0  0  0  0  0  0
  -28.8254  -24.0804   23.1973 H   0  0  0  0  0  0
  -29.9060  -23.0575   24.1190 H   0  0  0  0  0  0
  -30.1210  -24.7875   21.3137 H   0  0  0  0  0  0
  -30.0517  -24.3690   19.6372 H   0  0  0  0  0  0
  -27.5577  -24.9934   21.3041 H   0  0  0  0  0  0
  -27.6171  -24.6656   19.5846 H   0  0  0  0  0  0
  -29.0581  -15.3158   21.4171 H   0  0  0  0  0  0
  -28.3869  -20.5239   24.2346 H   0  0  0  0  0  0
  -28.2231  -18.9733   23.7492 H   0  0  0  0  0  0
  1 25  1  0  0  0
  1 30  2  0  0  0
  1 88  1  0  0  0
  2  3  1  0  0  0
  2 25  1  0  0  0
  2 90  1  0  0  0
  2 91  1  0  0  0
  3  4  1  0  0  0
  3 92  1  0  0  0
  3 93  1  0  0  0
  4  5  1  0  0  0
  4 94  1  0  0  0
  4 95  1  0  0  0
  5  6  1  0  0  0
  5 26  1  0  0  0
  5 96  1  0  0  0
  6 25  1  0  0  0
  6 97  1  0  0  0
  6 98  1  0  0  0
  7  8  2  0  0  0
  7 26  1  0  0  0
  7 29  1  0  0  0
  8  9  1  0  0  0
  8 22  1  0  0  0
  9 10  1  0  0  0
  9 27  2  0  0  0
 10 11  2  0  0  0
 10 15  1  0  0  0
 11 12  1  0  0  0
 11 99  1  0  0  0
 12 13  2  0  0  0
 12100  1  0  0  0
 13 14  1  0  0  0
 13 31  1  0  0  0
 14 15  2  0  0  0
 14101  1  0  0  0
 15102  1  0  0  0
 16 17  2  0  0  0
 16 21  1  0  0  0
 16 31  1  0  0  0
 17 18  1  0  0  0
 17103  1  0  0  0
 18 19  2  0  0  0
 18104  1  0  0  0
 19 20  1  0  0  0
 19 24  1  0  0  0
 20 21  2  0  0  0
 20105  1  0  0  0
 21 23  1  0  0  0
 22 28  1  0  0  0
 22 32  2  0  0  0
 26 27  1  0  0  0
 28106  1  0  0  0
 28107  1  0  0  0
 29108  1  0  0  0
 29109  1  0  0  0
 33 34  1  0  0  0
 33 66  1  0  0  0
 33 70  2  0  0  0
 34 36  1  0  0  0
 34 59  1  0  0  0
 34110  1  0  0  0
 35 44  2  0  0  0
 35 45  1  0  0  0
 35 68  1  0  0  0
 36 56  1  0  0  0
 36111  1  0  0  0
 37 39  1  0  0  0
 37 47  1  0  0  0
 37 66  1  0  0  0
 37112  1  0  0  0
 38 43  2  0  0  0
 38 46  1  0  0  0
 38 47  1  0  0  0
 39 64  1  0  0  0
 39 67  2  0  0  0
 40 52  1  0  0  0
 40 53  2  0  0  0
 40 58  1  0  0  0
 41113  1  0  0  0
 41114  1  0  0  0
 41115  1  0  0  0
 41 48  1  0  0  0
 42 43  1  0  0  0
 42 66  1  0  0  0
 42116  1  0  0  0
 42117  1  0  0  0
 43 44  1  0  0  0
 44118  1  0  0  0
 45 46  2  0  0  0
 45119  1  0  0  0
 46120  1  0  0  0
 47121  1  0  0  0
 47122  1  0  0  0
 48 56  1  0  0  0
 48 65  1  0  0  0
 48123  1  0  0  0
 49 50  1  0  0  0
 49 53  1  0  0  0
 49 64  1  0  0  0
 49124  1  0  0  0
 50 51  1  0  0  0
 50125  1  0  0  0
 50126  1  0  0  0
 51 52  1  0  0  0
 51127  1  0  0  0
 51128  1  0  0  0
 52129  1  0  0  0
 52130  1  0  0  0
 53 54  1  0  0  0
 54 55  2  0  0  0
 54131  1  0  0  0
 55 57  1  0  0  0
 55132  1  0  0  0
 56 69  2  0  0  0
 57 58  2  0  0  0
 57133  1  0  0  0
 58134  1  0  0  0
 59 60  1  0  0  0
 59 61  1  0  0  0
 59 62  1  0  0  0
 60135  1  0  0  0
 60136  1  0  0  0
 60137  1  0  0  0
 61138  1  0  0  0
 61139  1  0  0  0
 61140  1  0  0  0
 62141  1  0  0  0
 62142  1  0  0  0
 62143  1  0  0  0
 63 65  1  0  0  0
 63144  1  0  0  0
 63145  1  0  0  0
 63146  1  0  0  0
 64147  1  0  0  0
 65148  1  0  0  0
 68 85  1  0  0  0
 71 72  1  0  0  0
 71 73  2  0  0  0
 71 81  1  0  0  0
 72 75  1  0  0  0
 72 86  2  0  0  0
 73 83  1  0  0  0
 73 87  1  0  0  0
 74 75  2  0  0  0
 74 76  1  0  0  0
 74 82  1  0  0  0
 75149  1  0  0  0
 76 77  1  0  0  0
 76150  1  0  0  0
 76151  1  0  0  0
 77 82  1  0  0  0
 77152  1  0  0  0
 77153  1  0  0  0
 78 79  1  0  0  0
 78 80  1  0  0  0
 78154  1  0  0  0
 78155  1  0  0  0
 79 81  1  0  0  0
 79156  1  0  0  0
 79157  1  0  0  0
 80 89  1  0  0  0
 80158  1  0  0  0
 80159  1  0  0  0
 81 89  1  0  0  0
 81160  1  0  0  0
 82 88  1  0  0  0
 82161  1  0  0  0
 83162  1  0  0  0
 83163  1  0  0  0
 83164  1  0  0  0
 84 85  1  0  0  0
 84 87  1  0  0  0
 84165  1  0  0  0
 84166  1  0  0  0
 85167  1  0  0  0
 85168  1  0  0  0
 86 87  1  0  0  0
 88169  1  0  0  0
 89170  1  0  0  0
 89171  1  0  0  0
M  CHG  1  89   1
M  ISO  4   1 100  68 101  85 101  88 100
M  END
> <chiral flag>
0

> <version>
0

> <s_m_source_file>
/data/baiqing/PycharmProjects/Reinvent-master-3.2/result/LINK_invent/BTK/process_docking_weight1_custom_sum_contain_oxygen_bond_distance_aromatic_linkinvent_7_9_3/rearranged_h_0192.sdf

> <i_m_source_file_index>
72

> <r_mmod_Potential_Energy-OPLS-2005>
41.4645118713379

> <r_mmod_Stretch_Energy-OPLS-2005>
71.5424270629883

> <r_mmod_Bend_Energy-OPLS-2005>
240.407409667969

> <r_mmod_Torsional_Energy-OPLS-2005>
369.27294921875

> <r_mmod_Improper_Torsional_Energy-OPLS-2005>
12.8712387084961

> <r_mmod_Van_der_Waal_Energy-OPLS-2005>
114.30541229248

> <r_mmod_Electrostatic_Energy-OPLS-2005>
-314.013519287109

> <r_mmod_Solvation_Energy-OPLS-2005>
-490.000701904297

> <b_mmod_Minimization_Converged-OPLS-2005>
0

> <r_mmod_RMS_Derivative-OPLS-2005>
3.9661021232605

$$$$
72
                    3D
 Structure written by MMmdl.
153162  0  0  1  0            999 V2000
  -30.3984  -15.3755   20.3602 C   0  0  0  0  0  0
  -30.4400  -12.8935   19.5107 C   0  0  0  0  0  0
  -29.5382  -12.5927   18.2858 C   0  0  0  0  0  0
  -28.0942  -12.2949   18.7254 C   0  0  0  0  0  0
  -27.6056  -13.2824   19.8121 C   0  0  2  0  0  0
  -28.6408  -13.5072   20.9348 C   0  0  0  0  0  0
  -25.2365  -13.8237   20.5753 C   0  0  0  0  0  0
  -24.1728  -13.0419   20.9264 C   0  0  0  0  0  0
  -24.6392  -11.6923   20.8743 C   0  0  0  0  0  0
  -23.9077  -10.4287   21.0377 C   0  0  0  0  0  0
  -24.3621   -9.4207   21.9161 C   0  0  0  0  0  0
  -23.6291   -8.2243   22.0739 C   0  0  0  0  0  0
  -22.4272   -8.0278   21.3534 C   0  0  0  0  0  0
  -21.9909   -9.0248   20.4632 C   0  0  0  0  0  0
  -22.7240  -10.2127   20.3034 C   0  0  0  0  0  0
  -21.6860   -6.0733   22.5289 C   0  0  0  0  0  0
  -21.4030   -6.5634   23.8226 C   0  0  0  0  0  0
  -21.3653   -5.6779   24.9180 C   0  0  0  0  0  0
  -21.6043   -4.3043   24.7228 C   0  0  0  0  0  0
  -21.8818   -3.8141   23.4345 C   0  0  0  0  0  0
  -21.9192   -4.6960   22.3405 C   0  0  0  0  0  0
  -22.7749  -13.5175   21.1912 C   0  0  0  0  0  0
  -22.1664   -4.2145   21.0985 F   0  0  0  0  0  0
  -21.5609   -3.4527   25.7738 F   0  0  0  0  0  0
  -29.8472  -14.0529   20.2835 N   0  0  0  0  0  0
  -26.2803  -12.9533   20.3204 N   0  0  0  0  0  0
  -25.9333  -11.6632   20.5686 N   0  0  0  0  0  0
  -22.0397  -12.8171   22.0468 N   0  0  0  0  0  0
  -25.3963  -15.1973   20.4182 N   0  0  0  0  0  0
  -31.6333  -15.3561   20.2482 O   0  0  0  0  0  0
  -21.6631   -6.8882   21.4249 O   0  0  0  0  0  0
  -22.3435  -14.5477   20.6743 O   0  0  0  0  0  0
  -24.6701  -31.8166   23.1633 C   0  0  0  0  0  0
  -25.9346  -32.4554   23.8132 C   0  0  1  0  0  0
  -27.2241  -26.8560   20.1953 C   0  0  0  0  0  0
  -25.5979  -33.8368   24.2037 N   0  0  0  0  0  0
  -23.4888  -30.4236   21.5153 C   0  0  2  0  0  0
  -24.9446  -28.7929   20.1206 C   0  0  0  0  0  0
  -22.7707  -29.4385   22.4766 C   0  0  0  0  0  0
  -18.0332  -28.1407   22.8473 C   0  0  0  0  0  0
  -24.1490  -36.7193   23.2651 C   0  0  0  0  0  0
  -26.0629  -30.5997   21.4046 C   0  0  0  0  0  0
  -26.1322  -29.1804   20.7534 C   0  0  0  0  0  0
  -27.2678  -28.2369   20.7576 C   0  0  0  0  0  0
  -26.0014  -26.6350   19.5222 C   0  0  0  0  0  0
  -24.9080  -27.5423   19.4838 C   0  0  0  0  0  0
  -23.7345  -29.7307   20.1465 C   0  0  0  0  0  0
  -25.4135  -36.2952   24.0300 C   0  0  1  0  0  0
  -20.5964  -28.3750   23.1190 C   0  0  2  0  0  0
  -20.6807  -26.9427   22.5409 C   0  0  0  0  0  0
  -19.5776  -26.6371   21.5227 C   0  0  0  0  0  0
  -18.1958  -26.7940   22.1634 C   0  0  0  0  0  0
  -19.1595  -28.8904   23.2814 C   0  0  0  0  0  0
  -18.9500  -30.1493   23.8848 C   0  0  0  0  0  0
  -17.6490  -30.6595   24.0558 C   0  0  0  0  0  0
  -25.9098  -34.9336   23.4997 C   0  0  0  0  0  0
  -16.5380  -29.9079   23.6351 C   0  0  0  0  0  0
  -16.7314  -28.6501   23.0374 C   0  0  0  0  0  0
  -26.4570  -31.6523   25.0687 C   0  0  0  0  0  0
  -25.3673  -31.3806   26.1332 C   0  0  0  0  0  0
  -27.0491  -30.2882   24.6474 C   0  0  0  0  0  0
  -27.6037  -32.4357   25.7510 C   0  0  0  0  0  0
  -27.5572  -37.1756   24.8469 C   0  0  0  0  0  0
  -21.4366  -29.3028   22.3528 N   0  0  0  0  0  0
  -26.4282  -37.3693   23.9404 N   0  0  0  0  0  0
  -24.7626  -30.9758   22.0809 N   0  0  0  0  0  0
  -23.4226  -28.7968   23.3043 O   0  0  0  0  0  0
  -28.2297  -25.7277   20.1794 O   0  0  0  0  0  0
  -26.5721  -34.8887   22.4598 O   0  0  0  0  0  0
  -23.5756  -32.1169   23.6679 O   0  0  0  0  0  0
  -29.3957  -19.9692   18.6080 C   0  0  0  0  0  0
  -29.2079  -21.2007   17.9322 C   0  0  0  0  0  0
  -28.8724  -22.4129   18.5587 C   0  0  0  0  0  0
  -29.2790  -19.8833   20.0072 C   0  0  0  0  0  0
  -28.6773  -22.5415   19.9499 C   0  0  0  0  0  0
  -29.3388  -21.3742   16.4410 C   0  0  0  0  0  0
  -28.7122  -23.5228   17.5467 C   0  0  0  0  0  0
  -29.0258  -22.8644   16.1830 C   0  0  0  0  0  0
  -29.7860  -18.3278   20.7049 C   0  0  0  0  0  0
  -28.0140  -24.0949   20.5350 C   0  0  0  0  0  0
  -28.9085  -21.2097   20.6162 N   0  0  0  0  0  0
  -29.6240  -16.6659   20.3669 N   0  0  0  0  0  0
  -31.4465  -13.1271   19.1608 H   0  0  0  0  0  0
  -30.5484  -12.0102   20.1434 H   0  0  0  0  0  0
  -29.9387  -11.7555   17.7122 H   0  0  0  0  0  0
  -29.5433  -13.4534   17.6144 H   0  0  0  0  0  0
  -28.0750  -11.2817   19.1264 H   0  0  0  0  0  0
  -27.4219  -12.2956   17.8667 H   0  0  0  0  0  0
  -27.5039  -14.2359   19.2920 H   0  0  0  0  0  0
  -28.8428  -12.5887   21.4889 H   0  0  0  0  0  0
  -28.2610  -14.2306   21.6586 H   0  0  0  0  0  0
  -25.2768   -9.5695   22.4734 H   0  0  0  0  0  0
  -24.0000   -7.4643   22.7469 H   0  0  0  0  0  0
  -21.0832   -8.8767   19.8946 H   0  0  0  0  0  0
  -22.3684  -10.9660   19.6143 H   0  0  0  0  0  0
  -21.2048   -7.6147   23.9739 H   0  0  0  0  0  0
  -21.1465   -6.0500   25.9083 H   0  0  0  0  0  0
  -22.0595   -2.7604   23.2841 H   0  0  0  0  0  0
  -22.4003  -11.9863   22.4924 H   0  0  0  0  0  0
  -21.1007  -13.1203   22.2631 H   0  0  0  0  0  0
  -24.6196  -15.8409   20.5247 H   0  0  0  0  0  0
  -26.2296  -15.6412   20.0580 H   0  0  0  0  0  0
  -26.7420  -32.5081   23.0853 H   0  0  0  0  0  0
  -25.0084  -33.9430   25.0165 H   0  0  0  0  0  0
  -22.8055  -31.2564   21.3372 H   0  0  0  0  0  0
  -23.3767  -35.9505   23.3274 H   0  0  0  0  0  0
  -24.3566  -36.8879   22.2071 H   0  0  0  0  0  0
  -23.7230  -37.6365   23.6729 H   0  0  0  0  0  0
  -26.2492  -31.3356   20.6212 H   0  0  0  0  0  0
  -26.9196  -30.6634   22.0627 H   0  0  0  0  0  0
  -28.1727  -28.5414   21.2640 H   0  0  0  0  0  0
  -25.8659  -25.6844   19.0259 H   0  0  0  0  0  0
  -24.0078  -27.2387   18.9662 H   0  0  0  0  0  0
  -23.8990  -30.4953   19.3863 H   0  0  0  0  0  0
  -22.8429  -29.1899   19.8241 H   0  0  0  0  0  0
  -25.1332  -36.1749   25.0792 H   0  0  0  0  0  0
  -21.0054  -28.3360   24.1316 H   0  0  0  0  0  0
  -20.5704  -26.2361   23.3651 H   0  0  0  0  0  0
  -21.6663  -26.7400   22.1206 H   0  0  0  0  0  0
  -19.6925  -25.6272   21.1284 H   0  0  0  0  0  0
  -19.6717  -27.3163   20.6744 H   0  0  0  0  0  0
  -17.4233  -26.6705   21.4029 H   0  0  0  0  0  0
  -18.0331  -26.0092   22.9037 H   0  0  0  0  0  0
  -19.7968  -30.7326   24.2196 H   0  0  0  0  0  0
  -17.5035  -31.6273   24.5160 H   0  0  0  0  0  0
  -15.5377  -30.2965   23.7684 H   0  0  0  0  0  0
  -15.8719  -28.0790   22.7125 H   0  0  0  0  0  0
  -24.5873  -30.7135   25.7643 H   0  0  0  0  0  0
  -24.8854  -32.3026   26.4595 H   0  0  0  0  0  0
  -25.7895  -30.9087   27.0213 H   0  0  0  0  0  0
  -26.3180  -29.6532   24.1458 H   0  0  0  0  0  0
  -27.3976  -29.7279   25.5160 H   0  0  0  0  0  0
  -27.9133  -30.4050   23.9932 H   0  0  0  0  0  0
  -27.2567  -33.3700   26.1939 H   0  0  0  0  0  0
  -28.3931  -32.6853   25.0403 H   0  0  0  0  0  0
  -28.0607  -31.8586   26.5564 H   0  0  0  0  0  0
  -28.2568  -38.0071   24.7514 H   0  0  0  0  0  0
  -28.1090  -36.2597   24.6297 H   0  0  0  0  0  0
  -27.2287  -37.1399   25.8873 H   0  0  0  0  0  0
  -20.9637  -29.8708   21.6635 H   0  0  0  0  0  0
  -26.0129  -38.2751   24.1410 H   0  0  0  0  0  0
  -29.6819  -19.0894   18.0462 H   0  0  0  0  0  0
  -28.6376  -20.7211   15.9200 H   0  0  0  0  0  0
  -30.3482  -21.1213   16.1146 H   0  0  0  0  0  0
  -29.4001  -24.3418   17.7602 H   0  0  0  0  0  0
  -27.6951  -23.9178   17.5673 H   0  0  0  0  0  0
  -28.1830  -22.9663   15.4972 H   0  0  0  0  0  0
  -29.8757  -23.3571   15.7069 H   0  0  0  0  0  0
  -29.4498  -18.4051   21.7386 H   0  0  0  0  0  0
  -30.8657  -18.4483   20.7826 H   0  0  0  0  0  0
  -26.9372  -23.9519   20.4497 H   0  0  0  0  0  0
  -28.1956  -24.0500   21.6094 H   0  0  0  0  0  0
  -28.6429  -16.4556   20.2679 H   0  0  0  0  0  0
  1 25  1  0  0  0
  1 30  2  0  0  0
  1 82  1  0  0  0
  2  3  1  0  0  0
  2 25  1  0  0  0
  2 83  1  0  0  0
  2 84  1  0  0  0
  3  4  1  0  0  0
  3 85  1  0  0  0
  3 86  1  0  0  0
  4  5  1  0  0  0
  4 87  1  0  0  0
  4 88  1  0  0  0
  5  6  1  0  0  0
  5 26  1  0  0  0
  5 89  1  0  0  0
  6 25  1  0  0  0
  6 90  1  0  0  0
  6 91  1  0  0  0
  7  8  2  0  0  0
  7 26  1  0  0  0
  7 29  1  0  0  0
  8  9  1  0  0  0
  8 22  1  0  0  0
  9 10  1  0  0  0
  9 27  2  0  0  0
 10 11  2  0  0  0
 10 15  1  0  0  0
 11 12  1  0  0  0
 11 92  1  0  0  0
 12 13  2  0  0  0
 12 93  1  0  0  0
 13 14  1  0  0  0
 13 31  1  0  0  0
 14 15  2  0  0  0
 14 94  1  0  0  0
 15 95  1  0  0  0
 16 17  2  0  0  0
 16 21  1  0  0  0
 16 31  1  0  0  0
 17 18  1  0  0  0
 17 96  1  0  0  0
 18 19  2  0  0  0
 18 97  1  0  0  0
 19 20  1  0  0  0
 19 24  1  0  0  0
 20 21  2  0  0  0
 20 98  1  0  0  0
 21 23  1  0  0  0
 22 28  1  0  0  0
 22 32  2  0  0  0
 26 27  1  0  0  0
 28 99  1  0  0  0
 28100  1  0  0  0
 29101  1  0  0  0
 29102  1  0  0  0
 33 34  1  0  0  0
 33 66  1  0  0  0
 33 70  2  0  0  0
 34 36  1  0  0  0
 34 59  1  0  0  0
 34103  1  0  0  0
 35 44  2  0  0  0
 35 45  1  0  0  0
 35 68  1  0  0  0
 36 56  1  0  0  0
 36104  1  0  0  0
 37 39  1  0  0  0
 37 47  1  0  0  0
 37 66  1  0  0  0
 37105  1  0  0  0
 38 43  2  0  0  0
 38 46  1  0  0  0
 38 47  1  0  0  0
 39 64  1  0  0  0
 39 67  2  0  0  0
 40 52  1  0  0  0
 40 53  2  0  0  0
 40 58  1  0  0  0
 41106  1  0  0  0
 41107  1  0  0  0
 41108  1  0  0  0
 41 48  1  0  0  0
 42 43  1  0  0  0
 42 66  1  0  0  0
 42109  1  0  0  0
 42110  1  0  0  0
 43 44  1  0  0  0
 44111  1  0  0  0
 45 46  2  0  0  0
 45112  1  0  0  0
 46113  1  0  0  0
 47114  1  0  0  0
 47115  1  0  0  0
 48 56  1  0  0  0
 48 65  1  0  0  0
 48116  1  0  0  0
 49 50  1  0  0  0
 49 53  1  0  0  0
 49 64  1  0  0  0
 49117  1  0  0  0
 50 51  1  0  0  0
 50118  1  0  0  0
 50119  1  0  0  0
 51 52  1  0  0  0
 51120  1  0  0  0
 51121  1  0  0  0
 52122  1  0  0  0
 52123  1  0  0  0
 53 54  1  0  0  0
 54 55  2  0  0  0
 54124  1  0  0  0
 55 57  1  0  0  0
 55125  1  0  0  0
 56 69  2  0  0  0
 57 58  2  0  0  0
 57126  1  0  0  0
 58127  1  0  0  0
 59 60  1  0  0  0
 59 61  1  0  0  0
 59 62  1  0  0  0
 60128  1  0  0  0
 60129  1  0  0  0
 60130  1  0  0  0
 61131  1  0  0  0
 61132  1  0  0  0
 61133  1  0  0  0
 62134  1  0  0  0
 62135  1  0  0  0
 62136  1  0  0  0
 63 65  1  0  0  0
 63137  1  0  0  0
 63138  1  0  0  0
 63139  1  0  0  0
 64140  1  0  0  0
 65141  1  0  0  0
 68 80  1  0  0  0
 71 72  2  0  0  0
 71 74  1  0  0  0
 71142  1  0  0  0
 72 73  1  0  0  0
 72 76  1  0  0  0
 73 75  2  0  0  0
 73 77  1  0  0  0
 74 79  1  0  0  0
 74 81  2  0  0  0
 75 80  1  0  0  0
 75 81  1  0  0  0
 76 78  1  0  0  0
 76143  1  0  0  0
 76144  1  0  0  0
 77 78  1  0  0  0
 77145  1  0  0  0
 77146  1  0  0  0
 78147  1  0  0  0
 78148  1  0  0  0
 79 82  1  0  0  0
 79149  1  0  0  0
 79150  1  0  0  0
 80151  1  0  0  0
 80152  1  0  0  0
 82153  1  0  0  0
M  ISO  4   1 100  68 101  80 101  82 100
M  END
> <chiral flag>
0

> <version>
0

> <s_m_source_file>
/data/baiqing/PycharmProjects/Reinvent-master-3.2/result/LINK_invent/BTK/process_docking_weight1_custom_sum_contain_oxygen_bond_distance_aromatic_linkinvent_7_9_3/rearranged_h_0192.sdf

> <i_m_source_file_index>
73

> <r_mmod_Potential_Energy-OPLS-2005>
1359.86096191406

> <r_mmod_Stretch_Energy-OPLS-2005>
699.121826171875

> <r_mmod_Bend_Energy-OPLS-2005>
518.587158203125

> <r_mmod_Torsional_Energy-OPLS-2005>
254.911071777344

> <r_mmod_Improper_Torsional_Energy-OPLS-2005>
6.17329549789429

> <r_mmod_Van_der_Waal_Energy-OPLS-2005>
116.448822021484

> <r_mmod_Electrostatic_Energy-OPLS-2005>
-566.076782226562

> <r_mmod_Solvation_Energy-OPLS-2005>
-243.722686767578

> <b_mmod_Minimization_Converged-OPLS-2005>
0

> <r_mmod_RMS_Derivative-OPLS-2005>
1.89453387260437

$$$$
73
                    3D
 Structure written by MMmdl.
164173  0  0  1  0            999 V2000
  -30.7037  -14.4586   20.5218 C   0  0  0  0  0  0
  -30.4147  -12.2782   19.4430 C   0  0  0  0  0  0
  -29.4994  -12.4807   18.2176 C   0  0  0  0  0  0
  -28.0188  -12.3532   18.6244 C   0  0  0  0  0  0
  -27.6601  -13.2055   19.8717 C   0  0  2  0  0  0
  -28.6975  -13.0080   21.0015 C   0  0  0  0  0  0
  -25.2580  -13.8158   20.5667 C   0  0  0  0  0  0
  -24.1829  -13.0441   20.9159 C   0  0  0  0  0  0
  -24.6379  -11.6903   20.8719 C   0  0  0  0  0  0
  -23.9050  -10.4290   21.0395 C   0  0  0  0  0  0
  -24.3607   -9.4206   21.9173 C   0  0  0  0  0  0
  -23.6280   -8.2239   22.0752 C   0  0  0  0  0  0
  -22.4260   -8.0279   21.3545 C   0  0  0  0  0  0
  -21.9892   -9.0252   20.4652 C   0  0  0  0  0  0
  -22.7223  -10.2127   20.3054 C   0  0  0  0  0  0
  -21.6853   -6.0727   22.5271 C   0  0  0  0  0  0
  -21.4021   -6.5628   23.8210 C   0  0  0  0  0  0
  -21.3661   -5.6785   24.9168 C   0  0  0  0  0  0
  -21.6042   -4.3044   24.7222 C   0  0  0  0  0  0
  -21.8820   -3.8141   23.4345 C   0  0  0  0  0  0
  -21.9196   -4.6959   22.3401 C   0  0  0  0  0  0
  -22.7859  -13.5251   21.1831 C   0  0  0  0  0  0
  -22.1662   -4.2149   21.0976 F   0  0  0  0  0  0
  -21.5629   -3.4530   25.7735 F   0  0  0  0  0  0
  -30.0342  -13.2785   20.4509 N   0  0  0  0  0  0
  -26.3008  -12.9327   20.3334 N   0  0  0  0  0  0
  -25.9302  -11.6489   20.5743 N   0  0  0  0  0  0
  -22.0502  -12.8250   22.0401 N   0  0  0  0  0  0
  -25.4311  -15.1880   20.4085 N   0  0  0  0  0  0
  -31.8653  -14.5957   20.1247 O   0  0  0  0  0  0
  -21.6635   -6.8864   21.4233 O   0  0  0  0  0  0
  -22.3548  -14.5560   20.6690 O   0  0  0  0  0  0
  -24.6147  -31.8690   23.2112 C   0  0  0  0  0  0
  -25.9037  -32.4834   23.8402 C   0  0  1  0  0  0
  -27.2297  -27.4311   20.0917 C   0  0  0  0  0  0
  -25.5892  -33.8629   24.2334 N   0  0  0  0  0  0
  -23.4012  -30.4945   21.5539 C   0  0  2  0  0  0
  -24.8449  -28.9644   20.1147 C   0  0  0  0  0  0
  -22.7409  -29.4663   22.5006 C   0  0  0  0  0  0
  -18.0270  -28.1382   22.8492 C   0  0  0  0  0  0
  -24.1486  -36.7320   23.2634 C   0  0  0  0  0  0
  -25.9308  -30.8358   21.3615 C   0  0  0  0  0  0
  -26.0075  -29.4699   20.7091 C   0  0  0  0  0  0
  -27.2017  -28.7119   20.6930 C   0  0  0  0  0  0
  -26.0423  -26.9464   19.4889 C   0  0  0  0  0  0
  -24.8576  -27.7023   19.5025 C   0  0  0  0  0  0
  -23.6071  -29.8301   20.1676 C   0  0  0  0  0  0
  -25.4104  -36.3117   24.0337 C   0  0  1  0  0  0
  -20.5862  -28.3661   23.1331 C   0  0  2  0  0  0
  -20.6764  -26.9399   22.5428 C   0  0  0  0  0  0
  -19.5746  -26.6387   21.5219 C   0  0  0  0  0  0
  -18.1920  -26.7929   22.1624 C   0  0  0  0  0  0
  -19.1521  -28.8836   23.2910 C   0  0  0  0  0  0
  -18.9446  -30.1444   23.8922 C   0  0  0  0  0  0
  -17.6451  -30.6585   24.0567 C   0  0  0  0  0  0
  -25.9030  -34.9482   23.5133 C   0  0  0  0  0  0
  -16.5342  -29.9092   23.6323 C   0  0  0  0  0  0
  -16.7258  -28.6510   23.0342 C   0  0  0  0  0  0
  -26.4463  -31.6606   25.0720 C   0  0  0  0  0  0
  -25.3734  -31.3718   26.1477 C   0  0  0  0  0  0
  -27.0272  -30.3050   24.6070 C   0  0  0  0  0  0
  -27.6059  -32.4310   25.7464 C   0  0  0  0  0  0
  -27.5584  -37.1804   24.8457 C   0  0  0  0  0  0
  -21.4138  -29.3027   22.3737 N   0  0  0  0  0  0
  -26.4291  -37.3801   23.9411 N   0  0  0  0  0  0
  -24.6681  -31.0796   22.1011 N   0  0  0  0  0  0
  -23.4187  -28.8194   23.3033 O   0  0  0  0  0  0
  -28.4014  -26.6936   20.1157 O   0  0  0  0  0  0
  -26.5597  -34.8929   22.4698 O   0  0  0  0  0  0
  -23.5342  -32.1431   23.7517 O   0  0  0  0  0  0
  -30.0055  -16.6815   18.6424 C   0  0  0  0  0  0
  -30.0276  -17.9949   18.2755 C   0  0  0  0  0  0
  -29.9654  -16.7146   20.0626 C   0  0  0  0  0  0
  -28.6944  -20.8790   19.1716 C   0  0  0  0  0  0
  -30.4535  -20.7722   20.9190 C   0  0  0  0  0  0
  -28.8588  -22.4109   19.0942 C   0  0  0  0  0  0
  -30.5978  -22.3134   20.8556 C   0  0  0  0  0  0
  -30.0270  -20.2151   19.5483 C   0  0  1  0  0  0
  -30.1111  -18.5812   16.8972 C   0  0  0  0  0  0
  -29.5515  -24.4924   20.3056 C   0  0  0  0  0  0
  -28.2759  -25.2757   19.9158 C   0  0  0  0  0  0
  -29.8886  -17.9515   20.5464 N   0  0  0  0  0  0
  -29.9815  -18.7499   19.4428 N   0  0  0  0  0  0
  -29.9618  -15.5326   20.8480 N   0  0  0  0  0  0
  -29.3661  -23.0040   20.3668 N   0  3  1  0  0  0
  -30.4015  -17.6050   15.9132 O   0  0  0  0  0  0
  -31.4642  -12.3507   19.1522 H   0  0  0  0  0  0
  -30.2890  -11.2746   19.8524 H   0  0  0  0  0  0
  -29.7378  -11.7466   17.4473 H   0  0  0  0  0  0
  -29.6791  -13.4602   17.7713 H   0  0  0  0  0  0
  -27.8270  -11.2996   18.8313 H   0  0  0  0  0  0
  -27.3736  -12.6203   17.7865 H   0  0  0  0  0  0
  -27.6999  -14.2484   19.5572 H   0  0  0  0  0  0
  -28.6575  -11.9863   21.3816 H   0  0  0  0  0  0
  -28.4684  -13.6473   21.8559 H   0  0  0  0  0  0
  -25.2754   -9.5684   22.4743 H   0  0  0  0  0  0
  -24.0001   -7.4626   22.7461 H   0  0  0  0  0  0
  -21.0825   -8.8764   19.8952 H   0  0  0  0  0  0
  -22.3677  -10.9661   19.6162 H   0  0  0  0  0  0
  -21.2011   -7.6139   23.9708 H   0  0  0  0  0  0
  -21.1486   -6.0514   25.9070 H   0  0  0  0  0  0
  -22.0601   -2.7604   23.2845 H   0  0  0  0  0  0
  -22.4124  -11.9919   22.4797 H   0  0  0  0  0  0
  -21.1127  -13.1284   22.2603 H   0  0  0  0  0  0
  -24.6633  -15.8424   20.5128 H   0  0  0  0  0  0
  -26.2833  -15.6279   20.0856 H   0  0  0  0  0  0
  -26.7105  -32.5547   23.1168 H   0  0  0  0  0  0
  -25.0030  -33.9796   25.0470 H   0  0  0  0  0  0
  -22.6891  -31.3112   21.4189 H   0  0  0  0  0  0
  -23.3748  -35.9653   23.3300 H   0  0  0  0  0  0
  -24.3584  -36.8933   22.2048 H   0  0  0  0  0  0
  -23.7237  -37.6526   23.6646 H   0  0  0  0  0  0
  -26.0363  -31.5998   20.5899 H   0  0  0  0  0  0
  -26.8220  -30.8945   21.9746 H   0  0  0  0  0  0
  -28.0986  -29.0998   21.1554 H   0  0  0  0  0  0
  -25.9990  -25.9857   18.9982 H   0  0  0  0  0  0
  -23.9632  -27.3088   19.0386 H   0  0  0  0  0  0
  -23.7114  -30.6060   19.4084 H   0  0  0  0  0  0
  -22.7307  -29.2494   19.8743 H   0  0  0  0  0  0
  -25.1280  -36.1985   25.0831 H   0  0  0  0  0  0
  -20.9952  -28.3228   24.1453 H   0  0  0  0  0  0
  -20.5671  -26.2266   23.3611 H   0  0  0  0  0  0
  -21.6636  -26.7446   22.1222 H   0  0  0  0  0  0
  -19.6907  -25.6303   21.1237 H   0  0  0  0  0  0
  -19.6692  -27.3211   20.6762 H   0  0  0  0  0  0
  -17.4192  -26.6679   21.4021 H   0  0  0  0  0  0
  -18.0314  -26.0072   22.9019 H   0  0  0  0  0  0
  -19.7920  -30.7251   24.2311 H   0  0  0  0  0  0
  -17.5002  -31.6269   24.5165 H   0  0  0  0  0  0
  -15.5343  -30.3001   23.7632 H   0  0  0  0  0  0
  -15.8657  -28.0835   22.7047 H   0  0  0  0  0  0
  -24.5907  -30.7060   25.7823 H   0  0  0  0  0  0
  -24.8921  -32.2876   26.4923 H   0  0  0  0  0  0
  -25.8089  -30.8892   27.0235 H   0  0  0  0  0  0
  -26.2793  -29.6831   24.1133 H   0  0  0  0  0  0
  -27.4060  -29.7266   25.4506 H   0  0  0  0  0  0
  -27.8626  -30.4373   23.9192 H   0  0  0  0  0  0
  -27.2700  -33.3601   26.2082 H   0  0  0  0  0  0
  -28.3838  -32.6880   25.0262 H   0  0  0  0  0  0
  -28.0760  -31.8406   26.5340 H   0  0  0  0  0  0
  -28.2604  -38.0101   24.7522 H   0  0  0  0  0  0
  -28.1081  -36.2639   24.6257 H   0  0  0  0  0  0
  -27.2309  -37.1429   25.8862 H   0  0  0  0  0  0
  -20.9296  -29.8749   21.6961 H   0  0  0  0  0  0
  -26.0185  -38.2876   24.1440 H   0  0  0  0  0  0
  -30.0394  -15.8280   17.9807 H   0  0  0  0  0  0
  -28.3393  -20.5137   18.2093 H   0  0  0  0  0  0
  -27.9221  -20.6151   19.8956 H   0  0  0  0  0  0
  -29.7304  -20.4949   21.6866 H   0  0  0  0  0  0
  -31.4048  -20.3313   21.2198 H   0  0  0  0  0  0
  -27.8900  -22.8358   18.8329 H   0  0  0  0  0  0
  -29.5411  -22.6655   18.2813 H   0  0  0  0  0  0
  -31.4329  -22.5674   20.2007 H   0  0  0  0  0  0
  -30.8591  -22.6923   21.8442 H   0  0  0  0  0  0
  -30.7823  -20.5401   18.8314 H   0  0  0  0  0  0
  -30.8823  -19.3501   16.8559 H   0  0  0  0  0  0
  -29.1671  -19.0581   16.6359 H   0  0  0  0  0  0
  -29.8759  -24.8379   21.2877 H   0  0  0  0  0  0
  -30.3555  -24.7407   19.6116 H   0  0  0  0  0  0
  -27.4446  -24.8954   20.5124 H   0  0  0  0  0  0
  -28.0463  -25.0954   18.8649 H   0  0  0  0  0  0
  -29.1195  -15.3570   21.3717 H   0  0  0  0  0  0
  -28.6570  -22.8308   21.0662 H   0  0  0  0  0  0
  -31.2497  -17.2323   16.1301 H   0  0  0  0  0  0
  1 25  1  0  0  0
  1 30  2  0  0  0
  1 84  1  0  0  0
  2  3  1  0  0  0
  2 25  1  0  0  0
  2 87  1  0  0  0
  2 88  1  0  0  0
  3  4  1  0  0  0
  3 89  1  0  0  0
  3 90  1  0  0  0
  4  5  1  0  0  0
  4 91  1  0  0  0
  4 92  1  0  0  0
  5  6  1  0  0  0
  5 26  1  0  0  0
  5 93  1  0  0  0
  6 25  1  0  0  0
  6 94  1  0  0  0
  6 95  1  0  0  0
  7  8  2  0  0  0
  7 26  1  0  0  0
  7 29  1  0  0  0
  8  9  1  0  0  0
  8 22  1  0  0  0
  9 10  1  0  0  0
  9 27  2  0  0  0
 10 11  2  0  0  0
 10 15  1  0  0  0
 11 12  1  0  0  0
 11 96  1  0  0  0
 12 13  2  0  0  0
 12 97  1  0  0  0
 13 14  1  0  0  0
 13 31  1  0  0  0
 14 15  2  0  0  0
 14 98  1  0  0  0
 15 99  1  0  0  0
 16 17  2  0  0  0
 16 21  1  0  0  0
 16 31  1  0  0  0
 17 18  1  0  0  0
 17100  1  0  0  0
 18 19  2  0  0  0
 18101  1  0  0  0
 19 20  1  0  0  0
 19 24  1  0  0  0
 20 21  2  0  0  0
 20102  1  0  0  0
 21 23  1  0  0  0
 22 28  1  0  0  0
 22 32  2  0  0  0
 26 27  1  0  0  0
 28103  1  0  0  0
 28104  1  0  0  0
 29105  1  0  0  0
 29106  1  0  0  0
 33 34  1  0  0  0
 33 66  1  0  0  0
 33 70  2  0  0  0
 34 36  1  0  0  0
 34 59  1  0  0  0
 34107  1  0  0  0
 35 44  2  0  0  0
 35 45  1  0  0  0
 35 68  1  0  0  0
 36 56  1  0  0  0
 36108  1  0  0  0
 37 39  1  0  0  0
 37 47  1  0  0  0
 37 66  1  0  0  0
 37109  1  0  0  0
 38 43  2  0  0  0
 38 46  1  0  0  0
 38 47  1  0  0  0
 39 64  1  0  0  0
 39 67  2  0  0  0
 40 52  1  0  0  0
 40 53  2  0  0  0
 40 58  1  0  0  0
 41110  1  0  0  0
 41111  1  0  0  0
 41112  1  0  0  0
 41 48  1  0  0  0
 42 43  1  0  0  0
 42 66  1  0  0  0
 42113  1  0  0  0
 42114  1  0  0  0
 43 44  1  0  0  0
 44115  1  0  0  0
 45 46  2  0  0  0
 45116  1  0  0  0
 46117  1  0  0  0
 47118  1  0  0  0
 47119  1  0  0  0
 48 56  1  0  0  0
 48 65  1  0  0  0
 48120  1  0  0  0
 49 50  1  0  0  0
 49 53  1  0  0  0
 49 64  1  0  0  0
 49121  1  0  0  0
 50 51  1  0  0  0
 50122  1  0  0  0
 50123  1  0  0  0
 51 52  1  0  0  0
 51124  1  0  0  0
 51125  1  0  0  0
 52126  1  0  0  0
 52127  1  0  0  0
 53 54  1  0  0  0
 54 55  2  0  0  0
 54128  1  0  0  0
 55 57  1  0  0  0
 55129  1  0  0  0
 56 69  2  0  0  0
 57 58  2  0  0  0
 57130  1  0  0  0
 58131  1  0  0  0
 59 60  1  0  0  0
 59 61  1  0  0  0
 59 62  1  0  0  0
 60132  1  0  0  0
 60133  1  0  0  0
 60134  1  0  0  0
 61135  1  0  0  0
 61136  1  0  0  0
 61137  1  0  0  0
 62138  1  0  0  0
 62139  1  0  0  0
 62140  1  0  0  0
 63 65  1  0  0  0
 63141  1  0  0  0
 63142  1  0  0  0
 63143  1  0  0  0
 64144  1  0  0  0
 65145  1  0  0  0
 68 81  1  0  0  0
 71 72  2  0  0  0
 71 73  1  0  0  0
 71146  1  0  0  0
 72 79  1  0  0  0
 72 83  1  0  0  0
 73 82  2  0  0  0
 73 84  1  0  0  0
 74 76  1  0  0  0
 74 78  1  0  0  0
 74147  1  0  0  0
 74148  1  0  0  0
 75 77  1  0  0  0
 75 78  1  0  0  0
 75149  1  0  0  0
 75150  1  0  0  0
 76 85  1  0  0  0
 76151  1  0  0  0
 76152  1  0  0  0
 77 85  1  0  0  0
 77153  1  0  0  0
 77154  1  0  0  0
 78 83  1  0  0  0
 78155  1  0  0  0
 79 86  1  0  0  0
 79156  1  0  0  0
 79157  1  0  0  0
 80 81  1  0  0  0
 80158  1  0  0  0
 80159  1  0  0  0
 80 85  1  0  0  0
 81160  1  0  0  0
 81161  1  0  0  0
 82 83  1  0  0  0
 84162  1  0  0  0
 85163  1  0  0  0
 86164  1  0  0  0
M  CHG  1  85   1
M  ISO  4   1 100  68 101  81 101  84 100
M  END
> <chiral flag>
0

> <version>
0

> <s_m_source_file>
/data/baiqing/PycharmProjects/Reinvent-master-3.2/result/LINK_invent/BTK/process_docking_weight1_custom_sum_contain_oxygen_bond_distance_aromatic_linkinvent_7_9_3/rearranged_h_0192.sdf

> <i_m_source_file_index>
74

> <r_mmod_Potential_Energy-OPLS-2005>
-166.085418701172

> <r_mmod_Stretch_Energy-OPLS-2005>
37.5402870178223

> <r_mmod_Bend_Energy-OPLS-2005>
100.263046264648

> <r_mmod_Torsional_Energy-OPLS-2005>
291.991729736328

> <r_mmod_Improper_Torsional_Energy-OPLS-2005>
6.79067802429199

> <r_mmod_Van_der_Waal_Energy-OPLS-2005>
140.917861938477

> <r_mmod_Electrostatic_Energy-OPLS-2005>
-292.883728027344

> <r_mmod_Solvation_Energy-OPLS-2005>
-466.196197509766

> <b_mmod_Minimization_Converged-OPLS-2005>
0

> <r_mmod_RMS_Derivative-OPLS-2005>
1.26284968852997

$$$$
74
                    3D
 Structure written by MMmdl.
156165  0  0  1  0            999 V2000
  -30.5147  -15.1739   20.3928 C   0  0  0  0  0  0
  -30.4209  -12.7490   19.5175 C   0  0  0  0  0  0
  -29.5222  -12.5597   18.2743 C   0  0  0  0  0  0
  -28.0671  -12.3066   18.7020 C   0  0  0  0  0  0
  -27.6100  -13.2745   19.8236 C   0  0  2  0  0  0
  -28.6463  -13.4325   20.9559 C   0  0  0  0  0  0
  -25.2394  -13.8263   20.5776 C   0  0  0  0  0  0
  -24.1732  -13.0453   20.9255 C   0  0  0  0  0  0
  -24.6378  -11.6946   20.8757 C   0  0  0  0  0  0
  -23.9079  -10.4299   21.0402 C   0  0  0  0  0  0
  -24.3626   -9.4212   21.9178 C   0  0  0  0  0  0
  -23.6299   -8.2246   22.0748 C   0  0  0  0  0  0
  -22.4280   -8.0277   21.3541 C   0  0  0  0  0  0
  -21.9911   -9.0253   20.4644 C   0  0  0  0  0  0
  -22.7247  -10.2131   20.3053 C   0  0  0  0  0  0
  -21.6857   -6.0727   22.5276 C   0  0  0  0  0  0
  -21.4020   -6.5633   23.8208 C   0  0  0  0  0  0
  -21.3664   -5.6784   24.9169 C   0  0  0  0  0  0
  -21.6042   -4.3048   24.7223 C   0  0  0  0  0  0
  -21.8818   -3.8141   23.4345 C   0  0  0  0  0  0
  -21.9198   -4.6955   22.3399 C   0  0  0  0  0  0
  -22.7753  -13.5210   21.1901 C   0  0  0  0  0  0
  -22.1666   -4.2142   21.0979 F   0  0  0  0  0  0
  -21.5630   -3.4531   25.7738 F   0  0  0  0  0  0
  -29.8830  -13.9073   20.3205 N   0  0  0  0  0  0
  -26.2805  -12.9534   20.3231 N   0  0  0  0  0  0
  -25.9314  -11.6636   20.5719 N   0  0  0  0  0  0
  -22.0406  -12.8193   22.0453 N   0  0  0  0  0  0
  -25.4092  -15.1996   20.4272 N   0  0  0  0  0  0
  -31.7314  -15.1023   20.1650 O   0  0  0  0  0  0
  -21.6647   -6.8872   21.4236 O   0  0  0  0  0  0
  -22.3435  -14.5512   20.6747 O   0  0  0  0  0  0
  -24.6557  -31.8285   23.1734 C   0  0  0  0  0  0
  -25.9267  -32.4611   23.8178 C   0  0  1  0  0  0
  -27.2160  -26.9791   20.1883 C   0  0  0  0  0  0
  -25.5961  -33.8425   24.2091 N   0  0  0  0  0  0
  -23.4667  -30.4396   21.5219 C   0  0  2  0  0  0
  -24.9171  -28.8269   20.1169 C   0  0  0  0  0  0
  -22.7620  -29.4464   22.4811 C   0  0  0  0  0  0
  -18.0311  -28.1405   22.8464 C   0  0  0  0  0  0
  -24.1495  -36.7218   23.2646 C   0  0  0  0  0  0
  -26.0296  -30.6504   21.3952 C   0  0  0  0  0  0
  -26.0959  -29.2422   20.7476 C   0  0  0  0  0  0
  -27.2387  -28.3369   20.7602 C   0  0  0  0  0  0
  -26.0116  -26.6955   19.5110 C   0  0  0  0  0  0
  -24.8958  -27.5725   19.4814 C   0  0  0  0  0  0
  -23.7024  -29.7511   20.1485 C   0  0  0  0  0  0
  -25.4134  -36.2982   24.0300 C   0  0  1  0  0  0
  -20.5930  -28.3742   23.1210 C   0  0  2  0  0  0
  -20.6792  -26.9431   22.5411 C   0  0  0  0  0  0
  -19.5771  -26.6376   21.5219 C   0  0  0  0  0  0
  -18.1950  -26.7936   22.1622 C   0  0  0  0  0  0
  -19.1569  -28.8893   23.2824 C   0  0  0  0  0  0
  -18.9484  -30.1485   23.8859 C   0  0  0  0  0  0
  -17.6480  -30.6600   24.0552 C   0  0  0  0  0  0
  -25.9093  -34.9363   23.5013 C   0  0  0  0  0  0
  -16.5370  -29.9088   23.6343 C   0  0  0  0  0  0
  -16.7294  -28.6507   23.0361 C   0  0  0  0  0  0
  -26.4541  -31.6538   25.0686 C   0  0  0  0  0  0
  -25.3683  -31.3790   26.1359 C   0  0  0  0  0  0
  -27.0422  -30.2908   24.6388 C   0  0  0  0  0  0
  -27.6043  -32.4338   25.7489 C   0  0  0  0  0  0
  -27.5573  -37.1763   24.8459 C   0  0  0  0  0  0
  -21.4299  -29.3037   22.3561 N   0  0  0  0  0  0
  -26.4281  -37.3714   23.9407 N   0  0  0  0  0  0
  -24.7382  -30.9994   22.0845 N   0  0  0  0  0  0
  -23.4193  -28.8042   23.3039 O   0  0  0  0  0  0
  -28.2965  -25.9768   20.2040 O   0  0  0  0  0  0
  -26.5707  -34.8891   22.4614 O   0  0  0  0  0  0
  -23.5644  -32.1240   23.6870 O   0  0  0  0  0  0
  -29.5234  -23.7266   19.5969 C   0  0  0  0  0  0
  -28.3965  -24.4541   20.1587 C   0  0  0  0  0  0
  -28.8709  -21.4873   20.2741 C   0  0  0  0  0  0
  -30.4159  -19.2436   19.9331 C   0  0  0  0  0  0
  -28.2969  -18.8003   20.8096 C   0  0  0  0  0  0
  -30.3905  -17.6634   19.4324 C   0  0  0  0  0  0
  -28.9421  -17.2999   21.2167 C   0  0  0  0  0  0
  -30.5103  -24.2703   17.3313 C   0  0  0  0  0  0
  -30.6025  -24.4873   18.8485 C   0  0  0  0  0  0
  -29.7412  -22.3327   19.6614 N   0  0  0  0  0  0
  -27.5440  -23.5269   20.7709 N   0  0  0  0  0  0
  -27.7625  -22.1254   20.8138 N   0  0  0  0  0  0
  -29.1506  -19.9643   20.3312 N   0  0  0  0  0  0
  -29.8679  -16.5040   20.2901 N   0  0  0  0  0  0
  -31.4490  -12.9108   19.1921 H   0  0  0  0  0  0
  -30.4477  -11.8369   20.1162 H   0  0  0  0  0  0
  -29.8851  -11.7333   17.6608 H   0  0  0  0  0  0
  -29.5713  -13.4522   17.6490 H   0  0  0  0  0  0
  -28.0041  -11.2778   19.0592 H   0  0  0  0  0  0
  -27.3992  -12.3744   17.8424 H   0  0  0  0  0  0
  -27.5319  -14.2481   19.3372 H   0  0  0  0  0  0
  -28.7959  -12.4972   21.4976 H   0  0  0  0  0  0
  -28.3023  -14.1668   21.6855 H   0  0  0  0  0  0
  -25.2767   -9.5703   22.4757 H   0  0  0  0  0  0
  -24.0005   -7.4643   22.7473 H   0  0  0  0  0  0
  -21.0836   -8.8783   19.8958 H   0  0  0  0  0  0
  -22.3699  -10.9669   19.6169 H   0  0  0  0  0  0
  -21.2014   -7.6140   23.9708 H   0  0  0  0  0  0
  -21.1489   -6.0515   25.9071 H   0  0  0  0  0  0
  -22.0597   -2.7603   23.2851 H   0  0  0  0  0  0
  -22.4036  -11.9869   22.4851 H   0  0  0  0  0  0
  -21.1021  -13.1215   22.2657 H   0  0  0  0  0  0
  -24.6477  -15.8570   20.5552 H   0  0  0  0  0  0
  -26.2646  -15.6390   20.1132 H   0  0  0  0  0  0
  -26.7327  -32.5164   23.0887 H   0  0  0  0  0  0
  -25.0045  -33.9511   25.0199 H   0  0  0  0  0  0
  -22.7770  -31.2692   21.3535 H   0  0  0  0  0  0
  -23.3769  -35.9535   23.3277 H   0  0  0  0  0  0
  -24.3573  -36.8897   22.2065 H   0  0  0  0  0  0
  -23.7239  -37.6394   23.6722 H   0  0  0  0  0  0
  -26.2015  -31.3910   20.6132 H   0  0  0  0  0  0
  -26.8926  -30.7091   22.0460 H   0  0  0  0  0  0
  -28.1402  -28.6568   21.2634 H   0  0  0  0  0  0
  -25.9146  -25.7378   19.0196 H   0  0  0  0  0  0
  -23.9982  -27.2520   18.9708 H   0  0  0  0  0  0
  -23.8541  -30.5172   19.3872 H   0  0  0  0  0  0
  -22.8122  -29.2017   19.8360 H   0  0  0  0  0  0
  -25.1332  -36.1778   25.0790 H   0  0  0  0  0  0
  -21.0014  -28.3349   24.1338 H   0  0  0  0  0  0
  -20.5688  -26.2356   23.3643 H   0  0  0  0  0  0
  -21.6657  -26.7425   22.1215 H   0  0  0  0  0  0
  -19.6934  -25.6276   21.1279 H   0  0  0  0  0  0
  -19.6711  -27.3162   20.6729 H   0  0  0  0  0  0
  -17.4219  -26.6674   21.4029 H   0  0  0  0  0  0
  -18.0347  -26.0094   22.9034 H   0  0  0  0  0  0
  -19.7962  -30.7309   24.2212 H   0  0  0  0  0  0
  -17.5037  -31.6280   24.5158 H   0  0  0  0  0  0
  -15.5372  -30.2981   23.7692 H   0  0  0  0  0  0
  -15.8691  -28.0816   22.7103 H   0  0  0  0  0  0
  -24.5845  -30.7168   25.7666 H   0  0  0  0  0  0
  -24.8899  -32.2999   26.4702 H   0  0  0  0  0  0
  -25.7918  -30.8994   27.0191 H   0  0  0  0  0  0
  -26.3069  -29.6599   24.1382 H   0  0  0  0  0  0
  -27.3950  -29.7261   25.5027 H   0  0  0  0  0  0
  -27.9016  -30.4092   23.9786 H   0  0  0  0  0  0
  -27.2607  -33.3663   26.1980 H   0  0  0  0  0  0
  -28.3901  -32.6861   25.0355 H   0  0  0  0  0  0
  -28.0662  -31.8523   26.5479 H   0  0  0  0  0  0
  -28.2565  -38.0083   24.7521 H   0  0  0  0  0  0
  -28.1093  -36.2609   24.6266 H   0  0  0  0  0  0
  -27.2289  -37.1383   25.8862 H   0  0  0  0  0  0
  -20.9545  -29.8703   21.6676 H   0  0  0  0  0  0
  -26.0129  -38.2772   24.1425 H   0  0  0  0  0  0
  -30.8739  -19.8325   19.1370 H   0  0  0  0  0  0
  -31.1070  -19.3249   20.7739 H   0  0  0  0  0  0
  -27.7270  -19.1611   21.6670 H   0  0  0  0  0  0
  -27.5531  -18.6372   20.0288 H   0  0  0  0  0  0
  -31.4108  -17.4184   19.1352 H   0  0  0  0  0  0
  -29.8254  -17.6193   18.5008 H   0  0  0  0  0  0
  -28.1093  -16.6408   21.4631 H   0  0  0  0  0  0
  -29.4880  -17.4178   22.1538 H   0  0  0  0  0  0
  -31.2777  -24.8383   16.8055 H   0  0  0  0  0  0
  -29.5405  -24.5889   16.9491 H   0  0  0  0  0  0
  -30.6407  -23.2182   17.0756 H   0  0  0  0  0  0
  -31.5804  -24.1722   19.2136 H   0  0  0  0  0  0
  -30.5273  -25.5520   19.0696 H   0  0  0  0  0  0
  1 25  1  0  0  0
  1 30  2  0  0  0
  1 84  1  0  0  0
  2  3  1  0  0  0
  2 25  1  0  0  0
  2 85  1  0  0  0
  2 86  1  0  0  0
  3  4  1  0  0  0
  3 87  1  0  0  0
  3 88  1  0  0  0
  4  5  1  0  0  0
  4 89  1  0  0  0
  4 90  1  0  0  0
  5  6  1  0  0  0
  5 26  1  0  0  0
  5 91  1  0  0  0
  6 25  1  0  0  0
  6 92  1  0  0  0
  6 93  1  0  0  0
  7  8  2  0  0  0
  7 26  1  0  0  0
  7 29  1  0  0  0
  8  9  1  0  0  0
  8 22  1  0  0  0
  9 10  1  0  0  0
  9 27  2  0  0  0
 10 11  2  0  0  0
 10 15  1  0  0  0
 11 12  1  0  0  0
 11 94  1  0  0  0
 12 13  2  0  0  0
 12 95  1  0  0  0
 13 14  1  0  0  0
 13 31  1  0  0  0
 14 15  2  0  0  0
 14 96  1  0  0  0
 15 97  1  0  0  0
 16 17  2  0  0  0
 16 21  1  0  0  0
 16 31  1  0  0  0
 17 18  1  0  0  0
 17 98  1  0  0  0
 18 19  2  0  0  0
 18 99  1  0  0  0
 19 20  1  0  0  0
 19 24  1  0  0  0
 20 21  2  0  0  0
 20100  1  0  0  0
 21 23  1  0  0  0
 22 28  1  0  0  0
 22 32  2  0  0  0
 26 27  1  0  0  0
 28101  1  0  0  0
 28102  1  0  0  0
 29103  1  0  0  0
 29104  1  0  0  0
 33 34  1  0  0  0
 33 66  1  0  0  0
 33 70  2  0  0  0
 34 36  1  0  0  0
 34 59  1  0  0  0
 34105  1  0  0  0
 35 44  2  0  0  0
 35 45  1  0  0  0
 35 68  1  0  0  0
 36 56  1  0  0  0
 36106  1  0  0  0
 37 39  1  0  0  0
 37 47  1  0  0  0
 37 66  1  0  0  0
 37107  1  0  0  0
 38 43  2  0  0  0
 38 46  1  0  0  0
 38 47  1  0  0  0
 39 64  1  0  0  0
 39 67  2  0  0  0
 40 52  1  0  0  0
 40 53  2  0  0  0
 40 58  1  0  0  0
 41108  1  0  0  0
 41109  1  0  0  0
 41110  1  0  0  0
 41 48  1  0  0  0
 42 43  1  0  0  0
 42 66  1  0  0  0
 42111  1  0  0  0
 42112  1  0  0  0
 43 44  1  0  0  0
 44113  1  0  0  0
 45 46  2  0  0  0
 45114  1  0  0  0
 46115  1  0  0  0
 47116  1  0  0  0
 47117  1  0  0  0
 48 56  1  0  0  0
 48 65  1  0  0  0
 48118  1  0  0  0
 49 50  1  0  0  0
 49 53  1  0  0  0
 49 64  1  0  0  0
 49119  1  0  0  0
 50 51  1  0  0  0
 50120  1  0  0  0
 50121  1  0  0  0
 51 52  1  0  0  0
 51122  1  0  0  0
 51123  1  0  0  0
 52124  1  0  0  0
 52125  1  0  0  0
 53 54  1  0  0  0
 54 55  2  0  0  0
 54126  1  0  0  0
 55 57  1  0  0  0
 55127  1  0  0  0
 56 69  2  0  0  0
 57 58  2  0  0  0
 57128  1  0  0  0
 58129  1  0  0  0
 59 60  1  0  0  0
 59 61  1  0  0  0
 59 62  1  0  0  0
 60130  1  0  0  0
 60131  1  0  0  0
 60132  1  0  0  0
 61133  1  0  0  0
 61134  1  0  0  0
 61135  1  0  0  0
 62136  1  0  0  0
 62137  1  0  0  0
 62138  1  0  0  0
 63 65  1  0  0  0
 63139  1  0  0  0
 63140  1  0  0  0
 63141  1  0  0  0
 64142  1  0  0  0
 65143  1  0  0  0
 68 72  1  0  0  0
 71 72  2  0  0  0
 71 79  1  0  0  0
 71 80  1  0  0  0
 72 81  1  0  0  0
 73 80  2  0  0  0
 73 82  1  0  0  0
 73 83  1  0  0  0
 74 76  1  0  0  0
 74 83  1  0  0  0
 74144  1  0  0  0
 74145  1  0  0  0
 75 77  1  0  0  0
 75 83  1  0  0  0
 75146  1  0  0  0
 75147  1  0  0  0
 76 84  1  0  0  0
 76148  1  0  0  0
 76149  1  0  0  0
 77 84  1  0  0  0
 77150  1  0  0  0
 77151  1  0  0  0
 78 79  1  0  0  0
 78152  1  0  0  0
 78153  1  0  0  0
 78154  1  0  0  0
 79155  1  0  0  0
 79156  1  0  0  0
 81 82  2  0  0  0
M  ISO  4   1 100  68 101  72 101  84 100
M  END
> <chiral flag>
0

> <version>
0

> <s_m_source_file>
/data/baiqing/PycharmProjects/Reinvent-master-3.2/result/LINK_invent/BTK/process_docking_weight1_custom_sum_contain_oxygen_bond_distance_aromatic_linkinvent_7_9_3/rearranged_h_0192.sdf

> <i_m_source_file_index>
75

> <r_mmod_Potential_Energy-OPLS-2005>
1025.91040039062

> <r_mmod_Stretch_Energy-OPLS-2005>
375.815338134766

> <r_mmod_Bend_Energy-OPLS-2005>
422.712341308594

> <r_mmod_Torsional_Energy-OPLS-2005>
323.917663574219

> <r_mmod_Improper_Torsional_Energy-OPLS-2005>
14.5058126449585

> <r_mmod_Van_der_Waal_Energy-OPLS-2005>
137.756561279297

> <r_mmod_Electrostatic_Energy-OPLS-2005>
-370.067901611328

> <r_mmod_Solvation_Energy-OPLS-2005>
-235.083602905273

> <b_mmod_Minimization_Converged-OPLS-2005>
0

> <r_mmod_RMS_Derivative-OPLS-2005>
1.0862101316452

$$$$
75
                    3D
 Structure written by MMmdl.
145153  0  0  1  0            999 V2000
  -30.4243  -15.2169   20.3758 C   0  0  0  0  0  0
  -30.4470  -12.7690   19.5262 C   0  0  0  0  0  0
  -29.5381  -12.5729   18.2856 C   0  0  0  0  0  0
  -28.0820  -12.3055   18.7075 C   0  0  0  0  0  0
  -27.6185  -13.2672   19.8299 C   0  0  2  0  0  0
  -28.6536  -13.3985   20.9680 C   0  0  0  0  0  0
  -25.2415  -13.8234   20.5728 C   0  0  0  0  0  0
  -24.1760  -13.0436   20.9258 C   0  0  0  0  0  0
  -24.6402  -11.6929   20.8763 C   0  0  0  0  0  0
  -23.9091  -10.4292   21.0408 C   0  0  0  0  0  0
  -24.3635   -9.4205   21.9185 C   0  0  0  0  0  0
  -23.6303   -8.2243   22.0755 C   0  0  0  0  0  0
  -22.4284   -8.0283   21.3545 C   0  0  0  0  0  0
  -21.9926   -9.0259   20.4646 C   0  0  0  0  0  0
  -22.7262  -10.2134   20.3056 C   0  0  0  0  0  0
  -21.6856   -6.0738   22.5279 C   0  0  0  0  0  0
  -21.4016   -6.5641   23.8212 C   0  0  0  0  0  0
  -21.3660   -5.6793   24.9174 C   0  0  0  0  0  0
  -21.6044   -4.3056   24.7224 C   0  0  0  0  0  0
  -21.8819   -3.8148   23.4345 C   0  0  0  0  0  0
  -21.9193   -4.6965   22.3402 C   0  0  0  0  0  0
  -22.7777  -13.5195   21.1902 C   0  0  0  0  0  0
  -22.1661   -4.2150   21.0979 F   0  0  0  0  0  0
  -21.5628   -3.4539   25.7737 F   0  0  0  0  0  0
  -29.8962  -13.8982   20.3571 N   0  0  0  0  0  0
  -26.2840  -12.9493   20.3218 N   0  0  0  0  0  0
  -25.9337  -11.6608   20.5722 N   0  0  0  0  0  0
  -22.0430  -12.8178   22.0454 N   0  0  0  0  0  0
  -25.4047  -15.1967   20.4127 N   0  0  0  0  0  0
  -31.6356  -15.2655   20.1121 O   0  0  0  0  0  0
  -21.6644   -6.8883   21.4241 O   0  0  0  0  0  0
  -22.3460  -14.5496   20.6740 O   0  0  0  0  0  0
  -24.6596  -31.8261   23.1720 C   0  0  0  0  0  0
  -25.9290  -32.4601   23.8177 C   0  0  1  0  0  0
  -27.2230  -26.9607   20.1812 C   0  0  0  0  0  0
  -25.5969  -33.8414   24.2084 N   0  0  0  0  0  0
  -23.4730  -30.4375   21.5204 C   0  0  2  0  0  0
  -24.9270  -28.8283   20.1109 C   0  0  0  0  0  0
  -22.7651  -29.4451   22.4792 C   0  0  0  0  0  0
  -18.0319  -28.1408   22.8468 C   0  0  0  0  0  0
  -24.1492  -36.7213   23.2647 C   0  0  0  0  0  0
  -26.0394  -30.6435   21.3967 C   0  0  0  0  0  0
  -26.1087  -29.2361   20.7417 C   0  0  0  0  0  0
  -27.2515  -28.3225   20.7521 C   0  0  0  0  0  0
  -26.0132  -26.6949   19.5026 C   0  0  0  0  0  0
  -24.9025  -27.5775   19.4715 C   0  0  0  0  0  0
  -23.7109  -29.7521   20.1463 C   0  0  0  0  0  0
  -25.4133  -36.2975   24.0301 C   0  0  1  0  0  0
  -20.5942  -28.3748   23.1197 C   0  0  2  0  0  0
  -20.6796  -26.9433   22.5405 C   0  0  0  0  0  0
  -19.5770  -26.6378   21.5215 C   0  0  0  0  0  0
  -18.1952  -26.7941   22.1623 C   0  0  0  0  0  0
  -19.1580  -28.8899   23.2820 C   0  0  0  0  0  0
  -18.9491  -30.1489   23.8854 C   0  0  0  0  0  0
  -17.6485  -30.6598   24.0556 C   0  0  0  0  0  0
  -25.9096  -34.9357   23.5014 C   0  0  0  0  0  0
  -16.5375  -29.9086   23.6343 C   0  0  0  0  0  0
  -16.7301  -28.6507   23.0361 C   0  0  0  0  0  0
  -26.4553  -31.6538   25.0695 C   0  0  0  0  0  0
  -25.3688  -31.3780   26.1357 C   0  0  0  0  0  0
  -27.0449  -30.2910   24.6407 C   0  0  0  0  0  0
  -27.6047  -32.4345   25.7498 C   0  0  0  0  0  0
  -27.5570  -37.1763   24.8466 C   0  0  0  0  0  0
  -21.4323  -29.3041   22.3545 N   0  0  0  0  0  0
  -26.4280  -37.3709   23.9408 N   0  0  0  0  0  0
  -24.7450  -30.9953   22.0838 N   0  0  0  0  0  0
  -23.4212  -28.8023   23.3025 O   0  0  0  0  0  0
  -28.2408  -25.8834   20.2718 O   0  0  0  0  0  0
  -26.5706  -34.8889   22.4610 O   0  0  0  0  0  0
  -23.5673  -32.1216   23.6834 O   0  0  0  0  0  0
  -30.2159  -20.3550   19.8132 C   0  0  0  0  0  0
  -28.4088  -18.8064   20.9330 C   0  0  0  0  0  0
  -29.0806  -21.1312   20.3220 C   0  0  0  0  0  0
  -29.5421  -18.0211   20.4282 C   0  0  0  0  0  0
  -29.0455  -22.8662   20.5347 C   0  0  0  0  0  0
  -28.0440  -24.2670   20.0626 C   0  0  0  0  0  0
  -28.2004  -20.2211   20.9090 N   0  0  0  0  0  0
  -30.4281  -18.9399   19.8564 N   0  0  0  0  0  0
  -29.5823  -16.4137   20.5411 N   0  0  0  0  0  0
  -31.4674  -12.9740   19.1996 H   0  0  0  0  0  0
  -30.5071  -11.8502   20.1118 H   0  0  0  0  0  0
  -29.9075  -11.7530   17.6682 H   0  0  0  0  0  0
  -29.5779  -13.4679   17.6627 H   0  0  0  0  0  0
  -28.0257  -11.2758   19.0626 H   0  0  0  0  0  0
  -27.4155  -12.3693   17.8465 H   0  0  0  0  0  0
  -27.5470  -14.2445   19.3515 H   0  0  0  0  0  0
  -28.8066  -12.4465   21.4785 H   0  0  0  0  0  0
  -28.3013  -14.1005   21.7254 H   0  0  0  0  0  0
  -25.2777   -9.5679   22.4765 H   0  0  0  0  0  0
  -24.0008   -7.4634   22.7476 H   0  0  0  0  0  0
  -21.0857   -8.8783   19.8951 H   0  0  0  0  0  0
  -22.3721  -10.9676   19.6168 H   0  0  0  0  0  0
  -21.2010   -7.6149   23.9716 H   0  0  0  0  0  0
  -21.1482   -6.0523   25.9077 H   0  0  0  0  0  0
  -22.0597   -2.7610   23.2845 H   0  0  0  0  0  0
  -22.4059  -11.9847   22.4847 H   0  0  0  0  0  0
  -21.1041  -13.1187   22.2653 H   0  0  0  0  0  0
  -24.6221  -15.8358   20.5034 H   0  0  0  0  0  0
  -26.2178  -15.6277   19.9943 H   0  0  0  0  0  0
  -26.7358  -32.5150   23.0893 H   0  0  0  0  0  0
  -25.0064  -33.9496   25.0200 H   0  0  0  0  0  0
  -22.7846  -31.2680   21.3506 H   0  0  0  0  0  0
  -23.3766  -35.9532   23.3280 H   0  0  0  0  0  0
  -24.3569  -36.8888   22.2067 H   0  0  0  0  0  0
  -23.7239  -37.6390   23.6721 H   0  0  0  0  0  0
  -26.2149  -31.3864   20.6176 H   0  0  0  0  0  0
  -26.9012  -30.7004   22.0498 H   0  0  0  0  0  0
  -28.1466  -28.6318   21.2733 H   0  0  0  0  0  0
  -25.8951  -25.7370   19.0170 H   0  0  0  0  0  0
  -24.0036  -27.2596   18.9613 H   0  0  0  0  0  0
  -23.8627  -30.5202   19.3871 H   0  0  0  0  0  0
  -22.8216  -29.2035   19.8309 H   0  0  0  0  0  0
  -25.1330  -36.1774   25.0792 H   0  0  0  0  0  0
  -21.0030  -28.3354   24.1320 H   0  0  0  0  0  0
  -20.5677  -26.2366   23.3642 H   0  0  0  0  0  0
  -21.6659  -26.7412   22.1211 H   0  0  0  0  0  0
  -19.6930  -25.6277   21.1273 H   0  0  0  0  0  0
  -19.6709  -27.3164   20.6726 H   0  0  0  0  0  0
  -17.4221  -26.6685   21.4027 H   0  0  0  0  0  0
  -18.0347  -26.0095   22.9030 H   0  0  0  0  0  0
  -19.7967  -30.7317   24.2204 H   0  0  0  0  0  0
  -17.5037  -31.6273   24.5166 H   0  0  0  0  0  0
  -15.5374  -30.2974   23.7692 H   0  0  0  0  0  0
  -15.8702  -28.0810   22.7101 H   0  0  0  0  0  0
  -24.5885  -30.7113   25.7668 H   0  0  0  0  0  0
  -24.8860  -32.2978   26.4666 H   0  0  0  0  0  0
  -25.7927  -30.9026   27.0211 H   0  0  0  0  0  0
  -26.3111  -29.6589   24.1395 H   0  0  0  0  0  0
  -27.3976  -29.7270   25.5052 H   0  0  0  0  0  0
  -27.9051  -30.4102   23.9817 H   0  0  0  0  0  0
  -27.2614  -33.3686   26.1957 H   0  0  0  0  0  0
  -28.3919  -32.6843   25.0373 H   0  0  0  0  0  0
  -28.0646  -31.8552   26.5514 H   0  0  0  0  0  0
  -28.2569  -38.0076   24.7513 H   0  0  0  0  0  0
  -28.1084  -36.2602   24.6293 H   0  0  0  0  0  0
  -27.2286  -37.1405   25.8868 H   0  0  0  0  0  0
  -20.9573  -29.8728   21.6675 H   0  0  0  0  0  0
  -26.0130  -38.2768   24.1417 H   0  0  0  0  0  0
  -31.0445  -20.9032   19.3889 H   0  0  0  0  0  0
  -27.6047  -18.2655   21.4104 H   0  0  0  0  0  0
  -30.0369  -23.1475   20.1803 H   0  0  0  0  0  0
  -29.1286  -22.9636   21.6167 H   0  0  0  0  0  0
  -27.0573  -24.0595   20.4772 H   0  0  0  0  0  0
  -27.9090  -24.1654   18.9857 H   0  0  0  0  0  0
  -28.6710  -16.0836   20.8177 H   0  0  0  0  0  0
  1 25  1  0  0  0
  1 30  2  0  0  0
  1 79  1  0  0  0
  2  3  1  0  0  0
  2 25  1  0  0  0
  2 80  1  0  0  0
  2 81  1  0  0  0
  3  4  1  0  0  0
  3 82  1  0  0  0
  3 83  1  0  0  0
  4  5  1  0  0  0
  4 84  1  0  0  0
  4 85  1  0  0  0
  5  6  1  0  0  0
  5 26  1  0  0  0
  5 86  1  0  0  0
  6 25  1  0  0  0
  6 87  1  0  0  0
  6 88  1  0  0  0
  7  8  2  0  0  0
  7 26  1  0  0  0
  7 29  1  0  0  0
  8  9  1  0  0  0
  8 22  1  0  0  0
  9 10  1  0  0  0
  9 27  2  0  0  0
 10 11  2  0  0  0
 10 15  1  0  0  0
 11 12  1  0  0  0
 11 89  1  0  0  0
 12 13  2  0  0  0
 12 90  1  0  0  0
 13 14  1  0  0  0
 13 31  1  0  0  0
 14 15  2  0  0  0
 14 91  1  0  0  0
 15 92  1  0  0  0
 16 17  2  0  0  0
 16 21  1  0  0  0
 16 31  1  0  0  0
 17 18  1  0  0  0
 17 93  1  0  0  0
 18 19  2  0  0  0
 18 94  1  0  0  0
 19 20  1  0  0  0
 19 24  1  0  0  0
 20 21  2  0  0  0
 20 95  1  0  0  0
 21 23  1  0  0  0
 22 28  1  0  0  0
 22 32  2  0  0  0
 26 27  1  0  0  0
 28 96  1  0  0  0
 28 97  1  0  0  0
 29 98  1  0  0  0
 29 99  1  0  0  0
 33 34  1  0  0  0
 33 66  1  0  0  0
 33 70  2  0  0  0
 34 36  1  0  0  0
 34 59  1  0  0  0
 34100  1  0  0  0
 35 44  2  0  0  0
 35 45  1  0  0  0
 35 68  1  0  0  0
 36 56  1  0  0  0
 36101  1  0  0  0
 37 39  1  0  0  0
 37 47  1  0  0  0
 37 66  1  0  0  0
 37102  1  0  0  0
 38 43  2  0  0  0
 38 46  1  0  0  0
 38 47  1  0  0  0
 39 64  1  0  0  0
 39 67  2  0  0  0
 40 52  1  0  0  0
 40 53  2  0  0  0
 40 58  1  0  0  0
 41103  1  0  0  0
 41104  1  0  0  0
 41105  1  0  0  0
 41 48  1  0  0  0
 42 43  1  0  0  0
 42 66  1  0  0  0
 42106  1  0  0  0
 42107  1  0  0  0
 43 44  1  0  0  0
 44108  1  0  0  0
 45 46  2  0  0  0
 45109  1  0  0  0
 46110  1  0  0  0
 47111  1  0  0  0
 47112  1  0  0  0
 48 56  1  0  0  0
 48 65  1  0  0  0
 48113  1  0  0  0
 49 50  1  0  0  0
 49 53  1  0  0  0
 49 64  1  0  0  0
 49114  1  0  0  0
 50 51  1  0  0  0
 50115  1  0  0  0
 50116  1  0  0  0
 51 52  1  0  0  0
 51117  1  0  0  0
 51118  1  0  0  0
 52119  1  0  0  0
 52120  1  0  0  0
 53 54  1  0  0  0
 54 55  2  0  0  0
 54121  1  0  0  0
 55 57  1  0  0  0
 55122  1  0  0  0
 56 69  2  0  0  0
 57 58  2  0  0  0
 57123  1  0  0  0
 58124  1  0  0  0
 59 60  1  0  0  0
 59 61  1  0  0  0
 59 62  1  0  0  0
 60125  1  0  0  0
 60126  1  0  0  0
 60127  1  0  0  0
 61128  1  0  0  0
 61129  1  0  0  0
 61130  1  0  0  0
 62131  1  0  0  0
 62132  1  0  0  0
 62133  1  0  0  0
 63 65  1  0  0  0
 63134  1  0  0  0
 63135  1  0  0  0
 63136  1  0  0  0
 64137  1  0  0  0
 65138  1  0  0  0
 68 76  1  0  0  0
 71 73  2  0  0  0
 71 78  1  0  0  0
 71139  1  0  0  0
 72 74  1  0  0  0
 72 77  2  0  0  0
 72140  1  0  0  0
 73 75  1  0  0  0
 73 77  1  0  0  0
 74 78  2  0  0  0
 74 79  1  0  0  0
 75 76  1  0  0  0
 75141  1  0  0  0
 75142  1  0  0  0
 76143  1  0  0  0
 76144  1  0  0  0
 79145  1  0  0  0
M  ISO  4   1 100  68 101  76 101  79 100
M  END
> <chiral flag>
0

> <version>
0

> <s_m_source_file>
/data/baiqing/PycharmProjects/Reinvent-master-3.2/result/LINK_invent/BTK/process_docking_weight1_custom_sum_contain_oxygen_bond_distance_aromatic_linkinvent_7_9_3/rearranged_h_0192.sdf

> <i_m_source_file_index>
76

> <r_mmod_Potential_Energy-OPLS-2005>
1099.77917480469

> <r_mmod_Stretch_Energy-OPLS-2005>
492.672668457031

> <r_mmod_Bend_Energy-OPLS-2005>
421.544982910156

> <r_mmod_Torsional_Energy-OPLS-2005>
200.695877075195

> <r_mmod_Improper_Torsional_Energy-OPLS-2005>
5.68316268920898

> <r_mmod_Van_der_Waal_Energy-OPLS-2005>
130.611862182617

> <r_mmod_Electrostatic_Energy-OPLS-2005>
-319.384155273438

> <r_mmod_Solvation_Energy-OPLS-2005>
-241.363510131836

> <b_mmod_Minimization_Converged-OPLS-2005>
0

> <r_mmod_RMS_Derivative-OPLS-2005>
0.0565877817571163

$$$$
76
                    3D
 Structure written by MMmdl.
159168  0  0  1  0            999 V2000
  -30.6793  -14.5301   20.5681 C   0  0  0  0  0  0
  -30.4315  -12.3459   19.4225 C   0  0  0  0  0  0
  -29.4952  -12.5044   18.2059 C   0  0  0  0  0  0
  -28.0192  -12.3509   18.6245 C   0  0  0  0  0  0
  -27.6577  -13.2076   19.8670 C   0  0  2  0  0  0
  -28.7024  -13.0147   20.9883 C   0  0  0  0  0  0
  -25.2581  -13.8158   20.5672 C   0  0  0  0  0  0
  -24.1836  -13.0435   20.9179 C   0  0  0  0  0  0
  -24.6390  -11.6902   20.8733 C   0  0  0  0  0  0
  -23.9058  -10.4287   21.0405 C   0  0  0  0  0  0
  -24.3611   -9.4202   21.9186 C   0  0  0  0  0  0
  -23.6287   -8.2238   22.0756 C   0  0  0  0  0  0
  -22.4269   -8.0276   21.3545 C   0  0  0  0  0  0
  -21.9904   -9.0250   20.4649 C   0  0  0  0  0  0
  -22.7232  -10.2130   20.3056 C   0  0  0  0  0  0
  -21.6854   -6.0732   22.5282 C   0  0  0  0  0  0
  -21.4011   -6.5636   23.8212 C   0  0  0  0  0  0
  -21.3657   -5.6792   24.9176 C   0  0  0  0  0  0
  -21.6044   -4.3058   24.7231 C   0  0  0  0  0  0
  -21.8818   -3.8145   23.4353 C   0  0  0  0  0  0
  -21.9190   -4.6957   22.3408 C   0  0  0  0  0  0
  -22.7860  -13.5234   21.1849 C   0  0  0  0  0  0
  -22.1661   -4.2143   21.0986 F   0  0  0  0  0  0
  -21.5629   -3.4543   25.7746 F   0  0  0  0  0  0
  -30.0243  -13.3417   20.4285 N   0  0  0  0  0  0
  -26.3009  -12.9326   20.3337 N   0  0  0  0  0  0
  -25.9315  -11.6486   20.5762 N   0  0  0  0  0  0
  -22.0502  -12.8224   22.0405 N   0  0  0  0  0  0
  -25.4313  -15.1877   20.4079 N   0  0  0  0  0  0
  -31.8205  -14.7117   20.1347 O   0  0  0  0  0  0
  -21.6637   -6.8871   21.4241 O   0  0  0  0  0  0
  -22.3542  -14.5542   20.6702 O   0  0  0  0  0  0
  -24.6214  -31.8646   23.2078 C   0  0  0  0  0  0
  -25.9086  -32.4802   23.8388 C   0  0  1  0  0  0
  -27.2263  -27.3750   20.0984 C   0  0  0  0  0  0
  -25.5924  -33.8600   24.2315 N   0  0  0  0  0  0
  -23.4111  -30.4913   21.5503 C   0  0  2  0  0  0
  -24.8556  -28.9564   20.1127 C   0  0  0  0  0  0
  -22.7442  -29.4651   22.4965 C   0  0  0  0  0  0
  -18.0280  -28.1381   22.8484 C   0  0  0  0  0  0
  -24.1491  -36.7301   23.2639 C   0  0  0  0  0  0
  -25.9485  -30.8123   21.3708 C   0  0  0  0  0  0
  -26.0231  -29.4452   20.7113 C   0  0  0  0  0  0
  -27.2112  -28.6653   20.6974 C   0  0  0  0  0  0
  -26.0316  -26.9245   19.4857 C   0  0  0  0  0  0
  -24.8587  -27.6985   19.4944 C   0  0  0  0  0  0
  -23.6212  -29.8295   20.1642 C   0  0  0  0  0  0
  -25.4112  -36.3098   24.0337 C   0  0  1  0  0  0
  -20.5875  -28.3680   23.1293 C   0  0  2  0  0  0
  -20.6772  -26.9408   22.5410 C   0  0  0  0  0  0
  -19.5748  -26.6382   21.5210 C   0  0  0  0  0  0
  -18.1924  -26.7926   22.1614 C   0  0  0  0  0  0
  -19.1531  -28.8844   23.2887 C   0  0  0  0  0  0
  -18.9458  -30.1445   23.8907 C   0  0  0  0  0  0
  -17.6460  -30.6585   24.0561 C   0  0  0  0  0  0
  -25.9044  -34.9461   23.5122 C   0  0  0  0  0  0
  -16.5350  -29.9082   23.6328 C   0  0  0  0  0  0
  -16.7268  -28.6498   23.0352 C   0  0  0  0  0  0
  -26.4499  -31.6590   25.0731 C   0  0  0  0  0  0
  -25.3751  -31.3701   26.1472 C   0  0  0  0  0  0
  -27.0340  -30.3024   24.6147 C   0  0  0  0  0  0
  -27.6082  -32.4311   25.7484 C   0  0  0  0  0  0
  -27.5584  -37.1802   24.8464 C   0  0  0  0  0  0
  -21.4167  -29.3040   22.3700 N   0  0  0  0  0  0
  -26.4293  -37.3787   23.9413 N   0  0  0  0  0  0
  -24.6793  -31.0709   22.1005 N   0  0  0  0  0  0
  -23.4193  -28.8181   23.3017 O   0  0  0  0  0  0
  -28.3706  -26.5773   20.1280 O   0  0  0  0  0  0
  -26.5599  -34.8919   22.4680 O   0  0  0  0  0  0
  -23.5391  -32.1429   23.7434 O   0  0  0  0  0  0
  -30.1810  -19.4045   20.6607 C   0  0  0  0  0  0
  -29.2109  -18.4842   18.2343 C   0  0  0  0  0  0
  -29.8852  -20.3481   19.6433 C   0  0  0  0  0  0
  -29.4300  -19.8585   18.4260 C   0  0  0  0  0  0
  -29.9843  -18.0163   20.3852 C   0  0  0  0  0  0
  -29.3593  -20.9368   17.3809 C   0  0  0  0  0  0
  -30.1634  -22.0910   18.0227 C   0  0  0  0  0  0
  -30.1598  -21.8658   19.5630 C   0  0  1  0  0  0
  -30.3990  -16.9232   21.3931 C   0  0  0  0  0  0
  -29.4233  -24.2243   20.2370 C   0  0  0  0  0  0
  -28.1750  -25.1349   20.0019 C   0  0  0  0  0  0
  -29.4786  -17.5813   19.2040 N   0  0  0  0  0  0
  -29.9622  -15.5348   21.1123 N   0  0  0  0  0  0
  -29.1256  -22.7419   20.1933 N   0  3  0  0  0  0
  -31.4723  -12.4647   19.1157 H   0  0  0  0  0  0
  -30.3566  -11.3401   19.8380 H   0  0  0  0  0  0
  -29.7435  -11.7671   17.4413 H   0  0  0  0  0  0
  -29.6459  -13.4834   17.7480 H   0  0  0  0  0  0
  -27.8466  -11.2958   18.8418 H   0  0  0  0  0  0
  -27.3618  -12.5984   17.7902 H   0  0  0  0  0  0
  -27.6937  -14.2505   19.5508 H   0  0  0  0  0  0
  -28.6967  -11.9809   21.3372 H   0  0  0  0  0  0
  -28.4559  -13.6184   21.8628 H   0  0  0  0  0  0
  -25.2757   -9.5679   22.4760 H   0  0  0  0  0  0
  -23.9997   -7.4630   22.7472 H   0  0  0  0  0  0
  -21.0837   -8.8765   19.8958 H   0  0  0  0  0  0
  -22.3689  -10.9666   19.6164 H   0  0  0  0  0  0
  -21.2002   -7.6145   23.9713 H   0  0  0  0  0  0
  -21.1482   -6.0527   25.9078 H   0  0  0  0  0  0
  -22.0600   -2.7606   23.2861 H   0  0  0  0  0  0
  -22.4117  -11.9879   22.4788 H   0  0  0  0  0  0
  -21.1121  -13.1245   22.2617 H   0  0  0  0  0  0
  -24.6664  -15.8448   20.5137 H   0  0  0  0  0  0
  -26.2827  -15.6235   20.0757 H   0  0  0  0  0  0
  -26.7157  -32.5497   23.1145 H   0  0  0  0  0  0
  -25.0098  -33.9757   25.0477 H   0  0  0  0  0  0
  -22.7024  -31.3106   21.4112 H   0  0  0  0  0  0
  -23.3753  -35.9632   23.3298 H   0  0  0  0  0  0
  -24.3587  -36.8927   22.2054 H   0  0  0  0  0  0
  -23.7244  -37.6505   23.6654 H   0  0  0  0  0  0
  -26.0737  -31.5780   20.6041 H   0  0  0  0  0  0
  -26.8310  -30.8582   21.9972 H   0  0  0  0  0  0
  -28.1088  -29.0377   21.1712 H   0  0  0  0  0  0
  -25.9643  -25.9687   18.9909 H   0  0  0  0  0  0
  -23.9633  -27.3179   19.0231 H   0  0  0  0  0  0
  -23.7342  -30.6073   19.4084 H   0  0  0  0  0  0
  -22.7422  -29.2564   19.8641 H   0  0  0  0  0  0
  -25.1286  -36.1962   25.0832 H   0  0  0  0  0  0
  -20.9969  -28.3258   24.1412 H   0  0  0  0  0  0
  -20.5682  -26.2289   23.3607 H   0  0  0  0  0  0
  -21.6641  -26.7449   22.1196 H   0  0  0  0  0  0
  -19.6919  -25.6295   21.1229 H   0  0  0  0  0  0
  -19.6692  -27.3199   20.6744 H   0  0  0  0  0  0
  -17.4198  -26.6677   21.4012 H   0  0  0  0  0  0
  -18.0323  -26.0062   22.9006 H   0  0  0  0  0  0
  -19.7936  -30.7252   24.2288 H   0  0  0  0  0  0
  -17.5014  -31.6269   24.5157 H   0  0  0  0  0  0
  -15.5349  -30.2985   23.7656 H   0  0  0  0  0  0
  -15.8666  -28.0820   22.7072 H   0  0  0  0  0  0
  -24.5935  -30.7042   25.7803 H   0  0  0  0  0  0
  -24.8928  -32.2851   26.4919 H   0  0  0  0  0  0
  -25.8094  -30.8872   27.0233 H   0  0  0  0  0  0
  -26.2897  -29.6763   24.1212 H   0  0  0  0  0  0
  -27.4111  -29.7292   25.4626 H   0  0  0  0  0  0
  -27.8730  -30.4329   23.9309 H   0  0  0  0  0  0
  -27.2721  -33.3611   26.2076 H   0  0  0  0  0  0
  -28.3875  -32.6873   25.0293 H   0  0  0  0  0  0
  -28.0763  -31.8423   26.5385 H   0  0  0  0  0  0
  -28.2598  -38.0101   24.7518 H   0  0  0  0  0  0
  -28.1086  -36.2638   24.6275 H   0  0  0  0  0  0
  -27.2298  -37.1434   25.8864 H   0  0  0  0  0  0
  -20.9340  -29.8775   21.6923 H   0  0  0  0  0  0
  -26.0184  -38.2866   24.1414 H   0  0  0  0  0  0
  -30.6098  -19.7211   21.6027 H   0  0  0  0  0  0
  -28.8735  -18.0980   17.2835 H   0  0  0  0  0  0
  -28.3181  -21.2181   17.2159 H   0  0  0  0  0  0
  -29.7850  -20.6149   16.4298 H   0  0  0  0  0  0
  -29.8380  -23.0763   17.6893 H   0  0  0  0  0  0
  -31.1963  -21.9865   17.6882 H   0  0  0  0  0  0
  -31.1372  -22.0855   19.9959 H   0  0  0  0  0  0
  -29.9889  -17.2004   22.3644 H   0  0  0  0  0  0
  -31.4831  -16.9562   21.5101 H   0  0  0  0  0  0
  -29.8683  -24.4551   21.2054 H   0  0  0  0  0  0
  -30.1770  -24.4837   19.4940 H   0  0  0  0  0  0
  -27.3939  -24.8294   20.7003 H   0  0  0  0  0  0
  -27.8150  -24.9166   18.9964 H   0  0  0  0  0  0
  -29.0096  -15.3199   21.3586 H   0  0  0  0  0  0
  -28.9809  -22.4091   21.1337 H   0  0  0  0  0  0
  -28.2667  -22.5754   19.6946 H   0  0  0  0  0  0
  1 25  1  0  0  0
  1 30  2  0  0  0
  1 83  1  0  0  0
  2  3  1  0  0  0
  2 25  1  0  0  0
  2 85  1  0  0  0
  2 86  1  0  0  0
  3  4  1  0  0  0
  3 87  1  0  0  0
  3 88  1  0  0  0
  4  5  1  0  0  0
  4 89  1  0  0  0
  4 90  1  0  0  0
  5  6  1  0  0  0
  5 26  1  0  0  0
  5 91  1  0  0  0
  6 25  1  0  0  0
  6 92  1  0  0  0
  6 93  1  0  0  0
  7  8  2  0  0  0
  7 26  1  0  0  0
  7 29  1  0  0  0
  8  9  1  0  0  0
  8 22  1  0  0  0
  9 10  1  0  0  0
  9 27  2  0  0  0
 10 11  2  0  0  0
 10 15  1  0  0  0
 11 12  1  0  0  0
 11 94  1  0  0  0
 12 13  2  0  0  0
 12 95  1  0  0  0
 13 14  1  0  0  0
 13 31  1  0  0  0
 14 15  2  0  0  0
 14 96  1  0  0  0
 15 97  1  0  0  0
 16 17  2  0  0  0
 16 21  1  0  0  0
 16 31  1  0  0  0
 17 18  1  0  0  0
 17 98  1  0  0  0
 18 19  2  0  0  0
 18 99  1  0  0  0
 19 20  1  0  0  0
 19 24  1  0  0  0
 20 21  2  0  0  0
 20100  1  0  0  0
 21 23  1  0  0  0
 22 28  1  0  0  0
 22 32  2  0  0  0
 26 27  1  0  0  0
 28101  1  0  0  0
 28102  1  0  0  0
 29103  1  0  0  0
 29104  1  0  0  0
 33 34  1  0  0  0
 33 66  1  0  0  0
 33 70  2  0  0  0
 34 36  1  0  0  0
 34 59  1  0  0  0
 34105  1  0  0  0
 35 44  2  0  0  0
 35 45  1  0  0  0
 35 68  1  0  0  0
 36 56  1  0  0  0
 36106  1  0  0  0
 37 39  1  0  0  0
 37 47  1  0  0  0
 37 66  1  0  0  0
 37107  1  0  0  0
 38 43  2  0  0  0
 38 46  1  0  0  0
 38 47  1  0  0  0
 39 64  1  0  0  0
 39 67  2  0  0  0
 40 52  1  0  0  0
 40 53  2  0  0  0
 40 58  1  0  0  0
 41108  1  0  0  0
 41109  1  0  0  0
 41110  1  0  0  0
 41 48  1  0  0  0
 42 43  1  0  0  0
 42 66  1  0  0  0
 42111  1  0  0  0
 42112  1  0  0  0
 43 44  1  0  0  0
 44113  1  0  0  0
 45 46  2  0  0  0
 45114  1  0  0  0
 46115  1  0  0  0
 47116  1  0  0  0
 47117  1  0  0  0
 48 56  1  0  0  0
 48 65  1  0  0  0
 48118  1  0  0  0
 49 50  1  0  0  0
 49 53  1  0  0  0
 49 64  1  0  0  0
 49119  1  0  0  0
 50 51  1  0  0  0
 50120  1  0  0  0
 50121  1  0  0  0
 51 52  1  0  0  0
 51122  1  0  0  0
 51123  1  0  0  0
 52124  1  0  0  0
 52125  1  0  0  0
 53 54  1  0  0  0
 54 55  2  0  0  0
 54126  1  0  0  0
 55 57  1  0  0  0
 55127  1  0  0  0
 56 69  2  0  0  0
 57 58  2  0  0  0
 57128  1  0  0  0
 58129  1  0  0  0
 59 60  1  0  0  0
 59 61  1  0  0  0
 59 62  1  0  0  0
 60130  1  0  0  0
 60131  1  0  0  0
 60132  1  0  0  0
 61133  1  0  0  0
 61134  1  0  0  0
 61135  1  0  0  0
 62136  1  0  0  0
 62137  1  0  0  0
 62138  1  0  0  0
 63 65  1  0  0  0
 63139  1  0  0  0
 63140  1  0  0  0
 63141  1  0  0  0
 64142  1  0  0  0
 65143  1  0  0  0
 68 81  1  0  0  0
 71 73  2  0  0  0
 71 75  1  0  0  0
 71144  1  0  0  0
 72 74  2  0  0  0
 72 82  1  0  0  0
 72145  1  0  0  0
 73 74  1  0  0  0
 73 78  1  0  0  0
 74 76  1  0  0  0
 75 79  1  0  0  0
 75 82  2  0  0  0
 76 77  1  0  0  0
 76146  1  0  0  0
 76147  1  0  0  0
 77 78  1  0  0  0
 77148  1  0  0  0
 77149  1  0  0  0
 78 84  1  0  0  0
 78150  1  0  0  0
 79 83  1  0  0  0
 79151  1  0  0  0
 79152  1  0  0  0
 80 81  1  0  0  0
 80 84  1  0  0  0
 80153  1  0  0  0
 80154  1  0  0  0
 81155  1  0  0  0
 81156  1  0  0  0
 83157  1  0  0  0
 84158  1  0  0  0
 84159  1  0  0  0
M  CHG  1  84   1
M  ISO  4   1 100  68 101  81 101  83 100
M  END
> <chiral flag>
0

> <version>
0

> <s_m_source_file>
/data/baiqing/PycharmProjects/Reinvent-master-3.2/result/LINK_invent/BTK/process_docking_weight1_custom_sum_contain_oxygen_bond_distance_aromatic_linkinvent_7_9_3/rearranged_h_0192.sdf

> <i_m_source_file_index>
77

> <r_mmod_Potential_Energy-OPLS-2005>
-487.501770019531

> <r_mmod_Stretch_Energy-OPLS-2005>
51.3733367919922

> <r_mmod_Bend_Energy-OPLS-2005>
153.404220581055

> <r_mmod_Torsional_Energy-OPLS-2005>
209.84114074707

> <r_mmod_Improper_Torsional_Energy-OPLS-2005>
3.91031765937805

> <r_mmod_Van_der_Waal_Energy-OPLS-2005>
150.367980957031

> <r_mmod_Electrostatic_Energy-OPLS-2005>
-589.254455566406

> <r_mmod_Solvation_Energy-OPLS-2005>
-490.880279541016

> <b_mmod_Minimization_Converged-OPLS-2005>
0

> <r_mmod_RMS_Derivative-OPLS-2005>
0.908577740192413

$$$$
77
                    3D
 Structure written by MMmdl.
155164  0  0  1  0            999 V2000
  -30.6175  -14.7778   20.4837 C   0  0  0  0  0  0
  -30.4344  -12.4880   19.4679 C   0  0  0  0  0  0
  -29.5056  -12.5137   18.2334 C   0  0  0  0  0  0
  -28.0338  -12.3248   18.6515 C   0  0  0  0  0  0
  -27.6396  -13.2229   19.8529 C   0  0  2  0  0  0
  -28.6900  -13.1329   20.9815 C   0  0  0  0  0  0
  -25.2456  -13.8150   20.5639 C   0  0  0  0  0  0
  -24.1773  -13.0404   20.9208 C   0  0  0  0  0  0
  -24.6375  -11.6890   20.8766 C   0  0  0  0  0  0
  -23.9056  -10.4274   21.0419 C   0  0  0  0  0  0
  -24.3610   -9.4193   21.9197 C   0  0  0  0  0  0
  -23.6288   -8.2228   22.0756 C   0  0  0  0  0  0
  -22.4270   -8.0268   21.3546 C   0  0  0  0  0  0
  -21.9909   -9.0240   20.4645 C   0  0  0  0  0  0
  -22.7233  -10.2121   20.3060 C   0  0  0  0  0  0
  -21.6851   -6.0733   22.5279 C   0  0  0  0  0  0
  -21.4011   -6.5638   23.8213 C   0  0  0  0  0  0
  -21.3659   -5.6791   24.9175 C   0  0  0  0  0  0
  -21.6045   -4.3054   24.7225 C   0  0  0  0  0  0
  -21.8819   -3.8145   23.4346 C   0  0  0  0  0  0
  -21.9193   -4.6962   22.3402 C   0  0  0  0  0  0
  -22.7800  -13.5198   21.1869 C   0  0  0  0  0  0
  -22.1665   -4.2149   21.0980 F   0  0  0  0  0  0
  -21.5630   -3.4535   25.7738 F   0  0  0  0  0  0
  -29.9744  -13.5507   20.4005 N   0  0  0  0  0  0
  -26.2912  -12.9362   20.3298 N   0  0  0  0  0  0
  -25.9306  -11.6511   20.5784 N   0  0  0  0  0  0
  -22.0457  -12.8191   22.0433 N   0  0  0  0  0  0
  -25.4020  -15.1863   20.3928 N   0  0  0  0  0  0
  -31.8009  -14.8345   20.1301 O   0  0  0  0  0  0
  -21.6634   -6.8869   21.4239 O   0  0  0  0  0  0
  -22.3484  -14.5508   20.6720 O   0  0  0  0  0  0
  -24.6292  -31.8545   23.1948 C   0  0  0  0  0  0
  -25.9112  -32.4752   23.8306 C   0  0  1  0  0  0
  -27.2297  -27.2670   20.1378 C   0  0  0  0  0  0
  -25.5905  -33.8557   24.2245 N   0  0  0  0  0  0
  -23.4273  -30.4729   21.5384 C   0  0  2  0  0  0
  -24.8768  -28.9109   20.1171 C   0  0  0  0  0  0
  -22.7488  -29.4598   22.4906 C   0  0  0  0  0  0
  -18.0292  -28.1402   22.8495 C   0  0  0  0  0  0
  -24.1486  -36.7278   23.2634 C   0  0  0  0  0  0
  -25.9696  -30.7719   21.3697 C   0  0  0  0  0  0
  -26.0474  -29.3908   20.7187 C   0  0  0  0  0  0
  -27.2291  -28.5838   20.7109 C   0  0  0  0  0  0
  -26.0349  -26.8433   19.5197 C   0  0  0  0  0  0
  -24.8743  -27.6453   19.5072 C   0  0  0  0  0  0
  -23.6476  -29.7991   20.1576 C   0  0  0  0  0  0
  -25.4116  -36.3066   24.0324 C   0  0  1  0  0  0
  -20.5897  -28.3699   23.1284 C   0  0  2  0  0  0
  -20.6794  -26.9420   22.5418 C   0  0  0  0  0  0
  -19.5771  -26.6393   21.5223 C   0  0  0  0  0  0
  -18.1944  -26.7954   22.1626 C   0  0  0  0  0  0
  -19.1547  -28.8872   23.2888 C   0  0  0  0  0  0
  -18.9472  -30.1481   23.8893 C   0  0  0  0  0  0
  -17.6467  -30.6604   24.0578 C   0  0  0  0  0  0
  -25.9051  -34.9439   23.5092 C   0  0  0  0  0  0
  -16.5356  -29.9104   23.6337 C   0  0  0  0  0  0
  -16.7280  -28.6528   23.0346 C   0  0  0  0  0  0
  -26.4490  -31.6568   25.0682 C   0  0  0  0  0  0
  -25.3709  -31.3739   26.1395 C   0  0  0  0  0  0
  -27.0325  -30.2984   24.6147 C   0  0  0  0  0  0
  -27.6046  -32.4299   25.7464 C   0  0  0  0  0  0
  -27.5589  -37.1794   24.8467 C   0  0  0  0  0  0
  -21.4196  -29.3043   22.3665 N   0  0  0  0  0  0
  -26.4289  -37.3767   23.9412 N   0  0  0  0  0  0
  -24.6950  -31.0509   22.0919 N   0  0  0  0  0  0
  -23.4188  -28.8147   23.3013 O   0  0  0  0  0  0
  -28.3488  -26.4079   20.1281 O   0  0  0  0  0  0
  -26.5625  -34.8920   22.4664 O   0  0  0  0  0  0
  -23.5447  -32.1353   23.7254 O   0  0  0  0  0  0
  -30.2215  -20.7456   21.3224 C   0  0  0  0  0  0
  -30.0400  -22.1053   21.1660 C   0  0  0  0  0  0
  -28.6451  -21.0459   19.8169 C   0  0  0  0  0  0
  -29.3356  -20.0138   20.4698 C   0  0  0  0  0  0
  -28.5328  -17.7860   21.6234 C   0  0  0  0  0  0
  -28.7586  -16.2514   21.5108 C   0  0  0  0  0  0
  -30.3358  -17.3714   20.1737 C   0  0  0  0  0  0
  -29.1508  -18.4200   20.3801 C   0  0  2  0  0  0
  -28.6458  -23.7232   19.6593 C   0  0  0  0  0  0
  -28.2361  -24.9799   20.5975 C   0  0  0  0  0  0
  -29.0496  -22.3505   20.2264 N   0  0  0  0  0  0
  -29.9004  -15.9827   20.6212 N   0  0  0  0  0  0
  -31.4696  -12.6248   19.1520 H   0  0  0  0  0  0
  -30.4061  -11.5101   19.9517 H   0  0  0  0  0  0
  -29.7950  -11.7354   17.5256 H   0  0  0  0  0  0
  -29.6182  -13.4630   17.7078 H   0  0  0  0  0  0
  -27.9016  -11.2756   18.9195 H   0  0  0  0  0  0
  -27.3705  -12.5072   17.8051 H   0  0  0  0  0  0
  -27.6364  -14.2431   19.4707 H   0  0  0  0  0  0
  -28.7532  -12.1104   21.3570 H   0  0  0  0  0  0
  -28.4102  -13.7257   21.8479 H   0  0  0  0  0  0
  -25.2751   -9.5676   22.4777 H   0  0  0  0  0  0
  -24.0001   -7.4617   22.7470 H   0  0  0  0  0  0
  -21.0847   -8.8751   19.8947 H   0  0  0  0  0  0
  -22.3689  -10.9660   19.6170 H   0  0  0  0  0  0
  -21.1997   -7.6144   23.9715 H   0  0  0  0  0  0
  -21.1487   -6.0521   25.9079 H   0  0  0  0  0  0
  -22.0599   -2.7607   23.2842 H   0  0  0  0  0  0
  -22.4077  -11.9852   22.4812 H   0  0  0  0  0  0
  -21.1079  -13.1212   22.2652 H   0  0  0  0  0  0
  -24.6241  -15.8290   20.4926 H   0  0  0  0  0  0
  -26.2396  -15.6304   20.0406 H   0  0  0  0  0  0
  -26.7172  -32.5415   23.1047 H   0  0  0  0  0  0
  -25.0064  -33.9700   25.0398 H   0  0  0  0  0  0
  -22.7253  -31.2955   21.3883 H   0  0  0  0  0  0
  -23.3754  -35.9601   23.3284 H   0  0  0  0  0  0
  -24.3586  -36.8909   22.2050 H   0  0  0  0  0  0
  -23.7232  -37.6472   23.6668 H   0  0  0  0  0  0
  -26.0995  -31.5303   20.5964 H   0  0  0  0  0  0
  -26.8498  -30.8290   21.9989 H   0  0  0  0  0  0
  -28.1310  -28.9540   21.1783 H   0  0  0  0  0  0
  -25.9961  -25.8716   19.0478 H   0  0  0  0  0  0
  -23.9748  -27.2746   19.0344 H   0  0  0  0  0  0
  -23.7766  -30.5714   19.3980 H   0  0  0  0  0  0
  -22.7671  -29.2311   19.8518 H   0  0  0  0  0  0
  -25.1304  -36.1906   25.0815 H   0  0  0  0  0  0
  -21.0000  -28.3275   24.1403 H   0  0  0  0  0  0
  -20.5708  -26.2302   23.3615 H   0  0  0  0  0  0
  -21.6663  -26.7471   22.1200 H   0  0  0  0  0  0
  -19.6927  -25.6298   21.1263 H   0  0  0  0  0  0
  -19.6714  -27.3205   20.6752 H   0  0  0  0  0  0
  -17.4222  -26.6704   21.4013 H   0  0  0  0  0  0
  -18.0337  -26.0103   22.9030 H   0  0  0  0  0  0
  -19.7945  -30.7324   24.2230 H   0  0  0  0  0  0
  -17.5021  -31.6275   24.5199 H   0  0  0  0  0  0
  -15.5360  -30.3017   23.7664 H   0  0  0  0  0  0
  -15.8684  -28.0866   22.7030 H   0  0  0  0  0  0
  -24.5911  -30.7054   25.7742 H   0  0  0  0  0  0
  -24.8867  -32.2918   26.4736 H   0  0  0  0  0  0
  -25.8018  -30.8991   27.0217 H   0  0  0  0  0  0
  -26.2898  -29.6739   24.1169 H   0  0  0  0  0  0
  -27.4018  -29.7232   25.4646 H   0  0  0  0  0  0
  -27.8770  -30.4259   23.9373 H   0  0  0  0  0  0
  -27.2659  -33.3622   26.1991 H   0  0  0  0  0  0
  -28.3886  -32.6804   25.0309 H   0  0  0  0  0  0
  -28.0661  -31.8435   26.5415 H   0  0  0  0  0  0
  -28.2594  -38.0104   24.7534 H   0  0  0  0  0  0
  -28.1098  -36.2641   24.6270 H   0  0  0  0  0  0
  -27.2317  -37.1417   25.8871 H   0  0  0  0  0  0
  -20.9367  -29.8743   21.6861 H   0  0  0  0  0  0
  -26.0167  -38.2833   24.1425 H   0  0  0  0  0  0
  -30.9381  -20.3103   22.0066 H   0  0  0  0  0  0
  -30.5546  -22.9330   21.6375 H   0  0  0  0  0  0
  -27.8720  -20.9651   19.0632 H   0  0  0  0  0  0
  -29.0542  -18.1558   22.5079 H   0  0  0  0  0  0
  -27.4799  -18.0441   21.7413 H   0  0  0  0  0  0
  -27.8655  -15.8012   21.0920 H   0  0  0  0  0  0
  -28.9213  -15.8192   22.4990 H   0  0  0  0  0  0
  -31.1928  -17.6607   20.7838 H   0  0  0  0  0  0
  -30.6757  -17.3598   19.1379 H   0  0  0  0  0  0
  -28.4524  -18.2596   19.5570 H   0  0  0  0  0  0
  -29.4927  -24.0484   19.0559 H   0  0  0  0  0  0
  -27.8423  -23.5611   18.9408 H   0  0  0  0  0  0
  -28.8770  -24.9346   21.4779 H   0  0  0  0  0  0
  -27.2329  -24.8069   20.9882 H   0  0  0  0  0  0
  1 25  1  0  0  0
  1 30  2  0  0  0
  1 82  1  0  0  0
  2  3  1  0  0  0
  2 25  1  0  0  0
  2 83  1  0  0  0
  2 84  1  0  0  0
  3  4  1  0  0  0
  3 85  1  0  0  0
  3 86  1  0  0  0
  4  5  1  0  0  0
  4 87  1  0  0  0
  4 88  1  0  0  0
  5  6  1  0  0  0
  5 26  1  0  0  0
  5 89  1  0  0  0
  6 25  1  0  0  0
  6 90  1  0  0  0
  6 91  1  0  0  0
  7  8  2  0  0  0
  7 26  1  0  0  0
  7 29  1  0  0  0
  8  9  1  0  0  0
  8 22  1  0  0  0
  9 10  1  0  0  0
  9 27  2  0  0  0
 10 11  2  0  0  0
 10 15  1  0  0  0
 11 12  1  0  0  0
 11 92  1  0  0  0
 12 13  2  0  0  0
 12 93  1  0  0  0
 13 14  1  0  0  0
 13 31  1  0  0  0
 14 15  2  0  0  0
 14 94  1  0  0  0
 15 95  1  0  0  0
 16 17  2  0  0  0
 16 21  1  0  0  0
 16 31  1  0  0  0
 17 18  1  0  0  0
 17 96  1  0  0  0
 18 19  2  0  0  0
 18 97  1  0  0  0
 19 20  1  0  0  0
 19 24  1  0  0  0
 20 21  2  0  0  0
 20 98  1  0  0  0
 21 23  1  0  0  0
 22 28  1  0  0  0
 22 32  2  0  0  0
 26 27  1  0  0  0
 28 99  1  0  0  0
 28100  1  0  0  0
 29101  1  0  0  0
 29102  1  0  0  0
 33 34  1  0  0  0
 33 66  1  0  0  0
 33 70  2  0  0  0
 34 36  1  0  0  0
 34 59  1  0  0  0
 34103  1  0  0  0
 35 44  2  0  0  0
 35 45  1  0  0  0
 35 68  1  0  0  0
 36 56  1  0  0  0
 36104  1  0  0  0
 37 39  1  0  0  0
 37 47  1  0  0  0
 37 66  1  0  0  0
 37105  1  0  0  0
 38 43  2  0  0  0
 38 46  1  0  0  0
 38 47  1  0  0  0
 39 64  1  0  0  0
 39 67  2  0  0  0
 40 52  1  0  0  0
 40 53  2  0  0  0
 40 58  1  0  0  0
 41106  1  0  0  0
 41107  1  0  0  0
 41108  1  0  0  0
 41 48  1  0  0  0
 42 43  1  0  0  0
 42 66  1  0  0  0
 42109  1  0  0  0
 42110  1  0  0  0
 43 44  1  0  0  0
 44111  1  0  0  0
 45 46  2  0  0  0
 45112  1  0  0  0
 46113  1  0  0  0
 47114  1  0  0  0
 47115  1  0  0  0
 48 56  1  0  0  0
 48 65  1  0  0  0
 48116  1  0  0  0
 49 50  1  0  0  0
 49 53  1  0  0  0
 49 64  1  0  0  0
 49117  1  0  0  0
 50 51  1  0  0  0
 50118  1  0  0  0
 50119  1  0  0  0
 51 52  1  0  0  0
 51120  1  0  0  0
 51121  1  0  0  0
 52122  1  0  0  0
 52123  1  0  0  0
 53 54  1  0  0  0
 54 55  2  0  0  0
 54124  1  0  0  0
 55 57  1  0  0  0
 55125  1  0  0  0
 56 69  2  0  0  0
 57 58  2  0  0  0
 57126  1  0  0  0
 58127  1  0  0  0
 59 60  1  0  0  0
 59 61  1  0  0  0
 59 62  1  0  0  0
 60128  1  0  0  0
 60129  1  0  0  0
 60130  1  0  0  0
 61131  1  0  0  0
 61132  1  0  0  0
 61133  1  0  0  0
 62134  1  0  0  0
 62135  1  0  0  0
 62136  1  0  0  0
 63 65  1  0  0  0
 63137  1  0  0  0
 63138  1  0  0  0
 63139  1  0  0  0
 64140  1  0  0  0
 65141  1  0  0  0
 68 80  1  0  0  0
 71 72  2  0  0  0
 71 74  1  0  0  0
 71142  1  0  0  0
 72 81  1  0  0  0
 72143  1  0  0  0
 73 74  2  0  0  0
 73 81  1  0  0  0
 73144  1  0  0  0
 74 78  1  0  0  0
 75 76  1  0  0  0
 75 78  1  0  0  0
 75145  1  0  0  0
 75146  1  0  0  0
 76 82  1  0  0  0
 76147  1  0  0  0
 76148  1  0  0  0
 77 78  1  0  0  0
 77 82  1  0  0  0
 77149  1  0  0  0
 77150  1  0  0  0
 78151  1  0  0  0
 79 80  1  0  0  0
 79 81  1  0  0  0
 79152  1  0  0  0
 79153  1  0  0  0
 80154  1  0  0  0
 80155  1  0  0  0
M  ISO  4   1 100  68 101  80 101  82 100
M  END
> <chiral flag>
0

> <version>
0

> <s_m_source_file>
/data/baiqing/PycharmProjects/Reinvent-master-3.2/result/LINK_invent/BTK/process_docking_weight1_custom_sum_contain_oxygen_bond_distance_aromatic_linkinvent_7_9_3/rearranged_h_0192.sdf

> <i_m_source_file_index>
78

> <r_mmod_Potential_Energy-OPLS-2005>
375.249725341797

> <r_mmod_Stretch_Energy-OPLS-2005>
124.744003295898

> <r_mmod_Bend_Energy-OPLS-2005>
207.49494934082

> <r_mmod_Torsional_Energy-OPLS-2005>
332.364593505859

> <r_mmod_Improper_Torsional_Energy-OPLS-2005>
10.4017543792725

> <r_mmod_Van_der_Waal_Energy-OPLS-2005>
110.866416931152

> <r_mmod_Electrostatic_Energy-OPLS-2005>
-286.049682617188

> <r_mmod_Solvation_Energy-OPLS-2005>
-208.371215820312

> <b_mmod_Minimization_Converged-OPLS-2005>
0

> <r_mmod_RMS_Derivative-OPLS-2005>
1.52546608448029

$$$$
78
                    3D
 Structure written by MMmdl.
160169  0  0  1  0            999 V2000
  -30.6659  -14.4741   20.6193 C   0  0  0  0  0  0
  -30.4402  -12.3236   19.4071 C   0  0  0  0  0  0
  -29.4967  -12.5238   18.2011 C   0  0  0  0  0  0
  -28.0172  -12.3767   18.6132 C   0  0  0  0  0  0
  -27.6674  -13.1973   19.8820 C   0  0  2  0  0  0
  -28.7075  -12.9271   20.9915 C   0  0  0  0  0  0
  -25.2621  -13.8140   20.5680 C   0  0  0  0  0  0
  -24.1856  -13.0433   20.9172 C   0  0  0  0  0  0
  -24.6393  -11.6894   20.8729 C   0  0  0  0  0  0
  -23.9054  -10.4287   21.0403 C   0  0  0  0  0  0
  -24.3607   -9.4203   21.9184 C   0  0  0  0  0  0
  -23.6283   -8.2239   22.0757 C   0  0  0  0  0  0
  -22.4267   -8.0277   21.3545 C   0  0  0  0  0  0
  -21.9900   -9.0251   20.4647 C   0  0  0  0  0  0
  -22.7226  -10.2131   20.3054 C   0  0  0  0  0  0
  -21.6852   -6.0732   22.5281 C   0  0  0  0  0  0
  -21.4013   -6.5638   23.8214 C   0  0  0  0  0  0
  -21.3659   -5.6793   24.9178 C   0  0  0  0  0  0
  -21.6043   -4.3055   24.7228 C   0  0  0  0  0  0
  -21.8818   -3.8145   23.4351 C   0  0  0  0  0  0
  -21.9193   -4.6961   22.3407 C   0  0  0  0  0  0
  -22.7878  -13.5241   21.1837 C   0  0  0  0  0  0
  -22.1661   -4.2145   21.0984 F   0  0  0  0  0  0
  -21.5626   -3.4540   25.7741 F   0  0  0  0  0  0
  -30.0430  -13.2715   20.4598 N   0  0  0  0  0  0
  -26.3052  -12.9289   20.3384 N   0  0  0  0  0  0
  -25.9319  -11.6457   20.5762 N   0  0  0  0  0  0
  -22.0508  -12.8243   22.0391 N   0  0  0  0  0  0
  -25.4374  -15.1854   20.4096 N   0  0  0  0  0  0
  -31.7458  -14.7465   20.0798 O   0  0  0  0  0  0
  -21.6633   -6.8874   21.4242 O   0  0  0  0  0  0
  -22.3568  -14.5551   20.6686 O   0  0  0  0  0  0
  -24.6161  -31.8669   23.2090 C   0  0  0  0  0  0
  -25.9052  -32.4814   23.8390 C   0  0  1  0  0  0
  -27.2426  -27.4227   20.0830 C   0  0  0  0  0  0
  -25.5910  -33.8612   24.2326 N   0  0  0  0  0  0
  -23.4040  -30.4905   21.5500 C   0  0  2  0  0  0
  -24.8491  -28.9512   20.1175 C   0  0  0  0  0  0
  -22.7413  -29.4656   22.4988 C   0  0  0  0  0  0
  -18.0270  -28.1380   22.8494 C   0  0  0  0  0  0
  -24.1490  -36.7311   23.2638 C   0  0  0  0  0  0
  -25.9345  -30.8266   21.3641 C   0  0  0  0  0  0
  -26.0100  -29.4593   20.7114 C   0  0  0  0  0  0
  -27.2040  -28.7009   20.6929 C   0  0  0  0  0  0
  -26.0504  -26.9204   19.5089 C   0  0  0  0  0  0
  -24.8640  -27.6798   19.5189 C   0  0  0  0  0  0
  -23.6128  -29.8216   20.1653 C   0  0  0  0  0  0
  -25.4109  -36.3107   24.0339 C   0  0  1  0  0  0
  -20.5861  -28.3668   23.1320 C   0  0  2  0  0  0
  -20.6762  -26.9405   22.5418 C   0  0  0  0  0  0
  -19.5741  -26.6387   21.5213 C   0  0  0  0  0  0
  -18.1917  -26.7929   22.1622 C   0  0  0  0  0  0
  -19.1519  -28.8839   23.2906 C   0  0  0  0  0  0
  -18.9446  -30.1444   23.8915 C   0  0  0  0  0  0
  -17.6449  -30.6591   24.0559 C   0  0  0  0  0  0
  -25.9037  -34.9472   23.5129 C   0  0  0  0  0  0
  -16.5340  -29.9092   23.6325 C   0  0  0  0  0  0
  -16.7258  -28.6506   23.0353 C   0  0  0  0  0  0
  -26.4475  -31.6595   25.0722 C   0  0  0  0  0  0
  -25.3743  -31.3694   26.1472 C   0  0  0  0  0  0
  -27.0303  -30.3037   24.6102 C   0  0  0  0  0  0
  -27.6059  -32.4305   25.7482 C   0  0  0  0  0  0
  -27.5584  -37.1810   24.8466 C   0  0  0  0  0  0
  -21.4140  -29.3036   22.3728 N   0  0  0  0  0  0
  -26.4296  -37.3793   23.9410 N   0  0  0  0  0  0
  -24.6700  -31.0759   22.0994 N   0  0  0  0  0  0
  -23.4184  -28.8196   23.3030 O   0  0  0  0  0  0
  -28.4416  -26.7275   20.0847 O   0  0  0  0  0  0
  -26.5595  -34.8925   22.4688 O   0  0  0  0  0  0
  -23.5351  -32.1425   23.7480 O   0  0  0  0  0  0
  -29.0026  -18.6580   22.0732 C   0  0  0  0  0  0
  -28.8963  -17.3164   22.3136 C   0  0  0  0  0  0
  -29.8520  -16.7354   21.4317 C   0  0  0  0  0  0
  -27.9327  -22.9447   19.5102 C   0  0  0  0  0  0
  -29.7484  -23.3384   20.3631 C   0  0  0  0  0  0
  -28.5084  -24.2250   20.1338 C   0  0  1  0  0  0
  -27.9842  -16.6169   23.2861 C   0  0  0  0  0  0
  -28.6107  -25.5274   19.3068 C   0  0  0  0  0  0
  -30.4365  -20.1183   20.5435 C   0  0  0  0  0  0
  -29.3941  -20.9101   19.6966 C   0  0  0  0  0  0
  -30.4839  -17.6478   20.6909 N   0  0  0  0  0  0
  -29.9512  -18.8430   21.0874 N   0  0  0  0  0  0
  -29.9890  -15.3192   21.4194 N   0  0  0  0  0  0
  -28.8703  -22.1613   20.3270 N   0  3  2  0  0  0
  -31.4788  -12.4594   19.1003 H   0  0  0  0  0  0
  -30.3731  -11.3009   19.7812 H   0  0  0  0  0  0
  -29.7364  -11.8084   17.4130 H   0  0  0  0  0  0
  -29.6575  -13.5143   17.7726 H   0  0  0  0  0  0
  -27.8247  -11.3181   18.7932 H   0  0  0  0  0  0
  -27.3660  -12.6670   17.7878 H   0  0  0  0  0  0
  -27.7253  -14.2521   19.6124 H   0  0  0  0  0  0
  -28.6916  -11.8717   21.2684 H   0  0  0  0  0  0
  -28.4448  -13.4549   21.9086 H   0  0  0  0  0  0
  -25.2754   -9.5679   22.4755 H   0  0  0  0  0  0
  -23.9993   -7.4633   22.7480 H   0  0  0  0  0  0
  -21.0829   -8.8772   19.8955 H   0  0  0  0  0  0
  -22.3688  -10.9671   19.6163 H   0  0  0  0  0  0
  -21.2008   -7.6147   23.9717 H   0  0  0  0  0  0
  -21.1479   -6.0525   25.9082 H   0  0  0  0  0  0
  -22.0600   -2.7607   23.2857 H   0  0  0  0  0  0
  -22.4109  -11.9898   22.4779 H   0  0  0  0  0  0
  -21.1130  -13.1285   22.2595 H   0  0  0  0  0  0
  -24.6736  -15.8442   20.5152 H   0  0  0  0  0  0
  -26.2941  -15.6207   20.0920 H   0  0  0  0  0  0
  -26.7119  -32.5521   23.1149 H   0  0  0  0  0  0
  -25.0081  -33.9769   25.0486 H   0  0  0  0  0  0
  -22.6935  -31.3077   21.4106 H   0  0  0  0  0  0
  -23.3755  -35.9643   23.3296 H   0  0  0  0  0  0
  -24.3585  -36.8929   22.2055 H   0  0  0  0  0  0
  -23.7241  -37.6514   23.6653 H   0  0  0  0  0  0
  -26.0498  -31.5917   20.5953 H   0  0  0  0  0  0
  -26.8218  -30.8787   21.9835 H   0  0  0  0  0  0
  -28.1032  -29.0966   21.1444 H   0  0  0  0  0  0
  -26.0050  -25.9404   19.0589 H   0  0  0  0  0  0
  -23.9663  -27.2765   19.0706 H   0  0  0  0  0  0
  -23.7250  -30.5965   19.4063 H   0  0  0  0  0  0
  -22.7356  -29.2446   19.8674 H   0  0  0  0  0  0
  -25.1284  -36.1974   25.0833 H   0  0  0  0  0  0
  -20.9950  -28.3234   24.1440 H   0  0  0  0  0  0
  -20.5675  -26.2272   23.3601 H   0  0  0  0  0  0
  -21.6632  -26.7456   22.1203 H   0  0  0  0  0  0
  -19.6903  -25.6300   21.1235 H   0  0  0  0  0  0
  -19.6684  -27.3202   20.6747 H   0  0  0  0  0  0
  -17.4191  -26.6684   21.4019 H   0  0  0  0  0  0
  -18.0314  -26.0066   22.9012 H   0  0  0  0  0  0
  -19.7920  -30.7254   24.2302 H   0  0  0  0  0  0
  -17.5004  -31.6277   24.5152 H   0  0  0  0  0  0
  -15.5342  -30.3001   23.7639 H   0  0  0  0  0  0
  -15.8655  -28.0828   22.7068 H   0  0  0  0  0  0
  -24.5921  -30.7036   25.7807 H   0  0  0  0  0  0
  -24.8930  -32.2843   26.4933 H   0  0  0  0  0  0
  -25.8103  -30.8855   27.0221 H   0  0  0  0  0  0
  -26.2842  -29.6803   24.1158 H   0  0  0  0  0  0
  -27.4072  -29.7269   25.4559 H   0  0  0  0  0  0
  -27.8681  -30.4351   23.9248 H   0  0  0  0  0  0
  -27.2691  -33.3599   26.2084 H   0  0  0  0  0  0
  -28.3858  -32.6869   25.0300 H   0  0  0  0  0  0
  -28.0740  -31.8410   26.5376 H   0  0  0  0  0  0
  -28.2601  -38.0109   24.7518 H   0  0  0  0  0  0
  -28.1079  -36.2640   24.6284 H   0  0  0  0  0  0
  -27.2299  -37.1454   25.8868 H   0  0  0  0  0  0
  -20.9301  -29.8762   21.6953 H   0  0  0  0  0  0
  -26.0186  -38.2873   24.1408 H   0  0  0  0  0  0
  -28.4825  -19.4906   22.5260 H   0  0  0  0  0  0
  -28.1257  -22.8662   18.4380 H   0  0  0  0  0  0
  -26.8833  -22.7567   19.7394 H   0  0  0  0  0  0
  -30.2470  -23.4903   21.3208 H   0  0  0  0  0  0
  -30.4587  -23.3682   19.5340 H   0  0  0  0  0  0
  -28.0000  -24.4087   21.0834 H   0  0  0  0  0  0
  -28.5300  -15.9282   23.9314 H   0  0  0  0  0  0
  -27.2154  -16.0377   22.7734 H   0  0  0  0  0  0
  -27.4678  -17.3201   23.9401 H   0  0  0  0  0  0
  -27.9687  -25.4978   18.4276 H   0  0  0  0  0  0
  -29.6131  -25.5947   18.8831 H   0  0  0  0  0  0
  -30.8081  -20.7247   21.3706 H   0  0  0  0  0  0
  -31.3080  -19.9090   19.9219 H   0  0  0  0  0  0
  -28.5496  -20.2637   19.4560 H   0  0  0  0  0  0
  -29.8459  -21.1668   18.7381 H   0  0  0  0  0  0
  -29.2622  -14.8471   21.9314 H   0  0  0  0  0  0
  -28.4649  -21.9899   21.2347 H   0  0  0  0  0  0
  1 25  1  0  0  0
  1 30  2  0  0  0
  1 83  1  0  0  0
  2  3  1  0  0  0
  2 25  1  0  0  0
  2 85  1  0  0  0
  2 86  1  0  0  0
  3  4  1  0  0  0
  3 87  1  0  0  0
  3 88  1  0  0  0
  4  5  1  0  0  0
  4 89  1  0  0  0
  4 90  1  0  0  0
  5  6  1  0  0  0
  5 26  1  0  0  0
  5 91  1  0  0  0
  6 25  1  0  0  0
  6 92  1  0  0  0
  6 93  1  0  0  0
  7  8  2  0  0  0
  7 26  1  0  0  0
  7 29  1  0  0  0
  8  9  1  0  0  0
  8 22  1  0  0  0
  9 10  1  0  0  0
  9 27  2  0  0  0
 10 11  2  0  0  0
 10 15  1  0  0  0
 11 12  1  0  0  0
 11 94  1  0  0  0
 12 13  2  0  0  0
 12 95  1  0  0  0
 13 14  1  0  0  0
 13 31  1  0  0  0
 14 15  2  0  0  0
 14 96  1  0  0  0
 15 97  1  0  0  0
 16 17  2  0  0  0
 16 21  1  0  0  0
 16 31  1  0  0  0
 17 18  1  0  0  0
 17 98  1  0  0  0
 18 19  2  0  0  0
 18 99  1  0  0  0
 19 20  1  0  0  0
 19 24  1  0  0  0
 20 21  2  0  0  0
 20100  1  0  0  0
 21 23  1  0  0  0
 22 28  1  0  0  0
 22 32  2  0  0  0
 26 27  1  0  0  0
 28101  1  0  0  0
 28102  1  0  0  0
 29103  1  0  0  0
 29104  1  0  0  0
 33 34  1  0  0  0
 33 66  1  0  0  0
 33 70  2  0  0  0
 34 36  1  0  0  0
 34 59  1  0  0  0
 34105  1  0  0  0
 35 44  2  0  0  0
 35 45  1  0  0  0
 35 68  1  0  0  0
 36 56  1  0  0  0
 36106  1  0  0  0
 37 39  1  0  0  0
 37 47  1  0  0  0
 37 66  1  0  0  0
 37107  1  0  0  0
 38 43  2  0  0  0
 38 46  1  0  0  0
 38 47  1  0  0  0
 39 64  1  0  0  0
 39 67  2  0  0  0
 40 52  1  0  0  0
 40 53  2  0  0  0
 40 58  1  0  0  0
 41108  1  0  0  0
 41109  1  0  0  0
 41110  1  0  0  0
 41 48  1  0  0  0
 42 43  1  0  0  0
 42 66  1  0  0  0
 42111  1  0  0  0
 42112  1  0  0  0
 43 44  1  0  0  0
 44113  1  0  0  0
 45 46  2  0  0  0
 45114  1  0  0  0
 46115  1  0  0  0
 47116  1  0  0  0
 47117  1  0  0  0
 48 56  1  0  0  0
 48 65  1  0  0  0
 48118  1  0  0  0
 49 50  1  0  0  0
 49 53  1  0  0  0
 49 64  1  0  0  0
 49119  1  0  0  0
 50 51  1  0  0  0
 50120  1  0  0  0
 50121  1  0  0  0
 51 52  1  0  0  0
 51122  1  0  0  0
 51123  1  0  0  0
 52124  1  0  0  0
 52125  1  0  0  0
 53 54  1  0  0  0
 54 55  2  0  0  0
 54126  1  0  0  0
 55 57  1  0  0  0
 55127  1  0  0  0
 56 69  2  0  0  0
 57 58  2  0  0  0
 57128  1  0  0  0
 58129  1  0  0  0
 59 60  1  0  0  0
 59 61  1  0  0  0
 59 62  1  0  0  0
 60130  1  0  0  0
 60131  1  0  0  0
 60132  1  0  0  0
 61133  1  0  0  0
 61134  1  0  0  0
 61135  1  0  0  0
 62136  1  0  0  0
 62137  1  0  0  0
 62138  1  0  0  0
 63 65  1  0  0  0
 63139  1  0  0  0
 63140  1  0  0  0
 63141  1  0  0  0
 64142  1  0  0  0
 65143  1  0  0  0
 68 78  1  0  0  0
 71 72  2  0  0  0
 71 82  1  0  0  0
 71144  1  0  0  0
 72 73  1  0  0  0
 72 77  1  0  0  0
 73 81  2  0  0  0
 73 83  1  0  0  0
 74 76  1  0  0  0
 74 84  1  0  0  0
 74145  1  0  0  0
 74146  1  0  0  0
 75 76  1  0  0  0
 75 84  1  0  0  0
 75147  1  0  0  0
 75148  1  0  0  0
 76 78  1  0  0  0
 76149  1  0  0  0
 77150  1  0  0  0
 77151  1  0  0  0
 77152  1  0  0  0
 78153  1  0  0  0
 78154  1  0  0  0
 79 80  1  0  0  0
 79 82  1  0  0  0
 79155  1  0  0  0
 79156  1  0  0  0
 80157  1  0  0  0
 80158  1  0  0  0
 80 84  1  0  0  0
 81 82  1  0  0  0
 83159  1  0  0  0
 84160  1  0  0  0
M  CHG  1  84   1
M  ISO  4   1 100  68 101  78 101  83 100
M  END
> <chiral flag>
0

> <version>
0

> <s_m_source_file>
/data/baiqing/PycharmProjects/Reinvent-master-3.2/result/LINK_invent/BTK/process_docking_weight1_custom_sum_contain_oxygen_bond_distance_aromatic_linkinvent_7_9_3/rearranged_h_0192.sdf

> <i_m_source_file_index>
79

> <r_mmod_Potential_Energy-OPLS-2005>
-265.283874511719

> <r_mmod_Stretch_Energy-OPLS-2005>
39.6119613647461

> <r_mmod_Bend_Energy-OPLS-2005>
134.949493408203

> <r_mmod_Torsional_Energy-OPLS-2005>
245.6611328125

> <r_mmod_Improper_Torsional_Energy-OPLS-2005>
3.10571241378784

> <r_mmod_Van_der_Waal_Energy-OPLS-2005>
124.070960998535

> <r_mmod_Electrostatic_Energy-OPLS-2005>
-318.672607421875

> <r_mmod_Solvation_Energy-OPLS-2005>
-507.053497314453

> <b_mmod_Minimization_Converged-OPLS-2005>
0

> <r_mmod_RMS_Derivative-OPLS-2005>
0.559130251407623

$$$$
79
                    3D
 Structure written by MMmdl.
165175  0  0  1  0            999 V2000
  -30.5252  -15.0807   20.3730 C   0  0  0  0  0  0
  -30.4297  -12.6721   19.5122 C   0  0  0  0  0  0
  -29.5199  -12.5439   18.2689 C   0  0  0  0  0  0
  -28.0615  -12.3012   18.6955 C   0  0  0  0  0  0
  -27.6207  -13.2614   19.8311 C   0  0  2  0  0  0
  -28.6607  -13.3756   20.9673 C   0  0  0  0  0  0
  -25.2473  -13.8222   20.5865 C   0  0  0  0  0  0
  -24.1750  -13.0434   20.9246 C   0  0  0  0  0  0
  -24.6363  -11.6924   20.8729 C   0  0  0  0  0  0
  -23.9037  -10.4285   21.0373 C   0  0  0  0  0  0
  -24.3602   -9.4214   21.9150 C   0  0  0  0  0  0
  -23.6294   -8.2241   22.0733 C   0  0  0  0  0  0
  -22.4271   -8.0257   21.3534 C   0  0  0  0  0  0
  -21.9894   -9.0214   20.4636 C   0  0  0  0  0  0
  -22.7200  -10.2096   20.3037 C   0  0  0  0  0  0
  -21.6860   -6.0712   22.5266 C   0  0  0  0  0  0
  -21.4023   -6.5621   23.8193 C   0  0  0  0  0  0
  -21.3681   -5.6784   24.9160 C   0  0  0  0  0  0
  -21.6057   -4.3043   24.7211 C   0  0  0  0  0  0
  -21.8827   -3.8127   23.4332 C   0  0  0  0  0  0
  -21.9194   -4.6945   22.3391 C   0  0  0  0  0  0
  -22.7761  -13.5209   21.1890 C   0  0  0  0  0  0
  -22.1656   -4.2122   21.0968 F   0  0  0  0  0  0
  -21.5642   -3.4542   25.7736 F   0  0  0  0  0  0
  -29.9221  -13.8100   20.3486 N   0  0  0  0  0  0
  -26.2868  -12.9470   20.3291 N   0  0  0  0  0  0
  -25.9303  -11.6580   20.5734 N   0  0  0  0  0  0
  -22.0403  -12.8192   22.0428 N   0  0  0  0  0  0
  -25.4274  -15.1953   20.4553 N   0  0  0  0  0  0
  -31.7238  -15.0882   20.0642 O   0  0  0  0  0  0
  -21.6635   -6.8847   21.4224 O   0  0  0  0  0  0
  -22.3467  -14.5522   20.6738 O   0  0  0  0  0  0
  -24.6506  -31.8344   23.1747 C   0  0  0  0  0  0
  -25.9241  -32.4635   23.8175 C   0  0  1  0  0  0
  -27.2390  -27.0544   20.1564 C   0  0  0  0  0  0
  -25.5954  -33.8442   24.2099 N   0  0  0  0  0  0
  -23.4597  -30.4425   21.5198 C   0  0  2  0  0  0
  -24.9177  -28.8478   20.0985 C   0  0  0  0  0  0
  -22.7613  -29.4477   22.4798 C   0  0  0  0  0  0
  -18.0315  -28.1402   22.8487 C   0  0  0  0  0  0
  -24.1503  -36.7219   23.2640 C   0  0  0  0  0  0
  -26.0173  -30.6775   21.3885 C   0  0  0  0  0  0
  -26.0889  -29.2803   20.7265 C   0  0  0  0  0  0
  -27.2384  -28.3956   20.7429 C   0  0  0  0  0  0
  -26.0466  -26.7343   19.4751 C   0  0  0  0  0  0
  -24.9132  -27.5917   19.4571 C   0  0  0  0  0  0
  -23.6914  -29.7555   20.1431 C   0  0  0  0  0  0
  -25.4135  -36.2984   24.0303 C   0  0  1  0  0  0
  -20.5939  -28.3733   23.1233 C   0  0  2  0  0  0
  -20.6809  -26.9426   22.5417 C   0  0  0  0  0  0
  -19.5773  -26.6376   21.5236 C   0  0  0  0  0  0
  -18.1956  -26.7941   22.1644 C   0  0  0  0  0  0
  -19.1576  -28.8893   23.2852 C   0  0  0  0  0  0
  -18.9477  -30.1495   23.8865 C   0  0  0  0  0  0
  -17.6474  -30.6601   24.0557 C   0  0  0  0  0  0
  -25.9093  -34.9370   23.5017 C   0  0  0  0  0  0
  -16.5367  -29.9078   23.6346 C   0  0  0  0  0  0
  -16.7300  -28.6499   23.0366 C   0  0  0  0  0  0
  -26.4530  -31.6550   25.0675 C   0  0  0  0  0  0
  -25.3691  -31.3800   26.1364 C   0  0  0  0  0  0
  -27.0396  -30.2920   24.6348 C   0  0  0  0  0  0
  -27.6044  -32.4348   25.7460 C   0  0  0  0  0  0
  -27.5581  -37.1757   24.8447 C   0  0  0  0  0  0
  -21.4296  -29.3027   22.3577 N   0  0  0  0  0  0
  -26.4278  -37.3718   23.9411 N   0  0  0  0  0  0
  -24.7284  -31.0113   22.0812 N   0  0  0  0  0  0
  -23.4227  -28.8078   23.3026 O   0  0  0  0  0  0
  -28.2923  -26.0656   20.3657 O   0  0  0  0  0  0
  -26.5684  -34.8887   22.4603 O   0  0  0  0  0  0
  -23.5615  -32.1244   23.6934 O   0  0  0  0  0  0
  -27.3055  -20.5072   19.0789 C   0  0  0  0  0  0
  -26.6283  -21.7206   18.8428 C   0  0  0  0  0  0
  -28.4893  -20.5046   19.8709 C   0  0  0  0  0  0
  -28.2002  -23.0517   19.8818 C   0  0  0  0  0  0
  -26.6217  -19.2399   18.5216 C   0  0  0  0  0  0
  -25.3958  -21.7002   17.9676 C   0  0  0  0  0  0
  -29.6460  -18.6267   21.7373 C   0  0  0  0  0  0
  -29.7252  -17.0301   21.8378 C   0  0  0  0  0  0
  -29.7102  -17.6355   19.6204 C   0  0  0  0  0  0
  -25.6611  -20.7820   16.7691 C   0  0  0  0  0  0
  -29.0245  -18.9528   20.3822 C   0  0  2  0  0  0
  -26.6523  -18.6312   16.0963 C   0  0  0  0  0  0
  -28.7245  -24.6552   19.7497 C   0  0  0  0  0  0
  -27.0386  -22.9272   19.2604 N   0  0  0  0  0  0
  -28.9340  -21.8508   20.1912 N   0  0  0  0  0  0
  -29.8005  -16.3395   20.5137 N   0  0  0  0  0  0
  -25.9766  -19.3882   17.1795 N   0  3  1  0  0  0
  -31.4616  -12.8225   19.1946 H   0  0  0  0  0  0
  -30.4352  -11.7452   20.0856 H   0  0  0  0  0  0
  -29.8694  -11.7357   17.6245 H   0  0  0  0  0  0
  -29.5781  -13.4546   17.6762 H   0  0  0  0  0  0
  -27.9889  -11.2678   19.0388 H   0  0  0  0  0  0
  -27.3906  -12.3842   17.8391 H   0  0  0  0  0  0
  -27.5586  -14.2460   19.3667 H   0  0  0  0  0  0
  -28.7789  -12.4324   21.5025 H   0  0  0  0  0  0
  -28.3347  -14.1127   21.7036 H   0  0  0  0  0  0
  -25.2727   -9.5725   22.4734 H   0  0  0  0  0  0
  -24.0020   -7.4655   22.7469 H   0  0  0  0  0  0
  -21.0815   -8.8713   19.8962 H   0  0  0  0  0  0
  -22.3617  -10.9627   19.6175 H   0  0  0  0  0  0
  -21.2010   -7.6128   23.9685 H   0  0  0  0  0  0
  -21.1516   -6.0507   25.9065 H   0  0  0  0  0  0
  -22.0594   -2.7590   23.2819 H   0  0  0  0  0  0
  -22.4033  -11.9873   22.4836 H   0  0  0  0  0  0
  -21.1026  -13.1224   22.2657 H   0  0  0  0  0  0
  -24.7050  -15.8578   20.7130 H   0  0  0  0  0  0
  -26.3361  -15.6208   20.3246 H   0  0  0  0  0  0
  -26.7306  -32.5212   23.0893 H   0  0  0  0  0  0
  -25.0093  -33.9513   25.0241 H   0  0  0  0  0  0
  -22.7658  -31.2699   21.3548 H   0  0  0  0  0  0
  -23.3788  -35.9527   23.3246 H   0  0  0  0  0  0
  -24.3591  -36.8917   22.2068 H   0  0  0  0  0  0
  -23.7245  -37.6380   23.6730 H   0  0  0  0  0  0
  -26.1911  -31.4330   20.6210 H   0  0  0  0  0  0
  -26.8786  -30.7241   22.0417 H   0  0  0  0  0  0
  -28.1232  -28.7155   21.2762 H   0  0  0  0  0  0
  -25.9594  -25.7609   19.0127 H   0  0  0  0  0  0
  -24.0154  -27.2528   18.9598 H   0  0  0  0  0  0
  -23.8239  -30.5225   19.3788 H   0  0  0  0  0  0
  -22.8066  -29.1923   19.8426 H   0  0  0  0  0  0
  -25.1351  -36.1769   25.0797 H   0  0  0  0  0  0
  -21.0028  -28.3332   24.1360 H   0  0  0  0  0  0
  -20.5750  -26.2336   23.3642 H   0  0  0  0  0  0
  -21.6668  -26.7469   22.1182 H   0  0  0  0  0  0
  -19.6933  -25.6276   21.1288 H   0  0  0  0  0  0
  -19.6711  -27.3173   20.6753 H   0  0  0  0  0  0
  -17.4239  -26.6697   21.4026 H   0  0  0  0  0  0
  -18.0332  -26.0089   22.9045 H   0  0  0  0  0  0
  -19.7951  -30.7330   24.2202 H   0  0  0  0  0  0
  -17.5020  -31.6273   24.5172 H   0  0  0  0  0  0
  -15.5364  -30.2971   23.7686 H   0  0  0  0  0  0
  -15.8699  -28.0812   22.7091 H   0  0  0  0  0  0
  -24.5745  -30.7336   25.7623 H   0  0  0  0  0  0
  -24.9052  -32.3038   26.4836 H   0  0  0  0  0  0
  -25.7906  -30.8835   27.0117 H   0  0  0  0  0  0
  -26.3020  -29.6618   24.1373 H   0  0  0  0  0  0
  -27.3963  -29.7270   25.4967 H   0  0  0  0  0  0
  -27.8964  -30.4095   23.9710 H   0  0  0  0  0  0
  -27.2593  -33.3634   26.2018 H   0  0  0  0  0  0
  -28.3851  -32.6952   25.0300 H   0  0  0  0  0  0
  -28.0736  -31.8518   26.5390 H   0  0  0  0  0  0
  -28.2561  -38.0088   24.7548 H   0  0  0  0  0  0
  -28.1120  -36.2628   24.6221 H   0  0  0  0  0  0
  -27.2306  -37.1343   25.8844 H   0  0  0  0  0  0
  -20.9527  -29.8669   21.6682 H   0  0  0  0  0  0
  -26.0132  -38.2774   24.1431 H   0  0  0  0  0  0
  -25.8257  -18.9901   19.2231 H   0  0  0  0  0  0
  -27.2728  -18.3716   18.4996 H   0  0  0  0  0  0
  -25.1602  -22.7058   17.6182 H   0  0  0  0  0  0
  -24.5425  -21.3539   18.5501 H   0  0  0  0  0  0
  -30.6438  -19.0651   21.7784 H   0  0  0  0  0  0
  -29.0808  -19.0535   22.5662 H   0  0  0  0  0  0
  -28.8275  -16.6620   22.3362 H   0  0  0  0  0  0
  -30.5660  -16.7361   22.4688 H   0  0  0  0  0  0
  -30.7270  -17.8933   19.3158 H   0  0  0  0  0  0
  -29.1915  -17.3837   18.6980 H   0  0  0  0  0  0
  -26.5079  -21.1875   16.2136 H   0  0  0  0  0  0
  -24.8128  -20.7816   16.0841 H   0  0  0  0  0  0
  -28.0297  -18.5615   20.5873 H   0  0  0  0  0  0
  -26.7592  -17.5761   16.3501 H   0  0  0  0  0  0
  -27.6452  -19.0270   15.8803 H   0  0  0  0  0  0
  -26.0660  -18.6812   15.1792 H   0  0  0  0  0  0
  -28.7533  -24.8443   18.6778 H   0  0  0  0  0  0
  -29.7768  -24.5873   20.0309 H   0  0  0  0  0  0
  -25.0843  -18.9234   17.2835 H   0  0  0  0  0  0
  1 25  1  0  0  0
  1 30  2  0  0  0
  1 86  1  0  0  0
  2  3  1  0  0  0
  2 25  1  0  0  0
  2 88  1  0  0  0
  2 89  1  0  0  0
  3  4  1  0  0  0
  3 90  1  0  0  0
  3 91  1  0  0  0
  4  5  1  0  0  0
  4 92  1  0  0  0
  4 93  1  0  0  0
  5  6  1  0  0  0
  5 26  1  0  0  0
  5 94  1  0  0  0
  6 25  1  0  0  0
  6 95  1  0  0  0
  6 96  1  0  0  0
  7  8  2  0  0  0
  7 26  1  0  0  0
  7 29  1  0  0  0
  8  9  1  0  0  0
  8 22  1  0  0  0
  9 10  1  0  0  0
  9 27  2  0  0  0
 10 11  2  0  0  0
 10 15  1  0  0  0
 11 12  1  0  0  0
 11 97  1  0  0  0
 12 13  2  0  0  0
 12 98  1  0  0  0
 13 14  1  0  0  0
 13 31  1  0  0  0
 14 15  2  0  0  0
 14 99  1  0  0  0
 15100  1  0  0  0
 16 17  2  0  0  0
 16 21  1  0  0  0
 16 31  1  0  0  0
 17 18  1  0  0  0
 17101  1  0  0  0
 18 19  2  0  0  0
 18102  1  0  0  0
 19 20  1  0  0  0
 19 24  1  0  0  0
 20 21  2  0  0  0
 20103  1  0  0  0
 21 23  1  0  0  0
 22 28  1  0  0  0
 22 32  2  0  0  0
 26 27  1  0  0  0
 28104  1  0  0  0
 28105  1  0  0  0
 29106  1  0  0  0
 29107  1  0  0  0
 33 34  1  0  0  0
 33 66  1  0  0  0
 33 70  2  0  0  0
 34 36  1  0  0  0
 34 59  1  0  0  0
 34108  1  0  0  0
 35 44  2  0  0  0
 35 45  1  0  0  0
 35 68  1  0  0  0
 36 56  1  0  0  0
 36109  1  0  0  0
 37 39  1  0  0  0
 37 47  1  0  0  0
 37 66  1  0  0  0
 37110  1  0  0  0
 38 43  2  0  0  0
 38 46  1  0  0  0
 38 47  1  0  0  0
 39 64  1  0  0  0
 39 67  2  0  0  0
 40 52  1  0  0  0
 40 53  2  0  0  0
 40 58  1  0  0  0
 41111  1  0  0  0
 41112  1  0  0  0
 41113  1  0  0  0
 41 48  1  0  0  0
 42 43  1  0  0  0
 42 66  1  0  0  0
 42114  1  0  0  0
 42115  1  0  0  0
 43 44  1  0  0  0
 44116  1  0  0  0
 45 46  2  0  0  0
 45117  1  0  0  0
 46118  1  0  0  0
 47119  1  0  0  0
 47120  1  0  0  0
 48 56  1  0  0  0
 48 65  1  0  0  0
 48121  1  0  0  0
 49 50  1  0  0  0
 49 53  1  0  0  0
 49 64  1  0  0  0
 49122  1  0  0  0
 50 51  1  0  0  0
 50123  1  0  0  0
 50124  1  0  0  0
 51 52  1  0  0  0
 51125  1  0  0  0
 51126  1  0  0  0
 52127  1  0  0  0
 52128  1  0  0  0
 53 54  1  0  0  0
 54 55  2  0  0  0
 54129  1  0  0  0
 55 57  1  0  0  0
 55130  1  0  0  0
 56 69  2  0  0  0
 57 58  2  0  0  0
 57131  1  0  0  0
 58132  1  0  0  0
 59 60  1  0  0  0
 59 61  1  0  0  0
 59 62  1  0  0  0
 60133  1  0  0  0
 60134  1  0  0  0
 60135  1  0  0  0
 61136  1  0  0  0
 61137  1  0  0  0
 61138  1  0  0  0
 62139  1  0  0  0
 62140  1  0  0  0
 62141  1  0  0  0
 63 65  1  0  0  0
 63142  1  0  0  0
 63143  1  0  0  0
 63144  1  0  0  0
 64145  1  0  0  0
 65146  1  0  0  0
 68 83  1  0  0  0
 71 72  2  0  0  0
 71 73  1  0  0  0
 71 75  1  0  0  0
 72 76  1  0  0  0
 72 84  1  0  0  0
 73 85  2  0  0  0
 73 81  1  0  0  0
 74 83  1  0  0  0
 74 84  2  0  0  0
 74 85  1  0  0  0
 75 87  1  0  0  0
 75147  1  0  0  0
 75148  1  0  0  0
 76 80  1  0  0  0
 76149  1  0  0  0
 76150  1  0  0  0
 77 78  1  0  0  0
 77 81  1  0  0  0
 77151  1  0  0  0
 77152  1  0  0  0
 78 86  1  0  0  0
 78153  1  0  0  0
 78154  1  0  0  0
 79 81  1  0  0  0
 79 86  1  0  0  0
 79155  1  0  0  0
 79156  1  0  0  0
 80 87  1  0  0  0
 80157  1  0  0  0
 80158  1  0  0  0
 81159  1  0  0  0
 82160  1  0  0  0
 82161  1  0  0  0
 82162  1  0  0  0
 82 87  1  0  0  0
 83163  1  0  0  0
 83164  1  0  0  0
 87165  1  0  0  0
M  CHG  1  87   1
M  ISO  4   1 100  68 101  83 101  86 100
M  END
> <chiral flag>
0

> <version>
0

> <s_m_source_file>
/data/baiqing/PycharmProjects/Reinvent-master-3.2/result/LINK_invent/BTK/process_docking_weight1_custom_sum_contain_oxygen_bond_distance_aromatic_linkinvent_7_9_3/rearranged_h_0192.sdf

> <i_m_source_file_index>
80

> <r_mmod_Potential_Energy-OPLS-2005>
676.465393066406

> <r_mmod_Stretch_Energy-OPLS-2005>
373.548126220703

> <r_mmod_Bend_Energy-OPLS-2005>
507.172027587891

> <r_mmod_Torsional_Energy-OPLS-2005>
358.312713623047

> <r_mmod_Improper_Torsional_Energy-OPLS-2005>
14.3691720962524

> <r_mmod_Van_der_Waal_Energy-OPLS-2005>
135.550186157227

> <r_mmod_Electrostatic_Energy-OPLS-2005>
-510.854278564453

> <r_mmod_Solvation_Energy-OPLS-2005>
-490.668731689453

> <b_mmod_Minimization_Converged-OPLS-2005>
0

> <r_mmod_RMS_Derivative-OPLS-2005>
3.64618587493896

$$$$
80
                    3D
 Structure written by MMmdl.
161169  0  0  1  0            999 V2000
  -30.5621  -14.9492   20.4131 C   0  0  0  0  0  0
  -30.4360  -12.5899   19.5091 C   0  0  0  0  0  0
  -29.5257  -12.5288   18.2626 C   0  0  0  0  0  0
  -28.0566  -12.3177   18.6774 C   0  0  0  0  0  0
  -27.6291  -13.2552   19.8405 C   0  0  2  0  0  0
  -28.6712  -13.2969   20.9802 C   0  0  0  0  0  0
  -25.2438  -13.8245   20.5757 C   0  0  0  0  0  0
  -24.1765  -13.0439   20.9246 C   0  0  0  0  0  0
  -24.6399  -11.6941   20.8772 C   0  0  0  0  0  0
  -23.9087  -10.4298   21.0414 C   0  0  0  0  0  0
  -24.3640   -9.4201   21.9179 C   0  0  0  0  0  0
  -23.6314   -8.2236   22.0748 C   0  0  0  0  0  0
  -22.4291   -8.0284   21.3543 C   0  0  0  0  0  0
  -21.9921   -9.0266   20.4644 C   0  0  0  0  0  0
  -22.7262  -10.2146   20.3053 C   0  0  0  0  0  0
  -21.6850   -6.0755   22.5277 C   0  0  0  0  0  0
  -21.4024   -6.5648   23.8222 C   0  0  0  0  0  0
  -21.3662   -5.6795   24.9175 C   0  0  0  0  0  0
  -21.6043   -4.3059   24.7223 C   0  0  0  0  0  0
  -21.8811   -3.8152   23.4336 C   0  0  0  0  0  0
  -21.9189   -4.6976   22.3395 C   0  0  0  0  0  0
  -22.7773  -13.5212   21.1890 C   0  0  0  0  0  0
  -22.1645   -4.2162   21.0967 F   0  0  0  0  0  0
  -21.5623   -3.4541   25.7729 F   0  0  0  0  0  0
  -29.9484  -13.6965   20.3788 N   0  0  0  0  0  0
  -26.2878  -12.9506   20.3267 N   0  0  0  0  0  0
  -25.9331  -11.6621   20.5729 N   0  0  0  0  0  0
  -22.0403  -12.8218   22.0450 N   0  0  0  0  0  0
  -25.4046  -15.1992   20.4194 N   0  0  0  0  0  0
  -31.7644  -14.9943   20.1379 O   0  0  0  0  0  0
  -21.6629   -6.8901   21.4240 O   0  0  0  0  0  0
  -22.3449  -14.5509   20.6727 O   0  0  0  0  0  0
  -24.6459  -31.8437   23.1881 C   0  0  0  0  0  0
  -25.9224  -32.4697   23.8275 C   0  0  1  0  0  0
  -27.2226  -27.1310   20.1440 C   0  0  0  0  0  0
  -25.5979  -33.8500   24.2182 N   0  0  0  0  0  0
  -23.4496  -30.4651   21.5320 C   0  0  2  0  0  0
  -24.8985  -28.8886   20.1127 C   0  0  0  0  0  0
  -22.7574  -29.4558   22.4835 C   0  0  0  0  0  0
  -18.0308  -28.1397   22.8467 C   0  0  0  0  0  0
  -24.1497  -36.7250   23.2639 C   0  0  0  0  0  0
  -26.0069  -30.7161   21.3876 C   0  0  0  0  0  0
  -26.0783  -29.3269   20.7273 C   0  0  0  0  0  0
  -27.2415  -28.4663   20.7206 C   0  0  0  0  0  0
  -26.0103  -26.7940   19.5013 C   0  0  0  0  0  0
  -24.8782  -27.6350   19.4845 C   0  0  0  0  0  0
  -23.6788  -29.7962   20.1515 C   0  0  0  0  0  0
  -25.4127  -36.3028   24.0305 C   0  0  1  0  0  0
  -20.5926  -28.3740   23.1215 C   0  0  2  0  0  0
  -20.6797  -26.9446   22.5393 C   0  0  0  0  0  0
  -19.5773  -26.6380   21.5199 C   0  0  0  0  0  0
  -18.1949  -26.7927   22.1609 C   0  0  0  0  0  0
  -19.1562  -28.8876   23.2837 C   0  0  0  0  0  0
  -18.9477  -30.1461   23.8875 C   0  0  0  0  0  0
  -17.6477  -30.6592   24.0555 C   0  0  0  0  0  0
  -25.9082  -34.9408   23.5045 C   0  0  0  0  0  0
  -16.5371  -29.9091   23.6326 C   0  0  0  0  0  0
  -16.7294  -28.6509   23.0354 C   0  0  0  0  0  0
  -26.4538  -31.6568   25.0717 C   0  0  0  0  0  0
  -25.3713  -31.3757   26.1406 C   0  0  0  0  0  0
  -27.0399  -30.2963   24.6301 C   0  0  0  0  0  0
  -27.6066  -32.4333   25.7510 C   0  0  0  0  0  0
  -27.5567  -37.1790   24.8457 C   0  0  0  0  0  0
  -21.4266  -29.3065   22.3581 N   0  0  0  0  0  0
  -26.4288  -37.3743   23.9401 N   0  0  0  0  0  0
  -24.7209  -31.0294   22.0907 N   0  0  0  0  0  0
  -23.4206  -28.8087   23.2982 O   0  0  0  0  0  0
  -28.2890  -26.1554   20.1821 O   0  0  0  0  0  0
  -26.5667  -34.8905   22.4624 O   0  0  0  0  0  0
  -23.5577  -32.1301   23.7090 O   0  0  0  0  0  0
  -31.1036  -20.6409   20.4624 C   0  0  0  0  0  0
  -31.9769  -19.4137   20.0732 C   0  0  0  0  0  0
  -29.1756  -18.9595   20.5104 C   0  0  2  0  0  0
  -29.6179  -20.5275   20.0532 C   0  0  1  0  0  0
  -30.2123  -17.6674   20.2367 C   0  0  2  0  0  0
  -30.2419  -23.8123   21.2298 C   0  0  0  0  0  0
  -28.0278  -24.6107   20.1680 C   0  0  0  0  0  0
  -29.1727  -23.3625   20.2101 C   0  0  2  0  0  0
  -27.9285  -18.5918   19.8574 N   0  0  0  0  0  0
  -29.8236  -16.1602   20.5348 N   0  0  0  0  0  0
  -31.5421  -18.1302   20.6917 N   0  3  0  0  0  0
  -28.7693  -21.8265   20.4527 N   0  3  0  0  0  0
  -31.4705  -12.7350   19.1974 H   0  0  0  0  0  0
  -30.4219  -11.6466   20.0556 H   0  0  0  0  0  0
  -29.8506  -11.7265   17.5986 H   0  0  0  0  0  0
  -29.6267  -13.4549   17.6952 H   0  0  0  0  0  0
  -27.9534  -11.2783   18.9912 H   0  0  0  0  0  0
  -27.3947  -12.4413   17.8180 H   0  0  0  0  0  0
  -27.5870  -14.2563   19.4087 H   0  0  0  0  0  0
  -28.7537  -12.3308   21.4814 H   0  0  0  0  0  0
  -28.3676  -14.0182   21.7427 H   0  0  0  0  0  0
  -25.2766   -9.5696   22.4769 H   0  0  0  0  0  0
  -24.0016   -7.4632   22.7475 H   0  0  0  0  0  0
  -21.0836   -8.8805   19.8954 H   0  0  0  0  0  0
  -22.3702  -10.9706   19.6170 H   0  0  0  0  0  0
  -21.2024   -7.6156   23.9743 H   0  0  0  0  0  0
  -21.1490   -6.0508   25.9088 H   0  0  0  0  0  0
  -22.0586   -2.7611   23.2814 H   0  0  0  0  0  0
  -22.3984  -11.9910   22.4923 H   0  0  0  0  0  0
  -21.1012  -13.1265   22.2608 H   0  0  0  0  0  0
  -24.6303  -15.8438   20.5397 H   0  0  0  0  0  0
  -26.2435  -15.6566   20.0841 H   0  0  0  0  0  0
  -26.7290  -32.5298   23.1005 H   0  0  0  0  0  0
  -25.0130  -33.9625   25.0338 H   0  0  0  0  0  0
  -22.7536  -31.2917   21.3772 H   0  0  0  0  0  0
  -23.3762  -35.9580   23.3283 H   0  0  0  0  0  0
  -24.3587  -36.8901   22.2057 H   0  0  0  0  0  0
  -23.7250  -37.6437   23.6692 H   0  0  0  0  0  0
  -26.1661  -31.4726   20.6171 H   0  0  0  0  0  0
  -26.8777  -30.7648   22.0302 H   0  0  0  0  0  0
  -28.1437  -28.8039   21.2095 H   0  0  0  0  0  0
  -25.9010  -25.8421   19.0064 H   0  0  0  0  0  0
  -23.9781  -27.2950   18.9898 H   0  0  0  0  0  0
  -23.8268  -30.5722   19.3993 H   0  0  0  0  0  0
  -22.7921  -29.2452   19.8328 H   0  0  0  0  0  0
  -25.1322  -36.1845   25.0797 H   0  0  0  0  0  0
  -21.0022  -28.3343   24.1331 H   0  0  0  0  0  0
  -20.5688  -26.2362   23.3619 H   0  0  0  0  0  0
  -21.6672  -26.7446   22.1205 H   0  0  0  0  0  0
  -19.6950  -25.6275   21.1261 H   0  0  0  0  0  0
  -19.6708  -27.3160   20.6701 H   0  0  0  0  0  0
  -17.4223  -26.6665   21.4010 H   0  0  0  0  0  0
  -18.0359  -26.0078   22.9016 H   0  0  0  0  0  0
  -19.7958  -30.7277   24.2253 H   0  0  0  0  0  0
  -17.5038  -31.6278   24.5166 H   0  0  0  0  0  0
  -15.5370  -30.2997   23.7656 H   0  0  0  0  0  0
  -15.8688  -28.0819   22.7086 H   0  0  0  0  0  0
  -24.5901  -30.7098   25.7717 H   0  0  0  0  0  0
  -24.8892  -32.2937   26.4779 H   0  0  0  0  0  0
  -25.7997  -30.8961   27.0215 H   0  0  0  0  0  0
  -26.3006  -29.6682   24.1312 H   0  0  0  0  0  0
  -27.4008  -29.7274   25.4880 H   0  0  0  0  0  0
  -27.8927  -30.4189   23.9618 H   0  0  0  0  0  0
  -27.2663  -33.3654   26.2035 H   0  0  0  0  0  0
  -28.3922  -32.6858   25.0374 H   0  0  0  0  0  0
  -28.0689  -31.8487   26.5476 H   0  0  0  0  0  0
  -28.2582  -38.0092   24.7513 H   0  0  0  0  0  0
  -28.1076  -36.2621   24.6286 H   0  0  0  0  0  0
  -27.2292  -37.1439   25.8866 H   0  0  0  0  0  0
  -20.9465  -29.8796   21.6775 H   0  0  0  0  0  0
  -26.0138  -38.2807   24.1416 H   0  0  0  0  0  0
  -31.5422  -21.5058   19.9633 H   0  0  0  0  0  0
  -31.1827  -20.8140   21.5345 H   0  0  0  0  0  0
  -33.0070  -19.6025   20.3823 H   0  0  0  0  0  0
  -32.0073  -19.3013   18.9871 H   0  0  0  0  0  0
  -28.9938  -18.9816   21.5867 H   0  0  0  0  0  0
  -29.6208  -20.5373   18.9620 H   0  0  0  0  0  0
  -30.3154  -17.6312   19.1497 H   0  0  0  0  0  0
  -30.5224  -24.8522   21.0571 H   0  0  0  0  0  0
  -31.1648  -23.2438   21.1695 H   0  0  0  0  0  0
  -29.8774  -23.7472   22.2548 H   0  0  0  0  0  0
  -27.3475  -24.4326   21.0015 H   0  0  0  0  0  0
  -27.4372  -24.4003   19.2777 H   0  0  0  0  0  0
  -29.6460  -23.3796   19.2280 H   0  0  0  0  0  0
  -28.0036  -18.7461   18.8557 H   0  0  0  0  0  0
  -27.1719  -19.1970   20.1560 H   0  0  0  0  0  0
  -28.8373  -16.0464   20.7137 H   0  0  0  0  0  0
  -31.5524  -18.2176   21.6949 H   0  0  0  0  0  0
  -32.2242  -17.4285   20.4482 H   0  0  0  0  0  0
  -28.5385  -21.7319   21.4292 H   0  0  0  0  0  0
  -27.8934  -21.6995   19.9670 H   0  0  0  0  0  0
  1 25  1  0  0  0
  1 30  2  0  0  0
  1 80  1  0  0  0
  2  3  1  0  0  0
  2 25  1  0  0  0
  2 83  1  0  0  0
  2 84  1  0  0  0
  3  4  1  0  0  0
  3 85  1  0  0  0
  3 86  1  0  0  0
  4  5  1  0  0  0
  4 87  1  0  0  0
  4 88  1  0  0  0
  5  6  1  0  0  0
  5 26  1  0  0  0
  5 89  1  0  0  0
  6 25  1  0  0  0
  6 90  1  0  0  0
  6 91  1  0  0  0
  7  8  2  0  0  0
  7 26  1  0  0  0
  7 29  1  0  0  0
  8  9  1  0  0  0
  8 22  1  0  0  0
  9 10  1  0  0  0
  9 27  2  0  0  0
 10 11  2  0  0  0
 10 15  1  0  0  0
 11 12  1  0  0  0
 11 92  1  0  0  0
 12 13  2  0  0  0
 12 93  1  0  0  0
 13 14  1  0  0  0
 13 31  1  0  0  0
 14 15  2  0  0  0
 14 94  1  0  0  0
 15 95  1  0  0  0
 16 17  2  0  0  0
 16 21  1  0  0  0
 16 31  1  0  0  0
 17 18  1  0  0  0
 17 96  1  0  0  0
 18 19  2  0  0  0
 18 97  1  0  0  0
 19 20  1  0  0  0
 19 24  1  0  0  0
 20 21  2  0  0  0
 20 98  1  0  0  0
 21 23  1  0  0  0
 22 28  1  0  0  0
 22 32  2  0  0  0
 26 27  1  0  0  0
 28 99  1  0  0  0
 28100  1  0  0  0
 29101  1  0  0  0
 29102  1  0  0  0
 33 34  1  0  0  0
 33 66  1  0  0  0
 33 70  2  0  0  0
 34 36  1  0  0  0
 34 59  1  0  0  0
 34103  1  0  0  0
 35 44  2  0  0  0
 35 45  1  0  0  0
 35 68  1  0  0  0
 36 56  1  0  0  0
 36104  1  0  0  0
 37 39  1  0  0  0
 37 47  1  0  0  0
 37 66  1  0  0  0
 37105  1  0  0  0
 38 43  2  0  0  0
 38 46  1  0  0  0
 38 47  1  0  0  0
 39 64  1  0  0  0
 39 67  2  0  0  0
 40 52  1  0  0  0
 40 53  2  0  0  0
 40 58  1  0  0  0
 41106  1  0  0  0
 41107  1  0  0  0
 41108  1  0  0  0
 41 48  1  0  0  0
 42 43  1  0  0  0
 42 66  1  0  0  0
 42109  1  0  0  0
 42110  1  0  0  0
 43 44  1  0  0  0
 44111  1  0  0  0
 45 46  2  0  0  0
 45112  1  0  0  0
 46113  1  0  0  0
 47114  1  0  0  0
 47115  1  0  0  0
 48 56  1  0  0  0
 48 65  1  0  0  0
 48116  1  0  0  0
 49 50  1  0  0  0
 49 53  1  0  0  0
 49 64  1  0  0  0
 49117  1  0  0  0
 50 51  1  0  0  0
 50118  1  0  0  0
 50119  1  0  0  0
 51 52  1  0  0  0
 51120  1  0  0  0
 51121  1  0  0  0
 52122  1  0  0  0
 52123  1  0  0  0
 53 54  1  0  0  0
 54 55  2  0  0  0
 54124  1  0  0  0
 55 57  1  0  0  0
 55125  1  0  0  0
 56 69  2  0  0  0
 57 58  2  0  0  0
 57126  1  0  0  0
 58127  1  0  0  0
 59 60  1  0  0  0
 59 61  1  0  0  0
 59 62  1  0  0  0
 60128  1  0  0  0
 60129  1  0  0  0
 60130  1  0  0  0
 61131  1  0  0  0
 61132  1  0  0  0
 61133  1  0  0  0
 62134  1  0  0  0
 62135  1  0  0  0
 62136  1  0  0  0
 63 65  1  0  0  0
 63137  1  0  0  0
 63138  1  0  0  0
 63139  1  0  0  0
 64140  1  0  0  0
 65141  1  0  0  0
 68 77  1  0  0  0
 71 72  1  0  0  0
 71 74  1  0  0  0
 71142  1  0  0  0
 71143  1  0  0  0
 72 81  1  0  0  0
 72144  1  0  0  0
 72145  1  0  0  0
 73 74  1  0  0  0
 73 75  1  0  0  0
 73 79  1  0  0  0
 73146  1  0  0  0
 74 82  1  0  0  0
 74147  1  0  0  0
 75 80  1  0  0  0
 75 81  1  0  0  0
 75148  1  0  0  0
 76149  1  0  0  0
 76150  1  0  0  0
 76151  1  0  0  0
 76 78  1  0  0  0
 77 78  1  0  0  0
 77152  1  0  0  0
 77153  1  0  0  0
 78 82  1  0  0  0
 78154  1  0  0  0
 79155  1  0  0  0
 79156  1  0  0  0
 80157  1  0  0  0
 81158  1  0  0  0
 81159  1  0  0  0
 82160  1  0  0  0
 82161  1  0  0  0
M  CHG  2  81   1  82   1
M  ISO  4   1 100  68 101  77 101  80 100
M  END
> <chiral flag>
0

> <version>
0

> <s_m_source_file>
/data/baiqing/PycharmProjects/Reinvent-master-3.2/result/LINK_invent/BTK/process_docking_weight1_custom_sum_contain_oxygen_bond_distance_aromatic_linkinvent_7_9_3/rearranged_h_0192.sdf

> <i_m_source_file_index>
81

> <r_mmod_Potential_Energy-OPLS-2005>
122.265357971191

> <r_mmod_Stretch_Energy-OPLS-2005>
280.892944335938

> <r_mmod_Bend_Energy-OPLS-2005>
260.549835205078

> <r_mmod_Torsional_Energy-OPLS-2005>
262.962493896484

> <r_mmod_Improper_Torsional_Energy-OPLS-2005>
4.73795604705811

> <r_mmod_Van_der_Waal_Energy-OPLS-2005>
115.870338439941

> <r_mmod_Electrostatic_Energy-OPLS-2005>
5.98475122451782

> <r_mmod_Solvation_Energy-OPLS-2005>
-1001.05377197266

> <b_mmod_Minimization_Converged-OPLS-2005>
0

> <r_mmod_RMS_Derivative-OPLS-2005>
3.20543742179871

$$$$
81
                    3D
 Structure written by MMmdl.
164173  0  0  1  0            999 V2000
  -30.6925  -14.5085   20.5131 C   0  0  0  0  0  0
  -30.4206  -12.3155   19.4281 C   0  0  0  0  0  0
  -29.4924  -12.4860   18.2067 C   0  0  0  0  0  0
  -28.0124  -12.3571   18.6237 C   0  0  0  0  0  0
  -27.6553  -13.2127   19.8698 C   0  0  2  0  0  0
  -28.7028  -13.0245   20.9909 C   0  0  0  0  0  0
  -25.2570  -13.8176   20.5727 C   0  0  0  0  0  0
  -24.1820  -13.0421   20.9198 C   0  0  0  0  0  0
  -24.6397  -11.6895   20.8747 C   0  0  0  0  0  0
  -23.9048  -10.4286   21.0403 C   0  0  0  0  0  0
  -24.3600   -9.4207   21.9184 C   0  0  0  0  0  0
  -23.6269   -8.2252   22.0767 C   0  0  0  0  0  0
  -22.4254   -8.0281   21.3558 C   0  0  0  0  0  0
  -21.9893   -9.0243   20.4650 C   0  0  0  0  0  0
  -22.7222  -10.2122   20.3050 C   0  0  0  0  0  0
  -21.6850   -6.0719   22.5271 C   0  0  0  0  0  0
  -21.4016   -6.5632   23.8201 C   0  0  0  0  0  0
  -21.3667   -5.6789   24.9165 C   0  0  0  0  0  0
  -21.6056   -4.3050   24.7227 C   0  0  0  0  0  0
  -21.8826   -3.8138   23.4346 C   0  0  0  0  0  0
  -21.9197   -4.6950   22.3400 C   0  0  0  0  0  0
  -22.7846  -13.5220   21.1839 C   0  0  0  0  0  0
  -22.1671   -4.2138   21.0980 F   0  0  0  0  0  0
  -21.5623   -3.4545   25.7741 F   0  0  0  0  0  0
  -30.0194  -13.3294   20.4155 N   0  0  0  0  0  0
  -26.3003  -12.9361   20.3380 N   0  0  0  0  0  0
  -25.9327  -11.6507   20.5784 N   0  0  0  0  0  0
  -22.0472  -12.8205   22.0381 N   0  0  0  0  0  0
  -25.4228  -15.1903   20.4204 N   0  0  0  0  0  0
  -31.8750  -14.6147   20.1775 O   0  0  0  0  0  0
  -21.6640   -6.8858   21.4232 O   0  0  0  0  0  0
  -22.3535  -14.5536   20.6696 O   0  0  0  0  0  0
  -24.6148  -31.8697   23.2119 C   0  0  0  0  0  0
  -25.9052  -32.4831   23.8411 C   0  0  1  0  0  0
  -27.2213  -27.4262   20.0855 C   0  0  0  0  0  0
  -25.5932  -33.8630   24.2357 N   0  0  0  0  0  0
  -23.4006  -30.4986   21.5524 C   0  0  2  0  0  0
  -24.8421  -28.9661   20.1139 C   0  0  0  0  0  0
  -22.7394  -29.4691   22.4976 C   0  0  0  0  0  0
  -18.0269  -28.1387   22.8480 C   0  0  0  0  0  0
  -24.1493  -36.7317   23.2631 C   0  0  0  0  0  0
  -25.9330  -30.8336   21.3646 C   0  0  0  0  0  0
  -26.0048  -29.4678   20.7093 C   0  0  0  0  0  0
  -27.1968  -28.7057   20.6915 C   0  0  0  0  0  0
  -26.0346  -26.9468   19.4806 C   0  0  0  0  0  0
  -24.8512  -27.7044   19.4999 C   0  0  0  0  0  0
  -23.6075  -29.8367   20.1647 C   0  0  0  0  0  0
  -25.4109  -36.3120   24.0344 C   0  0  1  0  0  0
  -20.5857  -28.3678   23.1299 C   0  0  2  0  0  0
  -20.6767  -26.9408   22.5406 C   0  0  0  0  0  0
  -19.5741  -26.6341   21.5227 C   0  0  0  0  0  0
  -18.1906  -26.7925   22.1616 C   0  0  0  0  0  0
  -19.1520  -28.8844   23.2896 C   0  0  0  0  0  0
  -18.9464  -30.1432   23.8936 C   0  0  0  0  0  0
  -17.6468  -30.6577   24.0601 C   0  0  0  0  0  0
  -25.9044  -34.9477   23.5146 C   0  0  0  0  0  0
  -16.5355  -29.9099   23.6338 C   0  0  0  0  0  0
  -16.7265  -28.6517   23.0333 C   0  0  0  0  0  0
  -26.4484  -31.6585   25.0722 C   0  0  0  0  0  0
  -25.3773  -31.3690   26.1494 C   0  0  0  0  0  0
  -27.0280  -30.3017   24.6084 C   0  0  0  0  0  0
  -27.6087  -32.4277   25.7458 C   0  0  0  0  0  0
  -27.5590  -37.1803   24.8462 C   0  0  0  0  0  0
  -21.4121  -29.3055   22.3699 N   0  0  0  0  0  0
  -26.4298  -37.3805   23.9416 N   0  0  0  0  0  0
  -24.6683  -31.0809   22.1013 N   0  0  0  0  0  0
  -23.4168  -28.8204   23.2992 O   0  0  0  0  0  0
  -28.3881  -26.6829   20.1133 O   0  0  0  0  0  0
  -26.5578  -34.8918   22.4691 O   0  0  0  0  0  0
  -23.5339  -32.1448   23.7524 O   0  0  0  0  0  0
  -26.2553  -18.2709   18.9989 C   0  0  0  0  0  0
  -28.0295  -19.8536   20.3164 C   0  0  0  0  0  0
  -28.1665  -18.4301   20.2464 C   0  0  0  0  0  0
  -26.8694  -20.3693   19.6684 C   0  0  0  0  0  0
  -29.0837  -16.2382   21.5241 C   0  0  0  0  0  0
  -30.3363  -16.9259   19.9432 C   0  0  0  0  0  0
  -29.3192  -17.6057   20.8552 C   0  0  0  0  0  0
  -26.4468  -21.8264   19.6127 C   0  0  0  0  0  0
  -29.0887  -20.6780   21.0995 C   0  0  0  0  0  0
  -29.0087  -22.2263   21.3069 C   0  0  0  0  0  0
  -29.5444  -24.5235   20.3869 C   0  0  0  0  0  0
  -28.2740  -25.2624   19.9072 C   0  0  0  0  0  0
  -27.2830  -17.6731   19.5705 N   0  0  0  0  0  0
  -26.0055  -19.5673   19.0258 N   0  0  0  0  0  0
  -29.9170  -15.6215   20.4815 N   0  0  0  0  0  0
  -29.5189  -23.0422   20.1712 N   0  3  0  0  0  0
  -31.4651  -12.4090   19.1237 H   0  0  0  0  0  0
  -30.3211  -11.3156   19.8530 H   0  0  0  0  0  0
  -29.7321  -11.7407   17.4457 H   0  0  0  0  0  0
  -29.6590  -13.4600   17.7447 H   0  0  0  0  0  0
  -27.8209  -11.3042   18.8321 H   0  0  0  0  0  0
  -27.3611  -12.6266   17.7916 H   0  0  0  0  0  0
  -27.6839  -14.2555   19.5527 H   0  0  0  0  0  0
  -28.6855  -11.9985   21.3604 H   0  0  0  0  0  0
  -28.4844  -13.6497   21.8546 H   0  0  0  0  0  0
  -25.2755   -9.5682   22.4750 H   0  0  0  0  0  0
  -23.9978   -7.4656   22.7501 H   0  0  0  0  0  0
  -21.0833   -8.8748   19.8955 H   0  0  0  0  0  0
  -22.3683  -10.9650   19.6147 H   0  0  0  0  0  0
  -21.2018   -7.6146   23.9688 H   0  0  0  0  0  0
  -21.1480   -6.0529   25.9060 H   0  0  0  0  0  0
  -22.0605   -2.7604   23.2846 H   0  0  0  0  0  0
  -22.4072  -11.9861   22.4777 H   0  0  0  0  0  0
  -21.1095  -13.1253   22.2577 H   0  0  0  0  0  0
  -24.6594  -15.8341   20.5895 H   0  0  0  0  0  0
  -26.2789  -15.6601   20.1387 H   0  0  0  0  0  0
  -26.7115  -32.5530   23.1159 H   0  0  0  0  0  0
  -25.0135  -33.9813   25.0540 H   0  0  0  0  0  0
  -22.6915  -31.3170   21.4160 H   0  0  0  0  0  0
  -23.3759  -35.9647   23.3288 H   0  0  0  0  0  0
  -24.3597  -36.8935   22.2047 H   0  0  0  0  0  0
  -23.7224  -37.6519   23.6636 H   0  0  0  0  0  0
  -26.0492  -31.5988   20.5960 H   0  0  0  0  0  0
  -26.8201  -30.8839   21.9824 H   0  0  0  0  0  0
  -28.0936  -29.0907   21.1568 H   0  0  0  0  0  0
  -25.9937  -25.9893   18.9840 H   0  0  0  0  0  0
  -23.9559  -27.3151   19.0356 H   0  0  0  0  0  0
  -23.7211  -30.6167   19.4102 H   0  0  0  0  0  0
  -22.7278  -29.2648   19.8643 H   0  0  0  0  0  0
  -25.1271  -36.1999   25.0837 H   0  0  0  0  0  0
  -20.9964  -28.3244   24.1412 H   0  0  0  0  0  0
  -20.5700  -26.2298   23.3611 H   0  0  0  0  0  0
  -21.6625  -26.7449   22.1184 H   0  0  0  0  0  0
  -19.6694  -27.3090   20.6713 H   0  0  0  0  0  0
  -19.6886  -25.6221   21.1321 H   0  0  0  0  0  0
  -17.4177  -26.6654   21.4012 H   0  0  0  0  0  0
  -18.0323  -26.0082   22.9046 H   0  0  0  0  0  0
  -19.7952  -30.7223   24.2320 H   0  0  0  0  0  0
  -17.5035  -31.6244   24.5224 H   0  0  0  0  0  0
  -15.5360  -30.3009   23.7659 H   0  0  0  0  0  0
  -15.8667  -28.0861   22.7021 H   0  0  0  0  0  0
  -24.5995  -30.6959   25.7867 H   0  0  0  0  0  0
  -24.8902  -32.2837   26.4887 H   0  0  0  0  0  0
  -25.8173  -30.8940   27.0274 H   0  0  0  0  0  0
  -26.2799  -29.6788   24.1170 H   0  0  0  0  0  0
  -27.4075  -29.7242   25.4520 H   0  0  0  0  0  0
  -27.8634  -30.4314   23.9198 H   0  0  0  0  0  0
  -27.2757  -33.3584   26.2058 H   0  0  0  0  0  0
  -28.3881  -32.6821   25.0261 H   0  0  0  0  0  0
  -28.0779  -31.8381   26.5349 H   0  0  0  0  0  0
  -28.2611  -38.0097   24.7521 H   0  0  0  0  0  0
  -28.1085  -36.2634   24.6267 H   0  0  0  0  0  0
  -27.2323  -37.1431   25.8870 H   0  0  0  0  0  0
  -20.9261  -29.8867   21.7010 H   0  0  0  0  0  0
  -26.0195  -38.2891   24.1420 H   0  0  0  0  0  0
  -25.5440  -17.6447   18.4824 H   0  0  0  0  0  0
  -28.0390  -15.9274   21.5127 H   0  0  0  0  0  0
  -29.5061  -16.1689   22.5270 H   0  0  0  0  0  0
  -31.3644  -17.2025   20.1832 H   0  0  0  0  0  0
  -30.1287  -17.0551   18.8809 H   0  0  0  0  0  0
  -29.8584  -18.2231   21.5703 H   0  0  0  0  0  0
  -26.1582  -22.1927   20.5970 H   0  0  0  0  0  0
  -25.5773  -21.9611   18.9677 H   0  0  0  0  0  0
  -27.2267  -22.4464   19.1846 H   0  0  0  0  0  0
  -30.0670  -20.4416   20.6785 H   0  0  0  0  0  0
  -29.1008  -20.2535   22.1050 H   0  0  0  0  0  0
  -29.6682  -22.4600   22.1460 H   0  0  0  0  0  0
  -28.0266  -22.5481   21.6462 H   0  0  0  0  0  0
  -29.7343  -24.7556   21.4370 H   0  0  0  0  0  0
  -30.3935  -24.9230   19.8305 H   0  0  0  0  0  0
  -27.4144  -24.8692   20.4534 H   0  0  0  0  0  0
  -28.1071  -25.0687   18.8455 H   0  0  0  0  0  0
  -29.0435  -22.8121   19.3136 H   0  0  0  0  0  0
  -30.4789  -22.7607   20.0421 H   0  0  0  0  0  0
  1 25  1  0  0  0
  1 30  2  0  0  0
  1 85  1  0  0  0
  2  3  1  0  0  0
  2 25  1  0  0  0
  2 87  1  0  0  0
  2 88  1  0  0  0
  3  4  1  0  0  0
  3 89  1  0  0  0
  3 90  1  0  0  0
  4  5  1  0  0  0
  4 91  1  0  0  0
  4 92  1  0  0  0
  5  6  1  0  0  0
  5 26  1  0  0  0
  5 93  1  0  0  0
  6 25  1  0  0  0
  6 94  1  0  0  0
  6 95  1  0  0  0
  7  8  2  0  0  0
  7 26  1  0  0  0
  7 29  1  0  0  0
  8  9  1  0  0  0
  8 22  1  0  0  0
  9 10  1  0  0  0
  9 27  2  0  0  0
 10 11  2  0  0  0
 10 15  1  0  0  0
 11 12  1  0  0  0
 11 96  1  0  0  0
 12 13  2  0  0  0
 12 97  1  0  0  0
 13 14  1  0  0  0
 13 31  1  0  0  0
 14 15  2  0  0  0
 14 98  1  0  0  0
 15 99  1  0  0  0
 16 17  2  0  0  0
 16 21  1  0  0  0
 16 31  1  0  0  0
 17 18  1  0  0  0
 17100  1  0  0  0
 18 19  2  0  0  0
 18101  1  0  0  0
 19 20  1  0  0  0
 19 24  1  0  0  0
 20 21  2  0  0  0
 20102  1  0  0  0
 21 23  1  0  0  0
 22 28  1  0  0  0
 22 32  2  0  0  0
 26 27  1  0  0  0
 28103  1  0  0  0
 28104  1  0  0  0
 29105  1  0  0  0
 29106  1  0  0  0
 33 34  1  0  0  0
 33 66  1  0  0  0
 33 70  2  0  0  0
 34 36  1  0  0  0
 34 59  1  0  0  0
 34107  1  0  0  0
 35 44  2  0  0  0
 35 45  1  0  0  0
 35 68  1  0  0  0
 36 56  1  0  0  0
 36108  1  0  0  0
 37 39  1  0  0  0
 37 47  1  0  0  0
 37 66  1  0  0  0
 37109  1  0  0  0
 38 43  2  0  0  0
 38 46  1  0  0  0
 38 47  1  0  0  0
 39 64  1  0  0  0
 39 67  2  0  0  0
 40 52  1  0  0  0
 40 53  2  0  0  0
 40 58  1  0  0  0
 41110  1  0  0  0
 41111  1  0  0  0
 41112  1  0  0  0
 41 48  1  0  0  0
 42 43  1  0  0  0
 42 66  1  0  0  0
 42113  1  0  0  0
 42114  1  0  0  0
 43 44  1  0  0  0
 44115  1  0  0  0
 45 46  2  0  0  0
 45116  1  0  0  0
 46117  1  0  0  0
 47118  1  0  0  0
 47119  1  0  0  0
 48 56  1  0  0  0
 48 65  1  0  0  0
 48120  1  0  0  0
 49 50  1  0  0  0
 49 53  1  0  0  0
 49 64  1  0  0  0
 49121  1  0  0  0
 50 51  1  0  0  0
 50122  1  0  0  0
 50123  1  0  0  0
 51 52  1  0  0  0
 51124  1  0  0  0
 51125  1  0  0  0
 52126  1  0  0  0
 52127  1  0  0  0
 53 54  1  0  0  0
 54 55  2  0  0  0
 54128  1  0  0  0
 55 57  1  0  0  0
 55129  1  0  0  0
 56 69  2  0  0  0
 57 58  2  0  0  0
 57130  1  0  0  0
 58131  1  0  0  0
 59 60  1  0  0  0
 59 61  1  0  0  0
 59 62  1  0  0  0
 60132  1  0  0  0
 60133  1  0  0  0
 60134  1  0  0  0
 61135  1  0  0  0
 61136  1  0  0  0
 61137  1  0  0  0
 62138  1  0  0  0
 62139  1  0  0  0
 62140  1  0  0  0
 63 65  1  0  0  0
 63141  1  0  0  0
 63142  1  0  0  0
 63143  1  0  0  0
 64144  1  0  0  0
 65145  1  0  0  0
 68 82  1  0  0  0
 71 83  2  0  0  0
 71 84  1  0  0  0
 71146  1  0  0  0
 72 73  2  0  0  0
 72 74  1  0  0  0
 72 79  1  0  0  0
 73 83  1  0  0  0
 73 77  1  0  0  0
 74 78  1  0  0  0
 74 84  2  0  0  0
 75 77  1  0  0  0
 75 85  1  0  0  0
 75147  1  0  0  0
 75148  1  0  0  0
 76 77  1  0  0  0
 76 85  1  0  0  0
 76149  1  0  0  0
 76150  1  0  0  0
 77151  1  0  0  0
 78152  1  0  0  0
 78153  1  0  0  0
 78154  1  0  0  0
 79 80  1  0  0  0
 79155  1  0  0  0
 79156  1  0  0  0
 80 86  1  0  0  0
 80157  1  0  0  0
 80158  1  0  0  0
 81 82  1  0  0  0
 81 86  1  0  0  0
 81159  1  0  0  0
 81160  1  0  0  0
 82161  1  0  0  0
 82162  1  0  0  0
 86163  1  0  0  0
 86164  1  0  0  0
M  CHG  1  86   1
M  ISO  4   1 100  68 101  82 101  85 100
M  END
> <chiral flag>
0

> <version>
0

> <s_m_source_file>
/data/baiqing/PycharmProjects/Reinvent-master-3.2/result/LINK_invent/BTK/process_docking_weight1_custom_sum_contain_oxygen_bond_distance_aromatic_linkinvent_7_9_3/rearranged_h_0192.sdf

> <i_m_source_file_index>
82

> <r_mmod_Potential_Energy-OPLS-2005>
-401.744018554688

> <r_mmod_Stretch_Energy-OPLS-2005>
44.8005752563477

> <r_mmod_Bend_Energy-OPLS-2005>
139.550994873047

> <r_mmod_Torsional_Energy-OPLS-2005>
294.653869628906

> <r_mmod_Improper_Torsional_Energy-OPLS-2005>
20.6769542694092

> <r_mmod_Van_der_Waal_Energy-OPLS-2005>
155.808898925781

> <r_mmod_Electrostatic_Energy-OPLS-2005>
-594.49658203125

> <r_mmod_Solvation_Energy-OPLS-2005>
-482.932067871094

> <b_mmod_Minimization_Converged-OPLS-2005>
0

> <r_mmod_RMS_Derivative-OPLS-2005>
2.77989292144775

$$$$
82
                    3D
 Structure written by MMmdl.
154163  0  0  1  0            999 V2000
  -30.6242  -14.7985   20.4217 C   0  0  0  0  0  0
  -30.4248  -12.4910   19.4703 C   0  0  0  0  0  0
  -29.5008  -12.4869   18.2334 C   0  0  0  0  0  0
  -28.0360  -12.2915   18.6660 C   0  0  0  0  0  0
  -27.6287  -13.2307   19.8322 C   0  0  2  0  0  0
  -28.6764  -13.2391   20.9657 C   0  0  0  0  0  0
  -25.2460  -13.8175   20.5645 C   0  0  0  0  0  0
  -24.1785  -13.0416   20.9245 C   0  0  0  0  0  0
  -24.6408  -11.6911   20.8789 C   0  0  0  0  0  0
  -23.9099  -10.4278   21.0430 C   0  0  0  0  0  0
  -24.3660   -9.4176   21.9183 C   0  0  0  0  0  0
  -23.6331   -8.2209   22.0731 C   0  0  0  0  0  0
  -22.4306   -8.0265   21.3525 C   0  0  0  0  0  0
  -21.9956   -9.0244   20.4641 C   0  0  0  0  0  0
  -22.7284  -10.2124   20.3070 C   0  0  0  0  0  0
  -21.6853   -6.0755   22.5288 C   0  0  0  0  0  0
  -21.4011   -6.5660   23.8218 C   0  0  0  0  0  0
  -21.3645   -5.6806   24.9176 C   0  0  0  0  0  0
  -21.6039   -4.3067   24.7238 C   0  0  0  0  0  0
  -21.8810   -3.8168   23.4357 C   0  0  0  0  0  0
  -21.9184   -4.6986   22.3417 C   0  0  0  0  0  0
  -22.7810  -13.5168   21.1915 C   0  0  0  0  0  0
  -22.1651   -4.2174   21.0994 F   0  0  0  0  0  0
  -21.5634   -3.4548   25.7748 F   0  0  0  0  0  0
  -29.9651  -13.5858   20.3579 N   0  0  0  0  0  0
  -26.2889  -12.9396   20.3244 N   0  0  0  0  0  0
  -25.9332  -11.6544   20.5800 N   0  0  0  0  0  0
  -22.0531  -12.8094   22.0506 N   0  0  0  0  0  0
  -25.4071  -15.1897   20.3897 N   0  0  0  0  0  0
  -31.8378  -14.8200   20.1925 O   0  0  0  0  0  0
  -21.6639   -6.8888   21.4243 O   0  0  0  0  0  0
  -22.3451  -14.5455   20.6763 O   0  0  0  0  0  0
  -24.6346  -31.8499   23.2036 C   0  0  0  0  0  0
  -25.9192  -32.4710   23.8338 C   0  0  1  0  0  0
  -27.2067  -27.2182   20.1210 C   0  0  0  0  0  0
  -25.5985  -33.8521   24.2246 N   0  0  0  0  0  0
  -23.4334  -30.4797   21.5444 C   0  0  2  0  0  0
  -24.8821  -28.9376   20.1020 C   0  0  0  0  0  0
  -22.7533  -29.4570   22.4889 C   0  0  0  0  0  0
  -18.0304  -28.1354   22.8480 C   0  0  0  0  0  0
  -24.1498  -36.7264   23.2648 C   0  0  0  0  0  0
  -25.9877  -30.7477   21.3995 C   0  0  0  0  0  0
  -26.0575  -29.3730   20.7273 C   0  0  0  0  0  0
  -27.2218  -28.5282   20.7284 C   0  0  0  0  0  0
  -26.0094  -26.8864   19.4419 C   0  0  0  0  0  0
  -24.8660  -27.7026   19.4454 C   0  0  0  0  0  0
  -23.6539  -29.8268   20.1559 C   0  0  0  0  0  0
  -25.4138  -36.3052   24.0312 C   0  0  1  0  0  0
  -20.5915  -28.3672   23.1230 C   0  0  2  0  0  0
  -20.6791  -26.9377   22.5394 C   0  0  0  0  0  0
  -19.5773  -26.6351   21.5196 C   0  0  0  0  0  0
  -18.1955  -26.7886   22.1620 C   0  0  0  0  0  0
  -19.1558  -28.8839   23.2839 C   0  0  0  0  0  0
  -18.9480  -30.1442   23.8832 C   0  0  0  0  0  0
  -17.6482  -30.6555   24.0547 C   0  0  0  0  0  0
  -25.9081  -34.9408   23.5081 C   0  0  0  0  0  0
  -16.5376  -29.9046   23.6318 C   0  0  0  0  0  0
  -16.7287  -28.6463   23.0342 C   0  0  0  0  0  0
  -26.4574  -31.6567   25.0741 C   0  0  0  0  0  0
  -25.3817  -31.3684   26.1466 C   0  0  0  0  0  0
  -27.0485  -30.2976   24.6315 C   0  0  0  0  0  0
  -27.6069  -32.4374   25.7503 C   0  0  0  0  0  0
  -27.5574  -37.1801   24.8475 C   0  0  0  0  0  0
  -21.4244  -29.3009   22.3625 N   0  0  0  0  0  0
  -26.4313  -37.3742   23.9391 N   0  0  0  0  0  0
  -24.7027  -31.0439   22.1027 N   0  0  0  0  0  0
  -23.4219  -28.8079   23.2986 O   0  0  0  0  0  0
  -28.2460  -26.2374   20.2090 O   0  0  0  0  0  0
  -26.5623  -34.8877   22.4625 O   0  0  0  0  0  0
  -23.5490  -32.1340   23.7314 O   0  0  0  0  0  0
  -28.3277  -22.5730   21.3444 C   0  0  0  0  0  0
  -29.5463  -21.4416   19.2430 C   0  0  0  0  0  0
  -28.6251  -23.4183   20.2235 C   0  0  0  0  0  0
  -29.2028  -20.5888   20.3452 C   0  0  0  0  0  0
  -29.6452  -18.3969   21.6407 C   0  0  0  0  0  0
  -29.2045  -18.2054   19.2495 C   0  0  0  0  0  0
  -30.5276  -17.0942   21.4565 C   0  0  0  0  0  0
  -29.0199  -16.6425   19.6173 C   0  0  0  0  0  0
  -27.8373  -24.7955   19.9324 C   0  0  0  0  0  0
  -29.2705  -22.7981   19.1799 N   0  0  0  0  0  0
  -28.6193  -21.2182   21.4131 N   0  0  0  0  0  0
  -29.4307  -19.1397   20.3886 N   0  0  0  0  0  0
  -29.9336  -16.0039   20.6258 N   0  0  0  0  0  0
  -31.4637  -12.6183   19.1577 H   0  0  0  0  0  0
  -30.3823  -11.5354   19.9988 H   0  0  0  0  0  0
  -29.7958  -11.6879   17.5512 H   0  0  0  0  0  0
  -29.6027  -13.4236   17.6828 H   0  0  0  0  0  0
  -27.9349  -11.2533   18.9866 H   0  0  0  0  0  0
  -27.3608  -12.4120   17.8161 H   0  0  0  0  0  0
  -27.5930  -14.2312   19.4042 H   0  0  0  0  0  0
  -28.7337  -12.2699   21.4621 H   0  0  0  0  0  0
  -28.4042  -13.9674   21.7330 H   0  0  0  0  0  0
  -25.2826   -9.5633   22.4745 H   0  0  0  0  0  0
  -24.0048   -7.4592   22.7435 H   0  0  0  0  0  0
  -21.0890   -8.8788   19.8952 H   0  0  0  0  0  0
  -22.3763  -10.9676   19.6193 H   0  0  0  0  0  0
  -21.1998   -7.6167   23.9740 H   0  0  0  0  0  0
  -21.1469   -6.0530   25.9075 H   0  0  0  0  0  0
  -22.0603   -2.7641   23.2839 H   0  0  0  0  0  0
  -22.4239  -11.9767   22.4842 H   0  0  0  0  0  0
  -21.1143  -13.1022   22.2787 H   0  0  0  0  0  0
  -24.6220  -15.8287   20.4581 H   0  0  0  0  0  0
  -26.2349  -15.6262   20.0051 H   0  0  0  0  0  0
  -26.7252  -32.5337   23.1057 H   0  0  0  0  0  0
  -25.0195  -33.9648   25.0435 H   0  0  0  0  0  0
  -22.7306  -31.3021   21.4032 H   0  0  0  0  0  0
  -23.3747  -35.9623   23.3375 H   0  0  0  0  0  0
  -24.3549  -36.8820   22.2054 H   0  0  0  0  0  0
  -23.7315  -37.6502   23.6627 H   0  0  0  0  0  0
  -26.1590  -31.5211   20.6489 H   0  0  0  0  0  0
  -26.8526  -30.7675   22.0507 H   0  0  0  0  0  0
  -28.1091  -28.8557   21.2517 H   0  0  0  0  0  0
  -25.8851  -25.9574   18.9075 H   0  0  0  0  0  0
  -23.9715  -27.3669   18.9377 H   0  0  0  0  0  0
  -23.7828  -30.6085   19.4075 H   0  0  0  0  0  0
  -22.7718  -29.2667   19.8425 H   0  0  0  0  0  0
  -25.1345  -36.1878   25.0811 H   0  0  0  0  0  0
  -21.0001  -28.3243   24.1350 H   0  0  0  0  0  0
  -20.5689  -26.2271   23.3603 H   0  0  0  0  0  0
  -21.6656  -26.7383   22.1180 H   0  0  0  0  0  0
  -19.6941  -25.6264   21.1202 H   0  0  0  0  0  0
  -19.6710  -27.3164   20.6732 H   0  0  0  0  0  0
  -17.4228  -26.6620   21.4014 H   0  0  0  0  0  0
  -18.0367  -26.0020   22.9014 H   0  0  0  0  0  0
  -19.7970  -30.7289   24.2126 H   0  0  0  0  0  0
  -17.5035  -31.6204   24.5214 H   0  0  0  0  0  0
  -15.5369  -30.2936   23.7668 H   0  0  0  0  0  0
  -15.8686  -28.0768   22.7064 H   0  0  0  0  0  0
  -24.5943  -30.7095   25.7785 H   0  0  0  0  0  0
  -24.9098  -32.2849   26.4989 H   0  0  0  0  0  0
  -25.8164  -30.8762   27.0176 H   0  0  0  0  0  0
  -26.3119  -29.6651   24.1350 H   0  0  0  0  0  0
  -27.4162  -29.7290   25.4870 H   0  0  0  0  0  0
  -27.8978  -30.4235   23.9601 H   0  0  0  0  0  0
  -27.2602  -33.3651   26.2052 H   0  0  0  0  0  0
  -28.3871  -32.7004   25.0349 H   0  0  0  0  0  0
  -28.0767  -31.8571   26.5454 H   0  0  0  0  0  0
  -28.2641  -38.0046   24.7448 H   0  0  0  0  0  0
  -28.1026  -36.2573   24.6421 H   0  0  0  0  0  0
  -27.2238  -37.1577   25.8861 H   0  0  0  0  0  0
  -20.9443  -29.8749   21.6822 H   0  0  0  0  0  0
  -26.0179  -38.2808   24.1378 H   0  0  0  0  0  0
  -27.7382  -22.9558   22.1666 H   0  0  0  0  0  0
  -30.0509  -21.0280   18.3826 H   0  0  0  0  0  0
  -30.1235  -19.0558   22.3655 H   0  0  0  0  0  0
  -28.6771  -18.1208   22.0621 H   0  0  0  0  0  0
  -28.3147  -18.5278   18.6993 H   0  0  0  0  0  0
  -30.0277  -18.3162   18.5390 H   0  0  0  0  0  0
  -30.7248  -16.6757   22.4449 H   0  0  0  0  0  0
  -31.5039  -17.3710   21.0502 H   0  0  0  0  0  0
  -29.0174  -16.0536   18.6986 H   0  0  0  0  0  0
  -28.0200  -16.5221   20.0345 H   0  0  0  0  0  0
  -26.8857  -24.6321   20.4390 H   0  0  0  0  0  0
  -27.6268  -24.7485   18.8648 H   0  0  0  0  0  0
  1 25  1  0  0  0
  1 30  2  0  0  0
  1 83  1  0  0  0
  2  3  1  0  0  0
  2 25  1  0  0  0
  2 84  1  0  0  0
  2 85  1  0  0  0
  3  4  1  0  0  0
  3 86  1  0  0  0
  3 87  1  0  0  0
  4  5  1  0  0  0
  4 88  1  0  0  0
  4 89  1  0  0  0
  5  6  1  0  0  0
  5 26  1  0  0  0
  5 90  1  0  0  0
  6 25  1  0  0  0
  6 91  1  0  0  0
  6 92  1  0  0  0
  7  8  2  0  0  0
  7 26  1  0  0  0
  7 29  1  0  0  0
  8  9  1  0  0  0
  8 22  1  0  0  0
  9 10  1  0  0  0
  9 27  2  0  0  0
 10 11  2  0  0  0
 10 15  1  0  0  0
 11 12  1  0  0  0
 11 93  1  0  0  0
 12 13  2  0  0  0
 12 94  1  0  0  0
 13 14  1  0  0  0
 13 31  1  0  0  0
 14 15  2  0  0  0
 14 95  1  0  0  0
 15 96  1  0  0  0
 16 17  2  0  0  0
 16 21  1  0  0  0
 16 31  1  0  0  0
 17 18  1  0  0  0
 17 97  1  0  0  0
 18 19  2  0  0  0
 18 98  1  0  0  0
 19 20  1  0  0  0
 19 24  1  0  0  0
 20 21  2  0  0  0
 20 99  1  0  0  0
 21 23  1  0  0  0
 22 28  1  0  0  0
 22 32  2  0  0  0
 26 27  1  0  0  0
 28100  1  0  0  0
 28101  1  0  0  0
 29102  1  0  0  0
 29103  1  0  0  0
 33 34  1  0  0  0
 33 66  1  0  0  0
 33 70  2  0  0  0
 34 36  1  0  0  0
 34 59  1  0  0  0
 34104  1  0  0  0
 35 44  2  0  0  0
 35 45  1  0  0  0
 35 68  1  0  0  0
 36 56  1  0  0  0
 36105  1  0  0  0
 37 39  1  0  0  0
 37 47  1  0  0  0
 37 66  1  0  0  0
 37106  1  0  0  0
 38 43  2  0  0  0
 38 46  1  0  0  0
 38 47  1  0  0  0
 39 64  1  0  0  0
 39 67  2  0  0  0
 40 52  1  0  0  0
 40 53  2  0  0  0
 40 58  1  0  0  0
 41107  1  0  0  0
 41108  1  0  0  0
 41109  1  0  0  0
 41 48  1  0  0  0
 42 43  1  0  0  0
 42 66  1  0  0  0
 42110  1  0  0  0
 42111  1  0  0  0
 43 44  1  0  0  0
 44112  1  0  0  0
 45 46  2  0  0  0
 45113  1  0  0  0
 46114  1  0  0  0
 47115  1  0  0  0
 47116  1  0  0  0
 48 56  1  0  0  0
 48 65  1  0  0  0
 48117  1  0  0  0
 49 50  1  0  0  0
 49 53  1  0  0  0
 49 64  1  0  0  0
 49118  1  0  0  0
 50 51  1  0  0  0
 50119  1  0  0  0
 50120  1  0  0  0
 51 52  1  0  0  0
 51121  1  0  0  0
 51122  1  0  0  0
 52123  1  0  0  0
 52124  1  0  0  0
 53 54  1  0  0  0
 54 55  2  0  0  0
 54125  1  0  0  0
 55 57  1  0  0  0
 55126  1  0  0  0
 56 69  2  0  0  0
 57 58  2  0  0  0
 57127  1  0  0  0
 58128  1  0  0  0
 59 60  1  0  0  0
 59 61  1  0  0  0
 59 62  1  0  0  0
 60129  1  0  0  0
 60130  1  0  0  0
 60131  1  0  0  0
 61132  1  0  0  0
 61133  1  0  0  0
 61134  1  0  0  0
 62135  1  0  0  0
 62136  1  0  0  0
 62137  1  0  0  0
 63 65  1  0  0  0
 63138  1  0  0  0
 63139  1  0  0  0
 63140  1  0  0  0
 64141  1  0  0  0
 65142  1  0  0  0
 68 79  1  0  0  0
 71 73  2  0  0  0
 71 81  1  0  0  0
 71143  1  0  0  0
 72 74  1  0  0  0
 72 80  2  0  0  0
 72144  1  0  0  0
 73 79  1  0  0  0
 73 80  1  0  0  0
 74 81  2  0  0  0
 74 82  1  0  0  0
 75 77  1  0  0  0
 75 82  1  0  0  0
 75145  1  0  0  0
 75146  1  0  0  0
 76 78  1  0  0  0
 76 82  1  0  0  0
 76147  1  0  0  0
 76148  1  0  0  0
 77 83  1  0  0  0
 77149  1  0  0  0
 77150  1  0  0  0
 78 83  1  0  0  0
 78151  1  0  0  0
 78152  1  0  0  0
 79153  1  0  0  0
 79154  1  0  0  0
M  ISO  4   1 100  68 101  79 101  83 100
M  END
> <chiral flag>
0

> <version>
0

> <s_m_source_file>
/data/baiqing/PycharmProjects/Reinvent-master-3.2/result/LINK_invent/BTK/process_docking_weight1_custom_sum_contain_oxygen_bond_distance_aromatic_linkinvent_7_9_3/rearranged_h_0192.sdf

> <i_m_source_file_index>
83

> <r_mmod_Potential_Energy-OPLS-2005>
555.071044921875

> <r_mmod_Stretch_Energy-OPLS-2005>
143.303680419922

> <r_mmod_Bend_Energy-OPLS-2005>
213.35270690918

> <r_mmod_Torsional_Energy-OPLS-2005>
371.200378417969

> <r_mmod_Improper_Torsional_Energy-OPLS-2005>
9.88640975952148

> <r_mmod_Van_der_Waal_Energy-OPLS-2005>
157.321914672852

> <r_mmod_Electrostatic_Energy-OPLS-2005>
-230.973037719727

> <r_mmod_Solvation_Energy-OPLS-2005>
-233.745330810547

> <b_mmod_Minimization_Converged-OPLS-2005>
0

> <r_mmod_RMS_Derivative-OPLS-2005>
5.04867172241211

$$$$
83
                    3D
 Structure written by MMmdl.
167175  0  0  1  0            999 V2000
  -30.6758  -14.4858   20.5523 C   0  0  0  0  0  0
  -30.4301  -12.3073   19.4250 C   0  0  0  0  0  0
  -29.4990  -12.4945   18.2078 C   0  0  0  0  0  0
  -28.0187  -12.3599   18.6193 C   0  0  0  0  0  0
  -27.6631  -13.2020   19.8745 C   0  0  2  0  0  0
  -28.7045  -12.9802   20.9959 C   0  0  0  0  0  0
  -25.2597  -13.8150   20.5661 C   0  0  0  0  0  0
  -24.1843  -13.0437   20.9159 C   0  0  0  0  0  0
  -24.6393  -11.6903   20.8727 C   0  0  0  0  0  0
  -23.9058  -10.4293   21.0408 C   0  0  0  0  0  0
  -24.3613   -9.4208   21.9182 C   0  0  0  0  0  0
  -23.6289   -8.2245   22.0758 C   0  0  0  0  0  0
  -22.4269   -8.0284   21.3550 C   0  0  0  0  0  0
  -21.9901   -9.0259   20.4655 C   0  0  0  0  0  0
  -22.7228  -10.2140   20.3061 C   0  0  0  0  0  0
  -21.6853   -6.0733   22.5279 C   0  0  0  0  0  0
  -21.4016   -6.5638   23.8214 C   0  0  0  0  0  0
  -21.3657   -5.6788   24.9175 C   0  0  0  0  0  0
  -21.6045   -4.3052   24.7224 C   0  0  0  0  0  0
  -21.8821   -3.8141   23.4348 C   0  0  0  0  0  0
  -21.9191   -4.6959   22.3403 C   0  0  0  0  0  0
  -22.7868  -13.5246   21.1824 C   0  0  0  0  0  0
  -22.1661   -4.2145   21.0982 F   0  0  0  0  0  0
  -21.5627   -3.4534   25.7737 F   0  0  0  0  0  0
  -30.0355  -13.2906   20.4451 N   0  0  0  0  0  0
  -26.3030  -12.9308   20.3351 N   0  0  0  0  0  0
  -25.9317  -11.6475   20.5757 N   0  0  0  0  0  0
  -22.0502  -12.8254   22.0391 N   0  0  0  0  0  0
  -25.4317  -15.1869   20.4082 N   0  0  0  0  0  0
  -31.8092  -14.6851   20.1058 O   0  0  0  0  0  0
  -21.6641   -6.8878   21.4244 O   0  0  0  0  0  0
  -22.3555  -14.5553   20.6668 O   0  0  0  0  0  0
  -24.6152  -31.8674   23.2106 C   0  0  0  0  0  0
  -25.9043  -32.4815   23.8394 C   0  0  1  0  0  0
  -27.2383  -27.4289   20.0751 C   0  0  0  0  0  0
  -25.5901  -33.8615   24.2323 N   0  0  0  0  0  0
  -23.4023  -30.4919   21.5515 C   0  0  2  0  0  0
  -24.8471  -28.9583   20.1124 C   0  0  0  0  0  0
  -22.7405  -29.4657   22.4987 C   0  0  0  0  0  0
  -18.0270  -28.1377   22.8492 C   0  0  0  0  0  0
  -24.1487  -36.7316   23.2637 C   0  0  0  0  0  0
  -25.9325  -30.8284   21.3658 C   0  0  0  0  0  0
  -26.0077  -29.4631   20.7098 C   0  0  0  0  0  0
  -27.1999  -28.7020   20.6956 C   0  0  0  0  0  0
  -26.0472  -26.9328   19.4931 C   0  0  0  0  0  0
  -24.8617  -27.6915   19.5066 C   0  0  0  0  0  0
  -23.6097  -29.8262   20.1650 C   0  0  0  0  0  0
  -25.4107  -36.3108   24.0337 C   0  0  1  0  0  0
  -20.5859  -28.3664   23.1322 C   0  0  2  0  0  0
  -20.6757  -26.9398   22.5427 C   0  0  0  0  0  0
  -19.5745  -26.6386   21.5212 C   0  0  0  0  0  0
  -18.1919  -26.7926   22.1613 C   0  0  0  0  0  0
  -19.1520  -28.8836   23.2904 C   0  0  0  0  0  0
  -18.9446  -30.1441   23.8918 C   0  0  0  0  0  0
  -17.6451  -30.6580   24.0570 C   0  0  0  0  0  0
  -25.9035  -34.9473   23.5129 C   0  0  0  0  0  0
  -16.5341  -29.9086   23.6326 C   0  0  0  0  0  0
  -16.7261  -28.6501   23.0346 C   0  0  0  0  0  0
  -26.4474  -31.6597   25.0721 C   0  0  0  0  0  0
  -25.3748  -31.3730   26.1482 C   0  0  0  0  0  0
  -27.0283  -30.3027   24.6107 C   0  0  0  0  0  0
  -27.6062  -32.4314   25.7461 C   0  0  0  0  0  0
  -27.5585  -37.1808   24.8458 C   0  0  0  0  0  0
  -21.4131  -29.3028   22.3726 N   0  0  0  0  0  0
  -26.4294  -37.3789   23.9409 N   0  0  0  0  0  0
  -24.6681  -31.0767   22.1007 N   0  0  0  0  0  0
  -23.4178  -28.8197   23.3027 O   0  0  0  0  0  0
  -28.4186  -26.7063   20.1156 O   0  0  0  0  0  0
  -26.5598  -34.8923   22.4689 O   0  0  0  0  0  0
  -23.5342  -32.1427   23.7501 O   0  0  0  0  0  0
  -29.7264  -17.7414   22.0407 C   0  0  0  0  0  0
  -29.6386  -19.2718   21.8150 C   0  0  0  0  0  0
  -29.1366  -18.9875   19.4980 C   0  0  0  0  0  0
  -29.1921  -17.4403   19.5927 C   0  0  2  0  0  0
  -30.0883  -16.9471   20.7642 C   0  0  2  0  0  0
  -29.6123  -16.8434   18.2406 C   0  0  0  0  0  0
  -27.2498  -21.2154   21.8921 C   0  0  0  0  0  0
  -29.4383  -24.4777   19.6794 C   0  0  0  0  0  0
  -29.1761  -22.0746   20.4122 C   0  0  0  0  0  0
  -28.7238  -25.7315   19.1010 C   0  0  0  0  0  0
  -28.1371  -20.9368   20.6637 C   0  0  1  0  0  0
  -28.6558  -19.5528   20.7617 N   0  0  0  0  0  0
  -29.8989  -15.4977   20.9875 N   0  0  0  0  0  0
  -28.5179  -23.3569   20.0263 N   0  3  0  0  0  0
  -31.4734  -12.4166   19.1230 H   0  0  0  0  0  0
  -30.3412  -11.2961   19.8252 H   0  0  0  0  0  0
  -29.7381  -11.7610   17.4363 H   0  0  0  0  0  0
  -29.6694  -13.4727   17.7575 H   0  0  0  0  0  0
  -27.8290  -11.3044   18.8172 H   0  0  0  0  0  0
  -27.3699  -12.6319   17.7860 H   0  0  0  0  0  0
  -27.7065  -14.2490   19.5749 H   0  0  0  0  0  0
  -28.6815  -11.9428   21.3327 H   0  0  0  0  0  0
  -28.4672  -13.5773   21.8776 H   0  0  0  0  0  0
  -25.2766   -9.5675   22.4748 H   0  0  0  0  0  0
  -23.9997   -7.4634   22.7475 H   0  0  0  0  0  0
  -21.0829   -8.8782   19.8965 H   0  0  0  0  0  0
  -22.3693  -10.9678   19.6170 H   0  0  0  0  0  0
  -21.2020   -7.6148   23.9719 H   0  0  0  0  0  0
  -21.1473   -6.0518   25.9076 H   0  0  0  0  0  0
  -22.0603   -2.7601   23.2853 H   0  0  0  0  0  0
  -22.4106  -11.9913   22.4783 H   0  0  0  0  0  0
  -21.1131  -13.1309   22.2603 H   0  0  0  0  0  0
  -24.6658  -15.8416   20.5211 H   0  0  0  0  0  0
  -26.2865  -15.6278   20.0936 H   0  0  0  0  0  0
  -26.7109  -32.5521   23.1151 H   0  0  0  0  0  0
  -25.0044  -33.9776   25.0462 H   0  0  0  0  0  0
  -22.6910  -31.3092   21.4141 H   0  0  0  0  0  0
  -23.3739  -35.9659   23.3303 H   0  0  0  0  0  0
  -24.3581  -36.8926   22.2050 H   0  0  0  0  0  0
  -23.7247  -37.6527   23.6646 H   0  0  0  0  0  0
  -26.0473  -31.5962   20.5995 H   0  0  0  0  0  0
  -26.8197  -30.8792   21.9851 H   0  0  0  0  0  0
  -28.0950  -29.0892   21.1624 H   0  0  0  0  0  0
  -25.9891  -25.9522   19.0479 H   0  0  0  0  0  0
  -23.9630  -27.2906   19.0577 H   0  0  0  0  0  0
  -23.7176  -30.6030   19.4071 H   0  0  0  0  0  0
  -22.7324  -29.2483   19.8690 H   0  0  0  0  0  0
  -25.1280  -36.1975   25.0829 H   0  0  0  0  0  0
  -20.9949  -28.3235   24.1444 H   0  0  0  0  0  0
  -20.5640  -26.2275   23.3614 H   0  0  0  0  0  0
  -21.6632  -26.7431   22.1239 H   0  0  0  0  0  0
  -19.6910  -25.6302   21.1229 H   0  0  0  0  0  0
  -19.6695  -27.3208   20.6753 H   0  0  0  0  0  0
  -17.4194  -26.6688   21.4008 H   0  0  0  0  0  0
  -18.0311  -26.0059   22.8998 H   0  0  0  0  0  0
  -19.7920  -30.7253   24.2300 H   0  0  0  0  0  0
  -17.5002  -31.6260   24.5173 H   0  0  0  0  0  0
  -15.5346  -30.2998   23.7635 H   0  0  0  0  0  0
  -15.8657  -28.0832   22.7051 H   0  0  0  0  0  0
  -24.5917  -30.7068   25.7844 H   0  0  0  0  0  0
  -24.8946  -32.2898   26.4914 H   0  0  0  0  0  0
  -25.8113  -30.8923   27.0246 H   0  0  0  0  0  0
  -26.2816  -29.6797   24.1166 H   0  0  0  0  0  0
  -27.4038  -29.7260   25.4570 H   0  0  0  0  0  0
  -27.8665  -30.4320   23.9255 H   0  0  0  0  0  0
  -27.2690  -33.3605   26.2068 H   0  0  0  0  0  0
  -28.3845  -32.6890   25.0266 H   0  0  0  0  0  0
  -28.0756  -31.8421   26.5347 H   0  0  0  0  0  0
  -28.2614  -38.0094   24.7490 H   0  0  0  0  0  0
  -28.1070  -36.2629   24.6290 H   0  0  0  0  0  0
  -27.2309  -37.1469   25.8863 H   0  0  0  0  0  0
  -20.9286  -29.8762   21.6961 H   0  0  0  0  0  0
  -26.0186  -38.2869   24.1407 H   0  0  0  0  0  0
  -28.7667  -17.3967   22.4303 H   0  0  0  0  0  0
  -30.4588  -17.5322   22.8217 H   0  0  0  0  0  0
  -30.6154  -19.6810   21.5495 H   0  0  0  0  0  0
  -29.3484  -19.7430   22.7542 H   0  0  0  0  0  0
  -28.4572  -19.2652   18.6901 H   0  0  0  0  0  0
  -30.1163  -19.3946   19.2394 H   0  0  0  0  0  0
  -28.1715  -17.1031   19.7856 H   0  0  0  0  0  0
  -31.1326  -17.1551   20.5226 H   0  0  0  0  0  0
  -30.6520  -17.0782   18.0097 H   0  0  0  0  0  0
  -28.9971  -17.2352   17.4302 H   0  0  0  0  0  0
  -29.5036  -15.7605   18.2261 H   0  0  0  0  0  0
  -26.6389  -22.1062   21.7454 H   0  0  0  0  0  0
  -27.8339  -21.3719   22.7990 H   0  0  0  0  0  0
  -26.5594  -20.3915   22.0772 H   0  0  0  0  0  0
  -30.0485  -24.7526   20.5404 H   0  0  0  0  0  0
  -30.1295  -24.1098   18.9196 H   0  0  0  0  0  0
  -29.8517  -21.7833   19.6070 H   0  0  0  0  0  0
  -29.7940  -22.2322   21.2973 H   0  0  0  0  0  0
  -27.8991  -25.4359   18.4575 H   0  0  0  0  0  0
  -29.4223  -26.2337   18.4307 H   0  0  0  0  0  0
  -27.4619  -20.9250   19.8056 H   0  0  0  0  0  0
  -28.9963  -15.2173   21.3391 H   0  0  0  0  0  0
  -27.9256  -23.1661   19.2324 H   0  0  0  0  0  0
  -27.9233  -23.6519   20.7856 H   0  0  0  0  0  0
  1 25  1  0  0  0
  1 30  2  0  0  0
  1 83  1  0  0  0
  2  3  1  0  0  0
  2 25  1  0  0  0
  2 85  1  0  0  0
  2 86  1  0  0  0
  3  4  1  0  0  0
  3 87  1  0  0  0
  3 88  1  0  0  0
  4  5  1  0  0  0
  4 89  1  0  0  0
  4 90  1  0  0  0
  5  6  1  0  0  0
  5 26  1  0  0  0
  5 91  1  0  0  0
  6 25  1  0  0  0
  6 92  1  0  0  0
  6 93  1  0  0  0
  7  8  2  0  0  0
  7 26  1  0  0  0
  7 29  1  0  0  0
  8  9  1  0  0  0
  8 22  1  0  0  0
  9 10  1  0  0  0
  9 27  2  0  0  0
 10 11  2  0  0  0
 10 15  1  0  0  0
 11 12  1  0  0  0
 11 94  1  0  0  0
 12 13  2  0  0  0
 12 95  1  0  0  0
 13 14  1  0  0  0
 13 31  1  0  0  0
 14 15  2  0  0  0
 14 96  1  0  0  0
 15 97  1  0  0  0
 16 17  2  0  0  0
 16 21  1  0  0  0
 16 31  1  0  0  0
 17 18  1  0  0  0
 17 98  1  0  0  0
 18 19  2  0  0  0
 18 99  1  0  0  0
 19 20  1  0  0  0
 19 24  1  0  0  0
 20 21  2  0  0  0
 20100  1  0  0  0
 21 23  1  0  0  0
 22 28  1  0  0  0
 22 32  2  0  0  0
 26 27  1  0  0  0
 28101  1  0  0  0
 28102  1  0  0  0
 29103  1  0  0  0
 29104  1  0  0  0
 33 34  1  0  0  0
 33 66  1  0  0  0
 33 70  2  0  0  0
 34 36  1  0  0  0
 34 59  1  0  0  0
 34105  1  0  0  0
 35 44  2  0  0  0
 35 45  1  0  0  0
 35 68  1  0  0  0
 36 56  1  0  0  0
 36106  1  0  0  0
 37 39  1  0  0  0
 37 47  1  0  0  0
 37 66  1  0  0  0
 37107  1  0  0  0
 38 43  2  0  0  0
 38 46  1  0  0  0
 38 47  1  0  0  0
 39 64  1  0  0  0
 39 67  2  0  0  0
 40 52  1  0  0  0
 40 53  2  0  0  0
 40 58  1  0  0  0
 41108  1  0  0  0
 41109  1  0  0  0
 41110  1  0  0  0
 41 48  1  0  0  0
 42 43  1  0  0  0
 42 66  1  0  0  0
 42111  1  0  0  0
 42112  1  0  0  0
 43 44  1  0  0  0
 44113  1  0  0  0
 45 46  2  0  0  0
 45114  1  0  0  0
 46115  1  0  0  0
 47116  1  0  0  0
 47117  1  0  0  0
 48 56  1  0  0  0
 48 65  1  0  0  0
 48118  1  0  0  0
 49 50  1  0  0  0
 49 53  1  0  0  0
 49 64  1  0  0  0
 49119  1  0  0  0
 50 51  1  0  0  0
 50120  1  0  0  0
 50121  1  0  0  0
 51 52  1  0  0  0
 51122  1  0  0  0
 51123  1  0  0  0
 52124  1  0  0  0
 52125  1  0  0  0
 53 54  1  0  0  0
 54 55  2  0  0  0
 54126  1  0  0  0
 55 57  1  0  0  0
 55127  1  0  0  0
 56 69  2  0  0  0
 57 58  2  0  0  0
 57128  1  0  0  0
 58129  1  0  0  0
 59 60  1  0  0  0
 59 61  1  0  0  0
 59 62  1  0  0  0
 60130  1  0  0  0
 60131  1  0  0  0
 60132  1  0  0  0
 61133  1  0  0  0
 61134  1  0  0  0
 61135  1  0  0  0
 62136  1  0  0  0
 62137  1  0  0  0
 62138  1  0  0  0
 63 65  1  0  0  0
 63139  1  0  0  0
 63140  1  0  0  0
 63141  1  0  0  0
 64142  1  0  0  0
 65143  1  0  0  0
 68 80  1  0  0  0
 71 72  1  0  0  0
 71 75  1  0  0  0
 71144  1  0  0  0
 71145  1  0  0  0
 72 82  1  0  0  0
 72146  1  0  0  0
 72147  1  0  0  0
 73 74  1  0  0  0
 73 82  1  0  0  0
 73148  1  0  0  0
 73149  1  0  0  0
 74 75  1  0  0  0
 74 76  1  0  0  0
 74150  1  0  0  0
 75 83  1  0  0  0
 75151  1  0  0  0
 76152  1  0  0  0
 76153  1  0  0  0
 76154  1  0  0  0
 77155  1  0  0  0
 77156  1  0  0  0
 77157  1  0  0  0
 77 81  1  0  0  0
 78 80  1  0  0  0
 78 84  1  0  0  0
 78158  1  0  0  0
 78159  1  0  0  0
 79 81  1  0  0  0
 79 84  1  0  0  0
 79160  1  0  0  0
 79161  1  0  0  0
 80162  1  0  0  0
 80163  1  0  0  0
 81 82  1  0  0  0
 81164  1  0  0  0
 83165  1  0  0  0
 84166  1  0  0  0
 84167  1  0  0  0
M  CHG  1  84   1
M  ISO  4   1 100  68 101  80 101  83 100
M  END
> <chiral flag>
0

> <version>
0

> <s_m_source_file>
/data/baiqing/PycharmProjects/Reinvent-master-3.2/result/LINK_invent/BTK/process_docking_weight1_custom_sum_contain_oxygen_bond_distance_aromatic_linkinvent_7_9_3/rearranged_h_0192.sdf

> <i_m_source_file_index>
84

> <r_mmod_Potential_Energy-OPLS-2005>
-155.183227539062

> <r_mmod_Stretch_Energy-OPLS-2005>
41.5365676879883

> <r_mmod_Bend_Energy-OPLS-2005>
121.111030578613

> <r_mmod_Torsional_Energy-OPLS-2005>
257.553070068359

> <r_mmod_Improper_Torsional_Energy-OPLS-2005>
5.29530715942383

> <r_mmod_Van_der_Waal_Energy-OPLS-2005>
133.595474243164

> <r_mmod_Electrostatic_Energy-OPLS-2005>
-281.921936035156

> <r_mmod_Solvation_Energy-OPLS-2005>
-446.866485595703

> <b_mmod_Minimization_Converged-OPLS-2005>
0

> <r_mmod_RMS_Derivative-OPLS-2005>
0.966916382312775

$$$$
84
                    3D
 Structure written by MMmdl.
161169  0  0  1  0            999 V2000
  -30.7258  -14.4961   20.5071 C   0  0  0  0  0  0
  -30.3910  -12.2948   19.4531 C   0  0  0  0  0  0
  -29.4893  -12.4794   18.2173 C   0  0  0  0  0  0
  -28.0081  -12.3532   18.6217 C   0  0  0  0  0  0
  -27.6488  -13.2192   19.8600 C   0  0  2  0  0  0
  -28.6862  -13.0724   20.9948 C   0  0  0  0  0  0
  -25.2553  -13.8187   20.5648 C   0  0  0  0  0  0
  -24.1825  -13.0443   20.9142 C   0  0  0  0  0  0
  -24.6408  -11.6919   20.8727 C   0  0  0  0  0  0
  -23.9085  -10.4297   21.0417 C   0  0  0  0  0  0
  -24.3638   -9.4196   21.9194 C   0  0  0  0  0  0
  -23.6306   -8.2239   22.0751 C   0  0  0  0  0  0
  -22.4287   -8.0294   21.3540 C   0  0  0  0  0  0
  -21.9930   -9.0261   20.4641 C   0  0  0  0  0  0
  -22.7267  -10.2139   20.3055 C   0  0  0  0  0  0
  -21.6854   -6.0747   22.5281 C   0  0  0  0  0  0
  -21.4011   -6.5645   23.8217 C   0  0  0  0  0  0
  -21.3656   -5.6800   24.9178 C   0  0  0  0  0  0
  -21.6037   -4.3062   24.7238 C   0  0  0  0  0  0
  -21.8818   -3.8155   23.4356 C   0  0  0  0  0  0
  -21.9191   -4.6964   22.3407 C   0  0  0  0  0  0
  -22.7863  -13.5241   21.1817 C   0  0  0  0  0  0
  -22.1667   -4.2151   21.0986 F   0  0  0  0  0  0
  -21.5620   -3.4545   25.7748 F   0  0  0  0  0  0
  -30.0126  -13.3374   20.4267 N   0  0  0  0  0  0
  -26.2970  -12.9366   20.3311 N   0  0  0  0  0  0
  -25.9326  -11.6520   20.5756 N   0  0  0  0  0  0
  -22.0534  -12.8220   22.0383 N   0  0  0  0  0  0
  -25.4305  -15.1903   20.4054 N   0  0  0  0  0  0
  -31.8933  -14.5311   20.1298 O   0  0  0  0  0  0
  -21.6646   -6.8887   21.4251 O   0  0  0  0  0  0
  -22.3537  -14.5549   20.6676 O   0  0  0  0  0  0
  -24.6197  -31.8640   23.2067 C   0  0  0  0  0  0
  -25.9078  -32.4808   23.8359 C   0  0  1  0  0  0
  -27.2260  -27.3846   20.1194 C   0  0  0  0  0  0
  -25.5910  -33.8611   24.2263 N   0  0  0  0  0  0
  -23.4084  -30.4899   21.5466 C   0  0  2  0  0  0
  -24.8576  -28.9582   20.1078 C   0  0  0  0  0  0
  -22.7452  -29.4642   22.4950 C   0  0  0  0  0  0
  -18.0303  -28.1402   22.8500 C   0  0  0  0  0  0
  -24.1491  -36.7300   23.2645 C   0  0  0  0  0  0
  -25.9450  -30.8167   21.3689 C   0  0  0  0  0  0
  -26.0201  -29.4510   20.7124 C   0  0  0  0  0  0
  -27.2075  -28.6752   20.7110 C   0  0  0  0  0  0
  -26.0444  -26.9282   19.4880 C   0  0  0  0  0  0
  -24.8691  -27.7004   19.4856 C   0  0  0  0  0  0
  -23.6168  -29.8225   20.1610 C   0  0  0  0  0  0
  -25.4117  -36.3090   24.0313 C   0  0  1  0  0  0
  -20.5900  -28.3671   23.1341 C   0  0  2  0  0  0
  -20.6798  -26.9394   22.5459 C   0  0  0  0  0  0
  -19.5772  -26.6382   21.5268 C   0  0  0  0  0  0
  -18.1934  -26.7955   22.1633 C   0  0  0  0  0  0
  -19.1555  -28.8853   23.2920 C   0  0  0  0  0  0
  -18.9475  -30.1477   23.8898 C   0  0  0  0  0  0
  -17.6476  -30.6594   24.0590 C   0  0  0  0  0  0
  -25.9048  -34.9458   23.5078 C   0  0  0  0  0  0
  -16.5362  -29.9083   23.6368 C   0  0  0  0  0  0
  -16.7293  -28.6538   23.0333 C   0  0  0  0  0  0
  -26.4474  -31.6659   25.0742 C   0  0  0  0  0  0
  -25.3683  -31.3811   26.1463 C   0  0  0  0  0  0
  -27.0339  -30.3097   24.6187 C   0  0  0  0  0  0
  -27.6039  -32.4427   25.7489 C   0  0  0  0  0  0
  -27.5577  -37.1784   24.8452 C   0  0  0  0  0  0
  -21.4176  -29.3021   22.3710 N   0  0  0  0  0  0
  -26.4287  -37.3782   23.9396 N   0  0  0  0  0  0
  -24.6752  -31.0714   22.0977 N   0  0  0  0  0  0
  -23.4216  -28.8192   23.3009 O   0  0  0  0  0  0
  -28.3638  -26.5877   20.1970 O   0  0  0  0  0  0
  -26.5621  -34.8923   22.4650 O   0  0  0  0  0  0
  -23.5383  -32.1395   23.7449 O   0  0  0  0  0  0
  -31.5495  -22.2101   20.5446 C   0  0  0  0  0  0
  -31.6406  -20.7849   20.0234 C   0  0  0  0  0  0
  -30.1283  -21.9477   21.0539 C   0  0  2  0  0  0
  -30.2769  -20.4264   20.6545 C   0  0  2  0  0  0
  -31.9258  -17.2755   20.2359 C   0  0  0  0  0  0
  -29.2888  -24.2686   20.7524 C   0  0  0  0  0  0
  -29.9387  -18.0321   21.7361 C   0  0  0  0  0  0
  -28.1597  -25.1506   20.1388 C   0  0  0  0  0  0
  -30.4323  -17.0792   20.5825 C   0  0  2  0  0  0
  -30.0426  -15.6362   20.8057 N   0  0  0  0  0  0
  -29.0274  -22.8216   20.5682 N   0  0  0  0  0  0
  -30.4185  -19.4645   21.7997 N   0  3  0  0  0  0
  -31.4424  -12.3346   19.1628 H   0  0  0  0  0  0
  -30.2421  -11.3032   19.8843 H   0  0  0  0  0  0
  -29.7305  -11.7362   17.4568 H   0  0  0  0  0  0
  -29.6687  -13.4555   17.7642 H   0  0  0  0  0  0
  -27.8154  -11.3006   18.8339 H   0  0  0  0  0  0
  -27.3657  -12.6141   17.7790 H   0  0  0  0  0  0
  -27.6745  -14.2565   19.5257 H   0  0  0  0  0  0
  -28.6536  -12.0657   21.4148 H   0  0  0  0  0  0
  -28.4546  -13.7498   21.8183 H   0  0  0  0  0  0
  -25.2798   -9.5647   22.4756 H   0  0  0  0  0  0
  -24.0005   -7.4623   22.7468 H   0  0  0  0  0  0
  -21.0859   -8.8792   19.8947 H   0  0  0  0  0  0
  -22.3753  -10.9674   19.6142 H   0  0  0  0  0  0
  -21.2006   -7.6155   23.9712 H   0  0  0  0  0  0
  -21.1471   -6.0539   25.9076 H   0  0  0  0  0  0
  -22.0594   -2.7619   23.2867 H   0  0  0  0  0  0
  -22.4207  -11.9882   22.4727 H   0  0  0  0  0  0
  -21.1144  -13.1210   22.2613 H   0  0  0  0  0  0
  -24.6589  -15.8451   20.4742 H   0  0  0  0  0  0
  -26.2871  -15.6228   20.0849 H   0  0  0  0  0  0
  -26.7158  -32.5476   23.1112 H   0  0  0  0  0  0
  -25.0059  -33.9812   25.0403 H   0  0  0  0  0  0
  -22.6981  -31.3077   21.4056 H   0  0  0  0  0  0
  -23.3753  -35.9642   23.3320 H   0  0  0  0  0  0
  -24.3554  -36.8915   22.2060 H   0  0  0  0  0  0
  -23.7271  -37.6500   23.6684 H   0  0  0  0  0  0
  -26.0652  -31.5782   20.5969 H   0  0  0  0  0  0
  -26.8323  -30.8673   21.9885 H   0  0  0  0  0  0
  -28.0982  -29.0430   21.1990 H   0  0  0  0  0  0
  -26.0039  -25.9616   19.0064 H   0  0  0  0  0  0
  -23.9796  -27.3152   19.0075 H   0  0  0  0  0  0
  -23.7092  -30.5946   19.3966 H   0  0  0  0  0  0
  -22.7438  -29.2346   19.8751 H   0  0  0  0  0  0
  -25.1305  -36.1914   25.0805 H   0  0  0  0  0  0
  -21.0033  -28.3256   24.1446 H   0  0  0  0  0  0
  -20.5769  -26.2249   23.3636 H   0  0  0  0  0  0
  -21.6648  -26.7449   22.1191 H   0  0  0  0  0  0
  -19.6919  -25.6303   21.1267 H   0  0  0  0  0  0
  -19.6750  -27.3237   20.6839 H   0  0  0  0  0  0
  -17.4232  -26.6809   21.3987 H   0  0  0  0  0  0
  -18.0234  -26.0079   22.8994 H   0  0  0  0  0  0
  -19.7948  -30.7340   24.2205 H   0  0  0  0  0  0
  -17.5010  -31.6267   24.5203 H   0  0  0  0  0  0
  -15.5363  -30.2970   23.7710 H   0  0  0  0  0  0
  -15.8698  -28.0888   22.6974 H   0  0  0  0  0  0
  -24.5928  -30.7069   25.7792 H   0  0  0  0  0  0
  -24.8786  -32.2996   26.4755 H   0  0  0  0  0  0
  -25.7996  -30.9112   27.0317 H   0  0  0  0  0  0
  -26.2921  -29.6836   24.1219 H   0  0  0  0  0  0
  -27.4073  -29.7378   25.4694 H   0  0  0  0  0  0
  -27.8756  -30.4408   23.9374 H   0  0  0  0  0  0
  -27.2652  -33.3737   26.2055 H   0  0  0  0  0  0
  -28.3841  -32.7001   25.0307 H   0  0  0  0  0  0
  -28.0729  -31.8573   26.5409 H   0  0  0  0  0  0
  -28.2589  -38.0083   24.7487 H   0  0  0  0  0  0
  -28.1073  -36.2607   24.6283 H   0  0  0  0  0  0
  -27.2287  -37.1443   25.8853 H   0  0  0  0  0  0
  -20.9337  -29.8666   21.6866 H   0  0  0  0  0  0
  -26.0158  -38.2842   24.1437 H   0  0  0  0  0  0
  -31.6397  -22.9502   19.7485 H   0  0  0  0  0  0
  -32.2533  -22.4154   21.3542 H   0  0  0  0  0  0
  -32.5208  -20.3035   20.4467 H   0  0  0  0  0  0
  -31.6404  -20.7321   18.9338 H   0  0  0  0  0  0
  -30.1263  -22.0453   22.1420 H   0  0  0  0  0  0
  -29.5352  -20.1046   19.9220 H   0  0  0  0  0  0
  -32.1862  -18.3053   20.0674 H   0  0  0  0  0  0
  -32.1789  -16.7937   19.2912 H   0  0  0  0  0  0
  -32.5875  -16.8905   21.0110 H   0  0  0  0  0  0
  -29.4020  -24.4871   21.8157 H   0  0  0  0  0  0
  -30.2302  -24.5430   20.2754 H   0  0  0  0  0  0
  -30.2408  -17.5833   22.6846 H   0  0  0  0  0  0
  -28.8482  -18.0387   21.7533 H   0  0  0  0  0  0
  -27.2362  -24.8850   20.6564 H   0  0  0  0  0  0
  -28.0332  -24.8681   19.0935 H   0  0  0  0  0  0
  -29.8775  -17.3823   19.6930 H   0  0  0  0  0  0
  -29.0833  -15.4772   21.0785 H   0  0  0  0  0  0
  -28.8660  -22.6558   19.5770 H   0  0  0  0  0  0
  -29.9137  -19.8718   22.5697 H   0  0  0  0  0  0
  -31.3829  -19.4557   22.0843 H   0  0  0  0  0  0
  1 25  1  0  0  0
  1 30  2  0  0  0
  1 80  1  0  0  0
  2  3  1  0  0  0
  2 25  1  0  0  0
  2 83  1  0  0  0
  2 84  1  0  0  0
  3  4  1  0  0  0
  3 85  1  0  0  0
  3 86  1  0  0  0
  4  5  1  0  0  0
  4 87  1  0  0  0
  4 88  1  0  0  0
  5  6  1  0  0  0
  5 26  1  0  0  0
  5 89  1  0  0  0
  6 25  1  0  0  0
  6 90  1  0  0  0
  6 91  1  0  0  0
  7  8  2  0  0  0
  7 26  1  0  0  0
  7 29  1  0  0  0
  8  9  1  0  0  0
  8 22  1  0  0  0
  9 10  1  0  0  0
  9 27  2  0  0  0
 10 11  2  0  0  0
 10 15  1  0  0  0
 11 12  1  0  0  0
 11 92  1  0  0  0
 12 13  2  0  0  0
 12 93  1  0  0  0
 13 14  1  0  0  0
 13 31  1  0  0  0
 14 15  2  0  0  0
 14 94  1  0  0  0
 15 95  1  0  0  0
 16 17  2  0  0  0
 16 21  1  0  0  0
 16 31  1  0  0  0
 17 18  1  0  0  0
 17 96  1  0  0  0
 18 19  2  0  0  0
 18 97  1  0  0  0
 19 20  1  0  0  0
 19 24  1  0  0  0
 20 21  2  0  0  0
 20 98  1  0  0  0
 21 23  1  0  0  0
 22 28  1  0  0  0
 22 32  2  0  0  0
 26 27  1  0  0  0
 28 99  1  0  0  0
 28100  1  0  0  0
 29101  1  0  0  0
 29102  1  0  0  0
 33 34  1  0  0  0
 33 66  1  0  0  0
 33 70  2  0  0  0
 34 36  1  0  0  0
 34 59  1  0  0  0
 34103  1  0  0  0
 35 44  2  0  0  0
 35 45  1  0  0  0
 35 68  1  0  0  0
 36 56  1  0  0  0
 36104  1  0  0  0
 37 39  1  0  0  0
 37 47  1  0  0  0
 37 66  1  0  0  0
 37105  1  0  0  0
 38 43  2  0  0  0
 38 46  1  0  0  0
 38 47  1  0  0  0
 39 64  1  0  0  0
 39 67  2  0  0  0
 40 52  1  0  0  0
 40 53  2  0  0  0
 40 58  1  0  0  0
 41106  1  0  0  0
 41107  1  0  0  0
 41108  1  0  0  0
 41 48  1  0  0  0
 42 43  1  0  0  0
 42 66  1  0  0  0
 42109  1  0  0  0
 42110  1  0  0  0
 43 44  1  0  0  0
 44111  1  0  0  0
 45 46  2  0  0  0
 45112  1  0  0  0
 46113  1  0  0  0
 47114  1  0  0  0
 47115  1  0  0  0
 48 56  1  0  0  0
 48 65  1  0  0  0
 48116  1  0  0  0
 49 50  1  0  0  0
 49 53  1  0  0  0
 49 64  1  0  0  0
 49117  1  0  0  0
 50 51  1  0  0  0
 50118  1  0  0  0
 50119  1  0  0  0
 51 52  1  0  0  0
 51120  1  0  0  0
 51121  1  0  0  0
 52122  1  0  0  0
 52123  1  0  0  0
 53 54  1  0  0  0
 54 55  2  0  0  0
 54124  1  0  0  0
 55 57  1  0  0  0
 55125  1  0  0  0
 56 69  2  0  0  0
 57 58  2  0  0  0
 57126  1  0  0  0
 58127  1  0  0  0
 59 60  1  0  0  0
 59 61  1  0  0  0
 59 62  1  0  0  0
 60128  1  0  0  0
 60129  1  0  0  0
 60130  1  0  0  0
 61131  1  0  0  0
 61132  1  0  0  0
 61133  1  0  0  0
 62134  1  0  0  0
 62135  1  0  0  0
 62136  1  0  0  0
 63 65  1  0  0  0
 63137  1  0  0  0
 63138  1  0  0  0
 63139  1  0  0  0
 64140  1  0  0  0
 65141  1  0  0  0
 68 78  1  0  0  0
 71 72  1  0  0  0
 71 73  1  0  0  0
 71142  1  0  0  0
 71143  1  0  0  0
 72 74  1  0  0  0
 72144  1  0  0  0
 72145  1  0  0  0
 73 74  1  0  0  0
 73 81  1  0  0  0
 73146  1  0  0  0
 74 82  1  0  0  0
 74147  1  0  0  0
 75148  1  0  0  0
 75149  1  0  0  0
 75150  1  0  0  0
 75 79  1  0  0  0
 76 78  1  0  0  0
 76 81  1  0  0  0
 76151  1  0  0  0
 76152  1  0  0  0
 77 79  1  0  0  0
 77 82  1  0  0  0
 77153  1  0  0  0
 77154  1  0  0  0
 78155  1  0  0  0
 78156  1  0  0  0
 79 80  1  0  0  0
 79157  1  0  0  0
 80158  1  0  0  0
 81159  1  0  0  0
 82160  1  0  0  0
 82161  1  0  0  0
M  CHG  1  82   1
M  ISO  4   1 100  68 101  78 101  80 100
M  END
> <chiral flag>
0

> <version>
0

> <s_m_source_file>
/data/baiqing/PycharmProjects/Reinvent-master-3.2/result/LINK_invent/BTK/process_docking_weight1_custom_sum_contain_oxygen_bond_distance_aromatic_linkinvent_7_9_3/rearranged_h_0192.sdf

> <i_m_source_file_index>
85

> <r_mmod_Potential_Energy-OPLS-2005>
-124.021308898926

> <r_mmod_Stretch_Energy-OPLS-2005>
55.9355125427246

> <r_mmod_Bend_Energy-OPLS-2005>
137.062881469727

> <r_mmod_Torsional_Energy-OPLS-2005>
264.155303955078

> <r_mmod_Improper_Torsional_Energy-OPLS-2005>
5.12432241439819

> <r_mmod_Van_der_Waal_Energy-OPLS-2005>
149.767974853516

> <r_mmod_Electrostatic_Energy-OPLS-2005>
-278.280578613281

> <r_mmod_Solvation_Energy-OPLS-2005>
-486.216979980469

> <b_mmod_Minimization_Converged-OPLS-2005>
0

> <r_mmod_RMS_Derivative-OPLS-2005>
3.35501146316528

$$$$
85
                    3D
 Structure written by MMmdl.
165174  0  0  1  0            999 V2000
  -29.8300  -15.7081   20.9667 C   0  0  0  0  0  0
  -30.3232  -13.2460   19.7914 C   0  0  0  0  0  0
  -29.5667  -12.7930   18.4903 C   0  0  0  0  0  0
  -28.1350  -12.3487   18.8028 C   0  0  0  0  0  0
  -27.5410  -13.2926   19.8660 C   0  0  2  0  0  0
  -28.4154  -13.5031   21.1133 C   0  0  0  0  0  0
  -25.1876  -13.8177   20.5548 C   0  0  0  0  0  0
  -24.1360  -13.0339   20.9215 C   0  0  0  0  0  0
  -24.6067  -11.6857   20.8689 C   0  0  0  0  0  0
  -23.8907  -10.4211   21.0383 C   0  0  0  0  0  0
  -24.3543   -9.4159   21.9155 C   0  0  0  0  0  0
  -23.6246   -8.2187   22.0742 C   0  0  0  0  0  0
  -22.4231   -8.0216   21.3518 C   0  0  0  0  0  0
  -21.9817   -9.0168   20.4626 C   0  0  0  0  0  0
  -22.7108  -10.2040   20.3021 C   0  0  0  0  0  0
  -21.6838   -6.0718   22.5304 C   0  0  0  0  0  0
  -21.3991   -6.5619   23.8240 C   0  0  0  0  0  0
  -21.3651   -5.6767   24.9200 C   0  0  0  0  0  0
  -21.6058   -4.3035   24.7237 C   0  0  0  0  0  0
  -21.8818   -3.8127   23.4352 C   0  0  0  0  0  0
  -21.9178   -4.6951   22.3414 C   0  0  0  0  0  0
  -22.7420  -13.5072   21.1937 C   0  0  0  0  0  0
  -22.1656   -4.2131   21.0994 F   0  0  0  0  0  0
  -21.5633   -3.4533   25.7754 F   0  0  0  0  0  0
  -29.5436  -14.2925   20.6606 N   0  0  0  0  0  0
  -26.2175  -12.9429   20.2880 N   0  0  0  0  0  0
  -25.8928  -11.6539   20.5535 N   0  0  0  0  0  0
  -22.0181  -12.8087   22.0589 N   0  0  0  0  0  0
  -25.3473  -15.1913   20.3997 N   0  0  0  0  0  0
  -31.0405  -15.8013   20.5921 O   0  0  0  0  0  0
  -21.6601   -6.8819   21.4246 O   0  0  0  0  0  0
  -22.3128  -14.5414   20.6851 O   0  0  0  0  0  0
  -24.8544  -31.8617   23.2886 C   0  0  0  0  0  0
  -26.0683  -32.5559   23.9239 C   0  0  1  0  0  0
  -25.3674  -27.4463   20.4242 C   0  0  0  0  0  0
  -25.6879  -33.9256   24.3017 N   0  0  0  0  0  0
  -24.1740  -29.8912   22.0057 C   0  0  2  0  0  0
  -25.2299  -29.7270   19.6131 C   0  0  0  0  0  0
  -24.2045  -28.1893   22.6617 C   0  0  0  0  0  0
  -18.3028  -27.8191   22.6790 C   0  0  0  0  0  0
  -24.1488  -36.7470   23.2463 C   0  0  0  0  0  0
  -26.3533  -30.7529   21.6138 C   0  0  0  0  0  0
  -26.2554  -29.6466   20.5601 C   0  0  0  0  0  0
  -26.4735  -28.3131   20.8904 C   0  0  0  0  0  0
  -25.6352  -27.3364   19.0995 C   0  0  0  0  0  0
  -25.1162  -28.5877   18.6952 C   0  0  0  0  0  0
  -24.0577  -30.3272   20.3717 C   0  0  0  0  0  0
  -25.4099  -36.3361   24.0219 C   0  0  1  0  0  0
  -21.0718  -26.9691   22.7336 C   0  0  2  0  0  0
  -20.5235  -25.8320   22.0439 C   0  0  0  0  0  0
  -19.4090  -26.2184   21.1185 C   0  0  0  0  0  0
  -18.1251  -26.5787   21.8663 C   0  0  0  0  0  0
  -19.6731  -28.1954   23.0063 C   0  0  0  0  0  0
  -19.5357  -29.5570   23.6019 C   0  0  0  0  0  0
  -18.3181  -30.2979   23.8924 C   0  0  0  0  0  0
  -25.9193  -34.9777   23.5159 C   0  0  0  0  0  0
  -17.0531  -29.7665   23.5948 C   0  0  0  0  0  0
  -17.0730  -28.5182   22.9621 C   0  0  0  0  0  0
  -26.5371  -31.7226   25.1715 C   0  0  0  0  0  0
  -25.4046  -31.4756   26.2001 C   0  0  0  0  0  0
  -27.1699  -30.3567   24.7949 C   0  0  0  0  0  0
  -27.6777  -32.4674   25.8752 C   0  0  0  0  0  0
  -27.5551  -37.1983   24.8474 C   0  0  0  0  0  0
  -23.0093  -26.9606   22.4449 N   0  0  0  0  0  0
  -26.4258  -37.4056   23.9395 N   0  0  0  0  0  0
  -25.1439  -30.8180   22.4566 N   0  0  0  0  0  0
  -24.9430  -28.1582   23.5846 O   0  0  0  0  0  0
  -23.7880  -27.8275   20.4048 O   0  0  0  0  0  0
  -26.5363  -34.9005   22.4506 O   0  0  0  0  0  0
  -23.7068  -32.2239   23.6256 O   0  0  0  0  0  0
  -27.2297  -23.4593   24.8349 C   0  0  0  0  0  0
  -26.5228  -24.3824   24.1790 C   0  0  0  0  0  0
  -26.7783  -22.0994   24.5975 C   0  0  0  0  0  0
  -26.5254  -18.9108   22.3281 C   0  0  0  0  0  0
  -28.4230  -19.9120   22.5863 C   0  0  0  0  0  0
  -27.5316  -17.3824   22.2283 C   0  0  0  0  0  0
  -29.2165  -18.5934   21.6317 C   0  0  0  0  0  0
  -25.2808  -23.8577   23.5408 C   0  0  2  0  0  0
  -26.8333  -20.6525   22.5099 C   0  0  0  0  0  0
  -23.8787  -25.1332   24.4812 C   0  0  0  0  0  0
  -22.2674  -28.4966   24.0096 C   0  0  0  0  0  0
  -22.1635  -28.7598   21.4854 C   0  0  0  0  0  0
  -26.0104  -22.0710   23.4844 N   0  0  0  0  0  0
  -28.9319  -16.9906   21.4826 N   0  0  0  0  0  0
  -23.1835  -26.9005   24.8195 N   0  3  0  0  0  0
  -27.1791  -21.1092   25.2136 O   0  0  0  0  0  0
  -31.2927  -13.6533   19.5032 H   0  0  0  0  0  0
  -30.5693  -12.3780   20.4060 H   0  0  0  0  0  0
  -30.1157  -12.0051   17.9794 H   0  0  0  0  0  0
  -29.5320  -13.6395   17.8045 H   0  0  0  0  0  0
  -28.1538  -11.3261   19.1795 H   0  0  0  0  0  0
  -27.5241  -12.3401   17.8996 H   0  0  0  0  0  0
  -27.4462  -14.2535   19.3545 H   0  0  0  0  0  0
  -28.6967  -12.5583   21.5853 H   0  0  0  0  0  0
  -27.8692  -14.0784   21.8652 H   0  0  0  0  0  0
  -25.2700   -9.5696   22.4704 H   0  0  0  0  0  0
  -24.0002   -7.4583   22.7429 H   0  0  0  0  0  0
  -21.0773   -8.8618   19.8934 H   0  0  0  0  0  0
  -22.3533  -10.9560   19.6129 H   0  0  0  0  0  0
  -21.1973   -7.6129   23.9730 H   0  0  0  0  0  0
  -21.1484   -6.0507   25.9098 H   0  0  0  0  0  0
  -22.0602   -2.7593   23.2864 H   0  0  0  0  0  0
  -22.3864  -11.9744   22.4937 H   0  0  0  0  0  0
  -21.0810  -13.1074   22.2866 H   0  0  0  0  0  0
  -24.5812  -15.8421   20.5370 H   0  0  0  0  0  0
  -26.1940  -15.6398   20.0720 H   0  0  0  0  0  0
  -26.9249  -32.6195   23.2461 H   0  0  0  0  0  0
  -25.1372  -34.0777   25.1387 H   0  0  0  0  0  0
  -23.3273  -30.3168   22.5021 H   0  0  0  0  0  0
  -23.3760  -35.9812   23.3161 H   0  0  0  0  0  0
  -24.3570  -36.9056   22.1887 H   0  0  0  0  0  0
  -23.7243  -37.6667   23.6406 H   0  0  0  0  0  0
  -26.4008  -31.7236   21.1193 H   0  0  0  0  0  0
  -27.2882  -30.6388   22.1617 H   0  0  0  0  0  0
  -27.0909  -28.0566   21.7420 H   0  0  0  0  0  0
  -25.1913  -26.5008   18.5711 H   0  0  0  0  0  0
  -24.3246  -28.5494   17.9510 H   0  0  0  0  0  0
  -24.1895  -31.4178   20.3016 H   0  0  0  0  0  0
  -23.1810  -30.1698   19.7586 H   0  0  0  0  0  0
  -25.1199  -36.2126   25.0688 H   0  0  0  0  0  0
  -21.0010  -26.4972   23.7162 H   0  0  0  0  0  0
  -20.1123  -25.1024   22.7599 H   0  0  0  0  0  0
  -21.2893  -25.2713   21.5016 H   0  0  0  0  0  0
  -19.1999  -25.3484   20.4881 H   0  0  0  0  0  0
  -19.7202  -27.0004   20.4305 H   0  0  0  0  0  0
  -17.3721  -26.7794   21.0959 H   0  0  0  0  0  0
  -17.7416  -25.7543   22.4659 H   0  0  0  0  0  0
  -20.4311  -30.0879   23.8853 H   0  0  0  0  0  0
  -18.4024  -31.2581   24.3772 H   0  0  0  0  0  0
  -16.1543  -30.3105   23.8094 H   0  0  0  0  0  0
  -16.1206  -28.0858   22.6735 H   0  0  0  0  0  0
  -25.7400  -30.8426   27.0214 H   0  0  0  0  0  0
  -24.5286  -30.9913   25.7736 H   0  0  0  0  0  0
  -25.0736  -32.4176   26.6485 H   0  0  0  0  0  0
  -26.4834  -29.6483   24.3575 H   0  0  0  0  0  0
  -27.5485  -29.8614   25.6883 H   0  0  0  0  0  0
  -28.0230  -30.4919   24.1319 H   0  0  0  0  0  0
  -27.3937  -33.4436   26.2755 H   0  0  0  0  0  0
  -28.5249  -32.6369   25.2052 H   0  0  0  0  0  0
  -28.0707  -31.8973   26.7254 H   0  0  0  0  0  0
  -28.2499  -38.0372   24.7556 H   0  0  0  0  0  0
  -28.1078  -36.2841   24.6126 H   0  0  0  0  0  0
  -27.2283  -37.1487   25.8910 H   0  0  0  0  0  0
  -23.3353  -26.0123   22.4469 H   0  0  0  0  0  0
  -26.0049  -38.3063   24.1552 H   0  0  0  0  0  0
  -28.1211  -23.6790   25.3949 H   0  0  0  0  0  0
  -26.7818  -25.4382   24.1637 H   0  0  0  0  0  0
  -25.8057  -18.6800   23.1083 H   0  0  0  0  0  0
  -25.9098  -18.8443   21.4323 H   0  0  0  0  0  0
  -29.1166  -20.7459   22.5075 H   0  0  0  0  0  0
  -28.5656  -19.5993   23.6277 H   0  0  0  0  0  0
  -26.8496  -16.5774   21.9771 H   0  0  0  0  0  0
  -27.7696  -17.1568   23.2713 H   0  0  0  0  0  0
  -30.2598  -18.6053   21.9651 H   0  0  0  0  0  0
  -29.2788  -18.9596   20.6073 H   0  0  0  0  0  0
  -25.3010  -24.1653   22.4973 H   0  0  0  0  0  0
  -26.8062  -21.0310   21.4872 H   0  0  0  0  0  0
  -24.3876  -25.1272   25.4673 H   0  0  0  0  0  0
  -23.0141  -24.4752   24.6555 H   0  0  0  0  0  0
  -21.3828  -28.3700   24.6004 H   0  0  0  0  0  0
  -22.6934  -29.3875   24.4573 H   0  0  0  0  0  0
  -21.8202  -29.7427   21.2025 H   0  0  0  0  0  0
  -21.3044  -28.3391   20.9730 H   0  0  0  0  0  0
  -24.1089  -27.3110   24.7729 H   0  0  0  0  0  0
  -22.9800  -26.9472   25.7998 H   0  0  0  0  0  0
  1 25  1  0  0  0
  1 30  2  0  0  0
  1 84  1  0  0  0
  2  3  1  0  0  0
  2 25  1  0  0  0
  2 87  1  0  0  0
  2 88  1  0  0  0
  3  4  1  0  0  0
  3 89  1  0  0  0
  3 90  1  0  0  0
  4  5  1  0  0  0
  4 91  1  0  0  0
  4 92  1  0  0  0
  5  6  1  0  0  0
  5 26  1  0  0  0
  5 93  1  0  0  0
  6 25  1  0  0  0
  6 94  1  0  0  0
  6 95  1  0  0  0
  7  8  2  0  0  0
  7 26  1  0  0  0
  7 29  1  0  0  0
  8  9  1  0  0  0
  8 22  1  0  0  0
  9 10  1  0  0  0
  9 27  2  0  0  0
 10 11  2  0  0  0
 10 15  1  0  0  0
 11 12  1  0  0  0
 11 96  1  0  0  0
 12 13  2  0  0  0
 12 97  1  0  0  0
 13 14  1  0  0  0
 13 31  1  0  0  0
 14 15  2  0  0  0
 14 98  1  0  0  0
 15 99  1  0  0  0
 16 17  2  0  0  0
 16 21  1  0  0  0
 16 31  1  0  0  0
 17 18  1  0  0  0
 17100  1  0  0  0
 18 19  2  0  0  0
 18101  1  0  0  0
 19 20  1  0  0  0
 19 24  1  0  0  0
 20 21  2  0  0  0
 20102  1  0  0  0
 21 23  1  0  0  0
 22 28  1  0  0  0
 22 32  2  0  0  0
 26 27  1  0  0  0
 28103  1  0  0  0
 28104  1  0  0  0
 29105  1  0  0  0
 29106  1  0  0  0
 33 34  1  0  0  0
 33 66  1  0  0  0
 33 70  2  0  0  0
 34 36  1  0  0  0
 34 59  1  0  0  0
 34107  1  0  0  0
 35 44  2  0  0  0
 35 45  1  0  0  0
 35 68  1  0  0  0
 36 56  1  0  0  0
 36108  1  0  0  0
 37 39  1  0  0  0
 37 47  1  0  0  0
 37 66  1  0  0  0
 37109  1  0  0  0
 38 43  2  0  0  0
 38 46  1  0  0  0
 38 47  1  0  0  0
 39 64  1  0  0  0
 39 67  2  0  0  0
 40 52  1  0  0  0
 40 53  2  0  0  0
 40 58  1  0  0  0
 41110  1  0  0  0
 41111  1  0  0  0
 41112  1  0  0  0
 41 48  1  0  0  0
 42 43  1  0  0  0
 42 66  1  0  0  0
 42113  1  0  0  0
 42114  1  0  0  0
 43 44  1  0  0  0
 44115  1  0  0  0
 45 46  2  0  0  0
 45116  1  0  0  0
 46117  1  0  0  0
 47118  1  0  0  0
 47119  1  0  0  0
 48 56  1  0  0  0
 48 65  1  0  0  0
 48120  1  0  0  0
 49 50  1  0  0  0
 49 53  1  0  0  0
 49 64  1  0  0  0
 49121  1  0  0  0
 50 51  1  0  0  0
 50122  1  0  0  0
 50123  1  0  0  0
 51 52  1  0  0  0
 51124  1  0  0  0
 51125  1  0  0  0
 52126  1  0  0  0
 52127  1  0  0  0
 53 54  1  0  0  0
 54 55  2  0  0  0
 54128  1  0  0  0
 55 57  1  0  0  0
 55129  1  0  0  0
 56 69  2  0  0  0
 57 58  2  0  0  0
 57130  1  0  0  0
 58131  1  0  0  0
 59 60  1  0  0  0
 59 61  1  0  0  0
 59 62  1  0  0  0
 60132  1  0  0  0
 60133  1  0  0  0
 60134  1  0  0  0
 61135  1  0  0  0
 61136  1  0  0  0
 61137  1  0  0  0
 62138  1  0  0  0
 62139  1  0  0  0
 62140  1  0  0  0
 63 65  1  0  0  0
 63141  1  0  0  0
 63142  1  0  0  0
 63143  1  0  0  0
 64144  1  0  0  0
 65145  1  0  0  0
 68 82  1  0  0  0
 71 72  2  0  0  0
 71 73  1  0  0  0
 71146  1  0  0  0
 72 78  1  0  0  0
 72147  1  0  0  0
 73 83  1  0  0  0
 73 86  2  0  0  0
 74 76  1  0  0  0
 74 79  1  0  0  0
 74148  1  0  0  0
 74149  1  0  0  0
 75 77  1  0  0  0
 75 79  1  0  0  0
 75150  1  0  0  0
 75151  1  0  0  0
 76 84  1  0  0  0
 76152  1  0  0  0
 76153  1  0  0  0
 77 84  1  0  0  0
 77154  1  0  0  0
 77155  1  0  0  0
 78 80  1  0  0  0
 78 83  1  0  0  0
 78156  1  0  0  0
 79 83  1  0  0  0
 79157  1  0  0  0
 80 85  1  0  0  0
 80158  1  0  0  0
 80159  1  0  0  0
 81 82  1  0  0  0
 81 85  1  0  0  0
 81160  1  0  0  0
 81161  1  0  0  0
 82162  1  0  0  0
 82163  1  0  0  0
 85164  1  0  0  0
 85165  1  0  0  0
M  CHG  1  85   1
M  ISO  4   1 100  68 101  82 101  84 100
M  END
> <chiral flag>
0

> <version>
0

> <s_m_source_file>
/data/baiqing/PycharmProjects/Reinvent-master-3.2/result/LINK_invent/BTK/process_docking_weight1_custom_sum_contain_oxygen_bond_distance_aromatic_linkinvent_7_9_3/rearranged_h_0192.sdf

> <i_m_source_file_index>
86

> <r_mmod_Potential_Energy-OPLS-2005>
16092.6572265625

> <r_mmod_Stretch_Energy-OPLS-2005>
5608.4521484375

> <r_mmod_Bend_Energy-OPLS-2005>
1925.08215332031

> <r_mmod_Torsional_Energy-OPLS-2005>
791.230163574219

> <r_mmod_Improper_Torsional_Energy-OPLS-2005>
91.856689453125

> <r_mmod_Van_der_Waal_Energy-OPLS-2005>
2018.337890625

> <r_mmod_Electrostatic_Energy-OPLS-2005>
-211.046875

> <r_mmod_Solvation_Energy-OPLS-2005>
-444.247039794922

> <b_mmod_Minimization_Converged-OPLS-2005>
0

> <r_mmod_RMS_Derivative-OPLS-2005>
33.3503837585449

$$$$
86
                    3D
 Structure written by MMmdl.
151160  0  0  1  0            999 V2000
  -30.5066  -15.0476   20.4045 C   0  0  0  0  0  0
  -30.4411  -12.6555   19.5046 C   0  0  0  0  0  0
  -29.5244  -12.5377   18.2640 C   0  0  0  0  0  0
  -28.0619  -12.3050   18.6858 C   0  0  0  0  0  0
  -27.6237  -13.2543   19.8304 C   0  0  2  0  0  0
  -28.6643  -13.3300   20.9676 C   0  0  0  0  0  0
  -25.2448  -13.8232   20.5725 C   0  0  0  0  0  0
  -24.1769  -13.0445   20.9242 C   0  0  0  0  0  0
  -24.6387  -11.6933   20.8762 C   0  0  0  0  0  0
  -23.9072  -10.4299   21.0413 C   0  0  0  0  0  0
  -24.3621   -9.4212   21.9192 C   0  0  0  0  0  0
  -23.6293   -8.2247   22.0763 C   0  0  0  0  0  0
  -22.4277   -8.0281   21.3549 C   0  0  0  0  0  0
  -21.9912   -9.0260   20.4653 C   0  0  0  0  0  0
  -22.7242  -10.2140   20.3060 C   0  0  0  0  0  0
  -21.6851   -6.0733   22.5279 C   0  0  0  0  0  0
  -21.4017   -6.5638   23.8212 C   0  0  0  0  0  0
  -21.3659   -5.6791   24.9175 C   0  0  0  0  0  0
  -21.6042   -4.3055   24.7225 C   0  0  0  0  0  0
  -21.8820   -3.8144   23.4346 C   0  0  0  0  0  0
  -21.9196   -4.6962   22.3402 C   0  0  0  0  0  0
  -22.7789  -13.5213   21.1887 C   0  0  0  0  0  0
  -22.1664   -4.2148   21.0980 F   0  0  0  0  0  0
  -21.5625   -3.4539   25.7738 F   0  0  0  0  0  0
  -29.9262  -13.7707   20.3596 N   0  0  0  0  0  0
  -26.2859  -12.9464   20.3223 N   0  0  0  0  0  0
  -25.9319  -11.6591   20.5733 N   0  0  0  0  0  0
  -22.0430  -12.8211   22.0442 N   0  0  0  0  0  0
  -25.4121  -15.1961   20.4150 N   0  0  0  0  0  0
  -31.7170  -15.0964   20.1553 O   0  0  0  0  0  0
  -21.6640   -6.8876   21.4238 O   0  0  0  0  0  0
  -22.3477  -14.5514   20.6720 O   0  0  0  0  0  0
  -24.6489  -31.8374   23.1814 C   0  0  0  0  0  0
  -25.9236  -32.4655   23.8222 C   0  0  1  0  0  0
  -27.2204  -27.0652   20.1657 C   0  0  0  0  0  0
  -25.5960  -33.8465   24.2141 N   0  0  0  0  0  0
  -23.4574  -30.4525   21.5284 C   0  0  2  0  0  0
  -24.9093  -28.8649   20.1114 C   0  0  0  0  0  0
  -22.7608  -29.4503   22.4832 C   0  0  0  0  0  0
  -18.0317  -28.1400   22.8462 C   0  0  0  0  0  0
  -24.1491  -36.7236   23.2645 C   0  0  0  0  0  0
  -26.0174  -30.6879   21.3913 C   0  0  0  0  0  0
  -26.0880  -29.2914   20.7349 C   0  0  0  0  0  0
  -27.2422  -28.4098   20.7413 C   0  0  0  0  0  0
  -26.0171  -26.7610   19.4924 C   0  0  0  0  0  0
  -24.8910  -27.6161   19.4714 C   0  0  0  0  0  0
  -23.6890  -29.7748   20.1512 C   0  0  0  0  0  0
  -25.4126  -36.3007   24.0309 C   0  0  1  0  0  0
  -20.5930  -28.3733   23.1218 C   0  0  2  0  0  0
  -20.6792  -26.9434   22.5394 C   0  0  0  0  0  0
  -19.5765  -26.6382   21.5201 C   0  0  0  0  0  0
  -18.1953  -26.7930   22.1620 C   0  0  0  0  0  0
  -19.1574  -28.8884   23.2827 C   0  0  0  0  0  0
  -18.9484  -30.1478   23.8855 C   0  0  0  0  0  0
  -17.6480  -30.6585   24.0557 C   0  0  0  0  0  0
  -25.9083  -34.9385   23.5039 C   0  0  0  0  0  0
  -16.5372  -29.9075   23.6335 C   0  0  0  0  0  0
  -16.7302  -28.6503   23.0340 C   0  0  0  0  0  0
  -26.4529  -31.6550   25.0694 C   0  0  0  0  0  0
  -25.3688  -31.3760   26.1374 C   0  0  0  0  0  0
  -27.0410  -30.2939   24.6332 C   0  0  0  0  0  0
  -27.6036  -32.4343   25.7491 C   0  0  0  0  0  0
  -27.5576  -37.1776   24.8468 C   0  0  0  0  0  0
  -21.4290  -29.3051   22.3589 N   0  0  0  0  0  0
  -26.4284  -37.3731   23.9412 N   0  0  0  0  0  0
  -24.7280  -31.0166   22.0883 N   0  0  0  0  0  0
  -23.4221  -28.8049   23.3008 O   0  0  0  0  0  0
  -28.2633  -26.0457   20.2301 O   0  0  0  0  0  0
  -26.5677  -34.8900   22.4624 O   0  0  0  0  0  0
  -23.5593  -32.1282   23.6993 O   0  0  0  0  0  0
  -29.5038  -18.5615   21.6927 C   0  0  0  0  0  0
  -28.6342  -23.3964   21.2417 C   0  0  0  0  0  0
  -28.7155  -23.3774   19.2763 C   0  0  0  0  0  0
  -29.1409  -19.2748   20.4168 C   0  0  2  0  0  0
  -30.0534  -17.8063   20.5011 C   0  0  2  0  0  0
  -28.0078  -24.4697   20.2194 C   0  0  2  0  0  0
  -29.5368  -20.9401   20.3078 C   0  0  0  0  0  0
  -29.7215  -16.2522   20.5407 N   0  0  0  0  0  0
  -28.5457  -22.2199   20.2666 N   0  3  1  0  0  0
  -31.4688  -12.8303   19.1834 H   0  0  0  0  0  0
  -30.4597  -11.7189   20.0635 H   0  0  0  0  0  0
  -29.8611  -11.7265   17.6177 H   0  0  0  0  0  0
  -29.5931  -13.4510   17.6706 H   0  0  0  0  0  0
  -27.9767  -11.2690   19.0167 H   0  0  0  0  0  0
  -27.3974  -12.4081   17.8272 H   0  0  0  0  0  0
  -27.5715  -14.2442   19.3760 H   0  0  0  0  0  0
  -28.7781  -12.3678   21.4695 H   0  0  0  0  0  0
  -28.3444  -14.0415   21.7302 H   0  0  0  0  0  0
  -25.2761   -9.5692   22.4774 H   0  0  0  0  0  0
  -23.9997   -7.4638   22.7484 H   0  0  0  0  0  0
  -21.0841   -8.8775   19.8964 H   0  0  0  0  0  0
  -22.3687  -10.9680   19.6175 H   0  0  0  0  0  0
  -21.2008   -7.6148   23.9717 H   0  0  0  0  0  0
  -21.1478   -6.0521   25.9080 H   0  0  0  0  0  0
  -22.0598   -2.7605   23.2848 H   0  0  0  0  0  0
  -22.4030  -11.9865   22.4831 H   0  0  0  0  0  0
  -21.1052  -13.1260   22.2646 H   0  0  0  0  0  0
  -24.6405  -15.8459   20.5215 H   0  0  0  0  0  0
  -26.2439  -15.6342   20.0416 H   0  0  0  0  0  0
  -26.7300  -32.5239   23.0945 H   0  0  0  0  0  0
  -25.0069  -33.9560   25.0265 H   0  0  0  0  0  0
  -22.7636  -31.2799   21.3672 H   0  0  0  0  0  0
  -23.3757  -35.9563   23.3286 H   0  0  0  0  0  0
  -24.3574  -36.8896   22.2064 H   0  0  0  0  0  0
  -23.7250  -37.6426   23.6700 H   0  0  0  0  0  0
  -26.1820  -31.4373   20.6159 H   0  0  0  0  0  0
  -26.8832  -30.7401   22.0395 H   0  0  0  0  0  0
  -28.1381  -28.7328   21.2521 H   0  0  0  0  0  0
  -25.9177  -25.8138   18.9837 H   0  0  0  0  0  0
  -23.9947  -27.2862   18.9635 H   0  0  0  0  0  0
  -23.8317  -30.5456   19.3933 H   0  0  0  0  0  0
  -22.8022  -29.2208   19.8384 H   0  0  0  0  0  0
  -25.1320  -36.1816   25.0800 H   0  0  0  0  0  0
  -21.0015  -28.3317   24.1340 H   0  0  0  0  0  0
  -20.5663  -26.2349   23.3613 H   0  0  0  0  0  0
  -21.6659  -26.7420   22.1199 H   0  0  0  0  0  0
  -19.6925  -25.6284   21.1258 H   0  0  0  0  0  0
  -19.6703  -27.3167   20.6710 H   0  0  0  0  0  0
  -17.4205  -26.6650   21.4039 H   0  0  0  0  0  0
  -18.0373  -26.0081   22.9031 H   0  0  0  0  0  0
  -19.7960  -30.7309   24.2199 H   0  0  0  0  0  0
  -17.5026  -31.6255   24.5173 H   0  0  0  0  0  0
  -15.5363  -30.2958   23.7673 H   0  0  0  0  0  0
  -15.8708  -28.0810   22.7064 H   0  0  0  0  0  0
  -24.5866  -30.7118   25.7685 H   0  0  0  0  0  0
  -24.8871  -32.2945   26.4725 H   0  0  0  0  0  0
  -25.7940  -30.8974   27.0204 H   0  0  0  0  0  0
  -26.3046  -29.6645   24.1322 H   0  0  0  0  0  0
  -27.3984  -29.7267   25.4936 H   0  0  0  0  0  0
  -27.8972  -30.4160   23.9694 H   0  0  0  0  0  0
  -27.2600  -33.3662   26.1991 H   0  0  0  0  0  0
  -28.3879  -32.6879   25.0346 H   0  0  0  0  0  0
  -28.0664  -31.8525   26.5474 H   0  0  0  0  0  0
  -28.2578  -38.0085   24.7508 H   0  0  0  0  0  0
  -28.1084  -36.2611   24.6295 H   0  0  0  0  0  0
  -27.2289  -37.1426   25.8870 H   0  0  0  0  0  0
  -20.9512  -29.8794   21.6784 H   0  0  0  0  0  0
  -26.0138  -38.2798   24.1413 H   0  0  0  0  0  0
  -28.6761  -18.1121   22.2390 H   0  0  0  0  0  0
  -30.2456  -19.0269   22.3404 H   0  0  0  0  0  0
  -28.0336  -23.2447   22.1393 H   0  0  0  0  0  0
  -29.6655  -23.6244   21.5228 H   0  0  0  0  0  0
  -29.7667  -23.6044   19.0795 H   0  0  0  0  0  0
  -28.1938  -23.2084   18.3346 H   0  0  0  0  0  0
  -28.1445  -19.0980   20.0161 H   0  0  0  0  0  0
  -31.0993  -17.9875   20.2552 H   0  0  0  0  0  0
  -26.9312  -24.3021   20.2016 H   0  0  0  0  0  0
  -30.1287  -21.0280   19.3972 H   0  0  0  0  0  0
  -30.2535  -21.1472   21.1021 H   0  0  0  0  0  0
  -28.7424  -16.0523   20.6838 H   0  0  0  0  0  0
  -27.5928  -21.8934   20.2225 H   0  0  0  0  0  0
  1 25  1  0  0  0
  1 30  2  0  0  0
  1 78  1  0  0  0
  2  3  1  0  0  0
  2 25  1  0  0  0
  2 80  1  0  0  0
  2 81  1  0  0  0
  3  4  1  0  0  0
  3 82  1  0  0  0
  3 83  1  0  0  0
  4  5  1  0  0  0
  4 84  1  0  0  0
  4 85  1  0  0  0
  5  6  1  0  0  0
  5 26  1  0  0  0
  5 86  1  0  0  0
  6 25  1  0  0  0
  6 87  1  0  0  0
  6 88  1  0  0  0
  7  8  2  0  0  0
  7 26  1  0  0  0
  7 29  1  0  0  0
  8  9  1  0  0  0
  8 22  1  0  0  0
  9 10  1  0  0  0
  9 27  2  0  0  0
 10 11  2  0  0  0
 10 15  1  0  0  0
 11 12  1  0  0  0
 11 89  1  0  0  0
 12 13  2  0  0  0
 12 90  1  0  0  0
 13 14  1  0  0  0
 13 31  1  0  0  0
 14 15  2  0  0  0
 14 91  1  0  0  0
 15 92  1  0  0  0
 16 17  2  0  0  0
 16 21  1  0  0  0
 16 31  1  0  0  0
 17 18  1  0  0  0
 17 93  1  0  0  0
 18 19  2  0  0  0
 18 94  1  0  0  0
 19 20  1  0  0  0
 19 24  1  0  0  0
 20 21  2  0  0  0
 20 95  1  0  0  0
 21 23  1  0  0  0
 22 28  1  0  0  0
 22 32  2  0  0  0
 26 27  1  0  0  0
 28 96  1  0  0  0
 28 97  1  0  0  0
 29 98  1  0  0  0
 29 99  1  0  0  0
 33 34  1  0  0  0
 33 66  1  0  0  0
 33 70  2  0  0  0
 34 36  1  0  0  0
 34 59  1  0  0  0
 34100  1  0  0  0
 35 44  2  0  0  0
 35 45  1  0  0  0
 35 68  1  0  0  0
 36 56  1  0  0  0
 36101  1  0  0  0
 37 39  1  0  0  0
 37 47  1  0  0  0
 37 66  1  0  0  0
 37102  1  0  0  0
 38 43  2  0  0  0
 38 46  1  0  0  0
 38 47  1  0  0  0
 39 64  1  0  0  0
 39 67  2  0  0  0
 40 52  1  0  0  0
 40 53  2  0  0  0
 40 58  1  0  0  0
 41103  1  0  0  0
 41104  1  0  0  0
 41105  1  0  0  0
 41 48  1  0  0  0
 42 43  1  0  0  0
 42 66  1  0  0  0
 42106  1  0  0  0
 42107  1  0  0  0
 43 44  1  0  0  0
 44108  1  0  0  0
 45 46  2  0  0  0
 45109  1  0  0  0
 46110  1  0  0  0
 47111  1  0  0  0
 47112  1  0  0  0
 48 56  1  0  0  0
 48 65  1  0  0  0
 48113  1  0  0  0
 49 50  1  0  0  0
 49 53  1  0  0  0
 49 64  1  0  0  0
 49114  1  0  0  0
 50 51  1  0  0  0
 50115  1  0  0  0
 50116  1  0  0  0
 51 52  1  0  0  0
 51117  1  0  0  0
 51118  1  0  0  0
 52119  1  0  0  0
 52120  1  0  0  0
 53 54  1  0  0  0
 54 55  2  0  0  0
 54121  1  0  0  0
 55 57  1  0  0  0
 55122  1  0  0  0
 56 69  2  0  0  0
 57 58  2  0  0  0
 57123  1  0  0  0
 58124  1  0  0  0
 59 60  1  0  0  0
 59 61  1  0  0  0
 59 62  1  0  0  0
 60125  1  0  0  0
 60126  1  0  0  0
 60127  1  0  0  0
 61128  1  0  0  0
 61129  1  0  0  0
 61130  1  0  0  0
 62131  1  0  0  0
 62132  1  0  0  0
 62133  1  0  0  0
 63 65  1  0  0  0
 63134  1  0  0  0
 63135  1  0  0  0
 63136  1  0  0  0
 64137  1  0  0  0
 65138  1  0  0  0
 68 76  1  0  0  0
 71 74  1  0  0  0
 71 75  1  0  0  0
 71139  1  0  0  0
 71140  1  0  0  0
 72 76  1  0  0  0
 72 79  1  0  0  0
 72141  1  0  0  0
 72142  1  0  0  0
 73 76  1  0  0  0
 73 79  1  0  0  0
 73143  1  0  0  0
 73144  1  0  0  0
 74 75  1  0  0  0
 74 77  1  0  0  0
 74145  1  0  0  0
 75 78  1  0  0  0
 75146  1  0  0  0
 76147  1  0  0  0
 77148  1  0  0  0
 77149  1  0  0  0
 77 79  1  0  0  0
 78150  1  0  0  0
 79151  1  0  0  0
M  CHG  1  79   1
M  ISO  4   1 100  68 101  76 101  78 100
M  END
> <chiral flag>
0

> <version>
0

> <s_m_source_file>
/data/baiqing/PycharmProjects/Reinvent-master-3.2/result/LINK_invent/BTK/process_docking_weight1_custom_sum_contain_oxygen_bond_distance_aromatic_linkinvent_7_9_3/rearranged_h_0192.sdf

> <i_m_source_file_index>
87

> <r_mmod_Potential_Energy-OPLS-2005>
595.5087890625

> <r_mmod_Stretch_Energy-OPLS-2005>
354.8232421875

> <r_mmod_Bend_Energy-OPLS-2005>
335.729614257812

> <r_mmod_Torsional_Energy-OPLS-2005>
290.552856445312

> <r_mmod_Improper_Torsional_Energy-OPLS-2005>
3.79939460754395

> <r_mmod_Van_der_Waal_Energy-OPLS-2005>
115.148681640625

> <r_mmod_Electrostatic_Energy-OPLS-2005>
-277.360015869141

> <r_mmod_Solvation_Energy-OPLS-2005>
-491.653106689453

> <b_mmod_Minimization_Converged-OPLS-2005>
0

> <r_mmod_RMS_Derivative-OPLS-2005>
1.29099822044373

$$$$
87
                    3D
 Structure written by MMmdl.
156164  0  0  1  0            999 V2000
  -30.5100  -14.9777   20.4279 C   0  0  0  0  0  0
  -30.4498  -12.6148   19.4897 C   0  0  0  0  0  0
  -29.5242  -12.5336   18.2523 C   0  0  0  0  0  0
  -28.0581  -12.3120   18.6737 C   0  0  0  0  0  0
  -27.6298  -13.2454   19.8360 C   0  0  2  0  0  0
  -28.6741  -13.2759   20.9712 C   0  0  0  0  0  0
  -25.2473  -13.8207   20.5709 C   0  0  0  0  0  0
  -24.1789  -13.0435   20.9232 C   0  0  0  0  0  0
  -24.6404  -11.6917   20.8761 C   0  0  0  0  0  0
  -23.9086  -10.4291   21.0414 C   0  0  0  0  0  0
  -24.3632   -9.4205   21.9191 C   0  0  0  0  0  0
  -23.6301   -8.2242   22.0757 C   0  0  0  0  0  0
  -22.4283   -8.0285   21.3547 C   0  0  0  0  0  0
  -21.9923   -9.0260   20.4648 C   0  0  0  0  0  0
  -22.7258  -10.2135   20.3061 C   0  0  0  0  0  0
  -21.6853   -6.0741   22.5283 C   0  0  0  0  0  0
  -21.4014   -6.5643   23.8216 C   0  0  0  0  0  0
  -21.3658   -5.6795   24.9178 C   0  0  0  0  0  0
  -21.6044   -4.3057   24.7226 C   0  0  0  0  0  0
  -21.8818   -3.8151   23.4348 C   0  0  0  0  0  0
  -21.9194   -4.6969   22.3404 C   0  0  0  0  0  0
  -22.7812  -13.5211   21.1884 C   0  0  0  0  0  0
  -22.1663   -4.2154   21.0982 F   0  0  0  0  0  0
  -21.5627   -3.4541   25.7739 F   0  0  0  0  0  0
  -29.9419  -13.7056   20.3687 N   0  0  0  0  0  0
  -26.2891  -12.9429   20.3233 N   0  0  0  0  0  0
  -25.9334  -11.6563   20.5735 N   0  0  0  0  0  0
  -22.0457  -12.8198   22.0433 N   0  0  0  0  0  0
  -25.4128  -15.1937   20.4123 N   0  0  0  0  0  0
  -31.7177  -15.0869   20.1813 O   0  0  0  0  0  0
  -21.6642   -6.8883   21.4243 O   0  0  0  0  0  0
  -22.3503  -14.5519   20.6727 O   0  0  0  0  0  0
  -24.6454  -31.8411   23.1859 C   0  0  0  0  0  0
  -25.9220  -32.4677   23.8252 C   0  0  1  0  0  0
  -27.2179  -27.1043   20.1661 C   0  0  0  0  0  0
  -25.5960  -33.8483   24.2160 N   0  0  0  0  0  0
  -23.4505  -30.4585   21.5322 C   0  0  2  0  0  0
  -24.9014  -28.8775   20.1152 C   0  0  0  0  0  0
  -22.7577  -29.4522   22.4853 C   0  0  0  0  0  0
  -18.0306  -28.1395   22.8477 C   0  0  0  0  0  0
  -24.1492  -36.7243   23.2641 C   0  0  0  0  0  0
  -26.0084  -30.7064   21.3884 C   0  0  0  0  0  0
  -26.0803  -29.3129   20.7340 C   0  0  0  0  0  0
  -27.2403  -28.4450   20.7377 C   0  0  0  0  0  0
  -26.0139  -26.7790   19.5042 C   0  0  0  0  0  0
  -24.8830  -27.6251   19.4833 C   0  0  0  0  0  0
  -23.6795  -29.7844   20.1530 C   0  0  0  0  0  0
  -25.4126  -36.3011   24.0304 C   0  0  1  0  0  0
  -20.5920  -28.3716   23.1236 C   0  0  2  0  0  0
  -20.6788  -26.9417   22.5408 C   0  0  0  0  0  0
  -19.5762  -26.6377   21.5215 C   0  0  0  0  0  0
  -18.1943  -26.7933   22.1626 C   0  0  0  0  0  0
  -19.1564  -28.8875   23.2846 C   0  0  0  0  0  0
  -18.9479  -30.1474   23.8865 C   0  0  0  0  0  0
  -17.6474  -30.6590   24.0558 C   0  0  0  0  0  0
  -25.9080  -34.9394   23.5039 C   0  0  0  0  0  0
  -16.5365  -29.9080   23.6341 C   0  0  0  0  0  0
  -16.7290  -28.6503   23.0355 C   0  0  0  0  0  0
  -26.4537  -31.6558   25.0707 C   0  0  0  0  0  0
  -25.3709  -31.3765   26.1391 C   0  0  0  0  0  0
  -27.0406  -30.2945   24.6314 C   0  0  0  0  0  0
  -27.6050  -32.4339   25.7502 C   0  0  0  0  0  0
  -27.5568  -37.1777   24.8463 C   0  0  0  0  0  0
  -21.4267  -29.3038   22.3609 N   0  0  0  0  0  0
  -26.4280  -37.3730   23.9405 N   0  0  0  0  0  0
  -24.7213  -31.0240   22.0906 N   0  0  0  0  0  0
  -23.4209  -28.8070   23.3013 O   0  0  0  0  0  0
  -28.2744  -26.1120   20.1917 O   0  0  0  0  0  0
  -26.5670  -34.8898   22.4620 O   0  0  0  0  0  0
  -23.5568  -32.1300   23.7068 O   0  0  0  0  0  0
  -28.7454  -18.8712   20.7053 C   0  0  0  0  0  0
  -30.7567  -20.0150   20.1078 C   0  0  0  0  0  0
  -29.9182  -17.7094   20.7419 C   0  0  2  0  0  0
  -29.2299  -20.3333   20.0999 C   0  0  2  0  0  0
  -30.9371  -18.4514   19.8436 C   0  0  2  0  0  0
  -28.9240  -23.2028   20.0412 C   0  0  0  0  0  0
  -28.0241  -24.5838   20.4928 C   0  0  0  0  0  0
  -29.6922  -16.1396   20.5569 N   0  0  0  0  0  0
  -32.3061  -17.9424   20.0482 N   0  3  0  0  0  0
  -28.6936  -21.7417   20.6610 N   0  3  0  0  0  0
  -31.4773  -12.8001   19.1726 H   0  0  0  0  0  0
  -30.4673  -11.6649   20.0263 H   0  0  0  0  0  0
  -29.8485  -11.7317   17.5876 H   0  0  0  0  0  0
  -29.6019  -13.4575   17.6771 H   0  0  0  0  0  0
  -27.9594  -11.2709   18.9841 H   0  0  0  0  0  0
  -27.3930  -12.4385   17.8184 H   0  0  0  0  0  0
  -27.5898  -14.2458   19.4046 H   0  0  0  0  0  0
  -28.7732  -12.2980   21.4442 H   0  0  0  0  0  0
  -28.3686  -13.9698   21.7559 H   0  0  0  0  0  0
  -25.2775   -9.5679   22.4769 H   0  0  0  0  0  0
  -24.0009   -7.4633   22.7476 H   0  0  0  0  0  0
  -21.0856   -8.8786   19.8953 H   0  0  0  0  0  0
  -22.3723  -10.9678   19.6172 H   0  0  0  0  0  0
  -21.2004   -7.6151   23.9720 H   0  0  0  0  0  0
  -21.1480   -6.0525   25.9079 H   0  0  0  0  0  0
  -22.0597   -2.7613   23.2848 H   0  0  0  0  0  0
  -22.4077  -11.9859   22.4818 H   0  0  0  0  0  0
  -21.1071  -13.1212   22.2630 H   0  0  0  0  0  0
  -24.6355  -15.8371   20.5153 H   0  0  0  0  0  0
  -26.2417  -15.6349   20.0378 H   0  0  0  0  0  0
  -26.7284  -32.5276   23.0978 H   0  0  0  0  0  0
  -25.0074  -33.9596   25.0284 H   0  0  0  0  0  0
  -22.7536  -31.2847   21.3744 H   0  0  0  0  0  0
  -23.3753  -35.9575   23.3291 H   0  0  0  0  0  0
  -24.3573  -36.8899   22.2057 H   0  0  0  0  0  0
  -23.7257  -37.6435   23.6699 H   0  0  0  0  0  0
  -26.1648  -31.4593   20.6146 H   0  0  0  0  0  0
  -26.8779  -30.7598   22.0316 H   0  0  0  0  0  0
  -28.1407  -28.7778   21.2348 H   0  0  0  0  0  0
  -25.9235  -25.8293   18.9988 H   0  0  0  0  0  0
  -23.9861  -27.2894   18.9811 H   0  0  0  0  0  0
  -23.8192  -30.5571   19.3961 H   0  0  0  0  0  0
  -22.7939  -29.2277   19.8408 H   0  0  0  0  0  0
  -25.1321  -36.1821   25.0795 H   0  0  0  0  0  0
  -21.0009  -28.3306   24.1360 H   0  0  0  0  0  0
  -20.5679  -26.2327   23.3626 H   0  0  0  0  0  0
  -21.6653  -26.7421   22.1205 H   0  0  0  0  0  0
  -19.6921  -25.6281   21.1260 H   0  0  0  0  0  0
  -19.6702  -27.3176   20.6733 H   0  0  0  0  0  0
  -17.4212  -26.6677   21.4030 H   0  0  0  0  0  0
  -18.0341  -26.0080   22.9025 H   0  0  0  0  0  0
  -19.7953  -30.7303   24.2215 H   0  0  0  0  0  0
  -17.5026  -31.6270   24.5162 H   0  0  0  0  0  0
  -15.5365  -30.2970   23.7686 H   0  0  0  0  0  0
  -15.8690  -28.0817   22.7078 H   0  0  0  0  0  0
  -24.5900  -30.7102   25.7713 H   0  0  0  0  0  0
  -24.8884  -32.2953   26.4729 H   0  0  0  0  0  0
  -25.7978  -30.8999   27.0221 H   0  0  0  0  0  0
  -26.3030  -29.6662   24.1309 H   0  0  0  0  0  0
  -27.3987  -29.7258   25.4906 H   0  0  0  0  0  0
  -27.8952  -30.4167   23.9657 H   0  0  0  0  0  0
  -27.2628  -33.3662   26.2004 H   0  0  0  0  0  0
  -28.3908  -32.6863   25.0372 H   0  0  0  0  0  0
  -28.0665  -31.8515   26.5490 H   0  0  0  0  0  0
  -28.2570  -38.0085   24.7503 H   0  0  0  0  0  0
  -28.1079  -36.2611   24.6299 H   0  0  0  0  0  0
  -27.2283  -37.1433   25.8865 H   0  0  0  0  0  0
  -20.9482  -29.8746   21.6782 H   0  0  0  0  0  0
  -26.0135  -38.2791   24.1421 H   0  0  0  0  0  0
  -28.3588  -19.0054   21.7157 H   0  0  0  0  0  0
  -27.8994  -18.5162   20.1161 H   0  0  0  0  0  0
  -31.1731  -20.2732   21.0823 H   0  0  0  0  0  0
  -31.2859  -20.6121   19.3647 H   0  0  0  0  0  0
  -30.3163  -17.7686   21.7566 H   0  0  0  0  0  0
  -28.9268  -20.3324   19.0515 H   0  0  0  0  0  0
  -30.6721  -18.2519   18.8038 H   0  0  0  0  0  0
  -29.9753  -23.4342   20.2091 H   0  0  0  0  0  0
  -28.8256  -23.1023   18.9601 H   0  0  0  0  0  0
  -27.9937  -24.5556   21.5821 H   0  0  0  0  0  0
  -26.9978  -24.3620   20.2072 H   0  0  0  0  0  0
  -28.7199  -15.8852   20.6439 H   0  0  0  0  0  0
  -32.6521  -18.1647   20.9643 H   0  0  0  0  0  0
  -32.9366  -18.3215   19.3649 H   0  0  0  0  0  0
  -32.3009  -16.9335   19.9554 H   0  0  0  0  0  0
  -28.9576  -21.7947   21.6324 H   0  0  0  0  0  0
  -27.6911  -21.6313   20.6688 H   0  0  0  0  0  0
  1 25  1  0  0  0
  1 30  2  0  0  0
  1 78  1  0  0  0
  2  3  1  0  0  0
  2 25  1  0  0  0
  2 81  1  0  0  0
  2 82  1  0  0  0
  3  4  1  0  0  0
  3 83  1  0  0  0
  3 84  1  0  0  0
  4  5  1  0  0  0
  4 85  1  0  0  0
  4 86  1  0  0  0
  5  6  1  0  0  0
  5 26  1  0  0  0
  5 87  1  0  0  0
  6 25  1  0  0  0
  6 88  1  0  0  0
  6 89  1  0  0  0
  7  8  2  0  0  0
  7 26  1  0  0  0
  7 29  1  0  0  0
  8  9  1  0  0  0
  8 22  1  0  0  0
  9 10  1  0  0  0
  9 27  2  0  0  0
 10 11  2  0  0  0
 10 15  1  0  0  0
 11 12  1  0  0  0
 11 90  1  0  0  0
 12 13  2  0  0  0
 12 91  1  0  0  0
 13 14  1  0  0  0
 13 31  1  0  0  0
 14 15  2  0  0  0
 14 92  1  0  0  0
 15 93  1  0  0  0
 16 17  2  0  0  0
 16 21  1  0  0  0
 16 31  1  0  0  0
 17 18  1  0  0  0
 17 94  1  0  0  0
 18 19  2  0  0  0
 18 95  1  0  0  0
 19 20  1  0  0  0
 19 24  1  0  0  0
 20 21  2  0  0  0
 20 96  1  0  0  0
 21 23  1  0  0  0
 22 28  1  0  0  0
 22 32  2  0  0  0
 26 27  1  0  0  0
 28 97  1  0  0  0
 28 98  1  0  0  0
 29 99  1  0  0  0
 29100  1  0  0  0
 33 34  1  0  0  0
 33 66  1  0  0  0
 33 70  2  0  0  0
 34 36  1  0  0  0
 34 59  1  0  0  0
 34101  1  0  0  0
 35 44  2  0  0  0
 35 45  1  0  0  0
 35 68  1  0  0  0
 36 56  1  0  0  0
 36102  1  0  0  0
 37 39  1  0  0  0
 37 47  1  0  0  0
 37 66  1  0  0  0
 37103  1  0  0  0
 38 43  2  0  0  0
 38 46  1  0  0  0
 38 47  1  0  0  0
 39 64  1  0  0  0
 39 67  2  0  0  0
 40 52  1  0  0  0
 40 53  2  0  0  0
 40 58  1  0  0  0
 41104  1  0  0  0
 41105  1  0  0  0
 41106  1  0  0  0
 41 48  1  0  0  0
 42 43  1  0  0  0
 42 66  1  0  0  0
 42107  1  0  0  0
 42108  1  0  0  0
 43 44  1  0  0  0
 44109  1  0  0  0
 45 46  2  0  0  0
 45110  1  0  0  0
 46111  1  0  0  0
 47112  1  0  0  0
 47113  1  0  0  0
 48 56  1  0  0  0
 48 65  1  0  0  0
 48114  1  0  0  0
 49 50  1  0  0  0
 49 53  1  0  0  0
 49 64  1  0  0  0
 49115  1  0  0  0
 50 51  1  0  0  0
 50116  1  0  0  0
 50117  1  0  0  0
 51 52  1  0  0  0
 51118  1  0  0  0
 51119  1  0  0  0
 52120  1  0  0  0
 52121  1  0  0  0
 53 54  1  0  0  0
 54 55  2  0  0  0
 54122  1  0  0  0
 55 57  1  0  0  0
 55123  1  0  0  0
 56 69  2  0  0  0
 57 58  2  0  0  0
 57124  1  0  0  0
 58125  1  0  0  0
 59 60  1  0  0  0
 59 61  1  0  0  0
 59 62  1  0  0  0
 60126  1  0  0  0
 60127  1  0  0  0
 60128  1  0  0  0
 61129  1  0  0  0
 61130  1  0  0  0
 61131  1  0  0  0
 62132  1  0  0  0
 62133  1  0  0  0
 62134  1  0  0  0
 63 65  1  0  0  0
 63135  1  0  0  0
 63136  1  0  0  0
 63137  1  0  0  0
 64138  1  0  0  0
 65139  1  0  0  0
 68 77  1  0  0  0
 71 73  1  0  0  0
 71 74  1  0  0  0
 71140  1  0  0  0
 71141  1  0  0  0
 72 74  1  0  0  0
 72 75  1  0  0  0
 72142  1  0  0  0
 72143  1  0  0  0
 73 75  1  0  0  0
 73 78  1  0  0  0
 73144  1  0  0  0
 74 80  1  0  0  0
 74145  1  0  0  0
 75 79  1  0  0  0
 75146  1  0  0  0
 76 77  1  0  0  0
 76 80  1  0  0  0
 76147  1  0  0  0
 76148  1  0  0  0
 77149  1  0  0  0
 77150  1  0  0  0
 78151  1  0  0  0
 79152  1  0  0  0
 79153  1  0  0  0
 79154  1  0  0  0
 80155  1  0  0  0
 80156  1  0  0  0
M  CHG  2  79   1  80   1
M  ISO  4   1 100  68 101  77 101  78 100
M  END
> <chiral flag>
0

> <version>
0

> <s_m_source_file>
/data/baiqing/PycharmProjects/Reinvent-master-3.2/result/LINK_invent/BTK/process_docking_weight1_custom_sum_contain_oxygen_bond_distance_aromatic_linkinvent_7_9_3/rearranged_h_0192.sdf

> <i_m_source_file_index>
88

> <r_mmod_Potential_Energy-OPLS-2005>
189.937377929688

> <r_mmod_Stretch_Energy-OPLS-2005>
284.818634033203

> <r_mmod_Bend_Energy-OPLS-2005>
325.296356201172

> <r_mmod_Torsional_Energy-OPLS-2005>
292.062347412109

> <r_mmod_Improper_Torsional_Energy-OPLS-2005>
4.50132322311401

> <r_mmod_Van_der_Waal_Energy-OPLS-2005>
109.469413757324

> <r_mmod_Electrostatic_Energy-OPLS-2005>
-72.0951995849609

> <r_mmod_Solvation_Energy-OPLS-2005>
-972.069396972656

> <b_mmod_Minimization_Converged-OPLS-2005>
0

> <r_mmod_RMS_Derivative-OPLS-2005>
0.711184680461884

$$$$
88
                    3D
 Structure written by MMmdl.
154162  0  0  1  0            999 V2000
  -30.5269  -15.1433   20.3883 C   0  0  0  0  0  0
  -30.4225  -12.7255   19.5183 C   0  0  0  0  0  0
  -29.5253  -12.5585   18.2712 C   0  0  0  0  0  0
  -28.0589  -12.3315   18.6737 C   0  0  0  0  0  0
  -27.6095  -13.2795   19.8147 C   0  0  2  0  0  0
  -28.6436  -13.4159   20.9488 C   0  0  0  0  0  0
  -25.2401  -13.8278   20.5740 C   0  0  0  0  0  0
  -24.1755  -13.0442   20.9228 C   0  0  0  0  0  0
  -24.6428  -11.6963   20.8708 C   0  0  0  0  0  0
  -23.9135  -10.4319   21.0379 C   0  0  0  0  0  0
  -24.3673   -9.4236   21.9163 C   0  0  0  0  0  0
  -23.6352   -8.2269   22.0739 C   0  0  0  0  0  0
  -22.4320   -8.0287   21.3525 C   0  0  0  0  0  0
  -21.9982   -9.0281   20.4635 C   0  0  0  0  0  0
  -22.7306  -10.2152   20.3040 C   0  0  0  0  0  0
  -21.6880   -6.0753   22.5265 C   0  0  0  0  0  0
  -21.4066   -6.5658   23.8205 C   0  0  0  0  0  0
  -21.3688   -5.6796   24.9161 C   0  0  0  0  0  0
  -21.6058   -4.3048   24.7193 C   0  0  0  0  0  0
  -21.8808   -3.8159   23.4303 C   0  0  0  0  0  0
  -21.9210   -4.6982   22.3385 C   0  0  0  0  0  0
  -22.7763  -13.5166   21.1870 C   0  0  0  0  0  0
  -22.1642   -4.2191   21.0946 F   0  0  0  0  0  0
  -21.5636   -3.4514   25.7694 F   0  0  0  0  0  0
  -29.8922  -13.8782   20.3281 N   0  0  0  0  0  0
  -26.2810  -12.9575   20.3127 N   0  0  0  0  0  0
  -25.9345  -11.6667   20.5632 N   0  0  0  0  0  0
  -22.0421  -12.8175   22.0439 N   0  0  0  0  0  0
  -25.4025  -15.2028   20.4328 N   0  0  0  0  0  0
  -31.7497  -15.0792   20.2079 O   0  0  0  0  0  0
  -21.6662   -6.8901   21.4230 O   0  0  0  0  0  0
  -22.3429  -14.5434   20.6656 O   0  0  0  0  0  0
  -24.6588  -31.8308   23.1799 C   0  0  0  0  0  0
  -25.9298  -32.4624   23.8227 C   0  0  1  0  0  0
  -27.2139  -26.9820   20.1830 C   0  0  0  0  0  0
  -25.5980  -33.8436   24.2120 N   0  0  0  0  0  0
  -23.4717  -30.4480   21.5249 C   0  0  2  0  0  0
  -24.9248  -28.8479   20.1201 C   0  0  0  0  0  0
  -22.7645  -29.4483   22.4787 C   0  0  0  0  0  0
  -18.0317  -28.1394   22.8473 C   0  0  0  0  0  0
  -24.1504  -36.7234   23.2640 C   0  0  0  0  0  0
  -26.0396  -30.6656   21.3969 C   0  0  0  0  0  0
  -26.1124  -29.2597   20.7362 C   0  0  0  0  0  0
  -27.2596  -28.3504   20.7356 C   0  0  0  0  0  0
  -25.9906  -26.7103   19.5333 C   0  0  0  0  0  0
  -24.8842  -27.5905   19.5012 C   0  0  0  0  0  0
  -23.7123  -29.7735   20.1486 C   0  0  0  0  0  0
  -25.4137  -36.2974   24.0291 C   0  0  1  0  0  0
  -20.5947  -28.3745   23.1207 C   0  0  2  0  0  0
  -20.6791  -26.9431   22.5409 C   0  0  0  0  0  0
  -19.5765  -26.6355   21.5222 C   0  0  0  0  0  0
  -18.1947  -26.7922   22.1627 C   0  0  0  0  0  0
  -19.1581  -28.8887   23.2820 C   0  0  0  0  0  0
  -18.9480  -30.1473   23.8855 C   0  0  0  0  0  0
  -17.6476  -30.6579   24.0552 C   0  0  0  0  0  0
  -25.9095  -34.9363   23.5015 C   0  0  0  0  0  0
  -16.5372  -29.9064   23.6333 C   0  0  0  0  0  0
  -16.7305  -28.6493   23.0348 C   0  0  0  0  0  0
  -26.4524  -31.6557   25.0763 C   0  0  0  0  0  0
  -25.3654  -31.3847   26.1437 C   0  0  0  0  0  0
  -27.0381  -30.2904   24.6511 C   0  0  0  0  0  0
  -27.5999  -32.4359   25.7586 C   0  0  0  0  0  0
  -27.5571  -37.1791   24.8451 C   0  0  0  0  0  0
  -21.4331  -29.3044   22.3554 N   0  0  0  0  0  0
  -26.4273  -37.3717   23.9392 N   0  0  0  0  0  0
  -24.7439  -31.0058   22.0879 N   0  0  0  0  0  0
  -23.4226  -28.8027   23.2982 O   0  0  0  0  0  0
  -28.2099  -25.8858   20.2429 O   0  0  0  0  0  0
  -26.5691  -34.8877   22.4599 O   0  0  0  0  0  0
  -23.5669  -32.1203   23.6957 O   0  0  0  0  0  0
  -28.8465  -22.9036   20.1997 C   0  0  0  0  0  0
  -28.3375  -18.7220   19.8373 C   0  0  0  0  0  0
  -30.0293  -19.1696   21.3691 C   0  0  0  0  0  0
  -28.9525  -17.1917   19.5817 C   0  0  0  0  0  0
  -30.7022  -17.7033   20.9991 C   0  0  0  0  0  0
  -29.2335  -20.0178   20.2604 C   0  0  0  0  0  0
  -27.5027  -21.3122   21.5749 C   0  0  0  0  0  0
  -27.8200  -24.3010   20.2606 C   0  0  0  0  0  0
  -29.8969  -16.4733   20.5485 N   0  0  0  0  0  0
  -28.5622  -21.5039   20.5794 N   0  0  0  0  0  0
  -29.9471  -23.1090   19.6804 O   0  0  0  0  0  0
  -31.4513  -12.8853   19.1916 H   0  0  0  0  0  0
  -30.4453  -11.8075   20.1090 H   0  0  0  0  0  0
  -29.8793  -11.7307   17.6545 H   0  0  0  0  0  0
  -29.5892  -13.4543   17.6526 H   0  0  0  0  0  0
  -27.9508  -11.2927   18.9827 H   0  0  0  0  0  0
  -27.4150  -12.4602   17.8044 H   0  0  0  0  0  0
  -27.5361  -14.2596   19.3448 H   0  0  0  0  0  0
  -28.7703  -12.4774   21.4933 H   0  0  0  0  0  0
  -28.2979  -14.1529   21.6723 H   0  0  0  0  0  0
  -25.2820   -9.5730   22.4722 H   0  0  0  0  0  0
  -24.0071   -7.4694   22.7480 H   0  0  0  0  0  0
  -21.0905   -8.8826   19.8950 H   0  0  0  0  0  0
  -22.3783  -10.9695   19.6145 H   0  0  0  0  0  0
  -21.2059   -7.6169   23.9722 H   0  0  0  0  0  0
  -21.1527   -6.0507   25.9068 H   0  0  0  0  0  0
  -22.0564   -2.7623   23.2757 H   0  0  0  0  0  0
  -22.4092  -11.9922   22.4935 H   0  0  0  0  0  0
  -21.0996  -13.1179   22.2549 H   0  0  0  0  0  0
  -24.6396  -15.8459   20.6103 H   0  0  0  0  0  0
  -26.2600  -15.6652   20.1592 H   0  0  0  0  0  0
  -26.7406  -32.5186   23.0972 H   0  0  0  0  0  0
  -25.0062  -33.9516   25.0231 H   0  0  0  0  0  0
  -22.7816  -31.2784   21.3624 H   0  0  0  0  0  0
  -23.3751  -35.9579   23.3271 H   0  0  0  0  0  0
  -24.3583  -36.8913   22.2060 H   0  0  0  0  0  0
  -23.7288  -37.6424   23.6722 H   0  0  0  0  0  0
  -26.2154  -31.4244   20.6323 H   0  0  0  0  0  0
  -26.8985  -30.7171   22.0547 H   0  0  0  0  0  0
  -28.1702  -28.6720   21.2227 H   0  0  0  0  0  0
  -25.8451  -25.7502   19.0646 H   0  0  0  0  0  0
  -23.9757  -27.2661   19.0140 H   0  0  0  0  0  0
  -23.8794  -30.5497   19.4014 H   0  0  0  0  0  0
  -22.8222  -29.2367   19.8169 H   0  0  0  0  0  0
  -25.1349  -36.1743   25.0784 H   0  0  0  0  0  0
  -21.0053  -28.3328   24.1328 H   0  0  0  0  0  0
  -20.5667  -26.2363   23.3640 H   0  0  0  0  0  0
  -21.6646  -26.7392   22.1220 H   0  0  0  0  0  0
  -19.6913  -25.6244   21.1284 H   0  0  0  0  0  0
  -19.6689  -27.3129   20.6720 H   0  0  0  0  0  0
  -17.4222  -26.6675   21.4020 H   0  0  0  0  0  0
  -18.0335  -26.0062   22.9026 H   0  0  0  0  0  0
  -19.7954  -30.7289   24.2213 H   0  0  0  0  0  0
  -17.5025  -31.6256   24.5151 H   0  0  0  0  0  0
  -15.5364  -30.2938   23.7683 H   0  0  0  0  0  0
  -15.8706  -28.0786   22.7075 H   0  0  0  0  0  0
  -24.5815  -30.7203   25.7792 H   0  0  0  0  0  0
  -24.8856  -32.3073   26.4725 H   0  0  0  0  0  0
  -25.7877  -30.9113   27.0316 H   0  0  0  0  0  0
  -26.3030  -29.6602   24.1508 H   0  0  0  0  0  0
  -27.3852  -29.7266   25.5182 H   0  0  0  0  0  0
  -27.9006  -30.4029   23.9946 H   0  0  0  0  0  0
  -27.2530  -33.3668   26.2085 H   0  0  0  0  0  0
  -28.3873  -32.6917   25.0491 H   0  0  0  0  0  0
  -28.0609  -31.8557   26.5589 H   0  0  0  0  0  0
  -28.2558  -38.0116   24.7486 H   0  0  0  0  0  0
  -28.1088  -36.2634   24.6268 H   0  0  0  0  0  0
  -27.2291  -37.1442   25.8856 H   0  0  0  0  0  0
  -20.9561  -29.8781   21.6740 H   0  0  0  0  0  0
  -26.0102  -38.2773   24.1370 H   0  0  0  0  0  0
  -27.5646  -18.5832   20.5941 H   0  0  0  0  0  0
  -27.7818  -18.9921   18.9400 H   0  0  0  0  0  0
  -30.8255  -19.8096   21.7538 H   0  0  0  0  0  0
  -29.3642  -19.0094   22.2213 H   0  0  0  0  0  0
  -29.4689  -17.2089   18.6218 H   0  0  0  0  0  0
  -28.1071  -16.5222   19.4266 H   0  0  0  0  0  0
  -31.2929  -17.3909   21.8606 H   0  0  0  0  0  0
  -31.4367  -17.8858   20.2118 H   0  0  0  0  0  0
  -29.9307  -20.2051   19.4417 H   0  0  0  0  0  0
  -26.9178  -22.2022   21.7901 H   0  0  0  0  0  0
  -27.9473  -20.9963   22.5198 H   0  0  0  0  0  0
  -26.7906  -20.5510   21.2638 H   0  0  0  0  0  0
  -27.1295  -24.1746   21.0912 H   0  0  0  0  0  0
  -27.2109  -24.1394   19.3719 H   0  0  0  0  0  0
  1 25  1  0  0  0
  1 30  2  0  0  0
  1 79  1  0  0  0
  2  3  1  0  0  0
  2 25  1  0  0  0
  2 82  1  0  0  0
  2 83  1  0  0  0
  3  4  1  0  0  0
  3 84  1  0  0  0
  3 85  1  0  0  0
  4  5  1  0  0  0
  4 86  1  0  0  0
  4 87  1  0  0  0
  5  6  1  0  0  0
  5 26  1  0  0  0
  5 88  1  0  0  0
  6 25  1  0  0  0
  6 89  1  0  0  0
  6 90  1  0  0  0
  7  8  2  0  0  0
  7 26  1  0  0  0
  7 29  1  0  0  0
  8  9  1  0  0  0
  8 22  1  0  0  0
  9 10  1  0  0  0
  9 27  2  0  0  0
 10 11  2  0  0  0
 10 15  1  0  0  0
 11 12  1  0  0  0
 11 91  1  0  0  0
 12 13  2  0  0  0
 12 92  1  0  0  0
 13 14  1  0  0  0
 13 31  1  0  0  0
 14 15  2  0  0  0
 14 93  1  0  0  0
 15 94  1  0  0  0
 16 17  2  0  0  0
 16 21  1  0  0  0
 16 31  1  0  0  0
 17 18  1  0  0  0
 17 95  1  0  0  0
 18 19  2  0  0  0
 18 96  1  0  0  0
 19 20  1  0  0  0
 19 24  1  0  0  0
 20 21  2  0  0  0
 20 97  1  0  0  0
 21 23  1  0  0  0
 22 28  1  0  0  0
 22 32  2  0  0  0
 26 27  1  0  0  0
 28 98  1  0  0  0
 28 99  1  0  0  0
 29100  1  0  0  0
 29101  1  0  0  0
 33 34  1  0  0  0
 33 66  1  0  0  0
 33 70  2  0  0  0
 34 36  1  0  0  0
 34 59  1  0  0  0
 34102  1  0  0  0
 35 44  2  0  0  0
 35 45  1  0  0  0
 35 68  1  0  0  0
 36 56  1  0  0  0
 36103  1  0  0  0
 37 39  1  0  0  0
 37 47  1  0  0  0
 37 66  1  0  0  0
 37104  1  0  0  0
 38 43  2  0  0  0
 38 46  1  0  0  0
 38 47  1  0  0  0
 39 64  1  0  0  0
 39 67  2  0  0  0
 40 52  1  0  0  0
 40 53  2  0  0  0
 40 58  1  0  0  0
 41105  1  0  0  0
 41106  1  0  0  0
 41107  1  0  0  0
 41 48  1  0  0  0
 42 43  1  0  0  0
 42 66  1  0  0  0
 42108  1  0  0  0
 42109  1  0  0  0
 43 44  1  0  0  0
 44110  1  0  0  0
 45 46  2  0  0  0
 45111  1  0  0  0
 46112  1  0  0  0
 47113  1  0  0  0
 47114  1  0  0  0
 48 56  1  0  0  0
 48 65  1  0  0  0
 48115  1  0  0  0
 49 50  1  0  0  0
 49 53  1  0  0  0
 49 64  1  0  0  0
 49116  1  0  0  0
 50 51  1  0  0  0
 50117  1  0  0  0
 50118  1  0  0  0
 51 52  1  0  0  0
 51119  1  0  0  0
 51120  1  0  0  0
 52121  1  0  0  0
 52122  1  0  0  0
 53 54  1  0  0  0
 54 55  2  0  0  0
 54123  1  0  0  0
 55 57  1  0  0  0
 55124  1  0  0  0
 56 69  2  0  0  0
 57 58  2  0  0  0
 57125  1  0  0  0
 58126  1  0  0  0
 59 60  1  0  0  0
 59 61  1  0  0  0
 59 62  1  0  0  0
 60127  1  0  0  0
 60128  1  0  0  0
 60129  1  0  0  0
 61130  1  0  0  0
 61131  1  0  0  0
 61132  1  0  0  0
 62133  1  0  0  0
 62134  1  0  0  0
 62135  1  0  0  0
 63 65  1  0  0  0
 63136  1  0  0  0
 63137  1  0  0  0
 63138  1  0  0  0
 64139  1  0  0  0
 65140  1  0  0  0
 68 78  1  0  0  0
 71 78  1  0  0  0
 71 80  1  0  0  0
 71 81  2  0  0  0
 72 74  1  0  0  0
 72 76  1  0  0  0
 72141  1  0  0  0
 72142  1  0  0  0
 73 75  1  0  0  0
 73 76  1  0  0  0
 73143  1  0  0  0
 73144  1  0  0  0
 74 79  1  0  0  0
 74145  1  0  0  0
 74146  1  0  0  0
 75 79  1  0  0  0
 75147  1  0  0  0
 75148  1  0  0  0
 76 80  1  0  0  0
 76149  1  0  0  0
 77 80  1  0  0  0
 77150  1  0  0  0
 77151  1  0  0  0
 77152  1  0  0  0
 78153  1  0  0  0
 78154  1  0  0  0
M  ISO  4   1 100  68 101  78 101  79 100
M  END
> <chiral flag>
0

> <version>
0

> <s_m_source_file>
/data/baiqing/PycharmProjects/Reinvent-master-3.2/result/LINK_invent/BTK/process_docking_weight1_custom_sum_contain_oxygen_bond_distance_aromatic_linkinvent_7_9_3/rearranged_h_0192.sdf

> <i_m_source_file_index>
89

> <r_mmod_Potential_Energy-OPLS-2005>
1249.40478515625

> <r_mmod_Stretch_Energy-OPLS-2005>
452.828125

> <r_mmod_Bend_Energy-OPLS-2005>
421.262390136719

> <r_mmod_Torsional_Energy-OPLS-2005>
366.390533447266

> <r_mmod_Improper_Torsional_Energy-OPLS-2005>
7.01686382293701

> <r_mmod_Van_der_Waal_Energy-OPLS-2005>
119.233169555664

> <r_mmod_Electrostatic_Energy-OPLS-2005>
-237.142166137695

> <r_mmod_Solvation_Energy-OPLS-2005>
-236.726867675781

> <b_mmod_Minimization_Converged-OPLS-2005>
0

> <r_mmod_RMS_Derivative-OPLS-2005>
4.97508192062378

$$$$
89
                    3D
 Structure written by MMmdl.
153162  0  0  1  0            999 V2000
  -30.5272  -14.9718   20.4051 C   0  0  0  0  0  0
  -30.4317  -12.6010   19.4997 C   0  0  0  0  0  0
  -29.5157  -12.5241   18.2569 C   0  0  0  0  0  0
  -28.0509  -12.3053   18.6776 C   0  0  0  0  0  0
  -27.6226  -13.2490   19.8316 C   0  0  2  0  0  0
  -28.6613  -13.2970   20.9708 C   0  0  0  0  0  0
  -25.2430  -13.8207   20.5698 C   0  0  0  0  0  0
  -24.1759  -13.0429   20.9216 C   0  0  0  0  0  0
  -24.6374  -11.6911   20.8744 C   0  0  0  0  0  0
  -23.9061  -10.4286   21.0402 C   0  0  0  0  0  0
  -24.3611   -9.4204   21.9182 C   0  0  0  0  0  0
  -23.6286   -8.2243   22.0758 C   0  0  0  0  0  0
  -22.4272   -8.0274   21.3544 C   0  0  0  0  0  0
  -21.9903   -9.0244   20.4648 C   0  0  0  0  0  0
  -22.7228  -10.2125   20.3054 C   0  0  0  0  0  0
  -21.6857   -6.0720   22.5271 C   0  0  0  0  0  0
  -21.4020   -6.5628   23.8200 C   0  0  0  0  0  0
  -21.3663   -5.6786   24.9167 C   0  0  0  0  0  0
  -21.6046   -4.3047   24.7222 C   0  0  0  0  0  0
  -21.8817   -3.8132   23.4344 C   0  0  0  0  0  0
  -21.9195   -4.6948   22.3400 C   0  0  0  0  0  0
  -22.7778  -13.5195   21.1861 C   0  0  0  0  0  0
  -22.1661   -4.2128   21.0979 F   0  0  0  0  0  0
  -21.5634   -3.4537   25.7738 F   0  0  0  0  0  0
  -29.9323  -13.7101   20.3663 N   0  0  0  0  0  0
  -26.2845  -12.9444   20.3214 N   0  0  0  0  0  0
  -25.9305  -11.6569   20.5725 N   0  0  0  0  0  0
  -22.0447  -12.8197   22.0437 N   0  0  0  0  0  0
  -25.4074  -15.1943   20.4118 N   0  0  0  0  0  0
  -31.7382  -15.0167   20.1600 O   0  0  0  0  0  0
  -21.6645   -6.8865   21.4232 O   0  0  0  0  0  0
  -22.3456  -14.5491   20.6686 O   0  0  0  0  0  0
  -24.6437  -31.8411   23.1842 C   0  0  0  0  0  0
  -25.9201  -32.4678   23.8243 C   0  0  1  0  0  0
  -27.2203  -27.1126   20.1612 C   0  0  0  0  0  0
  -25.5949  -33.8484   24.2158 N   0  0  0  0  0  0
  -23.4498  -30.4552   21.5304 C   0  0  2  0  0  0
  -24.8988  -28.8691   20.1143 C   0  0  0  0  0  0
  -22.7569  -29.4518   22.4866 C   0  0  0  0  0  0
  -18.0300  -28.1402   22.8472 C   0  0  0  0  0  0
  -24.1489  -36.7247   23.2645 C   0  0  0  0  0  0
  -26.0042  -30.7059   21.3861 C   0  0  0  0  0  0
  -26.0740  -29.3113   20.7345 C   0  0  0  0  0  0
  -27.2327  -28.4474   20.7408 C   0  0  0  0  0  0
  -26.0188  -26.7678   19.5088 C   0  0  0  0  0  0
  -24.8835  -27.6108   19.4891 C   0  0  0  0  0  0
  -23.6782  -29.7772   20.1522 C   0  0  0  0  0  0
  -25.4122  -36.3021   24.0313 C   0  0  1  0  0  0
  -20.5909  -28.3722   23.1243 C   0  0  2  0  0  0
  -20.6787  -26.9429   22.5406 C   0  0  0  0  0  0
  -19.5765  -26.6381   21.5217 C   0  0  0  0  0  0
  -18.1942  -26.7940   22.1621 C   0  0  0  0  0  0
  -19.1556  -28.8879   23.2849 C   0  0  0  0  0  0
  -18.9479  -30.1473   23.8880 C   0  0  0  0  0  0
  -17.6478  -30.6600   24.0556 C   0  0  0  0  0  0
  -25.9074  -34.9397   23.5047 C   0  0  0  0  0  0
  -16.5367  -29.9089   23.6345 C   0  0  0  0  0  0
  -16.7285  -28.6507   23.0363 C   0  0  0  0  0  0
  -26.4513  -31.6572   25.0709 C   0  0  0  0  0  0
  -25.3686  -31.3780   26.1403 C   0  0  0  0  0  0
  -27.0384  -30.2968   24.6303 C   0  0  0  0  0  0
  -27.6038  -32.4349   25.7496 C   0  0  0  0  0  0
  -27.5572  -37.1777   24.8466 C   0  0  0  0  0  0
  -21.4258  -29.3049   22.3621 N   0  0  0  0  0  0
  -26.4286  -37.3733   23.9408 N   0  0  0  0  0  0
  -24.7194  -31.0226   22.0899 N   0  0  0  0  0  0
  -23.4200  -28.8090   23.3048 O   0  0  0  0  0  0
  -28.3138  -26.1706   20.1808 O   0  0  0  0  0  0
  -26.5659  -34.8907   22.4623 O   0  0  0  0  0  0
  -23.5550  -32.1320   23.7038 O   0  0  0  0  0  0
  -28.2561  -23.7420   19.1523 C   0  0  0  0  0  0
  -28.2949  -24.6921   20.2453 C   0  0  0  0  0  0
  -28.8241  -21.8515   20.4938 C   0  0  0  0  0  0
  -29.9506  -19.2224   18.6922 C   0  0  0  0  0  0
  -30.5844  -17.8384   18.8316 C   0  0  0  0  0  0
  -29.1622  -19.0516   19.9956 C   0  0  1  0  0  0
  -30.1587  -17.7041   20.3069 C   0  0  1  0  0  0
  -28.0162  -24.2170   17.7348 C   0  0  0  0  0  0
  -28.4953  -22.3636   19.2822 N   0  0  0  0  0  0
  -28.6400  -24.0727   21.4302 N   0  0  0  0  0  0
  -28.8826  -22.7149   21.5511 N   0  0  0  0  0  0
  -29.1732  -20.4255   20.7447 N   0  0  0  0  0  0
  -29.7578  -16.1760   20.4963 N   0  0  0  0  0  0
  -31.4647  -12.7575   19.1856 H   0  0  0  0  0  0
  -30.4280  -11.6545   20.0430 H   0  0  0  0  0  0
  -29.8402  -11.7203   17.5944 H   0  0  0  0  0  0
  -29.5988  -13.4475   17.6820 H   0  0  0  0  0  0
  -27.9533  -11.2668   18.9976 H   0  0  0  0  0  0
  -27.3845  -12.4212   17.8217 H   0  0  0  0  0  0
  -27.5800  -14.2453   19.3898 H   0  0  0  0  0  0
  -28.7532  -12.3292   21.4665 H   0  0  0  0  0  0
  -28.3532  -14.0124   21.7353 H   0  0  0  0  0  0
  -25.2756   -9.5685   22.4751 H   0  0  0  0  0  0
  -23.9989   -7.4645   22.7489 H   0  0  0  0  0  0
  -21.0833   -8.8750   19.8966 H   0  0  0  0  0  0
  -22.3672  -10.9653   19.6159 H   0  0  0  0  0  0
  -21.2015   -7.6136   23.9695 H   0  0  0  0  0  0
  -21.1492   -6.0521   25.9068 H   0  0  0  0  0  0
  -22.0597   -2.7591   23.2852 H   0  0  0  0  0  0
  -22.4081  -11.9865   22.4823 H   0  0  0  0  0  0
  -21.1062  -13.1209   22.2647 H   0  0  0  0  0  0
  -24.6287  -15.8361   20.5151 H   0  0  0  0  0  0
  -26.2424  -15.6415   20.0571 H   0  0  0  0  0  0
  -26.7264  -32.5272   23.0970 H   0  0  0  0  0  0
  -25.0082  -33.9579   25.0298 H   0  0  0  0  0  0
  -22.7549  -31.2817   21.3694 H   0  0  0  0  0  0
  -23.3761  -35.9568   23.3295 H   0  0  0  0  0  0
  -24.3586  -36.8889   22.2066 H   0  0  0  0  0  0
  -23.7235  -37.6432   23.6692 H   0  0  0  0  0  0
  -26.1558  -31.4557   20.6084 H   0  0  0  0  0  0
  -26.8748  -30.7610   22.0281 H   0  0  0  0  0  0
  -28.1329  -28.7831   21.2361 H   0  0  0  0  0  0
  -25.9363  -25.8032   19.0304 H   0  0  0  0  0  0
  -23.9837  -27.2637   18.9993 H   0  0  0  0  0  0
  -23.8219  -30.5485   19.3945 H   0  0  0  0  0  0
  -22.7924  -29.2209   19.8401 H   0  0  0  0  0  0
  -25.1311  -36.1847   25.0805 H   0  0  0  0  0  0
  -20.9987  -28.3305   24.1368 H   0  0  0  0  0  0
  -20.5702  -26.2330   23.3621 H   0  0  0  0  0  0
  -21.6655  -26.7452   22.1198 H   0  0  0  0  0  0
  -19.6940  -25.6286   21.1264 H   0  0  0  0  0  0
  -19.6714  -27.3176   20.6738 H   0  0  0  0  0  0
  -17.4219  -26.6686   21.4015 H   0  0  0  0  0  0
  -18.0338  -26.0086   22.9020 H   0  0  0  0  0  0
  -19.7955  -30.7285   24.2253 H   0  0  0  0  0  0
  -17.5034  -31.6285   24.5151 H   0  0  0  0  0  0
  -15.5368  -30.2988   23.7684 H   0  0  0  0  0  0
  -15.8681  -28.0818   22.7102 H   0  0  0  0  0  0
  -24.5873  -30.7114   25.7738 H   0  0  0  0  0  0
  -24.8862  -32.2966   26.4756 H   0  0  0  0  0  0
  -25.7953  -30.9015   27.0236 H   0  0  0  0  0  0
  -26.3005  -29.6697   24.1287 H   0  0  0  0  0  0
  -27.3972  -29.7270   25.4883 H   0  0  0  0  0  0
  -27.8915  -30.4214   23.9630 H   0  0  0  0  0  0
  -27.2627  -33.3680   26.1994 H   0  0  0  0  0  0
  -28.3880  -32.6870   25.0349 H   0  0  0  0  0  0
  -28.0665  -31.8537   26.5478 H   0  0  0  0  0  0
  -28.2575  -38.0086   24.7511 H   0  0  0  0  0  0
  -28.1074  -36.2611   24.6289 H   0  0  0  0  0  0
  -27.2287  -37.1420   25.8867 H   0  0  0  0  0  0
  -20.9484  -29.8755   21.6781 H   0  0  0  0  0  0
  -26.0152  -38.2795   24.1424 H   0  0  0  0  0  0
  -29.3210  -19.3354   17.8081 H   0  0  0  0  0  0
  -30.7003  -20.0149   18.7347 H   0  0  0  0  0  0
  -31.6646  -17.8304   18.6783 H   0  0  0  0  0  0
  -30.0999  -17.1187   18.1694 H   0  0  0  0  0  0
  -28.1392  -18.7344   19.7848 H   0  0  0  0  0  0
  -30.9868  -17.9912   20.9581 H   0  0  0  0  0  0
  -28.0347  -25.3051   17.6716 H   0  0  0  0  0  0
  -27.0457  -23.8728   17.3810 H   0  0  0  0  0  0
  -28.7849  -23.8284   17.0667 H   0  0  0  0  0  0
  -29.3870  -20.3007   21.7266 H   0  0  0  0  0  0
  -28.7741  -16.0180   20.6592 H   0  0  0  0  0  0
  1 25  1  0  0  0
  1 30  2  0  0  0
  1 83  1  0  0  0
  2  3  1  0  0  0
  2 25  1  0  0  0
  2 84  1  0  0  0
  2 85  1  0  0  0
  3  4  1  0  0  0
  3 86  1  0  0  0
  3 87  1  0  0  0
  4  5  1  0  0  0
  4 88  1  0  0  0
  4 89  1  0  0  0
  5  6  1  0  0  0
  5 26  1  0  0  0
  5 90  1  0  0  0
  6 25  1  0  0  0
  6 91  1  0  0  0
  6 92  1  0  0  0
  7  8  2  0  0  0
  7 26  1  0  0  0
  7 29  1  0  0  0
  8  9  1  0  0  0
  8 22  1  0  0  0
  9 10  1  0  0  0
  9 27  2  0  0  0
 10 11  2  0  0  0
 10 15  1  0  0  0
 11 12  1  0  0  0
 11 93  1  0  0  0
 12 13  2  0  0  0
 12 94  1  0  0  0
 13 14  1  0  0  0
 13 31  1  0  0  0
 14 15  2  0  0  0
 14 95  1  0  0  0
 15 96  1  0  0  0
 16 17  2  0  0  0
 16 21  1  0  0  0
 16 31  1  0  0  0
 17 18  1  0  0  0
 17 97  1  0  0  0
 18 19  2  0  0  0
 18 98  1  0  0  0
 19 20  1  0  0  0
 19 24  1  0  0  0
 20 21  2  0  0  0
 20 99  1  0  0  0
 21 23  1  0  0  0
 22 28  1  0  0  0
 22 32  2  0  0  0
 26 27  1  0  0  0
 28100  1  0  0  0
 28101  1  0  0  0
 29102  1  0  0  0
 29103  1  0  0  0
 33 34  1  0  0  0
 33 66  1  0  0  0
 33 70  2  0  0  0
 34 36  1  0  0  0
 34 59  1  0  0  0
 34104  1  0  0  0
 35 44  2  0  0  0
 35 45  1  0  0  0
 35 68  1  0  0  0
 36 56  1  0  0  0
 36105  1  0  0  0
 37 39  1  0  0  0
 37 47  1  0  0  0
 37 66  1  0  0  0
 37106  1  0  0  0
 38 43  2  0  0  0
 38 46  1  0  0  0
 38 47  1  0  0  0
 39 64  1  0  0  0
 39 67  2  0  0  0
 40 52  1  0  0  0
 40 53  2  0  0  0
 40 58  1  0  0  0
 41107  1  0  0  0
 41108  1  0  0  0
 41109  1  0  0  0
 41 48  1  0  0  0
 42 43  1  0  0  0
 42 66  1  0  0  0
 42110  1  0  0  0
 42111  1  0  0  0
 43 44  1  0  0  0
 44112  1  0  0  0
 45 46  2  0  0  0
 45113  1  0  0  0
 46114  1  0  0  0
 47115  1  0  0  0
 47116  1  0  0  0
 48 56  1  0  0  0
 48 65  1  0  0  0
 48117  1  0  0  0
 49 50  1  0  0  0
 49 53  1  0  0  0
 49 64  1  0  0  0
 49118  1  0  0  0
 50 51  1  0  0  0
 50119  1  0  0  0
 50120  1  0  0  0
 51 52  1  0  0  0
 51121  1  0  0  0
 51122  1  0  0  0
 52123  1  0  0  0
 52124  1  0  0  0
 53 54  1  0  0  0
 54 55  2  0  0  0
 54125  1  0  0  0
 55 57  1  0  0  0
 55126  1  0  0  0
 56 69  2  0  0  0
 57 58  2  0  0  0
 57127  1  0  0  0
 58128  1  0  0  0
 59 60  1  0  0  0
 59 61  1  0  0  0
 59 62  1  0  0  0
 60129  1  0  0  0
 60130  1  0  0  0
 60131  1  0  0  0
 61132  1  0  0  0
 61133  1  0  0  0
 61134  1  0  0  0
 62135  1  0  0  0
 62136  1  0  0  0
 62137  1  0  0  0
 63 65  1  0  0  0
 63138  1  0  0  0
 63139  1  0  0  0
 63140  1  0  0  0
 64141  1  0  0  0
 65142  1  0  0  0
 68 72  1  0  0  0
 71 72  2  0  0  0
 71 78  1  0  0  0
 71 79  1  0  0  0
 72 80  1  0  0  0
 73 79  2  0  0  0
 73 81  1  0  0  0
 73 82  1  0  0  0
 74 75  1  0  0  0
 74 76  1  0  0  0
 74143  1  0  0  0
 74144  1  0  0  0
 75 77  1  0  0  0
 75145  1  0  0  0
 75146  1  0  0  0
 76 77  1  0  0  0
 76 82  1  0  0  0
 76147  1  0  0  0
 77 83  1  0  0  0
 77148  1  0  0  0
 78149  1  0  0  0
 78150  1  0  0  0
 78151  1  0  0  0
 80 81  2  0  0  0
 82152  1  0  0  0
 83153  1  0  0  0
M  ISO  4   1 100  68 101  72 101  83 100
M  END
> <chiral flag>
0

> <version>
0

> <s_m_source_file>
/data/baiqing/PycharmProjects/Reinvent-master-3.2/result/LINK_invent/BTK/process_docking_weight1_custom_sum_contain_oxygen_bond_distance_aromatic_linkinvent_7_9_3/rearranged_h_0192.sdf

> <i_m_source_file_index>
90

> <r_mmod_Potential_Energy-OPLS-2005>
395.088165283203

> <r_mmod_Stretch_Energy-OPLS-2005>
246.72785949707

> <r_mmod_Bend_Energy-OPLS-2005>
306.81982421875

> <r_mmod_Torsional_Energy-OPLS-2005>
247.615447998047

> <r_mmod_Improper_Torsional_Energy-OPLS-2005>
6.75865030288696

> <r_mmod_Van_der_Waal_Energy-OPLS-2005>
127.819786071777

> <r_mmod_Electrostatic_Energy-OPLS-2005>
-505.902252197266

> <r_mmod_Solvation_Energy-OPLS-2005>
-239.35856628418

> <b_mmod_Minimization_Converged-OPLS-2005>
0

> <r_mmod_RMS_Derivative-OPLS-2005>
1.3522070646286

$$$$
90
                    3D
 Structure written by MMmdl.
166175  0  0  1  0            999 V2000
  -30.7091  -14.4429   20.6082 C   0  0  0  0  0  0
  -30.4211  -12.3107   19.4045 C   0  0  0  0  0  0
  -29.4918  -12.5200   18.1922 C   0  0  0  0  0  0
  -28.0106  -12.3880   18.6032 C   0  0  0  0  0  0
  -27.6602  -13.2056   19.8750 C   0  0  2  0  0  0
  -28.7019  -12.9627   20.9883 C   0  0  0  0  0  0
  -25.2535  -13.8150   20.5661 C   0  0  0  0  0  0
  -24.1798  -13.0434   20.9190 C   0  0  0  0  0  0
  -24.6357  -11.6900   20.8743 C   0  0  0  0  0  0
  -23.9027  -10.4280   21.0400 C   0  0  0  0  0  0
  -24.3588   -9.4200   21.9175 C   0  0  0  0  0  0
  -23.6269   -8.2234   22.0742 C   0  0  0  0  0  0
  -22.4254   -8.0260   21.3536 C   0  0  0  0  0  0
  -21.9887   -9.0234   20.4648 C   0  0  0  0  0  0
  -22.7192  -10.2115   20.3055 C   0  0  0  0  0  0
  -21.6842   -6.0713   22.5278 C   0  0  0  0  0  0
  -21.4014   -6.5633   23.8207 C   0  0  0  0  0  0
  -21.3676   -5.6784   24.9171 C   0  0  0  0  0  0
  -21.6035   -4.3040   24.7225 C   0  0  0  0  0  0
  -21.8820   -3.8133   23.4355 C   0  0  0  0  0  0
  -21.9192   -4.6947   22.3404 C   0  0  0  0  0  0
  -22.7830  -13.5245   21.1861 C   0  0  0  0  0  0
  -22.1652   -4.2124   21.0988 F   0  0  0  0  0  0
  -21.5637   -3.4537   25.7758 F   0  0  0  0  0  0
  -30.0322  -13.2777   20.4380 N   0  0  0  0  0  0
  -26.2992  -12.9333   20.3361 N   0  0  0  0  0  0
  -25.9289  -11.6488   20.5760 N   0  0  0  0  0  0
  -22.0476  -12.8237   22.0422 N   0  0  0  0  0  0
  -25.4229  -15.1871   20.4072 N   0  0  0  0  0  0
  -31.8256  -14.6561   20.1266 O   0  0  0  0  0  0
  -21.6632   -6.8850   21.4229 O   0  0  0  0  0  0
  -22.3530  -14.5551   20.6684 O   0  0  0  0  0  0
  -24.6159  -31.8643   23.2081 C   0  0  0  0  0  0
  -25.9040  -32.4793   23.8384 C   0  0  1  0  0  0
  -27.2431  -27.4159   20.0964 C   0  0  0  0  0  0
  -25.5889  -33.8598   24.2311 N   0  0  0  0  0  0
  -23.4078  -30.4848   21.5491 C   0  0  2  0  0  0
  -24.8566  -28.9449   20.1194 C   0  0  0  0  0  0
  -22.7421  -29.4629   22.4993 C   0  0  0  0  0  0
  -18.0266  -28.1397   22.8469 C   0  0  0  0  0  0
  -24.1496  -36.7309   23.2637 C   0  0  0  0  0  0
  -25.9372  -30.8206   21.3675 C   0  0  0  0  0  0
  -26.0154  -29.4520   20.7207 C   0  0  0  0  0  0
  -27.2101  -28.6934   20.7096 C   0  0  0  0  0  0
  -26.0630  -26.9234   19.4969 C   0  0  0  0  0  0
  -24.8756  -27.6802   19.5076 C   0  0  0  0  0  0
  -23.6197  -29.8130   20.1648 C   0  0  0  0  0  0
  -25.4112  -36.3094   24.0333 C   0  0  1  0  0  0
  -20.5859  -28.3677   23.1311 C   0  0  2  0  0  0
  -20.6755  -26.9416   22.5417 C   0  0  0  0  0  0
  -19.5745  -26.6403   21.5205 C   0  0  0  0  0  0
  -18.1923  -26.7932   22.1629 C   0  0  0  0  0  0
  -19.1509  -28.8851   23.2880 C   0  0  0  0  0  0
  -18.9441  -30.1461   23.8899 C   0  0  0  0  0  0
  -17.6445  -30.6593   24.0566 C   0  0  0  0  0  0
  -25.9050  -34.9462   23.5126 C   0  0  0  0  0  0
  -16.5338  -29.9103   23.6328 C   0  0  0  0  0  0
  -16.7250  -28.6526   23.0323 C   0  0  0  0  0  0
  -26.4473  -31.6558   25.0710 C   0  0  0  0  0  0
  -25.3737  -31.3642   26.1449 C   0  0  0  0  0  0
  -27.0297  -30.2999   24.6073 C   0  0  0  0  0  0
  -27.6074  -32.4245   25.7460 C   0  0  0  0  0  0
  -27.5581  -37.1805   24.8461 C   0  0  0  0  0  0
  -21.4143  -29.3022   22.3707 N   0  0  0  0  0  0
  -26.4299  -37.3775   23.9405 N   0  0  0  0  0  0
  -24.6715  -31.0718   22.0997 N   0  0  0  0  0  0
  -23.4167  -28.8187   23.3054 O   0  0  0  0  0  0
  -28.4202  -26.6975   20.0180 O   0  0  0  0  0  0
  -26.5629  -34.8921   22.4702 O   0  0  0  0  0  0
  -23.5355  -32.1417   23.7454 O   0  0  0  0  0  0
  -28.3072  -24.2386   19.7231 C   0  0  0  0  0  0
  -28.4657  -25.4057   20.4472 C   0  0  0  0  0  0
  -28.7729  -23.7523   21.8026 C   0  0  0  0  0  0
  -28.0193  -22.1373   23.7371 C   0  0  0  0  0  0
  -28.4660  -23.4249   24.3789 C   0  0  0  0  0  0
  -29.0647  -22.9954   23.0587 C   0  0  0  0  0  0
  -27.9908  -24.0698   18.2699 C   0  0  0  0  0  0
  -30.7972  -17.7379   20.4934 C   0  0  0  0  0  0
  -28.2380  -21.7328   20.3364 C   0  0  0  0  0  0
  -30.5246  -16.7375   21.6494 C   0  0  0  0  0  0
  -29.5542  -18.3360   19.7980 C   0  0  0  0  0  0
  -29.3341  -20.6964   20.7256 C   0  0  0  0  0  0
  -28.8124  -25.0833   21.7499 N   0  0  0  0  0  0
  -28.4778  -23.1654   20.6189 N   0  0  0  0  0  0
  -30.0321  -15.4088   21.2524 N   0  0  0  0  0  0
  -28.8013  -19.3089   20.6290 N   0  3  0  0  0  0
  -31.4638  -12.4189   19.1036 H   0  0  0  0  0  0
  -30.3273  -11.2942   19.7944 H   0  0  0  0  0  0
  -29.7308  -11.7978   17.4102 H   0  0  0  0  0  0
  -29.6608  -13.5054   17.7559 H   0  0  0  0  0  0
  -27.8004  -11.3322   18.7710 H   0  0  0  0  0  0
  -27.3694  -12.6934   17.7759 H   0  0  0  0  0  0
  -27.7098  -14.2605   19.6021 H   0  0  0  0  0  0
  -28.6811  -11.9179   21.3018 H   0  0  0  0  0  0
  -28.4623  -13.5354   21.8849 H   0  0  0  0  0  0
  -25.2732   -9.5690   22.4731 H   0  0  0  0  0  0
  -23.9979   -7.4638   22.7473 H   0  0  0  0  0  0
  -21.0799   -8.8745   19.8971 H   0  0  0  0  0  0
  -22.3630  -10.9653   19.6166 H   0  0  0  0  0  0
  -21.2004   -7.6142   23.9699 H   0  0  0  0  0  0
  -21.1500   -6.0523   25.9067 H   0  0  0  0  0  0
  -22.0591   -2.7596   23.2865 H   0  0  0  0  0  0
  -22.4080  -11.9916   22.4840 H   0  0  0  0  0  0
  -21.1098  -13.1261   22.2646 H   0  0  0  0  0  0
  -24.6429  -15.8289   20.5003 H   0  0  0  0  0  0
  -26.2643  -15.6305   20.0663 H   0  0  0  0  0  0
  -26.7099  -32.5486   23.1154 H   0  0  0  0  0  0
  -24.9951  -33.9750   25.0386 H   0  0  0  0  0  0
  -22.6990  -31.3028   21.4078 H   0  0  0  0  0  0
  -23.3745  -35.9657   23.3312 H   0  0  0  0  0  0
  -24.3578  -36.8915   22.2047 H   0  0  0  0  0  0
  -23.7280  -37.6531   23.6646 H   0  0  0  0  0  0
  -26.0523  -31.5814   20.5945 H   0  0  0  0  0  0
  -26.8237  -30.8758   21.9867 H   0  0  0  0  0  0
  -28.1071  -29.0878   21.1678 H   0  0  0  0  0  0
  -26.0579  -25.9562   19.0148 H   0  0  0  0  0  0
  -23.9856  -27.2870   19.0371 H   0  0  0  0  0  0
  -23.7300  -30.5873   19.4045 H   0  0  0  0  0  0
  -22.7451  -29.2311   19.8677 H   0  0  0  0  0  0
  -25.1297  -36.1955   25.0826 H   0  0  0  0  0  0
  -20.9912  -28.3231   24.1450 H   0  0  0  0  0  0
  -20.5644  -26.2287   23.3600 H   0  0  0  0  0  0
  -21.6625  -26.7461   22.1218 H   0  0  0  0  0  0
  -19.6919  -25.6314   21.1224 H   0  0  0  0  0  0
  -19.6689  -27.3218   20.6734 H   0  0  0  0  0  0
  -17.4182  -26.6627   21.4051 H   0  0  0  0  0  0
  -18.0376  -26.0100   22.9058 H   0  0  0  0  0  0
  -19.7911  -30.7264   24.2282 H   0  0  0  0  0  0
  -17.5001  -31.6273   24.5174 H   0  0  0  0  0  0
  -15.5336  -30.3012   23.7654 H   0  0  0  0  0  0
  -15.8649  -28.0861   22.7032 H   0  0  0  0  0  0
  -24.5939  -30.6973   25.7741 H   0  0  0  0  0  0
  -24.8901  -32.2791   26.4887 H   0  0  0  0  0  0
  -25.8084  -30.8801   27.0202 H   0  0  0  0  0  0
  -26.2843  -29.6783   24.1096 H   0  0  0  0  0  0
  -27.4049  -29.7195   25.4508 H   0  0  0  0  0  0
  -27.8691  -30.4325   23.9241 H   0  0  0  0  0  0
  -27.2724  -33.3525   26.2114 H   0  0  0  0  0  0
  -28.3845  -32.6818   25.0245 H   0  0  0  0  0  0
  -28.0800  -31.8318   26.5311 H   0  0  0  0  0  0
  -28.2594  -38.0104   24.7499 H   0  0  0  0  0  0
  -28.1090  -36.2635   24.6303 H   0  0  0  0  0  0
  -27.2299  -37.1462   25.8864 H   0  0  0  0  0  0
  -20.9345  -29.8713   21.6873 H   0  0  0  0  0  0
  -26.0187  -38.2858   24.1386 H   0  0  0  0  0  0
  -27.0167  -22.1175   23.3125 H   0  0  0  0  0  0
  -28.3545  -21.2049   24.1899 H   0  0  0  0  0  0
  -29.1094  -23.3650   25.2533 H   0  0  0  0  0  0
  -27.7680  -24.2597   24.3689 H   0  0  0  0  0  0
  -30.1039  -22.6685   23.0679 H   0  0  0  0  0  0
  -26.9803  -23.6875   18.1317 H   0  0  0  0  0  0
  -28.6883  -23.3830   17.7903 H   0  0  0  0  0  0
  -28.0555  -25.0262   17.7499 H   0  0  0  0  0  0
  -31.4088  -17.2503   19.7337 H   0  0  0  0  0  0
  -31.4150  -18.5598   20.8629 H   0  0  0  0  0  0
  -27.3070  -21.4721   20.8379 H   0  0  0  0  0  0
  -28.0430  -21.6214   19.2709 H   0  0  0  0  0  0
  -31.4386  -16.6060   22.2283 H   0  0  0  0  0  0
  -29.8026  -17.1698   22.3428 H   0  0  0  0  0  0
  -28.8841  -17.5261   19.5101 H   0  0  0  0  0  0
  -29.8472  -18.8223   18.8673 H   0  0  0  0  0  0
  -29.6710  -20.8207   21.7508 H   0  0  0  0  0  0
  -30.2223  -20.8244   20.1037 H   0  0  0  0  0  0
  -29.1206  -15.1372   21.5950 H   0  0  0  0  0  0
  -28.6757  -18.9280   21.5533 H   0  0  0  0  0  0
  -27.8808  -19.3743   20.2254 H   0  0  0  0  0  0
  1 25  1  0  0  0
  1 30  2  0  0  0
  1 85  1  0  0  0
  2  3  1  0  0  0
  2 25  1  0  0  0
  2 87  1  0  0  0
  2 88  1  0  0  0
  3  4  1  0  0  0
  3 89  1  0  0  0
  3 90  1  0  0  0
  4  5  1  0  0  0
  4 91  1  0  0  0
  4 92  1  0  0  0
  5  6  1  0  0  0
  5 26  1  0  0  0
  5 93  1  0  0  0
  6 25  1  0  0  0
  6 94  1  0  0  0
  6 95  1  0  0  0
  7  8  2  0  0  0
  7 26  1  0  0  0
  7 29  1  0  0  0
  8  9  1  0  0  0
  8 22  1  0  0  0
  9 10  1  0  0  0
  9 27  2  0  0  0
 10 11  2  0  0  0
 10 15  1  0  0  0
 11 12  1  0  0  0
 11 96  1  0  0  0
 12 13  2  0  0  0
 12 97  1  0  0  0
 13 14  1  0  0  0
 13 31  1  0  0  0
 14 15  2  0  0  0
 14 98  1  0  0  0
 15 99  1  0  0  0
 16 17  2  0  0  0
 16 21  1  0  0  0
 16 31  1  0  0  0
 17 18  1  0  0  0
 17100  1  0  0  0
 18 19  2  0  0  0
 18101  1  0  0  0
 19 20  1  0  0  0
 19 24  1  0  0  0
 20 21  2  0  0  0
 20102  1  0  0  0
 21 23  1  0  0  0
 22 28  1  0  0  0
 22 32  2  0  0  0
 26 27  1  0  0  0
 28103  1  0  0  0
 28104  1  0  0  0
 29105  1  0  0  0
 29106  1  0  0  0
 33 34  1  0  0  0
 33 66  1  0  0  0
 33 70  2  0  0  0
 34 36  1  0  0  0
 34 59  1  0  0  0
 34107  1  0  0  0
 35 44  2  0  0  0
 35 45  1  0  0  0
 35 68  1  0  0  0
 36 56  1  0  0  0
 36108  1  0  0  0
 37 39  1  0  0  0
 37 47  1  0  0  0
 37 66  1  0  0  0
 37109  1  0  0  0
 38 43  2  0  0  0
 38 46  1  0  0  0
 38 47  1  0  0  0
 39 64  1  0  0  0
 39 67  2  0  0  0
 40 52  1  0  0  0
 40 53  2  0  0  0
 40 58  1  0  0  0
 41110  1  0  0  0
 41111  1  0  0  0
 41112  1  0  0  0
 41 48  1  0  0  0
 42 43  1  0  0  0
 42 66  1  0  0  0
 42113  1  0  0  0
 42114  1  0  0  0
 43 44  1  0  0  0
 44115  1  0  0  0
 45 46  2  0  0  0
 45116  1  0  0  0
 46117  1  0  0  0
 47118  1  0  0  0
 47119  1  0  0  0
 48 56  1  0  0  0
 48 65  1  0  0  0
 48120  1  0  0  0
 49 50  1  0  0  0
 49 53  1  0  0  0
 49 64  1  0  0  0
 49121  1  0  0  0
 50 51  1  0  0  0
 50122  1  0  0  0
 50123  1  0  0  0
 51 52  1  0  0  0
 51124  1  0  0  0
 51125  1  0  0  0
 52126  1  0  0  0
 52127  1  0  0  0
 53 54  1  0  0  0
 54 55  2  0  0  0
 54128  1  0  0  0
 55 57  1  0  0  0
 55129  1  0  0  0
 56 69  2  0  0  0
 57 58  2  0  0  0
 57130  1  0  0  0
 58131  1  0  0  0
 59 60  1  0  0  0
 59 61  1  0  0  0
 59 62  1  0  0  0
 60132  1  0  0  0
 60133  1  0  0  0
 60134  1  0  0  0
 61135  1  0  0  0
 61136  1  0  0  0
 61137  1  0  0  0
 62138  1  0  0  0
 62139  1  0  0  0
 62140  1  0  0  0
 63 65  1  0  0  0
 63141  1  0  0  0
 63142  1  0  0  0
 63143  1  0  0  0
 64144  1  0  0  0
 65145  1  0  0  0
 68 72  1  0  0  0
 71 72  2  0  0  0
 71 77  1  0  0  0
 71 84  1  0  0  0
 72 83  1  0  0  0
 73 83  2  0  0  0
 73 84  1  0  0  0
 73 76  1  0  0  0
 74 75  1  0  0  0
 74 76  1  0  0  0
 74146  1  0  0  0
 74147  1  0  0  0
 75 76  1  0  0  0
 75148  1  0  0  0
 75149  1  0  0  0
 76150  1  0  0  0
 77151  1  0  0  0
 77152  1  0  0  0
 77153  1  0  0  0
 78 80  1  0  0  0
 78 81  1  0  0  0
 78154  1  0  0  0
 78155  1  0  0  0
 79 82  1  0  0  0
 79 84  1  0  0  0
 79156  1  0  0  0
 79157  1  0  0  0
 80 85  1  0  0  0
 80158  1  0  0  0
 80159  1  0  0  0
 81 86  1  0  0  0
 81160  1  0  0  0
 81161  1  0  0  0
 82 86  1  0  0  0
 82162  1  0  0  0
 82163  1  0  0  0
 85164  1  0  0  0
 86165  1  0  0  0
 86166  1  0  0  0
M  CHG  1  86   1
M  ISO  4   1 100  68 101  72 101  85 100
M  END
> <chiral flag>
0

> <version>
0

> <s_m_source_file>
/data/baiqing/PycharmProjects/Reinvent-master-3.2/result/LINK_invent/BTK/process_docking_weight1_custom_sum_contain_oxygen_bond_distance_aromatic_linkinvent_7_9_3/rearranged_h_0192.sdf

> <i_m_source_file_index>
91

> <r_mmod_Potential_Energy-OPLS-2005>
-216.377182006836

> <r_mmod_Stretch_Energy-OPLS-2005>
37.9081192016602

> <r_mmod_Bend_Energy-OPLS-2005>
112.264923095703

> <r_mmod_Torsional_Energy-OPLS-2005>
270.839996337891

> <r_mmod_Improper_Torsional_Energy-OPLS-2005>
3.68739008903503

> <r_mmod_Van_der_Waal_Energy-OPLS-2005>
114.436836242676

> <r_mmod_Electrostatic_Energy-OPLS-2005>
-243.480651855469

> <r_mmod_Solvation_Energy-OPLS-2005>
-523.079895019531

> <b_mmod_Minimization_Converged-OPLS-2005>
0

> <r_mmod_RMS_Derivative-OPLS-2005>
4.19235754013062

$$$$
91
                    3D
 Structure written by MMmdl.
171180  0  0  1  0            999 V2000
  -30.6373  -14.6292   20.4763 C   0  0  0  0  0  0
  -30.4195  -12.3826   19.4495 C   0  0  0  0  0  0
  -29.4934  -12.4877   18.2193 C   0  0  0  0  0  0
  -28.0218  -12.3053   18.6391 C   0  0  0  0  0  0
  -27.6394  -13.1915   19.8513 C   0  0  2  0  0  0
  -28.6847  -13.1045   20.9855 C   0  0  0  0  0  0
  -25.2530  -13.8081   20.5710 C   0  0  0  0  0  0
  -24.1789  -13.0376   20.9208 C   0  0  0  0  0  0
  -24.6341  -11.6845   20.8776 C   0  0  0  0  0  0
  -23.9024  -10.4237   21.0445 C   0  0  0  0  0  0
  -24.3584   -9.4150   21.9213 C   0  0  0  0  0  0
  -23.6263   -8.2187   22.0766 C   0  0  0  0  0  0
  -22.4247   -8.0229   21.3552 C   0  0  0  0  0  0
  -21.9887   -9.0205   20.4655 C   0  0  0  0  0  0
  -22.7213  -10.2085   20.3078 C   0  0  0  0  0  0
  -21.6827   -6.0705   22.5282 C   0  0  0  0  0  0
  -21.3982   -6.5626   23.8209 C   0  0  0  0  0  0
  -21.3663   -5.6787   24.9183 C   0  0  0  0  0  0
  -21.6051   -4.3053   24.7239 C   0  0  0  0  0  0
  -21.8818   -3.8133   23.4366 C   0  0  0  0  0  0
  -21.9178   -4.6935   22.3413 C   0  0  0  0  0  0
  -22.7822  -13.5195   21.1864 C   0  0  0  0  0  0
  -22.1654   -4.2121   21.0991 F   0  0  0  0  0  0
  -21.5649   -3.4544   25.7762 F   0  0  0  0  0  0
  -29.9971  -13.4212   20.4095 N   0  0  0  0  0  0
  -26.2911  -12.9206   20.3303 N   0  0  0  0  0  0
  -25.9252  -11.6396   20.5786 N   0  0  0  0  0  0
  -22.0461  -12.8197   22.0426 N   0  0  0  0  0  0
  -25.4287  -15.1795   20.4150 N   0  0  0  0  0  0
  -31.8113  -14.7425   20.1159 O   0  0  0  0  0  0
  -21.6610   -6.8831   21.4243 O   0  0  0  0  0  0
  -22.3528  -14.5529   20.6734 O   0  0  0  0  0  0
  -24.6187  -31.8613   23.2012 C   0  0  0  0  0  0
  -25.9060  -32.4794   23.8317 C   0  0  1  0  0  0
  -27.2496  -27.3833   20.1233 C   0  0  0  0  0  0
  -25.5898  -33.8593   24.2268 N   0  0  0  0  0  0
  -23.4091  -30.4804   21.5404 C   0  0  2  0  0  0
  -24.8609  -28.9307   20.1098 C   0  0  0  0  0  0
  -22.7430  -29.4635   22.4948 C   0  0  0  0  0  0
  -18.0279  -28.1370   22.8495 C   0  0  0  0  0  0
  -24.1474  -36.7270   23.2651 C   0  0  0  0  0  0
  -25.9368  -30.8142   21.3569 C   0  0  0  0  0  0
  -26.0176  -29.4416   20.7092 C   0  0  0  0  0  0
  -27.2085  -28.6758   20.7081 C   0  0  0  0  0  0
  -26.0803  -26.8988   19.4991 C   0  0  0  0  0  0
  -24.8915  -27.6606   19.4991 C   0  0  0  0  0  0
  -23.6232  -29.8030   20.1581 C   0  0  0  0  0  0
  -25.4103  -36.3088   24.0343 C   0  0  1  0  0  0
  -20.5867  -28.3658   23.1295 C   0  0  2  0  0  0
  -20.6772  -26.9394   22.5406 C   0  0  0  0  0  0
  -19.5756  -26.6371   21.5213 C   0  0  0  0  0  0
  -18.1924  -26.7908   22.1614 C   0  0  0  0  0  0
  -19.1532  -28.8832   23.2888 C   0  0  0  0  0  0
  -18.9476  -30.1449   23.8888 C   0  0  0  0  0  0
  -17.6481  -30.6589   24.0578 C   0  0  0  0  0  0
  -25.9026  -34.9472   23.5097 C   0  0  0  0  0  0
  -16.5376  -29.9092   23.6339 C   0  0  0  0  0  0
  -16.7275  -28.6506   23.0345 C   0  0  0  0  0  0
  -26.4480  -31.6602   25.0678 C   0  0  0  0  0  0
  -25.3747  -31.3699   26.1429 C   0  0  0  0  0  0
  -27.0339  -30.3059   24.6047 C   0  0  0  0  0  0
  -27.6023  -32.4365   25.7438 C   0  0  0  0  0  0
  -27.5564  -37.1788   24.8493 C   0  0  0  0  0  0
  -21.4148  -29.3028   22.3706 N   0  0  0  0  0  0
  -26.4277  -37.3790   23.9437 N   0  0  0  0  0  0
  -24.6726  -31.0680   22.0918 N   0  0  0  0  0  0
  -23.4167  -28.8192   23.3033 O   0  0  0  0  0  0
  -28.4281  -26.6556   20.2202 O   0  0  0  0  0  0
  -26.5606  -34.8957   22.4667 O   0  0  0  0  0  0
  -23.5368  -32.1377   23.7386 O   0  0  0  0  0  0
  -30.0353  -24.8943   20.1272 C   0  0  0  0  0  0
  -30.0712  -23.3680   20.0345 C   0  0  0  0  0  0
  -29.1452  -16.4951   19.7650 C   0  0  0  0  0  0
  -27.8240  -24.0912   20.3825 C   0  0  0  0  0  0
  -29.1738  -17.7203   20.6856 C   0  0  1  0  0  0
  -28.6066  -25.2889   19.7546 C   0  0  1  0  0  0
  -30.4840  -17.0756   21.1897 C   0  0  1  0  0  0
  -32.0187  -16.2072   23.0594 C   0  0  0  0  0  0
  -31.1644  -18.5725   23.1255 C   0  0  0  0  0  0
  -28.2930  -21.5020   18.4960 C   0  0  0  0  0  0
  -29.0355  -20.3462   20.7595 C   0  0  0  0  0  0
  -30.8498  -17.1355   22.6857 C   0  0  0  0  0  0
  -28.2976  -21.5687   20.0427 C   0  0  1  0  0  0
  -29.8953  -15.7443   20.8074 N   0  0  0  0  0  0
  -28.7504  -22.9256   20.4890 N   0  0  0  0  0  0
  -29.1421  -19.0626   19.9749 N   0  3  0  0  0  0
  -31.4628  -12.4884   19.1472 H   0  0  0  0  0  0
  -30.3410  -11.3922   19.9019 H   0  0  0  0  0  0
  -29.7645  -11.7358   17.4774 H   0  0  0  0  0  0
  -29.6252  -13.4556   17.7320 H   0  0  0  0  0  0
  -27.8793  -11.2537   18.8928 H   0  0  0  0  0  0
  -27.3587  -12.5087   17.7963 H   0  0  0  0  0  0
  -27.6283  -14.1987   19.4584 H   0  0  0  0  0  0
  -28.6980  -12.1071   21.4259 H   0  0  0  0  0  0
  -28.4305  -13.7916   21.7935 H   0  0  0  0  0  0
  -25.2728   -9.5608   22.4805 H   0  0  0  0  0  0
  -23.9954   -7.4569   22.7495 H   0  0  0  0  0  0
  -21.0817   -8.8718   19.8966 H   0  0  0  0  0  0
  -22.3676  -10.9626   19.6185 H   0  0  0  0  0  0
  -21.1955   -7.6127   23.9703 H   0  0  0  0  0  0
  -21.1507   -6.0527   25.9081 H   0  0  0  0  0  0
  -22.0604   -2.7592   23.2886 H   0  0  0  0  0  0
  -22.4048  -11.9810   22.4758 H   0  0  0  0  0  0
  -21.1103  -13.1249   22.2684 H   0  0  0  0  0  0
  -24.6688  -15.8410   20.5393 H   0  0  0  0  0  0
  -26.2930  -15.6174   20.1333 H   0  0  0  0  0  0
  -26.7121  -32.5506   23.1057 H   0  0  0  0  0  0
  -25.0157  -33.9737   25.0485 H   0  0  0  0  0  0
  -22.7022  -31.2989   21.3930 H   0  0  0  0  0  0
  -23.3768  -35.9570   23.3327 H   0  0  0  0  0  0
  -24.3557  -36.8859   22.2061 H   0  0  0  0  0  0
  -23.7190  -37.6463   23.6647 H   0  0  0  0  0  0
  -26.0487  -31.5757   20.5831 H   0  0  0  0  0  0
  -26.8240  -30.8738   21.9747 H   0  0  0  0  0  0
  -28.0985  -29.0682   21.1800 H   0  0  0  0  0  0
  -26.0752  -25.9285   19.0257 H   0  0  0  0  0  0
  -24.0047  -27.2531   19.0346 H   0  0  0  0  0  0
  -23.7417  -30.5798   19.4008 H   0  0  0  0  0  0
  -22.7439  -29.2294   19.8583 H   0  0  0  0  0  0
  -25.1275  -36.1914   25.0827 H   0  0  0  0  0  0
  -20.9968  -28.3229   24.1407 H   0  0  0  0  0  0
  -20.5678  -26.2284   23.3600 H   0  0  0  0  0  0
  -21.6645  -26.7426   22.1195 H   0  0  0  0  0  0
  -19.6930  -25.6277   21.1259 H   0  0  0  0  0  0
  -19.6706  -27.3196   20.6754 H   0  0  0  0  0  0
  -17.4201  -26.6701   21.4004 H   0  0  0  0  0  0
  -18.0312  -26.0018   22.8971 H   0  0  0  0  0  0
  -19.7962  -30.7291   24.2214 H   0  0  0  0  0  0
  -17.5046  -31.6270   24.5176 H   0  0  0  0  0  0
  -15.5384  -30.3019   23.7646 H   0  0  0  0  0  0
  -15.8664  -28.0865   22.7024 H   0  0  0  0  0  0
  -24.5949  -30.6996   25.7783 H   0  0  0  0  0  0
  -24.8921  -32.2863   26.4853 H   0  0  0  0  0  0
  -25.8125  -30.8916   27.0201 H   0  0  0  0  0  0
  -26.2887  -29.6791   24.1141 H   0  0  0  0  0  0
  -27.4199  -29.7305   25.4469 H   0  0  0  0  0  0
  -27.8651  -30.4428   23.9126 H   0  0  0  0  0  0
  -27.2616  -33.3699   26.1938 H   0  0  0  0  0  0
  -28.3854  -32.6885   25.0270 H   0  0  0  0  0  0
  -28.0658  -31.8553   26.5424 H   0  0  0  0  0  0
  -28.2593  -38.0076   24.7536 H   0  0  0  0  0  0
  -28.1038  -36.2610   24.6301 H   0  0  0  0  0  0
  -27.2291  -37.1403   25.8900 H   0  0  0  0  0  0
  -20.9317  -29.8750   21.6927 H   0  0  0  0  0  0
  -26.0153  -38.2848   24.1484 H   0  0  0  0  0  0
  -30.7813  -25.3627   19.4854 H   0  0  0  0  0  0
  -30.2529  -25.1977   21.1520 H   0  0  0  0  0  0
  -30.8674  -22.9339   20.6423 H   0  0  0  0  0  0
  -30.2639  -23.0950   18.9986 H   0  0  0  0  0  0
  -29.6869  -16.6134   18.8225 H   0  0  0  0  0  0
  -28.1213  -16.1847   19.5847 H   0  0  0  0  0  0
  -26.9231  -23.8630   19.8145 H   0  0  0  0  0  0
  -27.5004  -24.3589   21.3902 H   0  0  0  0  0  0
  -28.3789  -17.6616   21.4330 H   0  0  0  0  0  0
  -28.5005  -25.2654   18.6691 H   0  0  0  0  0  0
  -31.3310  -17.3555   20.5542 H   0  0  0  0  0  0
  -31.7342  -15.1583   22.9882 H   0  0  0  0  0  0
  -32.3417  -16.3688   24.0880 H   0  0  0  0  0  0
  -32.8805  -16.3681   22.4105 H   0  0  0  0  0  0
  -30.2914  -19.2165   23.0317 H   0  0  0  0  0  0
  -31.9714  -19.0056   22.5328 H   0  0  0  0  0  0
  -31.4668  -18.6107   24.1723 H   0  0  0  0  0  0
  -27.7392  -20.6364   18.1312 H   0  0  0  0  0  0
  -29.2947  -21.4386   18.0728 H   0  0  0  0  0  0
  -27.8038  -22.3726   18.0573 H   0  0  0  0  0  0
  -28.5110  -20.1480   21.6954 H   0  0  0  0  0  0
  -30.0489  -20.6311   21.0415 H   0  0  0  0  0  0
  -29.9868  -16.8133   23.2731 H   0  0  0  0  0  0
  -27.2502  -21.4930   20.3441 H   0  0  0  0  0  0
  -28.3154  -19.0466   19.3988 H   0  0  0  0  0  0
  -29.9217  -19.1413   19.3425 H   0  0  0  0  0  0
  1 25  1  0  0  0
  1 30  2  0  0  0
  1 84  1  0  0  0
  2  3  1  0  0  0
  2 25  1  0  0  0
  2 87  1  0  0  0
  2 88  1  0  0  0
  3  4  1  0  0  0
  3 89  1  0  0  0
  3 90  1  0  0  0
  4  5  1  0  0  0
  4 91  1  0  0  0
  4 92  1  0  0  0
  5  6  1  0  0  0
  5 26  1  0  0  0
  5 93  1  0  0  0
  6 25  1  0  0  0
  6 94  1  0  0  0
  6 95  1  0  0  0
  7  8  2  0  0  0
  7 26  1  0  0  0
  7 29  1  0  0  0
  8  9  1  0  0  0
  8 22  1  0  0  0
  9 10  1  0  0  0
  9 27  2  0  0  0
 10 11  2  0  0  0
 10 15  1  0  0  0
 11 12  1  0  0  0
 11 96  1  0  0  0
 12 13  2  0  0  0
 12 97  1  0  0  0
 13 14  1  0  0  0
 13 31  1  0  0  0
 14 15  2  0  0  0
 14 98  1  0  0  0
 15 99  1  0  0  0
 16 17  2  0  0  0
 16 21  1  0  0  0
 16 31  1  0  0  0
 17 18  1  0  0  0
 17100  1  0  0  0
 18 19  2  0  0  0
 18101  1  0  0  0
 19 20  1  0  0  0
 19 24  1  0  0  0
 20 21  2  0  0  0
 20102  1  0  0  0
 21 23  1  0  0  0
 22 28  1  0  0  0
 22 32  2  0  0  0
 26 27  1  0  0  0
 28103  1  0  0  0
 28104  1  0  0  0
 29105  1  0  0  0
 29106  1  0  0  0
 33 34  1  0  0  0
 33 66  1  0  0  0
 33 70  2  0  0  0
 34 36  1  0  0  0
 34 59  1  0  0  0
 34107  1  0  0  0
 35 44  2  0  0  0
 35 45  1  0  0  0
 35 68  1  0  0  0
 36 56  1  0  0  0
 36108  1  0  0  0
 37 39  1  0  0  0
 37 47  1  0  0  0
 37 66  1  0  0  0
 37109  1  0  0  0
 38 43  2  0  0  0
 38 46  1  0  0  0
 38 47  1  0  0  0
 39 64  1  0  0  0
 39 67  2  0  0  0
 40 52  1  0  0  0
 40 53  2  0  0  0
 40 58  1  0  0  0
 41110  1  0  0  0
 41111  1  0  0  0
 41112  1  0  0  0
 41 48  1  0  0  0
 42 43  1  0  0  0
 42 66  1  0  0  0
 42113  1  0  0  0
 42114  1  0  0  0
 43 44  1  0  0  0
 44115  1  0  0  0
 45 46  2  0  0  0
 45116  1  0  0  0
 46117  1  0  0  0
 47118  1  0  0  0
 47119  1  0  0  0
 48 56  1  0  0  0
 48 65  1  0  0  0
 48120  1  0  0  0
 49 50  1  0  0  0
 49 53  1  0  0  0
 49 64  1  0  0  0
 49121  1  0  0  0
 50 51  1  0  0  0
 50122  1  0  0  0
 50123  1  0  0  0
 51 52  1  0  0  0
 51124  1  0  0  0
 51125  1  0  0  0
 52126  1  0  0  0
 52127  1  0  0  0
 53 54  1  0  0  0
 54 55  2  0  0  0
 54128  1  0  0  0
 55 57  1  0  0  0
 55129  1  0  0  0
 56 69  2  0  0  0
 57 58  2  0  0  0
 57130  1  0  0  0
 58131  1  0  0  0
 59 60  1  0  0  0
 59 61  1  0  0  0
 59 62  1  0  0  0
 60132  1  0  0  0
 60133  1  0  0  0
 60134  1  0  0  0
 61135  1  0  0  0
 61136  1  0  0  0
 61137  1  0  0  0
 62138  1  0  0  0
 62139  1  0  0  0
 62140  1  0  0  0
 63 65  1  0  0  0
 63141  1  0  0  0
 63142  1  0  0  0
 63143  1  0  0  0
 64144  1  0  0  0
 65145  1  0  0  0
 68 76  1  0  0  0
 71 72  1  0  0  0
 71 76  1  0  0  0
 71146  1  0  0  0
 71147  1  0  0  0
 72 85  1  0  0  0
 72148  1  0  0  0
 72149  1  0  0  0
 73 75  1  0  0  0
 73 84  1  0  0  0
 73150  1  0  0  0
 73151  1  0  0  0
 74 76  1  0  0  0
 74 85  1  0  0  0
 74152  1  0  0  0
 74153  1  0  0  0
 75 77  1  0  0  0
 75 86  1  0  0  0
 75154  1  0  0  0
 76155  1  0  0  0
 77 82  1  0  0  0
 77 84  1  0  0  0
 77156  1  0  0  0
 78157  1  0  0  0
 78158  1  0  0  0
 78159  1  0  0  0
 78 82  1  0  0  0
 79 82  1  0  0  0
 79160  1  0  0  0
 79161  1  0  0  0
 79162  1  0  0  0
 80163  1  0  0  0
 80164  1  0  0  0
 80165  1  0  0  0
 80 83  1  0  0  0
 81 83  1  0  0  0
 81 86  1  0  0  0
 81166  1  0  0  0
 81167  1  0  0  0
 82168  1  0  0  0
 83 85  1  0  0  0
 83169  1  0  0  0
 86170  1  0  0  0
 86171  1  0  0  0
M  CHG  1  86   1
M  ISO  4   1 100  68 101  76 101  84 100
M  END
> <chiral flag>
0

> <version>
0

> <s_m_source_file>
/data/baiqing/PycharmProjects/Reinvent-master-3.2/result/LINK_invent/BTK/process_docking_weight1_custom_sum_contain_oxygen_bond_distance_aromatic_linkinvent_7_9_3/rearranged_h_0192.sdf

> <i_m_source_file_index>
92

> <r_mmod_Potential_Energy-OPLS-2005>
84.0158386230469

> <r_mmod_Stretch_Energy-OPLS-2005>
66.9536056518555

> <r_mmod_Bend_Energy-OPLS-2005>
197.447448730469

> <r_mmod_Torsional_Energy-OPLS-2005>
379.579193115234

> <r_mmod_Improper_Torsional_Energy-OPLS-2005>
10.7872295379639

> <r_mmod_Van_der_Waal_Energy-OPLS-2005>
119.434272766113

> <r_mmod_Electrostatic_Energy-OPLS-2005>
-260.253509521484

> <r_mmod_Solvation_Energy-OPLS-2005>
-469.317169189453

> <b_mmod_Minimization_Converged-OPLS-2005>
0

> <r_mmod_RMS_Derivative-OPLS-2005>
3.2213499546051

$$$$
92
                    3D
 Structure written by MMmdl.
151160  0  0  1  0            999 V2000
  -30.5065  -15.0925   20.3618 C   0  0  0  0  0  0
  -30.4288  -12.6810   19.4761 C   0  0  0  0  0  0
  -29.5131  -12.5565   18.2345 C   0  0  0  0  0  0
  -28.0459  -12.3314   18.6486 C   0  0  0  0  0  0
  -27.6108  -13.2679   19.8024 C   0  0  2  0  0  0
  -28.6603  -13.3838   20.9295 C   0  0  0  0  0  0
  -25.2444  -13.8255   20.5711 C   0  0  0  0  0  0
  -24.1767  -13.0464   20.9226 C   0  0  0  0  0  0
  -24.6397  -11.6962   20.8746 C   0  0  0  0  0  0
  -23.9070  -10.4311   21.0396 C   0  0  0  0  0  0
  -24.3633   -9.4227   21.9190 C   0  0  0  0  0  0
  -23.6310   -8.2258   22.0773 C   0  0  0  0  0  0
  -22.4301   -8.0286   21.3547 C   0  0  0  0  0  0
  -21.9912   -9.0256   20.4652 C   0  0  0  0  0  0
  -22.7214  -10.2145   20.3047 C   0  0  0  0  0  0
  -21.6866   -6.0744   22.5274 C   0  0  0  0  0  0
  -21.4037   -6.5641   23.8205 C   0  0  0  0  0  0
  -21.3661   -5.6785   24.9167 C   0  0  0  0  0  0
  -21.6047   -4.3044   24.7230 C   0  0  0  0  0  0
  -21.8818   -3.8135   23.4343 C   0  0  0  0  0  0
  -21.9194   -4.6960   22.3406 C   0  0  0  0  0  0
  -22.7766  -13.5248   21.1816 C   0  0  0  0  0  0
  -22.1663   -4.2165   21.0970 F   0  0  0  0  0  0
  -21.5616   -3.4514   25.7727 F   0  0  0  0  0  0
  -29.9191  -13.8137   20.3109 N   0  0  0  0  0  0
  -26.2824  -12.9503   20.3124 N   0  0  0  0  0  0
  -25.9326  -11.6622   20.5656 N   0  0  0  0  0  0
  -22.0359  -12.8323   22.0385 N   0  0  0  0  0  0
  -25.4135  -15.2000   20.4223 N   0  0  0  0  0  0
  -31.7271  -15.1363   20.1816 O   0  0  0  0  0  0
  -21.6659   -6.8883   21.4235 O   0  0  0  0  0  0
  -22.3445  -14.5500   20.6539 O   0  0  0  0  0  0
  -24.6567  -31.8362   23.1840 C   0  0  0  0  0  0
  -25.9302  -32.4645   23.8270 C   0  0  1  0  0  0
  -27.2042  -27.0237   20.1591 C   0  0  0  0  0  0
  -25.6020  -33.8452   24.2206 N   0  0  0  0  0  0
  -23.4639  -30.4579   21.5336 C   0  0  2  0  0  0
  -24.9112  -28.8716   20.1102 C   0  0  0  0  0  0
  -22.7623  -29.4527   22.4831 C   0  0  0  0  0  0
  -18.0317  -28.1376   22.8479 C   0  0  0  0  0  0
  -24.1478  -36.7212   23.2651 C   0  0  0  0  0  0
  -26.0302  -30.6679   21.4039 C   0  0  0  0  0  0
  -26.0967  -29.2721   20.7393 C   0  0  0  0  0  0
  -27.2436  -28.3704   20.7432 C   0  0  0  0  0  0
  -25.9870  -26.7588   19.4872 C   0  0  0  0  0  0
  -24.8768  -27.6317   19.4641 C   0  0  0  0  0  0
  -23.6968  -29.7939   20.1527 C   0  0  0  0  0  0
  -25.4119  -36.3013   24.0325 C   0  0  1  0  0  0
  -20.5937  -28.3716   23.1195 C   0  0  2  0  0  0
  -20.6809  -26.9418   22.5346 C   0  0  0  0  0  0
  -19.5764  -26.6363   21.5197 C   0  0  0  0  0  0
  -18.1956  -26.7914   22.1644 C   0  0  0  0  0  0
  -19.1573  -28.8877   23.2829 C   0  0  0  0  0  0
  -18.9488  -30.1480   23.8812 C   0  0  0  0  0  0
  -17.6476  -30.6572   24.0518 C   0  0  0  0  0  0
  -25.9078  -34.9379   23.5059 C   0  0  0  0  0  0
  -16.5373  -29.9025   23.6338 C   0  0  0  0  0  0
  -16.7303  -28.6457   23.0351 C   0  0  0  0  0  0
  -26.4572  -31.6552   25.0752 C   0  0  0  0  0  0
  -25.3730  -31.3749   26.1438 C   0  0  0  0  0  0
  -27.0471  -30.2931   24.6432 C   0  0  0  0  0  0
  -27.6087  -32.4358   25.7537 C   0  0  0  0  0  0
  -27.5570  -37.1772   24.8482 C   0  0  0  0  0  0
  -21.4302  -29.3071   22.3570 N   0  0  0  0  0  0
  -26.4286  -37.3726   23.9421 N   0  0  0  0  0  0
  -24.7365  -31.0106   22.0945 N   0  0  0  0  0  0
  -23.4230  -28.8068   23.3010 O   0  0  0  0  0  0
  -28.2018  -25.9414   20.2237 O   0  0  0  0  0  0
  -26.5653  -34.8892   22.4632 O   0  0  0  0  0  0
  -23.5661  -32.1305   23.6997 O   0  0  0  0  0  0
  -27.8537  -21.6033   20.0061 C   0  0  0  0  0  0
  -28.4816  -22.8758   20.1874 C   0  0  0  0  0  0
  -29.9317  -21.0320   20.4046 C   0  0  0  0  0  0
  -28.5688  -18.9176   20.0384 C   0  0  0  0  0  0
  -31.0498  -18.7597   20.1927 C   0  0  0  0  0  0
  -29.7730  -17.9127   20.5803 C   0  0  2  0  0  0
  -27.7528  -24.4072   20.0887 C   0  0  0  0  0  0
  -28.7362  -20.4932   20.1571 N   0  0  0  0  0  0
  -29.7942  -22.4166   20.4485 N   0  3  0  0  0  0
  -31.0266  -20.2263   20.5803 N   0  0  0  0  0  0
  -29.6960  -16.2919   20.4032 N   0  0  0  0  0  0
  -31.4598  -12.8372   19.1647 H   0  0  0  0  0  0
  -30.4186  -11.7500   20.0479 H   0  0  0  0  0  0
  -29.8498  -11.7533   17.5796 H   0  0  0  0  0  0
  -29.5754  -13.4701   17.6407 H   0  0  0  0  0  0
  -27.9292  -11.2883   18.9434 H   0  0  0  0  0  0
  -27.3953  -12.4675   17.7855 H   0  0  0  0  0  0
  -27.5346  -14.2489   19.3333 H   0  0  0  0  0  0
  -28.7821  -12.4433   21.4627 H   0  0  0  0  0  0
  -28.3406  -14.1237   21.6632 H   0  0  0  0  0  0
  -25.2796   -9.5722   22.4756 H   0  0  0  0  0  0
  -24.0031   -7.4677   22.7518 H   0  0  0  0  0  0
  -21.0833   -8.8739   19.9007 H   0  0  0  0  0  0
  -22.3641  -10.9674   19.6150 H   0  0  0  0  0  0
  -21.2049   -7.6148   23.9716 H   0  0  0  0  0  0
  -21.1476   -6.0512   25.9072 H   0  0  0  0  0  0
  -22.0610   -2.7612   23.2828 H   0  0  0  0  0  0
  -22.3930  -12.0102   22.4997 H   0  0  0  0  0  0
  -21.0945  -13.1399   22.2428 H   0  0  0  0  0  0
  -24.6562  -15.8617   20.5498 H   0  0  0  0  0  0
  -26.2606  -15.6336   20.0880 H   0  0  0  0  0  0
  -26.7361  -32.5199   23.0989 H   0  0  0  0  0  0
  -25.0209  -33.9561   25.0388 H   0  0  0  0  0  0
  -22.7732  -31.2890   21.3806 H   0  0  0  0  0  0
  -23.3755  -35.9521   23.3312 H   0  0  0  0  0  0
  -24.3549  -36.8846   22.2065 H   0  0  0  0  0  0
  -23.7217  -37.6398   23.6671 H   0  0  0  0  0  0
  -26.2110  -31.4126   20.6279 H   0  0  0  0  0  0
  -26.8916  -30.7120   22.0590 H   0  0  0  0  0  0
  -28.1378  -28.6766   21.2648 H   0  0  0  0  0  0
  -25.8259  -25.8174   18.9857 H   0  0  0  0  0  0
  -23.9779  -27.3145   18.9564 H   0  0  0  0  0  0
  -23.8545  -30.5786   19.4113 H   0  0  0  0  0  0
  -22.8012  -29.2624   19.8256 H   0  0  0  0  0  0
  -25.1295  -36.1829   25.0807 H   0  0  0  0  0  0
  -21.0061  -28.3266   24.1313 H   0  0  0  0  0  0
  -21.6646  -26.7411   22.1104 H   0  0  0  0  0  0
  -20.5754  -26.2304   23.3553 H   0  0  0  0  0  0
  -19.6881  -25.6266   21.1242 H   0  0  0  0  0  0
  -19.6665  -27.3135   20.6702 H   0  0  0  0  0  0
  -17.4212  -26.6644   21.4057 H   0  0  0  0  0  0
  -18.0358  -26.0048   22.9047 H   0  0  0  0  0  0
  -19.7943  -30.7345   24.2115 H   0  0  0  0  0  0
  -17.5001  -31.6255   24.5098 H   0  0  0  0  0  0
  -15.5356  -30.2895   23.7683 H   0  0  0  0  0  0
  -15.8723  -28.0749   22.7079 H   0  0  0  0  0  0
  -24.5909  -30.7105   25.7759 H   0  0  0  0  0  0
  -24.8923  -32.2921   26.4833 H   0  0  0  0  0  0
  -25.7996  -30.8941   27.0256 H   0  0  0  0  0  0
  -26.3136  -29.6633   24.1390 H   0  0  0  0  0  0
  -27.3985  -29.7253   25.5070 H   0  0  0  0  0  0
  -27.9081  -30.4147   23.9860 H   0  0  0  0  0  0
  -27.2652  -33.3685   26.2018 H   0  0  0  0  0  0
  -28.3911  -32.6900   25.0376 H   0  0  0  0  0  0
  -28.0731  -31.8571   26.5531 H   0  0  0  0  0  0
  -28.2588  -38.0075   24.7511 H   0  0  0  0  0  0
  -28.1068  -36.2596   24.6312 H   0  0  0  0  0  0
  -27.2281  -37.1426   25.8889 H   0  0  0  0  0  0
  -20.9493  -29.8802   21.6765 H   0  0  0  0  0  0
  -26.0144  -38.2785   24.1418 H   0  0  0  0  0  0
  -26.8124  -21.4153   19.7705 H   0  0  0  0  0  0
  -27.6151  -18.6557   20.4971 H   0  0  0  0  0  0
  -28.4386  -18.7263   18.9710 H   0  0  0  0  0  0
  -31.2005  -18.7062   19.1112 H   0  0  0  0  0  0
  -31.9409  -18.3102   20.6381 H   0  0  0  0  0  0
  -29.7095  -17.9975   21.6691 H   0  0  0  0  0  0
  -26.9373  -24.3373   20.8089 H   0  0  0  0  0  0
  -27.2649  -24.3504   19.1159 H   0  0  0  0  0  0
  -30.5647  -23.0453   20.6409 H   0  0  0  0  0  0
  -31.9276  -20.6337   20.8164 H   0  0  0  0  0  0
  -28.7300  -16.0081   20.4106 H   0  0  0  0  0  0
  1 25  1  0  0  0
  1 30  2  0  0  0
  1 81  1  0  0  0
  2  3  1  0  0  0
  2 25  1  0  0  0
  2 82  1  0  0  0
  2 83  1  0  0  0
  3  4  1  0  0  0
  3 84  1  0  0  0
  3 85  1  0  0  0
  4  5  1  0  0  0
  4 86  1  0  0  0
  4 87  1  0  0  0
  5  6  1  0  0  0
  5 26  1  0  0  0
  5 88  1  0  0  0
  6 25  1  0  0  0
  6 89  1  0  0  0
  6 90  1  0  0  0
  7  8  2  0  0  0
  7 26  1  0  0  0
  7 29  1  0  0  0
  8  9  1  0  0  0
  8 22  1  0  0  0
  9 10  1  0  0  0
  9 27  2  0  0  0
 10 11  2  0  0  0
 10 15  1  0  0  0
 11 12  1  0  0  0
 11 91  1  0  0  0
 12 13  2  0  0  0
 12 92  1  0  0  0
 13 14  1  0  0  0
 13 31  1  0  0  0
 14 15  2  0  0  0
 14 93  1  0  0  0
 15 94  1  0  0  0
 16 17  2  0  0  0
 16 21  1  0  0  0
 16 31  1  0  0  0
 17 18  1  0  0  0
 17 95  1  0  0  0
 18 19  2  0  0  0
 18 96  1  0  0  0
 19 20  1  0  0  0
 19 24  1  0  0  0
 20 21  2  0  0  0
 20 97  1  0  0  0
 21 23  1  0  0  0
 22 28  1  0  0  0
 22 32  2  0  0  0
 26 27  1  0  0  0
 28 98  1  0  0  0
 28 99  1  0  0  0
 29100  1  0  0  0
 29101  1  0  0  0
 33 34  1  0  0  0
 33 66  1  0  0  0
 33 70  2  0  0  0
 34 36  1  0  0  0
 34 59  1  0  0  0
 34102  1  0  0  0
 35 44  2  0  0  0
 35 45  1  0  0  0
 35 68  1  0  0  0
 36 56  1  0  0  0
 36103  1  0  0  0
 37 39  1  0  0  0
 37 47  1  0  0  0
 37 66  1  0  0  0
 37104  1  0  0  0
 38 43  2  0  0  0
 38 46  1  0  0  0
 38 47  1  0  0  0
 39 64  1  0  0  0
 39 67  2  0  0  0
 40 52  1  0  0  0
 40 53  2  0  0  0
 40 58  1  0  0  0
 41105  1  0  0  0
 41106  1  0  0  0
 41107  1  0  0  0
 41 48  1  0  0  0
 42 43  1  0  0  0
 42 66  1  0  0  0
 42108  1  0  0  0
 42109  1  0  0  0
 43 44  1  0  0  0
 44110  1  0  0  0
 45 46  2  0  0  0
 45111  1  0  0  0
 46112  1  0  0  0
 47113  1  0  0  0
 47114  1  0  0  0
 48 56  1  0  0  0
 48 65  1  0  0  0
 48115  1  0  0  0
 49 50  1  0  0  0
 49 53  1  0  0  0
 49 64  1  0  0  0
 49116  1  0  0  0
 50 51  1  0  0  0
 50117  1  0  0  0
 50118  1  0  0  0
 51 52  1  0  0  0
 51119  1  0  0  0
 51120  1  0  0  0
 52121  1  0  0  0
 52122  1  0  0  0
 53 54  1  0  0  0
 54 55  2  0  0  0
 54123  1  0  0  0
 55 57  1  0  0  0
 55124  1  0  0  0
 56 69  2  0  0  0
 57 58  2  0  0  0
 57125  1  0  0  0
 58126  1  0  0  0
 59 60  1  0  0  0
 59 61  1  0  0  0
 59 62  1  0  0  0
 60127  1  0  0  0
 60128  1  0  0  0
 60129  1  0  0  0
 61130  1  0  0  0
 61131  1  0  0  0
 61132  1  0  0  0
 62133  1  0  0  0
 62134  1  0  0  0
 62135  1  0  0  0
 63 65  1  0  0  0
 63136  1  0  0  0
 63137  1  0  0  0
 63138  1  0  0  0
 64139  1  0  0  0
 65140  1  0  0  0
 68 77  1  0  0  0
 71 72  2  0  0  0
 71 78  1  0  0  0
 71141  1  0  0  0
 72 77  1  0  0  0
 72 79  1  0  0  0
 73 78  1  0  0  0
 73 79  2  0  0  0
 73 80  1  0  0  0
 74 76  1  0  0  0
 74 78  1  0  0  0
 74142  1  0  0  0
 74143  1  0  0  0
 75 76  1  0  0  0
 75 80  1  0  0  0
 75144  1  0  0  0
 75145  1  0  0  0
 76 81  1  0  0  0
 76146  1  0  0  0
 77147  1  0  0  0
 77148  1  0  0  0
 79149  1  0  0  0
 80150  1  0  0  0
 81151  1  0  0  0
M  CHG  1  79   1
M  ISO  4   1 100  68 101  77 101  81 100
M  END
> <chiral flag>
0

> <version>
0

> <s_m_source_file>
/data/baiqing/PycharmProjects/Reinvent-master-3.2/result/LINK_invent/BTK/process_docking_weight1_custom_sum_contain_oxygen_bond_distance_aromatic_linkinvent_7_9_3/rearranged_h_0192.sdf

> <i_m_source_file_index>
93

> <r_mmod_Potential_Energy-OPLS-2005>
590.608947753906

> <r_mmod_Stretch_Energy-OPLS-2005>
344.813446044922

> <r_mmod_Bend_Energy-OPLS-2005>
359.824615478516

> <r_mmod_Torsional_Energy-OPLS-2005>
223.023315429688

> <r_mmod_Improper_Torsional_Energy-OPLS-2005>
4.90301942825317

> <r_mmod_Van_der_Waal_Energy-OPLS-2005>
116.959396362305

> <r_mmod_Electrostatic_Energy-OPLS-2005>
-315.808135986328

> <r_mmod_Solvation_Energy-OPLS-2005>
-460.121246337891

> <b_mmod_Minimization_Converged-OPLS-2005>
0

> <r_mmod_RMS_Derivative-OPLS-2005>
6.2720103263855

$$$$
93
                    3D
 Structure written by MMmdl.
165174  0  0  1  0            999 V2000
  -30.6795  -14.4312   20.6036 C   0  0  0  0  0  0
  -30.4335  -12.2857   19.4237 C   0  0  0  0  0  0
  -29.5038  -12.5110   18.2111 C   0  0  0  0  0  0
  -28.0215  -12.3710   18.6137 C   0  0  0  0  0  0
  -27.6677  -13.1961   19.8812 C   0  0  2  0  0  0
  -28.7003  -12.9294   21.0033 C   0  0  0  0  0  0
  -25.2588  -13.8154   20.5638 C   0  0  0  0  0  0
  -24.1829  -13.0435   20.9145 C   0  0  0  0  0  0
  -24.6376  -11.6899   20.8691 C   0  0  0  0  0  0
  -23.9043  -10.4282   21.0374 C   0  0  0  0  0  0
  -24.3594   -9.4210   21.9162 C   0  0  0  0  0  0
  -23.6282   -8.2239   22.0746 C   0  0  0  0  0  0
  -22.4265   -8.0264   21.3533 C   0  0  0  0  0  0
  -21.9884   -9.0243   20.4648 C   0  0  0  0  0  0
  -22.7207  -10.2123   20.3044 C   0  0  0  0  0  0
  -21.6854   -6.0719   22.5266 C   0  0  0  0  0  0
  -21.4020   -6.5621   23.8200 C   0  0  0  0  0  0
  -21.3663   -5.6777   24.9162 C   0  0  0  0  0  0
  -21.6050   -4.3041   24.7225 C   0  0  0  0  0  0
  -21.8817   -3.8128   23.4349 C   0  0  0  0  0  0
  -21.9198   -4.6942   22.3400 C   0  0  0  0  0  0
  -22.7848  -13.5232   21.1812 C   0  0  0  0  0  0
  -22.1656   -4.2117   21.0985 F   0  0  0  0  0  0
  -21.5643   -3.4527   25.7744 F   0  0  0  0  0  0
  -30.0469  -13.2349   20.4794 N   0  0  0  0  0  0
  -26.3025  -12.9304   20.3339 N   0  0  0  0  0  0
  -25.9298  -11.6471   20.5704 N   0  0  0  0  0  0
  -22.0486  -12.8257   22.0385 N   0  0  0  0  0  0
  -25.4319  -15.1871   20.4012 N   0  0  0  0  0  0
  -31.7404  -14.7085   20.0369 O   0  0  0  0  0  0
  -21.6641   -6.8856   21.4225 O   0  0  0  0  0  0
  -22.3515  -14.5521   20.6648 O   0  0  0  0  0  0
  -24.6131  -31.8709   23.2098 C   0  0  0  0  0  0
  -25.9023  -32.4831   23.8403 C   0  0  1  0  0  0
  -27.2473  -27.4489   20.0986 C   0  0  0  0  0  0
  -25.5888  -33.8632   24.2338 N   0  0  0  0  0  0
  -23.4029  -30.4936   21.5493 C   0  0  2  0  0  0
  -24.8528  -28.9540   20.1228 C   0  0  0  0  0  0
  -22.7402  -29.4689   22.4980 C   0  0  0  0  0  0
  -18.0274  -28.1405   22.8494 C   0  0  0  0  0  0
  -24.1488  -36.7326   23.2643 C   0  0  0  0  0  0
  -25.9301  -30.8367   21.3636 C   0  0  0  0  0  0
  -26.0100  -29.4670   20.7248 C   0  0  0  0  0  0
  -27.2091  -28.7213   20.7188 C   0  0  0  0  0  0
  -26.0786  -26.9515   19.4886 C   0  0  0  0  0  0
  -24.8808  -27.6908   19.5052 C   0  0  0  0  0  0
  -23.6152  -29.8224   20.1665 C   0  0  0  0  0  0
  -25.4105  -36.3116   24.0342 C   0  0  1  0  0  0
  -20.5866  -28.3689   23.1322 C   0  0  2  0  0  0
  -20.6756  -26.9423   22.5426 C   0  0  0  0  0  0
  -19.5727  -26.6408   21.5227 C   0  0  0  0  0  0
  -18.1911  -26.7948   22.1639 C   0  0  0  0  0  0
  -19.1522  -28.8858   23.2913 C   0  0  0  0  0  0
  -18.9452  -30.1463   23.8927 C   0  0  0  0  0  0
  -17.6452  -30.6600   24.0592 C   0  0  0  0  0  0
  -25.9025  -34.9476   23.5135 C   0  0  0  0  0  0
  -16.5345  -29.9114   23.6336 C   0  0  0  0  0  0
  -16.7262  -28.6540   23.0343 C   0  0  0  0  0  0
  -26.4464  -31.6607   25.0728 C   0  0  0  0  0  0
  -25.3734  -31.3713   26.1483 C   0  0  0  0  0  0
  -27.0291  -30.3046   24.6100 C   0  0  0  0  0  0
  -27.6047  -32.4321   25.7475 C   0  0  0  0  0  0
  -27.5581  -37.1826   24.8469 C   0  0  0  0  0  0
  -21.4131  -29.3059   22.3716 N   0  0  0  0  0  0
  -26.4301  -37.3790   23.9402 N   0  0  0  0  0  0
  -24.6669  -31.0823   22.0991 N   0  0  0  0  0  0
  -23.4169  -28.8224   23.3019 O   0  0  0  0  0  0
  -28.3905  -26.6877   20.0087 O   0  0  0  0  0  0
  -26.5595  -34.8922   22.4699 O   0  0  0  0  0  0
  -23.5327  -32.1446   23.7484 O   0  0  0  0  0  0
  -30.1824  -17.9035   20.7608 C   0  0  0  0  0  0
  -31.0336  -18.5174   19.8069 C   0  0  0  0  0  0
  -30.9063  -20.4477   21.0221 C   0  0  0  0  0  0
  -32.4858  -22.5282   20.9188 C   0  0  0  0  0  0
  -31.8090  -22.5634   22.2616 C   0  0  0  0  0  0
  -31.0826  -21.9551   21.0721 C   0  0  0  0  0  0
  -32.9094  -17.9266   18.3860 C   0  0  0  0  0  0
  -29.4866  -16.5627   20.5123 C   0  0  0  0  0  0
  -29.8745  -22.6427   20.4162 C   0  0  0  0  0  0
  -29.0826  -24.8280   21.4035 C   0  0  0  0  0  0
  -29.0630  -26.3646   21.2273 C   0  0  0  0  0  0
  -29.7860  -18.6021   21.8560 N   0  0  0  0  0  0
  -31.3848  -19.8141   19.9428 N   0  0  0  0  0  0
  -30.1539  -19.8875   21.9874 N   0  0  0  0  0  0
  -31.4793  -17.8491   18.6594 N   0  0  0  0  0  0
  -29.9604  -15.3732   21.2293 N   0  0  0  0  0  0
  -29.9045  -24.1320   20.3737 N   0  3  0  0  0  0
  -31.4789  -12.3979   19.1258 H   0  0  0  0  0  0
  -30.3405  -11.2620   19.7893 H   0  0  0  0  0  0
  -29.7435  -11.8004   17.4184 H   0  0  0  0  0  0
  -29.6784  -13.5046   17.7943 H   0  0  0  0  0  0
  -27.8215  -11.3134   18.7928 H   0  0  0  0  0  0
  -27.3782  -12.6595   17.7821 H   0  0  0  0  0  0
  -27.7268  -14.2498   19.6062 H   0  0  0  0  0  0
  -28.6568  -11.8832   21.3085 H   0  0  0  0  0  0
  -28.4483  -13.4946   21.9025 H   0  0  0  0  0  0
  -25.2750   -9.5706   22.4707 H   0  0  0  0  0  0
  -24.0002   -7.4644   22.7477 H   0  0  0  0  0  0
  -21.0806   -8.8760   19.8969 H   0  0  0  0  0  0
  -22.3654  -10.9652   19.6144 H   0  0  0  0  0  0
  -21.1994   -7.6124   23.9688 H   0  0  0  0  0  0
  -21.1495   -6.0512   25.9065 H   0  0  0  0  0  0
  -22.0595   -2.7592   23.2860 H   0  0  0  0  0  0
  -22.4104  -11.9964   22.4850 H   0  0  0  0  0  0
  -21.1098  -13.1297   22.2555 H   0  0  0  0  0  0
  -24.6629  -15.8418   20.4922 H   0  0  0  0  0  0
  -26.2789  -15.6184   20.0567 H   0  0  0  0  0  0
  -26.7099  -32.5557   23.1183 H   0  0  0  0  0  0
  -25.0025  -33.9792   25.0470 H   0  0  0  0  0  0
  -22.6916  -31.3105   21.4081 H   0  0  0  0  0  0
  -23.3722  -35.9694   23.3340 H   0  0  0  0  0  0
  -24.3573  -36.8889   22.2049 H   0  0  0  0  0  0
  -23.7274  -37.6560   23.6626 H   0  0  0  0  0  0
  -26.0395  -31.5938   20.5859 H   0  0  0  0  0  0
  -26.8193  -30.8979   21.9786 H   0  0  0  0  0  0
  -28.1029  -29.1331   21.1664 H   0  0  0  0  0  0
  -26.0996  -25.9876   18.9987 H   0  0  0  0  0  0
  -23.9951  -27.2898   19.0312 H   0  0  0  0  0  0
  -23.7235  -30.5956   19.4046 H   0  0  0  0  0  0
  -22.7396  -29.2424   19.8712 H   0  0  0  0  0  0
  -25.1284  -36.1990   25.0840 H   0  0  0  0  0  0
  -20.9981  -28.3260   24.1436 H   0  0  0  0  0  0
  -20.5667  -26.2297   23.3617 H   0  0  0  0  0  0
  -21.6627  -26.7463   22.1224 H   0  0  0  0  0  0
  -19.6877  -25.6326   21.1252 H   0  0  0  0  0  0
  -19.6669  -27.3219   20.6759 H   0  0  0  0  0  0
  -17.4190  -26.6714   21.4039 H   0  0  0  0  0  0
  -18.0293  -26.0097   22.9040 H   0  0  0  0  0  0
  -19.7925  -30.7283   24.2298 H   0  0  0  0  0  0
  -17.5012  -31.6276   24.5199 H   0  0  0  0  0  0
  -15.5348  -30.3037   23.7633 H   0  0  0  0  0  0
  -15.8665  -28.0885   22.7019 H   0  0  0  0  0  0
  -24.5905  -30.7058   25.7830 H   0  0  0  0  0  0
  -24.8931  -32.2869   26.4949 H   0  0  0  0  0  0
  -25.8105  -30.8884   27.0232 H   0  0  0  0  0  0
  -26.2835  -29.6803   24.1168 H   0  0  0  0  0  0
  -27.4062  -29.7292   25.4567 H   0  0  0  0  0  0
  -27.8673  -30.4360   23.9248 H   0  0  0  0  0  0
  -27.2683  -33.3608   26.2098 H   0  0  0  0  0  0
  -28.3837  -32.6903   25.0286 H   0  0  0  0  0  0
  -28.0748  -31.8417   26.5351 H   0  0  0  0  0  0
  -28.2641  -38.0085   24.7469 H   0  0  0  0  0  0
  -28.1039  -36.2614   24.6358 H   0  0  0  0  0  0
  -27.2299  -37.1553   25.8876 H   0  0  0  0  0  0
  -20.9263  -29.8802   21.6974 H   0  0  0  0  0  0
  -26.0190  -38.2881   24.1357 H   0  0  0  0  0  0
  -33.3038  -21.8210   20.7885 H   0  0  0  0  0  0
  -32.6090  -23.4730   20.3916 H   0  0  0  0  0  0
  -31.4980  -23.5371   22.6316 H   0  0  0  0  0  0
  -32.1727  -21.8794   23.0251 H   0  0  0  0  0  0
  -33.3430  -16.9269   18.4539 H   0  0  0  0  0  0
  -33.4521  -18.5612   19.0890 H   0  0  0  0  0  0
  -33.0798  -18.3063   17.3783 H   0  0  0  0  0  0
  -29.4572  -16.3641   19.4383 H   0  0  0  0  0  0
  -28.4366  -16.6932   20.7757 H   0  0  0  0  0  0
  -28.9568  -22.2949   20.8947 H   0  0  0  0  0  0
  -29.8226  -22.2928   19.3840 H   0  0  0  0  0  0
  -28.0557  -24.4593   21.3719 H   0  0  0  0  0  0
  -29.4639  -24.5880   22.3963 H   0  0  0  0  0  0
  -30.0771  -26.7632   21.1964 H   0  0  0  0  0  0
  -28.5716  -26.8132   22.0935 H   0  0  0  0  0  0
  -31.1361  -16.8945   18.6019 H   0  0  0  0  0  0
  -29.2806  -15.0006   21.8755 H   0  0  0  0  0  0
  -29.5279  -24.3961   19.4755 H   0  0  0  0  0  0
  -30.8614  -24.4507   20.3840 H   0  0  0  0  0  0
  1 25  1  0  0  0
  1 30  2  0  0  0
  1 86  1  0  0  0
  2  3  1  0  0  0
  2 25  1  0  0  0
  2 88  1  0  0  0
  2 89  1  0  0  0
  3  4  1  0  0  0
  3 90  1  0  0  0
  3 91  1  0  0  0
  4  5  1  0  0  0
  4 92  1  0  0  0
  4 93  1  0  0  0
  5  6  1  0  0  0
  5 26  1  0  0  0
  5 94  1  0  0  0
  6 25  1  0  0  0
  6 95  1  0  0  0
  6 96  1  0  0  0
  7  8  2  0  0  0
  7 26  1  0  0  0
  7 29  1  0  0  0
  8  9  1  0  0  0
  8 22  1  0  0  0
  9 10  1  0  0  0
  9 27  2  0  0  0
 10 11  2  0  0  0
 10 15  1  0  0  0
 11 12  1  0  0  0
 11 97  1  0  0  0
 12 13  2  0  0  0
 12 98  1  0  0  0
 13 14  1  0  0  0
 13 31  1  0  0  0
 14 15  2  0  0  0
 14 99  1  0  0  0
 15100  1  0  0  0
 16 17  2  0  0  0
 16 21  1  0  0  0
 16 31  1  0  0  0
 17 18  1  0  0  0
 17101  1  0  0  0
 18 19  2  0  0  0
 18102  1  0  0  0
 19 20  1  0  0  0
 19 24  1  0  0  0
 20 21  2  0  0  0
 20103  1  0  0  0
 21 23  1  0  0  0
 22 28  1  0  0  0
 22 32  2  0  0  0
 26 27  1  0  0  0
 28104  1  0  0  0
 28105  1  0  0  0
 29106  1  0  0  0
 29107  1  0  0  0
 33 34  1  0  0  0
 33 66  1  0  0  0
 33 70  2  0  0  0
 34 36  1  0  0  0
 34 59  1  0  0  0
 34108  1  0  0  0
 35 44  2  0  0  0
 35 45  1  0  0  0
 35 68  1  0  0  0
 36 56  1  0  0  0
 36109  1  0  0  0
 37 39  1  0  0  0
 37 47  1  0  0  0
 37 66  1  0  0  0
 37110  1  0  0  0
 38 43  2  0  0  0
 38 46  1  0  0  0
 38 47  1  0  0  0
 39 64  1  0  0  0
 39 67  2  0  0  0
 40 52  1  0  0  0
 40 53  2  0  0  0
 40 58  1  0  0  0
 41111  1  0  0  0
 41112  1  0  0  0
 41113  1  0  0  0
 41 48  1  0  0  0
 42 43  1  0  0  0
 42 66  1  0  0  0
 42114  1  0  0  0
 42115  1  0  0  0
 43 44  1  0  0  0
 44116  1  0  0  0
 45 46  2  0  0  0
 45117  1  0  0  0
 46118  1  0  0  0
 47119  1  0  0  0
 47120  1  0  0  0
 48 56  1  0  0  0
 48 65  1  0  0  0
 48121  1  0  0  0
 49 50  1  0  0  0
 49 53  1  0  0  0
 49 64  1  0  0  0
 49122  1  0  0  0
 50 51  1  0  0  0
 50123  1  0  0  0
 50124  1  0  0  0
 51 52  1  0  0  0
 51125  1  0  0  0
 51126  1  0  0  0
 52127  1  0  0  0
 52128  1  0  0  0
 53 54  1  0  0  0
 54 55  2  0  0  0
 54129  1  0  0  0
 55 57  1  0  0  0
 55130  1  0  0  0
 56 69  2  0  0  0
 57 58  2  0  0  0
 57131  1  0  0  0
 58132  1  0  0  0
 59 60  1  0  0  0
 59 61  1  0  0  0
 59 62  1  0  0  0
 60133  1  0  0  0
 60134  1  0  0  0
 60135  1  0  0  0
 61136  1  0  0  0
 61137  1  0  0  0
 61138  1  0  0  0
 62139  1  0  0  0
 62140  1  0  0  0
 62141  1  0  0  0
 63 65  1  0  0  0
 63142  1  0  0  0
 63143  1  0  0  0
 63144  1  0  0  0
 64145  1  0  0  0
 65146  1  0  0  0
 68 81  1  0  0  0
 71 72  2  0  0  0
 71 78  1  0  0  0
 71 82  1  0  0  0
 72 83  1  0  0  0
 72 85  1  0  0  0
 73 76  1  0  0  0
 73 83  2  0  0  0
 73 84  1  0  0  0
 74 75  1  0  0  0
 74 76  1  0  0  0
 74147  1  0  0  0
 74148  1  0  0  0
 75 76  1  0  0  0
 75149  1  0  0  0
 75150  1  0  0  0
 76 79  1  0  0  0
 77 85  1  0  0  0
 77151  1  0  0  0
 77152  1  0  0  0
 77153  1  0  0  0
 78 86  1  0  0  0
 78154  1  0  0  0
 78155  1  0  0  0
 79 87  1  0  0  0
 79156  1  0  0  0
 79157  1  0  0  0
 80 81  1  0  0  0
 80 87  1  0  0  0
 80158  1  0  0  0
 80159  1  0  0  0
 81160  1  0  0  0
 81161  1  0  0  0
 82 84  2  0  0  0
 85162  1  0  0  0
 86163  1  0  0  0
 87164  1  0  0  0
 87165  1  0  0  0
M  CHG  1  87   1
M  ISO  4   1 100  68 101  81 101  86 100
M  END
> <chiral flag>
0

> <version>
0

> <s_m_source_file>
/data/baiqing/PycharmProjects/Reinvent-master-3.2/result/LINK_invent/BTK/process_docking_weight1_custom_sum_contain_oxygen_bond_distance_aromatic_linkinvent_7_9_3/rearranged_h_0192.sdf

> <i_m_source_file_index>
94

> <r_mmod_Potential_Energy-OPLS-2005>
-200.90299987793

> <r_mmod_Stretch_Energy-OPLS-2005>
39.5695304870605

> <r_mmod_Bend_Energy-OPLS-2005>
108.030342102051

> <r_mmod_Torsional_Energy-OPLS-2005>
298.517395019531

> <r_mmod_Improper_Torsional_Energy-OPLS-2005>
14.977840423584

> <r_mmod_Van_der_Waal_Energy-OPLS-2005>
155.18701171875

> <r_mmod_Electrostatic_Energy-OPLS-2005>
-346.972869873047

> <r_mmod_Solvation_Energy-OPLS-2005>
-479.465942382812

> <b_mmod_Minimization_Converged-OPLS-2005>
0

> <r_mmod_RMS_Derivative-OPLS-2005>
3.02253818511963

$$$$
94
                    3D
 Structure written by MMmdl.
157166  0  0  1  0            999 V2000
  -30.6862  -14.6228   20.4787 C   0  0  0  0  0  0
  -30.4158  -12.3820   19.4554 C   0  0  0  0  0  0
  -29.4984  -12.4934   18.2211 C   0  0  0  0  0  0
  -28.0227  -12.3415   18.6362 C   0  0  0  0  0  0
  -27.6444  -13.2289   19.8533 C   0  0  2  0  0  0
  -28.6912  -13.1385   20.9848 C   0  0  0  0  0  0
  -25.2531  -13.8204   20.5711 C   0  0  0  0  0  0
  -24.1809  -13.0451   20.9194 C   0  0  0  0  0  0
  -24.6394  -11.6925   20.8743 C   0  0  0  0  0  0
  -23.9070  -10.4300   21.0405 C   0  0  0  0  0  0
  -24.3622   -9.4215   21.9183 C   0  0  0  0  0  0
  -23.6297   -8.2248   22.0755 C   0  0  0  0  0  0
  -22.4279   -8.0284   21.3545 C   0  0  0  0  0  0
  -21.9916   -9.0257   20.4645 C   0  0  0  0  0  0
  -22.7242  -10.2138   20.3054 C   0  0  0  0  0  0
  -21.6855   -6.0737   22.5279 C   0  0  0  0  0  0
  -21.4015   -6.5642   23.8212 C   0  0  0  0  0  0
  -21.3660   -5.6797   24.9176 C   0  0  0  0  0  0
  -21.6046   -4.3058   24.7228 C   0  0  0  0  0  0
  -21.8821   -3.8148   23.4349 C   0  0  0  0  0  0
  -21.9195   -4.6964   22.3404 C   0  0  0  0  0  0
  -22.7828  -13.5229   21.1856 C   0  0  0  0  0  0
  -22.1662   -4.2147   21.0982 F   0  0  0  0  0  0
  -21.5629   -3.4543   25.7742 F   0  0  0  0  0  0
  -30.0015  -13.4397   20.3983 N   0  0  0  0  0  0
  -26.2957  -12.9406   20.3314 N   0  0  0  0  0  0
  -25.9327  -11.6548   20.5763 N   0  0  0  0  0  0
  -22.0483  -12.8213   22.0413 N   0  0  0  0  0  0
  -25.4263  -15.1928   20.4159 N   0  0  0  0  0  0
  -31.8828  -14.6771   20.1779 O   0  0  0  0  0  0
  -21.6644   -6.8880   21.4240 O   0  0  0  0  0  0
  -22.3507  -14.5536   20.6709 O   0  0  0  0  0  0
  -24.6269  -31.8620   23.2059 C   0  0  0  0  0  0
  -25.9121  -32.4791   23.8376 C   0  0  1  0  0  0
  -27.2090  -27.3162   20.1080 C   0  0  0  0  0  0
  -25.5944  -33.8593   24.2300 N   0  0  0  0  0  0
  -23.4189  -30.4905   21.5495 C   0  0  2  0  0  0
  -24.8620  -28.9558   20.1083 C   0  0  0  0  0  0
  -22.7474  -29.4646   22.4937 C   0  0  0  0  0  0
  -18.0288  -28.1383   22.8491 C   0  0  0  0  0  0
  -24.1491  -36.7295   23.2634 C   0  0  0  0  0  0
  -25.9634  -30.7911   21.3801 C   0  0  0  0  0  0
  -26.0344  -29.4216   20.7170 C   0  0  0  0  0  0
  -27.2116  -28.6130   20.7111 C   0  0  0  0  0  0
  -26.0116  -26.9198   19.4608 C   0  0  0  0  0  0
  -24.8530  -27.7101   19.4716 C   0  0  0  0  0  0
  -23.6319  -29.8354   20.1619 C   0  0  0  0  0  0
  -25.4114  -36.3091   24.0331 C   0  0  1  0  0  0
  -20.5889  -28.3695   23.1279 C   0  0  2  0  0  0
  -20.6780  -26.9420   22.5405 C   0  0  0  0  0  0
  -19.5755  -26.6386   21.5210 C   0  0  0  0  0  0
  -18.1935  -26.7927   22.1624 C   0  0  0  0  0  0
  -19.1540  -28.8855   23.2880 C   0  0  0  0  0  0
  -18.9462  -30.1455   23.8900 C   0  0  0  0  0  0
  -17.6463  -30.6590   24.0562 C   0  0  0  0  0  0
  -25.9056  -34.9461   23.5111 C   0  0  0  0  0  0
  -16.5354  -29.9087   23.6330 C   0  0  0  0  0  0
  -16.7274  -28.6499   23.0360 C   0  0  0  0  0  0
  -26.4500  -31.6592   25.0740 C   0  0  0  0  0  0
  -25.3733  -31.3724   26.1464 C   0  0  0  0  0  0
  -27.0344  -30.3016   24.6194 C   0  0  0  0  0  0
  -27.6063  -32.4320   25.7514 C   0  0  0  0  0  0
  -27.5586  -37.1796   24.8458 C   0  0  0  0  0  0
  -21.4187  -29.3056   22.3676 N   0  0  0  0  0  0
  -26.4289  -37.3789   23.9416 N   0  0  0  0  0  0
  -24.6888  -31.0634   22.1018 N   0  0  0  0  0  0
  -23.4201  -28.8167   23.3001 O   0  0  0  0  0  0
  -28.3001  -26.4294   20.1780 O   0  0  0  0  0  0
  -26.5614  -34.8922   22.4671 O   0  0  0  0  0  0
  -23.5432  -32.1423   23.7385 O   0  0  0  0  0  0
  -30.3363  -24.0889   20.5655 C   0  0  0  0  0  0
  -31.1542  -22.9697   20.7864 C   0  0  0  0  0  0
  -28.9818  -23.8494   20.3109 C   0  0  0  0  0  0
  -29.3889  -21.5412   20.5134 C   0  0  0  0  0  0
  -29.0012  -17.9123   19.4357 C   0  0  0  0  0  0
  -29.6692  -18.1300   21.7605 C   0  0  0  0  0  0
  -29.7656  -16.5496   19.3411 C   0  0  0  0  0  0
  -30.4270  -16.7550   21.6662 C   0  0  0  0  0  0
  -29.6282  -18.9216   20.4286 C   0  0  0  0  0  0
  -27.9752  -24.9948   19.9684 C   0  0  0  0  0  0
  -30.6794  -21.7036   20.7533 N   0  0  0  0  0  0
  -28.5292  -22.5502   20.2964 N   0  0  0  0  0  0
  -29.9765  -15.8019   20.6120 N   0  0  0  0  0  0
  -28.8897  -20.2239   20.4860 N   0  0  0  0  0  0
  -31.4612  -12.4710   19.1548 H   0  0  0  0  0  0
  -30.3207  -11.4001   19.9216 H   0  0  0  0  0  0
  -29.7596  -11.7319   17.4851 H   0  0  0  0  0  0
  -29.6480  -13.4570   17.7313 H   0  0  0  0  0  0
  -27.8582  -11.2911   18.8793 H   0  0  0  0  0  0
  -27.3688  -12.5621   17.7915 H   0  0  0  0  0  0
  -27.6465  -14.2563   19.4905 H   0  0  0  0  0  0
  -28.6964  -12.1451   21.4352 H   0  0  0  0  0  0
  -28.4516  -13.8411   21.7847 H   0  0  0  0  0  0
  -25.2770   -9.5694   22.4753 H   0  0  0  0  0  0
  -24.0009   -7.4644   22.7478 H   0  0  0  0  0  0
  -21.0848   -8.8774   19.8948 H   0  0  0  0  0  0
  -22.3700  -10.9676   19.6161 H   0  0  0  0  0  0
  -21.2007   -7.6151   23.9711 H   0  0  0  0  0  0
  -21.1479   -6.0530   25.9078 H   0  0  0  0  0  0
  -22.0599   -2.7609   23.2853 H   0  0  0  0  0  0
  -22.4110  -11.9871   22.4786 H   0  0  0  0  0  0
  -21.1099  -13.1224   22.2627 H   0  0  0  0  0  0
  -24.6688  -15.8558   20.5395 H   0  0  0  0  0  0
  -26.2964  -15.6300   20.1393 H   0  0  0  0  0  0
  -26.7188  -32.5458   23.1124 H   0  0  0  0  0  0
  -25.0102  -33.9744   25.0453 H   0  0  0  0  0  0
  -22.7129  -31.3121   21.4117 H   0  0  0  0  0  0
  -23.3764  -35.9612   23.3275 H   0  0  0  0  0  0
  -24.3589  -36.8939   22.2053 H   0  0  0  0  0  0
  -23.7226  -37.6484   23.6671 H   0  0  0  0  0  0
  -26.0985  -31.5568   20.6147 H   0  0  0  0  0  0
  -26.8432  -30.8346   22.0104 H   0  0  0  0  0  0
  -28.1065  -28.9609   21.2080 H   0  0  0  0  0  0
  -25.9181  -25.9771   18.9445 H   0  0  0  0  0  0
  -23.9565  -27.3508   18.9850 H   0  0  0  0  0  0
  -23.7515  -30.6163   19.4102 H   0  0  0  0  0  0
  -22.7509  -29.2677   19.8569 H   0  0  0  0  0  0
  -25.1288  -36.1942   25.0824 H   0  0  0  0  0  0
  -20.9984  -28.3273   24.1399 H   0  0  0  0  0  0
  -20.5692  -26.2305   23.3605 H   0  0  0  0  0  0
  -21.6649  -26.7460   22.1196 H   0  0  0  0  0  0
  -19.6921  -25.6296   21.1242 H   0  0  0  0  0  0
  -19.6690  -27.3191   20.6736 H   0  0  0  0  0  0
  -17.4206  -26.6682   21.4022 H   0  0  0  0  0  0
  -18.0333  -26.0064   22.9016 H   0  0  0  0  0  0
  -19.7938  -30.7267   24.2277 H   0  0  0  0  0  0
  -17.5019  -31.6273   24.5159 H   0  0  0  0  0  0
  -15.5354  -30.2992   23.7651 H   0  0  0  0  0  0
  -15.8673  -28.0811   22.7087 H   0  0  0  0  0  0
  -24.5908  -30.7076   25.7787 H   0  0  0  0  0  0
  -24.8923  -32.2889   26.4893 H   0  0  0  0  0  0
  -25.8057  -30.8896   27.0237 H   0  0  0  0  0  0
  -26.2922  -29.6767   24.1213 H   0  0  0  0  0  0
  -27.4036  -29.7269   25.4697 H   0  0  0  0  0  0
  -27.8797  -30.4300   23.9429 H   0  0  0  0  0  0
  -27.2679  -33.3619   26.2095 H   0  0  0  0  0  0
  -28.3877  -32.6878   25.0346 H   0  0  0  0  0  0
  -28.0728  -31.8440   26.5428 H   0  0  0  0  0  0
  -28.2575  -38.0123   24.7556 H   0  0  0  0  0  0
  -28.1115  -36.2659   24.6222 H   0  0  0  0  0  0
  -27.2313  -37.1373   25.8861 H   0  0  0  0  0  0
  -20.9352  -29.8796   21.6907 H   0  0  0  0  0  0
  -26.0170  -38.2856   24.1446 H   0  0  0  0  0  0
  -30.7380  -25.0935   20.5777 H   0  0  0  0  0  0
  -32.2095  -23.0877   20.9829 H   0  0  0  0  0  0
  -27.9648  -17.7150   19.7143 H   0  0  0  0  0  0
  -28.9618  -18.3596   18.4413 H   0  0  0  0  0  0
  -30.1414  -18.7424   22.5300 H   0  0  0  0  0  0
  -28.6517  -17.9478   22.1097 H   0  0  0  0  0  0
  -30.7380  -16.7392   18.8819 H   0  0  0  0  0  0
  -29.2329  -15.9039   18.6412 H   0  0  0  0  0  0
  -30.3606  -16.2530   22.6328 H   0  0  0  0  0  0
  -31.4881  -16.9642   21.5150 H   0  0  0  0  0  0
  -30.6516  -19.1306   20.1118 H   0  0  0  0  0  0
  -27.0714  -24.7559   20.5319 H   0  0  0  0  0  0
  -27.7455  -24.8535   18.9117 H   0  0  0  0  0  0
  -27.8945  -20.1726   20.3086 H   0  0  0  0  0  0
  1 25  1  0  0  0
  1 30  2  0  0  0
  1 83  1  0  0  0
  2  3  1  0  0  0
  2 25  1  0  0  0
  2 85  1  0  0  0
  2 86  1  0  0  0
  3  4  1  0  0  0
  3 87  1  0  0  0
  3 88  1  0  0  0
  4  5  1  0  0  0
  4 89  1  0  0  0
  4 90  1  0  0  0
  5  6  1  0  0  0
  5 26  1  0  0  0
  5 91  1  0  0  0
  6 25  1  0  0  0
  6 92  1  0  0  0
  6 93  1  0  0  0
  7  8  2  0  0  0
  7 26  1  0  0  0
  7 29  1  0  0  0
  8  9  1  0  0  0
  8 22  1  0  0  0
  9 10  1  0  0  0
  9 27  2  0  0  0
 10 11  2  0  0  0
 10 15  1  0  0  0
 11 12  1  0  0  0
 11 94  1  0  0  0
 12 13  2  0  0  0
 12 95  1  0  0  0
 13 14  1  0  0  0
 13 31  1  0  0  0
 14 15  2  0  0  0
 14 96  1  0  0  0
 15 97  1  0  0  0
 16 17  2  0  0  0
 16 21  1  0  0  0
 16 31  1  0  0  0
 17 18  1  0  0  0
 17 98  1  0  0  0
 18 19  2  0  0  0
 18 99  1  0  0  0
 19 20  1  0  0  0
 19 24  1  0  0  0
 20 21  2  0  0  0
 20100  1  0  0  0
 21 23  1  0  0  0
 22 28  1  0  0  0
 22 32  2  0  0  0
 26 27  1  0  0  0
 28101  1  0  0  0
 28102  1  0  0  0
 29103  1  0  0  0
 29104  1  0  0  0
 33 34  1  0  0  0
 33 66  1  0  0  0
 33 70  2  0  0  0
 34 36  1  0  0  0
 34 59  1  0  0  0
 34105  1  0  0  0
 35 44  2  0  0  0
 35 45  1  0  0  0
 35 68  1  0  0  0
 36 56  1  0  0  0
 36106  1  0  0  0
 37 39  1  0  0  0
 37 47  1  0  0  0
 37 66  1  0  0  0
 37107  1  0  0  0
 38 43  2  0  0  0
 38 46  1  0  0  0
 38 47  1  0  0  0
 39 64  1  0  0  0
 39 67  2  0  0  0
 40 52  1  0  0  0
 40 53  2  0  0  0
 40 58  1  0  0  0
 41108  1  0  0  0
 41109  1  0  0  0
 41110  1  0  0  0
 41 48  1  0  0  0
 42 43  1  0  0  0
 42 66  1  0  0  0
 42111  1  0  0  0
 42112  1  0  0  0
 43 44  1  0  0  0
 44113  1  0  0  0
 45 46  2  0  0  0
 45114  1  0  0  0
 46115  1  0  0  0
 47116  1  0  0  0
 47117  1  0  0  0
 48 56  1  0  0  0
 48 65  1  0  0  0
 48118  1  0  0  0
 49 50  1  0  0  0
 49 53  1  0  0  0
 49 64  1  0  0  0
 49119  1  0  0  0
 50 51  1  0  0  0
 50120  1  0  0  0
 50121  1  0  0  0
 51 52  1  0  0  0
 51122  1  0  0  0
 51123  1  0  0  0
 52124  1  0  0  0
 52125  1  0  0  0
 53 54  1  0  0  0
 54 55  2  0  0  0
 54126  1  0  0  0
 55 57  1  0  0  0
 55127  1  0  0  0
 56 69  2  0  0  0
 57 58  2  0  0  0
 57128  1  0  0  0
 58129  1  0  0  0
 59 60  1  0  0  0
 59 61  1  0  0  0
 59 62  1  0  0  0
 60130  1  0  0  0
 60131  1  0  0  0
 60132  1  0  0  0
 61133  1  0  0  0
 61134  1  0  0  0
 61135  1  0  0  0
 62136  1  0  0  0
 62137  1  0  0  0
 62138  1  0  0  0
 63 65  1  0  0  0
 63139  1  0  0  0
 63140  1  0  0  0
 63141  1  0  0  0
 64142  1  0  0  0
 65143  1  0  0  0
 68 80  1  0  0  0
 71 72  2  0  0  0
 71 73  1  0  0  0
 71144  1  0  0  0
 72 81  1  0  0  0
 72145  1  0  0  0
 73 80  1  0  0  0
 73 82  2  0  0  0
 74 81  2  0  0  0
 74 82  1  0  0  0
 74 84  1  0  0  0
 75 77  1  0  0  0
 75 79  1  0  0  0
 75146  1  0  0  0
 75147  1  0  0  0
 76 78  1  0  0  0
 76 79  1  0  0  0
 76148  1  0  0  0
 76149  1  0  0  0
 77 83  1  0  0  0
 77150  1  0  0  0
 77151  1  0  0  0
 78 83  1  0  0  0
 78152  1  0  0  0
 78153  1  0  0  0
 79 84  1  0  0  0
 79154  1  0  0  0
 80155  1  0  0  0
 80156  1  0  0  0
 84157  1  0  0  0
M  ISO  4   1 100  68 101  80 101  83 100
M  END
> <chiral flag>
0

> <version>
0

> <s_m_source_file>
/data/baiqing/PycharmProjects/Reinvent-master-3.2/result/LINK_invent/BTK/process_docking_weight1_custom_sum_contain_oxygen_bond_distance_aromatic_linkinvent_7_9_3/rearranged_h_0192.sdf

> <i_m_source_file_index>
95

> <r_mmod_Potential_Energy-OPLS-2005>
-257.611236572266

> <r_mmod_Stretch_Energy-OPLS-2005>
72.8657455444336

> <r_mmod_Bend_Energy-OPLS-2005>
154.479934692383

> <r_mmod_Torsional_Energy-OPLS-2005>
319.824066162109

> <r_mmod_Improper_Torsional_Energy-OPLS-2005>
12.0110368728638

> <r_mmod_Van_der_Waal_Energy-OPLS-2005>
160.317123413086

> <r_mmod_Electrostatic_Energy-OPLS-2005>
-803.976501464844

> <r_mmod_Solvation_Energy-OPLS-2005>
-228.173583984375

> <b_mmod_Minimization_Converged-OPLS-2005>
0

> <r_mmod_RMS_Derivative-OPLS-2005>
0.445463001728058

$$$$
95
                    3D
 Structure written by MMmdl.
163172  0  0  1  0            999 V2000
  -30.6497  -14.5250   20.5406 C   0  0  0  0  0  0
  -30.4388  -12.3276   19.4343 C   0  0  0  0  0  0
  -29.5069  -12.5233   18.2184 C   0  0  0  0  0  0
  -28.0267  -12.3690   18.6267 C   0  0  0  0  0  0
  -27.6659  -13.2048   19.8837 C   0  0  2  0  0  0
  -28.7088  -12.9838   21.0049 C   0  0  0  0  0  0
  -25.2602  -13.8140   20.5675 C   0  0  0  0  0  0
  -24.1860  -13.0422   20.9180 C   0  0  0  0  0  0
  -24.6415  -11.6892   20.8733 C   0  0  0  0  0  0
  -23.9073  -10.4287   21.0402 C   0  0  0  0  0  0
  -24.3611   -9.4212   21.9190 C   0  0  0  0  0  0
  -23.6276   -8.2256   22.0763 C   0  0  0  0  0  0
  -22.4259   -8.0294   21.3555 C   0  0  0  0  0  0
  -21.9900   -9.0272   20.4661 C   0  0  0  0  0  0
  -22.7235  -10.2140   20.3067 C   0  0  0  0  0  0
  -21.6856   -6.0730   22.5280 C   0  0  0  0  0  0
  -21.4016   -6.5638   23.8213 C   0  0  0  0  0  0
  -21.3662   -5.6797   24.9183 C   0  0  0  0  0  0
  -21.6043   -4.3063   24.7235 C   0  0  0  0  0  0
  -21.8815   -3.8147   23.4360 C   0  0  0  0  0  0
  -21.9197   -4.6960   22.3410 C   0  0  0  0  0  0
  -22.7881  -13.5208   21.1855 C   0  0  0  0  0  0
  -22.1668   -4.2142   21.0990 F   0  0  0  0  0  0
  -21.5632   -3.4553   25.7756 F   0  0  0  0  0  0
  -30.0403  -13.3073   20.4581 N   0  0  0  0  0  0
  -26.3055  -12.9313   20.3396 N   0  0  0  0  0  0
  -25.9343  -11.6478   20.5783 N   0  0  0  0  0  0
  -22.0510  -12.8211   22.0409 N   0  0  0  0  0  0
  -25.4273  -15.1872   20.4040 N   0  0  0  0  0  0
  -31.7791  -14.7418   20.0934 O   0  0  0  0  0  0
  -21.6635   -6.8876   21.4241 O   0  0  0  0  0  0
  -22.3577  -14.5519   20.6706 O   0  0  0  0  0  0
  -24.6181  -31.8665   23.2099 C   0  0  0  0  0  0
  -25.9072  -32.4811   23.8390 C   0  0  1  0  0  0
  -27.2309  -27.4068   20.1008 C   0  0  0  0  0  0
  -25.5928  -33.8610   24.2338 N   0  0  0  0  0  0
  -23.4056  -30.4926   21.5509 C   0  0  2  0  0  0
  -24.8507  -28.9572   20.1144 C   0  0  0  0  0  0
  -22.7430  -29.4655   22.4975 C   0  0  0  0  0  0
  -18.0278  -28.1351   22.8500 C   0  0  0  0  0  0
  -24.1494  -36.7305   23.2636 C   0  0  0  0  0  0
  -25.9376  -30.8259   21.3647 C   0  0  0  0  0  0
  -26.0137  -29.4583   20.7112 C   0  0  0  0  0  0
  -27.2067  -28.6939   20.6949 C   0  0  0  0  0  0
  -26.0453  -26.9316   19.4918 C   0  0  0  0  0  0
  -24.8639  -27.6951   19.4991 C   0  0  0  0  0  0
  -23.6149  -29.8285   20.1641 C   0  0  0  0  0  0
  -25.4112  -36.3106   24.0344 C   0  0  1  0  0  0
  -20.5871  -28.3649   23.1312 C   0  0  2  0  0  0
  -20.6764  -26.9382   22.5408 C   0  0  0  0  0  0
  -19.5740  -26.6371   21.5208 C   0  0  0  0  0  0
  -18.1922  -26.7902   22.1621 C   0  0  0  0  0  0
  -19.1526  -28.8813   23.2905 C   0  0  0  0  0  0
  -18.9448  -30.1420   23.8921 C   0  0  0  0  0  0
  -17.6446  -30.6564   24.0552 C   0  0  0  0  0  0
  -25.9039  -34.9466   23.5139 C   0  0  0  0  0  0
  -16.5343  -29.9064   23.6312 C   0  0  0  0  0  0
  -16.7265  -28.6471   23.0357 C   0  0  0  0  0  0
  -26.4500  -31.6574   25.0708 C   0  0  0  0  0  0
  -25.3775  -31.3655   26.1459 C   0  0  0  0  0  0
  -27.0329  -30.3024   24.6064 C   0  0  0  0  0  0
  -27.6086  -32.4277   25.7470 C   0  0  0  0  0  0
  -27.5589  -37.1806   24.8468 C   0  0  0  0  0  0
  -21.4148  -29.3031   22.3728 N   0  0  0  0  0  0
  -26.4302  -37.3787   23.9412 N   0  0  0  0  0  0
  -24.6725  -31.0763   22.1001 N   0  0  0  0  0  0
  -23.4198  -28.8186   23.3012 O   0  0  0  0  0  0
  -28.3970  -26.6562   20.1042 O   0  0  0  0  0  0
  -26.5591  -34.8919   22.4690 O   0  0  0  0  0  0
  -23.5377  -32.1416   23.7493 O   0  0  0  0  0  0
  -31.2138  -21.2008   21.5035 C   0  0  0  0  0  0
  -28.8325  -20.7036   20.8098 C   0  0  0  0  0  0
  -29.7590  -17.2064   19.1006 C   0  0  0  0  0  0
  -31.0918  -22.5501   20.7504 C   0  0  0  0  0  0
  -28.7910  -22.1026   20.1196 C   0  0  0  0  0  0
  -29.7627  -16.9383   20.5899 C   0  0  2  0  0  0
  -30.2473  -20.0867   21.0213 C   0  0  1  0  0  0
  -30.8675  -17.8005   19.9427 C   0  0  2  0  0  0
  -29.6474  -24.5010   20.2389 C   0  0  0  0  0  0
  -28.2715  -25.2266   20.3113 C   0  0  0  0  0  0
  -29.8199  -15.5207   20.9290 N   0  0  0  0  0  0
  -29.7020  -23.0898   20.7699 N   0  3  2  0  0  0
  -30.7623  -19.2994   19.8550 N   0  3  0  0  0  0
  -31.4822  -12.4448   19.1352 H   0  0  0  0  0  0
  -30.3539  -11.3132   19.8273 H   0  0  0  0  0  0
  -29.7524  -11.8137   17.4282 H   0  0  0  0  0  0
  -29.6668  -13.5162   17.7934 H   0  0  0  0  0  0
  -27.8430  -11.3107   18.8185 H   0  0  0  0  0  0
  -27.3785  -12.6445   17.7942 H   0  0  0  0  0  0
  -27.7054  -14.2532   19.5877 H   0  0  0  0  0  0
  -28.6935  -11.9466   21.3431 H   0  0  0  0  0  0
  -28.4677  -13.5778   21.8879 H   0  0  0  0  0  0
  -25.2752   -9.5690   22.4775 H   0  0  0  0  0  0
  -23.9984   -7.4645   22.7471 H   0  0  0  0  0  0
  -21.0843   -8.8801   19.8951 H   0  0  0  0  0  0
  -22.3704  -10.9688   19.6191 H   0  0  0  0  0  0
  -21.1996   -7.6146   23.9714 H   0  0  0  0  0  0
  -21.1485   -6.0533   25.9078 H   0  0  0  0  0  0
  -22.0576   -2.7604   23.2875 H   0  0  0  0  0  0
  -22.4088  -11.9853   22.4811 H   0  0  0  0  0  0
  -21.1137  -13.1274   22.2599 H   0  0  0  0  0  0
  -24.6479  -15.8289   20.4972 H   0  0  0  0  0  0
  -26.2667  -15.6349   20.0583 H   0  0  0  0  0  0
  -26.7135  -32.5520   23.1143 H   0  0  0  0  0  0
  -25.0133  -33.9759   25.0527 H   0  0  0  0  0  0
  -22.6951  -31.3104   21.4145 H   0  0  0  0  0  0
  -23.3759  -35.9634   23.3294 H   0  0  0  0  0  0
  -24.3601  -36.8918   22.2052 H   0  0  0  0  0  0
  -23.7238  -37.6508   23.6646 H   0  0  0  0  0  0
  -26.0540  -31.5926   20.5967 H   0  0  0  0  0  0
  -26.8247  -30.8782   21.9842 H   0  0  0  0  0  0
  -28.1051  -29.0813   21.1541 H   0  0  0  0  0  0
  -26.0085  -25.9797   18.9855 H   0  0  0  0  0  0
  -23.9730  -27.3099   19.0223 H   0  0  0  0  0  0
  -23.7257  -30.6065   19.4081 H   0  0  0  0  0  0
  -22.7363  -29.2539   19.8652 H   0  0  0  0  0  0
  -25.1287  -36.1972   25.0839 H   0  0  0  0  0  0
  -20.9978  -28.3206   24.1426 H   0  0  0  0  0  0
  -20.5667  -26.2255   23.3597 H   0  0  0  0  0  0
  -21.6637  -26.7412   22.1202 H   0  0  0  0  0  0
  -19.6902  -25.6290   21.1221 H   0  0  0  0  0  0
  -19.6679  -27.3197   20.6755 H   0  0  0  0  0  0
  -17.4198  -26.6667   21.4017 H   0  0  0  0  0  0
  -18.0312  -26.0026   22.8996 H   0  0  0  0  0  0
  -19.7920  -30.7228   24.2319 H   0  0  0  0  0  0
  -17.4994  -31.6257   24.5131 H   0  0  0  0  0  0
  -15.5343  -30.2969   23.7608 H   0  0  0  0  0  0
  -15.8670  -28.0784   22.7080 H   0  0  0  0  0  0
  -24.5974  -30.6973   25.7792 H   0  0  0  0  0  0
  -24.8938  -32.2791   26.4918 H   0  0  0  0  0  0
  -25.8145  -30.8824   27.0205 H   0  0  0  0  0  0
  -26.2854  -29.6766   24.1175 H   0  0  0  0  0  0
  -27.4177  -29.7274   25.4493 H   0  0  0  0  0  0
  -27.8656  -30.4357   23.9156 H   0  0  0  0  0  0
  -27.2734  -33.3585   26.2054 H   0  0  0  0  0  0
  -28.3897  -32.6809   25.0290 H   0  0  0  0  0  0
  -28.0746  -31.8381   26.5375 H   0  0  0  0  0  0
  -28.2598  -38.0113   24.7534 H   0  0  0  0  0  0
  -28.1097  -36.2645   24.6275 H   0  0  0  0  0  0
  -27.2305  -37.1430   25.8869 H   0  0  0  0  0  0
  -20.9304  -29.8792   21.6985 H   0  0  0  0  0  0
  -26.0193  -38.2868   24.1409 H   0  0  0  0  0  0
  -31.0010  -21.3962   22.5559 H   0  0  0  0  0  0
  -32.2479  -20.8529   21.4889 H   0  0  0  0  0  0
  -28.1814  -20.0058   20.2822 H   0  0  0  0  0  0
  -28.3771  -20.8161   21.7946 H   0  0  0  0  0  0
  -28.9467  -17.8366   18.7404 H   0  0  0  0  0  0
  -30.0302  -16.3976   18.4228 H   0  0  0  0  0  0
  -31.4188  -22.4347   19.7148 H   0  0  0  0  0  0
  -31.7758  -23.2706   21.2009 H   0  0  0  0  0  0
  -27.7650  -22.4699   20.1425 H   0  0  0  0  0  0
  -29.0553  -22.0078   19.0652 H   0  0  0  0  0  0
  -29.0221  -17.4893   21.1652 H   0  0  0  0  0  0
  -30.1802  -19.3745   21.8440 H   0  0  0  0  0  0
  -31.8785  -17.4187   19.8169 H   0  0  0  0  0  0
  -30.3520  -25.0969   20.8214 H   0  0  0  0  0  0
  -30.0111  -24.5246   19.2114 H   0  0  0  0  0  0
  -27.8092  -25.0607   21.2861 H   0  0  0  0  0  0
  -27.6219  -24.7711   19.5660 H   0  0  0  0  0  0
  -28.9649  -15.1688   21.3322 H   0  0  0  0  0  0
  -29.4294  -23.1536   21.7425 H   0  0  0  0  0  0
  -31.7049  -19.6140   19.6848 H   0  0  0  0  0  0
  -30.2476  -19.5338   19.0219 H   0  0  0  0  0  0
  1 25  1  0  0  0
  1 30  2  0  0  0
  1 81  1  0  0  0
  2  3  1  0  0  0
  2 25  1  0  0  0
  2 84  1  0  0  0
  2 85  1  0  0  0
  3  4  1  0  0  0
  3 86  1  0  0  0
  3 87  1  0  0  0
  4  5  1  0  0  0
  4 88  1  0  0  0
  4 89  1  0  0  0
  5  6  1  0  0  0
  5 26  1  0  0  0
  5 90  1  0  0  0
  6 25  1  0  0  0
  6 91  1  0  0  0
  6 92  1  0  0  0
  7  8  2  0  0  0
  7 26  1  0  0  0
  7 29  1  0  0  0
  8  9  1  0  0  0
  8 22  1  0  0  0
  9 10  1  0  0  0
  9 27  2  0  0  0
 10 11  2  0  0  0
 10 15  1  0  0  0
 11 12  1  0  0  0
 11 93  1  0  0  0
 12 13  2  0  0  0
 12 94  1  0  0  0
 13 14  1  0  0  0
 13 31  1  0  0  0
 14 15  2  0  0  0
 14 95  1  0  0  0
 15 96  1  0  0  0
 16 17  2  0  0  0
 16 21  1  0  0  0
 16 31  1  0  0  0
 17 18  1  0  0  0
 17 97  1  0  0  0
 18 19  2  0  0  0
 18 98  1  0  0  0
 19 20  1  0  0  0
 19 24  1  0  0  0
 20 21  2  0  0  0
 20 99  1  0  0  0
 21 23  1  0  0  0
 22 28  1  0  0  0
 22 32  2  0  0  0
 26 27  1  0  0  0
 28100  1  0  0  0
 28101  1  0  0  0
 29102  1  0  0  0
 29103  1  0  0  0
 33 34  1  0  0  0
 33 66  1  0  0  0
 33 70  2  0  0  0
 34 36  1  0  0  0
 34 59  1  0  0  0
 34104  1  0  0  0
 35 44  2  0  0  0
 35 45  1  0  0  0
 35 68  1  0  0  0
 36 56  1  0  0  0
 36105  1  0  0  0
 37 39  1  0  0  0
 37 47  1  0  0  0
 37 66  1  0  0  0
 37106  1  0  0  0
 38 43  2  0  0  0
 38 46  1  0  0  0
 38 47  1  0  0  0
 39 64  1  0  0  0
 39 67  2  0  0  0
 40 52  1  0  0  0
 40 53  2  0  0  0
 40 58  1  0  0  0
 41107  1  0  0  0
 41108  1  0  0  0
 41109  1  0  0  0
 41 48  1  0  0  0
 42 43  1  0  0  0
 42 66  1  0  0  0
 42110  1  0  0  0
 42111  1  0  0  0
 43 44  1  0  0  0
 44112  1  0  0  0
 45 46  2  0  0  0
 45113  1  0  0  0
 46114  1  0  0  0
 47115  1  0  0  0
 47116  1  0  0  0
 48 56  1  0  0  0
 48 65  1  0  0  0
 48117  1  0  0  0
 49 50  1  0  0  0
 49 53  1  0  0  0
 49 64  1  0  0  0
 49118  1  0  0  0
 50 51  1  0  0  0
 50119  1  0  0  0
 50120  1  0  0  0
 51 52  1  0  0  0
 51121  1  0  0  0
 51122  1  0  0  0
 52123  1  0  0  0
 52124  1  0  0  0
 53 54  1  0  0  0
 54 55  2  0  0  0
 54125  1  0  0  0
 55 57  1  0  0  0
 55126  1  0  0  0
 56 69  2  0  0  0
 57 58  2  0  0  0
 57127  1  0  0  0
 58128  1  0  0  0
 59 60  1  0  0  0
 59 61  1  0  0  0
 59 62  1  0  0  0
 60129  1  0  0  0
 60130  1  0  0  0
 60131  1  0  0  0
 61132  1  0  0  0
 61133  1  0  0  0
 61134  1  0  0  0
 62135  1  0  0  0
 62136  1  0  0  0
 62137  1  0  0  0
 63 65  1  0  0  0
 63138  1  0  0  0
 63139  1  0  0  0
 63140  1  0  0  0
 64141  1  0  0  0
 65142  1  0  0  0
 68 80  1  0  0  0
 71 74  1  0  0  0
 71 77  1  0  0  0
 71143  1  0  0  0
 71144  1  0  0  0
 72 75  1  0  0  0
 72 77  1  0  0  0
 72145  1  0  0  0
 72146  1  0  0  0
 73 76  1  0  0  0
 73 78  1  0  0  0
 73147  1  0  0  0
 73148  1  0  0  0
 74 82  1  0  0  0
 74149  1  0  0  0
 74150  1  0  0  0
 75 82  1  0  0  0
 75151  1  0  0  0
 75152  1  0  0  0
 76 78  1  0  0  0
 76 81  1  0  0  0
 76153  1  0  0  0
 77 83  1  0  0  0
 77154  1  0  0  0
 78 83  1  0  0  0
 78155  1  0  0  0
 79 80  1  0  0  0
 79156  1  0  0  0
 79157  1  0  0  0
 79 82  1  0  0  0
 80158  1  0  0  0
 80159  1  0  0  0
 81160  1  0  0  0
 82161  1  0  0  0
 83162  1  0  0  0
 83163  1  0  0  0
M  CHG  2  82   1  83   1
M  ISO  4   1 100  68 101  80 101  81 100
M  END
> <chiral flag>
0

> <version>
0

> <s_m_source_file>
/data/baiqing/PycharmProjects/Reinvent-master-3.2/result/LINK_invent/BTK/process_docking_weight1_custom_sum_contain_oxygen_bond_distance_aromatic_linkinvent_7_9_3/rearranged_h_0192.sdf

> <i_m_source_file_index>
96

> <r_mmod_Potential_Energy-OPLS-2005>
-166.447692871094

> <r_mmod_Stretch_Energy-OPLS-2005>
48.4862480163574

> <r_mmod_Bend_Energy-OPLS-2005>
143.88525390625

> <r_mmod_Torsional_Energy-OPLS-2005>
362.820739746094

> <r_mmod_Improper_Torsional_Energy-OPLS-2005>
6.58601665496826

> <r_mmod_Van_der_Waal_Energy-OPLS-2005>
133.000015258789

> <r_mmod_Electrostatic_Energy-OPLS-2005>
123.485298156738

> <r_mmod_Solvation_Energy-OPLS-2005>
-1002.86737060547

> <b_mmod_Minimization_Converged-OPLS-2005>
0

> <r_mmod_RMS_Derivative-OPLS-2005>
2.02032780647278

$$$$
96
                    3D
 Structure written by MMmdl.
153161  0  0  1  0            999 V2000
  -30.5198  -15.0284   20.4410 C   0  0  0  0  0  0
  -30.4351  -12.6670   19.5183 C   0  0  0  0  0  0
  -29.5223  -12.5704   18.2751 C   0  0  0  0  0  0
  -28.0549  -12.3267   18.6766 C   0  0  0  0  0  0
  -27.6140  -13.2407   19.8416 C   0  0  2  0  0  0
  -28.6526  -13.3095   20.9876 C   0  0  0  0  0  0
  -25.2259  -13.8160   20.5677 C   0  0  0  0  0  0
  -24.1631  -13.0375   20.9286 C   0  0  0  0  0  0
  -24.6320  -11.6922   20.8865 C   0  0  0  0  0  0
  -23.9038  -10.4295   21.0440 C   0  0  0  0  0  0
  -24.3661   -9.4212   21.9189 C   0  0  0  0  0  0
  -23.6365   -8.2232   22.0717 C   0  0  0  0  0  0
  -22.4332   -8.0261   21.3497 C   0  0  0  0  0  0
  -21.9964   -9.0228   20.4606 C   0  0  0  0  0  0
  -22.7265  -10.2122   20.3042 C   0  0  0  0  0  0
  -21.6858   -6.0773   22.5307 C   0  0  0  0  0  0
  -21.4053   -6.5660   23.8264 C   0  0  0  0  0  0
  -21.3689   -5.6779   24.9214 C   0  0  0  0  0  0
  -21.6044   -4.3045   24.7225 C   0  0  0  0  0  0
  -21.8795   -3.8160   23.4328 C   0  0  0  0  0  0
  -21.9191   -4.6999   22.3407 C   0  0  0  0  0  0
  -22.7645  -13.5147   21.1916 C   0  0  0  0  0  0
  -22.1626   -4.2189   21.0982 F   0  0  0  0  0  0
  -21.5618   -3.4526   25.7720 F   0  0  0  0  0  0
  -29.9082  -13.7683   20.3812 N   0  0  0  0  0  0
  -26.2735  -12.9428   20.3285 N   0  0  0  0  0  0
  -25.9256  -11.6573   20.5879 N   0  0  0  0  0  0
  -22.0329  -12.8220   22.0565 N   0  0  0  0  0  0
  -25.3590  -15.1870   20.4038 N   0  0  0  0  0  0
  -31.7353  -15.0287   20.2059 O   0  0  0  0  0  0
  -21.6620   -6.8909   21.4270 O   0  0  0  0  0  0
  -22.3369  -14.5417   20.6681 O   0  0  0  0  0  0
  -24.6417  -31.8430   23.1874 C   0  0  0  0  0  0
  -25.9200  -32.4677   23.8275 C   0  0  1  0  0  0
  -27.2344  -27.1492   20.1478 C   0  0  0  0  0  0
  -25.5967  -33.8482   24.2182 N   0  0  0  0  0  0
  -23.4465  -30.4601   21.5324 C   0  0  2  0  0  0
  -24.8958  -28.8784   20.1226 C   0  0  0  0  0  0
  -22.7555  -29.4533   22.4839 C   0  0  0  0  0  0
  -18.0316  -28.1380   22.8450 C   0  0  0  0  0  0
  -24.1457  -36.7212   23.2638 C   0  0  0  0  0  0
  -26.0035  -30.7192   21.3866 C   0  0  0  0  0  0
  -26.0770  -29.3302   20.7261 C   0  0  0  0  0  0
  -27.2494  -28.4867   20.7145 C   0  0  0  0  0  0
  -26.0242  -26.7893   19.5201 C   0  0  0  0  0  0
  -24.8792  -27.6137   19.5106 C   0  0  0  0  0  0
  -23.6756  -29.7817   20.1550 C   0  0  0  0  0  0
  -25.4085  -36.3017   24.0317 C   0  0  1  0  0  0
  -20.5928  -28.3717   23.1231 C   0  0  2  0  0  0
  -20.6796  -26.9425   22.5409 C   0  0  0  0  0  0
  -19.5778  -26.6354   21.5215 C   0  0  0  0  0  0
  -18.1946  -26.7908   22.1608 C   0  0  0  0  0  0
  -19.1570  -28.8864   23.2820 C   0  0  0  0  0  0
  -18.9480  -30.1447   23.8859 C   0  0  0  0  0  0
  -17.6487  -30.6593   24.0542 C   0  0  0  0  0  0
  -25.9056  -34.9414   23.5046 C   0  0  0  0  0  0
  -16.5371  -29.9085   23.6355 C   0  0  0  0  0  0
  -16.7306  -28.6505   23.0370 C   0  0  0  0  0  0
  -26.4551  -31.6559   25.0725 C   0  0  0  0  0  0
  -25.3758  -31.3821   26.1451 C   0  0  0  0  0  0
  -27.0432  -30.2950   24.6337 C   0  0  0  0  0  0
  -27.6029  -32.4387   25.7515 C   0  0  0  0  0  0
  -27.5543  -37.1760   24.8474 C   0  0  0  0  0  0
  -21.4256  -29.3056   22.3613 N   0  0  0  0  0  0
  -26.4254  -37.3732   23.9423 N   0  0  0  0  0  0
  -24.7166  -31.0272   22.0899 N   0  0  0  0  0  0
  -23.4184  -28.8077   23.2991 O   0  0  0  0  0  0
  -28.3054  -26.1872   20.1397 O   0  0  0  0  0  0
  -26.5623  -34.8944   22.4634 O   0  0  0  0  0  0
  -23.5559  -32.1305   23.7106 O   0  0  0  0  0  0
  -28.0385  -18.1113   20.4317 C   0  0  0  0  0  0
  -28.4163  -16.6216   20.8173 C   0  0  0  0  0  0
  -30.3357  -17.7361   20.1936 C   0  0  0  0  0  0
  -29.3057  -18.9793   20.5462 C   0  0  1  0  0  0
  -29.3359  -20.5187   19.8143 C   0  0  0  0  0  0
  -28.8033  -23.3099   19.8043 C   0  0  0  0  0  0
  -28.1025  -24.6811   20.5096 C   0  0  0  0  0  0
  -29.8202  -16.3004   20.4804 N   0  0  0  0  0  0
  -28.7111  -21.8434   20.4435 N   0  3  0  0  0  0
  -31.4557  -12.8556   19.1822 H   0  0  0  0  0  0
  -30.4796  -11.7229   20.0656 H   0  0  0  0  0  0
  -29.8798  -11.7724   17.6199 H   0  0  0  0  0  0
  -29.5941  -13.4980   17.7028 H   0  0  0  0  0  0
  -27.9486  -11.2826   18.9657 H   0  0  0  0  0  0
  -27.3943  -12.4873   17.8186 H   0  0  0  0  0  0
  -27.5549  -14.2077   19.3542 H   0  0  0  0  0  0
  -28.7747  -12.3334   21.4673 H   0  0  0  0  0  0
  -28.3271  -13.9912   21.7758 H   0  0  0  0  0  0
  -25.2814   -9.5697   22.4786 H   0  0  0  0  0  0
  -24.0071   -7.4616   22.7433 H   0  0  0  0  0  0
  -21.0876   -8.8751   19.8937 H   0  0  0  0  0  0
  -22.3718  -10.9655   19.6133 H   0  0  0  0  0  0
  -21.2078   -7.6168   23.9818 H   0  0  0  0  0  0
  -21.1517   -6.0484   25.9120 H   0  0  0  0  0  0
  -22.0558   -2.7629   23.2806 H   0  0  0  0  0  0
  -22.3982  -11.9970   22.5075 H   0  0  0  0  0  0
  -21.0916  -13.1212   22.2704 H   0  0  0  0  0  0
  -24.5815  -15.8253   20.5335 H   0  0  0  0  0  0
  -26.1858  -15.6466   20.0518 H   0  0  0  0  0  0
  -26.7236  -32.5256   23.0982 H   0  0  0  0  0  0
  -25.0214  -33.9575   25.0396 H   0  0  0  0  0  0
  -22.7499  -31.2839   21.3710 H   0  0  0  0  0  0
  -23.3754  -35.9513   23.3317 H   0  0  0  0  0  0
  -24.3561  -36.8824   22.2057 H   0  0  0  0  0  0
  -23.7184  -37.6391   23.6684 H   0  0  0  0  0  0
  -26.1696  -31.4787   20.6214 H   0  0  0  0  0  0
  -26.8660  -30.7538   22.0419 H   0  0  0  0  0  0
  -28.1517  -28.8395   21.1935 H   0  0  0  0  0  0
  -25.9549  -25.8248   19.0333 H   0  0  0  0  0  0
  -23.9769  -27.2509   19.0327 H   0  0  0  0  0  0
  -23.8257  -30.5533   19.4001 H   0  0  0  0  0  0
  -22.7909  -29.2286   19.8328 H   0  0  0  0  0  0
  -25.1288  -36.1811   25.0807 H   0  0  0  0  0  0
  -20.9974  -28.3296   24.1364 H   0  0  0  0  0  0
  -20.5664  -26.2332   23.3606 H   0  0  0  0  0  0
  -21.6652  -26.7419   22.1203 H   0  0  0  0  0  0
  -19.6932  -25.6250   21.1265 H   0  0  0  0  0  0
  -19.6699  -27.3141   20.6728 H   0  0  0  0  0  0
  -17.4191  -26.6621   21.4027 H   0  0  0  0  0  0
  -18.0377  -26.0057   22.9038 H   0  0  0  0  0  0
  -19.7971  -30.7268   24.2152 H   0  0  0  0  0  0
  -17.5082  -31.6270   24.5158 H   0  0  0  0  0  0
  -15.5378  -30.3004   23.7705 H   0  0  0  0  0  0
  -15.8689  -28.0844   22.7099 H   0  0  0  0  0  0
  -24.5801  -30.7308   25.7841 H   0  0  0  0  0  0
  -24.9128  -32.3057   26.4943 H   0  0  0  0  0  0
  -25.8046  -30.8932   27.0202 H   0  0  0  0  0  0
  -26.3094  -29.6640   24.1304 H   0  0  0  0  0  0
  -27.4011  -29.7291   25.4952 H   0  0  0  0  0  0
  -27.9034  -30.4218   23.9746 H   0  0  0  0  0  0
  -27.2524  -33.3665   26.2077 H   0  0  0  0  0  0
  -28.3845  -32.6979   25.0359 H   0  0  0  0  0  0
  -28.0702  -31.8539   26.5442 H   0  0  0  0  0  0
  -28.2561  -38.0062   24.7524 H   0  0  0  0  0  0
  -28.1027  -36.2583   24.6287 H   0  0  0  0  0  0
  -27.2279  -37.1401   25.8889 H   0  0  0  0  0  0
  -20.9439  -29.8799   21.6833 H   0  0  0  0  0  0
  -26.0101  -38.2782   24.1495 H   0  0  0  0  0  0
  -27.2193  -18.4972   21.0480 H   0  0  0  0  0  0
  -27.6806  -18.1363   19.3973 H   0  0  0  0  0  0
  -27.7477  -15.9693   20.2891 H   0  0  0  0  0  0
  -28.2669  -16.4596   21.8863 H   0  0  0  0  0  0
  -31.2696  -17.8918   20.7321 H   0  0  0  0  0  0
  -30.5854  -17.7603   19.1305 H   0  0  0  0  0  0
  -29.4318  -19.1795   21.6128 H   0  0  0  0  0  0
  -28.9347  -20.4206   18.8012 H   0  0  0  0  0  0
  -30.3929  -20.7302   19.6537 H   0  0  0  0  0  0
  -29.8643  -23.5204   19.6666 H   0  0  0  0  0  0
  -28.4058  -23.2580   18.7889 H   0  0  0  0  0  0
  -28.4120  -24.6511   21.5562 H   0  0  0  0  0  0
  -27.0266  -24.4983   20.5595 H   0  0  0  0  0  0
  -29.1088  -21.9156   21.3661 H   0  0  0  0  0  0
  -27.7317  -21.6536   20.5787 H   0  0  0  0  0  0
  1 25  1  0  0  0
  1 30  2  0  0  0
  1 78  1  0  0  0
  2  3  1  0  0  0
  2 25  1  0  0  0
  2 80  1  0  0  0
  2 81  1  0  0  0
  3  4  1  0  0  0
  3 82  1  0  0  0
  3 83  1  0  0  0
  4  5  1  0  0  0
  4 84  1  0  0  0
  4 85  1  0  0  0
  5  6  1  0  0  0
  5 26  1  0  0  0
  5 86  1  0  0  0
  6 25  1  0  0  0
  6 87  1  0  0  0
  6 88  1  0  0  0
  7  8  2  0  0  0
  7 26  1  0  0  0
  7 29  1  0  0  0
  8  9  1  0  0  0
  8 22  1  0  0  0
  9 10  1  0  0  0
  9 27  2  0  0  0
 10 11  2  0  0  0
 10 15  1  0  0  0
 11 12  1  0  0  0
 11 89  1  0  0  0
 12 13  2  0  0  0
 12 90  1  0  0  0
 13 14  1  0  0  0
 13 31  1  0  0  0
 14 15  2  0  0  0
 14 91  1  0  0  0
 15 92  1  0  0  0
 16 17  2  0  0  0
 16 21  1  0  0  0
 16 31  1  0  0  0
 17 18  1  0  0  0
 17 93  1  0  0  0
 18 19  2  0  0  0
 18 94  1  0  0  0
 19 20  1  0  0  0
 19 24  1  0  0  0
 20 21  2  0  0  0
 20 95  1  0  0  0
 21 23  1  0  0  0
 22 28  1  0  0  0
 22 32  2  0  0  0
 26 27  1  0  0  0
 28 96  1  0  0  0
 28 97  1  0  0  0
 29 98  1  0  0  0
 29 99  1  0  0  0
 33 34  1  0  0  0
 33 66  1  0  0  0
 33 70  2  0  0  0
 34 36  1  0  0  0
 34 59  1  0  0  0
 34100  1  0  0  0
 35 44  2  0  0  0
 35 45  1  0  0  0
 35 68  1  0  0  0
 36 56  1  0  0  0
 36101  1  0  0  0
 37 39  1  0  0  0
 37 47  1  0  0  0
 37 66  1  0  0  0
 37102  1  0  0  0
 38 43  2  0  0  0
 38 46  1  0  0  0
 38 47  1  0  0  0
 39 64  1  0  0  0
 39 67  2  0  0  0
 40 52  1  0  0  0
 40 53  2  0  0  0
 40 58  1  0  0  0
 41103  1  0  0  0
 41104  1  0  0  0
 41105  1  0  0  0
 41 48  1  0  0  0
 42 43  1  0  0  0
 42 66  1  0  0  0
 42106  1  0  0  0
 42107  1  0  0  0
 43 44  1  0  0  0
 44108  1  0  0  0
 45 46  2  0  0  0
 45109  1  0  0  0
 46110  1  0  0  0
 47111  1  0  0  0
 47112  1  0  0  0
 48 56  1  0  0  0
 48 65  1  0  0  0
 48113  1  0  0  0
 49 50  1  0  0  0
 49 53  1  0  0  0
 49 64  1  0  0  0
 49114  1  0  0  0
 50 51  1  0  0  0
 50115  1  0  0  0
 50116  1  0  0  0
 51 52  1  0  0  0
 51117  1  0  0  0
 51118  1  0  0  0
 52119  1  0  0  0
 52120  1  0  0  0
 53 54  1  0  0  0
 54 55  2  0  0  0
 54121  1  0  0  0
 55 57  1  0  0  0
 55122  1  0  0  0
 56 69  2  0  0  0
 57 58  2  0  0  0
 57123  1  0  0  0
 58124  1  0  0  0
 59 60  1  0  0  0
 59 61  1  0  0  0
 59 62  1  0  0  0
 60125  1  0  0  0
 60126  1  0  0  0
 60127  1  0  0  0
 61128  1  0  0  0
 61129  1  0  0  0
 61130  1  0  0  0
 62131  1  0  0  0
 62132  1  0  0  0
 62133  1  0  0  0
 63 65  1  0  0  0
 63134  1  0  0  0
 63135  1  0  0  0
 63136  1  0  0  0
 64137  1  0  0  0
 65138  1  0  0  0
 68 77  1  0  0  0
 71 72  1  0  0  0
 71 74  1  0  0  0
 71139  1  0  0  0
 71140  1  0  0  0
 72 78  1  0  0  0
 72141  1  0  0  0
 72142  1  0  0  0
 73 74  1  0  0  0
 73 78  1  0  0  0
 73143  1  0  0  0
 73144  1  0  0  0
 74 75  1  0  0  0
 74145  1  0  0  0
 75 79  1  0  0  0
 75146  1  0  0  0
 75147  1  0  0  0
 76 77  1  0  0  0
 76 79  1  0  0  0
 76148  1  0  0  0
 76149  1  0  0  0
 77150  1  0  0  0
 77151  1  0  0  0
 79152  1  0  0  0
 79153  1  0  0  0
M  CHG  1  79   1
M  ISO  4   1 100  68 101  77 101  78 100
M  END
> <chiral flag>
0

> <version>
0

> <s_m_source_file>
/data/baiqing/PycharmProjects/Reinvent-master-3.2/result/LINK_invent/BTK/process_docking_weight1_custom_sum_contain_oxygen_bond_distance_aromatic_linkinvent_7_9_3/rearranged_h_0192.sdf

> <i_m_source_file_index>
97

> <r_mmod_Potential_Energy-OPLS-2005>
631.558288574219

> <r_mmod_Stretch_Energy-OPLS-2005>
274.893585205078

> <r_mmod_Bend_Energy-OPLS-2005>
310.617279052734

> <r_mmod_Torsional_Energy-OPLS-2005>
324.781951904297

> <r_mmod_Improper_Torsional_Energy-OPLS-2005>
6.23082971572876

> <r_mmod_Van_der_Waal_Energy-OPLS-2005>
113.84587097168

> <r_mmod_Electrostatic_Energy-OPLS-2005>
-153.544952392578

> <r_mmod_Solvation_Energy-OPLS-2005>
-460.850799560547

> <b_mmod_Minimization_Converged-OPLS-2005>
0

> <r_mmod_RMS_Derivative-OPLS-2005>
8.09169578552246

$$$$
97
                    3D
 Structure written by MMmdl.
152161  0  0  1  0            999 V2000
  -30.4897  -15.1377   20.3815 C   0  0  0  0  0  0
  -30.4373  -12.7155   19.5010 C   0  0  0  0  0  0
  -29.5263  -12.5609   18.2622 C   0  0  0  0  0  0
  -28.0667  -12.3155   18.6853 C   0  0  0  0  0  0
  -27.6198  -13.2682   19.8240 C   0  0  2  0  0  0
  -28.6642  -13.3849   20.9538 C   0  0  0  0  0  0
  -25.2467  -13.8270   20.5770 C   0  0  0  0  0  0
  -24.1782  -13.0454   20.9240 C   0  0  0  0  0  0
  -24.6432  -11.6947   20.8720 C   0  0  0  0  0  0
  -23.9108  -10.4296   21.0349 C   0  0  0  0  0  0
  -24.3649   -9.4212   21.9141 C   0  0  0  0  0  0
  -23.6313   -8.2246   22.0721 C   0  0  0  0  0  0
  -22.4291   -8.0286   21.3525 C   0  0  0  0  0  0
  -21.9919   -9.0260   20.4624 C   0  0  0  0  0  0
  -22.7260  -10.2129   20.3033 C   0  0  0  0  0  0
  -21.6879   -6.0724   22.5268 C   0  0  0  0  0  0
  -21.4037   -6.5625   23.8206 C   0  0  0  0  0  0
  -21.3667   -5.6781   24.9161 C   0  0  0  0  0  0
  -21.6058   -4.3049   24.7212 C   0  0  0  0  0  0
  -21.8827   -3.8133   23.4334 C   0  0  0  0  0  0
  -21.9201   -4.6950   22.3390 C   0  0  0  0  0  0
  -22.7806  -13.5212   21.1867 C   0  0  0  0  0  0
  -22.1671   -4.2146   21.0966 F   0  0  0  0  0  0
  -21.5621   -3.4530   25.7715 F   0  0  0  0  0  0
  -29.9070  -13.8528   20.3275 N   0  0  0  0  0  0
  -26.2880  -12.9508   20.3229 N   0  0  0  0  0  0
  -25.9370  -11.6623   20.5715 N   0  0  0  0  0  0
  -22.0469  -12.8189   22.0433 N   0  0  0  0  0  0
  -25.4165  -15.2000   20.4310 N   0  0  0  0  0  0
  -31.7084  -15.1482   20.1606 O   0  0  0  0  0  0
  -21.6677   -6.8865   21.4222 O   0  0  0  0  0  0
  -22.3473  -14.5486   20.6693 O   0  0  0  0  0  0
  -24.6595  -31.8307   23.1777 C   0  0  0  0  0  0
  -25.9296  -32.4634   23.8216 C   0  0  1  0  0  0
  -27.2003  -26.9769   20.1781 C   0  0  0  0  0  0
  -25.5998  -33.8452   24.2116 N   0  0  0  0  0  0
  -23.4693  -30.4480   21.5257 C   0  0  2  0  0  0
  -24.9186  -28.8480   20.1140 C   0  0  0  0  0  0
  -22.7654  -29.4486   22.4797 C   0  0  0  0  0  0
  -18.0318  -28.1414   22.8458 C   0  0  0  0  0  0
  -24.1501  -36.7235   23.2640 C   0  0  0  0  0  0
  -26.0375  -30.6524   21.4030 C   0  0  0  0  0  0
  -26.1025  -29.2484   20.7465 C   0  0  0  0  0  0
  -27.2412  -28.3320   20.7565 C   0  0  0  0  0  0
  -25.9927  -26.7281   19.4862 C   0  0  0  0  0  0
  -24.8873  -27.6079   19.4634 C   0  0  0  0  0  0
  -23.7059  -29.7712   20.1495 C   0  0  0  0  0  0
  -25.4139  -36.3004   24.0298 C   0  0  1  0  0  0
  -20.5945  -28.3763   23.1184 C   0  0  2  0  0  0
  -20.6810  -26.9450   22.5393 C   0  0  0  0  0  0
  -19.5784  -26.6381   21.5214 C   0  0  0  0  0  0
  -18.1960  -26.7934   22.1616 C   0  0  0  0  0  0
  -19.1574  -28.8902   23.2820 C   0  0  0  0  0  0
  -18.9493  -30.1485   23.8869 C   0  0  0  0  0  0
  -17.6488  -30.6614   24.0539 C   0  0  0  0  0  0
  -25.9104  -34.9377   23.5030 C   0  0  0  0  0  0
  -16.5375  -29.9103   23.6341 C   0  0  0  0  0  0
  -16.7291  -28.6510   23.0361 C   0  0  0  0  0  0
  -26.4532  -31.6562   25.0729 C   0  0  0  0  0  0
  -25.3654  -31.3836   26.1394 C   0  0  0  0  0  0
  -27.0376  -30.2917   24.6436 C   0  0  0  0  0  0
  -27.6056  -32.4319   25.7517 C   0  0  0  0  0  0
  -27.5575  -37.1782   24.8447 C   0  0  0  0  0  0
  -21.4325  -29.3071   22.3552 N   0  0  0  0  0  0
  -26.4284  -37.3738   23.9397 N   0  0  0  0  0  0
  -24.7430  -31.0022   22.0892 N   0  0  0  0  0  0
  -23.4216  -28.8050   23.3024 O   0  0  0  0  0  0
  -28.1952  -25.8822   20.2322 O   0  0  0  0  0  0
  -26.5703  -34.8886   22.4614 O   0  0  0  0  0  0
  -23.5676  -32.1249   23.6891 O   0  0  0  0  0  0
  -29.9132  -22.5470   19.6705 C   0  0  0  0  0  0
  -28.6819  -22.8474   20.2279 C   0  0  0  0  0  0
  -29.2002  -20.4151   20.2618 C   0  0  0  0  0  0
  -29.7539  -17.5362   19.3946 C   0  0  0  0  0  0
  -29.9128  -17.6147   21.3619 C   0  0  0  0  0  0
  -29.1986  -18.6882   20.3855 C   0  0  0  0  0  0
  -27.0698  -21.1467   21.3272 C   0  0  0  0  0  0
  -27.7958  -24.3111   20.3406 C   0  0  0  0  0  0
  -28.3068  -21.4718   20.6089 N   0  0  0  0  0  0
  -30.1805  -21.1641   19.7144 N   0  3  0  0  0  0
  -29.7311  -16.3943   20.4311 N   0  0  0  0  0  0
  -31.4651  -12.8895   19.1814 H   0  0  0  0  0  0
  -30.4636  -11.7887   20.0776 H   0  0  0  0  0  0
  -29.8748  -11.7503   17.6226 H   0  0  0  0  0  0
  -29.5859  -13.4693   17.6614 H   0  0  0  0  0  0
  -27.9856  -11.2771   19.0160 H   0  0  0  0  0  0
  -27.4053  -12.4104   17.8237 H   0  0  0  0  0  0
  -27.5510  -14.2515   19.3584 H   0  0  0  0  0  0
  -28.8109  -12.4354   21.4717 H   0  0  0  0  0  0
  -28.3391  -14.1072   21.7026 H   0  0  0  0  0  0
  -25.2784   -9.5720   22.4733 H   0  0  0  0  0  0
  -24.0038   -7.4660   22.7442 H   0  0  0  0  0  0
  -21.0852   -8.8777   19.8936 H   0  0  0  0  0  0
  -22.3691  -10.9676   19.6172 H   0  0  0  0  0  0
  -21.2033   -7.6134   23.9708 H   0  0  0  0  0  0
  -21.1496   -6.0499   25.9068 H   0  0  0  0  0  0
  -22.0593   -2.7590   23.2841 H   0  0  0  0  0  0
  -22.4132  -11.9910   22.4877 H   0  0  0  0  0  0
  -21.1069  -13.1166   22.2599 H   0  0  0  0  0  0
  -24.6552  -15.8564   20.5663 H   0  0  0  0  0  0
  -26.2830  -15.6444   20.1520 H   0  0  0  0  0  0
  -26.7360  -32.5172   23.0930 H   0  0  0  0  0  0
  -25.0068  -33.9546   25.0211 H   0  0  0  0  0  0
  -22.7816  -31.2802   21.3594 H   0  0  0  0  0  0
  -23.3779  -35.9552   23.3254 H   0  0  0  0  0  0
  -24.3589  -36.8925   22.2067 H   0  0  0  0  0  0
  -23.7225  -37.6400   23.6710 H   0  0  0  0  0  0
  -26.2137  -31.3958   20.6242 H   0  0  0  0  0  0
  -26.9015  -30.7059   22.0547 H   0  0  0  0  0  0
  -28.1386  -28.6343   21.2787 H   0  0  0  0  0  0
  -25.8619  -25.7974   18.9597 H   0  0  0  0  0  0
  -23.9904  -27.3018   18.9437 H   0  0  0  0  0  0
  -23.8665  -30.5417   19.3945 H   0  0  0  0  0  0
  -22.8153  -29.2273   19.8281 H   0  0  0  0  0  0
  -25.1336  -36.1812   25.0792 H   0  0  0  0  0  0
  -21.0015  -28.3372   24.1313 H   0  0  0  0  0  0
  -20.5713  -26.2391   23.3639 H   0  0  0  0  0  0
  -21.6670  -26.7463   22.1176 H   0  0  0  0  0  0
  -19.6954  -25.6275   21.1301 H   0  0  0  0  0  0
  -19.6719  -27.3151   20.6711 H   0  0  0  0  0  0
  -17.4224  -26.6646   21.4029 H   0  0  0  0  0  0
  -18.0379  -26.0098   22.9040 H   0  0  0  0  0  0
  -19.7974  -30.7303   24.2237 H   0  0  0  0  0  0
  -17.5045  -31.6299   24.5140 H   0  0  0  0  0  0
  -15.5374  -30.2992   23.7708 H   0  0  0  0  0  0
  -15.8675  -28.0820   22.7119 H   0  0  0  0  0  0
  -24.5767  -30.7287   25.7669 H   0  0  0  0  0  0
  -24.8937  -32.3067   26.4784 H   0  0  0  0  0  0
  -25.7867  -30.8964   27.0197 H   0  0  0  0  0  0
  -26.3017  -29.6632   24.1414 H   0  0  0  0  0  0
  -27.3850  -29.7265   25.5090 H   0  0  0  0  0  0
  -27.8995  -30.4071   23.9865 H   0  0  0  0  0  0
  -27.2651  -33.3609   26.2105 H   0  0  0  0  0  0
  -28.3885  -32.6902   25.0369 H   0  0  0  0  0  0
  -28.0711  -31.8434   26.5437 H   0  0  0  0  0  0
  -28.2574  -38.0099   24.7522 H   0  0  0  0  0  0
  -28.1096  -36.2635   24.6237 H   0  0  0  0  0  0
  -27.2296  -37.1375   25.8849 H   0  0  0  0  0  0
  -20.9589  -29.8761   21.6669 H   0  0  0  0  0  0
  -26.0138  -38.2797   24.1419 H   0  0  0  0  0  0
  -30.6246  -23.2247   19.2205 H   0  0  0  0  0  0
  -30.7598  -17.7488   19.0184 H   0  0  0  0  0  0
  -29.0932  -17.3662   18.5444 H   0  0  0  0  0  0
  -29.3879  -17.5134   22.3121 H   0  0  0  0  0  0
  -30.9616  -17.8517   21.5573 H   0  0  0  0  0  0
  -28.1301  -18.4947   20.4811 H   0  0  0  0  0  0
  -26.3138  -21.9083   21.1400 H   0  0  0  0  0  0
  -27.2891  -21.1077   22.3946 H   0  0  0  0  0  0
  -26.6837  -20.1816   21.0009 H   0  0  0  0  0  0
  -27.2762  -24.2510   21.2978 H   0  0  0  0  0  0
  -27.0072  -24.1605   19.6084 H   0  0  0  0  0  0
  -31.0332  -20.7608   19.3471 H   0  0  0  0  0  0
  1 25  1  0  0  0
  1 30  2  0  0  0
  1 81  1  0  0  0
  2  3  1  0  0  0
  2 25  1  0  0  0
  2 82  1  0  0  0
  2 83  1  0  0  0
  3  4  1  0  0  0
  3 84  1  0  0  0
  3 85  1  0  0  0
  4  5  1  0  0  0
  4 86  1  0  0  0
  4 87  1  0  0  0
  5  6  1  0  0  0
  5 26  1  0  0  0
  5 88  1  0  0  0
  6 25  1  0  0  0
  6 89  1  0  0  0
  6 90  1  0  0  0
  7  8  2  0  0  0
  7 26  1  0  0  0
  7 29  1  0  0  0
  8  9  1  0  0  0
  8 22  1  0  0  0
  9 10  1  0  0  0
  9 27  2  0  0  0
 10 11  2  0  0  0
 10 15  1  0  0  0
 11 12  1  0  0  0
 11 91  1  0  0  0
 12 13  2  0  0  0
 12 92  1  0  0  0
 13 14  1  0  0  0
 13 31  1  0  0  0
 14 15  2  0  0  0
 14 93  1  0  0  0
 15 94  1  0  0  0
 16 17  2  0  0  0
 16 21  1  0  0  0
 16 31  1  0  0  0
 17 18  1  0  0  0
 17 95  1  0  0  0
 18 19  2  0  0  0
 18 96  1  0  0  0
 19 20  1  0  0  0
 19 24  1  0  0  0
 20 21  2  0  0  0
 20 97  1  0  0  0
 21 23  1  0  0  0
 22 28  1  0  0  0
 22 32  2  0  0  0
 26 27  1  0  0  0
 28 98  1  0  0  0
 28 99  1  0  0  0
 29100  1  0  0  0
 29101  1  0  0  0
 33 34  1  0  0  0
 33 66  1  0  0  0
 33 70  2  0  0  0
 34 36  1  0  0  0
 34 59  1  0  0  0
 34102  1  0  0  0
 35 44  2  0  0  0
 35 45  1  0  0  0
 35 68  1  0  0  0
 36 56  1  0  0  0
 36103  1  0  0  0
 37 39  1  0  0  0
 37 47  1  0  0  0
 37 66  1  0  0  0
 37104  1  0  0  0
 38 43  2  0  0  0
 38 46  1  0  0  0
 38 47  1  0  0  0
 39 64  1  0  0  0
 39 67  2  0  0  0
 40 52  1  0  0  0
 40 53  2  0  0  0
 40 58  1  0  0  0
 41105  1  0  0  0
 41106  1  0  0  0
 41107  1  0  0  0
 41 48  1  0  0  0
 42 43  1  0  0  0
 42 66  1  0  0  0
 42108  1  0  0  0
 42109  1  0  0  0
 43 44  1  0  0  0
 44110  1  0  0  0
 45 46  2  0  0  0
 45111  1  0  0  0
 46112  1  0  0  0
 47113  1  0  0  0
 47114  1  0  0  0
 48 56  1  0  0  0
 48 65  1  0  0  0
 48115  1  0  0  0
 49 50  1  0  0  0
 49 53  1  0  0  0
 49 64  1  0  0  0
 49116  1  0  0  0
 50 51  1  0  0  0
 50117  1  0  0  0
 50118  1  0  0  0
 51 52  1  0  0  0
 51119  1  0  0  0
 51120  1  0  0  0
 52121  1  0  0  0
 52122  1  0  0  0
 53 54  1  0  0  0
 54 55  2  0  0  0
 54123  1  0  0  0
 55 57  1  0  0  0
 55124  1  0  0  0
 56 69  2  0  0  0
 57 58  2  0  0  0
 57125  1  0  0  0
 58126  1  0  0  0
 59 60  1  0  0  0
 59 61  1  0  0  0
 59 62  1  0  0  0
 60127  1  0  0  0
 60128  1  0  0  0
 60129  1  0  0  0
 61130  1  0  0  0
 61131  1  0  0  0
 61132  1  0  0  0
 62133  1  0  0  0
 62134  1  0  0  0
 62135  1  0  0  0
 63 65  1  0  0  0
 63136  1  0  0  0
 63137  1  0  0  0
 63138  1  0  0  0
 64139  1  0  0  0
 65140  1  0  0  0
 68 78  1  0  0  0
 71 72  2  0  0  0
 71 80  1  0  0  0
 71141  1  0  0  0
 72 78  1  0  0  0
 72 79  1  0  0  0
 73 79  1  0  0  0
 73 80  2  0  0  0
 73 76  1  0  0  0
 74 76  1  0  0  0
 74 81  1  0  0  0
 74142  1  0  0  0
 74143  1  0  0  0
 75 76  1  0  0  0
 75 81  1  0  0  0
 75144  1  0  0  0
 75145  1  0  0  0
 76146  1  0  0  0
 77 79  1  0  0  0
 77147  1  0  0  0
 77148  1  0  0  0
 77149  1  0  0  0
 78150  1  0  0  0
 78151  1  0  0  0
 80152  1  0  0  0
M  CHG  1  80   1
M  ISO  4   1 100  68 101  78 101  81 100
M  END
> <chiral flag>
0

> <version>
0

> <s_m_source_file>
/data/baiqing/PycharmProjects/Reinvent-master-3.2/result/LINK_invent/BTK/process_docking_weight1_custom_sum_contain_oxygen_bond_distance_aromatic_linkinvent_7_9_3/rearranged_h_0192.sdf

> <i_m_source_file_index>
98

> <r_mmod_Potential_Energy-OPLS-2005>
892.870178222656

> <r_mmod_Stretch_Energy-OPLS-2005>
413.216918945312

> <r_mmod_Bend_Energy-OPLS-2005>
345.011596679688

> <r_mmod_Torsional_Energy-OPLS-2005>
288.901000976562

> <r_mmod_Improper_Torsional_Energy-OPLS-2005>
12.7973957061768

> <r_mmod_Van_der_Waal_Energy-OPLS-2005>
108.433174133301

> <r_mmod_Electrostatic_Energy-OPLS-2005>
-202.226013183594

> <r_mmod_Solvation_Energy-OPLS-2005>
-430.764251708984

> <b_mmod_Minimization_Converged-OPLS-2005>
0

> <r_mmod_RMS_Derivative-OPLS-2005>
3.68065929412842

$$$$
