0
                    3D
 Structure written by MMmdl.
183192  0  0  1  0            999 V2000
  -30.7384  -14.4638   20.6689 C   0  0  0  0  0  0
  -30.4325  -12.3389   19.4187 C   0  0  0  0  0  0
  -29.5023  -12.5450   18.2076 C   0  0  0  0  0  0
  -28.0243  -12.3887   18.6179 C   0  0  0  0  0  0
  -27.6744  -13.2047   19.8913 C   0  0  2  0  0  0
  -28.7171  -12.9607   21.0047 C   0  0  0  0  0  0
  -25.2671  -13.8142   20.5697 C   0  0  0  0  0  0
  -24.1897  -13.0417   20.9147 C   0  0  0  0  0  0
  -24.6433  -11.6882   20.8701 C   0  0  0  0  0  0
  -23.9073  -10.4271   21.0363 C   0  0  0  0  0  0
  -24.3632   -9.4198   21.9144 C   0  0  0  0  0  0
  -23.6292   -8.2252   22.0748 C   0  0  0  0  0  0
  -22.4270   -8.0282   21.3547 C   0  0  0  0  0  0
  -21.9904   -9.0239   20.4638 C   0  0  0  0  0  0
  -22.7247  -10.2101   20.3024 C   0  0  0  0  0  0
  -21.6865   -6.0720   22.5261 C   0  0  0  0  0  0
  -21.4009   -6.5613   23.8190 C   0  0  0  0  0  0
  -21.3679   -5.6773   24.9150 C   0  0  0  0  0  0
  -21.6065   -4.3039   24.7227 C   0  0  0  0  0  0
  -21.8820   -3.8131   23.4346 C   0  0  0  0  0  0
  -21.9199   -4.6946   22.3392 C   0  0  0  0  0  0
  -22.7928  -13.5230   21.1784 C   0  0  0  0  0  0
  -22.1663   -4.2126   21.0978 F   0  0  0  0  0  0
  -21.5646   -3.4529   25.7746 F   0  0  0  0  0  0
  -30.0439  -13.3026   20.4658 N   0  0  0  0  0  0
  -26.3119  -12.9299   20.3448 N   0  0  0  0  0  0
  -25.9375  -11.6449   20.5775 N   0  0  0  0  0  0
  -22.0573  -12.8218   22.0348 N   0  0  0  0  0  0
  -25.4410  -15.1851   20.4101 N   0  0  0  0  0  0
  -31.7788  -14.6940   20.0434 O   0  0  0  0  0  0
  -21.6655   -6.8867   21.4225 O   0  0  0  0  0  0
  -22.3622  -14.5529   20.6618 O   0  0  0  0  0  0
  -24.6185  -31.8679   23.2086 C   0  0  0  0  0  0
  -25.9066  -32.4821   23.8382 C   0  0  1  0  0  0
  -27.2263  -27.4009   20.0701 C   0  0  0  0  0  0
  -25.5909  -33.8616   24.2308 N   0  0  0  0  0  0
  -23.4046  -30.4944   21.5530 C   0  0  2  0  0  0
  -24.8462  -28.9672   20.1073 C   0  0  0  0  0  0
  -22.7419  -29.4674   22.4997 C   0  0  0  0  0  0
  -18.0266  -28.1383   22.8489 C   0  0  0  0  0  0
  -24.1481  -36.7307   23.2634 C   0  0  0  0  0  0
  -25.9390  -30.8218   21.3674 C   0  0  0  0  0  0
  -26.0108  -29.4564   20.7075 C   0  0  0  0  0  0
  -27.1978  -28.6783   20.6933 C   0  0  0  0  0  0
  -26.0252  -26.9368   19.4874 C   0  0  0  0  0  0
  -24.8505  -27.7067   19.4965 C   0  0  0  0  0  0
  -23.6095  -29.8348   20.1653 C   0  0  0  0  0  0
  -25.4112  -36.3115   24.0325 C   0  0  1  0  0  0
  -20.5863  -28.3682   23.1304 C   0  0  2  0  0  0
  -20.6765  -26.9416   22.5412 C   0  0  0  0  0  0
  -19.5744  -26.6389   21.5208 C   0  0  0  0  0  0
  -18.1924  -26.7930   22.1616 C   0  0  0  0  0  0
  -19.1522  -28.8843   23.2894 C   0  0  0  0  0  0
  -18.9446  -30.1452   23.8905 C   0  0  0  0  0  0
  -17.6453  -30.6588   24.0564 C   0  0  0  0  0  0
  -25.9050  -34.9472   23.5119 C   0  0  0  0  0  0
  -16.5341  -29.9094   23.6327 C   0  0  0  0  0  0
  -16.7257  -28.6506   23.0349 C   0  0  0  0  0  0
  -26.4473  -31.6591   25.0714 C   0  0  0  0  0  0
  -25.3708  -31.3686   26.1437 C   0  0  0  0  0  0
  -27.0291  -30.3019   24.6106 C   0  0  0  0  0  0
  -27.6048  -32.4298   25.7474 C   0  0  0  0  0  0
  -27.5578  -37.1810   24.8457 C   0  0  0  0  0  0
  -21.4146  -29.3050   22.3717 N   0  0  0  0  0  0
  -26.4296  -37.3805   23.9401 N   0  0  0  0  0  0
  -24.6729  -31.0754   22.1011 N   0  0  0  0  0  0
  -23.4176  -28.8223   23.3051 O   0  0  0  0  0  0
  -28.3941  -26.6410   20.1408 O   0  0  0  0  0  0
  -26.5625  -34.8927   22.4695 O   0  0  0  0  0  0
  -23.5375  -32.1459   23.7463 O   0  0  0  0  0  0
  -29.3178  -17.4564   20.3201 C   0  0  0  0  0  0
  -30.4930  -19.0350   21.0333 C   0  0  0  0  0  0
  -30.4451  -21.6703   21.0109 C   0  0  0  0  0  0
  -29.4320  -23.3906   21.7450 C   0  0  0  0  0  0
  -32.2963  -20.3076   19.9232 C   0  0  0  0  0  0
  -32.1022  -20.4510   22.3868 C   0  0  0  0  0  0
  -28.6503  -23.4684   24.1586 C   0  0  0  0  0  0
  -27.1367  -24.3254   22.3961 C   0  0  0  0  0  0
  -29.1835  -25.5917   23.1265 C   0  0  0  0  0  0
  -31.1124  -24.6566   18.4676 C   0  0  0  0  0  0
  -31.1296  -26.0581   20.4214 C   0  0  0  0  0  0
  -29.0447  -26.5321   17.8872 C   0  0  0  0  0  0
  -27.8961  -24.5001   18.7906 C   0  0  0  0  0  0
  -30.2887  -15.5383   21.7029 C   0  0  0  0  0  0
  -31.2737  -20.3637   21.0833 C   0  0  0  0  0  0
  -28.6199  -24.2008   22.7854 C   0  0  0  0  0  0
  -30.2233  -25.0200   19.7146 C   0  0  0  0  0  0
  -28.8561  -25.6651   19.1616 C   0  0  0  0  0  0
  -29.4626  -18.7747   20.1606 N   0  0  0  0  0  0
  -29.5587  -22.0673   21.9646 N   0  0  0  0  0  0
  -30.9625  -17.9319   21.6499 N   0  0  0  0  0  0
  -30.7430  -22.6480   20.1565 N   0  0  0  0  0  0
  -30.1794  -16.9158   21.1825 N   0  0  0  0  0  0
  -30.0487  -23.7639   20.5714 N   0  0  0  0  0  0
  -31.4746  -12.4431   19.1120 H   0  0  0  0  0  0
  -30.3442  -11.3187   19.7963 H   0  0  0  0  0  0
  -29.7496  -11.8342   17.4193 H   0  0  0  0  0  0
  -29.6706  -13.5380   17.7898 H   0  0  0  0  0  0
  -27.8401  -11.3278   18.7906 H   0  0  0  0  0  0
  -27.3754  -12.6840   17.7936 H   0  0  0  0  0  0
  -27.7264  -14.2604   19.6275 H   0  0  0  0  0  0
  -28.7047  -11.9111   21.3014 H   0  0  0  0  0  0
  -28.4476  -13.4952   21.9105 H   0  0  0  0  0  0
  -25.2787   -9.5662   22.4705 H   0  0  0  0  0  0
  -23.9997   -7.4650   22.7479 H   0  0  0  0  0  0
  -21.0844   -8.8740   19.8943 H   0  0  0  0  0  0
  -22.3706  -10.9622   19.6130 H   0  0  0  0  0  0
  -21.1960   -7.6118   23.9675 H   0  0  0  0  0  0
  -21.1519   -6.0508   25.9049 H   0  0  0  0  0  0
  -22.0583   -2.7597   23.2863 H   0  0  0  0  0  0
  -22.4245  -11.9900   22.4727 H   0  0  0  0  0  0
  -21.1178  -13.1213   22.2530 H   0  0  0  0  0  0
  -24.6750  -15.8413   20.5117 H   0  0  0  0  0  0
  -26.2903  -15.6201   20.0757 H   0  0  0  0  0  0
  -26.7135  -32.5510   23.1136 H   0  0  0  0  0  0
  -25.0005  -33.9791   25.0415 H   0  0  0  0  0  0
  -22.6943  -31.3133   21.4195 H   0  0  0  0  0  0
  -23.3755  -35.9631   23.3315 H   0  0  0  0  0  0
  -24.3561  -36.8923   22.2045 H   0  0  0  0  0  0
  -23.7229  -37.6506   23.6657 H   0  0  0  0  0  0
  -26.0548  -31.5908   20.6020 H   0  0  0  0  0  0
  -26.8251  -30.8712   21.9875 H   0  0  0  0  0  0
  -28.0930  -29.0496   21.1705 H   0  0  0  0  0  0
  -25.9265  -25.9638   19.0528 H   0  0  0  0  0  0
  -23.9509  -27.3163   19.0404 H   0  0  0  0  0  0
  -23.7067  -30.6127   19.4069 H   0  0  0  0  0  0
  -22.7315  -29.2538   19.8765 H   0  0  0  0  0  0
  -25.1300  -36.1970   25.0822 H   0  0  0  0  0  0
  -20.9940  -28.3248   24.1423 H   0  0  0  0  0  0
  -20.5662  -26.2294   23.3608 H   0  0  0  0  0  0
  -21.6642  -26.7460   22.1204 H   0  0  0  0  0  0
  -19.6913  -25.6297   21.1240 H   0  0  0  0  0  0
  -19.6684  -27.3194   20.6736 H   0  0  0  0  0  0
  -17.4195  -26.6673   21.4014 H   0  0  0  0  0  0
  -18.0320  -26.0068   22.9009 H   0  0  0  0  0  0
  -19.7929  -30.7266   24.2271 H   0  0  0  0  0  0
  -17.5010  -31.6273   24.5161 H   0  0  0  0  0  0
  -15.5345  -30.3001   23.7651 H   0  0  0  0  0  0
  -15.8656  -28.0837   22.7060 H   0  0  0  0  0  0
  -24.5896  -30.7041   25.7731 H   0  0  0  0  0  0
  -24.8883  -32.2834   26.4885 H   0  0  0  0  0  0
  -25.8033  -30.8825   27.0193 H   0  0  0  0  0  0
  -26.2847  -29.6789   24.1138 H   0  0  0  0  0  0
  -27.4019  -29.7245   25.4580 H   0  0  0  0  0  0
  -27.8702  -30.4319   23.9291 H   0  0  0  0  0  0
  -27.2683  -33.3586   26.2091 H   0  0  0  0  0  0
  -28.3833  -32.6879   25.0279 H   0  0  0  0  0  0
  -28.0748  -31.8391   26.5351 H   0  0  0  0  0  0
  -28.2609  -38.0096   24.7522 H   0  0  0  0  0  0
  -28.1070  -36.2635   24.6280 H   0  0  0  0  0  0
  -27.2294  -37.1450   25.8859 H   0  0  0  0  0  0
  -20.9307  -29.8757   21.6929 H   0  0  0  0  0  0
  -26.0182  -38.2884   24.1416 H   0  0  0  0  0  0
  -28.5665  -16.8726   19.8026 H   0  0  0  0  0  0
  -31.7944  -20.3015   18.9566 H   0  0  0  0  0  0
  -32.9085  -19.4071   19.9832 H   0  0  0  0  0  0
  -32.9756  -21.1601   19.9409 H   0  0  0  0  0  0
  -31.4591  -20.4133   23.2655 H   0  0  0  0  0  0
  -32.6690  -21.3817   22.4295 H   0  0  0  0  0  0
  -32.8170  -19.6327   22.4725 H   0  0  0  0  0  0
  -28.2016  -22.4753   24.1070 H   0  0  0  0  0  0
  -28.0952  -24.0095   24.9276 H   0  0  0  0  0  0
  -29.6718  -23.3522   24.5226 H   0  0  0  0  0  0
  -26.7002  -23.3523   22.1677 H   0  0  0  0  0  0
  -26.9924  -24.9756   21.5403 H   0  0  0  0  0  0
  -26.5521  -24.7633   23.2051 H   0  0  0  0  0  0
  -30.2591  -25.5605   23.3051 H   0  0  0  0  0  0
  -28.7251  -26.0006   24.0270 H   0  0  0  0  0  0
  -28.9564  -26.3256   22.3664 H   0  0  0  0  0  0
  -31.3769  -25.5200   17.8596 H   0  0  0  0  0  0
  -30.6300  -23.9347   17.8080 H   0  0  0  0  0  0
  -32.0772  -24.2391   18.7584 H   0  0  0  0  0  0
  -31.3684  -26.8869   19.7541 H   0  0  0  0  0  0
  -32.0758  -25.6091   20.7223 H   0  0  0  0  0  0
  -30.7051  -26.5184   21.2994 H   0  0  0  0  0  0
  -29.3512  -25.9432   17.0231 H   0  0  0  0  0  0
  -29.7796  -27.3212   18.0438 H   0  0  0  0  0  0
  -28.1179  -27.0180   17.5845 H   0  0  0  0  0  0
  -28.4438  -23.6804   18.3291 H   0  0  0  0  0  0
  -27.1655  -24.7670   18.0286 H   0  0  0  0  0  0
  -27.3764  -24.0717   19.6421 H   0  0  0  0  0  0
  -29.3434  -15.3093   22.1822 H   0  0  0  0  0  0
  -31.0256  -15.5385   22.5083 H   0  0  0  0  0  0
  1 25  1  0  0  0
  1 30  2  0  0  0
  1 84  1  0  0  0
  2  3  1  0  0  0
  2 25  1  0  0  0
  2 95  1  0  0  0
  2 96  1  0  0  0
  3  4  1  0  0  0
  3 97  1  0  0  0
  3 98  1  0  0  0
  4  5  1  0  0  0
  4 99  1  0  0  0
  4100  1  0  0  0
  5  6  1  0  0  0
  5 26  1  0  0  0
  5101  1  0  0  0
  6 25  1  0  0  0
  6102  1  0  0  0
  6103  1  0  0  0
  7  8  2  0  0  0
  7 26  1  0  0  0
  7 29  1  0  0  0
  8  9  1  0  0  0
  8 22  1  0  0  0
  9 10  1  0  0  0
  9 27  2  0  0  0
 10 11  2  0  0  0
 10 15  1  0  0  0
 11 12  1  0  0  0
 11104  1  0  0  0
 12 13  2  0  0  0
 12105  1  0  0  0
 13 14  1  0  0  0
 13 31  1  0  0  0
 14 15  2  0  0  0
 14106  1  0  0  0
 15107  1  0  0  0
 16 17  2  0  0  0
 16 21  1  0  0  0
 16 31  1  0  0  0
 17 18  1  0  0  0
 17108  1  0  0  0
 18 19  2  0  0  0
 18109  1  0  0  0
 19 20  1  0  0  0
 19 24  1  0  0  0
 20 21  2  0  0  0
 20110  1  0  0  0
 21 23  1  0  0  0
 22 28  1  0  0  0
 22 32  2  0  0  0
 26 27  1  0  0  0
 28111  1  0  0  0
 28112  1  0  0  0
 29113  1  0  0  0
 29114  1  0  0  0
 33 34  1  0  0  0
 33 66  1  0  0  0
 33 70  2  0  0  0
 34 36  1  0  0  0
 34 59  1  0  0  0
 34115  1  0  0  0
 35 44  2  0  0  0
 35 45  1  0  0  0
 35 68  1  0  0  0
 36 56  1  0  0  0
 36116  1  0  0  0
 37 39  1  0  0  0
 37 47  1  0  0  0
 37 66  1  0  0  0
 37117  1  0  0  0
 38 43  2  0  0  0
 38 46  1  0  0  0
 38 47  1  0  0  0
 39 64  1  0  0  0
 39 67  2  0  0  0
 40 52  1  0  0  0
 40 53  2  0  0  0
 40 58  1  0  0  0
 41118  1  0  0  0
 41119  1  0  0  0
 41120  1  0  0  0
 41 48  1  0  0  0
 42 43  1  0  0  0
 42 66  1  0  0  0
 42121  1  0  0  0
 42122  1  0  0  0
 43 44  1  0  0  0
 44123  1  0  0  0
 45 46  2  0  0  0
 45124  1  0  0  0
 46125  1  0  0  0
 47126  1  0  0  0
 47127  1  0  0  0
 48 56  1  0  0  0
 48 65  1  0  0  0
 48128  1  0  0  0
 49 50  1  0  0  0
 49 53  1  0  0  0
 49 64  1  0  0  0
 49129  1  0  0  0
 50 51  1  0  0  0
 50130  1  0  0  0
 50131  1  0  0  0
 51 52  1  0  0  0
 51132  1  0  0  0
 51133  1  0  0  0
 52134  1  0  0  0
 52135  1  0  0  0
 53 54  1  0  0  0
 54 55  2  0  0  0
 54136  1  0  0  0
 55 57  1  0  0  0
 55137  1  0  0  0
 56 69  2  0  0  0
 57 58  2  0  0  0
 57138  1  0  0  0
 58139  1  0  0  0
 59 60  1  0  0  0
 59 61  1  0  0  0
 59 62  1  0  0  0
 60140  1  0  0  0
 60141  1  0  0  0
 60142  1  0  0  0
 61143  1  0  0  0
 61144  1  0  0  0
 61145  1  0  0  0
 62146  1  0  0  0
 62147  1  0  0  0
 62148  1  0  0  0
 63 65  1  0  0  0
 63149  1  0  0  0
 63150  1  0  0  0
 63151  1  0  0  0
 64152  1  0  0  0
 65153  1  0  0  0
 68 88  1  0  0  0
 71 89  2  0  0  0
 71 93  1  0  0  0
 71154  1  0  0  0
 72 85  1  0  0  0
 72 89  1  0  0  0
 72 91  2  0  0  0
 73 85  1  0  0  0
 73 90  1  0  0  0
 73 92  2  0  0  0
 74 86  1  0  0  0
 74 90  2  0  0  0
 74 94  1  0  0  0
 75155  1  0  0  0
 75156  1  0  0  0
 75157  1  0  0  0
 75 85  1  0  0  0
 76 85  1  0  0  0
 76158  1  0  0  0
 76159  1  0  0  0
 76160  1  0  0  0
 77161  1  0  0  0
 77162  1  0  0  0
 77163  1  0  0  0
 77 86  1  0  0  0
 78 86  1  0  0  0
 78164  1  0  0  0
 78165  1  0  0  0
 78166  1  0  0  0
 79 86  1  0  0  0
 79167  1  0  0  0
 79168  1  0  0  0
 79169  1  0  0  0
 80170  1  0  0  0
 80171  1  0  0  0
 80172  1  0  0  0
 80 87  1  0  0  0
 81 87  1  0  0  0
 81173  1  0  0  0
 81174  1  0  0  0
 81175  1  0  0  0
 82176  1  0  0  0
 82177  1  0  0  0
 82178  1  0  0  0
 82 88  1  0  0  0
 83 88  1  0  0  0
 83179  1  0  0  0
 83180  1  0  0  0
 83181  1  0  0  0
 84 93  1  0  0  0
 84182  1  0  0  0
 84183  1  0  0  0
 87 88  1  0  0  0
 87 94  1  0  0  0
 91 93  1  0  0  0
 92 94  1  0  0  0
M  ISO  4   1 100  68 101  84 100  88 101
M  END
> <chiral flag>
0

> <version>
0

> <s_m_source_file>
/data/baiqing/PycharmProjects/Reinvent-master-3.2/result/LINK_invent/BTK/process_docking_weight1_custom_sum_contain_oxygen_bond_distance_aromatic_linkinvent_7_9_3/rearranged_h_0063.sdf

> <i_m_source_file_index>
1

> <r_mmod_Potential_Energy-OPLS-2005>
230.815200805664

> <r_mmod_Stretch_Energy-OPLS-2005>
83.0517578125

> <r_mmod_Bend_Energy-OPLS-2005>
218.116714477539

> <r_mmod_Torsional_Energy-OPLS-2005>
222.699722290039

> <r_mmod_Improper_Torsional_Energy-OPLS-2005>
5.85994482040405

> <r_mmod_Van_der_Waal_Energy-OPLS-2005>
164.778671264648

> <r_mmod_Electrostatic_Energy-OPLS-2005>
-269.080444335938

> <r_mmod_Solvation_Energy-OPLS-2005>
-209.775787353516

> <b_mmod_Minimization_Converged-OPLS-2005>
0

> <r_mmod_RMS_Derivative-OPLS-2005>
2.99243426322937

$$$$
1
                    3D
 Structure written by MMmdl.
166174  0  0  1  0            999 V2000
  -30.6878  -14.6347   20.4914 C   0  0  0  0  0  0
  -30.4193  -12.3986   19.4685 C   0  0  0  0  0  0
  -29.5060  -12.4918   18.2297 C   0  0  0  0  0  0
  -28.0316  -12.3307   18.6421 C   0  0  0  0  0  0
  -27.6443  -13.2230   19.8514 C   0  0  2  0  0  0
  -28.6866  -13.1541   20.9888 C   0  0  0  0  0  0
  -25.2533  -13.8175   20.5661 C   0  0  0  0  0  0
  -24.1824  -13.0425   20.9172 C   0  0  0  0  0  0
  -24.6382  -11.6904   20.8715 C   0  0  0  0  0  0
  -23.9048  -10.4284   21.0381 C   0  0  0  0  0  0
  -24.3608   -9.4208   21.9161 C   0  0  0  0  0  0
  -23.6283   -8.2249   22.0752 C   0  0  0  0  0  0
  -22.4269   -8.0290   21.3543 C   0  0  0  0  0  0
  -21.9893   -9.0264   20.4647 C   0  0  0  0  0  0
  -22.7215  -10.2136   20.3043 C   0  0  0  0  0  0
  -21.6867   -6.0736   22.5275 C   0  0  0  0  0  0
  -21.4036   -6.5647   23.8205 C   0  0  0  0  0  0
  -21.3653   -5.6794   24.9169 C   0  0  0  0  0  0
  -21.6024   -4.3053   24.7217 C   0  0  0  0  0  0
  -21.8825   -3.8156   23.4341 C   0  0  0  0  0  0
  -21.9200   -4.6966   22.3399 C   0  0  0  0  0  0
  -22.7849  -13.5229   21.1829 C   0  0  0  0  0  0
  -22.1668   -4.2139   21.0976 F   0  0  0  0  0  0
  -21.5604   -3.4544   25.7734 F   0  0  0  0  0  0
  -29.9963  -13.4577   20.4059 N   0  0  0  0  0  0
  -26.2946  -12.9355   20.3255 N   0  0  0  0  0  0
  -25.9307  -11.6512   20.5732 N   0  0  0  0  0  0
  -22.0511  -12.8240   22.0401 N   0  0  0  0  0  0
  -25.4221  -15.1907   20.4071 N   0  0  0  0  0  0
  -31.8947  -14.6564   20.2592 O   0  0  0  0  0  0
  -21.6659   -6.8885   21.4237 O   0  0  0  0  0  0
  -22.3537  -14.5538   20.6680 O   0  0  0  0  0  0
  -24.6222  -31.8617   23.2024 C   0  0  0  0  0  0
  -25.9083  -32.4779   23.8368 C   0  0  1  0  0  0
  -27.2139  -27.3341   20.1139 C   0  0  0  0  0  0
  -25.5902  -33.8580   24.2306 N   0  0  0  0  0  0
  -23.4146  -30.4895   21.5449 C   0  0  2  0  0  0
  -24.8578  -28.9512   20.1052 C   0  0  0  0  0  0
  -22.7464  -29.4647   22.4925 C   0  0  0  0  0  0
  -18.0304  -28.1360   22.8487 C   0  0  0  0  0  0
  -24.1501  -36.7316   23.2653 C   0  0  0  0  0  0
  -25.9539  -30.8017   21.3697 C   0  0  0  0  0  0
  -26.0231  -29.4290   20.7141 C   0  0  0  0  0  0
  -27.2014  -28.6300   20.7131 C   0  0  0  0  0  0
  -26.0164  -26.8925   19.5066 C   0  0  0  0  0  0
  -24.8552  -27.6851   19.4994 C   0  0  0  0  0  0
  -23.6271  -29.8323   20.1547 C   0  0  0  0  0  0
  -25.4105  -36.3084   24.0364 C   0  0  1  0  0  0
  -20.5906  -28.3680   23.1280 C   0  0  2  0  0  0
  -20.6791  -26.9400   22.5412 C   0  0  0  0  0  0
  -19.5764  -26.6372   21.5205 C   0  0  0  0  0  0
  -18.1945  -26.7903   22.1631 C   0  0  0  0  0  0
  -19.1558  -28.8826   23.2882 C   0  0  0  0  0  0
  -18.9484  -30.1424   23.8904 C   0  0  0  0  0  0
  -17.6487  -30.6555   24.0554 C   0  0  0  0  0  0
  -25.9045  -34.9457   23.5139 C   0  0  0  0  0  0
  -16.5374  -29.9067   23.6297 C   0  0  0  0  0  0
  -16.7301  -28.6477   23.0337 C   0  0  0  0  0  0
  -26.4454  -31.6559   25.0718 C   0  0  0  0  0  0
  -25.3698  -31.3712   26.1461 C   0  0  0  0  0  0
  -27.0289  -30.2989   24.6138 C   0  0  0  0  0  0
  -27.6045  -32.4253   25.7479 C   0  0  0  0  0  0
  -27.5575  -37.1798   24.8462 C   0  0  0  0  0  0
  -21.4185  -29.3034   22.3664 N   0  0  0  0  0  0
  -26.4275  -37.3764   23.9418 N   0  0  0  0  0  0
  -24.6831  -31.0668   22.0966 N   0  0  0  0  0  0
  -23.4202  -28.8176   23.2985 O   0  0  0  0  0  0
  -28.3579  -26.5306   20.1876 O   0  0  0  0  0  0
  -26.5629  -34.8905   22.4719 O   0  0  0  0  0  0
  -23.5393  -32.1434   23.7360 O   0  0  0  0  0  0
  -28.4244  -20.1648   19.9800 C   0  0  0  0  0  0
  -30.5123  -20.7252   20.8855 C   0  0  0  0  0  0
  -29.3704  -21.2015   20.1986 C   0  0  0  0  0  0
  -29.9180  -18.4992   20.5843 C   0  0  0  0  0  0
  -30.7640  -23.0539   19.1708 C   0  0  0  0  0  0
  -28.5926  -22.4542   18.1405 C   0  0  0  0  0  0
  -29.5008  -16.6956   17.7400 C   0  0  0  0  0  0
  -31.2877  -18.4776   17.9613 C   0  0  0  0  0  0
  -28.6155  -23.8637   20.2727 C   0  0  0  0  0  0
  -28.4890  -25.2502   19.4757 C   0  0  0  0  0  0
  -30.5334  -17.1318   20.0890 C   0  0  2  0  0  0
  -29.3069  -22.6322   19.5017 C   0  0  0  0  0  0
  -30.7511  -17.1444   18.5248 C   0  0  0  0  0  0
  -28.6980  -18.8426   20.1699 N   0  0  0  0  0  0
  -30.7814  -19.4056   21.0496 N   0  0  0  0  0  0
  -29.9810  -15.8076   20.5574 N   0  0  0  0  0  0
  -31.6980  -16.2711   18.1882 F   0  0  0  0  0  0
  -31.4642  -12.4939   19.1700 H   0  0  0  0  0  0
  -30.3321  -11.4205   19.9419 H   0  0  0  0  0  0
  -29.7752  -11.7307   17.4958 H   0  0  0  0  0  0
  -29.6489  -13.4536   17.7339 H   0  0  0  0  0  0
  -27.8790  -11.2796   18.8887 H   0  0  0  0  0  0
  -27.3781  -12.5429   17.7965 H   0  0  0  0  0  0
  -27.6435  -14.2447   19.4750 H   0  0  0  0  0  0
  -28.6946  -12.1665   21.4514 H   0  0  0  0  0  0
  -28.4364  -13.8636   21.7789 H   0  0  0  0  0  0
  -25.2759   -9.5696   22.4727 H   0  0  0  0  0  0
  -23.9986   -7.4656   22.7480 H   0  0  0  0  0  0
  -21.0820   -8.8782   19.8971 H   0  0  0  0  0  0
  -22.3663  -10.9675   19.6164 H   0  0  0  0  0  0
  -21.2074   -7.6161   23.9707 H   0  0  0  0  0  0
  -21.1442   -6.0532   25.9056 H   0  0  0  0  0  0
  -22.0610   -2.7613   23.2857 H   0  0  0  0  0  0
  -22.4161  -11.9913   22.4778 H   0  0  0  0  0  0
  -21.1121  -13.1257   22.2586 H   0  0  0  0  0  0
  -24.6498  -15.8404   20.5115 H   0  0  0  0  0  0
  -26.2672  -15.6329   20.0695 H   0  0  0  0  0  0
  -26.7176  -32.5437   23.1144 H   0  0  0  0  0  0
  -24.9968  -33.9746   25.0393 H   0  0  0  0  0  0
  -22.7062  -31.3099   21.4067 H   0  0  0  0  0  0
  -23.3740  -35.9660   23.3289 H   0  0  0  0  0  0
  -24.3612  -36.8938   22.2065 H   0  0  0  0  0  0
  -23.7272  -37.6537   23.6666 H   0  0  0  0  0  0
  -26.0853  -31.5676   20.6023 H   0  0  0  0  0  0
  -26.8350  -30.8450   21.9983 H   0  0  0  0  0  0
  -28.0958  -28.9940   21.2014 H   0  0  0  0  0  0
  -25.9236  -25.9155   19.0629 H   0  0  0  0  0  0
  -23.9530  -27.3093   19.0372 H   0  0  0  0  0  0
  -23.7481  -30.6180   19.4068 H   0  0  0  0  0  0
  -22.7421  -29.2736   19.8443 H   0  0  0  0  0  0
  -25.1259  -36.1946   25.0847 H   0  0  0  0  0  0
  -21.0011  -28.3246   24.1402 H   0  0  0  0  0  0
  -20.5677  -26.2281   23.3602 H   0  0  0  0  0  0
  -21.6659  -26.7409   22.1209 H   0  0  0  0  0  0
  -19.6925  -25.6287   21.1203 H   0  0  0  0  0  0
  -19.6691  -27.3200   20.6733 H   0  0  0  0  0  0
  -17.4211  -26.6649   21.4036 H   0  0  0  0  0  0
  -18.0372  -26.0031   22.9019 H   0  0  0  0  0  0
  -19.7967  -30.7225   24.2278 H   0  0  0  0  0  0
  -17.5049  -31.6238   24.5173 H   0  0  0  0  0  0
  -15.5380  -30.2981   23.7587 H   0  0  0  0  0  0
  -15.8708  -28.0790   22.7052 H   0  0  0  0  0  0
  -24.5886  -30.7028   25.7823 H   0  0  0  0  0  0
  -24.8871  -32.2886   26.4843 H   0  0  0  0  0  0
  -25.8037  -30.8944   27.0263 H   0  0  0  0  0  0
  -26.2874  -29.6754   24.1130 H   0  0  0  0  0  0
  -27.3993  -29.7200   25.4611 H   0  0  0  0  0  0
  -27.8729  -30.4300   23.9360 H   0  0  0  0  0  0
  -27.2701  -33.3563   26.2065 H   0  0  0  0  0  0
  -28.3852  -32.6769   25.0291 H   0  0  0  0  0  0
  -28.0703  -31.8344   26.5374 H   0  0  0  0  0  0
  -28.2566  -38.0112   24.7471 H   0  0  0  0  0  0
  -28.1080  -36.2636   24.6282 H   0  0  0  0  0  0
  -27.2311  -37.1449   25.8870 H   0  0  0  0  0  0
  -20.9332  -29.8792   21.6933 H   0  0  0  0  0  0
  -26.0170  -38.2845   24.1378 H   0  0  0  0  0  0
  -27.4825  -20.3689   19.4963 H   0  0  0  0  0  0
  -31.3122  -21.3893   21.1779 H   0  0  0  0  0  0
  -31.3157  -22.2613   18.6625 H   0  0  0  0  0  0
  -31.3191  -23.3219   20.0695 H   0  0  0  0  0  0
  -30.8267  -23.9114   18.5018 H   0  0  0  0  0  0
  -28.9966  -21.6021   17.5916 H   0  0  0  0  0  0
  -28.7208  -23.3216   17.4936 H   0  0  0  0  0  0
  -27.5174  -22.2961   18.2511 H   0  0  0  0  0  0
  -28.6667  -17.3804   17.8850 H   0  0  0  0  0  0
  -29.1632  -15.7078   18.0439 H   0  0  0  0  0  0
  -29.7043  -16.6499   16.6707 H   0  0  0  0  0  0
  -30.5446  -19.2740   17.9920 H   0  0  0  0  0  0
  -31.5914  -18.3651   16.9204 H   0  0  0  0  0  0
  -32.1599  -18.8180   18.5214 H   0  0  0  0  0  0
  -27.6111  -23.5768   20.5888 H   0  0  0  0  0  0
  -29.1635  -24.0522   21.1967 H   0  0  0  0  0  0
  -29.4061  -25.4101   18.9185 H   0  0  0  0  0  0
  -27.7564  -25.1332   18.6823 H   0  0  0  0  0  0
  -31.5370  -17.1587   20.5178 H   0  0  0  0  0  0
  -28.9885  -15.7786   20.7252 H   0  0  0  0  0  0
  1 25  1  0  0  0
  1 30  2  0  0  0
  1 86  1  0  0  0
  2  3  1  0  0  0
  2 25  1  0  0  0
  2 88  1  0  0  0
  2 89  1  0  0  0
  3  4  1  0  0  0
  3 90  1  0  0  0
  3 91  1  0  0  0
  4  5  1  0  0  0
  4 92  1  0  0  0
  4 93  1  0  0  0
  5  6  1  0  0  0
  5 26  1  0  0  0
  5 94  1  0  0  0
  6 25  1  0  0  0
  6 95  1  0  0  0
  6 96  1  0  0  0
  7  8  2  0  0  0
  7 26  1  0  0  0
  7 29  1  0  0  0
  8  9  1  0  0  0
  8 22  1  0  0  0
  9 10  1  0  0  0
  9 27  2  0  0  0
 10 11  2  0  0  0
 10 15  1  0  0  0
 11 12  1  0  0  0
 11 97  1  0  0  0
 12 13  2  0  0  0
 12 98  1  0  0  0
 13 14  1  0  0  0
 13 31  1  0  0  0
 14 15  2  0  0  0
 14 99  1  0  0  0
 15100  1  0  0  0
 16 17  2  0  0  0
 16 21  1  0  0  0
 16 31  1  0  0  0
 17 18  1  0  0  0
 17101  1  0  0  0
 18 19  2  0  0  0
 18102  1  0  0  0
 19 20  1  0  0  0
 19 24  1  0  0  0
 20 21  2  0  0  0
 20103  1  0  0  0
 21 23  1  0  0  0
 22 28  1  0  0  0
 22 32  2  0  0  0
 26 27  1  0  0  0
 28104  1  0  0  0
 28105  1  0  0  0
 29106  1  0  0  0
 29107  1  0  0  0
 33 34  1  0  0  0
 33 66  1  0  0  0
 33 70  2  0  0  0
 34 36  1  0  0  0
 34 59  1  0  0  0
 34108  1  0  0  0
 35 44  2  0  0  0
 35 45  1  0  0  0
 35 68  1  0  0  0
 36 56  1  0  0  0
 36109  1  0  0  0
 37 39  1  0  0  0
 37 47  1  0  0  0
 37 66  1  0  0  0
 37110  1  0  0  0
 38 43  2  0  0  0
 38 46  1  0  0  0
 38 47  1  0  0  0
 39 64  1  0  0  0
 39 67  2  0  0  0
 40 52  1  0  0  0
 40 53  2  0  0  0
 40 58  1  0  0  0
 41111  1  0  0  0
 41112  1  0  0  0
 41113  1  0  0  0
 41 48  1  0  0  0
 42 43  1  0  0  0
 42 66  1  0  0  0
 42114  1  0  0  0
 42115  1  0  0  0
 43 44  1  0  0  0
 44116  1  0  0  0
 45 46  2  0  0  0
 45117  1  0  0  0
 46118  1  0  0  0
 47119  1  0  0  0
 47120  1  0  0  0
 48 56  1  0  0  0
 48 65  1  0  0  0
 48121  1  0  0  0
 49 50  1  0  0  0
 49 53  1  0  0  0
 49 64  1  0  0  0
 49122  1  0  0  0
 50 51  1  0  0  0
 50123  1  0  0  0
 50124  1  0  0  0
 51 52  1  0  0  0
 51125  1  0  0  0
 51126  1  0  0  0
 52127  1  0  0  0
 52128  1  0  0  0
 53 54  1  0  0  0
 54 55  2  0  0  0
 54129  1  0  0  0
 55 57  1  0  0  0
 55130  1  0  0  0
 56 69  2  0  0  0
 57 58  2  0  0  0
 57131  1  0  0  0
 58132  1  0  0  0
 59 60  1  0  0  0
 59 61  1  0  0  0
 59 62  1  0  0  0
 60133  1  0  0  0
 60134  1  0  0  0
 60135  1  0  0  0
 61136  1  0  0  0
 61137  1  0  0  0
 61138  1  0  0  0
 62139  1  0  0  0
 62140  1  0  0  0
 62141  1  0  0  0
 63 65  1  0  0  0
 63142  1  0  0  0
 63143  1  0  0  0
 63144  1  0  0  0
 64145  1  0  0  0
 65146  1  0  0  0
 68 80  1  0  0  0
 71 73  2  0  0  0
 71 84  1  0  0  0
 71147  1  0  0  0
 72 73  1  0  0  0
 72 85  2  0  0  0
 72148  1  0  0  0
 73 82  1  0  0  0
 74 81  1  0  0  0
 74 84  2  0  0  0
 74 85  1  0  0  0
 75149  1  0  0  0
 75150  1  0  0  0
 75151  1  0  0  0
 75 82  1  0  0  0
 76 82  1  0  0  0
 76152  1  0  0  0
 76153  1  0  0  0
 76154  1  0  0  0
 77155  1  0  0  0
 77156  1  0  0  0
 77157  1  0  0  0
 77 83  1  0  0  0
 78 83  1  0  0  0
 78158  1  0  0  0
 78159  1  0  0  0
 78160  1  0  0  0
 79 80  1  0  0  0
 79 82  1  0  0  0
 79161  1  0  0  0
 79162  1  0  0  0
 80163  1  0  0  0
 80164  1  0  0  0
 81 83  1  0  0  0
 81 86  1  0  0  0
 81165  1  0  0  0
 83 87  1  0  0  0
 86166  1  0  0  0
M  ISO  4   1 100  68 101  80 101  86 100
M  END
> <chiral flag>
0

> <version>
0

> <s_m_source_file>
/data/baiqing/PycharmProjects/Reinvent-master-3.2/result/LINK_invent/BTK/process_docking_weight1_custom_sum_contain_oxygen_bond_distance_aromatic_linkinvent_7_9_3/rearranged_h_0063.sdf

> <i_m_source_file_index>
2

> <r_mmod_Potential_Energy-OPLS-2005>
-310.677703857422

> <r_mmod_Stretch_Energy-OPLS-2005>
84.2474975585938

> <r_mmod_Bend_Energy-OPLS-2005>
167.060028076172

> <r_mmod_Torsional_Energy-OPLS-2005>
249.466201782227

> <r_mmod_Improper_Torsional_Energy-OPLS-2005>
13.3343439102173

> <r_mmod_Van_der_Waal_Energy-OPLS-2005>
167.610656738281

> <r_mmod_Electrostatic_Energy-OPLS-2005>
-830.307983398438

> <r_mmod_Solvation_Energy-OPLS-2005>
-214.876800537109

> <b_mmod_Minimization_Converged-OPLS-2005>
0

> <r_mmod_RMS_Derivative-OPLS-2005>
4.11069011688232

$$$$
2
                    3D
 Structure written by MMmdl.
163171  0  0  1  0            999 V2000
  -30.6719  -14.5623   20.5625 C   0  0  0  0  0  0
  -30.4252  -12.3612   19.4388 C   0  0  0  0  0  0
  -29.4991  -12.5056   18.2126 C   0  0  0  0  0  0
  -28.0220  -12.3516   18.6266 C   0  0  0  0  0  0
  -27.6524  -13.2170   19.8619 C   0  0  2  0  0  0
  -28.6918  -13.0502   20.9910 C   0  0  0  0  0  0
  -25.2540  -13.8187   20.5684 C   0  0  0  0  0  0
  -24.1805  -13.0448   20.9202 C   0  0  0  0  0  0
  -24.6382  -11.6920   20.8741 C   0  0  0  0  0  0
  -23.9068  -10.4290   21.0406 C   0  0  0  0  0  0
  -24.3627   -9.4206   21.9179 C   0  0  0  0  0  0
  -23.6300   -8.2239   22.0745 C   0  0  0  0  0  0
  -22.4273   -8.0276   21.3543 C   0  0  0  0  0  0
  -21.9915   -9.0246   20.4639 C   0  0  0  0  0  0
  -22.7244  -10.2126   20.3053 C   0  0  0  0  0  0
  -21.6848   -6.0738   22.5287 C   0  0  0  0  0  0
  -21.4008   -6.5637   23.8223 C   0  0  0  0  0  0
  -21.3661   -5.6788   24.9186 C   0  0  0  0  0  0
  -21.6057   -4.3052   24.7231 C   0  0  0  0  0  0
  -21.8819   -3.8144   23.4349 C   0  0  0  0  0  0
  -21.9186   -4.6967   22.3406 C   0  0  0  0  0  0
  -22.7827  -13.5230   21.1874 C   0  0  0  0  0  0
  -22.1640   -4.2156   21.0981 F   0  0  0  0  0  0
  -21.5649   -3.4534   25.7745 F   0  0  0  0  0  0
  -30.0139  -13.3713   20.4334 N   0  0  0  0  0  0
  -26.2969  -12.9375   20.3303 N   0  0  0  0  0  0
  -25.9303  -11.6522   20.5733 N   0  0  0  0  0  0
  -22.0458  -12.8222   22.0440 N   0  0  0  0  0  0
  -25.4256  -15.1900   20.4131 N   0  0  0  0  0  0
  -31.7879  -14.7470   20.0731 O   0  0  0  0  0  0
  -21.6628   -6.8881   21.4246 O   0  0  0  0  0  0
  -22.3501  -14.5510   20.6690 O   0  0  0  0  0  0
  -24.6222  -31.8616   23.2031 C   0  0  0  0  0  0
  -25.9093  -32.4779   23.8344 C   0  0  1  0  0  0
  -27.2266  -27.3554   20.1071 C   0  0  0  0  0  0
  -25.5920  -33.8580   24.2275 N   0  0  0  0  0  0
  -23.4123  -30.4844   21.5438 C   0  0  2  0  0  0
  -24.8557  -28.9371   20.1101 C   0  0  0  0  0  0
  -22.7443  -29.4641   22.4948 C   0  0  0  0  0  0
  -18.0287  -28.1383   22.8494 C   0  0  0  0  0  0
  -24.1488  -36.7304   23.2638 C   0  0  0  0  0  0
  -25.9472  -30.8026   21.3655 C   0  0  0  0  0  0
  -26.0197  -29.4314   20.7105 C   0  0  0  0  0  0
  -27.2056  -28.6506   20.6988 C   0  0  0  0  0  0
  -26.0393  -26.8906   19.4995 C   0  0  0  0  0  0
  -24.8650  -27.6709   19.4990 C   0  0  0  0  0  0
  -23.6229  -29.8146   20.1595 C   0  0  0  0  0  0
  -25.4112  -36.3084   24.0324 C   0  0  1  0  0  0
  -20.5881  -28.3684   23.1298 C   0  0  2  0  0  0
  -20.6768  -26.9412   22.5413 C   0  0  0  0  0  0
  -19.5745  -26.6388   21.5212 C   0  0  0  0  0  0
  -18.1926  -26.7927   22.1623 C   0  0  0  0  0  0
  -19.1533  -28.8849   23.2892 C   0  0  0  0  0  0
  -18.9458  -30.1454   23.8905 C   0  0  0  0  0  0
  -17.6454  -30.6584   24.0569 C   0  0  0  0  0  0
  -25.9050  -34.9452   23.5101 C   0  0  0  0  0  0
  -16.5352  -29.9086   23.6326 C   0  0  0  0  0  0
  -16.7269  -28.6504   23.0348 C   0  0  0  0  0  0
  -26.4493  -31.6586   25.0710 C   0  0  0  0  0  0
  -25.3739  -31.3714   26.1449 C   0  0  0  0  0  0
  -27.0322  -30.3007   24.6144 C   0  0  0  0  0  0
  -27.6054  -32.4323   25.7483 C   0  0  0  0  0  0
  -27.5577  -37.1807   24.8462 C   0  0  0  0  0  0
  -21.4160  -29.3041   22.3685 N   0  0  0  0  0  0
  -26.4291  -37.3779   23.9406 N   0  0  0  0  0  0
  -24.6795  -31.0666   22.0948 N   0  0  0  0  0  0
  -23.4189  -28.8196   23.3019 O   0  0  0  0  0  0
  -28.3902  -26.5910   20.1537 O   0  0  0  0  0  0
  -26.5622  -34.8922   22.4669 O   0  0  0  0  0  0
  -23.5405  -32.1392   23.7403 O   0  0  0  0  0  0
  -28.7970  -21.6703   19.7846 C   0  0  0  0  0  0
  -27.3008  -19.0194   21.3483 C   0  0  0  0  0  0
  -29.9352  -17.9368   22.8488 C   0  0  0  0  0  0
  -31.1920  -18.5764   20.8045 C   0  0  0  0  0  0
  -28.7612  -22.7533   20.8622 C   0  0  0  0  0  0
  -27.9104  -24.0756   20.6365 C   0  0  0  0  0  0
  -29.3986  -16.7854   20.6444 C   0  0  0  0  0  0
  -28.4592  -25.2038   19.6878 C   0  0  0  0  0  0
  -28.7754  -19.4170   21.1488 C   0  0  2  0  0  0
  -29.7954  -18.1761   21.3215 C   0  0  0  0  0  0
  -28.8780  -21.9582   18.4872 N   0  0  0  0  0  0
  -28.9380  -20.7322   17.8620 N   0  0  0  0  0  0
  -28.9172  -19.7587   18.7219 N   0  0  0  0  0  0
  -28.8802  -20.3113   19.9638 N   0  0  0  0  0  0
  -30.0387  -15.5617   21.2272 N   0  0  0  0  0  0
  -31.4689  -12.4730   19.1400 H   0  0  0  0  0  0
  -30.3444  -11.3588   19.8639 H   0  0  0  0  0  0
  -29.7530  -11.7604   17.4568 H   0  0  0  0  0  0
  -29.6542  -13.4812   17.7487 H   0  0  0  0  0  0
  -27.8514  -11.2982   18.8524 H   0  0  0  0  0  0
  -27.3672  -12.5899   17.7876 H   0  0  0  0  0  0
  -27.6807  -14.2565   19.5344 H   0  0  0  0  0  0
  -28.6870  -12.0253   21.3639 H   0  0  0  0  0  0
  -28.4362  -13.6791   21.8452 H   0  0  0  0  0  0
  -25.2777   -9.5679   22.4758 H   0  0  0  0  0  0
  -24.0017   -7.4622   22.7450 H   0  0  0  0  0  0
  -21.0849   -8.8770   19.8935 H   0  0  0  0  0  0
  -22.3706  -10.9667   19.6164 H   0  0  0  0  0  0
  -21.1988   -7.6143   23.9735 H   0  0  0  0  0  0
  -21.1489   -6.0511   25.9094 H   0  0  0  0  0  0
  -22.0599   -2.7607   23.2848 H   0  0  0  0  0  0
  -22.4050  -11.9901   22.4873 H   0  0  0  0  0  0
  -21.1057  -13.1224   22.2587 H   0  0  0  0  0  0
  -24.6686  -15.8532   20.5395 H   0  0  0  0  0  0
  -26.2912  -15.6233   20.1205 H   0  0  0  0  0  0
  -26.7162  -32.5446   23.1099 H   0  0  0  0  0  0
  -25.0058  -33.9722   25.0412 H   0  0  0  0  0  0
  -22.7048  -31.3047   21.4026 H   0  0  0  0  0  0
  -23.3741  -35.9647   23.3303 H   0  0  0  0  0  0
  -24.3581  -36.8921   22.2052 H   0  0  0  0  0  0
  -23.7254  -37.6512   23.6660 H   0  0  0  0  0  0
  -26.0740  -31.5677   20.5987 H   0  0  0  0  0  0
  -26.8300  -30.8514   21.9905 H   0  0  0  0  0  0
  -28.1050  -29.0318   21.1623 H   0  0  0  0  0  0
  -25.9956  -25.9185   19.0318 H   0  0  0  0  0  0
  -23.9687  -27.2853   19.0331 H   0  0  0  0  0  0
  -23.7404  -30.5898   19.4012 H   0  0  0  0  0  0
  -22.7421  -29.2438   19.8607 H   0  0  0  0  0  0
  -25.1298  -36.1933   25.0817 H   0  0  0  0  0  0
  -20.9980  -28.3255   24.1416 H   0  0  0  0  0  0
  -20.5661  -26.2300   23.3610 H   0  0  0  0  0  0
  -21.6637  -26.7436   22.1211 H   0  0  0  0  0  0
  -19.6898  -25.6301   21.1236 H   0  0  0  0  0  0
  -19.6671  -27.3203   20.6745 H   0  0  0  0  0  0
  -17.4195  -26.6691   21.4022 H   0  0  0  0  0  0
  -18.0319  -26.0064   22.9011 H   0  0  0  0  0  0
  -19.7932  -30.7271   24.2268 H   0  0  0  0  0  0
  -17.5010  -31.6260   24.5177 H   0  0  0  0  0  0
  -15.5350  -30.2988   23.7636 H   0  0  0  0  0  0
  -15.8677  -28.0821   22.7054 H   0  0  0  0  0  0
  -24.5920  -30.7058   25.7784 H   0  0  0  0  0  0
  -24.8933  -32.2878   26.4885 H   0  0  0  0  0  0
  -25.8085  -30.8889   27.0212 H   0  0  0  0  0  0
  -26.2873  -29.6769   24.1189 H   0  0  0  0  0  0
  -27.4039  -29.7260   25.4638 H   0  0  0  0  0  0
  -27.8740  -30.4291   23.9335 H   0  0  0  0  0  0
  -27.2656  -33.3613   26.2077 H   0  0  0  0  0  0
  -28.3859  -32.6902   25.0312 H   0  0  0  0  0  0
  -28.0733  -31.8440   26.5386 H   0  0  0  0  0  0
  -28.2601  -38.0098   24.7510 H   0  0  0  0  0  0
  -28.1066  -36.2631   24.6286 H   0  0  0  0  0  0
  -27.2297  -37.1461   25.8866 H   0  0  0  0  0  0
  -20.9330  -29.8770   21.6907 H   0  0  0  0  0  0
  -26.0167  -38.2853   24.1406 H   0  0  0  0  0  0
  -27.1526  -18.4535   22.2667 H   0  0  0  0  0  0
  -26.9316  -18.4175   20.5177 H   0  0  0  0  0  0
  -26.6665  -19.9035   21.4085 H   0  0  0  0  0  0
  -30.1925  -18.8523   23.3826 H   0  0  0  0  0  0
  -30.7192  -17.2211   23.0935 H   0  0  0  0  0  0
  -29.0076  -17.5615   23.2811 H   0  0  0  0  0  0
  -31.5141  -19.5287   21.2280 H   0  0  0  0  0  0
  -31.2108  -18.6777   19.7205 H   0  0  0  0  0  0
  -31.9469  -17.8338   21.0622 H   0  0  0  0  0  0
  -29.7923  -23.0222   21.0902 H   0  0  0  0  0  0
  -28.3818  -22.2836   21.7689 H   0  0  0  0  0  0
  -27.8181  -24.5381   21.6191 H   0  0  0  0  0  0
  -26.8884  -23.8183   20.3540 H   0  0  0  0  0  0
  -28.3298  -16.6180   20.7633 H   0  0  0  0  0  0
  -29.5699  -16.8237   19.5670 H   0  0  0  0  0  0
  -28.0309  -25.1055   18.6899 H   0  0  0  0  0  0
  -29.5218  -25.0112   19.5399 H   0  0  0  0  0  0
  -29.0031  -20.0864   21.9761 H   0  0  0  0  0  0
  -30.5643  -15.8135   22.0514 H   0  0  0  0  0  0
  1 25  1  0  0  0
  1 30  2  0  0  0
  1 85  1  0  0  0
  2  3  1  0  0  0
  2 25  1  0  0  0
  2 86  1  0  0  0
  2 87  1  0  0  0
  3  4  1  0  0  0
  3 88  1  0  0  0
  3 89  1  0  0  0
  4  5  1  0  0  0
  4 90  1  0  0  0
  4 91  1  0  0  0
  5  6  1  0  0  0
  5 26  1  0  0  0
  5 92  1  0  0  0
  6 25  1  0  0  0
  6 93  1  0  0  0
  6 94  1  0  0  0
  7  8  2  0  0  0
  7 26  1  0  0  0
  7 29  1  0  0  0
  8  9  1  0  0  0
  8 22  1  0  0  0
  9 10  1  0  0  0
  9 27  2  0  0  0
 10 11  2  0  0  0
 10 15  1  0  0  0
 11 12  1  0  0  0
 11 95  1  0  0  0
 12 13  2  0  0  0
 12 96  1  0  0  0
 13 14  1  0  0  0
 13 31  1  0  0  0
 14 15  2  0  0  0
 14 97  1  0  0  0
 15 98  1  0  0  0
 16 17  2  0  0  0
 16 21  1  0  0  0
 16 31  1  0  0  0
 17 18  1  0  0  0
 17 99  1  0  0  0
 18 19  2  0  0  0
 18100  1  0  0  0
 19 20  1  0  0  0
 19 24  1  0  0  0
 20 21  2  0  0  0
 20101  1  0  0  0
 21 23  1  0  0  0
 22 28  1  0  0  0
 22 32  2  0  0  0
 26 27  1  0  0  0
 28102  1  0  0  0
 28103  1  0  0  0
 29104  1  0  0  0
 29105  1  0  0  0
 33 34  1  0  0  0
 33 66  1  0  0  0
 33 70  2  0  0  0
 34 36  1  0  0  0
 34 59  1  0  0  0
 34106  1  0  0  0
 35 44  2  0  0  0
 35 45  1  0  0  0
 35 68  1  0  0  0
 36 56  1  0  0  0
 36107  1  0  0  0
 37 39  1  0  0  0
 37 47  1  0  0  0
 37 66  1  0  0  0
 37108  1  0  0  0
 38 43  2  0  0  0
 38 46  1  0  0  0
 38 47  1  0  0  0
 39 64  1  0  0  0
 39 67  2  0  0  0
 40 52  1  0  0  0
 40 53  2  0  0  0
 40 58  1  0  0  0
 41109  1  0  0  0
 41110  1  0  0  0
 41111  1  0  0  0
 41 48  1  0  0  0
 42 43  1  0  0  0
 42 66  1  0  0  0
 42112  1  0  0  0
 42113  1  0  0  0
 43 44  1  0  0  0
 44114  1  0  0  0
 45 46  2  0  0  0
 45115  1  0  0  0
 46116  1  0  0  0
 47117  1  0  0  0
 47118  1  0  0  0
 48 56  1  0  0  0
 48 65  1  0  0  0
 48119  1  0  0  0
 49 50  1  0  0  0
 49 53  1  0  0  0
 49 64  1  0  0  0
 49120  1  0  0  0
 50 51  1  0  0  0
 50121  1  0  0  0
 50122  1  0  0  0
 51 52  1  0  0  0
 51123  1  0  0  0
 51124  1  0  0  0
 52125  1  0  0  0
 52126  1  0  0  0
 53 54  1  0  0  0
 54 55  2  0  0  0
 54127  1  0  0  0
 55 57  1  0  0  0
 55128  1  0  0  0
 56 69  2  0  0  0
 57 58  2  0  0  0
 57129  1  0  0  0
 58130  1  0  0  0
 59 60  1  0  0  0
 59 61  1  0  0  0
 59 62  1  0  0  0
 60131  1  0  0  0
 60132  1  0  0  0
 60133  1  0  0  0
 61134  1  0  0  0
 61135  1  0  0  0
 61136  1  0  0  0
 62137  1  0  0  0
 62138  1  0  0  0
 62139  1  0  0  0
 63 65  1  0  0  0
 63140  1  0  0  0
 63141  1  0  0  0
 63142  1  0  0  0
 64143  1  0  0  0
 65144  1  0  0  0
 68 78  1  0  0  0
 71 75  1  0  0  0
 71 81  2  0  0  0
 71 84  1  0  0  0
 72145  1  0  0  0
 72146  1  0  0  0
 72147  1  0  0  0
 72 79  1  0  0  0
 73148  1  0  0  0
 73149  1  0  0  0
 73150  1  0  0  0
 73 80  1  0  0  0
 74 80  1  0  0  0
 74151  1  0  0  0
 74152  1  0  0  0
 74153  1  0  0  0
 75 76  1  0  0  0
 75154  1  0  0  0
 75155  1  0  0  0
 76 78  1  0  0  0
 76156  1  0  0  0
 76157  1  0  0  0
 77 80  1  0  0  0
 77 85  1  0  0  0
 77158  1  0  0  0
 77159  1  0  0  0
 78160  1  0  0  0
 78161  1  0  0  0
 79 80  1  0  0  0
 79 84  1  0  0  0
 79162  1  0  0  0
 81 82  1  0  0  0
 82 83  2  0  0  0
 83 84  1  0  0  0
 85163  1  0  0  0
M  ISO  4   1 100  68 101  78 101  85 100
M  END
> <chiral flag>
0

> <version>
0

> <s_m_source_file>
/data/baiqing/PycharmProjects/Reinvent-master-3.2/result/LINK_invent/BTK/process_docking_weight1_custom_sum_contain_oxygen_bond_distance_aromatic_linkinvent_7_9_3/rearranged_h_0063.sdf

> <i_m_source_file_index>
3

> <r_mmod_Potential_Energy-OPLS-2005>
61.2052612304688

> <r_mmod_Stretch_Energy-OPLS-2005>
69.9388198852539

> <r_mmod_Bend_Energy-OPLS-2005>
173.737350463867

> <r_mmod_Torsional_Energy-OPLS-2005>
310.891632080078

> <r_mmod_Improper_Torsional_Energy-OPLS-2005>
6.45554161071777

> <r_mmod_Van_der_Waal_Energy-OPLS-2005>
114.838851928711

> <r_mmod_Electrostatic_Energy-OPLS-2005>
-416.293823242188

> <r_mmod_Solvation_Energy-OPLS-2005>
-226.943481445312

> <b_mmod_Minimization_Converged-OPLS-2005>
0

> <r_mmod_RMS_Derivative-OPLS-2005>
1.77488827705383

$$$$
4
                    3D
 Structure written by MMmdl.
168176  0  0  1  0            999 V2000
  -30.5669  -14.9608   20.4095 C   0  0  0  0  0  0
  -30.4325  -12.5830   19.5242 C   0  0  0  0  0  0
  -29.5323  -12.5380   18.2680 C   0  0  0  0  0  0
  -28.0604  -12.3318   18.6706 C   0  0  0  0  0  0
  -27.6310  -13.2610   19.8363 C   0  0  2  0  0  0
  -28.6658  -13.3098   20.9797 C   0  0  0  0  0  0
  -25.2463  -13.8245   20.5708 C   0  0  0  0  0  0
  -24.1794  -13.0440   20.9211 C   0  0  0  0  0  0
  -24.6419  -11.6929   20.8715 C   0  0  0  0  0  0
  -23.9104  -10.4296   21.0383 C   0  0  0  0  0  0
  -24.3639   -9.4226   21.9176 C   0  0  0  0  0  0
  -23.6309   -8.2263   22.0765 C   0  0  0  0  0  0
  -22.4288   -8.0295   21.3557 C   0  0  0  0  0  0
  -21.9925   -9.0266   20.4657 C   0  0  0  0  0  0
  -22.7262  -10.2143   20.3054 C   0  0  0  0  0  0
  -21.6861   -6.0741   22.5274 C   0  0  0  0  0  0
  -21.4015   -6.5640   23.8203 C   0  0  0  0  0  0
  -21.3660   -5.6789   24.9164 C   0  0  0  0  0  0
  -21.6048   -4.3051   24.7217 C   0  0  0  0  0  0
  -21.8817   -3.8149   23.4331 C   0  0  0  0  0  0
  -21.9188   -4.6969   22.3392 C   0  0  0  0  0  0
  -22.7813  -13.5205   21.1850 C   0  0  0  0  0  0
  -22.1657   -4.2150   21.0972 F   0  0  0  0  0  0
  -21.5631   -3.4533   25.7736 F   0  0  0  0  0  0
  -29.9521  -13.7030   20.3938 N   0  0  0  0  0  0
  -26.2899  -12.9506   20.3215 N   0  0  0  0  0  0
  -25.9356  -11.6616   20.5696 N   0  0  0  0  0  0
  -22.0460  -12.8217   22.0413 N   0  0  0  0  0  0
  -25.4125  -15.1976   20.4176 N   0  0  0  0  0  0
  -31.7622  -14.9663   20.0807 O   0  0  0  0  0  0
  -21.6650   -6.8891   21.4246 O   0  0  0  0  0  0
  -22.3493  -14.5498   20.6681 O   0  0  0  0  0  0
  -24.6481  -31.8416   23.1846 C   0  0  0  0  0  0
  -25.9230  -32.4677   23.8258 C   0  0  1  0  0  0
  -27.2040  -27.0880   20.1582 C   0  0  0  0  0  0
  -25.5954  -33.8484   24.2158 N   0  0  0  0  0  0
  -23.4518  -30.4611   21.5315 C   0  0  2  0  0  0
  -24.8978  -28.8780   20.1106 C   0  0  0  0  0  0
  -22.7590  -29.4539   22.4840 C   0  0  0  0  0  0
  -18.0312  -28.1418   22.8494 C   0  0  0  0  0  0
  -24.1476  -36.7228   23.2641 C   0  0  0  0  0  0
  -26.0116  -30.6976   21.3906 C   0  0  0  0  0  0
  -26.0777  -29.3048   20.7327 C   0  0  0  0  0  0
  -27.2322  -28.4277   20.7360 C   0  0  0  0  0  0
  -25.9980  -26.7759   19.4930 C   0  0  0  0  0  0
  -24.8728  -27.6288   19.4744 C   0  0  0  0  0  0
  -23.6802  -29.7908   20.1505 C   0  0  0  0  0  0
  -25.4117  -36.3016   24.0308 C   0  0  1  0  0  0
  -20.5931  -28.3740   23.1231 C   0  0  2  0  0  0
  -20.6787  -26.9436   22.5408 C   0  0  0  0  0  0
  -19.5754  -26.6402   21.5218 C   0  0  0  0  0  0
  -18.1941  -26.7960   22.1634 C   0  0  0  0  0  0
  -19.1573  -28.8898   23.2853 C   0  0  0  0  0  0
  -18.9488  -30.1495   23.8874 C   0  0  0  0  0  0
  -17.6489  -30.6610   24.0578 C   0  0  0  0  0  0
  -25.9095  -34.9395   23.5048 C   0  0  0  0  0  0
  -16.5377  -29.9111   23.6347 C   0  0  0  0  0  0
  -16.7298  -28.6528   23.0372 C   0  0  0  0  0  0
  -26.4530  -31.6579   25.0724 C   0  0  0  0  0  0
  -25.3696  -31.3790   26.1408 C   0  0  0  0  0  0
  -27.0395  -30.2965   24.6335 C   0  0  0  0  0  0
  -27.6041  -32.4363   25.7515 C   0  0  0  0  0  0
  -27.5564  -37.1773   24.8462 C   0  0  0  0  0  0
  -21.4277  -29.3062   22.3596 N   0  0  0  0  0  0
  -26.4261  -37.3745   23.9427 N   0  0  0  0  0  0
  -24.7238  -31.0233   22.0901 N   0  0  0  0  0  0
  -23.4218  -28.8090   23.3010 O   0  0  0  0  0  0
  -28.2500  -26.0827   20.1953 O   0  0  0  0  0  0
  -26.5681  -34.8905   22.4631 O   0  0  0  0  0  0
  -23.5592  -32.1303   23.7057 O   0  0  0  0  0  0
  -29.2663  -18.2004   21.6707 C   0  0  0  0  0  0
  -29.8745  -16.4155   20.6416 C   0  0  0  0  0  0
  -31.4905  -20.3679   18.9158 C   0  0  0  0  0  0
  -26.9582  -20.8550   18.2360 C   0  0  0  0  0  0
  -26.5542  -19.2123   20.1044 C   0  0  0  0  0  0
  -29.4220  -23.4043   18.5578 C   0  0  0  0  0  0
  -30.3132  -23.7198   20.8358 C   0  0  0  0  0  0
  -30.0198  -20.1723   18.5134 C   0  0  0  0  0  0
  -28.8783  -21.5699   20.5157 C   0  0  0  0  0  0
  -27.9771  -24.5303   20.3319 C   0  0  0  0  0  0
  -27.5925  -19.7317   19.0799 C   0  0  0  0  0  0
  -29.0704  -23.2484   20.0492 C   0  0  0  0  0  0
  -29.0118  -20.0451   19.6940 C   0  0  1  0  0  0
  -29.5411  -16.8863   21.8961 N   0  0  0  0  0  0
  -29.8202  -17.4564   19.7305 N   0  0  0  0  0  0
  -29.4123  -18.6569   20.4107 N   0  0  0  0  0  0
  -31.4762  -12.6997   19.2291 H   0  0  0  0  0  0
  -30.3902  -11.6321   20.0591 H   0  0  0  0  0  0
  -29.8556  -11.7420   17.5960 H   0  0  0  0  0  0
  -29.6359  -13.4697   17.7091 H   0  0  0  0  0  0
  -27.9424  -11.2896   18.9680 H   0  0  0  0  0  0
  -27.4092  -12.4801   17.8097 H   0  0  0  0  0  0
  -27.5879  -14.2633   19.4068 H   0  0  0  0  0  0
  -28.7430  -12.3474   21.4868 H   0  0  0  0  0  0
  -28.3645  -14.0334   21.7386 H   0  0  0  0  0  0
  -25.2788   -9.5709   22.4737 H   0  0  0  0  0  0
  -24.0021   -7.4658   22.7485 H   0  0  0  0  0  0
  -21.0855   -8.8793   19.8956 H   0  0  0  0  0  0
  -22.3726  -10.9678   19.6152 H   0  0  0  0  0  0
  -21.2020   -7.6146   23.9713 H   0  0  0  0  0  0
  -21.1479   -6.0514   25.9069 H   0  0  0  0  0  0
  -22.0596   -2.7609   23.2821 H   0  0  0  0  0  0
  -22.4078  -11.9882   22.4817 H   0  0  0  0  0  0
  -21.1066  -13.1253   22.2574 H   0  0  0  0  0  0
  -24.6445  -15.8482   20.5385 H   0  0  0  0  0  0
  -26.2671  -15.6456   20.1134 H   0  0  0  0  0  0
  -26.7294  -32.5246   23.0984 H   0  0  0  0  0  0
  -25.0066  -33.9602   25.0276 H   0  0  0  0  0  0
  -22.7547  -31.2877   21.3764 H   0  0  0  0  0  0
  -23.3758  -35.9535   23.3278 H   0  0  0  0  0  0
  -24.3571  -36.8901   22.2065 H   0  0  0  0  0  0
  -23.7205  -37.6397   23.6713 H   0  0  0  0  0  0
  -26.1762  -31.4464   20.6156 H   0  0  0  0  0  0
  -26.8791  -30.7468   22.0375 H   0  0  0  0  0  0
  -28.1318  -28.7515   21.2402 H   0  0  0  0  0  0
  -25.8908  -25.8304   18.9847 H   0  0  0  0  0  0
  -23.9750  -27.3007   18.9690 H   0  0  0  0  0  0
  -23.8265  -30.5643   19.3953 H   0  0  0  0  0  0
  -22.7909  -29.2418   19.8366 H   0  0  0  0  0  0
  -25.1310  -36.1826   25.0794 H   0  0  0  0  0  0
  -21.0025  -28.3326   24.1354 H   0  0  0  0  0  0
  -20.5685  -26.2351   23.3632 H   0  0  0  0  0  0
  -21.6648  -26.7457   22.1202 H   0  0  0  0  0  0
  -19.6904  -25.6306   21.1260 H   0  0  0  0  0  0
  -19.6683  -27.3198   20.6733 H   0  0  0  0  0  0
  -17.4213  -26.6728   21.4024 H   0  0  0  0  0  0
  -18.0325  -26.0109   22.9038 H   0  0  0  0  0  0
  -19.7965  -30.7323   24.2207 H   0  0  0  0  0  0
  -17.5049  -31.6280   24.5202 H   0  0  0  0  0  0
  -15.5379  -30.3015   23.7676 H   0  0  0  0  0  0
  -15.8697  -28.0845   22.7094 H   0  0  0  0  0  0
  -24.5851  -30.7164   25.7729 H   0  0  0  0  0  0
  -24.8895  -32.2976   26.4792 H   0  0  0  0  0  0
  -25.7952  -30.8983   27.0223 H   0  0  0  0  0  0
  -26.3016  -29.6692   24.1306 H   0  0  0  0  0  0
  -27.3954  -29.7278   25.4940 H   0  0  0  0  0  0
  -27.8960  -30.4199   23.9698 H   0  0  0  0  0  0
  -27.2618  -33.3697   26.2007 H   0  0  0  0  0  0
  -28.3893  -32.6881   25.0370 H   0  0  0  0  0  0
  -28.0656  -31.8541   26.5508 H   0  0  0  0  0  0
  -28.2562  -38.0096   24.7558 H   0  0  0  0  0  0
  -28.1083  -36.2626   24.6226 H   0  0  0  0  0  0
  -27.2298  -37.1356   25.8870 H   0  0  0  0  0  0
  -20.9480  -29.8774   21.6774 H   0  0  0  0  0  0
  -26.0110  -38.2793   24.1478 H   0  0  0  0  0  0
  -28.9120  -18.8539   22.4572 H   0  0  0  0  0  0
  -32.1092  -20.4906   18.0276 H   0  0  0  0  0  0
  -31.8792  -19.5126   19.4682 H   0  0  0  0  0  0
  -31.6284  -21.2515   19.5332 H   0  0  0  0  0  0
  -25.9873  -20.5434   17.8508 H   0  0  0  0  0  0
  -27.5601  -21.0982   17.3623 H   0  0  0  0  0  0
  -26.7928  -21.7659   18.8099 H   0  0  0  0  0  0
  -25.5754  -19.0802   19.6414 H   0  0  0  0  0  0
  -26.4276  -19.8863   20.9501 H   0  0  0  0  0  0
  -26.8214  -18.2324   20.4972 H   0  0  0  0  0  0
  -30.3676  -22.9298   18.3034 H   0  0  0  0  0  0
  -29.5426  -24.4568   18.2972 H   0  0  0  0  0  0
  -28.6395  -23.0207   17.9074 H   0  0  0  0  0  0
  -31.1832  -23.0915   20.6542 H   0  0  0  0  0  0
  -30.1267  -23.7164   21.9103 H   0  0  0  0  0  0
  -30.5964  -24.7384   20.5653 H   0  0  0  0  0  0
  -29.9722  -19.2757   17.8930 H   0  0  0  0  0  0
  -29.7237  -20.9508   17.8216 H   0  0  0  0  0  0
  -27.9247  -21.5433   21.0400 H   0  0  0  0  0  0
  -29.5798  -21.4295   21.3377 H   0  0  0  0  0  0
  -27.6272  -24.4074   21.3577 H   0  0  0  0  0  0
  -27.1058  -24.2878   19.7276 H   0  0  0  0  0  0
  -27.7245  -18.8984   18.3853 H   0  0  0  0  0  0
  1 25  1  0  0  0
  1 30  2  0  0  0
  1 72  1  0  0  0
  2  3  1  0  0  0
  2 25  1  0  0  0
  2 87  1  0  0  0
  2 88  1  0  0  0
  3  4  1  0  0  0
  3 89  1  0  0  0
  3 90  1  0  0  0
  4  5  1  0  0  0
  4 91  1  0  0  0
  4 92  1  0  0  0
  5  6  1  0  0  0
  5 26  1  0  0  0
  5 93  1  0  0  0
  6 25  1  0  0  0
  6 94  1  0  0  0
  6 95  1  0  0  0
  7  8  2  0  0  0
  7 26  1  0  0  0
  7 29  1  0  0  0
  8  9  1  0  0  0
  8 22  1  0  0  0
  9 10  1  0  0  0
  9 27  2  0  0  0
 10 11  2  0  0  0
 10 15  1  0  0  0
 11 12  1  0  0  0
 11 96  1  0  0  0
 12 13  2  0  0  0
 12 97  1  0  0  0
 13 14  1  0  0  0
 13 31  1  0  0  0
 14 15  2  0  0  0
 14 98  1  0  0  0
 15 99  1  0  0  0
 16 17  2  0  0  0
 16 21  1  0  0  0
 16 31  1  0  0  0
 17 18  1  0  0  0
 17100  1  0  0  0
 18 19  2  0  0  0
 18101  1  0  0  0
 19 20  1  0  0  0
 19 24  1  0  0  0
 20 21  2  0  0  0
 20102  1  0  0  0
 21 23  1  0  0  0
 22 28  1  0  0  0
 22 32  2  0  0  0
 26 27  1  0  0  0
 28103  1  0  0  0
 28104  1  0  0  0
 29105  1  0  0  0
 29106  1  0  0  0
 33 34  1  0  0  0
 33 66  1  0  0  0
 33 70  2  0  0  0
 34 36  1  0  0  0
 34 59  1  0  0  0
 34107  1  0  0  0
 35 44  2  0  0  0
 35 45  1  0  0  0
 35 68  1  0  0  0
 36 56  1  0  0  0
 36108  1  0  0  0
 37 39  1  0  0  0
 37 47  1  0  0  0
 37 66  1  0  0  0
 37109  1  0  0  0
 38 43  2  0  0  0
 38 46  1  0  0  0
 38 47  1  0  0  0
 39 64  1  0  0  0
 39 67  2  0  0  0
 40 52  1  0  0  0
 40 53  2  0  0  0
 40 58  1  0  0  0
 41110  1  0  0  0
 41111  1  0  0  0
 41112  1  0  0  0
 41 48  1  0  0  0
 42 43  1  0  0  0
 42 66  1  0  0  0
 42113  1  0  0  0
 42114  1  0  0  0
 43 44  1  0  0  0
 44115  1  0  0  0
 45 46  2  0  0  0
 45116  1  0  0  0
 46117  1  0  0  0
 47118  1  0  0  0
 47119  1  0  0  0
 48 56  1  0  0  0
 48 65  1  0  0  0
 48120  1  0  0  0
 49 50  1  0  0  0
 49 53  1  0  0  0
 49 64  1  0  0  0
 49121  1  0  0  0
 50 51  1  0  0  0
 50122  1  0  0  0
 50123  1  0  0  0
 51 52  1  0  0  0
 51124  1  0  0  0
 51125  1  0  0  0
 52126  1  0  0  0
 52127  1  0  0  0
 53 54  1  0  0  0
 54 55  2  0  0  0
 54128  1  0  0  0
 55 57  1  0  0  0
 55129  1  0  0  0
 56 69  2  0  0  0
 57 58  2  0  0  0
 57130  1  0  0  0
 58131  1  0  0  0
 59 60  1  0  0  0
 59 61  1  0  0  0
 59 62  1  0  0  0
 60132  1  0  0  0
 60133  1  0  0  0
 60134  1  0  0  0
 61135  1  0  0  0
 61136  1  0  0  0
 61137  1  0  0  0
 62138  1  0  0  0
 62139  1  0  0  0
 62140  1  0  0  0
 63 65  1  0  0  0
 63141  1  0  0  0
 63142  1  0  0  0
 63143  1  0  0  0
 64144  1  0  0  0
 65145  1  0  0  0
 68 80  1  0  0  0
 71 84  2  0  0  0
 71 86  1  0  0  0
 71146  1  0  0  0
 72 84  1  0  0  0
 72 85  2  0  0  0
 73 78  1  0  0  0
 73147  1  0  0  0
 73148  1  0  0  0
 73149  1  0  0  0
 74150  1  0  0  0
 74151  1  0  0  0
 74152  1  0  0  0
 74 81  1  0  0  0
 75 81  1  0  0  0
 75153  1  0  0  0
 75154  1  0  0  0
 75155  1  0  0  0
 76156  1  0  0  0
 76157  1  0  0  0
 76158  1  0  0  0
 76 82  1  0  0  0
 77 82  1  0  0  0
 77159  1  0  0  0
 77160  1  0  0  0
 77161  1  0  0  0
 78162  1  0  0  0
 78163  1  0  0  0
 78 83  1  0  0  0
 79 82  1  0  0  0
 79 83  1  0  0  0
 79164  1  0  0  0
 79165  1  0  0  0
 80 82  1  0  0  0
 80166  1  0  0  0
 80167  1  0  0  0
 81 83  1  0  0  0
 81168  1  0  0  0
 83 86  1  0  0  0
 85 86  1  0  0  0
M  ISO  4   1 100  68 101  72 100  80 101
M  END
> <chiral flag>
0

> <version>
0

> <s_m_source_file>
/data/baiqing/PycharmProjects/Reinvent-master-3.2/result/LINK_invent/BTK/process_docking_weight1_custom_sum_contain_oxygen_bond_distance_aromatic_linkinvent_7_9_3/rearranged_h_0063.sdf

> <i_m_source_file_index>
4

> <r_mmod_Potential_Energy-OPLS-2005>
947.972229003906

> <r_mmod_Stretch_Energy-OPLS-2005>
349.454803466797

> <r_mmod_Bend_Energy-OPLS-2005>
332.436920166016

> <r_mmod_Torsional_Energy-OPLS-2005>
291.730072021484

> <r_mmod_Improper_Torsional_Energy-OPLS-2005>
6.01907730102539

> <r_mmod_Van_der_Waal_Energy-OPLS-2005>
115.70059967041

> <r_mmod_Electrostatic_Energy-OPLS-2005>
-167.073440551758

> <r_mmod_Solvation_Energy-OPLS-2005>
-192.596221923828

> <b_mmod_Minimization_Converged-OPLS-2005>
0

> <r_mmod_RMS_Derivative-OPLS-2005>
2.68453574180603

$$$$
5
                    3D
 Structure written by MMmdl.
166174  0  0  1  0            999 V2000
  -30.8081  -14.6670   20.6048 C   0  0  0  0  0  0
  -30.4192  -12.4663   19.4703 C   0  0  0  0  0  0
  -29.4798  -12.5298   18.2393 C   0  0  0  0  0  0
  -28.0181  -12.3362   18.6746 C   0  0  0  0  0  0
  -27.6506  -13.2328   19.8856 C   0  0  2  0  0  0
  -28.7241  -13.1514   21.0195 C   0  0  0  0  0  0
  -25.2331  -13.8195   20.5663 C   0  0  0  0  0  0
  -24.1652  -13.0453   20.9200 C   0  0  0  0  0  0
  -24.6365  -11.6969   20.8806 C   0  0  0  0  0  0
  -23.9066  -10.4297   21.0403 C   0  0  0  0  0  0
  -24.3595   -9.4227   21.9201 C   0  0  0  0  0  0
  -23.6272   -8.2249   22.0786 C   0  0  0  0  0  0
  -22.4275   -8.0263   21.3556 C   0  0  0  0  0  0
  -21.9890   -9.0251   20.4658 C   0  0  0  0  0  0
  -22.7235  -10.2141   20.3070 C   0  0  0  0  0  0
  -21.6829   -6.0718   22.5288 C   0  0  0  0  0  0
  -21.3982   -6.5622   23.8233 C   0  0  0  0  0  0
  -21.3664   -5.6771   24.9180 C   0  0  0  0  0  0
  -21.6049   -4.3060   24.7236 C   0  0  0  0  0  0
  -21.8815   -3.8150   23.4382 C   0  0  0  0  0  0
  -21.9184   -4.6931   22.3419 C   0  0  0  0  0  0
  -22.7690  -13.5265   21.1895 C   0  0  0  0  0  0
  -22.1648   -4.2130   21.0994 F   0  0  0  0  0  0
  -21.5652   -3.4541   25.7760 F   0  0  0  0  0  0
  -30.0337  -13.5158   20.4528 N   0  0  0  0  0  0
  -26.2950  -12.9462   20.3603 N   0  0  0  0  0  0
  -25.9321  -11.6597   20.5957 N   0  0  0  0  0  0
  -22.0319  -12.8262   22.0429 N   0  0  0  0  0  0
  -25.3824  -15.1883   20.4034 N   0  0  0  0  0  0
  -31.9380  -14.6792   20.1089 O   0  0  0  0  0  0
  -21.6655   -6.8900   21.4273 O   0  0  0  0  0  0
  -22.3332  -14.5539   20.6752 O   0  0  0  0  0  0
  -24.6169  -31.8593   23.2057 C   0  0  0  0  0  0
  -25.9044  -32.4784   23.8411 C   0  0  1  0  0  0
  -27.2722  -27.3832   20.1358 C   0  0  0  0  0  0
  -25.5859  -33.8564   24.2308 N   0  0  0  0  0  0
  -23.4166  -30.4733   21.5391 C   0  0  2  0  0  0
  -24.8845  -28.9425   20.1142 C   0  0  0  0  0  0
  -22.7488  -29.4535   22.4958 C   0  0  0  0  0  0
  -18.0386  -28.1378   22.8527 C   0  0  0  0  0  0
  -24.1464  -36.7342   23.2612 C   0  0  0  0  0  0
  -25.9490  -30.8178   21.3644 C   0  0  0  0  0  0
  -26.0335  -29.4438   20.7262 C   0  0  0  0  0  0
  -27.2253  -28.6764   20.7293 C   0  0  0  0  0  0
  -26.0979  -26.9098   19.5071 C   0  0  0  0  0  0
  -24.9122  -27.6795   19.4876 C   0  0  0  0  0  0
  -23.6420  -29.8009   20.1563 C   0  0  0  0  0  0
  -25.4084  -36.3136   24.0302 C   0  0  1  0  0  0
  -20.5843  -28.3756   23.1439 C   0  0  2  0  0  0
  -20.6734  -26.9376   22.5691 C   0  0  0  0  0  0
  -19.5801  -26.6425   21.5267 C   0  0  0  0  0  0
  -18.1987  -26.8042   22.1621 C   0  0  0  0  0  0
  -19.1596  -28.8817   23.3036 C   0  0  0  0  0  0
  -18.9490  -30.1414   23.9092 C   0  0  0  0  0  0
  -17.6521  -30.6570   24.0711 C   0  0  0  0  0  0
  -25.9014  -34.9508   23.5101 C   0  0  0  0  0  0
  -16.5416  -29.9050   23.6317 C   0  0  0  0  0  0
  -16.7360  -28.6559   23.0278 C   0  0  0  0  0  0
  -26.4477  -31.6613   25.0735 C   0  0  0  0  0  0
  -25.3746  -31.3683   26.1448 C   0  0  0  0  0  0
  -27.0283  -30.3047   24.6122 C   0  0  0  0  0  0
  -27.6033  -32.4306   25.7509 C   0  0  0  0  0  0
  -27.5603  -37.1791   24.8446 C   0  0  0  0  0  0
  -21.4156  -29.3015   22.3748 N   0  0  0  0  0  0
  -26.4329  -37.3789   23.9388 N   0  0  0  0  0  0
  -24.6794  -31.0664   22.0943 N   0  0  0  0  0  0
  -23.4190  -28.8098   23.3043 O   0  0  0  0  0  0
  -28.4687  -26.6718   20.2361 O   0  0  0  0  0  0
  -26.5601  -34.8913   22.4650 O   0  0  0  0  0  0
  -23.5334  -32.1360   23.7434 O   0  0  0  0  0  0
  -30.1816  -19.6125   21.5261 C   0  0  0  0  0  0
  -29.5330  -18.6003   20.7137 C   0  0  0  0  0  0
  -28.2027  -20.3548   19.8337 C   0  0  0  0  0  0
  -28.8711  -21.3484   20.5609 C   0  0  0  0  0  0
  -26.9633  -20.6160   18.9930 C   0  0  0  0  0  0
  -32.3210  -16.8331   22.4116 C   0  0  0  0  0  0
  -28.1390  -16.6177   20.9800 C   0  0  0  0  0  0
  -29.9197  -16.8316   19.0151 C   0  0  0  0  0  0
  -28.3229  -22.8125   20.3719 C   0  0  0  0  0  0
  -29.0183  -24.1562   20.7326 C   0  0  0  0  0  0
  -30.9624  -16.1384   22.5301 C   0  0  0  0  0  0
  -28.6397  -25.3202   19.7286 C   0  0  0  0  0  0
  -29.5651  -16.9874   20.5345 C   0  0  0  0  0  0
  -29.8561  -20.9595   21.4427 N   0  0  0  0  0  0
  -28.5587  -19.0657   19.8933 N   0  0  0  0  0  0
  -30.3462  -15.8494   21.2217 N   0  0  0  0  0  0
  -31.4521  -12.5542   19.1392 H   0  0  0  0  0  0
  -30.3275  -11.4923   19.9421 H   0  0  0  0  0  0
  -29.7506  -11.7583   17.5092 H   0  0  0  0  0  0
  -29.5734  -13.4914   17.7247 H   0  0  0  0  0  0
  -27.8889  -11.2900   18.9496 H   0  0  0  0  0  0
  -27.3316  -12.5178   17.8450 H   0  0  0  0  0  0
  -27.6369  -14.2424   19.4698 H   0  0  0  0  0  0
  -28.7667  -12.1408   21.4184 H   0  0  0  0  0  0
  -28.4887  -13.7621   21.8861 H   0  0  0  0  0  0
  -25.2732   -9.5698   22.4803 H   0  0  0  0  0  0
  -23.9966   -7.4645   22.7506 H   0  0  0  0  0  0
  -21.0843   -8.8794   19.8945 H   0  0  0  0  0  0
  -22.3707  -10.9674   19.6177 H   0  0  0  0  0  0
  -21.1941   -7.6128   23.9711 H   0  0  0  0  0  0
  -21.1486   -6.0522   25.9094 H   0  0  0  0  0  0
  -22.0584   -2.7604   23.2889 H   0  0  0  0  0  0
  -22.3905  -11.9913   22.4815 H   0  0  0  0  0  0
  -21.0920  -13.1267   22.2515 H   0  0  0  0  0  0
  -24.6449  -15.8430   20.6414 H   0  0  0  0  0  0
  -26.2693  -15.6449   20.2379 H   0  0  0  0  0  0
  -26.7117  -32.5537   23.1187 H   0  0  0  0  0  0
  -25.0108  -33.9758   25.0539 H   0  0  0  0  0  0
  -22.7073  -31.2881   21.3919 H   0  0  0  0  0  0
  -23.3758  -35.9659   23.3251 H   0  0  0  0  0  0
  -24.3615  -36.8984   22.2070 H   0  0  0  0  0  0
  -23.7261  -37.6487   23.6696 H   0  0  0  0  0  0
  -26.0651  -31.5732   20.5930 H   0  0  0  0  0  0
  -26.8357  -30.8737   21.9815 H   0  0  0  0  0  0
  -28.1050  -29.0698   21.2112 H   0  0  0  0  0  0
  -26.0517  -25.9514   19.0235 H   0  0  0  0  0  0
  -24.0398  -27.2922   18.9826 H   0  0  0  0  0  0
  -23.7619  -30.5729   19.3948 H   0  0  0  0  0  0
  -22.7737  -29.2133   19.8490 H   0  0  0  0  0  0
  -25.1294  -36.1947   25.0815 H   0  0  0  0  0  0
  -21.0008  -28.3349   24.1634 H   0  0  0  0  0  0
  -20.5288  -26.2430   23.3971 H   0  0  0  0  0  0
  -21.6748  -26.7256   22.1917 H   0  0  0  0  0  0
  -19.6870  -25.6303   21.1324 H   0  0  0  0  0  0
  -19.6822  -27.3167   20.6759 H   0  0  0  0  0  0
  -17.4329  -26.6879   21.3953 H   0  0  0  0  0  0
  -18.0271  -25.9929   22.8813 H   0  0  0  0  0  0
  -19.7867  -30.7093   24.2653 H   0  0  0  0  0  0
  -17.5066  -31.6094   24.5393 H   0  0  0  0  0  0
  -15.5396  -30.2929   23.7723 H   0  0  0  0  0  0
  -15.8815  -28.0857   22.6673 H   0  0  0  0  0  0
  -24.5914  -30.7003   25.7806 H   0  0  0  0  0  0
  -24.8945  -32.2833   26.4921 H   0  0  0  0  0  0
  -25.8101  -30.8878   27.0230 H   0  0  0  0  0  0
  -26.2847  -29.6768   24.1155 H   0  0  0  0  0  0
  -27.4033  -29.7226   25.4577 H   0  0  0  0  0  0
  -27.8720  -30.4297   23.9299 H   0  0  0  0  0  0
  -27.2647  -33.3559   26.2132 H   0  0  0  0  0  0
  -28.3867  -32.6854   25.0389 H   0  0  0  0  0  0
  -28.0687  -31.8407   26.5398 H   0  0  0  0  0  0
  -28.2538  -38.0140   24.7549 H   0  0  0  0  0  0
  -28.1141  -36.2681   24.6201 H   0  0  0  0  0  0
  -27.2326  -37.1388   25.8829 H   0  0  0  0  0  0
  -20.9354  -29.8641   21.6880 H   0  0  0  0  0  0
  -26.0178  -38.2812   24.1417 H   0  0  0  0  0  0
  -30.9285  -19.4116   22.2731 H   0  0  0  0  0  0
  -26.5538  -19.6631   18.6446 H   0  0  0  0  0  0
  -27.1818  -21.2244   18.1168 H   0  0  0  0  0  0
  -26.2055  -21.1130   19.5951 H   0  0  0  0  0  0
  -32.3082  -17.7320   21.8014 H   0  0  0  0  0  0
  -33.0654  -16.1554   22.0088 H   0  0  0  0  0  0
  -32.6779  -17.1232   23.3936 H   0  0  0  0  0  0
  -28.0053  -16.9170   22.0246 H   0  0  0  0  0  0
  -27.9615  -15.5655   20.9769 H   0  0  0  0  0  0
  -27.3186  -17.0277   20.3886 H   0  0  0  0  0  0
  -30.9661  -17.1138   18.8815 H   0  0  0  0  0  0
  -29.3475  -17.4275   18.3145 H   0  0  0  0  0  0
  -29.8091  -15.8355   18.5965 H   0  0  0  0  0  0
  -27.3021  -22.8735   20.7416 H   0  0  0  0  0  0
  -28.2111  -22.8910   19.2914 H   0  0  0  0  0  0
  -30.0972  -24.0531   20.6818 H   0  0  0  0  0  0
  -28.7872  -24.4482   21.7621 H   0  0  0  0  0  0
  -30.2758  -16.6852   23.1677 H   0  0  0  0  0  0
  -31.1136  -15.1869   23.0394 H   0  0  0  0  0  0
  -27.8436  -25.0139   19.0643 H   0  0  0  0  0  0
  -29.4851  -25.4002   19.0522 H   0  0  0  0  0  0
  1 25  1  0  0  0
  1 30  2  0  0  0
  1 86  1  0  0  0
  2  3  1  0  0  0
  2 25  1  0  0  0
  2 87  1  0  0  0
  2 88  1  0  0  0
  3  4  1  0  0  0
  3 89  1  0  0  0
  3 90  1  0  0  0
  4  5  1  0  0  0
  4 91  1  0  0  0
  4 92  1  0  0  0
  5  6  1  0  0  0
  5 26  1  0  0  0
  5 93  1  0  0  0
  6 25  1  0  0  0
  6 94  1  0  0  0
  6 95  1  0  0  0
  7  8  2  0  0  0
  7 26  1  0  0  0
  7 29  1  0  0  0
  8  9  1  0  0  0
  8 22  1  0  0  0
  9 10  1  0  0  0
  9 27  2  0  0  0
 10 11  2  0  0  0
 10 15  1  0  0  0
 11 12  1  0  0  0
 11 96  1  0  0  0
 12 13  2  0  0  0
 12 97  1  0  0  0
 13 14  1  0  0  0
 13 31  1  0  0  0
 14 15  2  0  0  0
 14 98  1  0  0  0
 15 99  1  0  0  0
 16 17  2  0  0  0
 16 21  1  0  0  0
 16 31  1  0  0  0
 17 18  1  0  0  0
 17100  1  0  0  0
 18 19  2  0  0  0
 18101  1  0  0  0
 19 20  1  0  0  0
 19 24  1  0  0  0
 20 21  2  0  0  0
 20102  1  0  0  0
 21 23  1  0  0  0
 22 28  1  0  0  0
 22 32  2  0  0  0
 26 27  1  0  0  0
 28103  1  0  0  0
 28104  1  0  0  0
 29105  1  0  0  0
 29106  1  0  0  0
 33 34  1  0  0  0
 33 66  1  0  0  0
 33 70  2  0  0  0
 34 36  1  0  0  0
 34 59  1  0  0  0
 34107  1  0  0  0
 35 44  2  0  0  0
 35 45  1  0  0  0
 35 68  1  0  0  0
 36 56  1  0  0  0
 36108  1  0  0  0
 37 39  1  0  0  0
 37 47  1  0  0  0
 37 66  1  0  0  0
 37109  1  0  0  0
 38 43  2  0  0  0
 38 46  1  0  0  0
 38 47  1  0  0  0
 39 64  1  0  0  0
 39 67  2  0  0  0
 40 52  1  0  0  0
 40 53  2  0  0  0
 40 58  1  0  0  0
 41110  1  0  0  0
 41111  1  0  0  0
 41112  1  0  0  0
 41 48  1  0  0  0
 42 43  1  0  0  0
 42 66  1  0  0  0
 42113  1  0  0  0
 42114  1  0  0  0
 43 44  1  0  0  0
 44115  1  0  0  0
 45 46  2  0  0  0
 45116  1  0  0  0
 46117  1  0  0  0
 47118  1  0  0  0
 47119  1  0  0  0
 48 56  1  0  0  0
 48 65  1  0  0  0
 48120  1  0  0  0
 49 50  1  0  0  0
 49 53  1  0  0  0
 49 64  1  0  0  0
 49121  1  0  0  0
 50 51  1  0  0  0
 50122  1  0  0  0
 50123  1  0  0  0
 51 52  1  0  0  0
 51124  1  0  0  0
 51125  1  0  0  0
 52126  1  0  0  0
 52127  1  0  0  0
 53 54  1  0  0  0
 54 55  2  0  0  0
 54128  1  0  0  0
 55 57  1  0  0  0
 55129  1  0  0  0
 56 69  2  0  0  0
 57 58  2  0  0  0
 57130  1  0  0  0
 58131  1  0  0  0
 59 60  1  0  0  0
 59 61  1  0  0  0
 59 62  1  0  0  0
 60132  1  0  0  0
 60133  1  0  0  0
 60134  1  0  0  0
 61135  1  0  0  0
 61136  1  0  0  0
 61137  1  0  0  0
 62138  1  0  0  0
 62139  1  0  0  0
 62140  1  0  0  0
 63 65  1  0  0  0
 63141  1  0  0  0
 63142  1  0  0  0
 63143  1  0  0  0
 64144  1  0  0  0
 65145  1  0  0  0
 68 82  1  0  0  0
 71 72  2  0  0  0
 71 84  1  0  0  0
 71146  1  0  0  0
 72 83  1  0  0  0
 72 85  1  0  0  0
 73 74  1  0  0  0
 73 75  1  0  0  0
 73 85  2  0  0  0
 74 79  1  0  0  0
 74 84  2  0  0  0
 75147  1  0  0  0
 75148  1  0  0  0
 75149  1  0  0  0
 76 81  1  0  0  0
 76150  1  0  0  0
 76151  1  0  0  0
 76152  1  0  0  0
 77153  1  0  0  0
 77154  1  0  0  0
 77155  1  0  0  0
 77 83  1  0  0  0
 78 83  1  0  0  0
 78156  1  0  0  0
 78157  1  0  0  0
 78158  1  0  0  0
 79 80  1  0  0  0
 79159  1  0  0  0
 79160  1  0  0  0
 80 82  1  0  0  0
 80161  1  0  0  0
 80162  1  0  0  0
 81 86  1  0  0  0
 81163  1  0  0  0
 81164  1  0  0  0
 82165  1  0  0  0
 82166  1  0  0  0
 83 86  1  0  0  0
M  ISO  4   1 100  68 101  82 101  86 100
M  END
> <chiral flag>
0

> <version>
0

> <s_m_source_file>
/data/baiqing/PycharmProjects/Reinvent-master-3.2/result/LINK_invent/BTK/process_docking_weight1_custom_sum_contain_oxygen_bond_distance_aromatic_linkinvent_7_9_3/rearranged_h_0063.sdf

> <i_m_source_file_index>
5

> <r_mmod_Potential_Energy-OPLS-2005>
568.959533691406

> <r_mmod_Stretch_Energy-OPLS-2005>
115.147285461426

> <r_mmod_Bend_Energy-OPLS-2005>
333.219390869141

> <r_mmod_Torsional_Energy-OPLS-2005>
302.121643066406

> <r_mmod_Improper_Torsional_Energy-OPLS-2005>
3.26164317131042

> <r_mmod_Van_der_Waal_Energy-OPLS-2005>
198.25456237793

> <r_mmod_Electrostatic_Energy-OPLS-2005>
-236.732299804688

> <r_mmod_Solvation_Energy-OPLS-2005>
-196.064758300781

> <b_mmod_Minimization_Converged-OPLS-2005>
0

> <r_mmod_RMS_Derivative-OPLS-2005>
19.8129768371582

$$$$
6
                    3D
 Structure written by MMmdl.
164172  0  0  1  0            999 V2000
  -30.6722  -14.5639   20.6759 C   0  0  0  0  0  0
  -30.4833  -12.4234   19.4138 C   0  0  0  0  0  0
  -29.5346  -12.5612   18.2039 C   0  0  0  0  0  0
  -28.0452  -12.4329   18.6100 C   0  0  0  0  0  0
  -27.6829  -13.2248   19.8949 C   0  0  2  0  0  0
  -28.7317  -12.9172   20.9782 C   0  0  0  0  0  0
  -25.2705  -13.8250   20.5748 C   0  0  0  0  0  0
  -24.1865  -13.0482   20.9154 C   0  0  0  0  0  0
  -24.6412  -11.6974   20.8671 C   0  0  0  0  0  0
  -23.9062  -10.4349   21.0383 C   0  0  0  0  0  0
  -24.3563   -9.4268   21.9106 C   0  0  0  0  0  0
  -23.6260   -8.2281   22.0639 C   0  0  0  0  0  0
  -22.4248   -8.0302   21.3436 C   0  0  0  0  0  0
  -21.9930   -9.0323   20.4551 C   0  0  0  0  0  0
  -22.7261  -10.2250   20.3019 C   0  0  0  0  0  0
  -21.6851   -6.0761   22.5306 C   0  0  0  0  0  0
  -21.4028   -6.5650   23.8246 C   0  0  0  0  0  0
  -21.3618   -5.6754   24.9146 C   0  0  0  0  0  0
  -21.6034   -4.3047   24.7210 C   0  0  0  0  0  0
  -21.8821   -3.8186   23.4327 C   0  0  0  0  0  0
  -21.9188   -4.6995   22.3395 C   0  0  0  0  0  0
  -22.7872  -13.5327   21.1796 C   0  0  0  0  0  0
  -22.1642   -4.2162   21.0978 F   0  0  0  0  0  0
  -21.5602   -3.4527   25.7699 F   0  0  0  0  0  0
  -30.0324  -13.3634   20.4716 N   0  0  0  0  0  0
  -26.3164  -12.9425   20.3482 N   0  0  0  0  0  0
  -25.9414  -11.6598   20.5767 N   0  0  0  0  0  0
  -22.0464  -12.8258   22.0386 N   0  0  0  0  0  0
  -25.4537  -15.1956   20.4169 N   0  0  0  0  0  0
  -31.7702  -14.7574   20.1371 O   0  0  0  0  0  0
  -21.6597   -6.8897   21.4227 O   0  0  0  0  0  0
  -22.3468  -14.5600   20.6610 O   0  0  0  0  0  0
  -24.6158  -31.8686   23.2099 C   0  0  0  0  0  0
  -25.9008  -32.4829   23.8457 C   0  0  1  0  0  0
  -27.2353  -27.4131   20.1123 C   0  0  0  0  0  0
  -25.5853  -33.8618   24.2353 N   0  0  0  0  0  0
  -23.4110  -30.4851   21.5501 C   0  0  2  0  0  0
  -24.8599  -28.9549   20.1170 C   0  0  0  0  0  0
  -22.7470  -29.4608   22.5006 C   0  0  0  0  0  0
  -18.0255  -28.1378   22.8517 C   0  0  0  0  0  0
  -24.1443  -36.7314   23.2641 C   0  0  0  0  0  0
  -25.9403  -30.8240   21.3700 C   0  0  0  0  0  0
  -26.0200  -29.4614   20.7120 C   0  0  0  0  0  0
  -27.2143  -28.7035   20.6948 C   0  0  0  0  0  0
  -26.0534  -26.9182   19.5189 C   0  0  0  0  0  0
  -24.8715  -27.6877   19.5118 C   0  0  0  0  0  0
  -23.6231  -29.8186   20.1634 C   0  0  0  0  0  0
  -25.4090  -36.3131   24.0338 C   0  0  1  0  0  0
  -20.5876  -28.3637   23.1335 C   0  0  2  0  0  0
  -20.6729  -26.9368   22.5415 C   0  0  0  0  0  0
  -19.5712  -26.6373   21.5192 C   0  0  0  0  0  0
  -18.1900  -26.7946   22.1615 C   0  0  0  0  0  0
  -19.1519  -28.8845   23.2918 C   0  0  0  0  0  0
  -18.9424  -30.1448   23.8931 C   0  0  0  0  0  0
  -17.6425  -30.6585   24.0563 C   0  0  0  0  0  0
  -25.9016  -34.9459   23.5133 C   0  0  0  0  0  0
  -16.5323  -29.9081   23.6341 C   0  0  0  0  0  0
  -16.7246  -28.6500   23.0380 C   0  0  0  0  0  0
  -26.4427  -31.6709   25.0844 C   0  0  0  0  0  0
  -25.3662  -31.3812   26.1589 C   0  0  0  0  0  0
  -27.0299  -30.3180   24.6305 C   0  0  0  0  0  0
  -27.6047  -32.4463   25.7545 C   0  0  0  0  0  0
  -27.5584  -37.1807   24.8462 C   0  0  0  0  0  0
  -21.4203  -29.2969   22.3738 N   0  0  0  0  0  0
  -26.4311  -37.3845   23.9388 N   0  0  0  0  0  0
  -24.6746  -31.0760   22.1003 N   0  0  0  0  0  0
  -23.4226  -28.8107   23.3026 O   0  0  0  0  0  0
  -28.3939  -26.6597   20.1143 O   0  0  0  0  0  0
  -26.5599  -34.8942   22.4691 O   0  0  0  0  0  0
  -23.5339  -32.1375   23.7500 O   0  0  0  0  0  0
  -28.1677  -17.6271   18.0428 C   0  0  0  0  0  0
  -29.3484  -17.5648   19.7734 C   0  0  0  0  0  0
  -30.6475  -23.0552   19.7218 C   0  0  0  0  0  0
  -29.3661  -15.5470   22.5953 C   0  0  0  0  0  0
  -30.2942  -17.0442   20.8499 C   0  0  0  0  0  0
  -28.6109  -21.4779   19.6435 C   0  0  0  0  0  0
  -28.3801  -24.1600   19.7279 C   0  0  0  0  0  0
  -29.2150  -20.1540   20.2802 C   0  0  0  0  0  0
  -28.3278  -25.3587   20.7406 C   0  0  0  0  0  0
  -29.1730  -22.8688   20.1718 C   0  0  2  0  0  0
  -27.4490  -17.2266   16.7613 C   0  0  0  0  0  0
  -28.8922  -16.7549   18.8145 N   0  0  0  0  0  0
  -28.1072  -18.8749   18.5165 N   0  0  0  0  0  0
  -28.9305  -18.8600   19.5939 N   0  0  0  0  0  0
  -29.9961  -15.6245   21.2530 N   0  0  0  0  0  0
  -26.2898  -16.6335   17.0547 F   0  0  0  0  0  0
  -27.1980  -18.3135   16.0143 F   0  0  0  0  0  0
  -28.1920  -16.3775   16.0354 F   0  0  0  0  0  0
  -31.5081  -12.6195   19.0786 H   0  0  0  0  0  0
  -30.5019  -11.3977   19.7865 H   0  0  0  0  0  0
  -29.7793  -11.8197   17.4464 H   0  0  0  0  0  0
  -29.6965  -13.5335   17.7336 H   0  0  0  0  0  0
  -27.8461  -11.3787   18.7765 H   0  0  0  0  0  0
  -27.4033  -12.7324   17.7824 H   0  0  0  0  0  0
  -27.7423  -14.2874   19.6567 H   0  0  0  0  0  0
  -28.7605  -11.8355   21.1397 H   0  0  0  0  0  0
  -28.4752  -13.2974   21.9617 H   0  0  0  0  0  0
  -25.2710   -9.5748   22.4687 H   0  0  0  0  0  0
  -24.0004   -7.4654   22.7357 H   0  0  0  0  0  0
  -21.0828   -8.8870   19.8875 H   0  0  0  0  0  0
  -22.3678  -10.9747   19.6085 H   0  0  0  0  0  0
  -21.2011   -7.6118   23.9761 H   0  0  0  0  0  0
  -21.1400   -6.0430   25.9035 H   0  0  0  0  0  0
  -22.0616   -2.7617   23.2817 H   0  0  0  0  0  0
  -22.4043  -12.0024   22.4920 H   0  0  0  0  0  0
  -21.0994  -13.1278   22.2427 H   0  0  0  0  0  0
  -24.7135  -15.8925   20.4529 H   0  0  0  0  0  0
  -26.3621  -15.6075   20.2177 H   0  0  0  0  0  0
  -26.7106  -32.5536   23.1264 H   0  0  0  0  0  0
  -24.9999  -33.9876   25.0501 H   0  0  0  0  0  0
  -22.6951  -31.2971   21.4112 H   0  0  0  0  0  0
  -23.3758  -35.9589   23.3270 H   0  0  0  0  0  0
  -24.3543  -36.8989   22.2060 H   0  0  0  0  0  0
  -23.7128  -37.6473   23.6697 H   0  0  0  0  0  0
  -26.0695  -31.6022   20.6201 H   0  0  0  0  0  0
  -26.8155  -30.8656   22.0022 H   0  0  0  0  0  0
  -28.1114  -29.0971   21.1475 H   0  0  0  0  0  0
  -26.0531  -25.9430   19.0460 H   0  0  0  0  0  0
  -23.9801  -27.2912   19.0435 H   0  0  0  0  0  0
  -23.7405  -30.5926   19.4060 H   0  0  0  0  0  0
  -22.7483  -29.2424   19.8599 H   0  0  0  0  0  0
  -25.1247  -36.2009   25.0865 H   0  0  0  0  0  0
  -20.9935  -28.3117   24.1471 H   0  0  0  0  0  0
  -20.5590  -26.2197   23.3565 H   0  0  0  0  0  0
  -21.6592  -26.7371   22.1208 H   0  0  0  0  0  0
  -19.6825  -25.6272   21.1229 H   0  0  0  0  0  0
  -19.6675  -27.3178   20.6709 H   0  0  0  0  0  0
  -17.4154  -26.6703   21.4030 H   0  0  0  0  0  0
  -18.0299  -26.0101   22.9020 H   0  0  0  0  0  0
  -19.7887  -30.7239   24.2360 H   0  0  0  0  0  0
  -17.4965  -31.6285   24.5082 H   0  0  0  0  0  0
  -15.5332  -30.2943   23.7669 H   0  0  0  0  0  0
  -15.8655  -28.0769   22.7139 H   0  0  0  0  0  0
  -24.5754  -30.7327   25.7822 H   0  0  0  0  0  0
  -24.8969  -32.2977   26.5211 H   0  0  0  0  0  0
  -25.7964  -30.8771   27.0272 H   0  0  0  0  0  0
  -26.2899  -29.6966   24.1300 H   0  0  0  0  0  0
  -27.3962  -29.7467   25.4851 H   0  0  0  0  0  0
  -27.8772  -30.4544   23.9580 H   0  0  0  0  0  0
  -27.2736  -33.3781   26.2195 H   0  0  0  0  0  0
  -28.3788  -32.7065   25.0279 H   0  0  0  0  0  0
  -28.0844  -31.8574   26.5414 H   0  0  0  0  0  0
  -28.2583  -38.0130   24.7576 H   0  0  0  0  0  0
  -28.1112  -36.2667   24.6199 H   0  0  0  0  0  0
  -27.2329  -37.1355   25.8888 H   0  0  0  0  0  0
  -20.9354  -29.8720   21.7005 H   0  0  0  0  0  0
  -26.0169  -38.2908   24.1488 H   0  0  0  0  0  0
  -31.3553  -22.3973   20.2140 H   0  0  0  0  0  0
  -31.0127  -24.0725   19.8768 H   0  0  0  0  0  0
  -30.7459  -22.8714   18.6504 H   0  0  0  0  0  0
  -29.8619  -14.8282   23.2516 H   0  0  0  0  0  0
  -28.3021  -15.3044   22.5501 H   0  0  0  0  0  0
  -29.3782  -16.4852   23.1590 H   0  0  0  0  0  0
  -30.3060  -17.7255   21.6933 H   0  0  0  0  0  0
  -31.3055  -17.1215   20.4585 H   0  0  0  0  0  0
  -27.5280  -21.4403   19.7596 H   0  0  0  0  0  0
  -28.7512  -21.4507   18.5668 H   0  0  0  0  0  0
  -28.8351  -24.5384   18.8075 H   0  0  0  0  0  0
  -27.3556  -23.9014   19.4438 H   0  0  0  0  0  0
  -28.8951  -20.0659   21.3199 H   0  0  0  0  0  0
  -30.2925  -20.2576   20.2859 H   0  0  0  0  0  0
  -29.1700  -25.3112   21.4327 H   0  0  0  0  0  0
  -27.4487  -25.2704   21.3836 H   0  0  0  0  0  0
  -29.1369  -22.8420   21.2651 H   0  0  0  0  0  0
  1 25  1  0  0  0
  1 30  2  0  0  0
  1 85  1  0  0  0
  2  3  1  0  0  0
  2 25  1  0  0  0
  2 89  1  0  0  0
  2 90  1  0  0  0
  3  4  1  0  0  0
  3 91  1  0  0  0
  3 92  1  0  0  0
  4  5  1  0  0  0
  4 93  1  0  0  0
  4 94  1  0  0  0
  5  6  1  0  0  0
  5 26  1  0  0  0
  5 95  1  0  0  0
  6 25  1  0  0  0
  6 96  1  0  0  0
  6 97  1  0  0  0
  7  8  2  0  0  0
  7 26  1  0  0  0
  7 29  1  0  0  0
  8  9  1  0  0  0
  8 22  1  0  0  0
  9 10  1  0  0  0
  9 27  2  0  0  0
 10 11  2  0  0  0
 10 15  1  0  0  0
 11 12  1  0  0  0
 11 98  1  0  0  0
 12 13  2  0  0  0
 12 99  1  0  0  0
 13 14  1  0  0  0
 13 31  1  0  0  0
 14 15  2  0  0  0
 14100  1  0  0  0
 15101  1  0  0  0
 16 17  2  0  0  0
 16 21  1  0  0  0
 16 31  1  0  0  0
 17 18  1  0  0  0
 17102  1  0  0  0
 18 19  2  0  0  0
 18103  1  0  0  0
 19 20  1  0  0  0
 19 24  1  0  0  0
 20 21  2  0  0  0
 20104  1  0  0  0
 21 23  1  0  0  0
 22 28  1  0  0  0
 22 32  2  0  0  0
 26 27  1  0  0  0
 28105  1  0  0  0
 28106  1  0  0  0
 29107  1  0  0  0
 29108  1  0  0  0
 33 34  1  0  0  0
 33 66  1  0  0  0
 33 70  2  0  0  0
 34 36  1  0  0  0
 34 59  1  0  0  0
 34109  1  0  0  0
 35 44  2  0  0  0
 35 45  1  0  0  0
 35 68  1  0  0  0
 36 56  1  0  0  0
 36110  1  0  0  0
 37 39  1  0  0  0
 37 47  1  0  0  0
 37 66  1  0  0  0
 37111  1  0  0  0
 38 43  2  0  0  0
 38 46  1  0  0  0
 38 47  1  0  0  0
 39 64  1  0  0  0
 39 67  2  0  0  0
 40 52  1  0  0  0
 40 53  2  0  0  0
 40 58  1  0  0  0
 41112  1  0  0  0
 41113  1  0  0  0
 41114  1  0  0  0
 41 48  1  0  0  0
 42 43  1  0  0  0
 42 66  1  0  0  0
 42115  1  0  0  0
 42116  1  0  0  0
 43 44  1  0  0  0
 44117  1  0  0  0
 45 46  2  0  0  0
 45118  1  0  0  0
 46119  1  0  0  0
 47120  1  0  0  0
 47121  1  0  0  0
 48 56  1  0  0  0
 48 65  1  0  0  0
 48122  1  0  0  0
 49 50  1  0  0  0
 49 53  1  0  0  0
 49 64  1  0  0  0
 49123  1  0  0  0
 50 51  1  0  0  0
 50124  1  0  0  0
 50125  1  0  0  0
 51 52  1  0  0  0
 51126  1  0  0  0
 51127  1  0  0  0
 52128  1  0  0  0
 52129  1  0  0  0
 53 54  1  0  0  0
 54 55  2  0  0  0
 54130  1  0  0  0
 55 57  1  0  0  0
 55131  1  0  0  0
 56 69  2  0  0  0
 57 58  2  0  0  0
 57132  1  0  0  0
 58133  1  0  0  0
 59 60  1  0  0  0
 59 61  1  0  0  0
 59 62  1  0  0  0
 60134  1  0  0  0
 60135  1  0  0  0
 60136  1  0  0  0
 61137  1  0  0  0
 61138  1  0  0  0
 61139  1  0  0  0
 62140  1  0  0  0
 62141  1  0  0  0
 62142  1  0  0  0
 63 65  1  0  0  0
 63143  1  0  0  0
 63144  1  0  0  0
 63145  1  0  0  0
 64146  1  0  0  0
 65147  1  0  0  0
 68 79  1  0  0  0
 71 81  1  0  0  0
 71 82  1  0  0  0
 71 83  2  0  0  0
 72 75  1  0  0  0
 72 82  2  0  0  0
 72 84  1  0  0  0
 73148  1  0  0  0
 73149  1  0  0  0
 73150  1  0  0  0
 73 80  1  0  0  0
 74 85  1  0  0  0
 74151  1  0  0  0
 74152  1  0  0  0
 74153  1  0  0  0
 75 85  1  0  0  0
 75154  1  0  0  0
 75155  1  0  0  0
 76 78  1  0  0  0
 76 80  1  0  0  0
 76156  1  0  0  0
 76157  1  0  0  0
 77 79  1  0  0  0
 77 80  1  0  0  0
 77158  1  0  0  0
 77159  1  0  0  0
 78 84  1  0  0  0
 78160  1  0  0  0
 78161  1  0  0  0
 79162  1  0  0  0
 79163  1  0  0  0
 80164  1  0  0  0
 81 86  1  0  0  0
 81 87  1  0  0  0
 81 88  1  0  0  0
 83 84  1  0  0  0
M  ISO  4   1 100  68 101  79 101  85 100
M  END
> <chiral flag>
0

> <version>
0

> <s_m_source_file>
/data/baiqing/PycharmProjects/Reinvent-master-3.2/result/LINK_invent/BTK/process_docking_weight1_custom_sum_contain_oxygen_bond_distance_aromatic_linkinvent_7_9_3/rearranged_h_0063.sdf

> <i_m_source_file_index>
6

> <r_mmod_Potential_Energy-OPLS-2005>
254.25910949707

> <r_mmod_Stretch_Energy-OPLS-2005>
71.2468109130859

> <r_mmod_Bend_Energy-OPLS-2005>
143.940444946289

> <r_mmod_Torsional_Energy-OPLS-2005>
295.132141113281

> <r_mmod_Improper_Torsional_Energy-OPLS-2005>
7.11069679260254

> <r_mmod_Van_der_Waal_Energy-OPLS-2005>
124.327133178711

> <r_mmod_Electrostatic_Energy-OPLS-2005>
-219.031326293945

> <r_mmod_Solvation_Energy-OPLS-2005>
-192.593200683594

> <b_mmod_Minimization_Converged-OPLS-2005>
0

> <r_mmod_RMS_Derivative-OPLS-2005>
15.1165857315063

$$$$
7
                    3D
 Structure written by MMmdl.
174183  0  0  1  0            999 V2000
  -30.7287  -14.5919   20.4955 C   0  0  0  0  0  0
  -30.4145  -12.3781   19.4307 C   0  0  0  0  0  0
  -29.4829  -12.4814   18.2079 C   0  0  0  0  0  0
  -28.0140  -12.2921   18.6347 C   0  0  0  0  0  0
  -27.6383  -13.1704   19.8531 C   0  0  2  0  0  0
  -28.7038  -13.0719   20.9775 C   0  0  0  0  0  0
  -25.2543  -13.8031   20.5695 C   0  0  0  0  0  0
  -24.1783  -13.0358   20.9225 C   0  0  0  0  0  0
  -24.6314  -11.6821   20.8798 C   0  0  0  0  0  0
  -23.8983  -10.4237   21.0450 C   0  0  0  0  0  0
  -24.3556   -9.4160   21.9216 C   0  0  0  0  0  0
  -23.6249   -8.2192   22.0766 C   0  0  0  0  0  0
  -22.4242   -8.0241   21.3541 C   0  0  0  0  0  0
  -21.9864   -9.0211   20.4644 C   0  0  0  0  0  0
  -22.7177  -10.2095   20.3076 C   0  0  0  0  0  0
  -21.6827   -6.0709   22.5277 C   0  0  0  0  0  0
  -21.3991   -6.5621   23.8209 C   0  0  0  0  0  0
  -21.3660   -5.6781   24.9177 C   0  0  0  0  0  0
  -21.6049   -4.3044   24.7234 C   0  0  0  0  0  0
  -21.8822   -3.8131   23.4355 C   0  0  0  0  0  0
  -21.9184   -4.6938   22.3403 C   0  0  0  0  0  0
  -22.7828  -13.5208   21.1869 C   0  0  0  0  0  0
  -22.1657   -4.2122   21.0980 F   0  0  0  0  0  0
  -21.5639   -3.4533   25.7754 F   0  0  0  0  0  0
  -29.9995  -13.4309   20.3837 N   0  0  0  0  0  0
  -26.2914  -12.9109   20.3360 N   0  0  0  0  0  0
  -25.9221  -11.6322   20.5843 N   0  0  0  0  0  0
  -22.0447  -12.8219   22.0420 N   0  0  0  0  0  0
  -25.4235  -15.1743   20.4042 N   0  0  0  0  0  0
  -31.9280  -14.5668   20.2120 O   0  0  0  0  0  0
  -21.6608   -6.8844   21.4239 O   0  0  0  0  0  0
  -22.3543  -14.5521   20.6710 O   0  0  0  0  0  0
  -24.6171  -31.8654   23.2073 C   0  0  0  0  0  0
  -25.9059  -32.4808   23.8371 C   0  0  1  0  0  0
  -27.2419  -27.4137   20.1120 C   0  0  0  0  0  0
  -25.5910  -33.8602   24.2316 N   0  0  0  0  0  0
  -23.4061  -30.4856   21.5482 C   0  0  2  0  0  0
  -24.8552  -28.9449   20.1172 C   0  0  0  0  0  0
  -22.7421  -29.4638   22.4991 C   0  0  0  0  0  0
  -18.0269  -28.1367   22.8485 C   0  0  0  0  0  0
  -24.1485  -36.7301   23.2636 C   0  0  0  0  0  0
  -25.9352  -30.8274   21.3602 C   0  0  0  0  0  0
  -26.0154  -29.4593   20.7090 C   0  0  0  0  0  0
  -27.2123  -28.7039   20.6951 C   0  0  0  0  0  0
  -26.0628  -26.9149   19.5165 C   0  0  0  0  0  0
  -24.8738  -27.6728   19.5169 C   0  0  0  0  0  0
  -23.6172  -29.8133   20.1649 C   0  0  0  0  0  0
  -25.4104  -36.3093   24.0332 C   0  0  1  0  0  0
  -20.5856  -28.3655   23.1312 C   0  0  2  0  0  0
  -20.6765  -26.9392   22.5408 C   0  0  0  0  0  0
  -19.5746  -26.6379   21.5203 C   0  0  0  0  0  0
  -18.1921  -26.7916   22.1607 C   0  0  0  0  0  0
  -19.1521  -28.8828   23.2889 C   0  0  0  0  0  0
  -18.9459  -30.1434   23.8896 C   0  0  0  0  0  0
  -17.6466  -30.6582   24.0556 C   0  0  0  0  0  0
  -25.9038  -34.9464   23.5120 C   0  0  0  0  0  0
  -16.5351  -29.9079   23.6330 C   0  0  0  0  0  0
  -16.7260  -28.6494   23.0350 C   0  0  0  0  0  0
  -26.4481  -31.6590   25.0704 C   0  0  0  0  0  0
  -25.3748  -31.3682   26.1455 C   0  0  0  0  0  0
  -27.0320  -30.3039   24.6071 C   0  0  0  0  0  0
  -27.6049  -32.4311   25.7475 C   0  0  0  0  0  0
  -27.5576  -37.1796   24.8465 C   0  0  0  0  0  0
  -21.4146  -29.3023   22.3739 N   0  0  0  0  0  0
  -26.4290  -37.3781   23.9413 N   0  0  0  0  0  0
  -24.6713  -31.0739   22.0978 N   0  0  0  0  0  0
  -23.4184  -28.8196   23.3052 O   0  0  0  0  0  0
  -28.4180  -26.6841   20.1141 O   0  0  0  0  0  0
  -26.5608  -34.8921   22.4686 O   0  0  0  0  0  0
  -23.5363  -32.1418   23.7469 O   0  0  0  0  0  0
  -29.1450  -21.0763   21.4963 C   0  0  0  0  0  0
  -30.0702  -19.2098   21.8451 C   0  0  0  0  0  0
  -29.0403  -22.9079   19.6537 C   0  0  0  0  0  0
  -29.5234  -23.5617   22.0534 C   0  0  0  0  0  0
  -28.4937  -24.3272   19.3016 C   0  0  0  0  0  0
  -29.5062  -25.0174   21.5072 C   0  0  0  0  0  0
  -28.8264  -22.5279   21.1341 C   0  0  2  0  0  0
  -28.3629  -25.2945   20.5099 C   0  0  1  0  0  0
  -26.6268  -19.7553   24.0384 C   0  0  0  0  0  0
  -30.9386  -17.2083   23.1410 C   0  0  0  0  0  0
  -32.4836  -18.6147   21.8463 C   0  0  0  0  0  0
  -28.7118  -16.1534   20.5415 C   0  0  0  0  0  0
  -27.0301  -20.6555   22.8569 C   0  0  0  0  0  0
  -30.9106  -17.1027   20.5647 C   0  0  0  0  0  0
  -31.0538  -18.0269   21.8306 C   0  0  0  0  0  0
  -30.2628  -20.4043   21.1830 N   0  0  0  0  0  0
  -28.8911  -19.1162   22.4570 N   0  0  0  0  0  0
  -28.3332  -20.3408   22.2778 N   0  0  0  0  0  0
  -30.1319  -15.8258   20.7013 N   0  0  0  0  0  0
  -31.4529  -12.4710   19.1081 H   0  0  0  0  0  0
  -30.3404  -11.3915   19.8913 H   0  0  0  0  0  0
  -29.7531  -11.7317   17.4632 H   0  0  0  0  0  0
  -29.6079  -13.4528   17.7265 H   0  0  0  0  0  0
  -27.8706  -11.2394   18.8812 H   0  0  0  0  0  0
  -27.3475  -12.5029   17.7968 H   0  0  0  0  0  0
  -27.6115  -14.1655   19.4380 H   0  0  0  0  0  0
  -28.7421  -12.0520   21.3623 H   0  0  0  0  0  0
  -28.4716  -13.6810   21.8496 H   0  0  0  0  0  0
  -25.2698   -9.5634   22.4796 H   0  0  0  0  0  0
  -23.9951   -7.4576   22.7481 H   0  0  0  0  0  0
  -21.0800   -8.8724   19.8942 H   0  0  0  0  0  0
  -22.3645  -10.9641   19.6188 H   0  0  0  0  0  0
  -21.1971   -7.6130   23.9702 H   0  0  0  0  0  0
  -21.1485   -6.0516   25.9078 H   0  0  0  0  0  0
  -22.0604   -2.7593   23.2865 H   0  0  0  0  0  0
  -22.4044  -11.9871   22.4807 H   0  0  0  0  0  0
  -21.1075  -13.1267   22.2632 H   0  0  0  0  0  0
  -24.6613  -15.8303   20.5324 H   0  0  0  0  0  0
  -26.2805  -15.6159   20.0990 H   0  0  0  0  0  0
  -26.7130  -32.5524   23.1134 H   0  0  0  0  0  0
  -25.0055  -33.9748   25.0458 H   0  0  0  0  0  0
  -22.6947  -31.3016   21.4046 H   0  0  0  0  0  0
  -23.3749  -35.9632   23.3306 H   0  0  0  0  0  0
  -24.3586  -36.8921   22.2050 H   0  0  0  0  0  0
  -23.7237  -37.6500   23.6667 H   0  0  0  0  0  0
  -26.0457  -31.5952   20.5930 H   0  0  0  0  0  0
  -26.8226  -30.8820   21.9788 H   0  0  0  0  0  0
  -28.1103  -29.0973   21.1514 H   0  0  0  0  0  0
  -26.0536  -25.9427   19.0472 H   0  0  0  0  0  0
  -23.9814  -27.2685   19.0589 H   0  0  0  0  0  0
  -23.7276  -30.5869   19.4041 H   0  0  0  0  0  0
  -22.7413  -29.2333   19.8686 H   0  0  0  0  0  0
  -25.1280  -36.1943   25.0823 H   0  0  0  0  0  0
  -20.9920  -28.3228   24.1440 H   0  0  0  0  0  0
  -20.5669  -26.2260   23.3597 H   0  0  0  0  0  0
  -21.6638  -26.7451   22.1195 H   0  0  0  0  0  0
  -19.6922  -25.6296   21.1227 H   0  0  0  0  0  0
  -19.6694  -27.3197   20.6744 H   0  0  0  0  0  0
  -17.4189  -26.6657   21.4012 H   0  0  0  0  0  0
  -18.0320  -26.0054   22.8998 H   0  0  0  0  0  0
  -19.7943  -30.7233   24.2270 H   0  0  0  0  0  0
  -17.5035  -31.6267   24.5152 H   0  0  0  0  0  0
  -15.5353  -30.2983   23.7678 H   0  0  0  0  0  0
  -15.8651  -28.0826   22.7062 H   0  0  0  0  0  0
  -24.5926  -30.7020   25.7801 H   0  0  0  0  0  0
  -24.8923  -32.2822   26.4921 H   0  0  0  0  0  0
  -25.8102  -30.8846   27.0207 H   0  0  0  0  0  0
  -26.2856  -29.6776   24.1167 H   0  0  0  0  0  0
  -27.4151  -29.7291   25.4513 H   0  0  0  0  0  0
  -27.8664  -30.4370   23.9179 H   0  0  0  0  0  0
  -27.2662  -33.3608   26.2062 H   0  0  0  0  0  0
  -28.3852  -32.6874   25.0293 H   0  0  0  0  0  0
  -28.0724  -31.8421   26.5379 H   0  0  0  0  0  0
  -28.2578  -38.0111   24.7528 H   0  0  0  0  0  0
  -28.1076  -36.2633   24.6263 H   0  0  0  0  0  0
  -27.2292  -37.1415   25.8869 H   0  0  0  0  0  0
  -20.9331  -29.8733   21.6941 H   0  0  0  0  0  0
  -26.0171  -38.2846   24.1451 H   0  0  0  0  0  0
  -30.1076  -22.8612   19.4325 H   0  0  0  0  0  0
  -28.5698  -22.1675   19.0065 H   0  0  0  0  0  0
  -29.0569  -23.5269   23.0384 H   0  0  0  0  0  0
  -30.5634  -23.2709   22.2070 H   0  0  0  0  0  0
  -27.5215  -24.2303   18.8178 H   0  0  0  0  0  0
  -29.1525  -24.7681   18.5530 H   0  0  0  0  0  0
  -30.4538  -25.2155   21.0032 H   0  0  0  0  0  0
  -29.4612  -25.7216   22.3386 H   0  0  0  0  0  0
  -27.7535  -22.6506   21.2818 H   0  0  0  0  0  0
  -27.4275  -25.0899   21.0353 H   0  0  0  0  0  0
  -25.6713  -20.0723   24.4560 H   0  0  0  0  0  0
  -27.3662  -19.7996   24.8391 H   0  0  0  0  0  0
  -26.5217  -18.7141   23.7331 H   0  0  0  0  0  0
  -31.1006  -17.8399   24.0154 H   0  0  0  0  0  0
  -31.6728  -16.4032   23.1768 H   0  0  0  0  0  0
  -29.9530  -16.7562   23.2541 H   0  0  0  0  0  0
  -32.6296  -19.2810   22.6973 H   0  0  0  0  0  0
  -32.6874  -19.1882   20.9417 H   0  0  0  0  0  0
  -33.2416  -17.8327   21.9086 H   0  0  0  0  0  0
  -28.4965  -17.1940   20.7688 H   0  0  0  0  0  0
  -28.0543  -15.6030   21.2049 H   0  0  0  0  0  0
  -28.4237  -16.0415   19.4977 H   0  0  0  0  0  0
  -27.0463  -21.6904   23.2006 H   0  0  0  0  0  0
  -26.2822  -20.5921   22.0657 H   0  0  0  0  0  0
  -31.9157  -16.8912   20.2021 H   0  0  0  0  0  0
  -30.5035  -17.6921   19.7409 H   0  0  0  0  0  0
  1 25  1  0  0  0
  1 30  2  0  0  0
  1 89  1  0  0  0
  2  3  1  0  0  0
  2 25  1  0  0  0
  2 90  1  0  0  0
  2 91  1  0  0  0
  3  4  1  0  0  0
  3 92  1  0  0  0
  3 93  1  0  0  0
  4  5  1  0  0  0
  4 94  1  0  0  0
  4 95  1  0  0  0
  5  6  1  0  0  0
  5 26  1  0  0  0
  5 96  1  0  0  0
  6 25  1  0  0  0
  6 97  1  0  0  0
  6 98  1  0  0  0
  7  8  2  0  0  0
  7 26  1  0  0  0
  7 29  1  0  0  0
  8  9  1  0  0  0
  8 22  1  0  0  0
  9 10  1  0  0  0
  9 27  2  0  0  0
 10 11  2  0  0  0
 10 15  1  0  0  0
 11 12  1  0  0  0
 11 99  1  0  0  0
 12 13  2  0  0  0
 12100  1  0  0  0
 13 14  1  0  0  0
 13 31  1  0  0  0
 14 15  2  0  0  0
 14101  1  0  0  0
 15102  1  0  0  0
 16 17  2  0  0  0
 16 21  1  0  0  0
 16 31  1  0  0  0
 17 18  1  0  0  0
 17103  1  0  0  0
 18 19  2  0  0  0
 18104  1  0  0  0
 19 20  1  0  0  0
 19 24  1  0  0  0
 20 21  2  0  0  0
 20105  1  0  0  0
 21 23  1  0  0  0
 22 28  1  0  0  0
 22 32  2  0  0  0
 26 27  1  0  0  0
 28106  1  0  0  0
 28107  1  0  0  0
 29108  1  0  0  0
 29109  1  0  0  0
 33 34  1  0  0  0
 33 66  1  0  0  0
 33 70  2  0  0  0
 34 36  1  0  0  0
 34 59  1  0  0  0
 34110  1  0  0  0
 35 44  2  0  0  0
 35 45  1  0  0  0
 35 68  1  0  0  0
 36 56  1  0  0  0
 36111  1  0  0  0
 37 39  1  0  0  0
 37 47  1  0  0  0
 37 66  1  0  0  0
 37112  1  0  0  0
 38 43  2  0  0  0
 38 46  1  0  0  0
 38 47  1  0  0  0
 39 64  1  0  0  0
 39 67  2  0  0  0
 40 52  1  0  0  0
 40 53  2  0  0  0
 40 58  1  0  0  0
 41113  1  0  0  0
 41114  1  0  0  0
 41115  1  0  0  0
 41 48  1  0  0  0
 42 43  1  0  0  0
 42 66  1  0  0  0
 42116  1  0  0  0
 42117  1  0  0  0
 43 44  1  0  0  0
 44118  1  0  0  0
 45 46  2  0  0  0
 45119  1  0  0  0
 46120  1  0  0  0
 47121  1  0  0  0
 47122  1  0  0  0
 48 56  1  0  0  0
 48 65  1  0  0  0
 48123  1  0  0  0
 49 50  1  0  0  0
 49 53  1  0  0  0
 49 64  1  0  0  0
 49124  1  0  0  0
 50 51  1  0  0  0
 50125  1  0  0  0
 50126  1  0  0  0
 51 52  1  0  0  0
 51127  1  0  0  0
 51128  1  0  0  0
 52129  1  0  0  0
 52130  1  0  0  0
 53 54  1  0  0  0
 54 55  2  0  0  0
 54131  1  0  0  0
 55 57  1  0  0  0
 55132  1  0  0  0
 56 69  2  0  0  0
 57 58  2  0  0  0
 57133  1  0  0  0
 58134  1  0  0  0
 59 60  1  0  0  0
 59 61  1  0  0  0
 59 62  1  0  0  0
 60135  1  0  0  0
 60136  1  0  0  0
 60137  1  0  0  0
 61138  1  0  0  0
 61139  1  0  0  0
 61140  1  0  0  0
 62141  1  0  0  0
 62142  1  0  0  0
 62143  1  0  0  0
 63 65  1  0  0  0
 63144  1  0  0  0
 63145  1  0  0  0
 63146  1  0  0  0
 64147  1  0  0  0
 65148  1  0  0  0
 68 78  1  0  0  0
 71 86  2  0  0  0
 71 88  1  0  0  0
 71 77  1  0  0  0
 72 85  1  0  0  0
 72 86  1  0  0  0
 72 87  2  0  0  0
 73 75  1  0  0  0
 73 77  1  0  0  0
 73149  1  0  0  0
 73150  1  0  0  0
 74 76  1  0  0  0
 74 77  1  0  0  0
 74151  1  0  0  0
 74152  1  0  0  0
 75 78  1  0  0  0
 75153  1  0  0  0
 75154  1  0  0  0
 76 78  1  0  0  0
 76155  1  0  0  0
 76156  1  0  0  0
 77157  1  0  0  0
 78158  1  0  0  0
 79 83  1  0  0  0
 79159  1  0  0  0
 79160  1  0  0  0
 79161  1  0  0  0
 80162  1  0  0  0
 80163  1  0  0  0
 80164  1  0  0  0
 80 85  1  0  0  0
 81 85  1  0  0  0
 81165  1  0  0  0
 81166  1  0  0  0
 81167  1  0  0  0
 82 89  1  0  0  0
 82168  1  0  0  0
 82169  1  0  0  0
 82170  1  0  0  0
 83 88  1  0  0  0
 83171  1  0  0  0
 83172  1  0  0  0
 84 85  1  0  0  0
 84 89  1  0  0  0
 84173  1  0  0  0
 84174  1  0  0  0
 87 88  1  0  0  0
M  ISO  4   1 100  68 101  78 101  89 100
M  END
> <chiral flag>
0

> <version>
0

> <s_m_source_file>
/data/baiqing/PycharmProjects/Reinvent-master-3.2/result/LINK_invent/BTK/process_docking_weight1_custom_sum_contain_oxygen_bond_distance_aromatic_linkinvent_7_9_3/rearranged_h_0063.sdf

> <i_m_source_file_index>
7

> <r_mmod_Potential_Energy-OPLS-2005>
196.839981079102

> <r_mmod_Stretch_Energy-OPLS-2005>
57.4318695068359

> <r_mmod_Bend_Energy-OPLS-2005>
154.615646362305

> <r_mmod_Torsional_Energy-OPLS-2005>
328.951263427734

> <r_mmod_Improper_Torsional_Energy-OPLS-2005>
6.39717149734497

> <r_mmod_Van_der_Waal_Energy-OPLS-2005>
157.912948608398

> <r_mmod_Electrostatic_Energy-OPLS-2005>
-348.836975097656

> <r_mmod_Solvation_Energy-OPLS-2005>
-194.043869018555

> <b_mmod_Minimization_Converged-OPLS-2005>
0

> <r_mmod_RMS_Derivative-OPLS-2005>
1.42016243934631

$$$$
8
                    3D
 Structure written by MMmdl.
175183  0  0  1  0            999 V2000
  -30.7323  -14.5245   20.3258 C   0  0  0  0  0  0
  -30.4168  -12.2841   19.4263 C   0  0  0  0  0  0
  -29.4700  -12.3820   18.2086 C   0  0  0  0  0  0
  -27.9997  -12.3132   18.6506 C   0  0  0  0  0  0
  -27.6608  -13.2172   19.8645 C   0  0  2  0  0  0
  -28.7351  -13.1221   20.9797 C   0  0  0  0  0  0
  -25.2638  -13.8257   20.5734 C   0  0  0  0  0  0
  -24.1877  -13.0497   20.9294 C   0  0  0  0  0  0
  -24.6461  -11.6996   20.8865 C   0  0  0  0  0  0
  -23.9118  -10.4366   21.0481 C   0  0  0  0  0  0
  -24.3644   -9.4253   21.9256 C   0  0  0  0  0  0
  -23.6309   -8.2271   22.0770 C   0  0  0  0  0  0
  -22.4295   -8.0306   21.3542 C   0  0  0  0  0  0
  -21.9951   -9.0336   20.4702 C   0  0  0  0  0  0
  -22.7286  -10.2225   20.3131 C   0  0  0  0  0  0
  -21.6853   -6.0755   22.5251 C   0  0  0  0  0  0
  -21.4038   -6.5663   23.8196 C   0  0  0  0  0  0
  -21.3663   -5.6811   24.9139 C   0  0  0  0  0  0
  -21.6033   -4.3077   24.7196 C   0  0  0  0  0  0
  -21.8825   -3.8159   23.4330 C   0  0  0  0  0  0
  -21.9208   -4.6977   22.3379 C   0  0  0  0  0  0
  -22.7888  -13.5312   21.1913 C   0  0  0  0  0  0
  -22.1665   -4.2172   21.0956 F   0  0  0  0  0  0
  -21.5631   -3.4550   25.7700 F   0  0  0  0  0  0
  -30.0427  -13.3551   20.3550 N   0  0  0  0  0  0
  -26.3109  -12.9431   20.3496 N   0  0  0  0  0  0
  -25.9422  -11.6615   20.6015 N   0  0  0  0  0  0
  -22.0526  -12.8226   22.0409 N   0  0  0  0  0  0
  -25.4267  -15.1945   20.3998 N   0  0  0  0  0  0
  -31.9620  -14.5442   20.3977 O   0  0  0  0  0  0
  -21.6643   -6.8891   21.4202 O   0  0  0  0  0  0
  -22.3556  -14.5623   20.6848 O   0  0  0  0  0  0
  -24.6053  -31.8650   23.2129 C   0  0  0  0  0  0
  -25.8980  -32.4779   23.8352 C   0  0  1  0  0  0
  -27.2371  -27.4607   20.0693 C   0  0  0  0  0  0
  -25.5882  -33.8583   24.2288 N   0  0  0  0  0  0
  -23.3888  -30.4902   21.5545 C   0  0  2  0  0  0
  -24.8348  -28.9659   20.1202 C   0  0  0  0  0  0
  -22.7312  -29.4631   22.5010 C   0  0  0  0  0  0
  -18.0252  -28.1351   22.8605 C   0  0  0  0  0  0
  -24.1522  -36.7334   23.2633 C   0  0  0  0  0  0
  -25.9096  -30.8492   21.3579 C   0  0  0  0  0  0
  -25.9944  -29.4809   20.7107 C   0  0  0  0  0  0
  -27.1883  -28.7276   20.7026 C   0  0  0  0  0  0
  -26.0527  -26.9652   19.4781 C   0  0  0  0  0  0
  -24.8574  -27.7008   19.5125 C   0  0  0  0  0  0
  -23.5939  -29.8217   20.1703 C   0  0  0  0  0  0
  -25.4121  -36.3083   24.0329 C   0  0  1  0  0  0
  -20.5842  -28.3587   23.1458 C   0  0  2  0  0  0
  -20.6782  -26.9330   22.5498 C   0  0  0  0  0  0
  -19.5715  -26.6385   21.5329 C   0  0  0  0  0  0
  -18.1878  -26.7906   22.1733 C   0  0  0  0  0  0
  -19.1494  -28.8793   23.3043 C   0  0  0  0  0  0
  -18.9421  -30.1458   23.8936 C   0  0  0  0  0  0
  -17.6410  -30.6574   24.0606 C   0  0  0  0  0  0
  -25.9058  -34.9461   23.5098 C   0  0  0  0  0  0
  -16.5313  -29.9073   23.6360 C   0  0  0  0  0  0
  -16.7245  -28.6522   23.0334 C   0  0  0  0  0  0
  -26.4431  -31.6574   25.0694 C   0  0  0  0  0  0
  -25.3674  -31.3753   26.1463 C   0  0  0  0  0  0
  -27.0316  -30.3020   24.6125 C   0  0  0  0  0  0
  -27.6059  -32.4241   25.7455 C   0  0  0  0  0  0
  -27.5571  -37.1821   24.8432 C   0  0  0  0  0  0
  -21.4044  -29.2941   22.3783 N   0  0  0  0  0  0
  -26.4291  -37.3779   23.9372 N   0  0  0  0  0  0
  -24.6534  -31.0777   22.1024 N   0  0  0  0  0  0
  -23.4116  -28.8230   23.3065 O   0  0  0  0  0  0
  -28.4361  -26.7735   20.0500 O   0  0  0  0  0  0
  -26.5613  -34.8949   22.4651 O   0  0  0  0  0  0
  -23.5292  -32.1401   23.7554 O   0  0  0  0  0  0
  -28.0968  -18.1396   18.9637 C   0  0  0  0  0  0
  -28.8605  -19.1922   19.4922 C   0  0  0  0  0  0
  -29.9226  -18.8147   20.3509 C   0  0  0  0  0  0
  -29.5147  -16.5883   19.8722 C   0  0  0  0  0  0
  -31.8560  -19.2158   22.0402 C   0  0  0  0  0  0
  -26.6727  -21.6901   23.7021 C   0  0  0  0  0  0
  -30.8363  -15.6039   18.1755 C   0  0  0  0  0  0
  -28.5675  -20.6336   19.0527 C   0  0  0  0  0  0
  -30.8017  -19.8311   21.0893 C   0  0  0  0  0  0
  -27.4062  -22.4552   22.5737 C   0  0  0  0  0  0
  -27.1505  -21.1308   19.4095 C   0  0  0  0  0  0
  -26.4120  -23.1129   21.5765 C   0  0  0  0  0  0
  -26.8961  -22.6403   19.1272 C   0  0  0  0  0  0
  -28.3090  -24.3054   20.4086 C   0  0  0  0  0  0
  -28.5482  -25.4829   19.4195 C   0  0  0  0  0  0
  -28.4100  -16.8506   19.1722 N   0  0  0  0  0  0
  -30.2450  -17.5133   20.5007 N   0  0  0  0  0  0
  -30.1650  -15.4339   19.4872 N   0  0  0  0  0  0
  -26.9999  -23.5933   20.2853 N   0  3  1  0  0  0
  -31.4495  -12.3716   19.0866 H   0  0  0  0  0  0
  -30.3320  -11.3113   19.9184 H   0  0  0  0  0  0
  -29.6772  -11.5575   17.5262 H   0  0  0  0  0  0
  -29.6306  -13.2969   17.6452 H   0  0  0  0  0  0
  -27.8096  -11.2735   18.9173 H   0  0  0  0  0  0
  -27.3390  -12.5405   17.8156 H   0  0  0  0  0  0
  -27.6609  -14.2408   19.5000 H   0  0  0  0  0  0
  -28.7166  -12.1461   21.4674 H   0  0  0  0  0  0
  -28.5520  -13.8632   21.7612 H   0  0  0  0  0  0
  -25.2794   -9.5662   22.4869 H   0  0  0  0  0  0
  -23.9998   -7.4649   22.7530 H   0  0  0  0  0  0
  -21.0869   -8.8929   19.9051 H   0  0  0  0  0  0
  -22.3773  -10.9794   19.6266 H   0  0  0  0  0  0
  -21.2025   -7.6188   23.9674 H   0  0  0  0  0  0
  -21.1458   -6.0561   25.9049 H   0  0  0  0  0  0
  -22.0589   -2.7643   23.2832 H   0  0  0  0  0  0
  -22.4173  -11.9803   22.4601 H   0  0  0  0  0  0
  -21.1247  -13.1364   22.2807 H   0  0  0  0  0  0
  -24.6603  -15.8413   20.5424 H   0  0  0  0  0  0
  -26.2272  -15.6178   19.9346 H   0  0  0  0  0  0
  -26.7062  -32.5564   23.1156 H   0  0  0  0  0  0
  -24.9898  -33.9714   25.0338 H   0  0  0  0  0  0
  -22.6774  -31.3056   21.4105 H   0  0  0  0  0  0
  -23.3752  -35.9705   23.3293 H   0  0  0  0  0  0
  -24.3637  -36.8936   22.2044 H   0  0  0  0  0  0
  -23.7345  -37.6571   23.6663 H   0  0  0  0  0  0
  -25.9772  -31.6199   20.5888 H   0  0  0  0  0  0
  -26.8033  -30.9167   21.9620 H   0  0  0  0  0  0
  -28.0751  -29.1258   21.1761 H   0  0  0  0  0  0
  -26.0208  -26.0218   18.9678 H   0  0  0  0  0  0
  -23.9691  -27.2925   19.0516 H   0  0  0  0  0  0
  -23.6835  -30.5874   19.3975 H   0  0  0  0  0  0
  -22.7280  -29.2201   19.8934 H   0  0  0  0  0  0
  -25.1329  -36.1922   25.0830 H   0  0  0  0  0  0
  -20.9943  -28.3090   24.1589 H   0  0  0  0  0  0
  -20.5811  -26.2092   23.3599 H   0  0  0  0  0  0
  -21.6643  -26.7466   22.1192 H   0  0  0  0  0  0
  -19.6863  -25.6341   21.1233 H   0  0  0  0  0  0
  -19.6703  -27.3330   20.6964 H   0  0  0  0  0  0
  -17.4183  -26.6744   21.4089 H   0  0  0  0  0  0
  -18.0246  -26.0035   22.9101 H   0  0  0  0  0  0
  -19.7890  -30.7347   24.2223 H   0  0  0  0  0  0
  -17.4945  -31.6274   24.5161 H   0  0  0  0  0  0
  -15.5301  -30.2945   23.7704 H   0  0  0  0  0  0
  -15.8673  -28.0903   22.6885 H   0  0  0  0  0  0
  -24.5818  -30.7141   25.7777 H   0  0  0  0  0  0
  -24.8955  -32.2987   26.4870 H   0  0  0  0  0  0
  -25.8018  -30.8916   27.0237 H   0  0  0  0  0  0
  -26.3028  -29.6774   24.0980 H   0  0  0  0  0  0
  -27.3828  -29.7250   25.4689 H   0  0  0  0  0  0
  -27.8927  -30.4307   23.9552 H   0  0  0  0  0  0
  -27.2730  -33.3497   26.2181 H   0  0  0  0  0  0
  -28.3868  -32.6800   25.0260 H   0  0  0  0  0  0
  -28.0758  -31.8218   26.5258 H   0  0  0  0  0  0
  -28.2572  -38.0127   24.7476 H   0  0  0  0  0  0
  -28.1098  -36.2657   24.6314 H   0  0  0  0  0  0
  -27.2276  -37.1540   25.8828 H   0  0  0  0  0  0
  -20.9044  -29.8585   21.7056 H   0  0  0  0  0  0
  -26.0164  -38.2845   24.1405 H   0  0  0  0  0  0
  -27.2705  -18.3353   18.2984 H   0  0  0  0  0  0
  -31.3955  -18.6230   22.8291 H   0  0  0  0  0  0
  -32.4471  -19.9883   22.5331 H   0  0  0  0  0  0
  -32.5418  -18.5640   21.4958 H   0  0  0  0  0  0
  -26.1011  -22.3654   24.3489 H   0  0  0  0  0  0
  -27.3720  -21.1469   24.3375 H   0  0  0  0  0  0
  -25.9808  -20.9400   23.3164 H   0  0  0  0  0  0
  -31.4872  -16.4782   18.1975 H   0  0  0  0  0  0
  -30.0987  -15.7558   17.3832 H   0  0  0  0  0  0
  -31.4622  -14.7621   17.8815 H   0  0  0  0  0  0
  -28.6607  -20.6560   17.9620 H   0  0  0  0  0  0
  -29.3276  -21.3265   19.4051 H   0  0  0  0  0  0
  -30.1462  -20.4648   21.6813 H   0  0  0  0  0  0
  -31.2845  -20.4953   20.3683 H   0  0  0  0  0  0
  -28.1177  -21.8008   22.0664 H   0  0  0  0  0  0
  -28.0266  -23.2248   23.0263 H   0  0  0  0  0  0
  -26.8896  -20.8464   20.4218 H   0  0  0  0  0  0
  -26.4428  -20.5838   18.7820 H   0  0  0  0  0  0
  -25.9431  -23.9631   22.0757 H   0  0  0  0  0  0
  -25.5990  -22.4150   21.3715 H   0  0  0  0  0  0
  -25.8764  -22.7251   18.7563 H   0  0  0  0  0  0
  -27.5195  -22.9678   18.2939 H   0  0  0  0  0  0
  -29.1053  -23.5680   20.2831 H   0  0  0  0  0  0
  -28.4147  -24.7247   21.4092 H   0  0  0  0  0  0
  -28.0004  -25.4009   18.4825 H   0  0  0  0  0  0
  -29.5912  -25.4296   19.1024 H   0  0  0  0  0  0
  -26.3405  -24.3146   20.0244 H   0  0  0  0  0  0
  1 25  1  0  0  0
  1 30  2  0  0  0
  1 88  1  0  0  0
  2  3  1  0  0  0
  2 25  1  0  0  0
  2 90  1  0  0  0
  2 91  1  0  0  0
  3  4  1  0  0  0
  3 92  1  0  0  0
  3 93  1  0  0  0
  4  5  1  0  0  0
  4 94  1  0  0  0
  4 95  1  0  0  0
  5  6  1  0  0  0
  5 26  1  0  0  0
  5 96  1  0  0  0
  6 25  1  0  0  0
  6 97  1  0  0  0
  6 98  1  0  0  0
  7  8  2  0  0  0
  7 26  1  0  0  0
  7 29  1  0  0  0
  8  9  1  0  0  0
  8 22  1  0  0  0
  9 10  1  0  0  0
  9 27  2  0  0  0
 10 11  2  0  0  0
 10 15  1  0  0  0
 11 12  1  0  0  0
 11 99  1  0  0  0
 12 13  2  0  0  0
 12100  1  0  0  0
 13 14  1  0  0  0
 13 31  1  0  0  0
 14 15  2  0  0  0
 14101  1  0  0  0
 15102  1  0  0  0
 16 17  2  0  0  0
 16 21  1  0  0  0
 16 31  1  0  0  0
 17 18  1  0  0  0
 17103  1  0  0  0
 18 19  2  0  0  0
 18104  1  0  0  0
 19 20  1  0  0  0
 19 24  1  0  0  0
 20 21  2  0  0  0
 20105  1  0  0  0
 21 23  1  0  0  0
 22 28  1  0  0  0
 22 32  2  0  0  0
 26 27  1  0  0  0
 28106  1  0  0  0
 28107  1  0  0  0
 29108  1  0  0  0
 29109  1  0  0  0
 33 34  1  0  0  0
 33 66  1  0  0  0
 33 70  2  0  0  0
 34 36  1  0  0  0
 34 59  1  0  0  0
 34110  1  0  0  0
 35 44  2  0  0  0
 35 45  1  0  0  0
 35 68  1  0  0  0
 36 56  1  0  0  0
 36111  1  0  0  0
 37 39  1  0  0  0
 37 47  1  0  0  0
 37 66  1  0  0  0
 37112  1  0  0  0
 38 43  2  0  0  0
 38 46  1  0  0  0
 38 47  1  0  0  0
 39 64  1  0  0  0
 39 67  2  0  0  0
 40 52  1  0  0  0
 40 53  2  0  0  0
 40 58  1  0  0  0
 41113  1  0  0  0
 41114  1  0  0  0
 41115  1  0  0  0
 41 48  1  0  0  0
 42 43  1  0  0  0
 42 66  1  0  0  0
 42116  1  0  0  0
 42117  1  0  0  0
 43 44  1  0  0  0
 44118  1  0  0  0
 45 46  2  0  0  0
 45119  1  0  0  0
 46120  1  0  0  0
 47121  1  0  0  0
 47122  1  0  0  0
 48 56  1  0  0  0
 48 65  1  0  0  0
 48123  1  0  0  0
 49 50  1  0  0  0
 49 53  1  0  0  0
 49 64  1  0  0  0
 49124  1  0  0  0
 50 51  1  0  0  0
 50125  1  0  0  0
 50126  1  0  0  0
 51 52  1  0  0  0
 51127  1  0  0  0
 51128  1  0  0  0
 52129  1  0  0  0
 52130  1  0  0  0
 53 54  1  0  0  0
 54 55  2  0  0  0
 54131  1  0  0  0
 55 57  1  0  0  0
 55132  1  0  0  0
 56 69  2  0  0  0
 57 58  2  0  0  0
 57133  1  0  0  0
 58134  1  0  0  0
 59 60  1  0  0  0
 59 61  1  0  0  0
 59 62  1  0  0  0
 60135  1  0  0  0
 60136  1  0  0  0
 60137  1  0  0  0
 61138  1  0  0  0
 61139  1  0  0  0
 61140  1  0  0  0
 62141  1  0  0  0
 62142  1  0  0  0
 62143  1  0  0  0
 63 65  1  0  0  0
 63144  1  0  0  0
 63145  1  0  0  0
 63146  1  0  0  0
 64147  1  0  0  0
 65148  1  0  0  0
 68 85  1  0  0  0
 71 72  2  0  0  0
 71 86  1  0  0  0
 71149  1  0  0  0
 72 73  1  0  0  0
 72 78  1  0  0  0
 73 79  1  0  0  0
 73 87  2  0  0  0
 74 86  2  0  0  0
 74 87  1  0  0  0
 74 88  1  0  0  0
 75 79  1  0  0  0
 75150  1  0  0  0
 75151  1  0  0  0
 75152  1  0  0  0
 76 80  1  0  0  0
 76153  1  0  0  0
 76154  1  0  0  0
 76155  1  0  0  0
 77 88  1  0  0  0
 77156  1  0  0  0
 77157  1  0  0  0
 77158  1  0  0  0
 78 81  1  0  0  0
 78159  1  0  0  0
 78160  1  0  0  0
 79161  1  0  0  0
 79162  1  0  0  0
 80 82  1  0  0  0
 80163  1  0  0  0
 80164  1  0  0  0
 81 83  1  0  0  0
 81165  1  0  0  0
 81166  1  0  0  0
 82167  1  0  0  0
 82168  1  0  0  0
 82 89  1  0  0  0
 83 89  1  0  0  0
 83169  1  0  0  0
 83170  1  0  0  0
 84 85  1  0  0  0
 84 89  1  0  0  0
 84171  1  0  0  0
 84172  1  0  0  0
 85173  1  0  0  0
 85174  1  0  0  0
 89175  1  0  0  0
M  CHG  1  89   1
M  ISO  4   1 100  68 101  85 101  88 100
M  END
> <chiral flag>
0

> <version>
0

> <s_m_source_file>
/data/baiqing/PycharmProjects/Reinvent-master-3.2/result/LINK_invent/BTK/process_docking_weight1_custom_sum_contain_oxygen_bond_distance_aromatic_linkinvent_7_9_3/rearranged_h_0063.sdf

> <i_m_source_file_index>
8

> <r_mmod_Potential_Energy-OPLS-2005>
-168.720123291016

> <r_mmod_Stretch_Energy-OPLS-2005>
44.1594734191895

> <r_mmod_Bend_Energy-OPLS-2005>
146.156036376953

> <r_mmod_Torsional_Energy-OPLS-2005>
365.383422851562

> <r_mmod_Improper_Torsional_Energy-OPLS-2005>
38.2971801757812

> <r_mmod_Van_der_Waal_Energy-OPLS-2005>
156.483642578125

> <r_mmod_Electrostatic_Energy-OPLS-2005>
-539.224670410156

> <r_mmod_Solvation_Energy-OPLS-2005>
-427.939178466797

> <b_mmod_Minimization_Converged-OPLS-2005>
0

> <r_mmod_RMS_Derivative-OPLS-2005>
8.75245571136475

$$$$
9
                    3D
 Structure written by MMmdl.
178186  0  0  1  0            999 V2000
  -30.6748  -14.5570   20.5817 C   0  0  0  0  0  0
  -30.4334  -12.3627   19.4437 C   0  0  0  0  0  0
  -29.5056  -12.5238   18.2159 C   0  0  0  0  0  0
  -28.0204  -12.3763   18.6113 C   0  0  0  0  0  0
  -27.6570  -13.2013   19.8730 C   0  0  2  0  0  0
  -28.6994  -12.9544   20.9818 C   0  0  0  0  0  0
  -25.2556  -13.8104   20.5683 C   0  0  0  0  0  0
  -24.1817  -13.0387   20.9171 C   0  0  0  0  0  0
  -24.6377  -11.6858   20.8725 C   0  0  0  0  0  0
  -23.9044  -10.4261   21.0409 C   0  0  0  0  0  0
  -24.3596   -9.4178   21.9188 C   0  0  0  0  0  0
  -23.6265   -8.2221   22.0762 C   0  0  0  0  0  0
  -22.4253   -8.0258   21.3543 C   0  0  0  0  0  0
  -21.9886   -9.0233   20.4647 C   0  0  0  0  0  0
  -22.7218  -10.2110   20.3053 C   0  0  0  0  0  0
  -21.6850   -6.0711   22.5267 C   0  0  0  0  0  0
  -21.4012   -6.5623   23.8191 C   0  0  0  0  0  0
  -21.3659   -5.6786   24.9162 C   0  0  0  0  0  0
  -21.6048   -4.3047   24.7222 C   0  0  0  0  0  0
  -21.8822   -3.8129   23.4346 C   0  0  0  0  0  0
  -21.9192   -4.6940   22.3397 C   0  0  0  0  0  0
  -22.7852  -13.5196   21.1841 C   0  0  0  0  0  0
  -22.1666   -4.2119   21.0979 F   0  0  0  0  0  0
  -21.5633   -3.4538   25.7743 F   0  0  0  0  0  0
  -30.0170  -13.3544   20.4621 N   0  0  0  0  0  0
  -26.2988  -12.9269   20.3324 N   0  0  0  0  0  0
  -25.9299  -11.6438   20.5723 N   0  0  0  0  0  0
  -22.0491  -12.8194   22.0401 N   0  0  0  0  0  0
  -25.4262  -15.1826   20.4162 N   0  0  0  0  0  0
  -31.7873  -14.6927   20.0626 O   0  0  0  0  0  0
  -21.6622   -6.8856   21.4229 O   0  0  0  0  0  0
  -22.3555  -14.5521   20.6708 O   0  0  0  0  0  0
  -24.6161  -31.8655   23.2077 C   0  0  0  0  0  0
  -25.9042  -32.4813   23.8382 C   0  0  1  0  0  0
  -27.2380  -27.4065   20.1186 C   0  0  0  0  0  0
  -25.5885  -33.8611   24.2304 N   0  0  0  0  0  0
  -23.4070  -30.4854   21.5481 C   0  0  2  0  0  0
  -24.8584  -28.9453   20.1189 C   0  0  0  0  0  0
  -22.7421  -29.4635   22.4980 C   0  0  0  0  0  0
  -18.0269  -28.1375   22.8484 C   0  0  0  0  0  0
  -24.1489  -36.7314   23.2639 C   0  0  0  0  0  0
  -25.9380  -30.8228   21.3672 C   0  0  0  0  0  0
  -26.0188  -29.4539   20.7184 C   0  0  0  0  0  0
  -27.2153  -28.6942   20.7101 C   0  0  0  0  0  0
  -26.0669  -26.9226   19.5009 C   0  0  0  0  0  0
  -24.8785  -27.6793   19.5059 C   0  0  0  0  0  0
  -23.6197  -29.8137   20.1651 C   0  0  0  0  0  0
  -25.4109  -36.3100   24.0327 C   0  0  1  0  0  0
  -20.5857  -28.3666   23.1306 C   0  0  2  0  0  0
  -20.6762  -26.9402   22.5412 C   0  0  0  0  0  0
  -19.5743  -26.6378   21.5206 C   0  0  0  0  0  0
  -18.1919  -26.7921   22.1614 C   0  0  0  0  0  0
  -19.1518  -28.8833   23.2894 C   0  0  0  0  0  0
  -18.9452  -30.1436   23.8906 C   0  0  0  0  0  0
  -17.6460  -30.6588   24.0555 C   0  0  0  0  0  0
  -25.9040  -34.9470   23.5117 C   0  0  0  0  0  0
  -16.5344  -29.9088   23.6336 C   0  0  0  0  0  0
  -16.7261  -28.6503   23.0354 C   0  0  0  0  0  0
  -26.4472  -31.6603   25.0722 C   0  0  0  0  0  0
  -25.3732  -31.3727   26.1470 C   0  0  0  0  0  0
  -27.0312  -30.3031   24.6129 C   0  0  0  0  0  0
  -27.6030  -32.4340   25.7491 C   0  0  0  0  0  0
  -27.5583  -37.1804   24.8461 C   0  0  0  0  0  0
  -21.4144  -29.3035   22.3718 N   0  0  0  0  0  0
  -26.4294  -37.3780   23.9405 N   0  0  0  0  0  0
  -24.6715  -31.0741   22.0986 N   0  0  0  0  0  0
  -23.4182  -28.8182   23.3037 O   0  0  0  0  0  0
  -28.3872  -26.6361   20.0907 O   0  0  0  0  0  0
  -26.5618  -34.8922   22.4689 O   0  0  0  0  0  0
  -23.5343  -32.1413   23.7447 O   0  0  0  0  0  0
  -28.8238  -22.9468   18.3999 C   0  0  0  0  0  0
  -29.6643  -22.0307   20.2541 C   0  0  0  0  0  0
  -28.8421  -24.1558   20.2472 C   0  0  0  0  0  0
  -28.9052  -15.7998   22.2025 C   0  0  0  0  0  0
  -32.0230  -21.7903   20.9225 C   0  0  0  0  0  0
  -30.2500  -20.8821   22.4362 C   0  0  0  0  0  0
  -27.3318  -25.2747   21.9396 C   0  0  0  0  0  0
  -29.7673  -25.9269   21.8159 C   0  0  0  0  0  0
  -32.2809  -18.9433   20.8138 C   0  0  0  0  0  0
  -30.9908  -19.4665   18.7913 C   0  0  0  0  0  0
  -29.0090  -16.7841   19.1616 C   0  0  0  0  0  0
  -29.8495  -18.4278   20.8299 C   0  0  0  0  0  0
  -30.1061  -15.8856   21.2332 C   0  0  2  0  0  0
  -30.6697  -21.0209   20.9471 C   0  0  0  0  0  0
  -28.5386  -25.4908   20.9946 C   0  0  0  0  0  0
  -30.9036  -19.5052   20.3396 C   0  0  0  0  0  0
  -29.4155  -21.8997   18.9599 N   0  0  0  0  0  0
  -28.5161  -24.1034   18.9636 N   0  0  0  0  0  0
  -29.3740  -23.1443   20.9477 N   0  0  0  0  0  0
  -29.9953  -17.0336   20.2472 N   0  3  1  0  0  0
  -31.4760  -12.4731   19.1422 H   0  0  0  0  0  0
  -30.3597  -11.3498   19.8428 H   0  0  0  0  0  0
  -29.7609  -11.7875   17.4527 H   0  0  0  0  0  0
  -29.6672  -13.5012   17.7583 H   0  0  0  0  0  0
  -27.8329  -11.3188   18.7980 H   0  0  0  0  0  0
  -27.3761  -12.6561   17.7764 H   0  0  0  0  0  0
  -27.6989  -14.2506   19.5900 H   0  0  0  0  0  0
  -28.7132  -11.8900   21.2219 H   0  0  0  0  0  0
  -28.4171  -13.3994   21.9261 H   0  0  0  0  0  0
  -25.2751   -9.5637   22.4756 H   0  0  0  0  0  0
  -23.9960   -7.4613   22.7491 H   0  0  0  0  0  0
  -21.0814   -8.8743   19.8965 H   0  0  0  0  0  0
  -22.3677  -10.9640   19.6153 H   0  0  0  0  0  0
  -21.2006   -7.6134   23.9673 H   0  0  0  0  0  0
  -21.1488   -6.0532   25.9060 H   0  0  0  0  0  0
  -22.0612   -2.7591   23.2851 H   0  0  0  0  0  0
  -22.4088  -11.9833   22.4771 H   0  0  0  0  0  0
  -21.1122  -13.1242   22.2616 H   0  0  0  0  0  0
  -24.6620  -15.8352   20.5510 H   0  0  0  0  0  0
  -26.2737  -15.6274   20.0987 H   0  0  0  0  0  0
  -26.7110  -32.5522   23.1146 H   0  0  0  0  0  0
  -25.0021  -33.9772   25.0436 H   0  0  0  0  0  0
  -22.6963  -31.3017   21.4057 H   0  0  0  0  0  0
  -23.3741  -35.9661   23.3301 H   0  0  0  0  0  0
  -24.3581  -36.8939   22.2057 H   0  0  0  0  0  0
  -23.7260  -37.6516   23.6671 H   0  0  0  0  0  0
  -26.0547  -31.5869   20.5973 H   0  0  0  0  0  0
  -26.8236  -30.8772   21.9885 H   0  0  0  0  0  0
  -28.1140  -29.0855   21.1668 H   0  0  0  0  0  0
  -26.0761  -25.9526   19.0238 H   0  0  0  0  0  0
  -23.9880  -27.2826   19.0374 H   0  0  0  0  0  0
  -23.7278  -30.5867   19.4041 H   0  0  0  0  0  0
  -22.7451  -29.2322   19.8694 H   0  0  0  0  0  0
  -25.1284  -36.1960   25.0816 H   0  0  0  0  0  0
  -20.9937  -28.3243   24.1430 H   0  0  0  0  0  0
  -20.5661  -26.2279   23.3601 H   0  0  0  0  0  0
  -21.6637  -26.7455   22.1207 H   0  0  0  0  0  0
  -19.6907  -25.6288   21.1240 H   0  0  0  0  0  0
  -19.6680  -27.3187   20.6733 H   0  0  0  0  0  0
  -17.4188  -26.6657   21.4020 H   0  0  0  0  0  0
  -18.0326  -26.0056   22.9005 H   0  0  0  0  0  0
  -19.7933  -30.7233   24.2291 H   0  0  0  0  0  0
  -17.5028  -31.6272   24.5149 H   0  0  0  0  0  0
  -15.5346  -30.2995   23.7670 H   0  0  0  0  0  0
  -15.8653  -28.0827   22.7075 H   0  0  0  0  0  0
  -24.5874  -30.7112   25.7801 H   0  0  0  0  0  0
  -24.8962  -32.2899   26.4936 H   0  0  0  0  0  0
  -25.8073  -30.8868   27.0217 H   0  0  0  0  0  0
  -26.2868  -29.6783   24.1174 H   0  0  0  0  0  0
  -27.4047  -29.7279   25.4610 H   0  0  0  0  0  0
  -27.8724  -30.4315   23.9311 H   0  0  0  0  0  0
  -27.2621  -33.3623   26.2091 H   0  0  0  0  0  0
  -28.3837  -32.6937   25.0329 H   0  0  0  0  0  0
  -28.0713  -31.8466   26.5398 H   0  0  0  0  0  0
  -28.2588  -38.0113   24.7515 H   0  0  0  0  0  0
  -28.1091  -36.2643   24.6277 H   0  0  0  0  0  0
  -27.2302  -37.1436   25.8863 H   0  0  0  0  0  0
  -20.9312  -29.8767   21.6943 H   0  0  0  0  0  0
  -26.0182  -38.2856   24.1399 H   0  0  0  0  0  0
  -28.5981  -22.8569   17.3475 H   0  0  0  0  0  0
  -28.7299  -16.7392   22.7235 H   0  0  0  0  0  0
  -29.0937  -15.0762   22.9953 H   0  0  0  0  0  0
  -27.9730  -15.5525   21.6989 H   0  0  0  0  0  0
  -31.9191  -22.8045   21.3085 H   0  0  0  0  0  0
  -32.4108  -21.8822   19.9088 H   0  0  0  0  0  0
  -32.7916  -21.3357   21.5451 H   0  0  0  0  0  0
  -30.2835  -21.8378   22.9600 H   0  0  0  0  0  0
  -30.9026  -20.2134   22.9950 H   0  0  0  0  0  0
  -29.2273  -20.5168   22.5289 H   0  0  0  0  0  0
  -27.5518  -24.4987   22.6726 H   0  0  0  0  0  0
  -26.4487  -24.9510   21.3900 H   0  0  0  0  0  0
  -27.0758  -26.1758   22.4960 H   0  0  0  0  0  0
  -30.0440  -25.1736   22.5534 H   0  0  0  0  0  0
  -29.5765  -26.8546   22.3549 H   0  0  0  0  0  0
  -30.6303  -26.0848   21.1694 H   0  0  0  0  0  0
  -32.4393  -17.9050   20.5249 H   0  0  0  0  0  0
  -32.3963  -18.9808   21.8969 H   0  0  0  0  0  0
  -33.1203  -19.4821   20.3730 H   0  0  0  0  0  0
  -31.4078  -18.5312   18.4186 H   0  0  0  0  0  0
  -31.6295  -20.2603   18.4036 H   0  0  0  0  0  0
  -30.0166  -19.5717   18.3172 H   0  0  0  0  0  0
  -29.0112  -17.5802   18.4192 H   0  0  0  0  0  0
  -27.9966  -16.7201   19.5574 H   0  0  0  0  0  0
  -29.2234  -15.8659   18.6156 H   0  0  0  0  0  0
  -28.8364  -18.7950   20.6600 H   0  0  0  0  0  0
  -29.9401  -18.3468   21.9117 H   0  0  0  0  0  0
  -30.9326  -16.1769   21.8836 H   0  0  0  0  0  0
  -30.8994  -17.0280   19.7930 H   0  0  0  0  0  0
  1 25  1  0  0  0
  1 30  2  0  0  0
  1 83  1  0  0  0
  2  3  1  0  0  0
  2 25  1  0  0  0
  2 91  1  0  0  0
  2 92  1  0  0  0
  3  4  1  0  0  0
  3 93  1  0  0  0
  3 94  1  0  0  0
  4  5  1  0  0  0
  4 95  1  0  0  0
  4 96  1  0  0  0
  5  6  1  0  0  0
  5 26  1  0  0  0
  5 97  1  0  0  0
  6 25  1  0  0  0
  6 98  1  0  0  0
  6 99  1  0  0  0
  7  8  2  0  0  0
  7 26  1  0  0  0
  7 29  1  0  0  0
  8  9  1  0  0  0
  8 22  1  0  0  0
  9 10  1  0  0  0
  9 27  2  0  0  0
 10 11  2  0  0  0
 10 15  1  0  0  0
 11 12  1  0  0  0
 11100  1  0  0  0
 12 13  2  0  0  0
 12101  1  0  0  0
 13 14  1  0  0  0
 13 31  1  0  0  0
 14 15  2  0  0  0
 14102  1  0  0  0
 15103  1  0  0  0
 16 17  2  0  0  0
 16 21  1  0  0  0
 16 31  1  0  0  0
 17 18  1  0  0  0
 17104  1  0  0  0
 18 19  2  0  0  0
 18105  1  0  0  0
 19 20  1  0  0  0
 19 24  1  0  0  0
 20 21  2  0  0  0
 20106  1  0  0  0
 21 23  1  0  0  0
 22 28  1  0  0  0
 22 32  2  0  0  0
 26 27  1  0  0  0
 28107  1  0  0  0
 28108  1  0  0  0
 29109  1  0  0  0
 29110  1  0  0  0
 33 34  1  0  0  0
 33 66  1  0  0  0
 33 70  2  0  0  0
 34 36  1  0  0  0
 34 59  1  0  0  0
 34111  1  0  0  0
 35 44  2  0  0  0
 35 45  1  0  0  0
 35 68  1  0  0  0
 36 56  1  0  0  0
 36112  1  0  0  0
 37 39  1  0  0  0
 37 47  1  0  0  0
 37 66  1  0  0  0
 37113  1  0  0  0
 38 43  2  0  0  0
 38 46  1  0  0  0
 38 47  1  0  0  0
 39 64  1  0  0  0
 39 67  2  0  0  0
 40 52  1  0  0  0
 40 53  2  0  0  0
 40 58  1  0  0  0
 41114  1  0  0  0
 41115  1  0  0  0
 41116  1  0  0  0
 41 48  1  0  0  0
 42 43  1  0  0  0
 42 66  1  0  0  0
 42117  1  0  0  0
 42118  1  0  0  0
 43 44  1  0  0  0
 44119  1  0  0  0
 45 46  2  0  0  0
 45120  1  0  0  0
 46121  1  0  0  0
 47122  1  0  0  0
 47123  1  0  0  0
 48 56  1  0  0  0
 48 65  1  0  0  0
 48124  1  0  0  0
 49 50  1  0  0  0
 49 53  1  0  0  0
 49 64  1  0  0  0
 49125  1  0  0  0
 50 51  1  0  0  0
 50126  1  0  0  0
 50127  1  0  0  0
 51 52  1  0  0  0
 51128  1  0  0  0
 51129  1  0  0  0
 52130  1  0  0  0
 52131  1  0  0  0
 53 54  1  0  0  0
 54 55  2  0  0  0
 54132  1  0  0  0
 55 57  1  0  0  0
 55133  1  0  0  0
 56 69  2  0  0  0
 57 58  2  0  0  0
 57134  1  0  0  0
 58135  1  0  0  0
 59 60  1  0  0  0
 59 61  1  0  0  0
 59 62  1  0  0  0
 60136  1  0  0  0
 60137  1  0  0  0
 60138  1  0  0  0
 61139  1  0  0  0
 61140  1  0  0  0
 61141  1  0  0  0
 62142  1  0  0  0
 62143  1  0  0  0
 62144  1  0  0  0
 63 65  1  0  0  0
 63145  1  0  0  0
 63146  1  0  0  0
 63147  1  0  0  0
 64148  1  0  0  0
 65149  1  0  0  0
 68 85  1  0  0  0
 71 87  2  0  0  0
 71 88  1  0  0  0
 71150  1  0  0  0
 72 84  1  0  0  0
 72 87  1  0  0  0
 72 89  2  0  0  0
 73 85  1  0  0  0
 73 88  2  0  0  0
 73 89  1  0  0  0
 74151  1  0  0  0
 74152  1  0  0  0
 74153  1  0  0  0
 74 83  1  0  0  0
 75154  1  0  0  0
 75155  1  0  0  0
 75156  1  0  0  0
 75 84  1  0  0  0
 76 84  1  0  0  0
 76157  1  0  0  0
 76158  1  0  0  0
 76159  1  0  0  0
 77160  1  0  0  0
 77161  1  0  0  0
 77162  1  0  0  0
 77 85  1  0  0  0
 78 85  1  0  0  0
 78163  1  0  0  0
 78164  1  0  0  0
 78165  1  0  0  0
 79166  1  0  0  0
 79167  1  0  0  0
 79168  1  0  0  0
 79 86  1  0  0  0
 80 86  1  0  0  0
 80169  1  0  0  0
 80170  1  0  0  0
 80171  1  0  0  0
 81172  1  0  0  0
 81173  1  0  0  0
 81174  1  0  0  0
 81 90  1  0  0  0
 82 86  1  0  0  0
 82 90  1  0  0  0
 82175  1  0  0  0
 82176  1  0  0  0
 83 90  1  0  0  0
 83177  1  0  0  0
 84 86  1  0  0  0
 90178  1  0  0  0
M  CHG  1  90   1
M  ISO  4   1 100  68 101  83 100  85 101
M  END
> <chiral flag>
0

> <version>
0

> <s_m_source_file>
/data/baiqing/PycharmProjects/Reinvent-master-3.2/result/LINK_invent/BTK/process_docking_weight1_custom_sum_contain_oxygen_bond_distance_aromatic_linkinvent_7_9_3/rearranged_h_0063.sdf

> <i_m_source_file_index>
9

> <r_mmod_Potential_Energy-OPLS-2005>
-611.178039550781

> <r_mmod_Stretch_Energy-OPLS-2005>
86.0009536743164

> <r_mmod_Bend_Energy-OPLS-2005>
182.251663208008

> <r_mmod_Torsional_Energy-OPLS-2005>
241.69905090332

> <r_mmod_Improper_Torsional_Energy-OPLS-2005>
5.2088303565979

> <r_mmod_Van_der_Waal_Energy-OPLS-2005>
203.127471923828

> <r_mmod_Electrostatic_Energy-OPLS-2005>
-937.042419433594

> <r_mmod_Solvation_Energy-OPLS-2005>
-411.860870361328

> <b_mmod_Minimization_Converged-OPLS-2005>
0

> <r_mmod_RMS_Derivative-OPLS-2005>
1.59769749641418

$$$$
10
                    3D
 Structure written by MMmdl.
168176  0  0  1  0            999 V2000
  -30.6932  -14.4901   20.5586 C   0  0  0  0  0  0
  -30.4237  -12.3064   19.4400 C   0  0  0  0  0  0
  -29.5033  -12.4907   18.2150 C   0  0  0  0  0  0
  -28.0223  -12.3519   18.6191 C   0  0  0  0  0  0
  -27.6617  -13.2058   19.8670 C   0  0  2  0  0  0
  -28.6968  -13.0060   20.9972 C   0  0  0  0  0  0
  -25.2587  -13.8177   20.5629 C   0  0  0  0  0  0
  -24.1829  -13.0467   20.9153 C   0  0  0  0  0  0
  -24.6381  -11.6928   20.8702 C   0  0  0  0  0  0
  -23.9038  -10.4323   21.0387 C   0  0  0  0  0  0
  -24.3629   -9.4239   21.9141 C   0  0  0  0  0  0
  -23.6312   -8.2273   22.0724 C   0  0  0  0  0  0
  -22.4280   -8.0306   21.3554 C   0  0  0  0  0  0
  -21.9884   -9.0266   20.4656 C   0  0  0  0  0  0
  -22.7205  -10.2155   20.3048 C   0  0  0  0  0  0
  -21.6874   -6.0780   22.5307 C   0  0  0  0  0  0
  -21.4009   -6.5660   23.8240 C   0  0  0  0  0  0
  -21.3644   -5.6812   24.9190 C   0  0  0  0  0  0
  -21.6026   -4.3076   24.7227 C   0  0  0  0  0  0
  -21.8807   -3.8183   23.4347 C   0  0  0  0  0  0
  -21.9196   -4.7006   22.3415 C   0  0  0  0  0  0
  -22.7861  -13.5272   21.1855 C   0  0  0  0  0  0
  -22.1657   -4.2195   21.0996 F   0  0  0  0  0  0
  -21.5628   -3.4545   25.7719 F   0  0  0  0  0  0
  -30.0341  -13.3010   20.4553 N   0  0  0  0  0  0
  -26.3017  -12.9339   20.3291 N   0  0  0  0  0  0
  -25.9300  -11.6507   20.5719 N   0  0  0  0  0  0
  -22.0532  -12.8293   22.0458 N   0  0  0  0  0  0
  -25.4319  -15.1885   20.4018 N   0  0  0  0  0  0
  -31.8163  -14.6689   20.0840 O   0  0  0  0  0  0
  -21.6646   -6.8924   21.4265 O   0  0  0  0  0  0
  -22.3542  -14.5593   20.6729 O   0  0  0  0  0  0
  -24.6213  -31.8672   23.2091 C   0  0  0  0  0  0
  -25.9105  -32.4815   23.8377 C   0  0  1  0  0  0
  -27.2263  -27.4037   20.0766 C   0  0  0  0  0  0
  -25.5954  -33.8607   24.2334 N   0  0  0  0  0  0
  -23.4055  -30.4964   21.5508 C   0  0  2  0  0  0
  -24.8467  -28.9607   20.1118 C   0  0  0  0  0  0
  -22.7418  -29.4679   22.4964 C   0  0  0  0  0  0
  -18.0269  -28.1382   22.8493 C   0  0  0  0  0  0
  -24.1470  -36.7313   23.2630 C   0  0  0  0  0  0
  -25.9399  -30.8210   21.3672 C   0  0  0  0  0  0
  -26.0101  -29.4535   20.7132 C   0  0  0  0  0  0
  -27.1966  -28.6798   20.6981 C   0  0  0  0  0  0
  -26.0382  -26.9464   19.4547 C   0  0  0  0  0  0
  -24.8574  -27.7083   19.4824 C   0  0  0  0  0  0
  -23.6128  -29.8331   20.1637 C   0  0  0  0  0  0
  -25.4088  -36.3107   24.0336 C   0  0  1  0  0  0
  -20.5868  -28.3680   23.1292 C   0  0  2  0  0  0
  -20.6754  -26.9413   22.5409 C   0  0  0  0  0  0
  -19.5735  -26.6391   21.5201 C   0  0  0  0  0  0
  -18.1918  -26.7933   22.1617 C   0  0  0  0  0  0
  -19.1521  -28.8842   23.2896 C   0  0  0  0  0  0
  -18.9445  -30.1441   23.8924 C   0  0  0  0  0  0
  -17.6448  -30.6587   24.0562 C   0  0  0  0  0  0
  -25.9030  -34.9468   23.5118 C   0  0  0  0  0  0
  -16.5337  -29.9101   23.6318 C   0  0  0  0  0  0
  -16.7261  -28.6511   23.0358 C   0  0  0  0  0  0
  -26.4503  -31.6598   25.0708 C   0  0  0  0  0  0
  -25.3755  -31.3726   26.1448 C   0  0  0  0  0  0
  -27.0337  -30.3038   24.6100 C   0  0  0  0  0  0
  -27.6071  -32.4309   25.7492 C   0  0  0  0  0  0
  -27.5568  -37.1804   24.8463 C   0  0  0  0  0  0
  -21.4147  -29.3054   22.3704 N   0  0  0  0  0  0
  -26.4270  -37.3798   23.9417 N   0  0  0  0  0  0
  -24.6748  -31.0741   22.1014 N   0  0  0  0  0  0
  -23.4178  -28.8212   23.3004 O   0  0  0  0  0  0
  -28.4071  -26.6717   20.1058 O   0  0  0  0  0  0
  -26.5566  -34.8924   22.4661 O   0  0  0  0  0  0
  -23.5401  -32.1442   23.7469 O   0  0  0  0  0  0
  -29.5203  -19.5854   23.2207 C   0  0  0  0  0  0
  -29.7142  -19.3351   21.8879 C   0  0  0  0  0  0
  -29.8804  -17.9004   21.8417 C   0  0  0  0  0  0
  -29.2148  -17.2481   19.4758 C   0  0  0  0  0  0
  -30.6386  -18.6834   26.0973 C   0  0  0  0  0  0
  -29.0709  -16.7191   25.6930 C   0  0  0  0  0  0
  -29.7246  -20.3793   20.7719 C   0  0  0  0  0  0
  -29.5268  -21.8439   21.2651 C   0  0  0  0  0  0
  -29.3386  -22.8969   20.1408 C   0  0  0  0  0  0
  -29.1692  -24.3601   20.6450 C   0  0  0  0  0  0
  -28.4547  -25.2997   19.6421 C   0  0  0  0  0  0
  -30.1382  -16.9485   20.6691 C   0  0  2  0  0  0
  -29.4021  -18.1802   25.3367 C   0  0  0  0  0  0
  -29.7877  -17.3666   23.0560 N   0  0  0  0  0  0
  -29.5560  -18.3926   23.8997 N   0  0  0  0  0  0
  -29.9583  -15.5221   21.0166 N   0  0  0  0  0  0
  -31.4721  -12.3880   19.1492 H   0  0  0  0  0  0
  -30.3109  -11.3016   19.8490 H   0  0  0  0  0  0
  -29.7509  -11.7526   17.4484 H   0  0  0  0  0  0
  -29.6699  -13.4738   17.7681 H   0  0  0  0  0  0
  -27.8336  -11.2987   18.8288 H   0  0  0  0  0  0
  -27.3784  -12.6130   17.7784 H   0  0  0  0  0  0
  -27.7042  -14.2506   19.5574 H   0  0  0  0  0  0
  -28.6650  -11.9792   21.3592 H   0  0  0  0  0  0
  -28.4524  -13.6217   21.8629 H   0  0  0  0  0  0
  -25.2800   -9.5721   22.4678 H   0  0  0  0  0  0
  -24.0061   -7.4659   22.7413 H   0  0  0  0  0  0
  -21.0811   -8.8757   19.8970 H   0  0  0  0  0  0
  -22.3648  -10.9679   19.6149 H   0  0  0  0  0  0
  -21.1985   -7.6163   23.9743 H   0  0  0  0  0  0
  -21.1481   -6.0552   25.9100 H   0  0  0  0  0  0
  -22.0590   -2.7641   23.2838 H   0  0  0  0  0  0
  -22.4165  -11.9999   22.4926 H   0  0  0  0  0  0
  -21.1182  -13.1348   22.2752 H   0  0  0  0  0  0
  -24.6671  -15.8459   20.5133 H   0  0  0  0  0  0
  -26.2921  -15.6245   20.0940 H   0  0  0  0  0  0
  -26.7182  -32.5518   23.1139 H   0  0  0  0  0  0
  -25.0172  -33.9768   25.0533 H   0  0  0  0  0  0
  -22.6969  -31.3171   21.4162 H   0  0  0  0  0  0
  -23.3727  -35.9658   23.3302 H   0  0  0  0  0  0
  -24.3564  -36.8905   22.2043 H   0  0  0  0  0  0
  -23.7233  -37.6522   23.6636 H   0  0  0  0  0  0
  -26.0564  -31.5864   20.5982 H   0  0  0  0  0  0
  -26.8266  -30.8741   21.9862 H   0  0  0  0  0  0
  -28.0928  -29.0583   21.1687 H   0  0  0  0  0  0
  -25.9731  -26.0121   18.9200 H   0  0  0  0  0  0
  -23.9659  -27.3309   19.0005 H   0  0  0  0  0  0
  -23.7282  -30.6109   19.4086 H   0  0  0  0  0  0
  -22.7351  -29.2605   19.8609 H   0  0  0  0  0  0
  -25.1272  -36.1958   25.0834 H   0  0  0  0  0  0
  -20.9966  -28.3251   24.1407 H   0  0  0  0  0  0
  -20.5631  -26.2305   23.3607 H   0  0  0  0  0  0
  -21.6630  -26.7448   22.1214 H   0  0  0  0  0  0
  -19.6883  -25.6305   21.1227 H   0  0  0  0  0  0
  -19.6650  -27.3195   20.6724 H   0  0  0  0  0  0
  -17.4186  -26.6683   21.4018 H   0  0  0  0  0  0
  -18.0318  -26.0062   22.8994 H   0  0  0  0  0  0
  -19.7914  -30.7243   24.2312 H   0  0  0  0  0  0
  -17.5004  -31.6266   24.5162 H   0  0  0  0  0  0
  -15.5342  -30.3013   23.7618 H   0  0  0  0  0  0
  -15.8657  -28.0827   22.7081 H   0  0  0  0  0  0
  -24.5933  -30.7070   25.7778 H   0  0  0  0  0  0
  -24.8953  -32.2896   26.4874 H   0  0  0  0  0  0
  -25.8098  -30.8909   27.0217 H   0  0  0  0  0  0
  -26.2892  -29.6784   24.1158 H   0  0  0  0  0  0
  -27.4110  -29.7285   25.4560 H   0  0  0  0  0  0
  -27.8727  -30.4350   23.9264 H   0  0  0  0  0  0
  -27.2698  -33.3596   26.2107 H   0  0  0  0  0  0
  -28.3884  -32.6872   25.0326 H   0  0  0  0  0  0
  -28.0745  -31.8406   26.5383 H   0  0  0  0  0  0
  -28.2600  -38.0088   24.7507 H   0  0  0  0  0  0
  -28.1046  -36.2617   24.6295 H   0  0  0  0  0  0
  -27.2292  -37.1479   25.8868 H   0  0  0  0  0  0
  -20.9315  -29.8823   21.6957 H   0  0  0  0  0  0
  -26.0151  -38.2872   24.1422 H   0  0  0  0  0  0
  -29.3520  -20.5160   23.7477 H   0  0  0  0  0  0
  -29.3821  -16.5392   18.6637 H   0  0  0  0  0  0
  -28.1644  -17.1917   19.7615 H   0  0  0  0  0  0
  -29.3988  -18.2349   19.0582 H   0  0  0  0  0  0
  -30.5201  -18.5472   27.1725 H   0  0  0  0  0  0
  -30.8041  -19.7473   25.9203 H   0  0  0  0  0  0
  -31.5369  -18.1504   25.7876 H   0  0  0  0  0  0
  -28.8801  -16.6085   26.7600 H   0  0  0  0  0  0
  -29.8925  -16.0508   25.4337 H   0  0  0  0  0  0
  -28.1787  -16.3797   25.1644 H   0  0  0  0  0  0
  -28.9299  -20.1648   20.0591 H   0  0  0  0  0  0
  -30.6534  -20.3232   20.2042 H   0  0  0  0  0  0
  -30.3637  -22.1319   21.9045 H   0  0  0  0  0  0
  -28.6350  -21.8798   21.8922 H   0  0  0  0  0  0
  -28.4671  -22.6162   19.5481 H   0  0  0  0  0  0
  -30.1883  -22.8564   19.4579 H   0  0  0  0  0  0
  -30.1475  -24.7685   20.8981 H   0  0  0  0  0  0
  -28.5935  -24.3584   21.5709 H   0  0  0  0  0  0
  -27.4886  -24.8397   19.4619 H   0  0  0  0  0  0
  -28.9777  -25.2864   18.6865 H   0  0  0  0  0  0
  -31.1651  -17.1029   20.3329 H   0  0  0  0  0  0
  -28.5526  -18.7878   25.6504 H   0  0  0  0  0  0
  -29.0967  -15.3012   21.4906 H   0  0  0  0  0  0
  1 25  1  0  0  0
  1 30  2  0  0  0
  1 86  1  0  0  0
  2  3  1  0  0  0
  2 25  1  0  0  0
  2 87  1  0  0  0
  2 88  1  0  0  0
  3  4  1  0  0  0
  3 89  1  0  0  0
  3 90  1  0  0  0
  4  5  1  0  0  0
  4 91  1  0  0  0
  4 92  1  0  0  0
  5  6  1  0  0  0
  5 26  1  0  0  0
  5 93  1  0  0  0
  6 25  1  0  0  0
  6 94  1  0  0  0
  6 95  1  0  0  0
  7  8  2  0  0  0
  7 26  1  0  0  0
  7 29  1  0  0  0
  8  9  1  0  0  0
  8 22  1  0  0  0
  9 10  1  0  0  0
  9 27  2  0  0  0
 10 11  2  0  0  0
 10 15  1  0  0  0
 11 12  1  0  0  0
 11 96  1  0  0  0
 12 13  2  0  0  0
 12 97  1  0  0  0
 13 14  1  0  0  0
 13 31  1  0  0  0
 14 15  2  0  0  0
 14 98  1  0  0  0
 15 99  1  0  0  0
 16 17  2  0  0  0
 16 21  1  0  0  0
 16 31  1  0  0  0
 17 18  1  0  0  0
 17100  1  0  0  0
 18 19  2  0  0  0
 18101  1  0  0  0
 19 20  1  0  0  0
 19 24  1  0  0  0
 20 21  2  0  0  0
 20102  1  0  0  0
 21 23  1  0  0  0
 22 28  1  0  0  0
 22 32  2  0  0  0
 26 27  1  0  0  0
 28103  1  0  0  0
 28104  1  0  0  0
 29105  1  0  0  0
 29106  1  0  0  0
 33 34  1  0  0  0
 33 66  1  0  0  0
 33 70  2  0  0  0
 34 36  1  0  0  0
 34 59  1  0  0  0
 34107  1  0  0  0
 35 44  2  0  0  0
 35 45  1  0  0  0
 35 68  1  0  0  0
 36 56  1  0  0  0
 36108  1  0  0  0
 37 39  1  0  0  0
 37 47  1  0  0  0
 37 66  1  0  0  0
 37109  1  0  0  0
 38 43  2  0  0  0
 38 46  1  0  0  0
 38 47  1  0  0  0
 39 64  1  0  0  0
 39 67  2  0  0  0
 40 52  1  0  0  0
 40 53  2  0  0  0
 40 58  1  0  0  0
 41110  1  0  0  0
 41111  1  0  0  0
 41112  1  0  0  0
 41 48  1  0  0  0
 42 43  1  0  0  0
 42 66  1  0  0  0
 42113  1  0  0  0
 42114  1  0  0  0
 43 44  1  0  0  0
 44115  1  0  0  0
 45 46  2  0  0  0
 45116  1  0  0  0
 46117  1  0  0  0
 47118  1  0  0  0
 47119  1  0  0  0
 48 56  1  0  0  0
 48 65  1  0  0  0
 48120  1  0  0  0
 49 50  1  0  0  0
 49 53  1  0  0  0
 49 64  1  0  0  0
 49121  1  0  0  0
 50 51  1  0  0  0
 50122  1  0  0  0
 50123  1  0  0  0
 51 52  1  0  0  0
 51124  1  0  0  0
 51125  1  0  0  0
 52126  1  0  0  0
 52127  1  0  0  0
 53 54  1  0  0  0
 54 55  2  0  0  0
 54128  1  0  0  0
 55 57  1  0  0  0
 55129  1  0  0  0
 56 69  2  0  0  0
 57 58  2  0  0  0
 57130  1  0  0  0
 58131  1  0  0  0
 59 60  1  0  0  0
 59 61  1  0  0  0
 59 62  1  0  0  0
 60132  1  0  0  0
 60133  1  0  0  0
 60134  1  0  0  0
 61135  1  0  0  0
 61136  1  0  0  0
 61137  1  0  0  0
 62138  1  0  0  0
 62139  1  0  0  0
 62140  1  0  0  0
 63 65  1  0  0  0
 63141  1  0  0  0
 63142  1  0  0  0
 63143  1  0  0  0
 64144  1  0  0  0
 65145  1  0  0  0
 68 81  1  0  0  0
 71 72  2  0  0  0
 71 85  1  0  0  0
 71146  1  0  0  0
 72 73  1  0  0  0
 72 77  1  0  0  0
 73 82  1  0  0  0
 73 84  2  0  0  0
 74147  1  0  0  0
 74148  1  0  0  0
 74149  1  0  0  0
 74 82  1  0  0  0
 75150  1  0  0  0
 75151  1  0  0  0
 75152  1  0  0  0
 75 83  1  0  0  0
 76 83  1  0  0  0
 76153  1  0  0  0
 76154  1  0  0  0
 76155  1  0  0  0
 77 78  1  0  0  0
 77156  1  0  0  0
 77157  1  0  0  0
 78 79  1  0  0  0
 78158  1  0  0  0
 78159  1  0  0  0
 79 80  1  0  0  0
 79160  1  0  0  0
 79161  1  0  0  0
 80 81  1  0  0  0
 80162  1  0  0  0
 80163  1  0  0  0
 81164  1  0  0  0
 81165  1  0  0  0
 82 86  1  0  0  0
 82166  1  0  0  0
 83 85  1  0  0  0
 83167  1  0  0  0
 84 85  1  0  0  0
 86168  1  0  0  0
M  ISO  4   1 100  68 101  81 101  86 100
M  END
> <chiral flag>
0

> <version>
0

> <s_m_source_file>
/data/baiqing/PycharmProjects/Reinvent-master-3.2/result/LINK_invent/BTK/process_docking_weight1_custom_sum_contain_oxygen_bond_distance_aromatic_linkinvent_7_9_3/rearranged_h_0063.sdf

> <i_m_source_file_index>
10

> <r_mmod_Potential_Energy-OPLS-2005>
-155.576416015625

> <r_mmod_Stretch_Energy-OPLS-2005>
42.8045043945312

> <r_mmod_Bend_Energy-OPLS-2005>
108.109046936035

> <r_mmod_Torsional_Energy-OPLS-2005>
217.501663208008

> <r_mmod_Improper_Torsional_Energy-OPLS-2005>
5.32300043106079

> <r_mmod_Van_der_Waal_Energy-OPLS-2005>
133.926361083984

> <r_mmod_Electrostatic_Energy-OPLS-2005>
-473.972412109375

> <r_mmod_Solvation_Energy-OPLS-2005>
-205.886138916016

> <b_mmod_Minimization_Converged-OPLS-2005>
0

> <r_mmod_RMS_Derivative-OPLS-2005>
2.94921350479126

$$$$
11
                    3D
 Structure written by MMmdl.
172180  0  0  1  0            999 V2000
  -30.6774  -14.8920   20.4172 C   0  0  0  0  0  0
  -30.3715  -12.5159   19.5750 C   0  0  0  0  0  0
  -29.5124  -12.5284   18.2917 C   0  0  0  0  0  0
  -28.0312  -12.3756   18.6620 C   0  0  0  0  0  0
  -27.6198  -13.2839   19.8497 C   0  0  2  0  0  0
  -28.6518  -13.3424   21.0061 C   0  0  0  0  0  0
  -25.2359  -13.8279   20.5683 C   0  0  0  0  0  0
  -24.1728  -13.0432   20.9245 C   0  0  0  0  0  0
  -24.6415  -11.6959   20.8755 C   0  0  0  0  0  0
  -23.9114  -10.4303   21.0394 C   0  0  0  0  0  0
  -24.3687   -9.4246   21.9183 C   0  0  0  0  0  0
  -23.6377   -8.2248   22.0753 C   0  0  0  0  0  0
  -22.4329   -8.0307   21.3563 C   0  0  0  0  0  0
  -21.9967   -9.0259   20.4619 C   0  0  0  0  0  0
  -22.7270  -10.2170   20.3053 C   0  0  0  0  0  0
  -21.6861   -6.0760   22.5291 C   0  0  0  0  0  0
  -21.4000   -6.5649   23.8224 C   0  0  0  0  0  0
  -21.3689   -5.6801   24.9180 C   0  0  0  0  0  0
  -21.6063   -4.3047   24.7234 C   0  0  0  0  0  0
  -21.8821   -3.8161   23.4339 C   0  0  0  0  0  0
  -21.9226   -4.7001   22.3410 C   0  0  0  0  0  0
  -22.7782  -13.5194   21.1868 C   0  0  0  0  0  0
  -22.1701   -4.2185   21.0989 F   0  0  0  0  0  0
  -21.5643   -3.4534   25.7746 F   0  0  0  0  0  0
  -29.9617  -13.6826   20.4343 N   0  0  0  0  0  0
  -26.2821  -12.9576   20.3308 N   0  0  0  0  0  0
  -25.9370  -11.6661   20.5812 N   0  0  0  0  0  0
  -22.0429  -12.8148   22.0431 N   0  0  0  0  0  0
  -25.3920  -15.1977   20.3964 N   0  0  0  0  0  0
  -31.7548  -14.7512   19.8263 O   0  0  0  0  0  0
  -21.6669   -6.8926   21.4260 O   0  0  0  0  0  0
  -22.3484  -14.5480   20.6704 O   0  0  0  0  0  0
  -24.6377  -31.8495   23.1963 C   0  0  0  0  0  0
  -25.9162  -32.4758   23.8307 C   0  0  1  0  0  0
  -27.2308  -27.1673   20.1556 C   0  0  0  0  0  0
  -25.5943  -33.8568   24.2225 N   0  0  0  0  0  0
  -23.4419  -30.4657   21.5408 C   0  0  2  0  0  0
  -24.8956  -28.8991   20.1112 C   0  0  0  0  0  0
  -22.7515  -29.4559   22.4910 C   0  0  0  0  0  0
  -18.0277  -28.1380   22.8504 C   0  0  0  0  0  0
  -24.1511  -36.7246   23.2635 C   0  0  0  0  0  0
  -25.9955  -30.7283   21.3937 C   0  0  0  0  0  0
  -26.0715  -29.3463   20.7272 C   0  0  0  0  0  0
  -27.2427  -28.4992   20.7296 C   0  0  0  0  0  0
  -26.0204  -26.8118   19.5118 C   0  0  0  0  0  0
  -24.8839  -27.6431   19.4857 C   0  0  0  0  0  0
  -23.6692  -29.7985   20.1572 C   0  0  0  0  0  0
  -25.4154  -36.3068   24.0313 C   0  0  1  0  0  0
  -20.5882  -28.3712   23.1237 C   0  0  2  0  0  0
  -20.6788  -26.9410   22.5406 C   0  0  0  0  0  0
  -19.5771  -26.6379   21.5204 C   0  0  0  0  0  0
  -18.1931  -26.7931   22.1585 C   0  0  0  0  0  0
  -19.1530  -28.8856   23.2884 C   0  0  0  0  0  0
  -18.9459  -30.1452   23.8898 C   0  0  0  0  0  0
  -17.6495  -30.6604   24.0534 C   0  0  0  0  0  0
  -25.9084  -34.9426   23.5066 C   0  0  0  0  0  0
  -16.5371  -29.9093   23.6347 C   0  0  0  0  0  0
  -16.7268  -28.6495   23.0384 C   0  0  0  0  0  0
  -26.4510  -31.6639   25.0759 C   0  0  0  0  0  0
  -25.3693  -31.3777   26.1450 C   0  0  0  0  0  0
  -27.0394  -30.3040   24.6346 C   0  0  0  0  0  0
  -27.6081  -32.4396   25.7553 C   0  0  0  0  0  0
  -27.5599  -37.1779   24.8442 C   0  0  0  0  0  0
  -21.4201  -29.3056   22.3653 N   0  0  0  0  0  0
  -26.4294  -37.3778   23.9426 N   0  0  0  0  0  0
  -24.7090  -31.0329   22.0996 N   0  0  0  0  0  0
  -23.4174  -28.8065   23.3019 O   0  0  0  0  0  0
  -28.3002  -26.2052   20.2228 O   0  0  0  0  0  0
  -26.5628  -34.8891   22.4638 O   0  0  0  0  0  0
  -23.5495  -32.1372   23.7233 O   0  0  0  0  0  0
  -30.5085  -19.3570   22.4110 C   0  0  0  0  0  0
  -31.0513  -20.9908   21.1769 C   0  0  0  0  0  0
  -29.7502  -20.6525   20.8830 C   0  0  0  0  0  0
  -32.6205  -23.0080   20.9446 C   0  0  0  0  0  0
  -27.9717  -17.4206   21.0963 C   0  0  0  0  0  0
  -28.3577  -21.4218   18.8771 C   0  0  0  0  0  0
  -27.4308  -21.6222   21.2140 C   0  0  0  0  0  0
  -30.4814  -16.1503   22.6355 C   0  0  0  0  0  0
  -31.8711  -17.1087   20.7229 C   0  0  0  0  0  0
  -32.0278  -21.7465   20.3210 C   0  0  0  0  0  0
  -29.0897  -23.3999   20.3552 C   0  0  0  0  0  0
  -28.0187  -24.6815   20.1717 C   0  0  0  0  0  0
  -29.4337  -17.7443   20.7485 C   0  0  2  0  0  0
  -28.6914  -21.7526   20.3349 C   0  0  0  0  0  0
  -30.4886  -16.4320   21.1064 C   0  0  0  0  0  0
  -31.4243  -20.3184   22.3358 N   0  0  0  0  0  0
  -29.8111  -19.2044   21.2659 N   0  0  0  0  0  0
  -31.4289  -12.5036   19.3069 H   0  0  0  0  0  0
  -30.2213  -11.5791   20.1156 H   0  0  0  0  0  0
  -29.8083  -11.7215   17.6182 H   0  0  0  0  0  0
  -29.6801  -13.4619   17.7517 H   0  0  0  0  0  0
  -27.8559  -11.3256   18.8988 H   0  0  0  0  0  0
  -27.4053  -12.5954   17.7946 H   0  0  0  0  0  0
  -27.5791  -14.2861   19.4245 H   0  0  0  0  0  0
  -28.6914  -12.3918   21.5403 H   0  0  0  0  0  0
  -28.3545  -14.1028   21.7275 H   0  0  0  0  0  0
  -25.2822   -9.5747   22.4772 H   0  0  0  0  0  0
  -24.0121   -7.4625   22.7441 H   0  0  0  0  0  0
  -21.0911   -8.8756   19.8877 H   0  0  0  0  0  0
  -22.3713  -10.9737   19.6163 H   0  0  0  0  0  0
  -21.1933   -7.6142   23.9747 H   0  0  0  0  0  0
  -21.1524   -6.0494   25.9090 H   0  0  0  0  0  0
  -22.0581   -2.7621   23.2812 H   0  0  0  0  0  0
  -22.4104  -11.9908   22.4927 H   0  0  0  0  0  0
  -21.1027  -13.1178   22.2527 H   0  0  0  0  0  0
  -24.6172  -15.8468   20.5055 H   0  0  0  0  0  0
  -26.2298  -15.6432   20.0441 H   0  0  0  0  0  0
  -26.7247  -32.5373   23.1047 H   0  0  0  0  0  0
  -25.0121  -33.9756   25.0384 H   0  0  0  0  0  0
  -22.7440  -31.2916   21.3917 H   0  0  0  0  0  0
  -23.3825  -35.9506   23.3253 H   0  0  0  0  0  0
  -24.3548  -36.8939   22.2043 H   0  0  0  0  0  0
  -23.7191  -37.6400   23.6703 H   0  0  0  0  0  0
  -26.1545  -31.4913   20.6313 H   0  0  0  0  0  0
  -26.8612  -30.7731   22.0376 H   0  0  0  0  0  0
  -28.1403  -28.8345   21.2306 H   0  0  0  0  0  0
  -25.9175  -25.8402   19.0488 H   0  0  0  0  0  0
  -23.9874  -27.2998   18.9845 H   0  0  0  0  0  0
  -23.7951  -30.5796   19.4068 H   0  0  0  0  0  0
  -22.7846  -29.2370   19.8527 H   0  0  0  0  0  0
  -25.1370  -36.1878   25.0793 H   0  0  0  0  0  0
  -20.9962  -28.3300   24.1357 H   0  0  0  0  0  0
  -20.5702  -26.2288   23.3631 H   0  0  0  0  0  0
  -21.6668  -26.7467   22.1201 H   0  0  0  0  0  0
  -19.6964  -25.6282   21.1273 H   0  0  0  0  0  0
  -19.6748  -27.3155   20.6727 H   0  0  0  0  0  0
  -17.4234  -26.6657   21.3979 H   0  0  0  0  0  0
  -18.0336  -26.0079   22.8972 H   0  0  0  0  0  0
  -19.7914  -30.7255   24.2290 H   0  0  0  0  0  0
  -17.5007  -31.6274   24.5110 H   0  0  0  0  0  0
  -15.5334  -30.2975   23.7728 H   0  0  0  0  0  0
  -15.8629  -28.0791   22.7159 H   0  0  0  0  0  0
  -24.5866  -30.7185   25.7687 H   0  0  0  0  0  0
  -24.8890  -32.2943   26.4887 H   0  0  0  0  0  0
  -25.7951  -30.8885   27.0213 H   0  0  0  0  0  0
  -26.3019  -29.6756   24.1333 H   0  0  0  0  0  0
  -27.3991  -29.7364   25.4933 H   0  0  0  0  0  0
  -27.8941  -30.4323   23.9696 H   0  0  0  0  0  0
  -27.2715  -33.3671   26.2168 H   0  0  0  0  0  0
  -28.3858  -32.6982   25.0374 H   0  0  0  0  0  0
  -28.0766  -31.8490   26.5421 H   0  0  0  0  0  0
  -28.2588  -38.0107   24.7583 H   0  0  0  0  0  0
  -28.1139  -36.2652   24.6206 H   0  0  0  0  0  0
  -27.2295  -37.1351   25.8824 H   0  0  0  0  0  0
  -20.9370  -29.8707   21.6806 H   0  0  0  0  0  0
  -26.0171  -38.2839   24.1467 H   0  0  0  0  0  0
  -30.5822  -18.6152   23.1934 H   0  0  0  0  0  0
  -33.3543  -23.4344   20.2558 H   0  0  0  0  0  0
  -33.1189  -22.7792   21.8878 H   0  0  0  0  0  0
  -31.8662  -23.7753   21.1146 H   0  0  0  0  0  0
  -27.7373  -16.3961   20.8251 H   0  0  0  0  0  0
  -27.2801  -18.0807   20.5689 H   0  0  0  0  0  0
  -27.7626  -17.5228   22.1604 H   0  0  0  0  0  0
  -28.1607  -20.3599   18.7365 H   0  0  0  0  0  0
  -29.1893  -21.7017   18.2264 H   0  0  0  0  0  0
  -27.4831  -21.9759   18.5383 H   0  0  0  0  0  0
  -27.0120  -20.6191   21.1652 H   0  0  0  0  0  0
  -26.6424  -22.3123   20.9171 H   0  0  0  0  0  0
  -27.6576  -21.8260   22.2624 H   0  0  0  0  0  0
  -29.6668  -16.6556   23.1494 H   0  0  0  0  0  0
  -31.4137  -16.4517   23.1143 H   0  0  0  0  0  0
  -30.3364  -15.0942   22.8714 H   0  0  0  0  0  0
  -32.7389  -16.5377   21.0491 H   0  0  0  0  0  0
  -32.0925  -18.0968   21.1027 H   0  0  0  0  0  0
  -31.9370  -17.2264   19.6370 H   0  0  0  0  0  0
  -31.5674  -21.9877   19.3603 H   0  0  0  0  0  0
  -32.8474  -21.0737   20.0603 H   0  0  0  0  0  0
  -29.6332  -23.6004   21.2773 H   0  0  0  0  0  0
  -29.8422  -23.5416   19.5786 H   0  0  0  0  0  0
  -27.2371  -24.5318   20.9180 H   0  0  0  0  0  0
  -27.5489  -24.4848   19.2101 H   0  0  0  0  0  0
  -29.4494  -17.8281   19.6612 H   0  0  0  0  0  0
  1 25  1  0  0  0
  1 30  2  0  0  0
  1 85  1  0  0  0
  2  3  1  0  0  0
  2 25  1  0  0  0
  2 88  1  0  0  0
  2 89  1  0  0  0
  3  4  1  0  0  0
  3 90  1  0  0  0
  3 91  1  0  0  0
  4  5  1  0  0  0
  4 92  1  0  0  0
  4 93  1  0  0  0
  5  6  1  0  0  0
  5 26  1  0  0  0
  5 94  1  0  0  0
  6 25  1  0  0  0
  6 95  1  0  0  0
  6 96  1  0  0  0
  7  8  2  0  0  0
  7 26  1  0  0  0
  7 29  1  0  0  0
  8  9  1  0  0  0
  8 22  1  0  0  0
  9 10  1  0  0  0
  9 27  2  0  0  0
 10 11  2  0  0  0
 10 15  1  0  0  0
 11 12  1  0  0  0
 11 97  1  0  0  0
 12 13  2  0  0  0
 12 98  1  0  0  0
 13 14  1  0  0  0
 13 31  1  0  0  0
 14 15  2  0  0  0
 14 99  1  0  0  0
 15100  1  0  0  0
 16 17  2  0  0  0
 16 21  1  0  0  0
 16 31  1  0  0  0
 17 18  1  0  0  0
 17101  1  0  0  0
 18 19  2  0  0  0
 18102  1  0  0  0
 19 20  1  0  0  0
 19 24  1  0  0  0
 20 21  2  0  0  0
 20103  1  0  0  0
 21 23  1  0  0  0
 22 28  1  0  0  0
 22 32  2  0  0  0
 26 27  1  0  0  0
 28104  1  0  0  0
 28105  1  0  0  0
 29106  1  0  0  0
 29107  1  0  0  0
 33 34  1  0  0  0
 33 66  1  0  0  0
 33 70  2  0  0  0
 34 36  1  0  0  0
 34 59  1  0  0  0
 34108  1  0  0  0
 35 44  2  0  0  0
 35 45  1  0  0  0
 35 68  1  0  0  0
 36 56  1  0  0  0
 36109  1  0  0  0
 37 39  1  0  0  0
 37 47  1  0  0  0
 37 66  1  0  0  0
 37110  1  0  0  0
 38 43  2  0  0  0
 38 46  1  0  0  0
 38 47  1  0  0  0
 39 64  1  0  0  0
 39 67  2  0  0  0
 40 52  1  0  0  0
 40 53  2  0  0  0
 40 58  1  0  0  0
 41111  1  0  0  0
 41112  1  0  0  0
 41113  1  0  0  0
 41 48  1  0  0  0
 42 43  1  0  0  0
 42 66  1  0  0  0
 42114  1  0  0  0
 42115  1  0  0  0
 43 44  1  0  0  0
 44116  1  0  0  0
 45 46  2  0  0  0
 45117  1  0  0  0
 46118  1  0  0  0
 47119  1  0  0  0
 47120  1  0  0  0
 48 56  1  0  0  0
 48 65  1  0  0  0
 48121  1  0  0  0
 49 50  1  0  0  0
 49 53  1  0  0  0
 49 64  1  0  0  0
 49122  1  0  0  0
 50 51  1  0  0  0
 50123  1  0  0  0
 50124  1  0  0  0
 51 52  1  0  0  0
 51125  1  0  0  0
 51126  1  0  0  0
 52127  1  0  0  0
 52128  1  0  0  0
 53 54  1  0  0  0
 54 55  2  0  0  0
 54129  1  0  0  0
 55 57  1  0  0  0
 55130  1  0  0  0
 56 69  2  0  0  0
 57 58  2  0  0  0
 57131  1  0  0  0
 58132  1  0  0  0
 59 60  1  0  0  0
 59 61  1  0  0  0
 59 62  1  0  0  0
 60133  1  0  0  0
 60134  1  0  0  0
 60135  1  0  0  0
 61136  1  0  0  0
 61137  1  0  0  0
 61138  1  0  0  0
 62139  1  0  0  0
 62140  1  0  0  0
 62141  1  0  0  0
 63 65  1  0  0  0
 63142  1  0  0  0
 63143  1  0  0  0
 63144  1  0  0  0
 64145  1  0  0  0
 65146  1  0  0  0
 68 82  1  0  0  0
 71 86  2  0  0  0
 71 87  1  0  0  0
 71147  1  0  0  0
 72 73  2  0  0  0
 72 80  1  0  0  0
 72 86  1  0  0  0
 73 84  1  0  0  0
 73 87  1  0  0  0
 74 80  1  0  0  0
 74148  1  0  0  0
 74149  1  0  0  0
 74150  1  0  0  0
 75151  1  0  0  0
 75152  1  0  0  0
 75153  1  0  0  0
 75 83  1  0  0  0
 76154  1  0  0  0
 76155  1  0  0  0
 76156  1  0  0  0
 76 84  1  0  0  0
 77 84  1  0  0  0
 77157  1  0  0  0
 77158  1  0  0  0
 77159  1  0  0  0
 78160  1  0  0  0
 78161  1  0  0  0
 78162  1  0  0  0
 78 85  1  0  0  0
 79 85  1  0  0  0
 79163  1  0  0  0
 79164  1  0  0  0
 79165  1  0  0  0
 80166  1  0  0  0
 80167  1  0  0  0
 81 82  1  0  0  0
 81 84  1  0  0  0
 81168  1  0  0  0
 81169  1  0  0  0
 82170  1  0  0  0
 82171  1  0  0  0
 83 85  1  0  0  0
 83 87  1  0  0  0
 83172  1  0  0  0
M  ISO  4   1 100  68 101  82 101  85 100
M  END
> <chiral flag>
0

> <version>
0

> <s_m_source_file>
/data/baiqing/PycharmProjects/Reinvent-master-3.2/result/LINK_invent/BTK/process_docking_weight1_custom_sum_contain_oxygen_bond_distance_aromatic_linkinvent_7_9_3/rearranged_h_0063.sdf

> <i_m_source_file_index>
11

> <r_mmod_Potential_Energy-OPLS-2005>
874.514709472656

> <r_mmod_Stretch_Energy-OPLS-2005>
313.545379638672

> <r_mmod_Bend_Energy-OPLS-2005>
396.891387939453

> <r_mmod_Torsional_Energy-OPLS-2005>
379.518646240234

> <r_mmod_Improper_Torsional_Energy-OPLS-2005>
5.27990913391113

> <r_mmod_Van_der_Waal_Energy-OPLS-2005>
143.103622436523

> <r_mmod_Electrostatic_Energy-OPLS-2005>
-336.203155517578

> <r_mmod_Solvation_Energy-OPLS-2005>
-191.966171264648

> <b_mmod_Minimization_Converged-OPLS-2005>
0

> <r_mmod_RMS_Derivative-OPLS-2005>
8.35642910003662

$$$$
12
                    3D
 Structure written by MMmdl.
155163  0  0  1  0            999 V2000
  -30.5942  -14.9928   20.3591 C   0  0  0  0  0  0
  -30.4749  -12.6038   19.4785 C   0  0  0  0  0  0
  -29.5256  -12.4608   18.2600 C   0  0  0  0  0  0
  -28.0573  -12.2340   18.6914 C   0  0  0  0  0  0
  -27.6205  -13.1596   19.8501 C   0  0  2  0  0  0
  -28.7165  -13.2268   20.9564 C   0  0  0  0  0  0
  -25.2138  -13.7760   20.5449 C   0  0  0  0  0  0
  -24.1553  -13.0096   20.9221 C   0  0  0  0  0  0
  -24.6256  -11.6649   20.8914 C   0  0  0  0  0  0
  -23.8967  -10.4104   21.0517 C   0  0  0  0  0  0
  -24.3552   -9.4042   21.9269 C   0  0  0  0  0  0
  -23.6224   -8.2097   22.0780 C   0  0  0  0  0  0
  -22.4213   -8.0187   21.3545 C   0  0  0  0  0  0
  -21.9854   -9.0154   20.4646 C   0  0  0  0  0  0
  -22.7185  -10.2017   20.3095 C   0  0  0  0  0  0
  -21.6804   -6.0692   22.5282 C   0  0  0  0  0  0
  -21.3986   -6.5610   23.8214 C   0  0  0  0  0  0
  -21.3649   -5.6772   24.9184 C   0  0  0  0  0  0
  -21.6038   -4.3034   24.7241 C   0  0  0  0  0  0
  -21.8825   -3.8122   23.4365 C   0  0  0  0  0  0
  -21.9180   -4.6931   22.3417 C   0  0  0  0  0  0
  -22.7608  -13.4975   21.1866 C   0  0  0  0  0  0
  -22.1657   -4.2122   21.0998 F   0  0  0  0  0  0
  -21.5638   -3.4527   25.7760 F   0  0  0  0  0  0
  -29.9821  -13.7143   20.3500 N   0  0  0  0  0  0
  -26.2784  -12.8963   20.3485 N   0  0  0  0  0  0
  -25.9208  -11.6202   20.6099 N   0  0  0  0  0  0
  -22.0284  -12.8049   22.0503 N   0  0  0  0  0  0
  -25.3013  -15.1417   20.3277 N   0  0  0  0  0  0
  -31.8232  -14.9642   20.2100 O   0  0  0  0  0  0
  -21.6561   -6.8813   21.4238 O   0  0  0  0  0  0
  -22.3325  -14.5307   20.6728 O   0  0  0  0  0  0
  -24.6332  -31.8530   23.1947 C   0  0  0  0  0  0
  -25.9145  -32.4746   23.8313 C   0  0  1  0  0  0
  -27.2591  -27.2540   20.1426 C   0  0  0  0  0  0
  -25.5939  -33.8549   24.2249 N   0  0  0  0  0  0
  -23.4335  -30.4694   21.5378 C   0  0  2  0  0  0
  -24.8912  -28.9100   20.1146 C   0  0  0  0  0  0
  -22.7518  -29.4580   22.4914 C   0  0  0  0  0  0
  -18.0299  -28.1387   22.8477 C   0  0  0  0  0  0
  -24.1498  -36.7281   23.2639 C   0  0  0  0  0  0
  -25.9783  -30.7655   21.3742 C   0  0  0  0  0  0
  -26.0603  -29.3843   20.7213 C   0  0  0  0  0  0
  -27.2428  -28.5721   20.7190 C   0  0  0  0  0  0
  -26.0577  -26.8456   19.5136 C   0  0  0  0  0  0
  -24.8963  -27.6483   19.4986 C   0  0  0  0  0  0
  -23.6565  -29.7938   20.1578 C   0  0  0  0  0  0
  -25.4120  -36.3067   24.0326 C   0  0  1  0  0  0
  -20.5905  -28.3708   23.1270 C   0  0  2  0  0  0
  -20.6793  -26.9424   22.5414 C   0  0  0  0  0  0
  -19.5770  -26.6384   21.5217 C   0  0  0  0  0  0
  -18.1949  -26.7930   22.1620 C   0  0  0  0  0  0
  -19.1550  -28.8863   23.2867 C   0  0  0  0  0  0
  -18.9469  -30.1463   23.8889 C   0  0  0  0  0  0
  -17.6467  -30.6588   24.0556 C   0  0  0  0  0  0
  -25.9055  -34.9437   23.5088 C   0  0  0  0  0  0
  -16.5360  -29.9079   23.6331 C   0  0  0  0  0  0
  -16.7285  -28.6496   23.0350 C   0  0  0  0  0  0
  -26.4513  -31.6570   25.0702 C   0  0  0  0  0  0
  -25.3725  -31.3716   26.1416 C   0  0  0  0  0  0
  -27.0360  -30.2990   24.6175 C   0  0  0  0  0  0
  -27.6066  -32.4309   25.7478 C   0  0  0  0  0  0
  -27.5581  -37.1796   24.8464 C   0  0  0  0  0  0
  -21.4224  -29.3040   22.3650 N   0  0  0  0  0  0
  -26.4295  -37.3763   23.9406 N   0  0  0  0  0  0
  -24.7004  -31.0473   22.0926 N   0  0  0  0  0  0
  -23.4199  -28.8138   23.3039 O   0  0  0  0  0  0
  -28.3826  -26.3793   20.2000 O   0  0  0  0  0  0
  -26.5629  -34.8918   22.4657 O   0  0  0  0  0  0
  -23.5475  -32.1356   23.7232 O   0  0  0  0  0  0
  -30.2691  -20.1621   19.3202 C   0  0  0  0  0  0
  -29.9941  -20.0144   21.6160 C   0  0  0  0  0  0
  -29.8092  -20.8394   20.4713 C   0  0  0  0  0  0
  -30.4790  -18.0215   20.3846 C   0  0  0  0  0  0
  -28.9041  -22.1808   20.4250 C   0  0  0  0  0  0
  -29.3578  -23.7505   20.3839 C   0  0  0  0  0  0
  -28.1910  -24.8795   20.1344 C   0  0  0  0  0  0
  -29.8241  -16.4982   20.1938 C   0  0  0  0  0  0
  -28.5936  -16.5945   21.1491 C   0  0  0  0  0  0
  -29.3502  -16.4998   18.6809 C   0  0  0  0  0  0
  -30.6134  -18.8337   19.3042 N   0  0  0  0  0  0
  -30.3567  -18.6800   21.5679 N   0  0  0  0  0  0
  -27.9076  -17.7425   21.0841 F   0  0  0  0  0  0
  -27.6975  -15.7124   20.8548 F   0  0  0  0  0  0
  -28.9374  -16.3655   22.4210 F   0  0  0  0  0  0
  -30.3915  -16.5800   17.8429 F   0  0  0  0  0  0
  -28.7390  -15.4056   18.2771 F   0  0  0  0  0  0
  -28.4832  -17.4794   18.3967 F   0  0  0  0  0  0
  -31.4907  -12.7816   19.1215 H   0  0  0  0  0  0
  -30.5295  -11.6674   20.0366 H   0  0  0  0  0  0
  -29.8530  -11.6268   17.6378 H   0  0  0  0  0  0
  -29.6066  -13.3363   17.6188 H   0  0  0  0  0  0
  -27.9700  -11.1952   19.0130 H   0  0  0  0  0  0
  -27.3859  -12.3409   17.8386 H   0  0  0  0  0  0
  -27.4838  -14.1019   19.3670 H   0  0  0  0  0  0
  -28.8573  -12.2300   21.3777 H   0  0  0  0  0  0
  -28.4285  -13.8195   21.8221 H   0  0  0  0  0  0
  -25.2699   -9.5509   22.4847 H   0  0  0  0  0  0
  -23.9917   -7.4472   22.7486 H   0  0  0  0  0  0
  -21.0795   -8.8678   19.8942 H   0  0  0  0  0  0
  -22.3683  -10.9573   19.6202 H   0  0  0  0  0  0
  -21.1968   -7.6119   23.9710 H   0  0  0  0  0  0
  -21.1467   -6.0507   25.9084 H   0  0  0  0  0  0
  -22.0618   -2.7583   23.2870 H   0  0  0  0  0  0
  -22.3902  -11.9721   22.4907 H   0  0  0  0  0  0
  -21.0926  -13.1117   22.2753 H   0  0  0  0  0  0
  -24.5166  -15.7669   20.4696 H   0  0  0  0  0  0
  -26.1840  -15.6206   20.1995 H   0  0  0  0  0  0
  -26.7207  -32.5410   23.1056 H   0  0  0  0  0  0
  -25.0102  -33.9682   25.0405 H   0  0  0  0  0  0
  -22.7309  -31.2911   21.3845 H   0  0  0  0  0  0
  -23.3765  -35.9606   23.3290 H   0  0  0  0  0  0
  -24.3588  -36.8911   22.2055 H   0  0  0  0  0  0
  -23.7250  -37.6475   23.6669 H   0  0  0  0  0  0
  -26.1125  -31.5231   20.6011 H   0  0  0  0  0  0
  -26.8563  -30.8237   22.0055 H   0  0  0  0  0  0
  -28.1371  -28.9366   21.2048 H   0  0  0  0  0  0
  -25.9891  -25.8811   19.0340 H   0  0  0  0  0  0
  -24.0018  -27.2776   19.0172 H   0  0  0  0  0  0
  -23.7770  -30.5654   19.3967 H   0  0  0  0  0  0
  -22.7777  -29.2203   19.8566 H   0  0  0  0  0  0
  -25.1305  -36.1905   25.0818 H   0  0  0  0  0  0
  -20.9998  -28.3290   24.1390 H   0  0  0  0  0  0
  -20.5709  -26.2314   23.3618 H   0  0  0  0  0  0
  -21.6661  -26.7452   22.1199 H   0  0  0  0  0  0
  -19.6938  -25.6290   21.1259 H   0  0  0  0  0  0
  -19.6715  -27.3183   20.6738 H   0  0  0  0  0  0
  -17.4224  -26.6683   21.4014 H   0  0  0  0  0  0
  -18.0335  -26.0070   22.9013 H   0  0  0  0  0  0
  -19.7942  -30.7282   24.2260 H   0  0  0  0  0  0
  -17.5016  -31.6267   24.5158 H   0  0  0  0  0  0
  -15.5358  -30.2976   23.7656 H   0  0  0  0  0  0
  -15.8689  -28.0811   22.7071 H   0  0  0  0  0  0
  -24.5904  -30.7072   25.7729 H   0  0  0  0  0  0
  -24.8921  -32.2885   26.4840 H   0  0  0  0  0  0
  -25.8038  -30.8883   27.0195 H   0  0  0  0  0  0
  -26.2936  -29.6730   24.1216 H   0  0  0  0  0  0
  -27.4069  -29.7263   25.4686 H   0  0  0  0  0  0
  -27.8805  -30.4274   23.9400 H   0  0  0  0  0  0
  -27.2677  -33.3616   26.2046 H   0  0  0  0  0  0
  -28.3885  -32.6856   25.0309 H   0  0  0  0  0  0
  -28.0727  -31.8434   26.5401 H   0  0  0  0  0  0
  -28.2597  -38.0098   24.7516 H   0  0  0  0  0  0
  -28.1087  -36.2629   24.6289 H   0  0  0  0  0  0
  -27.2301  -37.1436   25.8870 H   0  0  0  0  0  0
  -20.9428  -29.8727   21.6815 H   0  0  0  0  0  0
  -26.0176  -38.2837   24.1403 H   0  0  0  0  0  0
  -30.2234  -20.6436   18.3546 H   0  0  0  0  0  0
  -29.7109  -20.3809   22.5923 H   0  0  0  0  0  0
  -28.2124  -22.0909   21.2641 H   0  0  0  0  0  0
  -28.2661  -22.0429   19.5502 H   0  0  0  0  0  0
  -30.1094  -23.8734   19.6036 H   0  0  0  0  0  0
  -29.8648  -23.9821   21.3211 H   0  0  0  0  0  0
  -27.3875  -24.6508   20.8353 H   0  0  0  0  0  0
  -27.7865  -24.6625   19.1457 H   0  0  0  0  0  0
  1 25  1  0  0  0
  1 30  2  0  0  0
  1 78  1  0  0  0
  2  3  1  0  0  0
  2 25  1  0  0  0
  2 89  1  0  0  0
  2 90  1  0  0  0
  3  4  1  0  0  0
  3 91  1  0  0  0
  3 92  1  0  0  0
  4  5  1  0  0  0
  4 93  1  0  0  0
  4 94  1  0  0  0
  5  6  1  0  0  0
  5 26  1  0  0  0
  5 95  1  0  0  0
  6 25  1  0  0  0
  6 96  1  0  0  0
  6 97  1  0  0  0
  7  8  2  0  0  0
  7 26  1  0  0  0
  7 29  1  0  0  0
  8  9  1  0  0  0
  8 22  1  0  0  0
  9 10  1  0  0  0
  9 27  2  0  0  0
 10 11  2  0  0  0
 10 15  1  0  0  0
 11 12  1  0  0  0
 11 98  1  0  0  0
 12 13  2  0  0  0
 12 99  1  0  0  0
 13 14  1  0  0  0
 13 31  1  0  0  0
 14 15  2  0  0  0
 14100  1  0  0  0
 15101  1  0  0  0
 16 17  2  0  0  0
 16 21  1  0  0  0
 16 31  1  0  0  0
 17 18  1  0  0  0
 17102  1  0  0  0
 18 19  2  0  0  0
 18103  1  0  0  0
 19 20  1  0  0  0
 19 24  1  0  0  0
 20 21  2  0  0  0
 20104  1  0  0  0
 21 23  1  0  0  0
 22 28  1  0  0  0
 22 32  2  0  0  0
 26 27  1  0  0  0
 28105  1  0  0  0
 28106  1  0  0  0
 29107  1  0  0  0
 29108  1  0  0  0
 33 34  1  0  0  0
 33 66  1  0  0  0
 33 70  2  0  0  0
 34 36  1  0  0  0
 34 59  1  0  0  0
 34109  1  0  0  0
 35 44  2  0  0  0
 35 45  1  0  0  0
 35 68  1  0  0  0
 36 56  1  0  0  0
 36110  1  0  0  0
 37 39  1  0  0  0
 37 47  1  0  0  0
 37 66  1  0  0  0
 37111  1  0  0  0
 38 43  2  0  0  0
 38 46  1  0  0  0
 38 47  1  0  0  0
 39 64  1  0  0  0
 39 67  2  0  0  0
 40 52  1  0  0  0
 40 53  2  0  0  0
 40 58  1  0  0  0
 41112  1  0  0  0
 41113  1  0  0  0
 41114  1  0  0  0
 41 48  1  0  0  0
 42 43  1  0  0  0
 42 66  1  0  0  0
 42115  1  0  0  0
 42116  1  0  0  0
 43 44  1  0  0  0
 44117  1  0  0  0
 45 46  2  0  0  0
 45118  1  0  0  0
 46119  1  0  0  0
 47120  1  0  0  0
 47121  1  0  0  0
 48 56  1  0  0  0
 48 65  1  0  0  0
 48122  1  0  0  0
 49 50  1  0  0  0
 49 53  1  0  0  0
 49 64  1  0  0  0
 49123  1  0  0  0
 50 51  1  0  0  0
 50124  1  0  0  0
 50125  1  0  0  0
 51 52  1  0  0  0
 51126  1  0  0  0
 51127  1  0  0  0
 52128  1  0  0  0
 52129  1  0  0  0
 53 54  1  0  0  0
 54 55  2  0  0  0
 54130  1  0  0  0
 55 57  1  0  0  0
 55131  1  0  0  0
 56 69  2  0  0  0
 57 58  2  0  0  0
 57132  1  0  0  0
 58133  1  0  0  0
 59 60  1  0  0  0
 59 61  1  0  0  0
 59 62  1  0  0  0
 60134  1  0  0  0
 60135  1  0  0  0
 60136  1  0  0  0
 61137  1  0  0  0
 61138  1  0  0  0
 61139  1  0  0  0
 62140  1  0  0  0
 62141  1  0  0  0
 62142  1  0  0  0
 63 65  1  0  0  0
 63143  1  0  0  0
 63144  1  0  0  0
 63145  1  0  0  0
 64146  1  0  0  0
 65147  1  0  0  0
 68 77  1  0  0  0
 71 73  2  0  0  0
 71 81  1  0  0  0
 71148  1  0  0  0
 72 73  1  0  0  0
 72 82  2  0  0  0
 72149  1  0  0  0
 73 75  1  0  0  0
 74 78  1  0  0  0
 74 81  2  0  0  0
 74 82  1  0  0  0
 75 76  1  0  0  0
 75150  1  0  0  0
 75151  1  0  0  0
 76 77  1  0  0  0
 76152  1  0  0  0
 76153  1  0  0  0
 77154  1  0  0  0
 77155  1  0  0  0
 78 79  1  0  0  0
 78 80  1  0  0  0
 79 83  1  0  0  0
 79 84  1  0  0  0
 79 85  1  0  0  0
 80 86  1  0  0  0
 80 87  1  0  0  0
 80 88  1  0  0  0
M  ISO  4   1 100  68 101  77 101  78 100
M  END
> <chiral flag>
0

> <version>
0

> <s_m_source_file>
/data/baiqing/PycharmProjects/Reinvent-master-3.2/result/LINK_invent/BTK/process_docking_weight1_custom_sum_contain_oxygen_bond_distance_aromatic_linkinvent_7_9_3/rearranged_h_0063.sdf

> <i_m_source_file_index>
12

> <r_mmod_Potential_Energy-OPLS-2005>
616.57177734375

> <r_mmod_Stretch_Energy-OPLS-2005>
213.409225463867

> <r_mmod_Bend_Energy-OPLS-2005>
294.149139404297

> <r_mmod_Torsional_Energy-OPLS-2005>
255.799575805664

> <r_mmod_Improper_Torsional_Energy-OPLS-2005>
17.8076972961426

> <r_mmod_Van_der_Waal_Energy-OPLS-2005>
213.395324707031

> <r_mmod_Electrostatic_Energy-OPLS-2005>
-358.228881835938

> <r_mmod_Solvation_Energy-OPLS-2005>
-181.426467895508

> <b_mmod_Minimization_Converged-OPLS-2005>
0

> <r_mmod_RMS_Derivative-OPLS-2005>
1.18612146377563

$$$$
13
                    3D
 Structure written by MMmdl.
160168  0  0  1  0            999 V2000
  -30.5697  -14.8834   20.4281 C   0  0  0  0  0  0
  -30.4482  -12.5317   19.5182 C   0  0  0  0  0  0
  -29.5283  -12.5012   18.2734 C   0  0  0  0  0  0
  -28.0570  -12.3087   18.6837 C   0  0  0  0  0  0
  -27.6400  -13.2435   19.8489 C   0  0  2  0  0  0
  -28.6811  -13.2481   20.9915 C   0  0  0  0  0  0
  -25.2507  -13.8239   20.5733 C   0  0  0  0  0  0
  -24.1797  -13.0473   20.9202 C   0  0  0  0  0  0
  -24.6396  -11.6942   20.8776 C   0  0  0  0  0  0
  -23.9074  -10.4315   21.0442 C   0  0  0  0  0  0
  -24.3612   -9.4218   21.9211 C   0  0  0  0  0  0
  -23.6285   -8.2248   22.0765 C   0  0  0  0  0  0
  -22.4275   -8.0285   21.3548 C   0  0  0  0  0  0
  -21.9906   -9.0256   20.4659 C   0  0  0  0  0  0
  -22.7239  -10.2143   20.3093 C   0  0  0  0  0  0
  -21.6845   -6.0739   22.5274 C   0  0  0  0  0  0
  -21.4010   -6.5639   23.8205 C   0  0  0  0  0  0
  -21.3664   -5.6794   24.9171 C   0  0  0  0  0  0
  -21.6041   -4.3047   24.7213 C   0  0  0  0  0  0
  -21.8815   -3.8143   23.4328 C   0  0  0  0  0  0
  -21.9182   -4.6968   22.3399 C   0  0  0  0  0  0
  -22.7794  -13.5237   21.1802 C   0  0  0  0  0  0
  -22.1648   -4.2152   21.0973 F   0  0  0  0  0  0
  -21.5634   -3.4532   25.7730 F   0  0  0  0  0  0
  -29.9756  -13.6271   20.4119 N   0  0  0  0  0  0
  -26.2933  -12.9460   20.3294 N   0  0  0  0  0  0
  -25.9341  -11.6593   20.5780 N   0  0  0  0  0  0
  -22.0426  -12.8291   22.0397 N   0  0  0  0  0  0
  -25.4243  -15.1963   20.4207 N   0  0  0  0  0  0
  -31.7486  -14.9742   20.0734 O   0  0  0  0  0  0
  -21.6631   -6.8882   21.4250 O   0  0  0  0  0  0
  -22.3484  -14.5521   20.6588 O   0  0  0  0  0  0
  -24.6414  -31.8471   23.1895 C   0  0  0  0  0  0
  -25.9206  -32.4706   23.8281 C   0  0  1  0  0  0
  -27.2102  -27.1533   20.1758 C   0  0  0  0  0  0
  -25.5970  -33.8507   24.2227 N   0  0  0  0  0  0
  -23.4424  -30.4677   21.5322 C   0  0  2  0  0  0
  -24.8941  -28.8933   20.1153 C   0  0  0  0  0  0
  -22.7557  -29.4564   22.4836 C   0  0  0  0  0  0
  -18.0317  -28.1357   22.8503 C   0  0  0  0  0  0
  -24.1491  -36.7255   23.2636 C   0  0  0  0  0  0
  -25.9963  -30.7296   21.3821 C   0  0  0  0  0  0
  -26.0708  -29.3387   20.7344 C   0  0  0  0  0  0
  -27.2338  -28.4853   20.7500 C   0  0  0  0  0  0
  -26.0175  -26.8059   19.5087 C   0  0  0  0  0  0
  -24.8796  -27.6397   19.4852 C   0  0  0  0  0  0
  -23.6695  -29.7931   20.1536 C   0  0  0  0  0  0
  -25.4119  -36.3033   24.0325 C   0  0  1  0  0  0
  -20.5934  -28.3691   23.1261 C   0  0  2  0  0  0
  -20.6786  -26.9406   22.5404 C   0  0  0  0  0  0
  -19.5754  -26.6370   21.5206 C   0  0  0  0  0  0
  -18.1944  -26.7918   22.1635 C   0  0  0  0  0  0
  -19.1582  -28.8833   23.2880 C   0  0  0  0  0  0
  -18.9512  -30.1436   23.8891 C   0  0  0  0  0  0
  -17.6516  -30.6568   24.0555 C   0  0  0  0  0  0
  -25.9067  -34.9405   23.5077 C   0  0  0  0  0  0
  -16.5395  -29.9073   23.6330 C   0  0  0  0  0  0
  -16.7307  -28.6480   23.0378 C   0  0  0  0  0  0
  -26.4541  -31.6555   25.0699 C   0  0  0  0  0  0
  -25.3759  -31.3728   26.1421 C   0  0  0  0  0  0
  -27.0394  -30.2961   24.6231 C   0  0  0  0  0  0
  -27.6080  -32.4310   25.7491 C   0  0  0  0  0  0
  -27.5574  -37.1773   24.8469 C   0  0  0  0  0  0
  -21.4239  -29.3078   22.3659 N   0  0  0  0  0  0
  -26.4277  -37.3746   23.9418 N   0  0  0  0  0  0
  -24.7129  -31.0358   22.0896 N   0  0  0  0  0  0
  -23.4243  -28.8099   23.2950 O   0  0  0  0  0  0
  -28.2368  -26.1504   20.2193 O   0  0  0  0  0  0
  -26.5634  -34.8907   22.4646 O   0  0  0  0  0  0
  -23.5538  -32.1332   23.7135 O   0  0  0  0  0  0
  -30.1026  -21.5437   20.8742 C   0  0  0  0  0  0
  -29.2275  -20.4171   20.6662 C   0  0  0  0  0  0
  -27.5514  -22.1274   20.3176 C   0  0  0  0  0  0
  -28.4305  -23.2640   20.5407 C   0  0  0  0  0  0
  -23.7563  -22.0687   21.3594 C   0  0  0  0  0  0
  -28.5505  -18.4478   22.2033 C   0  0  0  0  0  0
  -26.0378  -22.2848   20.1668 C   0  0  0  0  0  0
  -27.9038  -24.7963   20.8853 C   0  0  0  0  0  0
  -25.2853  -21.9551   21.4725 C   0  0  0  0  0  0
  -29.9049  -17.5380   20.1651 C   0  0  0  0  0  0
  -29.5589  -18.8606   21.1224 C   0  0  1  0  0  0
  -29.7316  -22.8908   20.8056 N   0  0  0  0  0  0
  -27.9472  -20.7864   20.3371 N   0  0  0  0  0  0
  -29.7853  -16.0375   20.6401 N   0  0  0  0  0  0
  -31.4867  -12.6717   19.2094 H   0  0  0  0  0  0
  -30.4242  -11.5749   20.0412 H   0  0  0  0  0  0
  -29.8330  -11.6983   17.6007 H   0  0  0  0  0  0
  -29.6353  -13.4311   17.7166 H   0  0  0  0  0  0
  -27.9362  -11.2672   18.9820 H   0  0  0  0  0  0
  -27.3993  -12.4502   17.8257 H   0  0  0  0  0  0
  -27.6122  -14.2466   19.4220 H   0  0  0  0  0  0
  -28.7436  -12.2656   21.4593 H   0  0  0  0  0  0
  -28.3902  -13.9515   21.7746 H   0  0  0  0  0  0
  -25.2768   -9.5679   22.4781 H   0  0  0  0  0  0
  -23.9983   -7.4658   22.7494 H   0  0  0  0  0  0
  -21.0821   -8.8793   19.8987 H   0  0  0  0  0  0
  -22.3703  -10.9679   19.6201 H   0  0  0  0  0  0
  -21.2018   -7.6145   23.9705 H   0  0  0  0  0  0
  -21.1494   -6.0526   25.9072 H   0  0  0  0  0  0
  -22.0596   -2.7602   23.2825 H   0  0  0  0  0  0
  -22.3984  -11.9998   22.4899 H   0  0  0  0  0  0
  -21.1051  -13.1390   22.2537 H   0  0  0  0  0  0
  -24.6664  -15.8581   20.5533 H   0  0  0  0  0  0
  -26.2846  -15.6377   20.1212 H   0  0  0  0  0  0
  -26.7268  -32.5329   23.1007 H   0  0  0  0  0  0
  -25.0129  -33.9646   25.0378 H   0  0  0  0  0  0
  -22.7444  -31.2915   21.3771 H   0  0  0  0  0  0
  -23.3751  -35.9579   23.3272 H   0  0  0  0  0  0
  -24.3573  -36.8909   22.2050 H   0  0  0  0  0  0
  -23.7244  -37.6452   23.6678 H   0  0  0  0  0  0
  -26.1457  -31.4775   20.6030 H   0  0  0  0  0  0
  -26.8699  -30.7861   22.0191 H   0  0  0  0  0  0
  -28.1252  -28.8205   21.2600 H   0  0  0  0  0  0
  -25.9500  -25.8408   19.0258 H   0  0  0  0  0  0
  -23.9827  -27.2932   18.9908 H   0  0  0  0  0  0
  -23.8069  -30.5654   19.3966 H   0  0  0  0  0  0
  -22.7860  -29.2340   19.8417 H   0  0  0  0  0  0
  -25.1291  -36.1852   25.0811 H   0  0  0  0  0  0
  -21.0069  -28.3249   24.1365 H   0  0  0  0  0  0
  -20.5621  -26.2315   23.3608 H   0  0  0  0  0  0
  -21.6652  -26.7354   22.1224 H   0  0  0  0  0  0
  -19.6911  -25.6272   21.1235 H   0  0  0  0  0  0
  -19.6674  -27.3175   20.6725 H   0  0  0  0  0  0
  -17.4210  -26.6680   21.4046 H   0  0  0  0  0  0
  -18.0339  -26.0028   22.9004 H   0  0  0  0  0  0
  -19.7991  -30.7238   24.2257 H   0  0  0  0  0  0
  -17.5074  -31.6258   24.5147 H   0  0  0  0  0  0
  -15.5401  -30.2987   23.7638 H   0  0  0  0  0  0
  -15.8710  -28.0792   22.7118 H   0  0  0  0  0  0
  -24.5939  -30.7068   25.7771 H   0  0  0  0  0  0
  -24.8946  -32.2895   26.4830 H   0  0  0  0  0  0
  -25.8079  -30.8932   27.0214 H   0  0  0  0  0  0
  -26.2993  -29.6695   24.1243 H   0  0  0  0  0  0
  -27.4047  -29.7247   25.4776 H   0  0  0  0  0  0
  -27.8884  -30.4228   23.9512 H   0  0  0  0  0  0
  -27.2679  -33.3626   26.2033 H   0  0  0  0  0  0
  -28.3912  -32.6849   25.0336 H   0  0  0  0  0  0
  -28.0717  -31.8453   26.5444 H   0  0  0  0  0  0
  -28.2574  -38.0088   24.7520 H   0  0  0  0  0  0
  -28.1085  -36.2611   24.6269 H   0  0  0  0  0  0
  -27.2293  -37.1393   25.8877 H   0  0  0  0  0  0
  -20.9421  -29.8914   21.6976 H   0  0  0  0  0  0
  -26.0138  -38.2810   24.1431 H   0  0  0  0  0  0
  -31.1191  -21.3647   21.1951 H   0  0  0  0  0  0
  -23.2772  -21.6957   22.2653 H   0  0  0  0  0  0
  -23.3680  -21.4868   20.5224 H   0  0  0  0  0  0
  -23.4374  -23.1028   21.2290 H   0  0  0  0  0  0
  -27.5527  -18.3415   21.7801 H   0  0  0  0  0  0
  -28.5012  -19.1949   22.9965 H   0  0  0  0  0  0
  -28.8199  -17.5023   22.6764 H   0  0  0  0  0  0
  -25.6965  -21.6071   19.3818 H   0  0  0  0  0  0
  -25.7781  -23.2823   19.8125 H   0  0  0  0  0  0
  -28.2625  -24.9409   21.9047 H   0  0  0  0  0  0
  -26.8269  -24.7457   21.0320 H   0  0  0  0  0  0
  -25.5350  -20.9396   21.7876 H   0  0  0  0  0  0
  -25.6310  -22.6106   22.2732 H   0  0  0  0  0  0
  -29.2436  -17.6016   19.3013 H   0  0  0  0  0  0
  -30.9091  -17.6807   19.7608 H   0  0  0  0  0  0
  -30.4917  -18.9901   21.6723 H   0  0  0  0  0  0
  -28.8659  -15.8103   20.9873 H   0  0  0  0  0  0
  1 25  1  0  0  0
  1 30  2  0  0  0
  1 84  1  0  0  0
  2  3  1  0  0  0
  2 25  1  0  0  0
  2 85  1  0  0  0
  2 86  1  0  0  0
  3  4  1  0  0  0
  3 87  1  0  0  0
  3 88  1  0  0  0
  4  5  1  0  0  0
  4 89  1  0  0  0
  4 90  1  0  0  0
  5  6  1  0  0  0
  5 26  1  0  0  0
  5 91  1  0  0  0
  6 25  1  0  0  0
  6 92  1  0  0  0
  6 93  1  0  0  0
  7  8  2  0  0  0
  7 26  1  0  0  0
  7 29  1  0  0  0
  8  9  1  0  0  0
  8 22  1  0  0  0
  9 10  1  0  0  0
  9 27  2  0  0  0
 10 11  2  0  0  0
 10 15  1  0  0  0
 11 12  1  0  0  0
 11 94  1  0  0  0
 12 13  2  0  0  0
 12 95  1  0  0  0
 13 14  1  0  0  0
 13 31  1  0  0  0
 14 15  2  0  0  0
 14 96  1  0  0  0
 15 97  1  0  0  0
 16 17  2  0  0  0
 16 21  1  0  0  0
 16 31  1  0  0  0
 17 18  1  0  0  0
 17 98  1  0  0  0
 18 19  2  0  0  0
 18 99  1  0  0  0
 19 20  1  0  0  0
 19 24  1  0  0  0
 20 21  2  0  0  0
 20100  1  0  0  0
 21 23  1  0  0  0
 22 28  1  0  0  0
 22 32  2  0  0  0
 26 27  1  0  0  0
 28101  1  0  0  0
 28102  1  0  0  0
 29103  1  0  0  0
 29104  1  0  0  0
 33 34  1  0  0  0
 33 66  1  0  0  0
 33 70  2  0  0  0
 34 36  1  0  0  0
 34 59  1  0  0  0
 34105  1  0  0  0
 35 44  2  0  0  0
 35 45  1  0  0  0
 35 68  1  0  0  0
 36 56  1  0  0  0
 36106  1  0  0  0
 37 39  1  0  0  0
 37 47  1  0  0  0
 37 66  1  0  0  0
 37107  1  0  0  0
 38 43  2  0  0  0
 38 46  1  0  0  0
 38 47  1  0  0  0
 39 64  1  0  0  0
 39 67  2  0  0  0
 40 52  1  0  0  0
 40 53  2  0  0  0
 40 58  1  0  0  0
 41108  1  0  0  0
 41109  1  0  0  0
 41110  1  0  0  0
 41 48  1  0  0  0
 42 43  1  0  0  0
 42 66  1  0  0  0
 42111  1  0  0  0
 42112  1  0  0  0
 43 44  1  0  0  0
 44113  1  0  0  0
 45 46  2  0  0  0
 45114  1  0  0  0
 46115  1  0  0  0
 47116  1  0  0  0
 47117  1  0  0  0
 48 56  1  0  0  0
 48 65  1  0  0  0
 48118  1  0  0  0
 49 50  1  0  0  0
 49 53  1  0  0  0
 49 64  1  0  0  0
 49119  1  0  0  0
 50 51  1  0  0  0
 50120  1  0  0  0
 50121  1  0  0  0
 51 52  1  0  0  0
 51122  1  0  0  0
 51123  1  0  0  0
 52124  1  0  0  0
 52125  1  0  0  0
 53 54  1  0  0  0
 54 55  2  0  0  0
 54126  1  0  0  0
 55 57  1  0  0  0
 55127  1  0  0  0
 56 69  2  0  0  0
 57 58  2  0  0  0
 57128  1  0  0  0
 58129  1  0  0  0
 59 60  1  0  0  0
 59 61  1  0  0  0
 59 62  1  0  0  0
 60130  1  0  0  0
 60131  1  0  0  0
 60132  1  0  0  0
 61133  1  0  0  0
 61134  1  0  0  0
 61135  1  0  0  0
 62136  1  0  0  0
 62137  1  0  0  0
 62138  1  0  0  0
 63 65  1  0  0  0
 63139  1  0  0  0
 63140  1  0  0  0
 63141  1  0  0  0
 64142  1  0  0  0
 65143  1  0  0  0
 68 78  1  0  0  0
 71 72  2  0  0  0
 71 82  1  0  0  0
 71144  1  0  0  0
 72 81  1  0  0  0
 72 83  1  0  0  0
 73 74  1  0  0  0
 73 77  1  0  0  0
 73 83  2  0  0  0
 74 78  1  0  0  0
 74 82  2  0  0  0
 75 79  1  0  0  0
 75145  1  0  0  0
 75146  1  0  0  0
 75147  1  0  0  0
 76148  1  0  0  0
 76149  1  0  0  0
 76150  1  0  0  0
 76 81  1  0  0  0
 77 79  1  0  0  0
 77151  1  0  0  0
 77152  1  0  0  0
 78153  1  0  0  0
 78154  1  0  0  0
 79155  1  0  0  0
 79156  1  0  0  0
 80 81  1  0  0  0
 80 84  1  0  0  0
 80157  1  0  0  0
 80158  1  0  0  0
 81159  1  0  0  0
 84160  1  0  0  0
M  ISO  4   1 100  68 101  78 101  84 100
M  END
> <chiral flag>
0

> <version>
0

> <s_m_source_file>
/data/baiqing/PycharmProjects/Reinvent-master-3.2/result/LINK_invent/BTK/process_docking_weight1_custom_sum_contain_oxygen_bond_distance_aromatic_linkinvent_7_9_3/rearranged_h_0063.sdf

> <i_m_source_file_index>
13

> <r_mmod_Potential_Energy-OPLS-2005>
507.691009521484

> <r_mmod_Stretch_Energy-OPLS-2005>
225.773498535156

> <r_mmod_Bend_Energy-OPLS-2005>
256.274536132812

> <r_mmod_Torsional_Energy-OPLS-2005>
239.833114624023

> <r_mmod_Improper_Torsional_Energy-OPLS-2005>
9.96426868438721

> <r_mmod_Van_der_Waal_Energy-OPLS-2005>
128.094589233398

> <r_mmod_Electrostatic_Energy-OPLS-2005>
-295.737579345703

> <r_mmod_Solvation_Energy-OPLS-2005>
-223.505401611328

> <b_mmod_Minimization_Converged-OPLS-2005>
0

> <r_mmod_RMS_Derivative-OPLS-2005>
3.58761739730835

$$$$
15
                    3D
 Structure written by MMmdl.
161169  0  0  1  0            999 V2000
  -30.6904  -14.5545   20.5045 C   0  0  0  0  0  0
  -30.4181  -12.3419   19.4463 C   0  0  0  0  0  0
  -29.4979  -12.4809   18.2152 C   0  0  0  0  0  0
  -28.0166  -12.3477   18.6216 C   0  0  0  0  0  0
  -27.6493  -13.2121   19.8561 C   0  0  2  0  0  0
  -28.6913  -13.0485   20.9845 C   0  0  0  0  0  0
  -25.2578  -13.8186   20.5675 C   0  0  0  0  0  0
  -24.1819  -13.0452   20.9147 C   0  0  0  0  0  0
  -24.6375  -11.6917   20.8701 C   0  0  0  0  0  0
  -23.9045  -10.4301   21.0369 C   0  0  0  0  0  0
  -24.3602   -9.4228   21.9154 C   0  0  0  0  0  0
  -23.6293   -8.2256   22.0725 C   0  0  0  0  0  0
  -22.4275   -8.0277   21.3519 C   0  0  0  0  0  0
  -21.9900   -9.0251   20.4622 C   0  0  0  0  0  0
  -22.7216  -10.2139   20.3030 C   0  0  0  0  0  0
  -21.6862   -6.0723   22.5269 C   0  0  0  0  0  0
  -21.4016   -6.5626   23.8202 C   0  0  0  0  0  0
  -21.3656   -5.6775   24.9162 C   0  0  0  0  0  0
  -21.6052   -4.3042   24.7217 C   0  0  0  0  0  0
  -21.8828   -3.8134   23.4340 C   0  0  0  0  0  0
  -21.9200   -4.6951   22.3393 C   0  0  0  0  0  0
  -22.7860  -13.5264   21.1833 C   0  0  0  0  0  0
  -22.1667   -4.2135   21.0973 F   0  0  0  0  0  0
  -21.5637   -3.4525   25.7730 F   0  0  0  0  0  0
  -30.0103  -13.3689   20.4266 N   0  0  0  0  0  0
  -26.2967  -12.9340   20.3286 N   0  0  0  0  0  0
  -25.9297  -11.6497   20.5712 N   0  0  0  0  0  0
  -22.0485  -12.8260   22.0387 N   0  0  0  0  0  0
  -25.4438  -15.1885   20.4211 N   0  0  0  0  0  0
  -31.8721  -14.6140   20.1405 O   0  0  0  0  0  0
  -21.6643   -6.8869   21.4227 O   0  0  0  0  0  0
  -22.3548  -14.5569   20.6684 O   0  0  0  0  0  0
  -24.6191  -31.8661   23.2080 C   0  0  0  0  0  0
  -25.9063  -32.4819   23.8387 C   0  0  1  0  0  0
  -27.2288  -27.3960   20.1068 C   0  0  0  0  0  0
  -25.5901  -33.8622   24.2330 N   0  0  0  0  0  0
  -23.4104  -30.4901   21.5489 C   0  0  2  0  0  0
  -24.8559  -28.9549   20.1130 C   0  0  0  0  0  0
  -22.7438  -29.4646   22.4959 C   0  0  0  0  0  0
  -18.0272  -28.1388   22.8479 C   0  0  0  0  0  0
  -24.1485  -36.7293   23.2642 C   0  0  0  0  0  0
  -25.9441  -30.8222   21.3661 C   0  0  0  0  0  0
  -26.0205  -29.4564   20.7079 C   0  0  0  0  0  0
  -27.2134  -28.6892   20.6907 C   0  0  0  0  0  0
  -26.0411  -26.9169   19.5094 C   0  0  0  0  0  0
  -24.8634  -27.6865   19.5099 C   0  0  0  0  0  0
  -23.6210  -29.8264   20.1624 C   0  0  0  0  0  0
  -25.4106  -36.3123   24.0356 C   0  0  1  0  0  0
  -20.5861  -28.3687   23.1303 C   0  0  2  0  0  0
  -20.6768  -26.9417   22.5421 C   0  0  0  0  0  0
  -19.5751  -26.6386   21.5218 C   0  0  0  0  0  0
  -18.1924  -26.7929   22.1617 C   0  0  0  0  0  0
  -19.1519  -28.8852   23.2891 C   0  0  0  0  0  0
  -18.9445  -30.1441   23.8918 C   0  0  0  0  0  0
  -17.6454  -30.6595   24.0560 C   0  0  0  0  0  0
  -25.9045  -34.9486   23.5147 C   0  0  0  0  0  0
  -16.5343  -29.9102   23.6315 C   0  0  0  0  0  0
  -16.7256  -28.6513   23.0339 C   0  0  0  0  0  0
  -26.4477  -31.6586   25.0716 C   0  0  0  0  0  0
  -25.3735  -31.3714   26.1465 C   0  0  0  0  0  0
  -27.0336  -30.3035   24.6095 C   0  0  0  0  0  0
  -27.6071  -32.4282   25.7467 C   0  0  0  0  0  0
  -27.5588  -37.1804   24.8474 C   0  0  0  0  0  0
  -21.4154  -29.3052   22.3709 N   0  0  0  0  0  0
  -26.4299  -37.3805   23.9422 N   0  0  0  0  0  0
  -24.6767  -31.0751   22.0979 N   0  0  0  0  0  0
  -23.4193  -28.8191   23.3021 O   0  0  0  0  0  0
  -28.3777  -26.6171   20.1282 O   0  0  0  0  0  0
  -26.5617  -34.8946   22.4710 O   0  0  0  0  0  0
  -23.5375  -32.1411   23.7454 O   0  0  0  0  0  0
  -30.0045  -15.9069   20.7882 C   0  0  0  0  0  0
  -30.2453  -25.3828   21.8784 C   0  0  0  0  0  0
  -30.6220  -22.4936   22.1374 C   0  0  0  0  0  0
  -28.1950  -22.9150   22.4943 C   0  0  0  0  0  0
  -28.7504  -20.3902   20.6443 C   0  0  0  0  0  0
  -29.0186  -21.9121   20.2984 C   0  0  0  0  0  0
  -29.9745  -19.4217   20.7870 C   0  0  0  0  0  0
  -28.2004  -25.1975   20.4002 C   0  0  0  0  0  0
  -29.5003  -24.4547   20.8834 C   0  0  2  0  0  0
  -29.3219  -22.9581   21.4385 C   0  0  0  0  0  0
  -28.7034  -16.1103   21.1733 N   0  0  0  0  0  0
  -30.6607  -17.0509   20.5776 N   0  0  0  0  0  0
  -28.5243  -17.4040   21.2163 N   0  0  0  0  0  0
  -29.6949  -17.9684   20.8276 N   0  0  0  0  0  0
  -31.4616  -12.4354   19.1391 H   0  0  0  0  0  0
  -30.3316  -11.3458   19.8810 H   0  0  0  0  0  0
  -29.7501  -11.7193   17.4746 H   0  0  0  0  0  0
  -29.6646  -13.4443   17.7322 H   0  0  0  0  0  0
  -27.8308  -11.2969   18.8436 H   0  0  0  0  0  0
  -27.3704  -12.5969   17.7793 H   0  0  0  0  0  0
  -27.6724  -14.2467   19.5156 H   0  0  0  0  0  0
  -28.6868  -12.0212   21.3530 H   0  0  0  0  0  0
  -28.4529  -13.6652   21.8506 H   0  0  0  0  0  0
  -25.2743   -9.5733   22.4725 H   0  0  0  0  0  0
  -24.0011   -7.4657   22.7449 H   0  0  0  0  0  0
  -21.0824   -8.8772   19.8937 H   0  0  0  0  0  0
  -22.3658  -10.9674   19.6143 H   0  0  0  0  0  0
  -21.2002   -7.6131   23.9709 H   0  0  0  0  0  0
  -21.1462   -6.0490   25.9062 H   0  0  0  0  0  0
  -22.0615   -2.7594   23.2835 H   0  0  0  0  0  0
  -22.4091  -11.9947   22.4825 H   0  0  0  0  0  0
  -21.1085  -13.1292   22.2518 H   0  0  0  0  0  0
  -24.7131  -15.8707   20.5899 H   0  0  0  0  0  0
  -26.3592  -15.6088   20.2952 H   0  0  0  0  0  0
  -26.7139  -32.5523   23.1156 H   0  0  0  0  0  0
  -25.0024  -33.9789   25.0461 H   0  0  0  0  0  0
  -22.6996  -31.3075   21.4097 H   0  0  0  0  0  0
  -23.3774  -35.9601   23.3325 H   0  0  0  0  0  0
  -24.3574  -36.8874   22.2054 H   0  0  0  0  0  0
  -23.7223  -37.6494   23.6635 H   0  0  0  0  0  0
  -26.0712  -31.5914   20.6027 H   0  0  0  0  0  0
  -26.8268  -30.8668   21.9916 H   0  0  0  0  0  0
  -28.1132  -29.0714   21.1504 H   0  0  0  0  0  0
  -26.0098  -25.9432   19.0420 H   0  0  0  0  0  0
  -23.9658  -27.2937   19.0521 H   0  0  0  0  0  0
  -23.7356  -30.6061   19.4086 H   0  0  0  0  0  0
  -22.7434  -29.2526   19.8588 H   0  0  0  0  0  0
  -25.1278  -36.1986   25.0851 H   0  0  0  0  0  0
  -20.9946  -28.3266   24.1426 H   0  0  0  0  0  0
  -20.5687  -26.2290   23.3612 H   0  0  0  0  0  0
  -21.6643  -26.7482   22.1213 H   0  0  0  0  0  0
  -19.6936  -25.6298   21.1255 H   0  0  0  0  0  0
  -19.6708  -27.3193   20.6750 H   0  0  0  0  0  0
  -17.4200  -26.6653   21.4016 H   0  0  0  0  0  0
  -18.0331  -26.0079   22.9023 H   0  0  0  0  0  0
  -19.7921  -30.7227   24.2330 H   0  0  0  0  0  0
  -17.5016  -31.6282   24.5145 H   0  0  0  0  0  0
  -15.5342  -30.3018   23.7641 H   0  0  0  0  0  0
  -15.8640  -28.0851   22.7053 H   0  0  0  0  0  0
  -24.5939  -30.7007   25.7836 H   0  0  0  0  0  0
  -24.8877  -32.2867   26.4854 H   0  0  0  0  0  0
  -25.8092  -30.8972   27.0270 H   0  0  0  0  0  0
  -26.2889  -29.6738   24.1209 H   0  0  0  0  0  0
  -27.4186  -29.7315   25.4546 H   0  0  0  0  0  0
  -27.8691  -30.4387   23.9219 H   0  0  0  0  0  0
  -27.2731  -33.3598   26.2047 H   0  0  0  0  0  0
  -28.3885  -32.6777   25.0276 H   0  0  0  0  0  0
  -28.0715  -31.8379   26.5376 H   0  0  0  0  0  0
  -28.2623  -38.0086   24.7522 H   0  0  0  0  0  0
  -28.1068  -36.2626   24.6295 H   0  0  0  0  0  0
  -27.2309  -37.1446   25.8877 H   0  0  0  0  0  0
  -20.9329  -29.8773   21.6920 H   0  0  0  0  0  0
  -26.0197  -38.2891   24.1406 H   0  0  0  0  0  0
  -30.3302  -26.4008   21.5026 H   0  0  0  0  0  0
  -31.2753  -25.0680   22.0415 H   0  0  0  0  0  0
  -29.7413  -25.4380   22.8434 H   0  0  0  0  0  0
  -30.5006  -21.5192   22.5999 H   0  0  0  0  0  0
  -30.9180  -23.1370   22.9637 H   0  0  0  0  0  0
  -31.4574  -22.4299   21.4392 H   0  0  0  0  0  0
  -28.1928  -21.9774   23.0495 H   0  0  0  0  0  0
  -27.2116  -23.0146   22.0371 H   0  0  0  0  0  0
  -28.3003  -23.7083   23.2344 H   0  0  0  0  0  0
  -28.1589  -19.9940   19.8183 H   0  0  0  0  0  0
  -28.1023  -20.2991   21.5152 H   0  0  0  0  0  0
  -28.1318  -22.2687   19.7714 H   0  0  0  0  0  0
  -29.8110  -21.9573   19.5494 H   0  0  0  0  0  0
  -30.5413  -19.6411   21.6880 H   0  0  0  0  0  0
  -30.6541  -19.5946   19.9517 H   0  0  0  0  0  0
  -27.4295  -25.1058   21.1653 H   0  0  0  0  0  0
  -27.8200  -24.7022   19.5059 H   0  0  0  0  0  0
  -30.1534  -24.3871   20.0110 H   0  0  0  0  0  0
  1 25  1  0  0  0
  1 30  2  0  0  0
  1 71  1  0  0  0
  2  3  1  0  0  0
  2 25  1  0  0  0
  2 85  1  0  0  0
  2 86  1  0  0  0
  3  4  1  0  0  0
  3 87  1  0  0  0
  3 88  1  0  0  0
  4  5  1  0  0  0
  4 89  1  0  0  0
  4 90  1  0  0  0
  5  6  1  0  0  0
  5 26  1  0  0  0
  5 91  1  0  0  0
  6 25  1  0  0  0
  6 92  1  0  0  0
  6 93  1  0  0  0
  7  8  2  0  0  0
  7 26  1  0  0  0
  7 29  1  0  0  0
  8  9  1  0  0  0
  8 22  1  0  0  0
  9 10  1  0  0  0
  9 27  2  0  0  0
 10 11  2  0  0  0
 10 15  1  0  0  0
 11 12  1  0  0  0
 11 94  1  0  0  0
 12 13  2  0  0  0
 12 95  1  0  0  0
 13 14  1  0  0  0
 13 31  1  0  0  0
 14 15  2  0  0  0
 14 96  1  0  0  0
 15 97  1  0  0  0
 16 17  2  0  0  0
 16 21  1  0  0  0
 16 31  1  0  0  0
 17 18  1  0  0  0
 17 98  1  0  0  0
 18 19  2  0  0  0
 18 99  1  0  0  0
 19 20  1  0  0  0
 19 24  1  0  0  0
 20 21  2  0  0  0
 20100  1  0  0  0
 21 23  1  0  0  0
 22 28  1  0  0  0
 22 32  2  0  0  0
 26 27  1  0  0  0
 28101  1  0  0  0
 28102  1  0  0  0
 29103  1  0  0  0
 29104  1  0  0  0
 33 34  1  0  0  0
 33 66  1  0  0  0
 33 70  2  0  0  0
 34 36  1  0  0  0
 34 59  1  0  0  0
 34105  1  0  0  0
 35 44  2  0  0  0
 35 45  1  0  0  0
 35 68  1  0  0  0
 36 56  1  0  0  0
 36106  1  0  0  0
 37 39  1  0  0  0
 37 47  1  0  0  0
 37 66  1  0  0  0
 37107  1  0  0  0
 38 43  2  0  0  0
 38 46  1  0  0  0
 38 47  1  0  0  0
 39 64  1  0  0  0
 39 67  2  0  0  0
 40 52  1  0  0  0
 40 53  2  0  0  0
 40 58  1  0  0  0
 41108  1  0  0  0
 41109  1  0  0  0
 41110  1  0  0  0
 41 48  1  0  0  0
 42 43  1  0  0  0
 42 66  1  0  0  0
 42111  1  0  0  0
 42112  1  0  0  0
 43 44  1  0  0  0
 44113  1  0  0  0
 45 46  2  0  0  0
 45114  1  0  0  0
 46115  1  0  0  0
 47116  1  0  0  0
 47117  1  0  0  0
 48 56  1  0  0  0
 48 65  1  0  0  0
 48118  1  0  0  0
 49 50  1  0  0  0
 49 53  1  0  0  0
 49 64  1  0  0  0
 49119  1  0  0  0
 50 51  1  0  0  0
 50120  1  0  0  0
 50121  1  0  0  0
 51 52  1  0  0  0
 51122  1  0  0  0
 51123  1  0  0  0
 52124  1  0  0  0
 52125  1  0  0  0
 53 54  1  0  0  0
 54 55  2  0  0  0
 54126  1  0  0  0
 55 57  1  0  0  0
 55127  1  0  0  0
 56 69  2  0  0  0
 57 58  2  0  0  0
 57128  1  0  0  0
 58129  1  0  0  0
 59 60  1  0  0  0
 59 61  1  0  0  0
 59 62  1  0  0  0
 60130  1  0  0  0
 60131  1  0  0  0
 60132  1  0  0  0
 61133  1  0  0  0
 61134  1  0  0  0
 61135  1  0  0  0
 62136  1  0  0  0
 62137  1  0  0  0
 62138  1  0  0  0
 63 65  1  0  0  0
 63139  1  0  0  0
 63140  1  0  0  0
 63141  1  0  0  0
 64142  1  0  0  0
 65143  1  0  0  0
 68 78  1  0  0  0
 71 81  1  0  0  0
 71 82  2  0  0  0
 72144  1  0  0  0
 72145  1  0  0  0
 72146  1  0  0  0
 72 79  1  0  0  0
 73147  1  0  0  0
 73148  1  0  0  0
 73149  1  0  0  0
 73 80  1  0  0  0
 74 80  1  0  0  0
 74150  1  0  0  0
 74151  1  0  0  0
 74152  1  0  0  0
 75 76  1  0  0  0
 75 77  1  0  0  0
 75153  1  0  0  0
 75154  1  0  0  0
 76 80  1  0  0  0
 76155  1  0  0  0
 76156  1  0  0  0
 77 84  1  0  0  0
 77157  1  0  0  0
 77158  1  0  0  0
 78 79  1  0  0  0
 78159  1  0  0  0
 78160  1  0  0  0
 79 80  1  0  0  0
 79161  1  0  0  0
 81 83  2  0  0  0
 82 84  1  0  0  0
 83 84  1  0  0  0
M  ISO  4   1 100  68 101  71 100  78 101
M  END
> <chiral flag>
0

> <version>
0

> <s_m_source_file>
/data/baiqing/PycharmProjects/Reinvent-master-3.2/result/LINK_invent/BTK/process_docking_weight1_custom_sum_contain_oxygen_bond_distance_aromatic_linkinvent_7_9_3/rearranged_h_0063.sdf

> <i_m_source_file_index>
14

> <r_mmod_Potential_Energy-OPLS-2005>
214.879486083984

> <r_mmod_Stretch_Energy-OPLS-2005>
60.756519317627

> <r_mmod_Bend_Energy-OPLS-2005>
142.060958862305

> <r_mmod_Torsional_Energy-OPLS-2005>
239.156295776367

> <r_mmod_Improper_Torsional_Energy-OPLS-2005>
5.53605461120605

> <r_mmod_Van_der_Waal_Energy-OPLS-2005>
139.00602722168

> <r_mmod_Electrostatic_Energy-OPLS-2005>
-210.263092041016

> <r_mmod_Solvation_Energy-OPLS-2005>
-187.725143432617

> <b_mmod_Minimization_Converged-OPLS-2005>
0

> <r_mmod_RMS_Derivative-OPLS-2005>
2.37887334823608

$$$$
16
                    3D
 Structure written by MMmdl.
163171  0  0  1  0            999 V2000
  -30.8027  -14.7356   20.2673 C   0  0  0  0  0  0
  -30.4100  -12.4607   19.3785 C   0  0  0  0  0  0
  -29.4331  -12.2961   18.2016 C   0  0  0  0  0  0
  -27.9736  -12.2433   18.6742 C   0  0  0  0  0  0
  -27.6193  -13.2185   19.8317 C   0  0  2  0  0  0
  -28.7356  -13.3100   20.8912 C   0  0  0  0  0  0
  -25.2484  -13.8182   20.5920 C   0  0  0  0  0  0
  -24.1748  -13.0456   20.9333 C   0  0  0  0  0  0
  -24.6332  -11.6924   20.8943 C   0  0  0  0  0  0
  -23.9036  -10.4293   21.0498 C   0  0  0  0  0  0
  -24.3599   -9.4174   21.9235 C   0  0  0  0  0  0
  -23.6289   -8.2206   22.0762 C   0  0  0  0  0  0
  -22.4276   -8.0264   21.3537 C   0  0  0  0  0  0
  -21.9921   -9.0255   20.4645 C   0  0  0  0  0  0
  -22.7239  -10.2143   20.3100 C   0  0  0  0  0  0
  -21.6840   -6.0738   22.5286 C   0  0  0  0  0  0
  -21.4002   -6.5648   23.8214 C   0  0  0  0  0  0
  -21.3657   -5.6798   24.9181 C   0  0  0  0  0  0
  -21.6037   -4.3061   24.7224 C   0  0  0  0  0  0
  -21.8819   -3.8152   23.4347 C   0  0  0  0  0  0
  -21.9177   -4.6972   22.3398 C   0  0  0  0  0  0
  -22.7750  -13.5240   21.1898 C   0  0  0  0  0  0
  -22.1650   -4.2159   21.0975 F   0  0  0  0  0  0
  -21.5636   -3.4544   25.7732 F   0  0  0  0  0  0
  -29.9719  -13.6370   20.1538 N   0  0  0  0  0  0
  -26.2923  -12.9370   20.3642 N   0  0  0  0  0  0
  -25.9284  -11.6539   20.6150 N   0  0  0  0  0  0
  -22.0353  -12.8238   22.0417 N   0  0  0  0  0  0
  -25.4179  -15.1920   20.4286 N   0  0  0  0  0  0
  -31.9232  -14.4572   20.6637 O   0  0  0  0  0  0
  -21.6626   -6.8876   21.4243 O   0  0  0  0  0  0
  -22.3460  -14.5550   20.6706 O   0  0  0  0  0  0
  -24.6280  -31.8618   23.2045 C   0  0  0  0  0  0
  -25.9115  -32.4800   23.8395 C   0  0  1  0  0  0
  -27.2128  -27.3084   20.1198 C   0  0  0  0  0  0
  -25.5922  -33.8603   24.2309 N   0  0  0  0  0  0
  -23.4228  -30.4811   21.5517 C   0  0  2  0  0  0
  -24.8638  -28.9386   20.1092 C   0  0  0  0  0  0
  -22.7514  -29.4607   22.5013 C   0  0  0  0  0  0
  -18.0297  -28.1383   22.8492 C   0  0  0  0  0  0
  -24.1471  -36.7284   23.2636 C   0  0  0  0  0  0
  -25.9625  -30.7833   21.3790 C   0  0  0  0  0  0
  -26.0350  -29.4116   20.7176 C   0  0  0  0  0  0
  -27.2164  -28.6120   20.7065 C   0  0  0  0  0  0
  -26.0267  -26.8938   19.4752 C   0  0  0  0  0  0
  -24.8651  -27.6887   19.4701 C   0  0  0  0  0  0
  -23.6318  -29.8195   20.1652 C   0  0  0  0  0  0
  -25.4106  -36.3092   24.0327 C   0  0  1  0  0  0
  -20.5888  -28.3688   23.1296 C   0  0  2  0  0  0
  -20.6780  -26.9426   22.5403 C   0  0  0  0  0  0
  -19.5734  -26.6381   21.5226 C   0  0  0  0  0  0
  -18.1922  -26.7925   22.1644 C   0  0  0  0  0  0
  -19.1548  -28.8865   23.2872 C   0  0  0  0  0  0
  -18.9471  -30.1470   23.8880 C   0  0  0  0  0  0
  -17.6468  -30.6586   24.0561 C   0  0  0  0  0  0
  -25.9046  -34.9473   23.5117 C   0  0  0  0  0  0
  -16.5361  -29.9071   23.6337 C   0  0  0  0  0  0
  -16.7287  -28.6485   23.0367 C   0  0  0  0  0  0
  -26.4485  -31.6614   25.0782 C   0  0  0  0  0  0
  -25.3711  -31.3750   26.1508 C   0  0  0  0  0  0
  -27.0330  -30.3039   24.6245 C   0  0  0  0  0  0
  -27.6037  -32.4384   25.7539 C   0  0  0  0  0  0
  -27.5580  -37.1805   24.8478 C   0  0  0  0  0  0
  -21.4230  -29.3026   22.3720 N   0  0  0  0  0  0
  -26.4289  -37.3790   23.9413 N   0  0  0  0  0  0
  -24.6900  -31.0603   22.1010 N   0  0  0  0  0  0
  -23.4229  -28.8186   23.3136 O   0  0  0  0  0  0
  -28.3158  -26.4410   20.1458 O   0  0  0  0  0  0
  -26.5628  -34.8939   22.4689 O   0  0  0  0  0  0
  -23.5446  -32.1452   23.7344 O   0  0  0  0  0  0
  -29.7783  -18.6369   19.4186 C   0  0  0  0  0  0
  -29.7411  -19.7149   20.2839 C   0  0  0  0  0  0
  -29.9206  -19.0344   21.5294 C   0  0  0  0  0  0
  -30.0411  -19.6498   22.8881 C   0  0  0  0  0  0
  -28.6469  -15.9401   17.8158 C   0  0  0  0  0  0
  -29.7590  -21.2501   19.9088 C   0  0  0  0  0  0
  -28.7632  -22.3436   20.5076 C   0  0  0  0  0  0
  -29.0521  -23.8691   20.0849 C   0  0  0  0  0  0
  -28.0754  -25.0339   20.5747 C   0  0  0  0  0  0
  -30.7384  -16.1706   19.4483 C   0  0  1  0  0  0
  -30.1775  -15.9849   17.9752 C   0  0  0  0  0  0
  -32.2632  -16.6129   19.2491 C   0  0  0  0  0  0
  -30.1122  -17.7071   21.4023 N   0  0  0  0  0  0
  -30.1010  -17.4237   20.0699 N   0  0  0  0  0  0
  -30.7152  -14.9134   17.3989 F   0  0  0  0  0  0
  -30.5417  -16.9834   17.1694 F   0  0  0  0  0  0
  -32.9766  -15.7111   18.5592 F   0  0  0  0  0  0
  -32.9011  -16.8204   20.4082 F   0  0  0  0  0  0
  -32.3998  -17.7657   18.5874 F   0  0  0  0  0  0
  -31.4248  -12.5682   18.9901 H   0  0  0  0  0  0
  -30.4209  -11.5638   20.0022 H   0  0  0  0  0  0
  -29.6693  -11.3696   17.6736 H   0  0  0  0  0  0
  -29.5329  -13.0627   17.4469 H   0  0  0  0  0  0
  -27.8097  -11.2184   19.0100 H   0  0  0  0  0  0
  -27.2959  -12.3932   17.8322 H   0  0  0  0  0  0
  -27.5409  -14.2084   19.4027 H   0  0  0  0  0  0
  -28.8356  -12.3729   21.4412 H   0  0  0  0  0  0
  -28.5072  -14.0864   21.6232 H   0  0  0  0  0  0
  -25.2732   -9.5658   22.4831 H   0  0  0  0  0  0
  -23.9990   -7.4596   22.7484 H   0  0  0  0  0  0
  -21.0849   -8.8778   19.8947 H   0  0  0  0  0  0
  -22.3697  -10.9703   19.6230 H   0  0  0  0  0  0
  -21.1993   -7.6152   23.9733 H   0  0  0  0  0  0
  -21.1486   -6.0522   25.9085 H   0  0  0  0  0  0
  -22.0598   -2.7617   23.2837 H   0  0  0  0  0  0
  -22.3964  -11.9897   22.4788 H   0  0  0  0  0  0
  -21.0968  -13.1272   22.2636 H   0  0  0  0  0  0
  -24.6499  -15.8454   20.5361 H   0  0  0  0  0  0
  -26.2865  -15.6406   20.1744 H   0  0  0  0  0  0
  -26.7218  -32.5438   23.1166 H   0  0  0  0  0  0
  -25.0059  -33.9759   25.0458 H   0  0  0  0  0  0
  -22.7168  -31.3028   21.4167 H   0  0  0  0  0  0
  -23.3751  -35.9600   23.3309 H   0  0  0  0  0  0
  -24.3549  -36.8897   22.2051 H   0  0  0  0  0  0
  -23.7220  -37.6480   23.6668 H   0  0  0  0  0  0
  -26.1086  -31.5464   20.6145 H   0  0  0  0  0  0
  -26.8385  -30.8207   22.0162 H   0  0  0  0  0  0
  -28.1145  -28.9737   21.1881 H   0  0  0  0  0  0
  -25.9806  -25.9370   18.9745 H   0  0  0  0  0  0
  -23.9767  -27.3310   18.9671 H   0  0  0  0  0  0
  -23.7457  -30.6008   19.4125 H   0  0  0  0  0  0
  -22.7465  -29.2513   19.8698 H   0  0  0  0  0  0
  -25.1289  -36.1951   25.0825 H   0  0  0  0  0  0
  -20.9964  -28.3229   24.1422 H   0  0  0  0  0  0
  -20.5713  -26.2311   23.3601 H   0  0  0  0  0  0
  -21.6643  -26.7479   22.1181 H   0  0  0  0  0  0
  -19.6897  -25.6295   21.1243 H   0  0  0  0  0  0
  -19.6631  -27.3192   20.6757 H   0  0  0  0  0  0
  -17.4202  -26.6701   21.4029 H   0  0  0  0  0  0
  -18.0311  -26.0072   22.9051 H   0  0  0  0  0  0
  -19.7952  -30.7297   24.2226 H   0  0  0  0  0  0
  -17.5021  -31.6256   24.5173 H   0  0  0  0  0  0
  -15.5353  -30.2963   23.7662 H   0  0  0  0  0  0
  -15.8697  -28.0778   22.7105 H   0  0  0  0  0  0
  -24.5842  -30.7159   25.7824 H   0  0  0  0  0  0
  -24.8948  -32.2911   26.5013 H   0  0  0  0  0  0
  -25.7995  -30.8857   27.0260 H   0  0  0  0  0  0
  -26.2909  -29.6822   24.1224 H   0  0  0  0  0  0
  -27.3969  -29.7272   25.4754 H   0  0  0  0  0  0
  -27.8809  -30.4335   23.9516 H   0  0  0  0  0  0
  -27.2622  -33.3670   26.2133 H   0  0  0  0  0  0
  -28.3801  -32.6990   25.0335 H   0  0  0  0  0  0
  -28.0777  -31.8541   26.5441 H   0  0  0  0  0  0
  -28.2616  -38.0083   24.7525 H   0  0  0  0  0  0
  -28.1049  -36.2622   24.6302 H   0  0  0  0  0  0
  -27.2294  -37.1462   25.8877 H   0  0  0  0  0  0
  -20.9473  -29.8724   21.6865 H   0  0  0  0  0  0
  -26.0165  -38.2861   24.1416 H   0  0  0  0  0  0
  -29.7376  -18.6988   18.3436 H   0  0  0  0  0  0
  -29.0699  -19.7403   23.3697 H   0  0  0  0  0  0
  -30.4809  -20.6448   22.8261 H   0  0  0  0  0  0
  -30.6775  -19.0470   23.5360 H   0  0  0  0  0  0
  -28.3175  -16.5554   16.9790 H   0  0  0  0  0  0
  -28.1205  -16.3055   18.6979 H   0  0  0  0  0  0
  -28.3001  -14.9369   17.5862 H   0  0  0  0  0  0
  -29.6536  -21.3343   18.8267 H   0  0  0  0  0  0
  -30.7711  -21.6203   20.0877 H   0  0  0  0  0  0
  -28.7795  -22.2839   21.5964 H   0  0  0  0  0  0
  -27.7494  -22.0852   20.1960 H   0  0  0  0  0  0
  -29.0922  -23.9168   18.9969 H   0  0  0  0  0  0
  -30.0590  -24.1196   20.4150 H   0  0  0  0  0  0
  -28.1135  -25.0569   21.6632 H   0  0  0  0  0  0
  -27.0644  -24.7090   20.3428 H   0  0  0  0  0  0
  1 25  1  0  0  0
  1 30  2  0  0  0
  1 80  1  0  0  0
  2  3  1  0  0  0
  2 25  1  0  0  0
  2 90  1  0  0  0
  2 91  1  0  0  0
  3  4  1  0  0  0
  3 92  1  0  0  0
  3 93  1  0  0  0
  4  5  1  0  0  0
  4 94  1  0  0  0
  4 95  1  0  0  0
  5  6  1  0  0  0
  5 26  1  0  0  0
  5 96  1  0  0  0
  6 25  1  0  0  0
  6 97  1  0  0  0
  6 98  1  0  0  0
  7  8  2  0  0  0
  7 26  1  0  0  0
  7 29  1  0  0  0
  8  9  1  0  0  0
  8 22  1  0  0  0
  9 10  1  0  0  0
  9 27  2  0  0  0
 10 11  2  0  0  0
 10 15  1  0  0  0
 11 12  1  0  0  0
 11 99  1  0  0  0
 12 13  2  0  0  0
 12100  1  0  0  0
 13 14  1  0  0  0
 13 31  1  0  0  0
 14 15  2  0  0  0
 14101  1  0  0  0
 15102  1  0  0  0
 16 17  2  0  0  0
 16 21  1  0  0  0
 16 31  1  0  0  0
 17 18  1  0  0  0
 17103  1  0  0  0
 18 19  2  0  0  0
 18104  1  0  0  0
 19 20  1  0  0  0
 19 24  1  0  0  0
 20 21  2  0  0  0
 20105  1  0  0  0
 21 23  1  0  0  0
 22 28  1  0  0  0
 22 32  2  0  0  0
 26 27  1  0  0  0
 28106  1  0  0  0
 28107  1  0  0  0
 29108  1  0  0  0
 29109  1  0  0  0
 33 34  1  0  0  0
 33 66  1  0  0  0
 33 70  2  0  0  0
 34 36  1  0  0  0
 34 59  1  0  0  0
 34110  1  0  0  0
 35 44  2  0  0  0
 35 45  1  0  0  0
 35 68  1  0  0  0
 36 56  1  0  0  0
 36111  1  0  0  0
 37 39  1  0  0  0
 37 47  1  0  0  0
 37 66  1  0  0  0
 37112  1  0  0  0
 38 43  2  0  0  0
 38 46  1  0  0  0
 38 47  1  0  0  0
 39 64  1  0  0  0
 39 67  2  0  0  0
 40 52  1  0  0  0
 40 53  2  0  0  0
 40 58  1  0  0  0
 41113  1  0  0  0
 41114  1  0  0  0
 41115  1  0  0  0
 41 48  1  0  0  0
 42 43  1  0  0  0
 42 66  1  0  0  0
 42116  1  0  0  0
 42117  1  0  0  0
 43 44  1  0  0  0
 44118  1  0  0  0
 45 46  2  0  0  0
 45119  1  0  0  0
 46120  1  0  0  0
 47121  1  0  0  0
 47122  1  0  0  0
 48 56  1  0  0  0
 48 65  1  0  0  0
 48123  1  0  0  0
 49 50  1  0  0  0
 49 53  1  0  0  0
 49 64  1  0  0  0
 49124  1  0  0  0
 50 51  1  0  0  0
 50125  1  0  0  0
 50126  1  0  0  0
 51 52  1  0  0  0
 51127  1  0  0  0
 51128  1  0  0  0
 52129  1  0  0  0
 52130  1  0  0  0
 53 54  1  0  0  0
 54 55  2  0  0  0
 54131  1  0  0  0
 55 57  1  0  0  0
 55132  1  0  0  0
 56 69  2  0  0  0
 57 58  2  0  0  0
 57133  1  0  0  0
 58134  1  0  0  0
 59 60  1  0  0  0
 59 61  1  0  0  0
 59 62  1  0  0  0
 60135  1  0  0  0
 60136  1  0  0  0
 60137  1  0  0  0
 61138  1  0  0  0
 61139  1  0  0  0
 61140  1  0  0  0
 62141  1  0  0  0
 62142  1  0  0  0
 62143  1  0  0  0
 63 65  1  0  0  0
 63144  1  0  0  0
 63145  1  0  0  0
 63146  1  0  0  0
 64147  1  0  0  0
 65148  1  0  0  0
 68 79  1  0  0  0
 71 72  2  0  0  0
 71 84  1  0  0  0
 71149  1  0  0  0
 72 73  1  0  0  0
 72 76  1  0  0  0
 73 74  1  0  0  0
 73 83  2  0  0  0
 74150  1  0  0  0
 74151  1  0  0  0
 74152  1  0  0  0
 75153  1  0  0  0
 75154  1  0  0  0
 75155  1  0  0  0
 75 81  1  0  0  0
 76 77  1  0  0  0
 76156  1  0  0  0
 76157  1  0  0  0
 77 78  1  0  0  0
 77158  1  0  0  0
 77159  1  0  0  0
 78 79  1  0  0  0
 78160  1  0  0  0
 78161  1  0  0  0
 79162  1  0  0  0
 79163  1  0  0  0
 80 81  1  0  0  0
 80 82  1  0  0  0
 80 84  1  0  0  0
 81 85  1  0  0  0
 81 86  1  0  0  0
 82 87  1  0  0  0
 82 88  1  0  0  0
 82 89  1  0  0  0
 83 84  1  0  0  0
M  ISO  4   1 100  68 101  79 101  80 100
M  END
> <chiral flag>
0

> <version>
0

> <s_m_source_file>
/data/baiqing/PycharmProjects/Reinvent-master-3.2/result/LINK_invent/BTK/process_docking_weight1_custom_sum_contain_oxygen_bond_distance_aromatic_linkinvent_7_9_3/rearranged_h_0063.sdf

> <i_m_source_file_index>
15

> <r_mmod_Potential_Energy-OPLS-2005>
669.106384277344

> <r_mmod_Stretch_Energy-OPLS-2005>
121.776473999023

> <r_mmod_Bend_Energy-OPLS-2005>
211.682205200195

> <r_mmod_Torsional_Energy-OPLS-2005>
293.197357177734

> <r_mmod_Improper_Torsional_Energy-OPLS-2005>
23.5848999023438

> <r_mmod_Van_der_Waal_Energy-OPLS-2005>
148.821395874023

> <r_mmod_Electrostatic_Energy-OPLS-2005>
-98.9160766601562

> <r_mmod_Solvation_Energy-OPLS-2005>
-189.562393188477

> <b_mmod_Minimization_Converged-OPLS-2005>
0

> <r_mmod_RMS_Derivative-OPLS-2005>
4.04359245300293

$$$$
17
                    3D
 Structure written by MMmdl.
161170  0  0  1  0            999 V2000
  -30.6292  -14.7269   20.4440 C   0  0  0  0  0  0
  -30.4249  -12.4430   19.4673 C   0  0  0  0  0  0
  -29.5045  -12.4984   18.2295 C   0  0  0  0  0  0
  -28.0306  -12.3286   18.6452 C   0  0  0  0  0  0
  -27.6376  -13.2334   19.8441 C   0  0  2  0  0  0
  -28.6835  -13.1773   20.9777 C   0  0  0  0  0  0
  -25.2499  -13.8210   20.5704 C   0  0  0  0  0  0
  -24.1793  -13.0447   20.9210 C   0  0  0  0  0  0
  -24.6387  -11.6925   20.8748 C   0  0  0  0  0  0
  -23.9070  -10.4295   21.0408 C   0  0  0  0  0  0
  -24.3622   -9.4209   21.9184 C   0  0  0  0  0  0
  -23.6296   -8.2245   22.0754 C   0  0  0  0  0  0
  -22.4277   -8.0283   21.3545 C   0  0  0  0  0  0
  -21.9914   -9.0258   20.4648 C   0  0  0  0  0  0
  -22.7243  -10.2135   20.3057 C   0  0  0  0  0  0
  -21.6853   -6.0736   22.5279 C   0  0  0  0  0  0
  -21.4015   -6.5640   23.8213 C   0  0  0  0  0  0
  -21.3662   -5.6793   24.9175 C   0  0  0  0  0  0
  -21.6045   -4.3056   24.7226 C   0  0  0  0  0  0
  -21.8820   -3.8147   23.4347 C   0  0  0  0  0  0
  -21.9192   -4.6964   22.3403 C   0  0  0  0  0  0
  -22.7816  -13.5227   21.1872 C   0  0  0  0  0  0
  -22.1660   -4.2149   21.0980 F   0  0  0  0  0  0
  -21.5629   -3.4541   25.7739 F   0  0  0  0  0  0
  -29.9826  -13.5148   20.3870 N   0  0  0  0  0  0
  -26.2917  -12.9416   20.3263 N   0  0  0  0  0  0
  -25.9313  -11.6557   20.5740 N   0  0  0  0  0  0
  -22.0462  -12.8211   22.0426 N   0  0  0  0  0  0
  -25.4191  -15.1942   20.4162 N   0  0  0  0  0  0
  -31.8363  -14.7745   20.2024 O   0  0  0  0  0  0
  -21.6640   -6.8882   21.4242 O   0  0  0  0  0  0
  -22.3503  -14.5536   20.6722 O   0  0  0  0  0  0
  -24.6294  -31.8560   23.1977 C   0  0  0  0  0  0
  -25.9126  -32.4758   23.8323 C   0  0  1  0  0  0
  -27.2197  -27.2773   20.1372 C   0  0  0  0  0  0
  -25.5926  -33.8559   24.2254 N   0  0  0  0  0  0
  -23.4256  -30.4769   21.5410 C   0  0  2  0  0  0
  -24.8727  -28.9184   20.1157 C   0  0  0  0  0  0
  -22.7491  -29.4607   22.4920 C   0  0  0  0  0  0
  -18.0289  -28.1389   22.8487 C   0  0  0  0  0  0
  -24.1490  -36.7287   23.2641 C   0  0  0  0  0  0
  -25.9688  -30.7749   21.3727 C   0  0  0  0  0  0
  -26.0434  -29.3961   20.7198 C   0  0  0  0  0  0
  -27.2240  -28.5894   20.7141 C   0  0  0  0  0  0
  -26.0293  -26.8540   19.5141 C   0  0  0  0  0  0
  -24.8692  -27.6547   19.5016 C   0  0  0  0  0  0
  -23.6433  -29.8053   20.1590 C   0  0  0  0  0  0
  -25.4116  -36.3071   24.0328 C   0  0  1  0  0  0
  -20.5890  -28.3698   23.1274 C   0  0  2  0  0  0
  -20.6776  -26.9416   22.5411 C   0  0  0  0  0  0
  -19.5752  -26.6387   21.5212 C   0  0  0  0  0  0
  -18.1933  -26.7931   22.1626 C   0  0  0  0  0  0
  -19.1542  -28.8861   23.2874 C   0  0  0  0  0  0
  -18.9463  -30.1460   23.8894 C   0  0  0  0  0  0
  -17.6463  -30.6589   24.0563 C   0  0  0  0  0  0
  -25.9055  -34.9442   23.5095 C   0  0  0  0  0  0
  -16.5355  -29.9088   23.6331 C   0  0  0  0  0  0
  -16.7276  -28.6505   23.0354 C   0  0  0  0  0  0
  -26.4497  -31.6580   25.0709 C   0  0  0  0  0  0
  -25.3723  -31.3726   26.1431 C   0  0  0  0  0  0
  -27.0348  -30.3002   24.6185 C   0  0  0  0  0  0
  -27.6050  -32.4321   25.7485 C   0  0  0  0  0  0
  -27.5578  -37.1800   24.8465 C   0  0  0  0  0  0
  -21.4200  -29.3045   22.3662 N   0  0  0  0  0  0
  -26.4292  -37.3770   23.9407 N   0  0  0  0  0  0
  -24.6937  -31.0540   22.0939 N   0  0  0  0  0  0
  -23.4198  -28.8156   23.3021 O   0  0  0  0  0  0
  -28.3216  -26.4031   20.1325 O   0  0  0  0  0  0
  -26.5629  -34.8916   22.4665 O   0  0  0  0  0  0
  -23.5448  -32.1370   23.7287 O   0  0  0  0  0  0
  -25.8971  -18.9246   18.9460 C   0  0  0  0  0  0
  -25.3126  -20.1799   18.9203 C   0  0  0  0  0  0
  -27.3484  -20.3915   19.7912 C   0  0  0  0  0  0
  -28.5705  -20.8287   20.3797 C   0  0  0  0  0  0
  -29.2034  -18.5079   20.3145 C   0  0  0  0  0  0
  -23.9681  -20.6251   18.4460 C   0  0  0  0  0  0
  -31.1836  -17.5520   19.1279 C   0  0  0  0  0  0
  -28.7448  -22.3253   20.9047 C   0  0  0  0  0  0
  -28.5239  -23.6565   20.0000 C   0  0  0  0  0  0
  -28.1791  -25.0484   20.7547 C   0  0  0  0  0  0
  -30.3015  -17.3596   20.3823 C   0  0  2  0  0  0
  -29.5138  -19.8335   20.6408 N   0  0  0  0  0  0
  -28.0289  -18.1485   19.7345 N   0  0  0  0  0  0
  -27.1329  -19.1173   19.4973 N   0  0  0  0  0  0
  -26.2439  -21.0489   19.4604 N   0  3  0  0  0  0
  -29.8762  -15.8885   20.5334 N   0  0  0  0  0  0
  -31.4668  -12.5574   19.1636 H   0  0  0  0  0  0
  -30.3608  -11.4698   19.9566 H   0  0  0  0  0  0
  -29.7835  -11.7224   17.5155 H   0  0  0  0  0  0
  -29.6349  -13.4514   17.7137 H   0  0  0  0  0  0
  -27.8859  -11.2811   18.9115 H   0  0  0  0  0  0
  -27.3730  -12.5187   17.7961 H   0  0  0  0  0  0
  -27.6279  -14.2524   19.4571 H   0  0  0  0  0  0
  -28.7150  -12.1854   21.4311 H   0  0  0  0  0  0
  -28.4256  -13.8732   21.7775 H   0  0  0  0  0  0
  -25.2767   -9.5683   22.4757 H   0  0  0  0  0  0
  -24.0006   -7.4636   22.7473 H   0  0  0  0  0  0
  -21.0845   -8.8779   19.8953 H   0  0  0  0  0  0
  -22.3705  -10.9675   19.6167 H   0  0  0  0  0  0
  -21.2007   -7.6148   23.9719 H   0  0  0  0  0  0
  -21.1484   -6.0521   25.9080 H   0  0  0  0  0  0
  -22.0595   -2.7609   23.2847 H   0  0  0  0  0  0
  -22.4079  -11.9872   22.4813 H   0  0  0  0  0  0
  -21.1080  -13.1235   22.2633 H   0  0  0  0  0  0
  -24.6584  -15.8459   20.5717 H   0  0  0  0  0  0
  -26.2768  -15.6429   20.1247 H   0  0  0  0  0  0
  -26.7195  -32.5415   23.1069 H   0  0  0  0  0  0
  -25.0066  -33.9696   25.0394 H   0  0  0  0  0  0
  -22.7212  -31.2979   21.3929 H   0  0  0  0  0  0
  -23.3750  -35.9620   23.3301 H   0  0  0  0  0  0
  -24.3577  -36.8909   22.2054 H   0  0  0  0  0  0
  -23.7243  -37.6488   23.6667 H   0  0  0  0  0  0
  -26.1020  -31.5337   20.6003 H   0  0  0  0  0  0
  -26.8482  -30.8278   22.0029 H   0  0  0  0  0  0
  -28.1257  -28.9532   21.1864 H   0  0  0  0  0  0
  -25.9939  -25.8825   19.0415 H   0  0  0  0  0  0
  -23.9726  -27.2828   19.0254 H   0  0  0  0  0  0
  -23.7680  -30.5781   19.3998 H   0  0  0  0  0  0
  -22.7617  -29.2374   19.8561 H   0  0  0  0  0  0
  -25.1298  -36.1919   25.0821 H   0  0  0  0  0  0
  -20.9980  -28.3277   24.1395 H   0  0  0  0  0  0
  -20.5675  -26.2307   23.3616 H   0  0  0  0  0  0
  -21.6645  -26.7443   22.1206 H   0  0  0  0  0  0
  -19.6912  -25.6297   21.1245 H   0  0  0  0  0  0
  -19.6688  -27.3192   20.6736 H   0  0  0  0  0  0
  -17.4204  -26.6675   21.4029 H   0  0  0  0  0  0
  -18.0333  -26.0072   22.9022 H   0  0  0  0  0  0
  -19.7939  -30.7277   24.2264 H   0  0  0  0  0  0
  -17.5019  -31.6269   24.5166 H   0  0  0  0  0  0
  -15.5356  -30.2991   23.7658 H   0  0  0  0  0  0
  -15.8674  -28.0825   22.7072 H   0  0  0  0  0  0
  -24.5900  -30.7074   25.7757 H   0  0  0  0  0  0
  -24.8913  -32.2896   26.4849 H   0  0  0  0  0  0
  -25.8040  -30.8907   27.0212 H   0  0  0  0  0  0
  -26.2931  -29.6745   24.1208 H   0  0  0  0  0  0
  -27.4037  -29.7267   25.4698 H   0  0  0  0  0  0
  -27.8800  -30.4281   23.9417 H   0  0  0  0  0  0
  -27.2657  -33.3623   26.2055 H   0  0  0  0  0  0
  -28.3866  -32.6879   25.0319 H   0  0  0  0  0  0
  -28.0713  -31.8451   26.5408 H   0  0  0  0  0  0
  -28.2599  -38.0095   24.7507 H   0  0  0  0  0  0
  -28.1071  -36.2626   24.6300 H   0  0  0  0  0  0
  -27.2296  -37.1455   25.8868 H   0  0  0  0  0  0
  -20.9381  -29.8767   21.6869 H   0  0  0  0  0  0
  -26.0170  -38.2846   24.1400 H   0  0  0  0  0  0
  -25.5251  -17.9563   18.6280 H   0  0  0  0  0  0
  -23.5785  -19.9288   17.7035 H   0  0  0  0  0  0
  -24.0266  -21.6135   17.9905 H   0  0  0  0  0  0
  -23.2680  -20.6655   19.2804 H   0  0  0  0  0  0
  -31.5051  -18.5902   19.0388 H   0  0  0  0  0  0
  -30.6354  -17.3039   18.2189 H   0  0  0  0  0  0
  -32.0959  -16.9603   19.1467 H   0  0  0  0  0  0
  -29.7314  -22.3939   21.3632 H   0  0  0  0  0  0
  -28.0508  -22.3998   21.7427 H   0  0  0  0  0  0
  -27.7225  -23.4771   19.2854 H   0  0  0  0  0  0
  -29.4180  -23.7967   19.3922 H   0  0  0  0  0  0
  -28.8321  -25.0902   21.6269 H   0  0  0  0  0  0
  -27.1785  -24.9558   21.1797 H   0  0  0  0  0  0
  -30.9117  -17.5844   21.2578 H   0  0  0  0  0  0
  -26.1045  -22.0420   19.5916 H   0  0  0  0  0  0
  -28.8886  -15.7530   20.6819 H   0  0  0  0  0  0
  1 25  1  0  0  0
  1 30  2  0  0  0
  1 86  1  0  0  0
  2  3  1  0  0  0
  2 25  1  0  0  0
  2 87  1  0  0  0
  2 88  1  0  0  0
  3  4  1  0  0  0
  3 89  1  0  0  0
  3 90  1  0  0  0
  4  5  1  0  0  0
  4 91  1  0  0  0
  4 92  1  0  0  0
  5  6  1  0  0  0
  5 26  1  0  0  0
  5 93  1  0  0  0
  6 25  1  0  0  0
  6 94  1  0  0  0
  6 95  1  0  0  0
  7  8  2  0  0  0
  7 26  1  0  0  0
  7 29  1  0  0  0
  8  9  1  0  0  0
  8 22  1  0  0  0
  9 10  1  0  0  0
  9 27  2  0  0  0
 10 11  2  0  0  0
 10 15  1  0  0  0
 11 12  1  0  0  0
 11 96  1  0  0  0
 12 13  2  0  0  0
 12 97  1  0  0  0
 13 14  1  0  0  0
 13 31  1  0  0  0
 14 15  2  0  0  0
 14 98  1  0  0  0
 15 99  1  0  0  0
 16 17  2  0  0  0
 16 21  1  0  0  0
 16 31  1  0  0  0
 17 18  1  0  0  0
 17100  1  0  0  0
 18 19  2  0  0  0
 18101  1  0  0  0
 19 20  1  0  0  0
 19 24  1  0  0  0
 20 21  2  0  0  0
 20102  1  0  0  0
 21 23  1  0  0  0
 22 28  1  0  0  0
 22 32  2  0  0  0
 26 27  1  0  0  0
 28103  1  0  0  0
 28104  1  0  0  0
 29105  1  0  0  0
 29106  1  0  0  0
 33 34  1  0  0  0
 33 66  1  0  0  0
 33 70  2  0  0  0
 34 36  1  0  0  0
 34 59  1  0  0  0
 34107  1  0  0  0
 35 44  2  0  0  0
 35 45  1  0  0  0
 35 68  1  0  0  0
 36 56  1  0  0  0
 36108  1  0  0  0
 37 39  1  0  0  0
 37 47  1  0  0  0
 37 66  1  0  0  0
 37109  1  0  0  0
 38 43  2  0  0  0
 38 46  1  0  0  0
 38 47  1  0  0  0
 39 64  1  0  0  0
 39 67  2  0  0  0
 40 52  1  0  0  0
 40 53  2  0  0  0
 40 58  1  0  0  0
 41110  1  0  0  0
 41111  1  0  0  0
 41112  1  0  0  0
 41 48  1  0  0  0
 42 43  1  0  0  0
 42 66  1  0  0  0
 42113  1  0  0  0
 42114  1  0  0  0
 43 44  1  0  0  0
 44115  1  0  0  0
 45 46  2  0  0  0
 45116  1  0  0  0
 46117  1  0  0  0
 47118  1  0  0  0
 47119  1  0  0  0
 48 56  1  0  0  0
 48 65  1  0  0  0
 48120  1  0  0  0
 49 50  1  0  0  0
 49 53  1  0  0  0
 49 64  1  0  0  0
 49121  1  0  0  0
 50 51  1  0  0  0
 50122  1  0  0  0
 50123  1  0  0  0
 51 52  1  0  0  0
 51124  1  0  0  0
 51125  1  0  0  0
 52126  1  0  0  0
 52127  1  0  0  0
 53 54  1  0  0  0
 54 55  2  0  0  0
 54128  1  0  0  0
 55 57  1  0  0  0
 55129  1  0  0  0
 56 69  2  0  0  0
 57 58  2  0  0  0
 57130  1  0  0  0
 58131  1  0  0  0
 59 60  1  0  0  0
 59 61  1  0  0  0
 59 62  1  0  0  0
 60132  1  0  0  0
 60133  1  0  0  0
 60134  1  0  0  0
 61135  1  0  0  0
 61136  1  0  0  0
 61137  1  0  0  0
 62138  1  0  0  0
 62139  1  0  0  0
 62140  1  0  0  0
 63 65  1  0  0  0
 63141  1  0  0  0
 63142  1  0  0  0
 63143  1  0  0  0
 64144  1  0  0  0
 65145  1  0  0  0
 68 80  1  0  0  0
 71 72  2  0  0  0
 71 84  1  0  0  0
 71146  1  0  0  0
 72 76  1  0  0  0
 72 85  1  0  0  0
 73 74  1  0  0  0
 73 84  1  0  0  0
 73 85  2  0  0  0
 74 78  1  0  0  0
 74 82  2  0  0  0
 75 81  1  0  0  0
 75 82  1  0  0  0
 75 83  2  0  0  0
 76147  1  0  0  0
 76148  1  0  0  0
 76149  1  0  0  0
 77150  1  0  0  0
 77151  1  0  0  0
 77152  1  0  0  0
 77 81  1  0  0  0
 78 79  1  0  0  0
 78153  1  0  0  0
 78154  1  0  0  0
 79 80  1  0  0  0
 79155  1  0  0  0
 79156  1  0  0  0
 80157  1  0  0  0
 80158  1  0  0  0
 81 86  1  0  0  0
 81159  1  0  0  0
 83 84  1  0  0  0
 85160  1  0  0  0
 86161  1  0  0  0
M  CHG  1  85   1
M  ISO  4   1 100  68 101  80 101  86 100
M  END
> <chiral flag>
0

> <version>
0

> <s_m_source_file>
/data/baiqing/PycharmProjects/Reinvent-master-3.2/result/LINK_invent/BTK/process_docking_weight1_custom_sum_contain_oxygen_bond_distance_aromatic_linkinvent_7_9_3/rearranged_h_0063.sdf

> <i_m_source_file_index>
16

> <r_mmod_Potential_Energy-OPLS-2005>
91.8272094726562

> <r_mmod_Stretch_Energy-OPLS-2005>
122.310607910156

> <r_mmod_Bend_Energy-OPLS-2005>
194.363662719727

> <r_mmod_Torsional_Energy-OPLS-2005>
212.657028198242

> <r_mmod_Improper_Torsional_Energy-OPLS-2005>
6.89145612716675

> <r_mmod_Van_der_Waal_Energy-OPLS-2005>
129.517272949219

> <r_mmod_Electrostatic_Energy-OPLS-2005>
-226.947860717773

> <r_mmod_Solvation_Energy-OPLS-2005>
-425.062042236328

> <b_mmod_Minimization_Converged-OPLS-2005>
0

> <r_mmod_RMS_Derivative-OPLS-2005>
0.3848916888237

$$$$
18
                    3D
 Structure written by MMmdl.
178186  0  0  1  0            999 V2000
  -30.7966  -14.4522   20.5464 C   0  0  0  0  0  0
  -30.3930  -12.3010   19.4173 C   0  0  0  0  0  0
  -29.4780  -12.4877   18.1923 C   0  0  0  0  0  0
  -27.9933  -12.3755   18.5960 C   0  0  0  0  0  0
  -27.6488  -13.2091   19.8594 C   0  0  2  0  0  0
  -28.7003  -13.0040   20.9748 C   0  0  0  0  0  0
  -25.2545  -13.8184   20.5634 C   0  0  0  0  0  0
  -24.1820  -13.0451   20.9174 C   0  0  0  0  0  0
  -24.6375  -11.6920   20.8746 C   0  0  0  0  0  0
  -23.9054  -10.4301   21.0410 C   0  0  0  0  0  0
  -24.3618   -9.4214   21.9181 C   0  0  0  0  0  0
  -23.6305   -8.2246   22.0740 C   0  0  0  0  0  0
  -22.4290   -8.0278   21.3534 C   0  0  0  0  0  0
  -21.9923   -9.0247   20.4633 C   0  0  0  0  0  0
  -22.7233  -10.2130   20.3052 C   0  0  0  0  0  0
  -21.6857   -6.0740   22.5271 C   0  0  0  0  0  0
  -21.3999   -6.5644   23.8206 C   0  0  0  0  0  0
  -21.3665   -5.6801   24.9169 C   0  0  0  0  0  0
  -21.6050   -4.3065   24.7213 C   0  0  0  0  0  0
  -21.8821   -3.8156   23.4336 C   0  0  0  0  0  0
  -21.9184   -4.6970   22.3391 C   0  0  0  0  0  0
  -22.7837  -13.5213   21.1853 C   0  0  0  0  0  0
  -22.1664   -4.2160   21.0976 F   0  0  0  0  0  0
  -21.5635   -3.4548   25.7732 F   0  0  0  0  0  0
  -30.0165  -13.3360   20.4063 N   0  0  0  0  0  0
  -26.2965  -12.9341   20.3328 N   0  0  0  0  0  0
  -25.9293  -11.6500   20.5759 N   0  0  0  0  0  0
  -22.0496  -12.8190   22.0413 N   0  0  0  0  0  0
  -25.4313  -15.1889   20.3972 N   0  0  0  0  0  0
  -31.9612  -14.4179   20.1463 O   0  0  0  0  0  0
  -21.6650   -6.8872   21.4235 O   0  0  0  0  0  0
  -22.3518  -14.5501   20.6670 O   0  0  0  0  0  0
  -24.6149  -31.8688   23.2168 C   0  0  0  0  0  0
  -25.9043  -32.4824   23.8433 C   0  0  1  0  0  0
  -27.2228  -27.4518   20.0746 C   0  0  0  0  0  0
  -25.5899  -33.8620   24.2379 N   0  0  0  0  0  0
  -23.3971  -30.5025   21.5571 C   0  0  2  0  0  0
  -24.8370  -28.9803   20.1138 C   0  0  0  0  0  0
  -22.7375  -29.4716   22.4990 C   0  0  0  0  0  0
  -18.0253  -28.1379   22.8506 C   0  0  0  0  0  0
  -24.1477  -36.7318   23.2639 C   0  0  0  0  0  0
  -25.9288  -30.8409   21.3687 C   0  0  0  0  0  0
  -26.0041  -29.4817   20.7072 C   0  0  0  0  0  0
  -27.1973  -28.7247   20.6886 C   0  0  0  0  0  0
  -26.0293  -26.9752   19.4718 C   0  0  0  0  0  0
  -24.8437  -27.7217   19.5002 C   0  0  0  0  0  0
  -23.6011  -29.8443   20.1690 C   0  0  0  0  0  0
  -25.4096  -36.3113   24.0347 C   0  0  1  0  0  0
  -20.5851  -28.3675   23.1300 C   0  0  2  0  0  0
  -20.6770  -26.9407   22.5400 C   0  0  0  0  0  0
  -19.5748  -26.6401   21.5192 C   0  0  0  0  0  0
  -18.1911  -26.7930   22.1605 C   0  0  0  0  0  0
  -19.1504  -28.8837   23.2910 C   0  0  0  0  0  0
  -18.9443  -30.1440   23.8925 C   0  0  0  0  0  0
  -17.6446  -30.6595   24.0563 C   0  0  0  0  0  0
  -25.9022  -34.9479   23.5162 C   0  0  0  0  0  0
  -16.5343  -29.9091   23.6335 C   0  0  0  0  0  0
  -16.7248  -28.6499   23.0382 C   0  0  0  0  0  0
  -26.4485  -31.6579   25.0746 C   0  0  0  0  0  0
  -25.3762  -31.3634   26.1503 C   0  0  0  0  0  0
  -27.0349  -30.3033   24.6117 C   0  0  0  0  0  0
  -27.6079  -32.4286   25.7482 C   0  0  0  0  0  0
  -27.5584  -37.1796   24.8468 C   0  0  0  0  0  0
  -21.4109  -29.3043   22.3712 N   0  0  0  0  0  0
  -26.4301  -37.3793   23.9414 N   0  0  0  0  0  0
  -24.6659  -31.0824   22.1061 N   0  0  0  0  0  0
  -23.4139  -28.8253   23.3044 O   0  0  0  0  0  0
  -28.3918  -26.7126   20.0805 O   0  0  0  0  0  0
  -26.5568  -34.8916   22.4702 O   0  0  0  0  0  0
  -23.5364  -32.1452   23.7567 O   0  0  0  0  0  0
  -29.2556  -18.9370   18.0052 C   0  0  0  0  0  0
  -29.6081  -19.8947   18.9227 C   0  0  0  0  0  0
  -30.3284  -17.9086   19.6626 C   0  0  0  0  0  0
  -32.1682  -16.4999   22.8627 C   0  0  0  0  0  0
  -33.1479  -18.1945   21.3067 C   0  0  0  0  0  0
  -27.1636  -22.4721   19.0002 C   0  0  0  0  0  0
  -27.7143  -20.8953   20.8055 C   0  0  0  0  0  0
  -29.6434  -16.4516   17.7716 C   0  0  0  0  0  0
  -29.0686  -15.9846   21.6298 C   0  0  0  0  0  0
  -29.4498  -21.3884   18.9279 C   0  0  0  0  0  0
  -29.4037  -24.4180   20.1654 C   0  0  0  0  0  0
  -28.9367  -23.0739   20.7904 C   0  0  0  0  0  0
  -28.2351  -25.3274   19.7604 C   0  0  0  0  0  0
  -31.0894  -16.8953   20.4977 C   0  0  1  0  0  0
  -31.8406  -17.4988   21.7354 C   0  0  0  0  0  0
  -28.3357  -21.9616   19.8668 C   0  0  0  0  0  0
  -29.7248  -17.7350   18.4719 N   0  0  0  0  0  0
  -30.2481  -19.2187   19.9260 N   0  3  0  0  0  0
  -30.2596  -15.6868   20.8178 N   0  0  0  0  0  0
  -31.4375  -12.3423   19.1009 H   0  0  0  0  0  0
  -30.2683  -11.3011   19.8385 H   0  0  0  0  0  0
  -29.7147  -11.7516   17.4222 H   0  0  0  0  0  0
  -29.6665  -13.4643   17.7451 H   0  0  0  0  0  0
  -27.7684  -11.3234   18.7689 H   0  0  0  0  0  0
  -27.3595  -12.6851   17.7636 H   0  0  0  0  0  0
  -27.6805  -14.2470   19.5444 H   0  0  0  0  0  0
  -28.6881  -11.9595   21.2890 H   0  0  0  0  0  0
  -28.4611  -13.5536   21.8805 H   0  0  0  0  0  0
  -25.2760   -9.5656   22.4772 H   0  0  0  0  0  0
  -24.0016   -7.4598   22.7431 H   0  0  0  0  0  0
  -21.0871   -8.8719   19.8920 H   0  0  0  0  0  0
  -22.3681  -10.9655   19.6163 H   0  0  0  0  0  0
  -21.2005   -7.6157   23.9690 H   0  0  0  0  0  0
  -21.1492   -6.0549   25.9067 H   0  0  0  0  0  0
  -22.0607   -2.7624   23.2830 H   0  0  0  0  0  0
  -22.4160  -11.9854   22.4775 H   0  0  0  0  0  0
  -21.1085  -13.1129   22.2619 H   0  0  0  0  0  0
  -24.6707  -15.8529   20.4888 H   0  0  0  0  0  0
  -26.2825  -15.6103   20.0507 H   0  0  0  0  0  0
  -26.7102  -32.5543   23.1194 H   0  0  0  0  0  0
  -25.0056  -33.9794   25.0530 H   0  0  0  0  0  0
  -22.6884  -31.3225   21.4232 H   0  0  0  0  0  0
  -23.3738  -35.9648   23.3302 H   0  0  0  0  0  0
  -24.3613  -36.8945   22.2062 H   0  0  0  0  0  0
  -23.7234  -37.6526   23.6655 H   0  0  0  0  0  0
  -26.0439  -31.6125   20.6057 H   0  0  0  0  0  0
  -26.8169  -30.8856   21.9861 H   0  0  0  0  0  0
  -28.0978  -29.1090   21.1483 H   0  0  0  0  0  0
  -25.9779  -26.0226   18.9687 H   0  0  0  0  0  0
  -23.9479  -27.3251   19.0416 H   0  0  0  0  0  0
  -23.6970  -30.6229   19.4113 H   0  0  0  0  0  0
  -22.7250  -29.2615   19.8805 H   0  0  0  0  0  0
  -25.1264  -36.1987   25.0844 H   0  0  0  0  0  0
  -20.9924  -28.3232   24.1430 H   0  0  0  0  0  0
  -20.5666  -26.2260   23.3583 H   0  0  0  0  0  0
  -21.6652  -26.7473   22.1196 H   0  0  0  0  0  0
  -19.6925  -25.6309   21.1223 H   0  0  0  0  0  0
  -19.6711  -27.3199   20.6714 H   0  0  0  0  0  0
  -17.4193  -26.6662   21.3995 H   0  0  0  0  0  0
  -18.0343  -26.0044   22.8982 H   0  0  0  0  0  0
  -19.7927  -30.7232   24.2302 H   0  0  0  0  0  0
  -17.5027  -31.6285   24.5148 H   0  0  0  0  0  0
  -15.5351  -30.3018   23.7669 H   0  0  0  0  0  0
  -15.8639  -28.0833   22.7110 H   0  0  0  0  0  0
  -24.5967  -30.6948   25.7830 H   0  0  0  0  0  0
  -24.8923  -32.2773   26.4963 H   0  0  0  0  0  0
  -25.8161  -30.8810   27.0246 H   0  0  0  0  0  0
  -26.2915  -29.6728   24.1241 H   0  0  0  0  0  0
  -27.4210  -29.7325   25.4574 H   0  0  0  0  0  0
  -27.8697  -30.4371   23.9231 H   0  0  0  0  0  0
  -27.2732  -33.3593   26.2070 H   0  0  0  0  0  0
  -28.3872  -32.6827   25.0275 H   0  0  0  0  0  0
  -28.0749  -31.8388   26.5382 H   0  0  0  0  0  0
  -28.2575  -38.0113   24.7558 H   0  0  0  0  0  0
  -28.1109  -36.2657   24.6246 H   0  0  0  0  0  0
  -27.2327  -37.1405   25.8877 H   0  0  0  0  0  0
  -20.9222  -29.8735   21.6941 H   0  0  0  0  0  0
  -26.0189  -38.2869   24.1426 H   0  0  0  0  0  0
  -28.7486  -19.0263   17.0529 H   0  0  0  0  0  0
  -32.7180  -16.9898   23.6680 H   0  0  0  0  0  0
  -32.7829  -15.6774   22.4988 H   0  0  0  0  0  0
  -31.2745  -16.0721   23.3141 H   0  0  0  0  0  0
  -33.6104  -18.7133   22.1465 H   0  0  0  0  0  0
  -32.9940  -18.9325   20.5202 H   0  0  0  0  0  0
  -33.8743  -17.4701   20.9344 H   0  0  0  0  0  0
  -26.6451  -21.6494   18.5062 H   0  0  0  0  0  0
  -27.4907  -23.1431   18.2073 H   0  0  0  0  0  0
  -26.4142  -22.9941   19.5941 H   0  0  0  0  0  0
  -27.2816  -20.0593   20.2536 H   0  0  0  0  0  0
  -26.9069  -21.3243   21.4023 H   0  0  0  0  0  0
  -28.4406  -20.4919   21.5101 H   0  0  0  0  0  0
  -28.9036  -15.8198   18.2608 H   0  0  0  0  0  0
  -30.6183  -15.9647   17.7776 H   0  0  0  0  0  0
  -29.3431  -16.6201   16.7376 H   0  0  0  0  0  0
  -28.9547  -17.0521   21.8259 H   0  0  0  0  0  0
  -29.1297  -15.5156   22.6128 H   0  0  0  0  0  0
  -28.1498  -15.6706   21.1435 H   0  0  0  0  0  0
  -29.3042  -21.7193   17.8984 H   0  0  0  0  0  0
  -30.4205  -21.8041   19.2011 H   0  0  0  0  0  0
  -30.0757  -24.2538   19.3237 H   0  0  0  0  0  0
  -29.9929  -24.9436   20.9194 H   0  0  0  0  0  0
  -28.2288  -23.3077   21.5860 H   0  0  0  0  0  0
  -29.7862  -22.6462   21.3223 H   0  0  0  0  0  0
  -27.3546  -24.9611   20.2887 H   0  0  0  0  0  0
  -28.0581  -25.2333   18.6877 H   0  0  0  0  0  0
  -31.8750  -16.6513   19.7810 H   0  0  0  0  0  0
  -31.1968  -18.2487   22.1980 H   0  0  0  0  0  0
  -30.6517  -19.6551   20.7474 H   0  0  0  0  0  0
  1 25  1  0  0  0
  1 30  2  0  0  0
  1 89  1  0  0  0
  2  3  1  0  0  0
  2 25  1  0  0  0
  2 90  1  0  0  0
  2 91  1  0  0  0
  3  4  1  0  0  0
  3 92  1  0  0  0
  3 93  1  0  0  0
  4  5  1  0  0  0
  4 94  1  0  0  0
  4 95  1  0  0  0
  5  6  1  0  0  0
  5 26  1  0  0  0
  5 96  1  0  0  0
  6 25  1  0  0  0
  6 97  1  0  0  0
  6 98  1  0  0  0
  7  8  2  0  0  0
  7 26  1  0  0  0
  7 29  1  0  0  0
  8  9  1  0  0  0
  8 22  1  0  0  0
  9 10  1  0  0  0
  9 27  2  0  0  0
 10 11  2  0  0  0
 10 15  1  0  0  0
 11 12  1  0  0  0
 11 99  1  0  0  0
 12 13  2  0  0  0
 12100  1  0  0  0
 13 14  1  0  0  0
 13 31  1  0  0  0
 14 15  2  0  0  0
 14101  1  0  0  0
 15102  1  0  0  0
 16 17  2  0  0  0
 16 21  1  0  0  0
 16 31  1  0  0  0
 17 18  1  0  0  0
 17103  1  0  0  0
 18 19  2  0  0  0
 18104  1  0  0  0
 19 20  1  0  0  0
 19 24  1  0  0  0
 20 21  2  0  0  0
 20105  1  0  0  0
 21 23  1  0  0  0
 22 28  1  0  0  0
 22 32  2  0  0  0
 26 27  1  0  0  0
 28106  1  0  0  0
 28107  1  0  0  0
 29108  1  0  0  0
 29109  1  0  0  0
 33 34  1  0  0  0
 33 66  1  0  0  0
 33 70  2  0  0  0
 34 36  1  0  0  0
 34 59  1  0  0  0
 34110  1  0  0  0
 35 44  2  0  0  0
 35 45  1  0  0  0
 35 68  1  0  0  0
 36 56  1  0  0  0
 36111  1  0  0  0
 37 39  1  0  0  0
 37 47  1  0  0  0
 37 66  1  0  0  0
 37112  1  0  0  0
 38 43  2  0  0  0
 38 46  1  0  0  0
 38 47  1  0  0  0
 39 64  1  0  0  0
 39 67  2  0  0  0
 40 52  1  0  0  0
 40 53  2  0  0  0
 40 58  1  0  0  0
 41113  1  0  0  0
 41114  1  0  0  0
 41115  1  0  0  0
 41 48  1  0  0  0
 42 43  1  0  0  0
 42 66  1  0  0  0
 42116  1  0  0  0
 42117  1  0  0  0
 43 44  1  0  0  0
 44118  1  0  0  0
 45 46  2  0  0  0
 45119  1  0  0  0
 46120  1  0  0  0
 47121  1  0  0  0
 47122  1  0  0  0
 48 56  1  0  0  0
 48 65  1  0  0  0
 48123  1  0  0  0
 49 50  1  0  0  0
 49 53  1  0  0  0
 49 64  1  0  0  0
 49124  1  0  0  0
 50 51  1  0  0  0
 50125  1  0  0  0
 50126  1  0  0  0
 51 52  1  0  0  0
 51127  1  0  0  0
 51128  1  0  0  0
 52129  1  0  0  0
 52130  1  0  0  0
 53 54  1  0  0  0
 54 55  2  0  0  0
 54131  1  0  0  0
 55 57  1  0  0  0
 55132  1  0  0  0
 56 69  2  0  0  0
 57 58  2  0  0  0
 57133  1  0  0  0
 58134  1  0  0  0
 59 60  1  0  0  0
 59 61  1  0  0  0
 59 62  1  0  0  0
 60135  1  0  0  0
 60136  1  0  0  0
 60137  1  0  0  0
 61138  1  0  0  0
 61139  1  0  0  0
 61140  1  0  0  0
 62141  1  0  0  0
 62142  1  0  0  0
 62143  1  0  0  0
 63 65  1  0  0  0
 63144  1  0  0  0
 63145  1  0  0  0
 63146  1  0  0  0
 64147  1  0  0  0
 65148  1  0  0  0
 68 83  1  0  0  0
 71 72  2  0  0  0
 71 87  1  0  0  0
 71149  1  0  0  0
 72 80  1  0  0  0
 72 88  1  0  0  0
 73 84  1  0  0  0
 73 87  1  0  0  0
 73 88  2  0  0  0
 74150  1  0  0  0
 74151  1  0  0  0
 74152  1  0  0  0
 74 85  1  0  0  0
 75 85  1  0  0  0
 75153  1  0  0  0
 75154  1  0  0  0
 75155  1  0  0  0
 76156  1  0  0  0
 76157  1  0  0  0
 76158  1  0  0  0
 76 86  1  0  0  0
 77 86  1  0  0  0
 77159  1  0  0  0
 77160  1  0  0  0
 77161  1  0  0  0
 78 87  1  0  0  0
 78162  1  0  0  0
 78163  1  0  0  0
 78164  1  0  0  0
 79 89  1  0  0  0
 79165  1  0  0  0
 79166  1  0  0  0
 79167  1  0  0  0
 80 86  1  0  0  0
 80168  1  0  0  0
 80169  1  0  0  0
 81 82  1  0  0  0
 81 83  1  0  0  0
 81170  1  0  0  0
 81171  1  0  0  0
 82 86  1  0  0  0
 82172  1  0  0  0
 82173  1  0  0  0
 83174  1  0  0  0
 83175  1  0  0  0
 84 85  1  0  0  0
 84 89  1  0  0  0
 84176  1  0  0  0
 85177  1  0  0  0
 88178  1  0  0  0
M  CHG  1  88   1
M  ISO  4   1 100  68 101  83 101  89 100
M  END
> <chiral flag>
0

> <version>
0

> <s_m_source_file>
/data/baiqing/PycharmProjects/Reinvent-master-3.2/result/LINK_invent/BTK/process_docking_weight1_custom_sum_contain_oxygen_bond_distance_aromatic_linkinvent_7_9_3/rearranged_h_0063.sdf

> <i_m_source_file_index>
17

> <r_mmod_Potential_Energy-OPLS-2005>
154.223739624023

> <r_mmod_Stretch_Energy-OPLS-2005>
47.3535537719727

> <r_mmod_Bend_Energy-OPLS-2005>
148.435791015625

> <r_mmod_Torsional_Energy-OPLS-2005>
285.997344970703

> <r_mmod_Improper_Torsional_Energy-OPLS-2005>
8.6563663482666

> <r_mmod_Van_der_Waal_Energy-OPLS-2005>
163.907089233398

> <r_mmod_Electrostatic_Energy-OPLS-2005>
-145.377975463867

> <r_mmod_Solvation_Energy-OPLS-2005>
-378.762115478516

> <b_mmod_Minimization_Converged-OPLS-2005>
0

> <r_mmod_RMS_Derivative-OPLS-2005>
4.09090995788574

$$$$
19
                    3D
 Structure written by MMmdl.
175183  0  0  1  0            999 V2000
  -30.5384  -14.8545   20.4678 C   0  0  0  0  0  0
  -30.4231  -12.5146   19.4962 C   0  0  0  0  0  0
  -29.5044  -12.5053   18.2503 C   0  0  0  0  0  0
  -28.0374  -12.2987   18.6821 C   0  0  0  0  0  0
  -27.6315  -13.2239   19.8591 C   0  0  2  0  0  0
  -28.6733  -13.1882   20.9963 C   0  0  0  0  0  0
  -25.2453  -13.8225   20.5756 C   0  0  0  0  0  0
  -24.1698  -13.0439   20.9287 C   0  0  0  0  0  0
  -24.6258  -11.6941   20.8752 C   0  0  0  0  0  0
  -23.8958  -10.4277   21.0411 C   0  0  0  0  0  0
  -24.3562   -9.4199   21.9174 C   0  0  0  0  0  0
  -23.6276   -8.2198   22.0726 C   0  0  0  0  0  0
  -22.4241   -8.0235   21.3541 C   0  0  0  0  0  0
  -21.9885   -9.0161   20.4599 C   0  0  0  0  0  0
  -22.7164  -10.2082   20.3012 C   0  0  0  0  0  0
  -21.6823   -6.0709   22.5264 C   0  0  0  0  0  0
  -21.3966   -6.5618   23.8192 C   0  0  0  0  0  0
  -21.3691   -5.6782   24.9184 C   0  0  0  0  0  0
  -21.6079   -4.3036   24.7227 C   0  0  0  0  0  0
  -21.8815   -3.8129   23.4333 C   0  0  0  0  0  0
  -21.9173   -4.6950   22.3399 C   0  0  0  0  0  0
  -22.7749  -13.5224   21.2019 C   0  0  0  0  0  0
  -22.1656   -4.2144   21.0975 F   0  0  0  0  0  0
  -21.5700   -3.4522   25.7748 F   0  0  0  0  0  0
  -29.9564  -13.5942   20.4175 N   0  0  0  0  0  0
  -26.2829  -12.9353   20.3366 N   0  0  0  0  0  0
  -25.9173  -11.6525   20.5814 N   0  0  0  0  0  0
  -22.0326  -12.8106   22.0498 N   0  0  0  0  0  0
  -25.4219  -15.1901   20.4132 N   0  0  0  0  0  0
  -31.6721  -14.9750   19.9890 O   0  0  0  0  0  0
  -21.6590   -6.8842   21.4235 O   0  0  0  0  0  0
  -22.3471  -14.5513   20.6912 O   0  0  0  0  0  0
  -24.6451  -31.8430   23.1813 C   0  0  0  0  0  0
  -25.9181  -32.4683   23.8267 C   0  0  1  0  0  0
  -27.1793  -27.1121   20.1556 C   0  0  0  0  0  0
  -25.5870  -33.8484   24.2152 N   0  0  0  0  0  0
  -23.4552  -30.4609   21.5227 C   0  0  2  0  0  0
  -24.9159  -28.9049   20.0969 C   0  0  0  0  0  0
  -22.7602  -29.4519   22.4762 C   0  0  0  0  0  0
  -18.0331  -28.1411   22.8484 C   0  0  0  0  0  0
  -24.1512  -36.7254   23.2636 C   0  0  0  0  0  0
  -26.0150  -30.7001   21.4067 C   0  0  0  0  0  0
  -26.0871  -29.3170   20.7439 C   0  0  0  0  0  0
  -27.2297  -28.4261   20.7735 C   0  0  0  0  0  0
  -26.0065  -26.8448   19.4117 C   0  0  0  0  0  0
  -24.8897  -27.6913   19.4089 C   0  0  0  0  0  0
  -23.6926  -29.7968   20.1455 C   0  0  0  0  0  0
  -25.4135  -36.3015   24.0323 C   0  0  1  0  0  0
  -20.5956  -28.3731   23.1205 C   0  0  2  0  0  0
  -20.6843  -26.9406   22.5401 C   0  0  0  0  0  0
  -19.5785  -26.6373   21.5232 C   0  0  0  0  0  0
  -18.1963  -26.7958   22.1642 C   0  0  0  0  0  0
  -19.1589  -28.8893   23.2853 C   0  0  0  0  0  0
  -18.9494  -30.1505   23.8853 C   0  0  0  0  0  0
  -17.6485  -30.6604   24.0565 C   0  0  0  0  0  0
  -25.9054  -34.9382   23.5048 C   0  0  0  0  0  0
  -16.5373  -29.9102   23.6340 C   0  0  0  0  0  0
  -16.7323  -28.6537   23.0338 C   0  0  0  0  0  0
  -26.4497  -31.6563   25.0734 C   0  0  0  0  0  0
  -25.3643  -31.3764   26.1396 C   0  0  0  0  0  0
  -27.0443  -30.2952   24.6448 C   0  0  0  0  0  0
  -27.6037  -32.4336   25.7489 C   0  0  0  0  0  0
  -27.5589  -37.1770   24.8454 C   0  0  0  0  0  0
  -21.4269  -29.3064   22.3540 N   0  0  0  0  0  0
  -26.4309  -37.3719   23.9375 N   0  0  0  0  0  0
  -24.7217  -31.0298   22.0860 N   0  0  0  0  0  0
  -23.4231  -28.7977   23.2880 O   0  0  0  0  0  0
  -28.1417  -26.0389   20.2450 O   0  0  0  0  0  0
  -26.5660  -34.8870   22.4641 O   0  0  0  0  0  0
  -23.5554  -32.1308   23.7007 O   0  0  0  0  0  0
  -29.2001  -20.2860   20.6556 C   0  0  0  0  0  0
  -28.3120  -23.1039   20.4722 C   0  0  0  0  0  0
  -27.9072  -22.0229   19.5579 C   0  0  0  0  0  0
  -29.4695  -21.3054   21.6514 C   0  0  0  0  0  0
  -27.6545  -20.5769   16.6197 C   0  0  0  0  0  0
  -25.1685  -20.8811   16.7935 C   0  0  0  0  0  0
  -25.4404  -22.2399   19.4039 C   0  0  0  0  0  0
  -26.9676  -23.3670   17.6204 C   0  0  0  0  0  0
  -30.2074  -16.1593   22.4636 C   0  0  0  0  0  0
  -29.9184  -18.8093   20.5367 C   0  0  0  0  0  0
  -27.6237  -24.6198   20.6455 C   0  0  0  0  0  0
  -29.2157  -17.3020   20.5266 C   0  0  0  0  0  0
  -26.5025  -20.8896   17.5966 C   0  0  0  0  0  0
  -26.7272  -22.1499   18.5470 C   0  0  0  0  0  0
  -29.9730  -20.9567   23.0672 C   0  0  0  0  0  0
  -28.7831  -20.5544   23.9633 C   0  0  0  0  0  0
  -28.3992  -20.7180   19.6417 N   0  0  0  0  0  0
  -29.0782  -22.6422   21.5186 N   0  0  0  0  0  0
  -29.8778  -15.9667   21.0531 N   0  0  0  0  0  0
  -30.8597  -19.9643   23.0959 F   0  0  0  0  0  0
  -30.5892  -22.0101   23.6158 F   0  0  0  0  0  0
  -27.8227  -21.4876   23.9531 F   0  0  0  0  0  0
  -29.1747  -20.3635   25.2265 F   0  0  0  0  0  0
  -28.2682  -19.4110   23.5045 F   0  0  0  0  0  0
  -31.4648  -12.6315   19.2022 H   0  0  0  0  0  0
  -30.3827  -11.5485   19.9999 H   0  0  0  0  0  0
  -29.8048  -11.7245   17.5478 H   0  0  0  0  0  0
  -29.6019  -13.4450   17.7067 H   0  0  0  0  0  0
  -27.9230  -11.2558   18.9854 H   0  0  0  0  0  0
  -27.3693  -12.4388   17.8345 H   0  0  0  0  0  0
  -27.6206  -14.2318   19.4498 H   0  0  0  0  0  0
  -28.7387  -12.1808   21.4060 H   0  0  0  0  0  0
  -28.3914  -13.8302   21.8308 H   0  0  0  0  0  0
  -25.2695   -9.5744   22.4769 H   0  0  0  0  0  0
  -24.0027   -7.4595   22.7414 H   0  0  0  0  0  0
  -21.0847   -8.8600   19.8844 H   0  0  0  0  0  0
  -22.3571  -10.9609   19.6117 H   0  0  0  0  0  0
  -21.1837   -7.6095   23.9718 H   0  0  0  0  0  0
  -21.1599   -6.0487   25.9109 H   0  0  0  0  0  0
  -22.0552   -2.7579   23.2814 H   0  0  0  0  0  0
  -22.3864  -11.9738   22.4865 H   0  0  0  0  0  0
  -21.0928  -13.1184   22.2669 H   0  0  0  0  0  0
  -24.6770  -15.8756   20.4837 H   0  0  0  0  0  0
  -26.2957  -15.5907   20.0993 H   0  0  0  0  0  0
  -26.7219  -32.5306   23.0976 H   0  0  0  0  0  0
  -25.0017  -33.9558   25.0312 H   0  0  0  0  0  0
  -22.7630  -31.2851   21.3487 H   0  0  0  0  0  0
  -23.3768  -35.9596   23.3308 H   0  0  0  0  0  0
  -24.3607  -36.8881   22.2040 H   0  0  0  0  0  0
  -23.7261  -37.6438   23.6713 H   0  0  0  0  0  0
  -26.2059  -31.4561   20.6436 H   0  0  0  0  0  0
  -26.8647  -30.7237   22.0783 H   0  0  0  0  0  0
  -28.1115  -28.7008   21.3441 H   0  0  0  0  0  0
  -25.9042  -25.9353   18.8390 H   0  0  0  0  0  0
  -24.0024  -27.3843   18.8767 H   0  0  0  0  0  0
  -23.8143  -30.5427   19.3607 H   0  0  0  0  0  0
  -22.8242  -29.2131   19.8454 H   0  0  0  0  0  0
  -25.1333  -36.1861   25.0829 H   0  0  0  0  0  0
  -21.0091  -28.3338   24.1316 H   0  0  0  0  0  0
  -20.5755  -26.2301   23.3625 H   0  0  0  0  0  0
  -21.6696  -26.7418   22.1137 H   0  0  0  0  0  0
  -19.6906  -25.6276   21.1259 H   0  0  0  0  0  0
  -19.6727  -27.3212   20.6781 H   0  0  0  0  0  0
  -17.4225  -26.6695   21.4055 H   0  0  0  0  0  0
  -18.0346  -26.0143   22.9067 H   0  0  0  0  0  0
  -19.7955  -30.7360   24.2184 H   0  0  0  0  0  0
  -17.5018  -31.6270   24.5172 H   0  0  0  0  0  0
  -15.5367  -30.2960   23.7737 H   0  0  0  0  0  0
  -15.8719  -28.0859   22.7046 H   0  0  0  0  0  0
  -24.5824  -30.7159   25.7603 H   0  0  0  0  0  0
  -24.8873  -32.2986   26.4756 H   0  0  0  0  0  0
  -25.7867  -30.8884   27.0202 H   0  0  0  0  0  0
  -26.3153  -29.6543   24.1478 H   0  0  0  0  0  0
  -27.4000  -29.7397   25.5127 H   0  0  0  0  0  0
  -27.9080  -30.4128   23.9902 H   0  0  0  0  0  0
  -27.2644  -33.3644   26.2063 H   0  0  0  0  0  0
  -28.3845  -32.6858   25.0287 H   0  0  0  0  0  0
  -28.0757  -31.8478   26.5396 H   0  0  0  0  0  0
  -28.2570  -38.0093   24.7510 H   0  0  0  0  0  0
  -28.1115  -36.2604   24.6318 H   0  0  0  0  0  0
  -27.2301  -37.1454   25.8853 H   0  0  0  0  0  0
  -20.9513  -29.8713   21.6626 H   0  0  0  0  0  0
  -26.0187  -38.2800   24.1357 H   0  0  0  0  0  0
  -27.5622  -19.5510   16.2595 H   0  0  0  0  0  0
  -28.6409  -20.6493   17.0807 H   0  0  0  0  0  0
  -27.6476  -21.2230   15.7423 H   0  0  0  0  0  0
  -25.1321  -20.0374   16.1004 H   0  0  0  0  0  0
  -25.0307  -21.7909   16.2096 H   0  0  0  0  0  0
  -24.2973  -20.7474   17.4356 H   0  0  0  0  0  0
  -25.5507  -22.8272   20.3071 H   0  0  0  0  0  0
  -25.1810  -21.2491   19.7778 H   0  0  0  0  0  0
  -24.5787  -22.6249   18.8614 H   0  0  0  0  0  0
  -27.1962  -24.2825   18.1469 H   0  0  0  0  0  0
  -26.0933  -23.5839   17.0110 H   0  0  0  0  0  0
  -27.8055  -23.1884   16.9428 H   0  0  0  0  0  0
  -30.6044  -15.2551   22.9305 H   0  0  0  0  0  0
  -30.9757  -16.9275   22.5451 H   0  0  0  0  0  0
  -29.3302  -16.4738   23.0292 H   0  0  0  0  0  0
  -30.7733  -18.7755   21.1959 H   0  0  0  0  0  0
  -30.4029  -18.8820   19.5589 H   0  0  0  0  0  0
  -27.4369  -24.7295   21.7190 H   0  0  0  0  0  0
  -26.6191  -24.5333   20.2627 H   0  0  0  0  0  0
  -28.8258  -17.1145   19.5228 H   0  0  0  0  0  0
  -28.3192  -17.4129   21.1364 H   0  0  0  0  0  0
  -26.4194  -20.0004   18.2261 H   0  0  0  0  0  0
  1 25  1  0  0  0
  1 30  2  0  0  0
  1 89  1  0  0  0
  2  3  1  0  0  0
  2 25  1  0  0  0
  2 95  1  0  0  0
  2 96  1  0  0  0
  3  4  1  0  0  0
  3 97  1  0  0  0
  3 98  1  0  0  0
  4  5  1  0  0  0
  4 99  1  0  0  0
  4100  1  0  0  0
  5  6  1  0  0  0
  5 26  1  0  0  0
  5101  1  0  0  0
  6 25  1  0  0  0
  6102  1  0  0  0
  6103  1  0  0  0
  7  8  2  0  0  0
  7 26  1  0  0  0
  7 29  1  0  0  0
  8  9  1  0  0  0
  8 22  1  0  0  0
  9 10  1  0  0  0
  9 27  2  0  0  0
 10 11  2  0  0  0
 10 15  1  0  0  0
 11 12  1  0  0  0
 11104  1  0  0  0
 12 13  2  0  0  0
 12105  1  0  0  0
 13 14  1  0  0  0
 13 31  1  0  0  0
 14 15  2  0  0  0
 14106  1  0  0  0
 15107  1  0  0  0
 16 17  2  0  0  0
 16 21  1  0  0  0
 16 31  1  0  0  0
 17 18  1  0  0  0
 17108  1  0  0  0
 18 19  2  0  0  0
 18109  1  0  0  0
 19 20  1  0  0  0
 19 24  1  0  0  0
 20 21  2  0  0  0
 20110  1  0  0  0
 21 23  1  0  0  0
 22 28  1  0  0  0
 22 32  2  0  0  0
 26 27  1  0  0  0
 28111  1  0  0  0
 28112  1  0  0  0
 29113  1  0  0  0
 29114  1  0  0  0
 33 34  1  0  0  0
 33 66  1  0  0  0
 33 70  2  0  0  0
 34 36  1  0  0  0
 34 59  1  0  0  0
 34115  1  0  0  0
 35 44  2  0  0  0
 35 45  1  0  0  0
 35 68  1  0  0  0
 36 56  1  0  0  0
 36116  1  0  0  0
 37 39  1  0  0  0
 37 47  1  0  0  0
 37 66  1  0  0  0
 37117  1  0  0  0
 38 43  2  0  0  0
 38 46  1  0  0  0
 38 47  1  0  0  0
 39 64  1  0  0  0
 39 67  2  0  0  0
 40 52  1  0  0  0
 40 53  2  0  0  0
 40 58  1  0  0  0
 41118  1  0  0  0
 41119  1  0  0  0
 41120  1  0  0  0
 41 48  1  0  0  0
 42 43  1  0  0  0
 42 66  1  0  0  0
 42121  1  0  0  0
 42122  1  0  0  0
 43 44  1  0  0  0
 44123  1  0  0  0
 45 46  2  0  0  0
 45124  1  0  0  0
 46125  1  0  0  0
 47126  1  0  0  0
 47127  1  0  0  0
 48 56  1  0  0  0
 48 65  1  0  0  0
 48128  1  0  0  0
 49 50  1  0  0  0
 49 53  1  0  0  0
 49 64  1  0  0  0
 49129  1  0  0  0
 50 51  1  0  0  0
 50130  1  0  0  0
 50131  1  0  0  0
 51 52  1  0  0  0
 51132  1  0  0  0
 51133  1  0  0  0
 52134  1  0  0  0
 52135  1  0  0  0
 53 54  1  0  0  0
 54 55  2  0  0  0
 54136  1  0  0  0
 55 57  1  0  0  0
 55137  1  0  0  0
 56 69  2  0  0  0
 57 58  2  0  0  0
 57138  1  0  0  0
 58139  1  0  0  0
 59 60  1  0  0  0
 59 61  1  0  0  0
 59 62  1  0  0  0
 60140  1  0  0  0
 60141  1  0  0  0
 60142  1  0  0  0
 61143  1  0  0  0
 61144  1  0  0  0
 61145  1  0  0  0
 62146  1  0  0  0
 62147  1  0  0  0
 62148  1  0  0  0
 63 65  1  0  0  0
 63149  1  0  0  0
 63150  1  0  0  0
 63151  1  0  0  0
 64152  1  0  0  0
 65153  1  0  0  0
 68 81  1  0  0  0
 71 74  1  0  0  0
 71 80  1  0  0  0
 71 87  2  0  0  0
 72 73  2  0  0  0
 72 81  1  0  0  0
 72 88  1  0  0  0
 73 84  1  0  0  0
 73 87  1  0  0  0
 74 85  1  0  0  0
 74 88  2  0  0  0
 75154  1  0  0  0
 75155  1  0  0  0
 75156  1  0  0  0
 75 83  1  0  0  0
 76 83  1  0  0  0
 76157  1  0  0  0
 76158  1  0  0  0
 76159  1  0  0  0
 77160  1  0  0  0
 77161  1  0  0  0
 77162  1  0  0  0
 77 84  1  0  0  0
 78 84  1  0  0  0
 78163  1  0  0  0
 78164  1  0  0  0
 78165  1  0  0  0
 79 89  1  0  0  0
 79166  1  0  0  0
 79167  1  0  0  0
 79168  1  0  0  0
 80 82  1  0  0  0
 80169  1  0  0  0
 80170  1  0  0  0
 81171  1  0  0  0
 81172  1  0  0  0
 82 89  1  0  0  0
 82173  1  0  0  0
 82174  1  0  0  0
 83 84  1  0  0  0
 83175  1  0  0  0
 85 86  1  0  0  0
 85 90  1  0  0  0
 85 91  1  0  0  0
 86 92  1  0  0  0
 86 93  1  0  0  0
 86 94  1  0  0  0
M  ISO  4   1 100  68 101  81 101  89 100
M  END
> <chiral flag>
0

> <version>
0

> <s_m_source_file>
/data/baiqing/PycharmProjects/Reinvent-master-3.2/result/LINK_invent/BTK/process_docking_weight1_custom_sum_contain_oxygen_bond_distance_aromatic_linkinvent_7_9_3/rearranged_h_0063.sdf

> <i_m_source_file_index>
18

> <r_mmod_Potential_Energy-OPLS-2005>
944.157897949219

> <r_mmod_Stretch_Energy-OPLS-2005>
258.279724121094

> <r_mmod_Bend_Energy-OPLS-2005>
313.529174804688

> <r_mmod_Torsional_Energy-OPLS-2005>
336.894897460938

> <r_mmod_Improper_Torsional_Energy-OPLS-2005>
8.73884391784668

> <r_mmod_Van_der_Waal_Energy-OPLS-2005>
161.862854003906

> <r_mmod_Electrostatic_Energy-OPLS-2005>
-140.010833740234

> <r_mmod_Solvation_Energy-OPLS-2005>
-184.837890625

> <b_mmod_Minimization_Converged-OPLS-2005>
0

> <r_mmod_RMS_Derivative-OPLS-2005>
10.8033323287964

$$$$
20
                    3D
 Structure written by MMmdl.
160168  0  0  1  0            999 V2000
  -30.5666  -14.9410   20.4621 C   0  0  0  0  0  0
  -30.4351  -12.5915   19.5110 C   0  0  0  0  0  0
  -29.5233  -12.5063   18.2639 C   0  0  0  0  0  0
  -28.0691  -12.2406   18.6875 C   0  0  0  0  0  0
  -27.6235  -13.2005   19.8180 C   0  0  2  0  0  0
  -28.6477  -13.2713   20.9632 C   0  0  0  0  0  0
  -25.2555  -13.8024   20.5700 C   0  0  0  0  0  0
  -24.1810  -13.0384   20.9197 C   0  0  0  0  0  0
  -24.6324  -11.6825   20.8730 C   0  0  0  0  0  0
  -23.8979  -10.4252   21.0422 C   0  0  0  0  0  0
  -24.3548   -9.4180   21.9200 C   0  0  0  0  0  0
  -23.6241   -8.2212   22.0758 C   0  0  0  0  0  0
  -22.4225   -8.0248   21.3546 C   0  0  0  0  0  0
  -21.9845   -9.0219   20.4651 C   0  0  0  0  0  0
  -22.7155  -10.2101   20.3075 C   0  0  0  0  0  0
  -21.6823   -6.0712   22.5284 C   0  0  0  0  0  0
  -21.3992   -6.5627   23.8215 C   0  0  0  0  0  0
  -21.3654   -5.6787   24.9181 C   0  0  0  0  0  0
  -21.6047   -4.3055   24.7234 C   0  0  0  0  0  0
  -21.8822   -3.8138   23.4358 C   0  0  0  0  0  0
  -21.9186   -4.6945   22.3411 C   0  0  0  0  0  0
  -22.7855  -13.5235   21.1874 C   0  0  0  0  0  0
  -22.1658   -4.2129   21.0983 F   0  0  0  0  0  0
  -21.5630   -3.4539   25.7751 F   0  0  0  0  0  0
  -29.9366  -13.6940   20.3908 N   0  0  0  0  0  0
  -26.2849  -12.9144   20.3101 N   0  0  0  0  0  0
  -25.9221  -11.6338   20.5669 N   0  0  0  0  0  0
  -22.0455  -12.8268   22.0391 N   0  0  0  0  0  0
  -25.4505  -15.1743   20.4268 N   0  0  0  0  0  0
  -31.7401  -14.9801   20.0769 O   0  0  0  0  0  0
  -21.6603   -6.8844   21.4238 O   0  0  0  0  0  0
  -22.3599  -14.5581   20.6722 O   0  0  0  0  0  0
  -24.6392  -31.8478   23.1863 C   0  0  0  0  0  0
  -25.9198  -32.4713   23.8240 C   0  0  1  0  0  0
  -27.2493  -27.1872   20.1829 C   0  0  0  0  0  0
  -25.5968  -33.8508   24.2179 N   0  0  0  0  0  0
  -23.4433  -30.4575   21.5322 C   0  0  2  0  0  0
  -24.9016  -28.8887   20.1098 C   0  0  0  0  0  0
  -22.7585  -29.4510   22.4888 C   0  0  0  0  0  0
  -18.0288  -28.1393   22.8452 C   0  0  0  0  0  0
  -24.1496  -36.7248   23.2638 C   0  0  0  0  0  0
  -25.9907  -30.7426   21.3762 C   0  0  0  0  0  0
  -26.0704  -29.3550   20.7244 C   0  0  0  0  0  0
  -27.2421  -28.5195   20.7424 C   0  0  0  0  0  0
  -26.0589  -26.8071   19.5219 C   0  0  0  0  0  0
  -24.9058  -27.6268   19.4904 C   0  0  0  0  0  0
  -23.6707  -29.7806   20.1521 C   0  0  0  0  0  0
  -25.4121  -36.3038   24.0318 C   0  0  1  0  0  0
  -20.5914  -28.3697   23.1248 C   0  0  2  0  0  0
  -20.6782  -26.9404   22.5410 C   0  0  0  0  0  0
  -19.5750  -26.6370   21.5214 C   0  0  0  0  0  0
  -18.1921  -26.7930   22.1613 C   0  0  0  0  0  0
  -19.1550  -28.8860   23.2834 C   0  0  0  0  0  0
  -18.9485  -30.1465   23.8845 C   0  0  0  0  0  0
  -17.6481  -30.6590   24.0540 C   0  0  0  0  0  0
  -25.9070  -34.9416   23.5056 C   0  0  0  0  0  0
  -16.5366  -29.9077   23.6336 C   0  0  0  0  0  0
  -16.7280  -28.6514   23.0324 C   0  0  0  0  0  0
  -26.4523  -31.6574   25.0679 C   0  0  0  0  0  0
  -25.3704  -31.3767   26.1374 C   0  0  0  0  0  0
  -27.0372  -30.2974   24.6208 C   0  0  0  0  0  0
  -27.6070  -32.4320   25.7455 C   0  0  0  0  0  0
  -27.5577  -37.1759   24.8456 C   0  0  0  0  0  0
  -21.4279  -29.3015   22.3656 N   0  0  0  0  0  0
  -26.4277  -37.3757   23.9426 N   0  0  0  0  0  0
  -24.7099  -31.0359   22.0886 N   0  0  0  0  0  0
  -23.4240  -28.8092   23.3036 O   0  0  0  0  0  0
  -28.3420  -26.2662   20.3018 O   0  0  0  0  0  0
  -26.5663  -34.8932   22.4638 O   0  0  0  0  0  0
  -23.5530  -32.1340   23.7129 O   0  0  0  0  0  0
  -28.3842  -21.1992   19.9106 C   0  0  0  0  0  0
  -29.2670  -22.0063   20.6787 C   0  0  0  0  0  0
  -29.5021  -19.0629   20.3827 C   0  0  0  0  0  0
  -30.4146  -19.8882   21.1556 C   0  0  0  0  0  0
  -30.6023  -17.4844   18.6769 C   0  0  0  0  0  0
  -28.2262  -17.1560   19.2301 C   0  0  0  0  0  0
  -29.5382  -16.3732   22.1720 C   0  0  0  0  0  0
  -29.2038  -23.6352   20.8856 C   0  0  0  0  0  0
  -28.1964  -24.7365   20.1558 C   0  0  0  0  0  0
  -29.6142  -17.4682   19.8729 C   0  0  0  0  0  0
  -31.6510  -19.3145   21.8671 C   0  0  0  0  0  0
  -28.5122  -19.8243   19.7747 N   0  0  0  0  0  0
  -30.2659  -21.2803   21.3030 N   0  0  0  0  0  0
  -29.8580  -16.1578   20.7532 N   0  0  0  0  0  0
  -32.0174  -18.1215   21.4103 F   0  0  0  0  0  0
  -32.6972  -20.1317   21.7167 F   0  0  0  0  0  0
  -31.4011  -19.2063   23.1736 F   0  0  0  0  0  0
  -31.4684  -12.7436   19.1965 H   0  0  0  0  0  0
  -30.4348  -11.6478   20.0567 H   0  0  0  0  0  0
  -29.8737  -11.7181   17.5937 H   0  0  0  0  0  0
  -29.5746  -13.4379   17.6989 H   0  0  0  0  0  0
  -28.0194  -11.2075   19.0396 H   0  0  0  0  0  0
  -27.3977  -12.2952   17.8303 H   0  0  0  0  0  0
  -27.5761  -14.1856   19.3630 H   0  0  0  0  0  0
  -28.7425  -12.3241   21.4949 H   0  0  0  0  0  0
  -28.2527  -13.9804   21.6804 H   0  0  0  0  0  0
  -25.2694   -9.5655   22.4770 H   0  0  0  0  0  0
  -23.9955   -7.4591   22.7471 H   0  0  0  0  0  0
  -21.0776   -8.8720   19.8952 H   0  0  0  0  0  0
  -22.3613  -10.9636   19.6186 H   0  0  0  0  0  0
  -21.1983   -7.6131   23.9709 H   0  0  0  0  0  0
  -21.1468   -6.0516   25.9077 H   0  0  0  0  0  0
  -22.0609   -2.7593   23.2864 H   0  0  0  0  0  0
  -22.4006  -11.9893   22.4779 H   0  0  0  0  0  0
  -21.1087  -13.1350   22.2582 H   0  0  0  0  0  0
  -24.7254  -15.8574   20.6064 H   0  0  0  0  0  0
  -26.3447  -15.5859   20.1952 H   0  0  0  0  0  0
  -26.7295  -32.5337   23.1001 H   0  0  0  0  0  0
  -25.0088  -33.9615   25.0304 H   0  0  0  0  0  0
  -22.7386  -31.2791   21.3760 H   0  0  0  0  0  0
  -23.3766  -35.9576   23.3300 H   0  0  0  0  0  0
  -24.3571  -36.8881   22.2053 H   0  0  0  0  0  0
  -23.7238  -37.6432   23.6678 H   0  0  0  0  0  0
  -26.1293  -31.4989   20.6030 H   0  0  0  0  0  0
  -26.8643  -30.8022   22.0121 H   0  0  0  0  0  0
  -28.1321  -28.8734   21.2459 H   0  0  0  0  0  0
  -25.9990  -25.8380   19.0497 H   0  0  0  0  0  0
  -24.0139  -27.2598   19.0005 H   0  0  0  0  0  0
  -23.8034  -30.5525   19.3930 H   0  0  0  0  0  0
  -22.7906  -29.2161   19.8398 H   0  0  0  0  0  0
  -25.1297  -36.1854   25.0807 H   0  0  0  0  0  0
  -20.9940  -28.3296   24.1397 H   0  0  0  0  0  0
  -20.5665  -26.2316   23.3625 H   0  0  0  0  0  0
  -21.6645  -26.7403   22.1213 H   0  0  0  0  0  0
  -19.6895  -25.6274   21.1243 H   0  0  0  0  0  0
  -19.6691  -27.3183   20.6757 H   0  0  0  0  0  0
  -17.4190  -26.6664   21.4022 H   0  0  0  0  0  0
  -18.0304  -26.0080   22.9022 H   0  0  0  0  0  0
  -19.7977  -30.7273   24.2183 H   0  0  0  0  0  0
  -17.5054  -31.6262   24.5175 H   0  0  0  0  0  0
  -15.5366  -30.2958   23.7710 H   0  0  0  0  0  0
  -15.8691  -28.0845   22.7015 H   0  0  0  0  0  0
  -24.5909  -30.7072   25.7697 H   0  0  0  0  0  0
  -24.8831  -32.2950   26.4666 H   0  0  0  0  0  0
  -25.7980  -30.9034   27.0216 H   0  0  0  0  0  0
  -26.2959  -29.6691   24.1246 H   0  0  0  0  0  0
  -27.4053  -29.7278   25.4742 H   0  0  0  0  0  0
  -27.8854  -30.4215   23.9467 H   0  0  0  0  0  0
  -27.2697  -33.3695   26.1884 H   0  0  0  0  0  0
  -28.3949  -32.6743   25.0307 H   0  0  0  0  0  0
  -28.0651  -31.8508   26.5458 H   0  0  0  0  0  0
  -28.2548  -38.0103   24.7561 H   0  0  0  0  0  0
  -28.1117  -36.2628   24.6209 H   0  0  0  0  0  0
  -27.2302  -37.1323   25.8858 H   0  0  0  0  0  0
  -20.9514  -29.8739   21.6835 H   0  0  0  0  0  0
  -26.0146  -38.2809   24.1481 H   0  0  0  0  0  0
  -27.5628  -21.6605   19.3821 H   0  0  0  0  0  0
  -30.3862  -18.3107   17.9953 H   0  0  0  0  0  0
  -30.5561  -16.5734   18.0768 H   0  0  0  0  0  0
  -31.6357  -17.6121   18.9975 H   0  0  0  0  0  0
  -27.9788  -17.8432   18.4186 H   0  0  0  0  0  0
  -27.4249  -17.2476   19.9655 H   0  0  0  0  0  0
  -28.1587  -16.1723   18.7660 H   0  0  0  0  0  0
  -28.7978  -17.1583   22.3224 H   0  0  0  0  0  0
  -30.4381  -16.6313   22.7274 H   0  0  0  0  0  0
  -29.1540  -15.4902   22.6735 H   0  0  0  0  0  0
  -30.2200  -23.9889   20.7158 H   0  0  0  0  0  0
  -29.0572  -23.7739   21.9582 H   0  0  0  0  0  0
  -27.1878  -24.4671   20.4705 H   0  0  0  0  0  0
  -28.2359  -24.5357   19.0845 H   0  0  0  0  0  0
  1 25  1  0  0  0
  1 30  2  0  0  0
  1 84  1  0  0  0
  2  3  1  0  0  0
  2 25  1  0  0  0
  2 88  1  0  0  0
  2 89  1  0  0  0
  3  4  1  0  0  0
  3 90  1  0  0  0
  3 91  1  0  0  0
  4  5  1  0  0  0
  4 92  1  0  0  0
  4 93  1  0  0  0
  5  6  1  0  0  0
  5 26  1  0  0  0
  5 94  1  0  0  0
  6 25  1  0  0  0
  6 95  1  0  0  0
  6 96  1  0  0  0
  7  8  2  0  0  0
  7 26  1  0  0  0
  7 29  1  0  0  0
  8  9  1  0  0  0
  8 22  1  0  0  0
  9 10  1  0  0  0
  9 27  2  0  0  0
 10 11  2  0  0  0
 10 15  1  0  0  0
 11 12  1  0  0  0
 11 97  1  0  0  0
 12 13  2  0  0  0
 12 98  1  0  0  0
 13 14  1  0  0  0
 13 31  1  0  0  0
 14 15  2  0  0  0
 14 99  1  0  0  0
 15100  1  0  0  0
 16 17  2  0  0  0
 16 21  1  0  0  0
 16 31  1  0  0  0
 17 18  1  0  0  0
 17101  1  0  0  0
 18 19  2  0  0  0
 18102  1  0  0  0
 19 20  1  0  0  0
 19 24  1  0  0  0
 20 21  2  0  0  0
 20103  1  0  0  0
 21 23  1  0  0  0
 22 28  1  0  0  0
 22 32  2  0  0  0
 26 27  1  0  0  0
 28104  1  0  0  0
 28105  1  0  0  0
 29106  1  0  0  0
 29107  1  0  0  0
 33 34  1  0  0  0
 33 66  1  0  0  0
 33 70  2  0  0  0
 34 36  1  0  0  0
 34 59  1  0  0  0
 34108  1  0  0  0
 35 44  2  0  0  0
 35 45  1  0  0  0
 35 68  1  0  0  0
 36 56  1  0  0  0
 36109  1  0  0  0
 37 39  1  0  0  0
 37 47  1  0  0  0
 37 66  1  0  0  0
 37110  1  0  0  0
 38 43  2  0  0  0
 38 46  1  0  0  0
 38 47  1  0  0  0
 39 64  1  0  0  0
 39 67  2  0  0  0
 40 52  1  0  0  0
 40 53  2  0  0  0
 40 58  1  0  0  0
 41111  1  0  0  0
 41112  1  0  0  0
 41113  1  0  0  0
 41 48  1  0  0  0
 42 43  1  0  0  0
 42 66  1  0  0  0
 42114  1  0  0  0
 42115  1  0  0  0
 43 44  1  0  0  0
 44116  1  0  0  0
 45 46  2  0  0  0
 45117  1  0  0  0
 46118  1  0  0  0
 47119  1  0  0  0
 47120  1  0  0  0
 48 56  1  0  0  0
 48 65  1  0  0  0
 48121  1  0  0  0
 49 50  1  0  0  0
 49 53  1  0  0  0
 49 64  1  0  0  0
 49122  1  0  0  0
 50 51  1  0  0  0
 50123  1  0  0  0
 50124  1  0  0  0
 51 52  1  0  0  0
 51125  1  0  0  0
 51126  1  0  0  0
 52127  1  0  0  0
 52128  1  0  0  0
 53 54  1  0  0  0
 54 55  2  0  0  0
 54129  1  0  0  0
 55 57  1  0  0  0
 55130  1  0  0  0
 56 69  2  0  0  0
 57 58  2  0  0  0
 57131  1  0  0  0
 58132  1  0  0  0
 59 60  1  0  0  0
 59 61  1  0  0  0
 59 62  1  0  0  0
 60133  1  0  0  0
 60134  1  0  0  0
 60135  1  0  0  0
 61136  1  0  0  0
 61137  1  0  0  0
 61138  1  0  0  0
 62139  1  0  0  0
 62140  1  0  0  0
 62141  1  0  0  0
 63 65  1  0  0  0
 63142  1  0  0  0
 63143  1  0  0  0
 63144  1  0  0  0
 64145  1  0  0  0
 65146  1  0  0  0
 68 79  1  0  0  0
 71 72  2  0  0  0
 71 82  1  0  0  0
 71147  1  0  0  0
 72 78  1  0  0  0
 72 83  1  0  0  0
 73 74  1  0  0  0
 73 80  1  0  0  0
 73 82  2  0  0  0
 74 81  1  0  0  0
 74 83  2  0  0  0
 75148  1  0  0  0
 75149  1  0  0  0
 75150  1  0  0  0
 75 80  1  0  0  0
 76 80  1  0  0  0
 76151  1  0  0  0
 76152  1  0  0  0
 76153  1  0  0  0
 77 84  1  0  0  0
 77154  1  0  0  0
 77155  1  0  0  0
 77156  1  0  0  0
 78 79  1  0  0  0
 78157  1  0  0  0
 78158  1  0  0  0
 79159  1  0  0  0
 79160  1  0  0  0
 80 84  1  0  0  0
 81 85  1  0  0  0
 81 86  1  0  0  0
 81 87  1  0  0  0
M  ISO  4   1 100  68 101  79 101  84 100
M  END
> <chiral flag>
0

> <version>
0

> <s_m_source_file>
/data/baiqing/PycharmProjects/Reinvent-master-3.2/result/LINK_invent/BTK/process_docking_weight1_custom_sum_contain_oxygen_bond_distance_aromatic_linkinvent_7_9_3/rearranged_h_0063.sdf

> <i_m_source_file_index>
19

> <r_mmod_Potential_Energy-OPLS-2005>
769.588745117188

> <r_mmod_Stretch_Energy-OPLS-2005>
247.876678466797

> <r_mmod_Bend_Energy-OPLS-2005>
283.0791015625

> <r_mmod_Torsional_Energy-OPLS-2005>
284.502532958984

> <r_mmod_Improper_Torsional_Energy-OPLS-2005>
6.01204633712769

> <r_mmod_Van_der_Waal_Energy-OPLS-2005>
142.880844116211

> <r_mmod_Electrostatic_Energy-OPLS-2005>
-173.42204284668

> <r_mmod_Solvation_Energy-OPLS-2005>
-192.948822021484

> <b_mmod_Minimization_Converged-OPLS-2005>
0

> <r_mmod_RMS_Derivative-OPLS-2005>
5.51311063766479

$$$$
21
                    3D
 Structure written by MMmdl.
160169  0  0  1  0            999 V2000
  -30.6281  -14.7269   20.4061 C   0  0  0  0  0  0
  -30.4237  -12.4361   19.4772 C   0  0  0  0  0  0
  -29.5087  -12.4984   18.2354 C   0  0  0  0  0  0
  -28.0345  -12.3299   18.6475 C   0  0  0  0  0  0
  -27.6407  -13.2351   19.8452 C   0  0  2  0  0  0
  -28.6828  -13.1827   20.9830 C   0  0  0  0  0  0
  -25.2517  -13.8218   20.5690 C   0  0  0  0  0  0
  -24.1812  -13.0459   20.9199 C   0  0  0  0  0  0
  -24.6405  -11.6937   20.8747 C   0  0  0  0  0  0
  -23.9086  -10.4307   21.0410 C   0  0  0  0  0  0
  -24.3634   -9.4220   21.9186 C   0  0  0  0  0  0
  -23.6311   -8.2255   22.0755 C   0  0  0  0  0  0
  -22.4287   -8.0296   21.3551 C   0  0  0  0  0  0
  -21.9926   -9.0273   20.4653 C   0  0  0  0  0  0
  -22.7257  -10.2153   20.3065 C   0  0  0  0  0  0
  -21.6858   -6.0755   22.5285 C   0  0  0  0  0  0
  -21.4012   -6.5653   23.8218 C   0  0  0  0  0  0
  -21.3652   -5.6800   24.9176 C   0  0  0  0  0  0
  -21.6047   -4.3064   24.7224 C   0  0  0  0  0  0
  -21.8823   -3.8166   23.4344 C   0  0  0  0  0  0
  -21.9191   -4.6982   22.3406 C   0  0  0  0  0  0
  -22.7837  -13.5239   21.1860 C   0  0  0  0  0  0
  -22.1669   -4.2170   21.0981 F   0  0  0  0  0  0
  -21.5619   -3.4541   25.7734 F   0  0  0  0  0  0
  -29.9864  -13.5107   20.3979 N   0  0  0  0  0  0
  -26.2934  -12.9434   20.3245 N   0  0  0  0  0  0
  -25.9335  -11.6572   20.5744 N   0  0  0  0  0  0
  -22.0486  -12.8230   22.0414 N   0  0  0  0  0  0
  -25.4202  -15.1941   20.4121 N   0  0  0  0  0  0
  -31.8400  -14.7652   20.1694 O   0  0  0  0  0  0
  -21.6649   -6.8899   21.4247 O   0  0  0  0  0  0
  -22.3529  -14.5551   20.6710 O   0  0  0  0  0  0
  -24.6301  -31.8558   23.1991 C   0  0  0  0  0  0
  -25.9130  -32.4759   23.8338 C   0  0  1  0  0  0
  -27.2171  -27.2729   20.1096 C   0  0  0  0  0  0
  -25.5931  -33.8559   24.2263 N   0  0  0  0  0  0
  -23.4259  -30.4801   21.5431 C   0  0  2  0  0  0
  -24.8696  -28.9291   20.1084 C   0  0  0  0  0  0
  -22.7499  -29.4600   22.4915 C   0  0  0  0  0  0
  -18.0294  -28.1379   22.8478 C   0  0  0  0  0  0
  -24.1490  -36.7286   23.2640 C   0  0  0  0  0  0
  -25.9713  -30.7716   21.3760 C   0  0  0  0  0  0
  -26.0415  -29.3955   20.7154 C   0  0  0  0  0  0
  -27.2151  -28.5771   20.7094 C   0  0  0  0  0  0
  -26.0119  -26.8620   19.4969 C   0  0  0  0  0  0
  -24.8590  -27.6692   19.4926 C   0  0  0  0  0  0
  -23.6424  -29.8177   20.1570 C   0  0  0  0  0  0
  -25.4114  -36.3073   24.0328 C   0  0  1  0  0  0
  -20.5896  -28.3687   23.1274 C   0  0  2  0  0  0
  -20.6785  -26.9406   22.5409 C   0  0  0  0  0  0
  -19.5763  -26.6376   21.5211 C   0  0  0  0  0  0
  -18.1938  -26.7922   22.1621 C   0  0  0  0  0  0
  -19.1544  -28.8849   23.2873 C   0  0  0  0  0  0
  -18.9466  -30.1446   23.8896 C   0  0  0  0  0  0
  -17.6466  -30.6581   24.0557 C   0  0  0  0  0  0
  -25.9050  -34.9445   23.5097 C   0  0  0  0  0  0
  -16.5355  -29.9081   23.6325 C   0  0  0  0  0  0
  -16.7277  -28.6494   23.0349 C   0  0  0  0  0  0
  -26.4503  -31.6580   25.0728 C   0  0  0  0  0  0
  -25.3723  -31.3711   26.1444 C   0  0  0  0  0  0
  -27.0346  -30.2999   24.6206 C   0  0  0  0  0  0
  -27.6054  -32.4322   25.7507 C   0  0  0  0  0  0
  -27.5579  -37.1800   24.8465 C   0  0  0  0  0  0
  -21.4206  -29.3037   22.3661 N   0  0  0  0  0  0
  -26.4291  -37.3772   23.9407 N   0  0  0  0  0  0
  -24.6950  -31.0537   22.0956 N   0  0  0  0  0  0
  -23.4202  -28.8137   23.3007 O   0  0  0  0  0  0
  -28.3265  -26.4011   20.1906 O   0  0  0  0  0  0
  -26.5626  -34.8919   22.4666 O   0  0  0  0  0  0
  -23.5455  -32.1374   23.7296 O   0  0  0  0  0  0
  -27.7135  -22.6558   19.4023 C   0  0  0  0  0  0
  -30.6141  -18.0934   17.8458 C   0  0  0  0  0  0
  -28.5484  -23.6828   19.9104 C   0  0  0  0  0  0
  -29.5866  -23.1532   20.7175 C   0  0  0  0  0  0
  -28.8962  -20.9052   20.4289 C   0  0  0  0  0  0
  -30.0655  -17.0789   19.5927 C   0  0  0  0  0  0
  -30.6486  -24.0536   21.3107 C   0  0  0  0  0  0
  -27.6402  -18.7695   21.0782 C   0  0  0  0  0  0
  -29.8605  -19.1818   22.0873 C   0  0  0  0  0  0
  -28.4604  -25.1760   19.3482 C   0  0  0  0  0  0
  -29.0495  -19.3258   20.7819 C   0  0  0  0  0  0
  -27.8824  -21.3223   19.6531 N   0  0  0  0  0  0
  -30.6160  -16.8526   18.3962 N   0  0  0  0  0  0
  -30.0930  -19.0502   18.5988 N   0  0  0  0  0  0
  -29.7377  -21.8120   20.9657 N   0  0  0  0  0  0
  -29.7026  -18.4237   19.7459 N   0  0  0  0  0  0
  -29.8853  -15.9015   20.4692 N   0  0  0  0  0  0
  -31.4676  -12.5432   19.1777 H   0  0  0  0  0  0
  -30.3529  -11.4616   19.9619 H   0  0  0  0  0  0
  -29.7873  -11.7228   17.5209 H   0  0  0  0  0  0
  -29.6434  -13.4537   17.7244 H   0  0  0  0  0  0
  -27.8876  -11.2818   18.9098 H   0  0  0  0  0  0
  -27.3782  -12.5226   17.7976 H   0  0  0  0  0  0
  -27.6348  -14.2529   19.4548 H   0  0  0  0  0  0
  -28.7082  -12.1951   21.4457 H   0  0  0  0  0  0
  -28.4272  -13.8870   21.7762 H   0  0  0  0  0  0
  -25.2776   -9.5706   22.4760 H   0  0  0  0  0  0
  -24.0026   -7.4648   22.7475 H   0  0  0  0  0  0
  -21.0861   -8.8811   19.8952 H   0  0  0  0  0  0
  -22.3724  -10.9702   19.6183 H   0  0  0  0  0  0
  -21.2009   -7.6158   23.9732 H   0  0  0  0  0  0
  -21.1460   -6.0524   25.9077 H   0  0  0  0  0  0
  -22.0601   -2.7626   23.2842 H   0  0  0  0  0  0
  -22.4104  -11.9885   22.4786 H   0  0  0  0  0  0
  -21.1099  -13.1255   22.2617 H   0  0  0  0  0  0
  -24.6492  -15.8428   20.5265 H   0  0  0  0  0  0
  -26.2534  -15.6305   20.0428 H   0  0  0  0  0  0
  -26.7196  -32.5408   23.1079 H   0  0  0  0  0  0
  -25.0075  -33.9697   25.0409 H   0  0  0  0  0  0
  -22.7222  -31.3020   21.4000 H   0  0  0  0  0  0
  -23.3756  -35.9614   23.3302 H   0  0  0  0  0  0
  -24.3576  -36.8909   22.2053 H   0  0  0  0  0  0
  -23.7244  -37.6488   23.6663 H   0  0  0  0  0  0
  -26.1094  -31.5349   20.6086 H   0  0  0  0  0  0
  -26.8484  -30.8174   22.0094 H   0  0  0  0  0  0
  -28.1140  -28.9296   21.1955 H   0  0  0  0  0  0
  -25.9079  -25.8858   19.0508 H   0  0  0  0  0  0
  -23.9545  -27.2991   19.0299 H   0  0  0  0  0  0
  -23.7698  -30.5972   19.4044 H   0  0  0  0  0  0
  -22.7586  -29.2557   19.8501 H   0  0  0  0  0  0
  -25.1298  -36.1921   25.0822 H   0  0  0  0  0  0
  -20.9987  -28.3260   24.1396 H   0  0  0  0  0  0
  -20.5677  -26.2292   23.3605 H   0  0  0  0  0  0
  -21.6653  -26.7425   22.1209 H   0  0  0  0  0  0
  -19.6921  -25.6284   21.1243 H   0  0  0  0  0  0
  -19.6710  -27.3185   20.6736 H   0  0  0  0  0  0
  -17.4209  -26.6659   21.4026 H   0  0  0  0  0  0
  -18.0347  -26.0068   22.9022 H   0  0  0  0  0  0
  -19.7939  -30.7261   24.2276 H   0  0  0  0  0  0
  -17.5016  -31.6265   24.5155 H   0  0  0  0  0  0
  -15.5355  -30.2982   23.7649 H   0  0  0  0  0  0
  -15.8677  -28.0815   22.7071 H   0  0  0  0  0  0
  -24.5921  -30.7036   25.7772 H   0  0  0  0  0  0
  -24.8886  -32.2868   26.4858 H   0  0  0  0  0  0
  -25.8045  -30.8909   27.0232 H   0  0  0  0  0  0
  -26.2927  -29.6755   24.1214 H   0  0  0  0  0  0
  -27.4012  -29.7260   25.4729 H   0  0  0  0  0  0
  -27.8818  -30.4285   23.9460 H   0  0  0  0  0  0
  -27.2664  -33.3626   26.2078 H   0  0  0  0  0  0
  -28.3872  -32.6871   25.0338 H   0  0  0  0  0  0
  -28.0715  -31.8447   26.5429 H   0  0  0  0  0  0
  -28.2594  -38.0098   24.7506 H   0  0  0  0  0  0
  -28.1076  -36.2627   24.6297 H   0  0  0  0  0  0
  -27.2293  -37.1459   25.8867 H   0  0  0  0  0  0
  -20.9374  -29.8771   21.6889 H   0  0  0  0  0  0
  -26.0170  -38.2846   24.1412 H   0  0  0  0  0  0
  -26.9074  -22.9027   18.7271 H   0  0  0  0  0  0
  -31.0045  -18.2975   16.8581 H   0  0  0  0  0  0
  -31.4285  -24.2445   20.5740 H   0  0  0  0  0  0
  -30.2244  -25.0098   21.6156 H   0  0  0  0  0  0
  -31.1119  -23.5990   22.1864 H   0  0  0  0  0  0
  -27.1429  -19.3547   21.8513 H   0  0  0  0  0  0
  -27.6699  -17.7344   21.4168 H   0  0  0  0  0  0
  -27.0094  -18.8043   20.1901 H   0  0  0  0  0  0
  -29.4206  -19.7720   22.8911 H   0  0  0  0  0  0
  -30.8837  -19.5295   21.9474 H   0  0  0  0  0  0
  -29.9077  -18.1468   22.4254 H   0  0  0  0  0  0
  -27.7756  -25.1854   18.5039 H   0  0  0  0  0  0
  -29.4228  -25.3210   18.8557 H   0  0  0  0  0  0
  -28.9861  -15.8309   20.9160 H   0  0  0  0  0  0
  1 25  1  0  0  0
  1 30  2  0  0  0
  1 87  1  0  0  0
  2  3  1  0  0  0
  2 25  1  0  0  0
  2 88  1  0  0  0
  2 89  1  0  0  0
  3  4  1  0  0  0
  3 90  1  0  0  0
  3 91  1  0  0  0
  4  5  1  0  0  0
  4 92  1  0  0  0
  4 93  1  0  0  0
  5  6  1  0  0  0
  5 26  1  0  0  0
  5 94  1  0  0  0
  6 25  1  0  0  0
  6 95  1  0  0  0
  6 96  1  0  0  0
  7  8  2  0  0  0
  7 26  1  0  0  0
  7 29  1  0  0  0
  8  9  1  0  0  0
  8 22  1  0  0  0
  9 10  1  0  0  0
  9 27  2  0  0  0
 10 11  2  0  0  0
 10 15  1  0  0  0
 11 12  1  0  0  0
 11 97  1  0  0  0
 12 13  2  0  0  0
 12 98  1  0  0  0
 13 14  1  0  0  0
 13 31  1  0  0  0
 14 15  2  0  0  0
 14 99  1  0  0  0
 15100  1  0  0  0
 16 17  2  0  0  0
 16 21  1  0  0  0
 16 31  1  0  0  0
 17 18  1  0  0  0
 17101  1  0  0  0
 18 19  2  0  0  0
 18102  1  0  0  0
 19 20  1  0  0  0
 19 24  1  0  0  0
 20 21  2  0  0  0
 20103  1  0  0  0
 21 23  1  0  0  0
 22 28  1  0  0  0
 22 32  2  0  0  0
 26 27  1  0  0  0
 28104  1  0  0  0
 28105  1  0  0  0
 29106  1  0  0  0
 29107  1  0  0  0
 33 34  1  0  0  0
 33 66  1  0  0  0
 33 70  2  0  0  0
 34 36  1  0  0  0
 34 59  1  0  0  0
 34108  1  0  0  0
 35 44  2  0  0  0
 35 45  1  0  0  0
 35 68  1  0  0  0
 36 56  1  0  0  0
 36109  1  0  0  0
 37 39  1  0  0  0
 37 47  1  0  0  0
 37 66  1  0  0  0
 37110  1  0  0  0
 38 43  2  0  0  0
 38 46  1  0  0  0
 38 47  1  0  0  0
 39 64  1  0  0  0
 39 67  2  0  0  0
 40 52  1  0  0  0
 40 53  2  0  0  0
 40 58  1  0  0  0
 41111  1  0  0  0
 41112  1  0  0  0
 41113  1  0  0  0
 41 48  1  0  0  0
 42 43  1  0  0  0
 42 66  1  0  0  0
 42114  1  0  0  0
 42115  1  0  0  0
 43 44  1  0  0  0
 44116  1  0  0  0
 45 46  2  0  0  0
 45117  1  0  0  0
 46118  1  0  0  0
 47119  1  0  0  0
 47120  1  0  0  0
 48 56  1  0  0  0
 48 65  1  0  0  0
 48121  1  0  0  0
 49 50  1  0  0  0
 49 53  1  0  0  0
 49 64  1  0  0  0
 49122  1  0  0  0
 50 51  1  0  0  0
 50123  1  0  0  0
 50124  1  0  0  0
 51 52  1  0  0  0
 51125  1  0  0  0
 51126  1  0  0  0
 52127  1  0  0  0
 52128  1  0  0  0
 53 54  1  0  0  0
 54 55  2  0  0  0
 54129  1  0  0  0
 55 57  1  0  0  0
 55130  1  0  0  0
 56 69  2  0  0  0
 57 58  2  0  0  0
 57131  1  0  0  0
 58132  1  0  0  0
 59 60  1  0  0  0
 59 61  1  0  0  0
 59 62  1  0  0  0
 60133  1  0  0  0
 60134  1  0  0  0
 60135  1  0  0  0
 61136  1  0  0  0
 61137  1  0  0  0
 61138  1  0  0  0
 62139  1  0  0  0
 62140  1  0  0  0
 62141  1  0  0  0
 63 65  1  0  0  0
 63142  1  0  0  0
 63143  1  0  0  0
 63144  1  0  0  0
 64145  1  0  0  0
 65146  1  0  0  0
 68 80  1  0  0  0
 71 73  2  0  0  0
 71 82  1  0  0  0
 71147  1  0  0  0
 72 83  1  0  0  0
 72 84  2  0  0  0
 72148  1  0  0  0
 73 74  1  0  0  0
 73 80  1  0  0  0
 74 77  1  0  0  0
 74 85  2  0  0  0
 75 81  1  0  0  0
 75 82  2  0  0  0
 75 85  1  0  0  0
 76 83  2  0  0  0
 76 86  1  0  0  0
 76 87  1  0  0  0
 77149  1  0  0  0
 77150  1  0  0  0
 77151  1  0  0  0
 78152  1  0  0  0
 78153  1  0  0  0
 78154  1  0  0  0
 78 81  1  0  0  0
 79 81  1  0  0  0
 79155  1  0  0  0
 79156  1  0  0  0
 79157  1  0  0  0
 80158  1  0  0  0
 80159  1  0  0  0
 81 86  1  0  0  0
 84 86  1  0  0  0
 87160  1  0  0  0
M  ISO  4   1 100  68 101  80 101  87 100
M  END
> <chiral flag>
0

> <version>
0

> <s_m_source_file>
/data/baiqing/PycharmProjects/Reinvent-master-3.2/result/LINK_invent/BTK/process_docking_weight1_custom_sum_contain_oxygen_bond_distance_aromatic_linkinvent_7_9_3/rearranged_h_0063.sdf

> <i_m_source_file_index>
20

> <r_mmod_Potential_Energy-OPLS-2005>
-143.836151123047

> <r_mmod_Stretch_Energy-OPLS-2005>
116.598220825195

> <r_mmod_Bend_Energy-OPLS-2005>
208.002243041992

> <r_mmod_Torsional_Energy-OPLS-2005>
278.948577880859

> <r_mmod_Improper_Torsional_Energy-OPLS-2005>
8.29979991912842

> <r_mmod_Van_der_Waal_Energy-OPLS-2005>
145.741226196289

> <r_mmod_Electrostatic_Energy-OPLS-2005>
-723.502319335938

> <r_mmod_Solvation_Energy-OPLS-2005>
-259.223419189453

> <b_mmod_Minimization_Converged-OPLS-2005>
0

> <r_mmod_RMS_Derivative-OPLS-2005>
1.56687867641449

$$$$
22
                    3D
 Structure written by MMmdl.
168176  0  0  1  0            999 V2000
  -30.7071  -14.4755   20.6578 C   0  0  0  0  0  0
  -30.4226  -12.3354   19.4335 C   0  0  0  0  0  0
  -29.4888  -12.5114   18.2215 C   0  0  0  0  0  0
  -28.0241  -12.3350   18.6537 C   0  0  0  0  0  0
  -27.6676  -13.2065   19.8880 C   0  0  2  0  0  0
  -28.6964  -12.9931   21.0204 C   0  0  0  0  0  0
  -25.2517  -13.8334   20.5382 C   0  0  0  0  0  0
  -24.1813  -13.0509   20.8994 C   0  0  0  0  0  0
  -24.6475  -11.7039   20.8787 C   0  0  0  0  0  0
  -23.9135  -10.4359   21.0403 C   0  0  0  0  0  0
  -24.3633   -9.4349   21.9201 C   0  0  0  0  0  0
  -23.6303   -8.2380   22.0838 C   0  0  0  0  0  0
  -22.4337   -8.0366   21.3543 C   0  0  0  0  0  0
  -21.9962   -9.0303   20.4644 C   0  0  0  0  0  0
  -22.7431  -10.2054   20.2920 C   0  0  0  0  0  0
  -21.6879   -6.0811   22.5222 C   0  0  0  0  0  0
  -21.4029   -6.5706   23.8143 C   0  0  0  0  0  0
  -21.3666   -5.6812   24.9062 C   0  0  0  0  0  0
  -21.6071   -4.3060   24.7096 C   0  0  0  0  0  0
  -21.8854   -3.8219   23.4205 C   0  0  0  0  0  0
  -21.9201   -4.7050   22.3300 C   0  0  0  0  0  0
  -22.7736  -13.5178   21.1494 C   0  0  0  0  0  0
  -22.1790   -4.2327   21.0857 F   0  0  0  0  0  0
  -21.5532   -3.4510   25.7557 F   0  0  0  0  0  0
  -30.0266  -13.3074   20.4776 N   0  0  0  0  0  0
  -26.3044  -12.9452   20.3410 N   0  0  0  0  0  0
  -25.9470  -11.6639   20.6105 N   0  0  0  0  0  0
  -22.0133  -12.7642   21.9343 N   0  0  0  0  0  0
  -25.4066  -15.2051   20.3279 N   0  0  0  0  0  0
  -31.7696  -14.7110   20.0754 O   0  0  0  0  0  0
  -21.6676   -6.8982   21.4239 O   0  0  0  0  0  0
  -22.3487  -14.5657   20.6714 O   0  0  0  0  0  0
  -24.6185  -31.8610   23.2049 C   0  0  0  0  0  0
  -25.9062  -32.4786   23.8356 C   0  0  1  0  0  0
  -27.2167  -27.3712   20.1128 C   0  0  0  0  0  0
  -25.5886  -33.8580   24.2266 N   0  0  0  0  0  0
  -23.4079  -30.4850   21.5435 C   0  0  2  0  0  0
  -24.8504  -28.9419   20.1124 C   0  0  0  0  0  0
  -22.7424  -29.4622   22.4942 C   0  0  0  0  0  0
  -18.0278  -28.1372   22.8490 C   0  0  0  0  0  0
  -24.1475  -36.7306   23.2644 C   0  0  0  0  0  0
  -25.9420  -30.8076   21.3624 C   0  0  0  0  0  0
  -26.0121  -29.4354   20.7169 C   0  0  0  0  0  0
  -27.1962  -28.6560   20.7152 C   0  0  0  0  0  0
  -26.0431  -26.9153   19.4768 C   0  0  0  0  0  0
  -24.8632  -27.6850   19.4861 C   0  0  0  0  0  0
  -23.6167  -29.8152   20.1582 C   0  0  0  0  0  0
  -25.4099  -36.3066   24.0327 C   0  0  1  0  0  0
  -20.5859  -28.3646   23.1320 C   0  0  2  0  0  0
  -20.6746  -26.9373   22.5425 C   0  0  0  0  0  0
  -19.5726  -26.6359   21.5217 C   0  0  0  0  0  0
  -18.1911  -26.7916   22.1629 C   0  0  0  0  0  0
  -19.1524  -28.8831   23.2896 C   0  0  0  0  0  0
  -18.9451  -30.1435   23.8905 C   0  0  0  0  0  0
  -17.6452  -30.6580   24.0562 C   0  0  0  0  0  0
  -25.9032  -34.9439   23.5090 C   0  0  0  0  0  0
  -16.5344  -29.9084   23.6321 C   0  0  0  0  0  0
  -16.7262  -28.6494   23.0352 C   0  0  0  0  0  0
  -26.4480  -31.6594   25.0711 C   0  0  0  0  0  0
  -25.3755  -31.3707   26.1470 C   0  0  0  0  0  0
  -27.0322  -30.3045   24.6093 C   0  0  0  0  0  0
  -27.6015  -32.4343   25.7495 C   0  0  0  0  0  0
  -27.5557  -37.1809   24.8463 C   0  0  0  0  0  0
  -21.4135  -29.3014   22.3727 N   0  0  0  0  0  0
  -26.4268  -37.3766   23.9402 N   0  0  0  0  0  0
  -24.6761  -31.0676   22.0954 N   0  0  0  0  0  0
  -23.4198  -28.8170   23.2997 O   0  0  0  0  0  0
  -28.3756  -26.6085   20.1707 O   0  0  0  0  0  0
  -26.5603  -34.8917   22.4668 O   0  0  0  0  0  0
  -23.5369  -32.1395   23.7424 O   0  0  0  0  0  0
  -28.1917  -19.5582   21.8855 C   0  0  0  0  0  0
  -26.5455  -18.4237   22.7351 C   0  0  0  0  0  0
  -27.0962  -20.4059   22.0317 C   0  0  0  0  0  0
  -25.4810  -22.0021   21.0548 C   0  0  0  0  0  0
  -26.6004  -22.5139   23.2487 C   0  0  0  0  0  0
  -29.7644  -17.4795   23.6461 C   0  0  0  0  0  0
  -27.8590  -15.9161   23.2790 C   0  0  0  0  0  0
  -27.6621  -24.3353   21.0932 C   0  0  0  0  0  0
  -27.8827  -22.7650   21.0690 C   0  0  0  0  0  0
  -29.3292  -16.4849   21.3235 C   0  0  0  0  0  0
  -28.3455  -25.1697   19.9697 C   0  0  0  0  0  0
  -26.8077  -21.9123   21.8416 C   0  0  0  0  0  0
  -28.6810  -17.0667   22.6300 C   0  0  0  0  0  0
  -26.0565  -19.6364   22.5639 N   0  0  0  0  0  0
  -27.8395  -18.2802   22.3949 N   0  0  0  0  0  0
  -30.2467  -15.3410   21.5865 N   0  0  0  0  0  0
  -31.4592  -12.4529   19.1196 H   0  0  0  0  0  0
  -30.3422  -11.3224   19.8345 H   0  0  0  0  0  0
  -29.7261  -11.7722   17.4556 H   0  0  0  0  0  0
  -29.6302  -13.4898   17.7643 H   0  0  0  0  0  0
  -27.8905  -11.2780   18.8962 H   0  0  0  0  0  0
  -27.3487  -12.5516   17.8265 H   0  0  0  0  0  0
  -27.7270  -14.2513   19.5846 H   0  0  0  0  0  0
  -28.6731  -11.9609   21.3790 H   0  0  0  0  0  0
  -28.4427  -13.5898   21.8926 H   0  0  0  0  0  0
  -25.2810   -9.5833   22.4633 H   0  0  0  0  0  0
  -24.0001   -7.4866   22.7607 H   0  0  0  0  0  0
  -21.0886   -8.8923   19.8914 H   0  0  0  0  0  0
  -22.4050  -10.9375   19.5731 H   0  0  0  0  0  0
  -21.2161   -7.6251   23.9660 H   0  0  0  0  0  0
  -21.1434   -6.0531   25.8945 H   0  0  0  0  0  0
  -22.0646   -2.7753   23.2555 H   0  0  0  0  0  0
  -22.3600  -11.8768   22.2615 H   0  0  0  0  0  0
  -21.0375  -12.9874   22.0775 H   0  0  0  0  0  0
  -24.6193  -15.8483   20.3931 H   0  0  0  0  0  0
  -26.2220  -15.6559   19.9305 H   0  0  0  0  0  0
  -26.7116  -32.5467   23.1100 H   0  0  0  0  0  0
  -25.0059  -33.9724   25.0421 H   0  0  0  0  0  0
  -22.6977  -31.3021   21.4000 H   0  0  0  0  0  0
  -23.3706  -35.9671   23.3328 H   0  0  0  0  0  0
  -24.3558  -36.8914   22.2051 H   0  0  0  0  0  0
  -23.7271  -37.6532   23.6674 H   0  0  0  0  0  0
  -26.0526  -31.5582   20.5815 H   0  0  0  0  0  0
  -26.8321  -30.8710   21.9740 H   0  0  0  0  0  0
  -28.0886  -29.0236   21.1987 H   0  0  0  0  0  0
  -26.0110  -25.9649   18.9676 H   0  0  0  0  0  0
  -23.9706  -27.3014   19.0069 H   0  0  0  0  0  0
  -23.7408  -30.5876   19.3990 H   0  0  0  0  0  0
  -22.7384  -29.2404   19.8583 H   0  0  0  0  0  0
  -25.1284  -36.1912   25.0818 H   0  0  0  0  0  0
  -20.9960  -28.3209   24.1434 H   0  0  0  0  0  0
  -20.5634  -26.2250   23.3616 H   0  0  0  0  0  0
  -21.6629  -26.7398   22.1233 H   0  0  0  0  0  0
  -19.6893  -25.6266   21.1251 H   0  0  0  0  0  0
  -19.6690  -27.3167   20.6747 H   0  0  0  0  0  0
  -17.4183  -26.6653   21.4034 H   0  0  0  0  0  0
  -18.0323  -26.0067   22.9033 H   0  0  0  0  0  0
  -19.7925  -30.7246   24.2284 H   0  0  0  0  0  0
  -17.5010  -31.6272   24.5145 H   0  0  0  0  0  0
  -15.5343  -30.2997   23.7637 H   0  0  0  0  0  0
  -15.8650  -28.0819   22.7067 H   0  0  0  0  0  0
  -24.5903  -30.7075   25.7827 H   0  0  0  0  0  0
  -24.8994  -32.2875   26.4952 H   0  0  0  0  0  0
  -25.8139  -30.8862   27.0197 H   0  0  0  0  0  0
  -26.2849  -29.6770   24.1231 H   0  0  0  0  0  0
  -27.4185  -29.7322   25.4522 H   0  0  0  0  0  0
  -27.8637  -30.4361   23.9174 H   0  0  0  0  0  0
  -27.2573  -33.3594   26.2127 H   0  0  0  0  0  0
  -28.3826  -32.6989   25.0358 H   0  0  0  0  0  0
  -28.0701  -31.8461   26.5387 H   0  0  0  0  0  0
  -28.2581  -38.0086   24.7461 H   0  0  0  0  0  0
  -28.1036  -36.2620   24.6341 H   0  0  0  0  0  0
  -27.2282  -37.1527   25.8865 H   0  0  0  0  0  0
  -20.9293  -29.8772   21.6972 H   0  0  0  0  0  0
  -26.0141  -38.2835   24.1413 H   0  0  0  0  0  0
  -29.1903  -19.7654   21.5235 H   0  0  0  0  0  0
  -25.9348  -17.6433   23.1702 H   0  0  0  0  0  0
  -24.6573  -21.5770   21.6326 H   0  0  0  0  0  0
  -25.5423  -21.4453   20.1195 H   0  0  0  0  0  0
  -25.1808  -23.0184   20.8144 H   0  0  0  0  0  0
  -26.2249  -23.5394   23.2033 H   0  0  0  0  0  0
  -27.5233  -22.5256   23.8270 H   0  0  0  0  0  0
  -25.8708  -21.9433   23.8286 H   0  0  0  0  0  0
  -30.3555  -16.6270   23.9860 H   0  0  0  0  0  0
  -29.3203  -17.9307   24.5372 H   0  0  0  0  0  0
  -30.4557  -18.2050   23.2229 H   0  0  0  0  0  0
  -27.3492  -16.2254   24.1895 H   0  0  0  0  0  0
  -28.4934  -15.0833   23.5821 H   0  0  0  0  0  0
  -27.1072  -15.5110   22.5986 H   0  0  0  0  0  0
  -27.9889  -24.7191   22.0602 H   0  0  0  0  0  0
  -26.6014  -24.5755   21.0463 H   0  0  0  0  0  0
  -28.8734  -22.5553   21.4797 H   0  0  0  0  0  0
  -27.9173  -22.4184   20.0350 H   0  0  0  0  0  0
  -29.8869  -17.2690   20.8093 H   0  0  0  0  0  0
  -28.5429  -16.1708   20.6386 H   0  0  0  0  0  0
  -27.9127  -24.9253   19.0030 H   0  0  0  0  0  0
  -29.3851  -24.8584   19.8971 H   0  0  0  0  0  0
  -31.0420  -15.6924   22.1051 H   0  0  0  0  0  0
  1 25  1  0  0  0
  1 30  2  0  0  0
  1 86  1  0  0  0
  2  3  1  0  0  0
  2 25  1  0  0  0
  2 87  1  0  0  0
  2 88  1  0  0  0
  3  4  1  0  0  0
  3 89  1  0  0  0
  3 90  1  0  0  0
  4  5  1  0  0  0
  4 91  1  0  0  0
  4 92  1  0  0  0
  5  6  1  0  0  0
  5 26  1  0  0  0
  5 93  1  0  0  0
  6 25  1  0  0  0
  6 94  1  0  0  0
  6 95  1  0  0  0
  7  8  2  0  0  0
  7 26  1  0  0  0
  7 29  1  0  0  0
  8  9  1  0  0  0
  8 22  1  0  0  0
  9 10  1  0  0  0
  9 27  2  0  0  0
 10 11  2  0  0  0
 10 15  1  0  0  0
 11 12  1  0  0  0
 11 96  1  0  0  0
 12 13  2  0  0  0
 12 97  1  0  0  0
 13 14  1  0  0  0
 13 31  1  0  0  0
 14 15  2  0  0  0
 14 98  1  0  0  0
 15 99  1  0  0  0
 16 17  2  0  0  0
 16 21  1  0  0  0
 16 31  1  0  0  0
 17 18  1  0  0  0
 17100  1  0  0  0
 18 19  2  0  0  0
 18101  1  0  0  0
 19 20  1  0  0  0
 19 24  1  0  0  0
 20 21  2  0  0  0
 20102  1  0  0  0
 21 23  1  0  0  0
 22 28  1  0  0  0
 22 32  2  0  0  0
 26 27  1  0  0  0
 28103  1  0  0  0
 28104  1  0  0  0
 29105  1  0  0  0
 29106  1  0  0  0
 33 34  1  0  0  0
 33 66  1  0  0  0
 33 70  2  0  0  0
 34 36  1  0  0  0
 34 59  1  0  0  0
 34107  1  0  0  0
 35 44  2  0  0  0
 35 45  1  0  0  0
 35 68  1  0  0  0
 36 56  1  0  0  0
 36108  1  0  0  0
 37 39  1  0  0  0
 37 47  1  0  0  0
 37 66  1  0  0  0
 37109  1  0  0  0
 38 43  2  0  0  0
 38 46  1  0  0  0
 38 47  1  0  0  0
 39 64  1  0  0  0
 39 67  2  0  0  0
 40 52  1  0  0  0
 40 53  2  0  0  0
 40 58  1  0  0  0
 41110  1  0  0  0
 41111  1  0  0  0
 41112  1  0  0  0
 41 48  1  0  0  0
 42 43  1  0  0  0
 42 66  1  0  0  0
 42113  1  0  0  0
 42114  1  0  0  0
 43 44  1  0  0  0
 44115  1  0  0  0
 45 46  2  0  0  0
 45116  1  0  0  0
 46117  1  0  0  0
 47118  1  0  0  0
 47119  1  0  0  0
 48 56  1  0  0  0
 48 65  1  0  0  0
 48120  1  0  0  0
 49 50  1  0  0  0
 49 53  1  0  0  0
 49 64  1  0  0  0
 49121  1  0  0  0
 50 51  1  0  0  0
 50122  1  0  0  0
 50123  1  0  0  0
 51 52  1  0  0  0
 51124  1  0  0  0
 51125  1  0  0  0
 52126  1  0  0  0
 52127  1  0  0  0
 53 54  1  0  0  0
 54 55  2  0  0  0
 54128  1  0  0  0
 55 57  1  0  0  0
 55129  1  0  0  0
 56 69  2  0  0  0
 57 58  2  0  0  0
 57130  1  0  0  0
 58131  1  0  0  0
 59 60  1  0  0  0
 59 61  1  0  0  0
 59 62  1  0  0  0
 60132  1  0  0  0
 60133  1  0  0  0
 60134  1  0  0  0
 61135  1  0  0  0
 61136  1  0  0  0
 61137  1  0  0  0
 62138  1  0  0  0
 62139  1  0  0  0
 62140  1  0  0  0
 63 65  1  0  0  0
 63141  1  0  0  0
 63142  1  0  0  0
 63143  1  0  0  0
 64144  1  0  0  0
 65145  1  0  0  0
 68 81  1  0  0  0
 71 73  2  0  0  0
 71 85  1  0  0  0
 71146  1  0  0  0
 72 84  2  0  0  0
 72 85  1  0  0  0
 72147  1  0  0  0
 73 82  1  0  0  0
 73 84  1  0  0  0
 74148  1  0  0  0
 74149  1  0  0  0
 74150  1  0  0  0
 74 82  1  0  0  0
 75 82  1  0  0  0
 75151  1  0  0  0
 75152  1  0  0  0
 75153  1  0  0  0
 76154  1  0  0  0
 76155  1  0  0  0
 76156  1  0  0  0
 76 83  1  0  0  0
 77 83  1  0  0  0
 77157  1  0  0  0
 77158  1  0  0  0
 77159  1  0  0  0
 78 79  1  0  0  0
 78 81  1  0  0  0
 78160  1  0  0  0
 78161  1  0  0  0
 79 82  1  0  0  0
 79162  1  0  0  0
 79163  1  0  0  0
 80 83  1  0  0  0
 80 86  1  0  0  0
 80164  1  0  0  0
 80165  1  0  0  0
 81166  1  0  0  0
 81167  1  0  0  0
 83 85  1  0  0  0
 86168  1  0  0  0
M  ISO  4   1 100  68 101  81 101  86 100
M  END
> <chiral flag>
0

> <version>
0

> <s_m_source_file>
/data/baiqing/PycharmProjects/Reinvent-master-3.2/result/LINK_invent/BTK/process_docking_weight1_custom_sum_contain_oxygen_bond_distance_aromatic_linkinvent_7_9_3/rearranged_h_0063.sdf

> <i_m_source_file_index>
21

> <r_mmod_Potential_Energy-OPLS-2005>
-17.041410446167

> <r_mmod_Stretch_Energy-OPLS-2005>
60.2019271850586

> <r_mmod_Bend_Energy-OPLS-2005>
154.53874206543

> <r_mmod_Torsional_Energy-OPLS-2005>
300.248657226562

> <r_mmod_Improper_Torsional_Energy-OPLS-2005>
8.6220645904541

> <r_mmod_Van_der_Waal_Energy-OPLS-2005>
131.509521484375

> <r_mmod_Electrostatic_Energy-OPLS-2005>
-491.330932617188

> <r_mmod_Solvation_Energy-OPLS-2005>
-202.440673828125

> <b_mmod_Minimization_Converged-OPLS-2005>
0

> <r_mmod_RMS_Derivative-OPLS-2005>
9.53543663024902

$$$$
23
                    3D
 Structure written by MMmdl.
166174  0  0  1  0            999 V2000
  -30.6731  -14.6712   20.5306 C   0  0  0  0  0  0
  -30.4193  -12.4306   19.4599 C   0  0  0  0  0  0
  -29.4925  -12.5178   18.2302 C   0  0  0  0  0  0
  -28.0205  -12.3500   18.6501 C   0  0  0  0  0  0
  -27.6439  -13.2308   19.8715 C   0  0  2  0  0  0
  -28.6956  -13.1106   20.9991 C   0  0  0  0  0  0
  -25.2394  -13.8156   20.5581 C   0  0  0  0  0  0
  -24.1751  -13.0403   20.9230 C   0  0  0  0  0  0
  -24.6387  -11.6902   20.8816 C   0  0  0  0  0  0
  -23.9070  -10.4276   21.0444 C   0  0  0  0  0  0
  -24.3616   -9.4185   21.9216 C   0  0  0  0  0  0
  -23.6282   -8.2223   22.0769 C   0  0  0  0  0  0
  -22.4270   -8.0275   21.3543 C   0  0  0  0  0  0
  -21.9915   -9.0257   20.4646 C   0  0  0  0  0  0
  -22.7256  -10.2132   20.3073 C   0  0  0  0  0  0
  -21.6838   -6.0736   22.5281 C   0  0  0  0  0  0
  -21.4008   -6.5640   23.8217 C   0  0  0  0  0  0
  -21.3660   -5.6790   24.9176 C   0  0  0  0  0  0
  -21.6043   -4.3053   24.7223 C   0  0  0  0  0  0
  -21.8816   -3.8146   23.4342 C   0  0  0  0  0  0
  -21.9189   -4.6963   22.3398 C   0  0  0  0  0  0
  -22.7771  -13.5182   21.1878 C   0  0  0  0  0  0
  -22.1655   -4.2153   21.0974 F   0  0  0  0  0  0
  -21.5630   -3.4538   25.7733 F   0  0  0  0  0  0
  -29.9978  -13.4738   20.4271 N   0  0  0  0  0  0
  -26.2919  -12.9413   20.3400 N   0  0  0  0  0  0
  -25.9333  -11.6551   20.5892 N   0  0  0  0  0  0
  -22.0421  -12.8190   22.0446 N   0  0  0  0  0  0
  -25.3813  -15.1842   20.3629 N   0  0  0  0  0  0
  -31.8145  -14.7562   20.0625 O   0  0  0  0  0  0
  -21.6629   -6.8884   21.4244 O   0  0  0  0  0  0
  -22.3456  -14.5486   20.6725 O   0  0  0  0  0  0
  -24.6257  -31.8581   23.1983 C   0  0  0  0  0  0
  -25.9105  -32.4756   23.8314 C   0  0  1  0  0  0
  -27.2366  -27.3144   20.1217 C   0  0  0  0  0  0
  -25.5925  -33.8561   24.2241 N   0  0  0  0  0  0
  -23.4198  -30.4798   21.5394 C   0  0  2  0  0  0
  -24.8679  -28.9250   20.1098 C   0  0  0  0  0  0
  -22.7469  -29.4623   22.4913 C   0  0  0  0  0  0
  -18.0295  -28.1385   22.8489 C   0  0  0  0  0  0
  -24.1504  -36.7298   23.2649 C   0  0  0  0  0  0
  -25.9587  -30.7880   21.3668 C   0  0  0  0  0  0
  -26.0320  -29.4126   20.7138 C   0  0  0  0  0  0
  -27.2130  -28.6164   20.7116 C   0  0  0  0  0  0
  -26.0460  -26.8672   19.5077 C   0  0  0  0  0  0
  -24.8761  -27.6574   19.5022 C   0  0  0  0  0  0
  -23.6362  -29.8087   20.1554 C   0  0  0  0  0  0
  -25.4124  -36.3067   24.0329 C   0  0  1  0  0  0
  -20.5893  -28.3698   23.1287 C   0  0  2  0  0  0
  -20.6804  -26.9415   22.5424 C   0  0  0  0  0  0
  -19.5780  -26.6373   21.5235 C   0  0  0  0  0  0
  -18.1944  -26.7921   22.1613 C   0  0  0  0  0  0
  -19.1548  -28.8854   23.2882 C   0  0  0  0  0  0
  -18.9482  -30.1457   23.8888 C   0  0  0  0  0  0
  -17.6488  -30.6586   24.0580 C   0  0  0  0  0  0
  -25.9066  -34.9446   23.5093 C   0  0  0  0  0  0
  -16.5376  -29.9096   23.6332 C   0  0  0  0  0  0
  -16.7288  -28.6519   23.0335 C   0  0  0  0  0  0
  -26.4500  -31.6572   25.0687 C   0  0  0  0  0  0
  -25.3741  -31.3700   26.1429 C   0  0  0  0  0  0
  -27.0391  -30.3011   24.6122 C   0  0  0  0  0  0
  -27.6059  -32.4324   25.7445 C   0  0  0  0  0  0
  -27.5582  -37.1797   24.8460 C   0  0  0  0  0  0
  -21.4184  -29.3050   22.3664 N   0  0  0  0  0  0
  -26.4289  -37.3768   23.9412 N   0  0  0  0  0  0
  -24.6873  -31.0595   22.0920 N   0  0  0  0  0  0
  -23.4192  -28.8188   23.3013 O   0  0  0  0  0  0
  -28.3873  -26.5140   20.2077 O   0  0  0  0  0  0
  -26.5645  -34.8921   22.4655 O   0  0  0  0  0  0
  -23.5423  -32.1383   23.7308 O   0  0  0  0  0  0
  -28.6349  -18.9043   19.3888 C   0  0  0  0  0  0
  -29.3066  -18.2714   20.4754 C   0  0  0  0  0  0
  -29.1919  -21.0782   20.1092 C   0  0  0  0  0  0
  -29.8546  -20.4538   21.2178 C   0  0  0  0  0  0
  -30.5156  -22.0359   24.7296 C   0  0  0  0  0  0
  -27.9028  -16.6649   21.7711 C   0  0  0  0  0  0
  -31.0648  -16.3510   22.2061 C   0  0  0  0  0  0
  -29.3030  -22.6040   19.6953 C   0  0  0  0  0  0
  -30.5716  -21.2565   22.2932 C   0  0  0  0  0  0
  -29.7773  -21.2923   23.6108 C   0  0  0  0  0  0
  -28.4917  -23.8073   20.3693 C   0  0  0  0  0  0
  -28.5488  -25.1917   19.5604 C   0  0  0  0  0  0
  -29.0700  -16.7242   20.7678 C   0  0  2  0  0  0
  -28.5790  -20.2621   19.2066 N   0  0  0  0  0  0
  -29.8993  -19.0881   21.3967 N   0  0  0  0  0  0
  -30.1507  -15.7519   21.2281 N   0  0  0  0  0  0
  -31.4598  -12.5374   19.1474 H   0  0  0  0  0  0
  -30.3574  -11.4424   19.9178 H   0  0  0  0  0  0
  -29.7600  -11.7511   17.5019 H   0  0  0  0  0  0
  -29.6279  -13.4781   17.7309 H   0  0  0  0  0  0
  -27.8676  -11.2991   18.8964 H   0  0  0  0  0  0
  -27.3585  -12.5639   17.8104 H   0  0  0  0  0  0
  -27.6492  -14.2620   19.5220 H   0  0  0  0  0  0
  -28.7235  -12.0897   21.3813 H   0  0  0  0  0  0
  -28.4525  -13.7287   21.8591 H   0  0  0  0  0  0
  -25.2751   -9.5661   22.4807 H   0  0  0  0  0  0
  -23.9985   -7.4610   22.7480 H   0  0  0  0  0  0
  -21.0855   -8.8784   19.8933 H   0  0  0  0  0  0
  -22.3725  -10.9686   19.6183 H   0  0  0  0  0  0
  -21.1997   -7.6148   23.9726 H   0  0  0  0  0  0
  -21.1483   -6.0517   25.9084 H   0  0  0  0  0  0
  -22.0592   -2.7609   23.2839 H   0  0  0  0  0  0
  -22.4031  -11.9859   22.4860 H   0  0  0  0  0  0
  -21.1041  -13.1223   22.2662 H   0  0  0  0  0  0
  -24.5762  -15.7988   20.4151 H   0  0  0  0  0  0
  -26.1880  -15.6214   19.9404 H   0  0  0  0  0  0
  -26.7173  -32.5420   23.1063 H   0  0  0  0  0  0
  -25.0104  -33.9707   25.0413 H   0  0  0  0  0  0
  -22.7135  -31.3000   21.3904 H   0  0  0  0  0  0
  -23.3766  -35.9632   23.3289 H   0  0  0  0  0  0
  -24.3601  -36.8925   22.2062 H   0  0  0  0  0  0
  -23.7253  -37.6494   23.6695 H   0  0  0  0  0  0
  -26.0855  -31.5483   20.5954 H   0  0  0  0  0  0
  -26.8417  -30.8409   21.9917 H   0  0  0  0  0  0
  -28.1072  -28.9878   21.1897 H   0  0  0  0  0  0
  -25.9884  -25.8889   19.0560 H   0  0  0  0  0  0
  -23.9787  -27.2702   19.0398 H   0  0  0  0  0  0
  -23.7584  -30.5856   19.3991 H   0  0  0  0  0  0
  -22.7556  -29.2416   19.8488 H   0  0  0  0  0  0
  -25.1292  -36.1919   25.0817 H   0  0  0  0  0  0
  -20.9996  -28.3299   24.1406 H   0  0  0  0  0  0
  -20.5744  -26.2304   23.3631 H   0  0  0  0  0  0
  -21.6661  -26.7471   22.1189 H   0  0  0  0  0  0
  -19.6956  -25.6293   21.1256 H   0  0  0  0  0  0
  -19.6715  -27.3204   20.6784 H   0  0  0  0  0  0
  -17.4226  -26.6715   21.3992 H   0  0  0  0  0  0
  -18.0297  -26.0042   22.8973 H   0  0  0  0  0  0
  -19.7977  -30.7282   24.2211 H   0  0  0  0  0  0
  -17.5055  -31.6253   24.5204 H   0  0  0  0  0  0
  -15.5383  -30.3007   23.7655 H   0  0  0  0  0  0
  -15.8679  -28.0862   22.7016 H   0  0  0  0  0  0
  -24.5922  -30.7026   25.7770 H   0  0  0  0  0  0
  -24.8943  -32.2873   26.4865 H   0  0  0  0  0  0
  -25.8081  -30.8883   27.0198 H   0  0  0  0  0  0
  -26.2979  -29.6684   24.1226 H   0  0  0  0  0  0
  -27.4232  -29.7310   25.4593 H   0  0  0  0  0  0
  -27.8755  -30.4329   23.9249 H   0  0  0  0  0  0
  -27.2672  -33.3632   26.2000 H   0  0  0  0  0  0
  -28.3873  -32.6853   25.0269 H   0  0  0  0  0  0
  -28.0725  -31.8460   26.5365 H   0  0  0  0  0  0
  -28.2585  -38.0115   24.7526 H   0  0  0  0  0  0
  -28.1088  -36.2636   24.6261 H   0  0  0  0  0  0
  -27.2307  -37.1409   25.8868 H   0  0  0  0  0  0
  -20.9369  -29.8738   21.6846 H   0  0  0  0  0  0
  -26.0169  -38.2835   24.1424 H   0  0  0  0  0  0
  -28.0797  -18.3122   18.6758 H   0  0  0  0  0  0
  -29.9361  -22.0228   25.6536 H   0  0  0  0  0  0
  -30.6931  -23.0770   24.4604 H   0  0  0  0  0  0
  -31.4794  -21.5714   24.9391 H   0  0  0  0  0  0
  -27.0488  -17.2331   21.4019 H   0  0  0  0  0  0
  -28.1831  -17.1096   22.7257 H   0  0  0  0  0  0
  -27.5576  -15.6566   21.9713 H   0  0  0  0  0  0
  -30.5294  -16.9318   22.9574 H   0  0  0  0  0  0
  -31.7769  -17.0116   21.7090 H   0  0  0  0  0  0
  -31.6347  -15.5910   22.7453 H   0  0  0  0  0  0
  -29.0594  -22.6398   18.6325 H   0  0  0  0  0  0
  -30.3627  -22.8562   19.7250 H   0  0  0  0  0  0
  -30.7681  -22.2719   21.9514 H   0  0  0  0  0  0
  -31.5501  -20.8042   22.4606 H   0  0  0  0  0  0
  -28.8058  -21.7586   23.4417 H   0  0  0  0  0  0
  -29.5746  -20.2728   23.9428 H   0  0  0  0  0  0
  -28.8789  -23.9612   21.3768 H   0  0  0  0  0  0
  -27.4466  -23.5208   20.4907 H   0  0  0  0  0  0
  -27.9466  -25.1130   18.6569 H   0  0  0  0  0  0
  -29.5652  -25.2509   19.1682 H   0  0  0  0  0  0
  -28.7046  -16.3188   19.8232 H   0  0  0  0  0  0
  1 25  1  0  0  0
  1 30  2  0  0  0
  1 86  1  0  0  0
  2  3  1  0  0  0
  2 25  1  0  0  0
  2 87  1  0  0  0
  2 88  1  0  0  0
  3  4  1  0  0  0
  3 89  1  0  0  0
  3 90  1  0  0  0
  4  5  1  0  0  0
  4 91  1  0  0  0
  4 92  1  0  0  0
  5  6  1  0  0  0
  5 26  1  0  0  0
  5 93  1  0  0  0
  6 25  1  0  0  0
  6 94  1  0  0  0
  6 95  1  0  0  0
  7  8  2  0  0  0
  7 26  1  0  0  0
  7 29  1  0  0  0
  8  9  1  0  0  0
  8 22  1  0  0  0
  9 10  1  0  0  0
  9 27  2  0  0  0
 10 11  2  0  0  0
 10 15  1  0  0  0
 11 12  1  0  0  0
 11 96  1  0  0  0
 12 13  2  0  0  0
 12 97  1  0  0  0
 13 14  1  0  0  0
 13 31  1  0  0  0
 14 15  2  0  0  0
 14 98  1  0  0  0
 15 99  1  0  0  0
 16 17  2  0  0  0
 16 21  1  0  0  0
 16 31  1  0  0  0
 17 18  1  0  0  0
 17100  1  0  0  0
 18 19  2  0  0  0
 18101  1  0  0  0
 19 20  1  0  0  0
 19 24  1  0  0  0
 20 21  2  0  0  0
 20102  1  0  0  0
 21 23  1  0  0  0
 22 28  1  0  0  0
 22 32  2  0  0  0
 26 27  1  0  0  0
 28103  1  0  0  0
 28104  1  0  0  0
 29105  1  0  0  0
 29106  1  0  0  0
 33 34  1  0  0  0
 33 66  1  0  0  0
 33 70  2  0  0  0
 34 36  1  0  0  0
 34 59  1  0  0  0
 34107  1  0  0  0
 35 44  2  0  0  0
 35 45  1  0  0  0
 35 68  1  0  0  0
 36 56  1  0  0  0
 36108  1  0  0  0
 37 39  1  0  0  0
 37 47  1  0  0  0
 37 66  1  0  0  0
 37109  1  0  0  0
 38 43  2  0  0  0
 38 46  1  0  0  0
 38 47  1  0  0  0
 39 64  1  0  0  0
 39 67  2  0  0  0
 40 52  1  0  0  0
 40 53  2  0  0  0
 40 58  1  0  0  0
 41110  1  0  0  0
 41111  1  0  0  0
 41112  1  0  0  0
 41 48  1  0  0  0
 42 43  1  0  0  0
 42 66  1  0  0  0
 42113  1  0  0  0
 42114  1  0  0  0
 43 44  1  0  0  0
 44115  1  0  0  0
 45 46  2  0  0  0
 45116  1  0  0  0
 46117  1  0  0  0
 47118  1  0  0  0
 47119  1  0  0  0
 48 56  1  0  0  0
 48 65  1  0  0  0
 48120  1  0  0  0
 49 50  1  0  0  0
 49 53  1  0  0  0
 49 64  1  0  0  0
 49121  1  0  0  0
 50 51  1  0  0  0
 50122  1  0  0  0
 50123  1  0  0  0
 51 52  1  0  0  0
 51124  1  0  0  0
 51125  1  0  0  0
 52126  1  0  0  0
 52127  1  0  0  0
 53 54  1  0  0  0
 54 55  2  0  0  0
 54128  1  0  0  0
 55 57  1  0  0  0
 55129  1  0  0  0
 56 69  2  0  0  0
 57 58  2  0  0  0
 57130  1  0  0  0
 58131  1  0  0  0
 59 60  1  0  0  0
 59 61  1  0  0  0
 59 62  1  0  0  0
 60132  1  0  0  0
 60133  1  0  0  0
 60134  1  0  0  0
 61135  1  0  0  0
 61136  1  0  0  0
 61137  1  0  0  0
 62138  1  0  0  0
 62139  1  0  0  0
 62140  1  0  0  0
 63 65  1  0  0  0
 63141  1  0  0  0
 63142  1  0  0  0
 63143  1  0  0  0
 64144  1  0  0  0
 65145  1  0  0  0
 68 82  1  0  0  0
 71 72  2  0  0  0
 71 84  1  0  0  0
 71146  1  0  0  0
 72 83  1  0  0  0
 72 85  1  0  0  0
 73 74  1  0  0  0
 73 78  1  0  0  0
 73 84  2  0  0  0
 74 79  1  0  0  0
 74 85  2  0  0  0
 75 80  1  0  0  0
 75147  1  0  0  0
 75148  1  0  0  0
 75149  1  0  0  0
 76150  1  0  0  0
 76151  1  0  0  0
 76152  1  0  0  0
 76 83  1  0  0  0
 77 86  1  0  0  0
 77153  1  0  0  0
 77154  1  0  0  0
 77155  1  0  0  0
 78 81  1  0  0  0
 78156  1  0  0  0
 78157  1  0  0  0
 79 80  1  0  0  0
 79158  1  0  0  0
 79159  1  0  0  0
 80160  1  0  0  0
 80161  1  0  0  0
 81 82  1  0  0  0
 81162  1  0  0  0
 81163  1  0  0  0
 82164  1  0  0  0
 82165  1  0  0  0
 83 86  1  0  0  0
 83166  1  0  0  0
M  ISO  4   1 100  68 101  82 101  86 100
M  END
> <chiral flag>
0

> <version>
0

> <s_m_source_file>
/data/baiqing/PycharmProjects/Reinvent-master-3.2/result/LINK_invent/BTK/process_docking_weight1_custom_sum_contain_oxygen_bond_distance_aromatic_linkinvent_7_9_3/rearranged_h_0063.sdf

> <i_m_source_file_index>
22

> <r_mmod_Potential_Energy-OPLS-2005>
290.902282714844

> <r_mmod_Stretch_Energy-OPLS-2005>
100.761940002441

> <r_mmod_Bend_Energy-OPLS-2005>
197.480743408203

> <r_mmod_Torsional_Energy-OPLS-2005>
259.415863037109

> <r_mmod_Improper_Torsional_Energy-OPLS-2005>
7.69571828842163

> <r_mmod_Van_der_Waal_Energy-OPLS-2005>
139.443893432617

> <r_mmod_Electrostatic_Energy-OPLS-2005>
-263.249420166016

> <r_mmod_Solvation_Energy-OPLS-2005>
-203.353698730469

> <b_mmod_Minimization_Converged-OPLS-2005>
0

> <r_mmod_RMS_Derivative-OPLS-2005>
2.31324028968811

$$$$
24
                    3D
 Structure written by MMmdl.
157165  0  0  1  0            999 V2000
  -30.4399  -15.2913   20.3470 C   0  0  0  0  0  0
  -30.4331  -12.8182   19.5417 C   0  0  0  0  0  0
  -29.5417  -12.5802   18.2957 C   0  0  0  0  0  0
  -28.0882  -12.3021   18.7143 C   0  0  0  0  0  0
  -27.6061  -13.2843   19.8101 C   0  0  2  0  0  0
  -28.6295  -13.4851   20.9442 C   0  0  0  0  0  0
  -25.2392  -13.8278   20.5733 C   0  0  0  0  0  0
  -24.1744  -13.0452   20.9235 C   0  0  0  0  0  0
  -24.6403  -11.6947   20.8730 C   0  0  0  0  0  0
  -23.9100  -10.4300   21.0390 C   0  0  0  0  0  0
  -24.3647   -9.4217   21.9170 C   0  0  0  0  0  0
  -23.6315   -8.2254   22.0751 C   0  0  0  0  0  0
  -22.4296   -8.0289   21.3544 C   0  0  0  0  0  0
  -21.9933   -9.0260   20.4645 C   0  0  0  0  0  0
  -22.7266  -10.2137   20.3048 C   0  0  0  0  0  0
  -21.6862   -6.0740   22.5278 C   0  0  0  0  0  0
  -21.4017   -6.5639   23.8210 C   0  0  0  0  0  0
  -21.3663   -5.6789   24.9171 C   0  0  0  0  0  0
  -21.6047   -4.3052   24.7224 C   0  0  0  0  0  0
  -21.8818   -3.8148   23.4343 C   0  0  0  0  0  0
  -21.9195   -4.6967   22.3401 C   0  0  0  0  0  0
  -22.7763  -13.5196   21.1896 C   0  0  0  0  0  0
  -22.1667   -4.2151   21.0982 F   0  0  0  0  0  0
  -21.5629   -3.4536   25.7737 F   0  0  0  0  0  0
  -29.8702  -13.9813   20.3288 N   0  0  0  0  0  0
  -26.2796  -12.9557   20.3145 N   0  0  0  0  0  0
  -25.9336  -11.6652   20.5659 N   0  0  0  0  0  0
  -22.0435  -12.8167   22.0451 N   0  0  0  0  0  0
  -25.4081  -15.2014   20.4232 N   0  0  0  0  0  0
  -31.6712  -15.2319   20.1972 O   0  0  0  0  0  0
  -21.6653   -6.8890   21.4244 O   0  0  0  0  0  0
  -22.3426  -14.5490   20.6739 O   0  0  0  0  0  0
  -24.6644  -31.8217   23.1683 C   0  0  0  0  0  0
  -25.9323  -32.4572   23.8153 C   0  0  1  0  0  0
  -27.2165  -26.9080   20.2011 C   0  0  0  0  0  0
  -25.5987  -33.8389   24.2067 N   0  0  0  0  0  0
  -23.4789  -30.4313   21.5189 C   0  0  2  0  0  0
  -24.9309  -28.8075   20.1223 C   0  0  0  0  0  0
  -22.7666  -29.4435   22.4797 C   0  0  0  0  0  0
  -18.0325  -28.1399   22.8465 C   0  0  0  0  0  0
  -24.1496  -36.7200   23.2645 C   0  0  0  0  0  0
  -26.0484  -30.6232   21.3992 C   0  0  0  0  0  0
  -26.1165  -29.2080   20.7511 C   0  0  0  0  0  0
  -27.2573  -28.2822   20.7575 C   0  0  0  0  0  0
  -25.9982  -26.6569   19.5330 C   0  0  0  0  0  0
  -24.8976  -27.5523   19.4923 C   0  0  0  0  0  0
  -23.7191  -29.7392   20.1487 C   0  0  0  0  0  0
  -25.4138  -36.2956   24.0296 C   0  0  1  0  0  0
  -20.5947  -28.3745   23.1190 C   0  0  2  0  0  0
  -20.6799  -26.9425   22.5404 C   0  0  0  0  0  0
  -19.5775  -26.6369   21.5214 C   0  0  0  0  0  0
  -18.1957  -26.7934   22.1620 C   0  0  0  0  0  0
  -19.1584  -28.8895   23.2811 C   0  0  0  0  0  0
  -18.9495  -30.1490   23.8838 C   0  0  0  0  0  0
  -17.6486  -30.6590   24.0551 C   0  0  0  0  0  0
  -25.9102  -34.9339   23.5001 C   0  0  0  0  0  0
  -16.5379  -29.9072   23.6345 C   0  0  0  0  0  0
  -16.7307  -28.6495   23.0361 C   0  0  0  0  0  0
  -26.4575  -31.6515   25.0683 C   0  0  0  0  0  0
  -25.3703  -31.3768   26.1341 C   0  0  0  0  0  0
  -27.0475  -30.2879   24.6416 C   0  0  0  0  0  0
  -27.6054  -32.4333   25.7496 C   0  0  0  0  0  0
  -27.5573  -37.1757   24.8466 C   0  0  0  0  0  0
  -21.4337  -29.3038   22.3542 N   0  0  0  0  0  0
  -26.4281  -37.3696   23.9405 N   0  0  0  0  0  0
  -24.7521  -30.9865   22.0825 N   0  0  0  0  0  0
  -23.4208  -28.8013   23.3049 O   0  0  0  0  0  0
  -28.2415  -25.8205   20.1865 O   0  0  0  0  0  0
  -26.5710  -34.8879   22.4596 O   0  0  0  0  0  0
  -23.5714  -32.1202   23.6768 O   0  0  0  0  0  0
  -30.0395  -18.2363   20.7791 C   0  0  0  0  0  0
  -28.2929  -18.6074   19.6908 C   0  0  0  0  0  0
  -29.6860  -16.8714   20.3370 C   0  0  0  0  0  0
  -29.8974  -22.9044   19.1276 C   0  0  0  0  0  0
  -27.5463  -22.2015   18.9488 C   0  0  0  0  0  0
  -27.8857  -20.9923   21.9122 C   0  0  0  0  0  0
  -30.3091  -21.3183   21.6173 C   0  0  0  0  0  0
  -28.1133  -24.2157   20.5943 C   0  0  0  0  0  0
  -28.6404  -22.5871   19.9601 C   0  0  0  0  0  0
  -29.0010  -21.0338   20.8521 C   0  0  0  0  0  0
  -28.5220  -17.2518   19.6187 N   0  0  0  0  0  0
  -29.1469  -19.4009   20.3928 N   0  0  0  0  0  0
  -31.4572  -13.0051   19.2164 H   0  0  0  0  0  0
  -30.4856  -11.9192   20.1584 H   0  0  0  0  0  0
  -29.9278  -11.7509   17.7023 H   0  0  0  0  0  0
  -29.5762  -13.4612   17.6530 H   0  0  0  0  0  0
  -28.0449  -11.2802   19.0926 H   0  0  0  0  0  0
  -27.4260  -12.3364   17.8484 H   0  0  0  0  0  0
  -27.5143  -14.2450   19.3007 H   0  0  0  0  0  0
  -28.7918  -12.5638   21.5055 H   0  0  0  0  0  0
  -28.2606  -14.2245   21.6570 H   0  0  0  0  0  0
  -25.2791   -9.5689   22.4746 H   0  0  0  0  0  0
  -24.0022   -7.4641   22.7469 H   0  0  0  0  0  0
  -21.0865   -8.8776   19.8945 H   0  0  0  0  0  0
  -22.3722  -10.9673   19.6156 H   0  0  0  0  0  0
  -21.2011   -7.6146   23.9712 H   0  0  0  0  0  0
  -21.1488   -6.0520   25.9072 H   0  0  0  0  0  0
  -22.0598   -2.7611   23.2841 H   0  0  0  0  0  0
  -22.4088  -11.9855   22.4862 H   0  0  0  0  0  0
  -21.1039  -13.1152   22.2643 H   0  0  0  0  0  0
  -24.6490  -15.8602   20.5578 H   0  0  0  0  0  0
  -26.2719  -15.6458   20.1301 H   0  0  0  0  0  0
  -26.7388  -32.5109   23.0863 H   0  0  0  0  0  0
  -25.0097  -33.9465   25.0193 H   0  0  0  0  0  0
  -22.7928  -31.2625   21.3443 H   0  0  0  0  0  0
  -23.3768  -35.9520   23.3275 H   0  0  0  0  0  0
  -24.3569  -36.8882   22.2065 H   0  0  0  0  0  0
  -23.7250  -37.6375   23.6729 H   0  0  0  0  0  0
  -26.2259  -31.3593   20.6141 H   0  0  0  0  0  0
  -26.9096  -30.6859   22.0523 H   0  0  0  0  0  0
  -28.1632  -28.5950   21.2576 H   0  0  0  0  0  0
  -25.8784  -25.6986   19.0467 H   0  0  0  0  0  0
  -23.9974  -27.2389   18.9822 H   0  0  0  0  0  0
  -23.8758  -30.5030   19.3863 H   0  0  0  0  0  0
  -22.8281  -29.1930   19.8340 H   0  0  0  0  0  0
  -25.1340  -36.1744   25.0787 H   0  0  0  0  0  0
  -21.0033  -28.3348   24.1313 H   0  0  0  0  0  0
  -20.5678  -26.2360   23.3643 H   0  0  0  0  0  0
  -21.6662  -26.7399   22.1212 H   0  0  0  0  0  0
  -19.6932  -25.6268   21.1273 H   0  0  0  0  0  0
  -19.6712  -27.3153   20.6721 H   0  0  0  0  0  0
  -17.4227  -26.6680   21.4022 H   0  0  0  0  0  0
  -18.0347  -26.0088   22.9025 H   0  0  0  0  0  0
  -19.7970  -30.7327   24.2170 H   0  0  0  0  0  0
  -17.5035  -31.6262   24.5161 H   0  0  0  0  0  0
  -15.5376  -30.2950   23.7702 H   0  0  0  0  0  0
  -15.8712  -28.0795   22.7100 H   0  0  0  0  0  0
  -24.5892  -30.7111   25.7653 H   0  0  0  0  0  0
  -24.8887  -32.2970   26.4655 H   0  0  0  0  0  0
  -25.7938  -30.9006   27.0192 H   0  0  0  0  0  0
  -26.3147  -29.6547   24.1402 H   0  0  0  0  0  0
  -27.3988  -29.7249   25.5074 H   0  0  0  0  0  0
  -27.9094  -30.4060   23.9845 H   0  0  0  0  0  0
  -27.2608  -33.3674   26.1948 H   0  0  0  0  0  0
  -28.3936  -32.6832   25.0382 H   0  0  0  0  0  0
  -28.0645  -31.8544   26.5521 H   0  0  0  0  0  0
  -28.2564  -38.0076   24.7510 H   0  0  0  0  0  0
  -28.1094  -36.2600   24.6297 H   0  0  0  0  0  0
  -27.2283  -37.1400   25.8866 H   0  0  0  0  0  0
  -20.9595  -29.8715   21.6657 H   0  0  0  0  0  0
  -26.0124  -38.2752   24.1410 H   0  0  0  0  0  0
  -30.9058  -18.4704   21.3828 H   0  0  0  0  0  0
  -27.4097  -19.0354   19.2377 H   0  0  0  0  0  0
  -29.6875  -23.6508   18.3604 H   0  0  0  0  0  0
  -30.2834  -22.0156   18.6269 H   0  0  0  0  0  0
  -30.6952  -23.3106   19.7495 H   0  0  0  0  0  0
  -27.3180  -23.0279   18.2746 H   0  0  0  0  0  0
  -26.6176  -21.9342   19.4524 H   0  0  0  0  0  0
  -27.8445  -21.3502   18.3366 H   0  0  0  0  0  0
  -27.7875  -21.9458   22.4318 H   0  0  0  0  0  0
  -28.0747  -20.2293   22.6683 H   0  0  0  0  0  0
  -26.9206  -20.7634   21.4615 H   0  0  0  0  0  0
  -30.3075  -22.3144   22.0608 H   0  0  0  0  0  0
  -31.1747  -21.2484   20.9585 H   0  0  0  0  0  0
  -30.4683  -20.6090   22.4299 H   0  0  0  0  0  0
  -28.5820  -24.2359   21.5777 H   0  0  0  0  0  0
  -27.0570  -24.0947   20.8359 H   0  0  0  0  0  0
  1 25  1  0  0  0
  1 30  2  0  0  0
  1 73  1  0  0  0
  2  3  1  0  0  0
  2 25  1  0  0  0
  2 83  1  0  0  0
  2 84  1  0  0  0
  3  4  1  0  0  0
  3 85  1  0  0  0
  3 86  1  0  0  0
  4  5  1  0  0  0
  4 87  1  0  0  0
  4 88  1  0  0  0
  5  6  1  0  0  0
  5 26  1  0  0  0
  5 89  1  0  0  0
  6 25  1  0  0  0
  6 90  1  0  0  0
  6 91  1  0  0  0
  7  8  2  0  0  0
  7 26  1  0  0  0
  7 29  1  0  0  0
  8  9  1  0  0  0
  8 22  1  0  0  0
  9 10  1  0  0  0
  9 27  2  0  0  0
 10 11  2  0  0  0
 10 15  1  0  0  0
 11 12  1  0  0  0
 11 92  1  0  0  0
 12 13  2  0  0  0
 12 93  1  0  0  0
 13 14  1  0  0  0
 13 31  1  0  0  0
 14 15  2  0  0  0
 14 94  1  0  0  0
 15 95  1  0  0  0
 16 17  2  0  0  0
 16 21  1  0  0  0
 16 31  1  0  0  0
 17 18  1  0  0  0
 17 96  1  0  0  0
 18 19  2  0  0  0
 18 97  1  0  0  0
 19 20  1  0  0  0
 19 24  1  0  0  0
 20 21  2  0  0  0
 20 98  1  0  0  0
 21 23  1  0  0  0
 22 28  1  0  0  0
 22 32  2  0  0  0
 26 27  1  0  0  0
 28 99  1  0  0  0
 28100  1  0  0  0
 29101  1  0  0  0
 29102  1  0  0  0
 33 34  1  0  0  0
 33 66  1  0  0  0
 33 70  2  0  0  0
 34 36  1  0  0  0
 34 59  1  0  0  0
 34103  1  0  0  0
 35 44  2  0  0  0
 35 45  1  0  0  0
 35 68  1  0  0  0
 36 56  1  0  0  0
 36104  1  0  0  0
 37 39  1  0  0  0
 37 47  1  0  0  0
 37 66  1  0  0  0
 37105  1  0  0  0
 38 43  2  0  0  0
 38 46  1  0  0  0
 38 47  1  0  0  0
 39 64  1  0  0  0
 39 67  2  0  0  0
 40 52  1  0  0  0
 40 53  2  0  0  0
 40 58  1  0  0  0
 41106  1  0  0  0
 41107  1  0  0  0
 41108  1  0  0  0
 41 48  1  0  0  0
 42 43  1  0  0  0
 42 66  1  0  0  0
 42109  1  0  0  0
 42110  1  0  0  0
 43 44  1  0  0  0
 44111  1  0  0  0
 45 46  2  0  0  0
 45112  1  0  0  0
 46113  1  0  0  0
 47114  1  0  0  0
 47115  1  0  0  0
 48 56  1  0  0  0
 48 65  1  0  0  0
 48116  1  0  0  0
 49 50  1  0  0  0
 49 53  1  0  0  0
 49 64  1  0  0  0
 49117  1  0  0  0
 50 51  1  0  0  0
 50118  1  0  0  0
 50119  1  0  0  0
 51 52  1  0  0  0
 51120  1  0  0  0
 51121  1  0  0  0
 52122  1  0  0  0
 52123  1  0  0  0
 53 54  1  0  0  0
 54 55  2  0  0  0
 54124  1  0  0  0
 55 57  1  0  0  0
 55125  1  0  0  0
 56 69  2  0  0  0
 57 58  2  0  0  0
 57126  1  0  0  0
 58127  1  0  0  0
 59 60  1  0  0  0
 59 61  1  0  0  0
 59 62  1  0  0  0
 60128  1  0  0  0
 60129  1  0  0  0
 60130  1  0  0  0
 61131  1  0  0  0
 61132  1  0  0  0
 61133  1  0  0  0
 62134  1  0  0  0
 62135  1  0  0  0
 62136  1  0  0  0
 63 65  1  0  0  0
 63137  1  0  0  0
 63138  1  0  0  0
 63139  1  0  0  0
 64140  1  0  0  0
 65141  1  0  0  0
 68 78  1  0  0  0
 71 73  2  0  0  0
 71 82  1  0  0  0
 71142  1  0  0  0
 72 81  2  0  0  0
 72 82  1  0  0  0
 72143  1  0  0  0
 73 81  1  0  0  0
 74144  1  0  0  0
 74145  1  0  0  0
 74146  1  0  0  0
 74 79  1  0  0  0
 75 79  1  0  0  0
 75147  1  0  0  0
 75148  1  0  0  0
 75149  1  0  0  0
 76150  1  0  0  0
 76151  1  0  0  0
 76152  1  0  0  0
 76 80  1  0  0  0
 77 80  1  0  0  0
 77153  1  0  0  0
 77154  1  0  0  0
 77155  1  0  0  0
 78 79  1  0  0  0
 78156  1  0  0  0
 78157  1  0  0  0
 79 80  1  0  0  0
 80 82  1  0  0  0
M  ISO  4   1 100  68 101  73 100  78 101
M  END
> <chiral flag>
0

> <version>
0

> <s_m_source_file>
/data/baiqing/PycharmProjects/Reinvent-master-3.2/result/LINK_invent/BTK/process_docking_weight1_custom_sum_contain_oxygen_bond_distance_aromatic_linkinvent_7_9_3/rearranged_h_0063.sdf

> <i_m_source_file_index>
23

> <r_mmod_Potential_Energy-OPLS-2005>
1535.79528808594

> <r_mmod_Stretch_Energy-OPLS-2005>
649.735961914062

> <r_mmod_Bend_Energy-OPLS-2005>
475.362457275391

> <r_mmod_Torsional_Energy-OPLS-2005>
286.317962646484

> <r_mmod_Improper_Torsional_Energy-OPLS-2005>
6.42259550094604

> <r_mmod_Van_der_Waal_Energy-OPLS-2005>
100.410575866699

> <r_mmod_Electrostatic_Energy-OPLS-2005>
-268.387542724609

> <r_mmod_Solvation_Energy-OPLS-2005>
-189.626922607422

> <b_mmod_Minimization_Converged-OPLS-2005>
0

> <r_mmod_RMS_Derivative-OPLS-2005>
0.841915130615234

$$$$
25
                    3D
 Structure written by MMmdl.
187195  0  0  1  0            999 V2000
  -30.7214  -14.4497   20.6602 C   0  0  0  0  0  0
  -30.4253  -12.3217   19.4183 C   0  0  0  0  0  0
  -29.4944  -12.5003   18.2034 C   0  0  0  0  0  0
  -28.0151  -12.3503   18.6117 C   0  0  0  0  0  0
  -27.6592  -13.1872   19.8652 C   0  0  2  0  0  0
  -28.7002  -12.9443   20.9814 C   0  0  0  0  0  0
  -25.2608  -13.8117   20.5640 C   0  0  0  0  0  0
  -24.1851  -13.0422   20.9187 C   0  0  0  0  0  0
  -24.6379  -11.6879   20.8741 C   0  0  0  0  0  0
  -23.9036  -10.4282   21.0418 C   0  0  0  0  0  0
  -24.3595   -9.4200   21.9193 C   0  0  0  0  0  0
  -23.6280   -8.2232   22.0754 C   0  0  0  0  0  0
  -22.4264   -8.0271   21.3541 C   0  0  0  0  0  0
  -21.9895   -9.0242   20.4648 C   0  0  0  0  0  0
  -22.7213  -10.2129   20.3062 C   0  0  0  0  0  0
  -21.6850   -6.0727   22.5273 C   0  0  0  0  0  0
  -21.4016   -6.5632   23.8205 C   0  0  0  0  0  0
  -21.3664   -5.6789   24.9170 C   0  0  0  0  0  0
  -21.6040   -4.3050   24.7225 C   0  0  0  0  0  0
  -21.8823   -3.8138   23.4346 C   0  0  0  0  0  0
  -21.9193   -4.6955   22.3399 C   0  0  0  0  0  0
  -22.7883  -13.5243   21.1859 C   0  0  0  0  0  0
  -22.1662   -4.2138   21.0980 F   0  0  0  0  0  0
  -21.5633   -3.4535   25.7740 F   0  0  0  0  0  0
  -30.0285  -13.2902   20.4579 N   0  0  0  0  0  0
  -26.3002  -12.9237   20.3288 N   0  0  0  0  0  0
  -25.9287  -11.6424   20.5737 N   0  0  0  0  0  0
  -22.0523  -12.8228   22.0414 N   0  0  0  0  0  0
  -25.4350  -15.1826   20.3996 N   0  0  0  0  0  0
  -31.7793  -14.6767   20.0615 O   0  0  0  0  0  0
  -21.6634   -6.8863   21.4231 O   0  0  0  0  0  0
  -22.3580  -14.5563   20.6732 O   0  0  0  0  0  0
  -24.6129  -31.8697   23.2098 C   0  0  0  0  0  0
  -25.9029  -32.4835   23.8394 C   0  0  1  0  0  0
  -27.2317  -27.4428   20.0998 C   0  0  0  0  0  0
  -25.5906  -33.8630   24.2331 N   0  0  0  0  0  0
  -23.4007  -30.4910   21.5508 C   0  0  2  0  0  0
  -24.8471  -28.9590   20.1137 C   0  0  0  0  0  0
  -22.7408  -29.4641   22.4988 C   0  0  0  0  0  0
  -18.0271  -28.1372   22.8478 C   0  0  0  0  0  0
  -24.1491  -36.7315   23.2639 C   0  0  0  0  0  0
  -25.9278  -30.8379   21.3611 C   0  0  0  0  0  0
  -26.0066  -29.4741   20.7067 C   0  0  0  0  0  0
  -27.2045  -28.7249   20.6920 C   0  0  0  0  0  0
  -26.0564  -26.9399   19.4998 C   0  0  0  0  0  0
  -24.8658  -27.6911   19.5067 C   0  0  0  0  0  0
  -23.6087  -29.8239   20.1644 C   0  0  0  0  0  0
  -25.4114  -36.3118   24.0337 C   0  0  1  0  0  0
  -20.5860  -28.3653   23.1324 C   0  0  2  0  0  0
  -20.6768  -26.9394   22.5418 C   0  0  0  0  0  0
  -19.5753  -26.6379   21.5206 C   0  0  0  0  0  0
  -18.1923  -26.7919   22.1606 C   0  0  0  0  0  0
  -19.1521  -28.8827   23.2896 C   0  0  0  0  0  0
  -18.9454  -30.1436   23.8902 C   0  0  0  0  0  0
  -17.6460  -30.6581   24.0563 C   0  0  0  0  0  0
  -25.9037  -34.9482   23.5128 C   0  0  0  0  0  0
  -16.5348  -29.9079   23.6325 C   0  0  0  0  0  0
  -16.7263  -28.6499   23.0335 C   0  0  0  0  0  0
  -26.4462  -31.6612   25.0715 C   0  0  0  0  0  0
  -25.3740  -31.3715   26.1476 C   0  0  0  0  0  0
  -27.0301  -30.3064   24.6059 C   0  0  0  0  0  0
  -27.6037  -32.4333   25.7485 C   0  0  0  0  0  0
  -27.5586  -37.1811   24.8465 C   0  0  0  0  0  0
  -21.4136  -29.3027   22.3738 N   0  0  0  0  0  0
  -26.4302  -37.3801   23.9409 N   0  0  0  0  0  0
  -24.6656  -31.0795   22.0996 N   0  0  0  0  0  0
  -23.4184  -28.8171   23.3019 O   0  0  0  0  0  0
  -28.3940  -26.7037   20.1143 O   0  0  0  0  0  0
  -26.5597  -34.8930   22.4685 O   0  0  0  0  0  0
  -23.5325  -32.1438   23.7497 O   0  0  0  0  0  0
  -29.7495  -19.5251   20.1706 C   0  0  0  0  0  0
  -29.6690  -19.8039   21.5105 C   0  0  0  0  0  0
  -29.4117  -17.5865   21.2224 C   0  0  0  0  0  0
  -28.2219  -16.0501   22.8459 C   0  0  0  0  0  0
  -29.1907  -17.7666   15.6235 C   0  0  0  0  0  0
  -26.7134  -17.8406   15.9521 C   0  0  0  0  0  0
  -27.9767  -15.7703   16.5545 C   0  0  0  0  0  0
  -28.0625  -23.6732   23.1349 C   0  0  0  0  0  0
  -30.5521  -23.7907   23.3223 C   0  0  0  0  0  0
  -31.3772  -15.8318   22.5223 C   0  0  0  0  0  0
  -29.7284  -21.0841   22.2979 C   0  0  0  0  0  0
  -29.5109  -22.3855   21.4730 C   0  0  0  0  0  0
  -28.1966  -17.8709   17.9674 C   0  0  0  0  0  0
  -29.4485  -24.9844   21.4445 C   0  0  0  0  0  0
  -29.4893  -17.4848   18.7196 C   0  0  0  0  0  0
  -28.2589  -25.3331   20.5232 C   0  0  0  0  0  0
  -29.0991  -16.1353   21.5705 C   0  0  2  0  0  0
  -28.0355  -17.3070   16.5343 C   0  0  0  0  0  0
  -29.3772  -23.6926   22.3224 C   0  0  0  0  0  0
  -29.5627  -18.1715   20.0165 N   0  0  0  0  0  0
  -29.5035  -18.5825   22.1176 N   0  3  0  0  0  0
  -30.3167  -15.2784   21.6665 N   0  0  0  0  0  0
  -31.4669  -12.4332   19.1141 H   0  0  0  0  0  0
  -30.3464  -11.3053   19.8076 H   0  0  0  0  0  0
  -29.7420  -11.7722   17.4298 H   0  0  0  0  0  0
  -29.6643  -13.4800   17.7616 H   0  0  0  0  0  0
  -27.8332  -11.2938   18.8118 H   0  0  0  0  0  0
  -27.3628  -12.6180   17.7795 H   0  0  0  0  0  0
  -27.6996  -14.2258   19.5483 H   0  0  0  0  0  0
  -28.6889  -11.8937   21.2760 H   0  0  0  0  0  0
  -28.4515  -13.4739   21.8897 H   0  0  0  0  0  0
  -25.2743   -9.5679   22.4764 H   0  0  0  0  0  0
  -23.9993   -7.4622   22.7469 H   0  0  0  0  0  0
  -21.0828   -8.8755   19.8950 H   0  0  0  0  0  0
  -22.3672  -10.9667   19.6170 H   0  0  0  0  0  0
  -21.2009   -7.6140   23.9703 H   0  0  0  0  0  0
  -21.1486   -6.0522   25.9073 H   0  0  0  0  0  0
  -22.0602   -2.7599   23.2848 H   0  0  0  0  0  0
  -22.4127  -11.9857   22.4752 H   0  0  0  0  0  0
  -21.1154  -13.1268   22.2654 H   0  0  0  0  0  0
  -24.6567  -15.8262   20.4852 H   0  0  0  0  0  0
  -26.2551  -15.6067   19.9907 H   0  0  0  0  0  0
  -26.7104  -32.5554   23.1167 H   0  0  0  0  0  0
  -25.0096  -33.9810   25.0497 H   0  0  0  0  0  0
  -22.6880  -31.3067   21.4133 H   0  0  0  0  0  0
  -23.3758  -35.9645   23.3314 H   0  0  0  0  0  0
  -24.3583  -36.8914   22.2050 H   0  0  0  0  0  0
  -23.7233  -37.6517   23.6642 H   0  0  0  0  0  0
  -26.0381  -31.6066   20.5952 H   0  0  0  0  0  0
  -26.8162  -30.8918   21.9785 H   0  0  0  0  0  0
  -28.1006  -29.1145   21.1548 H   0  0  0  0  0  0
  -26.0573  -25.9686   19.0264 H   0  0  0  0  0  0
  -23.9740  -27.2878   19.0467 H   0  0  0  0  0  0
  -23.7176  -30.6014   19.4072 H   0  0  0  0  0  0
  -22.7333  -29.2443   19.8662 H   0  0  0  0  0  0
  -25.1286  -36.1993   25.0830 H   0  0  0  0  0  0
  -20.9935  -28.3217   24.1453 H   0  0  0  0  0  0
  -20.5675  -26.2259   23.3600 H   0  0  0  0  0  0
  -21.6642  -26.7458   22.1212 H   0  0  0  0  0  0
  -19.6934  -25.6287   21.1237 H   0  0  0  0  0  0
  -19.6706  -27.3192   20.6733 H   0  0  0  0  0  0
  -17.4202  -26.6666   21.3999 H   0  0  0  0  0  0
  -18.0324  -26.0056   22.8994 H   0  0  0  0  0  0
  -19.7940  -30.7237   24.2276 H   0  0  0  0  0  0
  -17.5030  -31.6265   24.5165 H   0  0  0  0  0  0
  -15.5352  -30.2995   23.7653 H   0  0  0  0  0  0
  -15.8659  -28.0839   22.7033 H   0  0  0  0  0  0
  -24.5913  -30.7055   25.7819 H   0  0  0  0  0  0
  -24.8937  -32.2877   26.4920 H   0  0  0  0  0  0
  -25.8111  -30.8893   27.0233 H   0  0  0  0  0  0
  -26.2833  -29.6833   24.1121 H   0  0  0  0  0  0
  -27.4110  -29.7276   25.4487 H   0  0  0  0  0  0
  -27.8649  -30.4406   23.9178 H   0  0  0  0  0  0
  -27.2642  -33.3617   26.2088 H   0  0  0  0  0  0
  -28.3835  -32.6923   25.0312 H   0  0  0  0  0  0
  -28.0722  -31.8454   26.5385 H   0  0  0  0  0  0
  -28.2603  -38.0111   24.7520 H   0  0  0  0  0  0
  -28.1086  -36.2639   24.6285 H   0  0  0  0  0  0
  -27.2310  -37.1454   25.8872 H   0  0  0  0  0  0
  -20.9285  -29.8764   21.6984 H   0  0  0  0  0  0
  -26.0197  -38.2883   24.1409 H   0  0  0  0  0  0
  -29.8843  -20.1862   19.3246 H   0  0  0  0  0  0
  -27.2974  -16.6127   22.7095 H   0  0  0  0  0  0
  -28.7222  -16.4607   23.7222 H   0  0  0  0  0  0
  -27.9244  -15.0404   23.1139 H   0  0  0  0  0  0
  -29.0250  -17.4618   14.5897 H   0  0  0  0  0  0
  -30.1467  -17.3394   15.9268 H   0  0  0  0  0  0
  -29.2984  -18.8520   15.6294 H   0  0  0  0  0  0
  -26.5425  -17.4717   14.9405 H   0  0  0  0  0  0
  -26.7082  -18.9303   15.9042 H   0  0  0  0  0  0
  -25.8581  -17.5371   16.5572 H   0  0  0  0  0  0
  -27.7572  -15.3677   15.5649 H   0  0  0  0  0  0
  -27.2070  -15.4029   17.2344 H   0  0  0  0  0  0
  -28.9291  -15.3460   16.8640 H   0  0  0  0  0  0
  -28.0813  -22.9264   23.9286 H   0  0  0  0  0  0
  -27.1994  -23.4436   22.5094 H   0  0  0  0  0  0
  -27.8746  -24.6354   23.6140 H   0  0  0  0  0  0
  -30.5474  -22.9813   24.0519 H   0  0  0  0  0  0
  -30.5107  -24.7154   23.8992 H   0  0  0  0  0  0
  -31.5148  -23.7700   22.8097 H   0  0  0  0  0  0
  -30.9860  -16.2085   23.4661 H   0  0  0  0  0  0
  -31.9073  -16.6440   22.0221 H   0  0  0  0  0  0
  -32.1160  -15.0682   22.7748 H   0  0  0  0  0  0
  -30.7007  -21.1134   22.7901 H   0  0  0  0  0  0
  -28.9831  -21.0190   23.0904 H   0  0  0  0  0  0
  -28.6134  -22.2746   20.8622 H   0  0  0  0  0  0
  -30.3391  -22.4891   20.7712 H   0  0  0  0  0  0
  -28.1381  -18.9595   17.9146 H   0  0  0  0  0  0
  -27.3409  -17.5653   18.5715 H   0  0  0  0  0  0
  -29.5646  -25.8350   22.1179 H   0  0  0  0  0  0
  -30.3597  -24.9716   20.8442 H   0  0  0  0  0  0
  -30.3745  -17.7832   18.1590 H   0  0  0  0  0  0
  -29.5612  -16.4092   18.8651 H   0  0  0  0  0  0
  -27.3223  -25.1859   21.0630 H   0  0  0  0  0  0
  -28.2355  -24.6813   19.6492 H   0  0  0  0  0  0
  -28.4776  -15.7982   20.7476 H   0  0  0  0  0  0
  -29.4079  -18.4479   23.1176 H   0  0  0  0  0  0
  1 25  1  0  0  0
  1 30  2  0  0  0
  1 92  1  0  0  0
  2  3  1  0  0  0
  2 25  1  0  0  0
  2 93  1  0  0  0
  2 94  1  0  0  0
  3  4  1  0  0  0
  3 95  1  0  0  0
  3 96  1  0  0  0
  4  5  1  0  0  0
  4 97  1  0  0  0
  4 98  1  0  0  0
  5  6  1  0  0  0
  5 26  1  0  0  0
  5 99  1  0  0  0
  6 25  1  0  0  0
  6100  1  0  0  0
  6101  1  0  0  0
  7  8  2  0  0  0
  7 26  1  0  0  0
  7 29  1  0  0  0
  8  9  1  0  0  0
  8 22  1  0  0  0
  9 10  1  0  0  0
  9 27  2  0  0  0
 10 11  2  0  0  0
 10 15  1  0  0  0
 11 12  1  0  0  0
 11102  1  0  0  0
 12 13  2  0  0  0
 12103  1  0  0  0
 13 14  1  0  0  0
 13 31  1  0  0  0
 14 15  2  0  0  0
 14104  1  0  0  0
 15105  1  0  0  0
 16 17  2  0  0  0
 16 21  1  0  0  0
 16 31  1  0  0  0
 17 18  1  0  0  0
 17106  1  0  0  0
 18 19  2  0  0  0
 18107  1  0  0  0
 19 20  1  0  0  0
 19 24  1  0  0  0
 20 21  2  0  0  0
 20108  1  0  0  0
 21 23  1  0  0  0
 22 28  1  0  0  0
 22 32  2  0  0  0
 26 27  1  0  0  0
 28109  1  0  0  0
 28110  1  0  0  0
 29111  1  0  0  0
 29112  1  0  0  0
 33 34  1  0  0  0
 33 66  1  0  0  0
 33 70  2  0  0  0
 34 36  1  0  0  0
 34 59  1  0  0  0
 34113  1  0  0  0
 35 44  2  0  0  0
 35 45  1  0  0  0
 35 68  1  0  0  0
 36 56  1  0  0  0
 36114  1  0  0  0
 37 39  1  0  0  0
 37 47  1  0  0  0
 37 66  1  0  0  0
 37115  1  0  0  0
 38 43  2  0  0  0
 38 46  1  0  0  0
 38 47  1  0  0  0
 39 64  1  0  0  0
 39 67  2  0  0  0
 40 52  1  0  0  0
 40 53  2  0  0  0
 40 58  1  0  0  0
 41116  1  0  0  0
 41117  1  0  0  0
 41118  1  0  0  0
 41 48  1  0  0  0
 42 43  1  0  0  0
 42 66  1  0  0  0
 42119  1  0  0  0
 42120  1  0  0  0
 43 44  1  0  0  0
 44121  1  0  0  0
 45 46  2  0  0  0
 45122  1  0  0  0
 46123  1  0  0  0
 47124  1  0  0  0
 47125  1  0  0  0
 48 56  1  0  0  0
 48 65  1  0  0  0
 48126  1  0  0  0
 49 50  1  0  0  0
 49 53  1  0  0  0
 49 64  1  0  0  0
 49127  1  0  0  0
 50 51  1  0  0  0
 50128  1  0  0  0
 50129  1  0  0  0
 51 52  1  0  0  0
 51130  1  0  0  0
 51131  1  0  0  0
 52132  1  0  0  0
 52133  1  0  0  0
 53 54  1  0  0  0
 54 55  2  0  0  0
 54134  1  0  0  0
 55 57  1  0  0  0
 55135  1  0  0  0
 56 69  2  0  0  0
 57 58  2  0  0  0
 57136  1  0  0  0
 58137  1  0  0  0
 59 60  1  0  0  0
 59 61  1  0  0  0
 59 62  1  0  0  0
 60138  1  0  0  0
 60139  1  0  0  0
 60140  1  0  0  0
 61141  1  0  0  0
 61142  1  0  0  0
 61143  1  0  0  0
 62144  1  0  0  0
 62145  1  0  0  0
 62146  1  0  0  0
 63 65  1  0  0  0
 63147  1  0  0  0
 63148  1  0  0  0
 63149  1  0  0  0
 64150  1  0  0  0
 65151  1  0  0  0
 68 86  1  0  0  0
 71 72  2  0  0  0
 71 90  1  0  0  0
 71152  1  0  0  0
 72 81  1  0  0  0
 72 91  1  0  0  0
 73 87  1  0  0  0
 73 90  1  0  0  0
 73 91  2  0  0  0
 74153  1  0  0  0
 74154  1  0  0  0
 74155  1  0  0  0
 74 87  1  0  0  0
 75156  1  0  0  0
 75157  1  0  0  0
 75158  1  0  0  0
 75 88  1  0  0  0
 76 88  1  0  0  0
 76159  1  0  0  0
 76160  1  0  0  0
 76161  1  0  0  0
 77 88  1  0  0  0
 77162  1  0  0  0
 77163  1  0  0  0
 77164  1  0  0  0
 78165  1  0  0  0
 78166  1  0  0  0
 78167  1  0  0  0
 78 89  1  0  0  0
 79 89  1  0  0  0
 79168  1  0  0  0
 79169  1  0  0  0
 79170  1  0  0  0
 80 92  1  0  0  0
 80171  1  0  0  0
 80172  1  0  0  0
 80173  1  0  0  0
 81 82  1  0  0  0
 81174  1  0  0  0
 81175  1  0  0  0
 82 89  1  0  0  0
 82176  1  0  0  0
 82177  1  0  0  0
 83 85  1  0  0  0
 83 88  1  0  0  0
 83178  1  0  0  0
 83179  1  0  0  0
 84 86  1  0  0  0
 84 89  1  0  0  0
 84180  1  0  0  0
 84181  1  0  0  0
 85 90  1  0  0  0
 85182  1  0  0  0
 85183  1  0  0  0
 86184  1  0  0  0
 86185  1  0  0  0
 87 92  1  0  0  0
 87186  1  0  0  0
 91187  1  0  0  0
M  CHG  1  91   1
M  ISO  4   1 100  68 101  86 101  92 100
M  END
> <chiral flag>
0

> <version>
0

> <s_m_source_file>
/data/baiqing/PycharmProjects/Reinvent-master-3.2/result/LINK_invent/BTK/process_docking_weight1_custom_sum_contain_oxygen_bond_distance_aromatic_linkinvent_7_9_3/rearranged_h_0063.sdf

> <i_m_source_file_index>
24

> <r_mmod_Potential_Energy-OPLS-2005>
89.8817443847656

> <r_mmod_Stretch_Energy-OPLS-2005>
44.6068649291992

> <r_mmod_Bend_Energy-OPLS-2005>
122.853401184082

> <r_mmod_Torsional_Energy-OPLS-2005>
318.217681884766

> <r_mmod_Improper_Torsional_Energy-OPLS-2005>
6.32119417190552

> <r_mmod_Van_der_Waal_Energy-OPLS-2005>
122.882965087891

> <r_mmod_Electrostatic_Energy-OPLS-2005>
-160.680252075195

> <r_mmod_Solvation_Energy-OPLS-2005>
-375.175537109375

> <b_mmod_Minimization_Converged-OPLS-2005>
0

> <r_mmod_RMS_Derivative-OPLS-2005>
1.37111914157867

$$$$
26
                    3D
 Structure written by MMmdl.
158166  0  0  1  0            999 V2000
  -30.7241  -14.7424   20.2478 C   0  0  0  0  0  0
  -30.4243  -12.4276   19.4378 C   0  0  0  0  0  0
  -29.4831  -12.3427   18.2213 C   0  0  0  0  0  0
  -28.0169  -12.1932   18.6735 C   0  0  0  0  0  0
  -27.6121  -13.1555   19.8175 C   0  0  2  0  0  0
  -28.6996  -13.2865   20.9097 C   0  0  0  0  0  0
  -25.2527  -13.7962   20.5833 C   0  0  0  0  0  0
  -24.1748  -13.0319   20.9303 C   0  0  0  0  0  0
  -24.6267  -11.6779   20.8884 C   0  0  0  0  0  0
  -23.8944  -10.4213   21.0492 C   0  0  0  0  0  0
  -24.3535   -9.4132   21.9238 C   0  0  0  0  0  0
  -23.6234   -8.2163   22.0766 C   0  0  0  0  0  0
  -22.4223   -8.0224   21.3541 C   0  0  0  0  0  0
  -21.9847   -9.0197   20.4650 C   0  0  0  0  0  0
  -22.7153  -10.2085   20.3094 C   0  0  0  0  0  0
  -21.6821   -6.0705   22.5280 C   0  0  0  0  0  0
  -21.3988   -6.5621   23.8210 C   0  0  0  0  0  0
  -21.3651   -5.6782   24.9178 C   0  0  0  0  0  0
  -21.6045   -4.3045   24.7234 C   0  0  0  0  0  0
  -21.8823   -3.8130   23.4358 C   0  0  0  0  0  0
  -21.9183   -4.6939   22.3409 C   0  0  0  0  0  0
  -22.7794  -13.5195   21.1896 C   0  0  0  0  0  0
  -22.1659   -4.2126   21.0988 F   0  0  0  0  0  0
  -21.5634   -3.4535   25.7751 F   0  0  0  0  0  0
  -29.9859  -13.5759   20.2518 N   0  0  0  0  0  0
  -26.2846  -12.8987   20.3434 N   0  0  0  0  0  0
  -25.9175  -11.6236   20.5975 N   0  0  0  0  0  0
  -22.0391  -12.8226   22.0442 N   0  0  0  0  0  0
  -25.4278  -15.1674   20.4256 N   0  0  0  0  0  0
  -31.9207  -14.6350   20.5012 O   0  0  0  0  0  0
  -21.6592   -6.8828   21.4234 O   0  0  0  0  0  0
  -22.3536  -14.5510   20.6713 O   0  0  0  0  0  0
  -24.6217  -31.8626   23.2054 C   0  0  0  0  0  0
  -25.9081  -32.4795   23.8372 C   0  0  1  0  0  0
  -27.2345  -27.3593   20.1184 C   0  0  0  0  0  0
  -25.5912  -33.8595   24.2300 N   0  0  0  0  0  0
  -23.4141  -30.4858   21.5466 C   0  0  2  0  0  0
  -24.8628  -28.9463   20.1107 C   0  0  0  0  0  0
  -22.7453  -29.4633   22.4953 C   0  0  0  0  0  0
  -18.0281  -28.1382   22.8491 C   0  0  0  0  0  0
  -24.1487  -36.7303   23.2639 C   0  0  0  0  0  0
  -25.9505  -30.8067   21.3705 C   0  0  0  0  0  0
  -26.0270  -29.4368   20.7146 C   0  0  0  0  0  0
  -27.2138  -28.6538   20.7107 C   0  0  0  0  0  0
  -26.0500  -26.9143   19.4839 C   0  0  0  0  0  0
  -24.8743  -27.6887   19.4870 C   0  0  0  0  0  0
  -23.6270  -29.8197   20.1612 C   0  0  0  0  0  0
  -25.4110  -36.3095   24.0333 C   0  0  1  0  0  0
  -20.5879  -28.3679   23.1298 C   0  0  2  0  0  0
  -20.6771  -26.9407   22.5415 C   0  0  0  0  0  0
  -19.5747  -26.6384   21.5216 C   0  0  0  0  0  0
  -18.1926  -26.7927   22.1626 C   0  0  0  0  0  0
  -19.1533  -28.8847   23.2891 C   0  0  0  0  0  0
  -18.9458  -30.1451   23.8904 C   0  0  0  0  0  0
  -17.6458  -30.6586   24.0565 C   0  0  0  0  0  0
  -25.9042  -34.9461   23.5116 C   0  0  0  0  0  0
  -16.5349  -29.9086   23.6329 C   0  0  0  0  0  0
  -16.7269  -28.6503   23.0351 C   0  0  0  0  0  0
  -26.4484  -31.6593   25.0726 C   0  0  0  0  0  0
  -25.3731  -31.3717   26.1462 C   0  0  0  0  0  0
  -27.0323  -30.3026   24.6147 C   0  0  0  0  0  0
  -27.6049  -32.4323   25.7492 C   0  0  0  0  0  0
  -27.5579  -37.1806   24.8465 C   0  0  0  0  0  0
  -21.4172  -29.3037   22.3696 N   0  0  0  0  0  0
  -26.4292  -37.3784   23.9408 N   0  0  0  0  0  0
  -24.6806  -31.0673   22.0984 N   0  0  0  0  0  0
  -23.4194  -28.8176   23.3022 O   0  0  0  0  0  0
  -28.3744  -26.5526   20.1866 O   0  0  0  0  0  0
  -26.5609  -34.8922   22.4681 O   0  0  0  0  0  0
  -23.5391  -32.1404   23.7408 O   0  0  0  0  0  0
  -29.7138  -19.1644   21.7871 C   0  0  0  0  0  0
  -29.8753  -17.7952   21.4237 C   0  0  0  0  0  0
  -30.2156  -20.1753   20.9272 C   0  0  0  0  0  0
  -30.5345  -17.4795   20.2044 C   0  0  0  0  0  0
  -30.1461  -21.6969   21.2558 C   0  0  0  0  0  0
  -29.1792  -22.6227   20.4216 C   0  0  0  0  0  0
  -29.3130  -24.1821   20.6698 C   0  0  0  0  0  0
  -28.2182  -25.1045   20.0140 C   0  0  0  0  0  0
  -30.3561  -16.1042   19.4342 C   0  0  0  0  0  0
  -28.9130  -16.2136   18.8646 C   0  0  0  0  0  0
  -31.3359  -16.0780   18.1876 C   0  0  0  0  0  0
  -30.8954  -19.8174   19.8119 N   0  0  0  0  0  0
  -31.0334  -18.5250   19.4702 N   0  0  0  0  0  0
  -28.6694  -17.3876   18.2748 F   0  0  0  0  0  0
  -28.6570  -15.2976   17.9361 F   0  0  0  0  0  0
  -28.0292  -16.1294   19.8595 F   0  0  0  0  0  0
  -32.6096  -16.3143   18.5245 F   0  0  0  0  0  0
  -31.3337  -14.8893   17.5781 F   0  0  0  0  0  0
  -31.0171  -16.9580   17.2329 F   0  0  0  0  0  0
  -31.4586  -12.5274   19.1022 H   0  0  0  0  0  0
  -30.3848  -11.5082   20.0246 H   0  0  0  0  0  0
  -29.7583  -11.4810   17.6116 H   0  0  0  0  0  0
  -29.6000  -13.1980   17.5633 H   0  0  0  0  0  0
  -27.8968  -11.1638   19.0130 H   0  0  0  0  0  0
  -27.3432  -12.3066   17.8233 H   0  0  0  0  0  0
  -27.4765  -14.0836   19.3095 H   0  0  0  0  0  0
  -28.7717  -12.3675   21.4935 H   0  0  0  0  0  0
  -28.4421  -14.0810   21.6120 H   0  0  0  0  0  0
  -25.2677   -9.5611   22.4818 H   0  0  0  0  0  0
  -23.9946   -7.4540   22.7467 H   0  0  0  0  0  0
  -21.0786   -8.8711   19.8945 H   0  0  0  0  0  0
  -22.3624  -10.9639   19.6214 H   0  0  0  0  0  0
  -21.1969   -7.6128   23.9706 H   0  0  0  0  0  0
  -21.1473   -6.0515   25.9080 H   0  0  0  0  0  0
  -22.0613   -2.7593   23.2867 H   0  0  0  0  0  0
  -22.3967  -11.9885   22.4856 H   0  0  0  0  0  0
  -21.1016  -13.1291   22.2619 H   0  0  0  0  0  0
  -24.6711  -15.8287   20.5564 H   0  0  0  0  0  0
  -26.3050  -15.6120   20.1796 H   0  0  0  0  0  0
  -26.7151  -32.5483   23.1128 H   0  0  0  0  0  0
  -25.0065  -33.9747   25.0447 H   0  0  0  0  0  0
  -22.7059  -31.3048   21.4047 H   0  0  0  0  0  0
  -23.3746  -35.9639   23.3309 H   0  0  0  0  0  0
  -24.3580  -36.8913   22.2052 H   0  0  0  0  0  0
  -23.7244  -37.6511   23.6651 H   0  0  0  0  0  0
  -26.0748  -31.5713   20.6024 H   0  0  0  0  0  0
  -26.8336  -30.8573   21.9957 H   0  0  0  0  0  0
  -28.1067  -29.0254   21.1939 H   0  0  0  0  0  0
  -26.0086  -25.9565   18.9865 H   0  0  0  0  0  0
  -23.9828  -27.3083   19.0074 H   0  0  0  0  0  0
  -23.7404  -30.5957   19.4034 H   0  0  0  0  0  0
  -22.7492  -29.2440   19.8619 H   0  0  0  0  0  0
  -25.1288  -36.1955   25.0827 H   0  0  0  0  0  0
  -20.9971  -28.3250   24.1418 H   0  0  0  0  0  0
  -20.5678  -26.2286   23.3608 H   0  0  0  0  0  0
  -21.6639  -26.7444   22.1203 H   0  0  0  0  0  0
  -19.6910  -25.6297   21.1238 H   0  0  0  0  0  0
  -19.6686  -27.3201   20.6752 H   0  0  0  0  0  0
  -17.4197  -26.6678   21.4027 H   0  0  0  0  0  0
  -18.0325  -26.0066   22.9019 H   0  0  0  0  0  0
  -19.7934  -30.7266   24.2273 H   0  0  0  0  0  0
  -17.5013  -31.6267   24.5165 H   0  0  0  0  0  0
  -15.5350  -30.2990   23.7650 H   0  0  0  0  0  0
  -15.8669  -28.0825   22.7062 H   0  0  0  0  0  0
  -24.5906  -30.7064   25.7797 H   0  0  0  0  0  0
  -24.8921  -32.2878   26.4900 H   0  0  0  0  0  0
  -25.8069  -30.8892   27.0229 H   0  0  0  0  0  0
  -26.2887  -29.6783   24.1179 H   0  0  0  0  0  0
  -27.4051  -29.7271   25.4631 H   0  0  0  0  0  0
  -27.8742  -30.4330   23.9342 H   0  0  0  0  0  0
  -27.2661  -33.3618   26.2081 H   0  0  0  0  0  0
  -28.3853  -32.6892   25.0316 H   0  0  0  0  0  0
  -28.0725  -31.8442   26.5400 H   0  0  0  0  0  0
  -28.2601  -38.0099   24.7508 H   0  0  0  0  0  0
  -28.1070  -36.2631   24.6296 H   0  0  0  0  0  0
  -27.2297  -37.1462   25.8869 H   0  0  0  0  0  0
  -20.9341  -29.8760   21.6912 H   0  0  0  0  0  0
  -26.0179  -38.2863   24.1404 H   0  0  0  0  0  0
  -29.1931  -19.4314   22.6956 H   0  0  0  0  0  0
  -29.4175  -17.0228   22.0254 H   0  0  0  0  0  0
  -31.1608  -22.0840   21.1577 H   0  0  0  0  0  0
  -29.9028  -21.8009   22.3135 H   0  0  0  0  0  0
  -28.1525  -22.3136   20.6204 H   0  0  0  0  0  0
  -29.3450  -22.4323   19.3606 H   0  0  0  0  0  0
  -30.2952  -24.5061   20.3246 H   0  0  0  0  0  0
  -29.3037  -24.3645   21.7449 H   0  0  0  0  0  0
  -27.2635  -24.7858   20.4350 H   0  0  0  0  0  0
  -28.1739  -24.8960   18.9443 H   0  0  0  0  0  0
  1 25  1  0  0  0
  1 30  2  0  0  0
  1 79  1  0  0  0
  2  3  1  0  0  0
  2 25  1  0  0  0
  2 90  1  0  0  0
  2 91  1  0  0  0
  3  4  1  0  0  0
  3 92  1  0  0  0
  3 93  1  0  0  0
  4  5  1  0  0  0
  4 94  1  0  0  0
  4 95  1  0  0  0
  5  6  1  0  0  0
  5 26  1  0  0  0
  5 96  1  0  0  0
  6 25  1  0  0  0
  6 97  1  0  0  0
  6 98  1  0  0  0
  7  8  2  0  0  0
  7 26  1  0  0  0
  7 29  1  0  0  0
  8  9  1  0  0  0
  8 22  1  0  0  0
  9 10  1  0  0  0
  9 27  2  0  0  0
 10 11  2  0  0  0
 10 15  1  0  0  0
 11 12  1  0  0  0
 11 99  1  0  0  0
 12 13  2  0  0  0
 12100  1  0  0  0
 13 14  1  0  0  0
 13 31  1  0  0  0
 14 15  2  0  0  0
 14101  1  0  0  0
 15102  1  0  0  0
 16 17  2  0  0  0
 16 21  1  0  0  0
 16 31  1  0  0  0
 17 18  1  0  0  0
 17103  1  0  0  0
 18 19  2  0  0  0
 18104  1  0  0  0
 19 20  1  0  0  0
 19 24  1  0  0  0
 20 21  2  0  0  0
 20105  1  0  0  0
 21 23  1  0  0  0
 22 28  1  0  0  0
 22 32  2  0  0  0
 26 27  1  0  0  0
 28106  1  0  0  0
 28107  1  0  0  0
 29108  1  0  0  0
 29109  1  0  0  0
 33 34  1  0  0  0
 33 66  1  0  0  0
 33 70  2  0  0  0
 34 36  1  0  0  0
 34 59  1  0  0  0
 34110  1  0  0  0
 35 44  2  0  0  0
 35 45  1  0  0  0
 35 68  1  0  0  0
 36 56  1  0  0  0
 36111  1  0  0  0
 37 39  1  0  0  0
 37 47  1  0  0  0
 37 66  1  0  0  0
 37112  1  0  0  0
 38 43  2  0  0  0
 38 46  1  0  0  0
 38 47  1  0  0  0
 39 64  1  0  0  0
 39 67  2  0  0  0
 40 52  1  0  0  0
 40 53  2  0  0  0
 40 58  1  0  0  0
 41113  1  0  0  0
 41114  1  0  0  0
 41115  1  0  0  0
 41 48  1  0  0  0
 42 43  1  0  0  0
 42 66  1  0  0  0
 42116  1  0  0  0
 42117  1  0  0  0
 43 44  1  0  0  0
 44118  1  0  0  0
 45 46  2  0  0  0
 45119  1  0  0  0
 46120  1  0  0  0
 47121  1  0  0  0
 47122  1  0  0  0
 48 56  1  0  0  0
 48 65  1  0  0  0
 48123  1  0  0  0
 49 50  1  0  0  0
 49 53  1  0  0  0
 49 64  1  0  0  0
 49124  1  0  0  0
 50 51  1  0  0  0
 50125  1  0  0  0
 50126  1  0  0  0
 51 52  1  0  0  0
 51127  1  0  0  0
 51128  1  0  0  0
 52129  1  0  0  0
 52130  1  0  0  0
 53 54  1  0  0  0
 54 55  2  0  0  0
 54131  1  0  0  0
 55 57  1  0  0  0
 55132  1  0  0  0
 56 69  2  0  0  0
 57 58  2  0  0  0
 57133  1  0  0  0
 58134  1  0  0  0
 59 60  1  0  0  0
 59 61  1  0  0  0
 59 62  1  0  0  0
 60135  1  0  0  0
 60136  1  0  0  0
 60137  1  0  0  0
 61138  1  0  0  0
 61139  1  0  0  0
 61140  1  0  0  0
 62141  1  0  0  0
 62142  1  0  0  0
 62143  1  0  0  0
 63 65  1  0  0  0
 63144  1  0  0  0
 63145  1  0  0  0
 63146  1  0  0  0
 64147  1  0  0  0
 65148  1  0  0  0
 68 78  1  0  0  0
 71 72  2  0  0  0
 71 73  1  0  0  0
 71149  1  0  0  0
 72 74  1  0  0  0
 72150  1  0  0  0
 73 75  1  0  0  0
 73 82  2  0  0  0
 74 79  1  0  0  0
 74 83  2  0  0  0
 75 76  1  0  0  0
 75151  1  0  0  0
 75152  1  0  0  0
 76 77  1  0  0  0
 76153  1  0  0  0
 76154  1  0  0  0
 77 78  1  0  0  0
 77155  1  0  0  0
 77156  1  0  0  0
 78157  1  0  0  0
 78158  1  0  0  0
 79 80  1  0  0  0
 79 81  1  0  0  0
 80 84  1  0  0  0
 80 85  1  0  0  0
 80 86  1  0  0  0
 81 87  1  0  0  0
 81 88  1  0  0  0
 81 89  1  0  0  0
 82 83  1  0  0  0
M  ISO  4   1 100  68 101  78 101  79 100
M  END
> <chiral flag>
0

> <version>
0

> <s_m_source_file>
/data/baiqing/PycharmProjects/Reinvent-master-3.2/result/LINK_invent/BTK/process_docking_weight1_custom_sum_contain_oxygen_bond_distance_aromatic_linkinvent_7_9_3/rearranged_h_0063.sdf

> <i_m_source_file_index>
25

> <r_mmod_Potential_Energy-OPLS-2005>
431.020141601562

> <r_mmod_Stretch_Energy-OPLS-2005>
86.1343154907227

> <r_mmod_Bend_Energy-OPLS-2005>
170.204605102539

> <r_mmod_Torsional_Energy-OPLS-2005>
220.781631469727

> <r_mmod_Improper_Torsional_Energy-OPLS-2005>
19.1582202911377

> <r_mmod_Van_der_Waal_Energy-OPLS-2005>
176.736541748047

> <r_mmod_Electrostatic_Energy-OPLS-2005>
-160.184768676758

> <r_mmod_Solvation_Energy-OPLS-2005>
-197.703353881836

> <b_mmod_Minimization_Converged-OPLS-2005>
0

> <r_mmod_RMS_Derivative-OPLS-2005>
0.207045391201973

$$$$
27
                    3D
 Structure written by MMmdl.
173181  0  0  1  0            999 V2000
  -30.6780  -14.9922   20.2485 C   0  0  0  0  0  0
  -30.4512  -12.6180   19.4408 C   0  0  0  0  0  0
  -29.5141  -12.4526   18.2314 C   0  0  0  0  0  0
  -28.0568  -12.2160   18.6759 C   0  0  0  0  0  0
  -27.6177  -13.1962   19.7825 C   0  0  2  0  0  0
  -28.6931  -13.3916   20.8797 C   0  0  0  0  0  0
  -25.2553  -13.7909   20.5615 C   0  0  0  0  0  0
  -24.1879  -13.0340   20.9310 C   0  0  0  0  0  0
  -24.6348  -11.6732   20.8867 C   0  0  0  0  0  0
  -23.8977  -10.4185   21.0496 C   0  0  0  0  0  0
  -24.3538   -9.4102   21.9271 C   0  0  0  0  0  0
  -23.6228   -8.2133   22.0845 C   0  0  0  0  0  0
  -22.4231   -8.0177   21.3602 C   0  0  0  0  0  0
  -21.9849   -9.0146   20.4721 C   0  0  0  0  0  0
  -22.7157  -10.2058   20.3162 C   0  0  0  0  0  0
  -21.6743   -6.0692   22.5324 C   0  0  0  0  0  0
  -21.3946   -6.5634   23.8243 C   0  0  0  0  0  0
  -21.3697   -5.6825   24.9254 C   0  0  0  0  0  0
  -21.6067   -4.3079   24.7286 C   0  0  0  0  0  0
  -21.8803   -3.8146   23.4392 C   0  0  0  0  0  0
  -21.9167   -4.6931   22.3443 C   0  0  0  0  0  0
  -22.7879  -13.5167   21.2043 C   0  0  0  0  0  0
  -22.1594   -4.2126   21.0995 F   0  0  0  0  0  0
  -21.5689   -3.4540   25.7762 F   0  0  0  0  0  0
  -29.9760  -13.7763   20.2428 N   0  0  0  0  0  0
  -26.2927  -12.9082   20.3154 N   0  0  0  0  0  0
  -25.9320  -11.6253   20.5885 N   0  0  0  0  0  0
  -22.0375  -12.8312   22.0512 N   0  0  0  0  0  0
  -25.4390  -15.1569   20.3696 N   0  0  0  0  0  0
  -31.8912  -14.8631   20.2907 O   0  0  0  0  0  0
  -21.6590   -6.8795   21.4275 O   0  0  0  0  0  0
  -22.3690  -14.5537   20.6864 O   0  0  0  0  0  0
  -24.6477  -31.8377   23.1694 C   0  0  0  0  0  0
  -25.9210  -32.4672   23.8202 C   0  0  1  0  0  0
  -27.3007  -27.1907   20.0608 C   0  0  0  0  0  0
  -25.5883  -33.8453   24.2127 N   0  0  0  0  0  0
  -23.4646  -30.4474   21.5122 C   0  0  2  0  0  0
  -24.9305  -28.8704   20.1164 C   0  0  0  0  0  0
  -22.7647  -29.4582   22.4811 C   0  0  0  0  0  0
  -18.0402  -28.1318   22.8493 C   0  0  0  0  0  0
  -24.1552  -36.7229   23.2634 C   0  0  0  0  0  0
  -26.0265  -30.7312   21.3690 C   0  0  0  0  0  0
  -26.1092  -29.3431   20.7040 C   0  0  0  0  0  0
  -27.2933  -28.5168   20.6544 C   0  0  0  0  0  0
  -26.0774  -26.8115   19.4658 C   0  0  0  0  0  0
  -24.9204  -27.6144   19.4976 C   0  0  0  0  0  0
  -23.6933  -29.7351   20.1535 C   0  0  0  0  0  0
  -25.4152  -36.2951   24.0291 C   0  0  1  0  0  0
  -20.5999  -28.3742   23.1204 C   0  0  2  0  0  0
  -20.7012  -26.9537   22.5232 C   0  0  0  0  0  0
  -19.5837  -26.6362   21.5263 C   0  0  0  0  0  0
  -18.2064  -26.7815   22.1788 C   0  0  0  0  0  0
  -19.1611  -28.8873   23.2826 C   0  0  0  0  0  0
  -18.9474  -30.1509   23.8776 C   0  0  0  0  0  0
  -17.6450  -30.6621   24.0495 C   0  0  0  0  0  0
  -25.9067  -34.9343   23.5009 C   0  0  0  0  0  0
  -16.5438  -29.8996   23.6309 C   0  0  0  0  0  0
  -16.7392  -28.6408   23.0346 C   0  0  0  0  0  0
  -26.4592  -31.6498   25.0624 C   0  0  0  0  0  0
  -25.3785  -31.3636   26.1310 C   0  0  0  0  0  0
  -27.0453  -30.2862   24.6212 C   0  0  0  0  0  0
  -27.6144  -32.4226   25.7409 C   0  0  0  0  0  0
  -27.5598  -37.1731   24.8443 C   0  0  0  0  0  0
  -21.4312  -29.3185   22.3696 N   0  0  0  0  0  0
  -26.4328  -37.3637   23.9357 N   0  0  0  0  0  0
  -24.7325  -31.0282   22.0700 N   0  0  0  0  0  0
  -23.4284  -28.8008   23.2890 O   0  0  0  0  0  0
  -28.4297  -26.2937   19.9991 O   0  0  0  0  0  0
  -26.5684  -34.8842   22.4625 O   0  0  0  0  0  0
  -23.5542  -32.1153   23.6886 O   0  0  0  0  0  0
  -30.9413  -19.4845   17.8053 C   0  0  0  0  0  0
  -30.4750  -19.2959   19.0941 C   0  0  0  0  0  0
  -31.7795  -17.5296   18.4116 C   0  0  0  0  0  0
  -32.8081  -16.4186   18.2616 C   0  0  0  0  0  0
  -28.9082  -20.6442   23.6331 C   0  0  0  0  0  0
  -31.3582  -21.2602   20.3826 C   0  0  0  0  0  0
  -29.5126  -16.9428   21.3689 C   0  0  0  0  0  0
  -28.9442  -16.3873   18.9644 C   0  0  0  0  0  0
  -29.2561  -19.9206   22.3319 C   0  0  0  0  0  0
  -29.5020  -23.6734   19.4412 C   0  0  0  0  0  0
  -28.8949  -20.5842   20.9921 C   0  0  0  0  0  0
  -29.3789  -22.0302   19.0327 C   0  0  0  0  0  0
  -28.3097  -24.7483   19.8903 C   0  0  0  0  0  0
  -29.9993  -20.7057   19.8775 C   0  0  2  0  0  0
  -30.0670  -16.5485   20.0144 C   0  0  0  0  0  0
  -30.8125  -17.8384   19.3355 N   0  0  0  0  0  0
  -31.6686  -18.4185   17.4283 N   0  3  0  0  0  0
  -30.4901  -11.7092   20.0354 H   0  0  0  0  0  0
  -31.4666  -12.7722   19.0825 H   0  0  0  0  0  0
  -29.8493  -11.6296   17.6013 H   0  0  0  0  0  0
  -29.5656  -13.3526   17.6193 H   0  0  0  0  0  0
  -27.9771  -11.1906   19.0425 H   0  0  0  0  0  0
  -27.3949  -12.2858   17.8185 H   0  0  0  0  0  0
  -27.5113  -14.1187   19.2369 H   0  0  0  0  0  0
  -28.3497  -14.1480   21.5811 H   0  0  0  0  0  0
  -28.8179  -12.4686   21.4435 H   0  0  0  0  0  0
  -25.2584   -9.5547   22.5021 H   0  0  0  0  0  0
  -23.9880   -7.4517   22.7580 H   0  0  0  0  0  0
  -21.0814   -8.8560   19.9038 H   0  0  0  0  0  0
  -22.3485  -10.9662   19.6384 H   0  0  0  0  0  0
  -21.1878   -7.6133   23.9666 H   0  0  0  0  0  0
  -21.1636   -6.0626   25.9150 H   0  0  0  0  0  0
  -22.0534   -2.7593   23.2925 H   0  0  0  0  0  0
  -22.3652  -11.9760   22.4807 H   0  0  0  0  0  0
  -21.1188  -13.1781   22.3052 H   0  0  0  0  0  0
  -24.6620  -15.8110   20.3547 H   0  0  0  0  0  0
  -26.2986  -15.5363   20.0049 H   0  0  0  0  0  0
  -26.7303  -32.5374   23.0988 H   0  0  0  0  0  0
  -24.9946  -33.9570   25.0197 H   0  0  0  0  0  0
  -22.7605  -31.2578   21.3116 H   0  0  0  0  0  0
  -23.3779  -35.9608   23.3272 H   0  0  0  0  0  0
  -24.3638  -36.8880   22.2051 H   0  0  0  0  0  0
  -23.7385  -37.6435   23.6696 H   0  0  0  0  0  0
  -26.1751  -31.4982   20.6014 H   0  0  0  0  0  0
  -26.8972  -30.7863   22.0180 H   0  0  0  0  0  0
  -28.2182  -28.8870   21.0769 H   0  0  0  0  0  0
  -25.9900  -25.8723   18.9469 H   0  0  0  0  0  0
  -24.0208  -27.2393   19.0327 H   0  0  0  0  0  0
  -23.7919  -30.4576   19.3448 H   0  0  0  0  0  0
  -22.8395  -29.1097   19.8948 H   0  0  0  0  0  0
  -25.1396  -36.1738   25.0785 H   0  0  0  0  0  0
  -21.0122  -28.3088   24.1254 H   0  0  0  0  0  0
  -20.6522  -26.2413   23.3468 H   0  0  0  0  0  0
  -21.6807  -26.7809   22.0769 H   0  0  0  0  0  0
  -19.6944  -25.6240   21.1334 H   0  0  0  0  0  0
  -19.6700  -27.3125   20.6788 H   0  0  0  0  0  0
  -17.4441  -26.6413   21.4120 H   0  0  0  0  0  0
  -18.0537  -26.0010   22.9282 H   0  0  0  0  0  0
  -19.7880  -30.7500   24.1911 H   0  0  0  0  0  0
  -17.4894  -31.6375   24.4937 H   0  0  0  0  0  0
  -15.5440  -30.2954   23.7456 H   0  0  0  0  0  0
  -15.8808  -28.0682   22.7131 H   0  0  0  0  0  0
  -24.6037  -30.6938   25.7594 H   0  0  0  0  0  0
  -24.8973  -32.2815   26.4649 H   0  0  0  0  0  0
  -25.8127  -30.8846   27.0092 H   0  0  0  0  0  0
  -26.3040  -29.6507   24.1382 H   0  0  0  0  0  0
  -27.4180  -29.7242   25.4778 H   0  0  0  0  0  0
  -27.8891  -30.4025   23.9417 H   0  0  0  0  0  0
  -27.2754  -33.3528   26.1942 H   0  0  0  0  0  0
  -28.3989  -32.6735   25.0276 H   0  0  0  0  0  0
  -28.0768  -31.8352   26.5337 H   0  0  0  0  0  0
  -28.2575  -38.0061   24.7487 H   0  0  0  0  0  0
  -28.1137  -36.2579   24.6310 H   0  0  0  0  0  0
  -27.2263  -37.1379   25.8825 H   0  0  0  0  0  0
  -20.9436  -29.8909   21.6959 H   0  0  0  0  0  0
  -26.0181  -38.2706   24.1306 H   0  0  0  0  0  0
  -30.9157  -20.3363   17.1381 H   0  0  0  0  0  0
  -33.4996  -16.7050   17.4615 H   0  0  0  0  0  0
  -32.3408  -15.4616   17.9910 H   0  0  0  0  0  0
  -33.4049  -16.3438   19.1818 H   0  0  0  0  0  0
  -29.3784  -20.1109   24.4641 H   0  0  0  0  0  0
  -27.8424  -20.6621   23.8750 H   0  0  0  0  0  0
  -29.2904  -21.6581   23.6155 H   0  0  0  0  0  0
  -32.0232  -20.4589   20.7135 H   0  0  0  0  0  0
  -31.2746  -21.9999   21.1816 H   0  0  0  0  0  0
  -31.8887  -21.7569   19.5639 H   0  0  0  0  0  0
  -30.2971  -17.4486   21.9433 H   0  0  0  0  0  0
  -29.1386  -16.1261   21.9949 H   0  0  0  0  0  0
  -28.6539  -17.5640   21.1481 H   0  0  0  0  0  0
  -28.6534  -17.3339   18.5028 H   0  0  0  0  0  0
  -29.2751  -15.7206   18.1548 H   0  0  0  0  0  0
  -28.0307  -16.0064   19.3931 H   0  0  0  0  0  0
  -28.6388  -19.0385   22.4389 H   0  0  0  0  0  0
  -30.3086  -19.6414   22.3487 H   0  0  0  0  0  0
  -29.9044  -24.1345   18.5335 H   0  0  0  0  0  0
  -30.2990  -23.7679   20.1703 H   0  0  0  0  0  0
  -28.4663  -21.5629   21.2345 H   0  0  0  0  0  0
  -28.0409  -20.0935   20.5345 H   0  0  0  0  0  0
  -29.8641  -22.0055   18.0556 H   0  0  0  0  0  0
  -28.3344  -21.8309   18.7882 H   0  0  0  0  0  0
  -28.0807  -24.4464   20.9095 H   0  0  0  0  0  0
  -27.4383  -24.4701   19.3098 H   0  0  0  0  0  0
  -32.0916  -18.3471   16.5058 H   0  0  0  0  0  0
  1 25  1  0  0  0
  1 30  2  0  0  0
  1 85  1  0  0  0
  2  3  1  0  0  0
  2 25  1  0  0  0
  2 88  1  0  0  0
  2 89  1  0  0  0
  3  4  1  0  0  0
  3 90  1  0  0  0
  3 91  1  0  0  0
  4  5  1  0  0  0
  4 92  1  0  0  0
  4 93  1  0  0  0
  5  6  1  0  0  0
  5 26  1  0  0  0
  5 94  1  0  0  0
  6 25  1  0  0  0
  6 95  1  0  0  0
  6 96  1  0  0  0
  7  8  2  0  0  0
  7 26  1  0  0  0
  7 29  1  0  0  0
  8  9  1  0  0  0
  8 22  1  0  0  0
  9 10  1  0  0  0
  9 27  2  0  0  0
 10 11  2  0  0  0
 10 15  1  0  0  0
 11 12  1  0  0  0
 11 97  1  0  0  0
 12 13  2  0  0  0
 12 98  1  0  0  0
 13 14  1  0  0  0
 13 31  1  0  0  0
 14 15  2  0  0  0
 14 99  1  0  0  0
 15100  1  0  0  0
 16 17  2  0  0  0
 16 21  1  0  0  0
 16 31  1  0  0  0
 17 18  1  0  0  0
 17101  1  0  0  0
 18 19  2  0  0  0
 18102  1  0  0  0
 19 20  1  0  0  0
 19 24  1  0  0  0
 20 21  2  0  0  0
 20103  1  0  0  0
 21 23  1  0  0  0
 22 28  1  0  0  0
 22 32  2  0  0  0
 26 27  1  0  0  0
 28104  1  0  0  0
 28105  1  0  0  0
 29106  1  0  0  0
 29107  1  0  0  0
 33 34  1  0  0  0
 33 66  1  0  0  0
 33 70  2  0  0  0
 34 36  1  0  0  0
 34 59  1  0  0  0
 34108  1  0  0  0
 35 44  2  0  0  0
 35 45  1  0  0  0
 35 68  1  0  0  0
 36 56  1  0  0  0
 36109  1  0  0  0
 37 39  1  0  0  0
 37 47  1  0  0  0
 37 66  1  0  0  0
 37110  1  0  0  0
 38 43  2  0  0  0
 38 46  1  0  0  0
 38 47  1  0  0  0
 39 64  1  0  0  0
 39 67  2  0  0  0
 40 52  1  0  0  0
 40 53  2  0  0  0
 40 58  1  0  0  0
 41111  1  0  0  0
 41112  1  0  0  0
 41113  1  0  0  0
 41 48  1  0  0  0
 42 43  1  0  0  0
 42 66  1  0  0  0
 42114  1  0  0  0
 42115  1  0  0  0
 43 44  1  0  0  0
 44116  1  0  0  0
 45 46  2  0  0  0
 45117  1  0  0  0
 46118  1  0  0  0
 47119  1  0  0  0
 47120  1  0  0  0
 48 56  1  0  0  0
 48 65  1  0  0  0
 48121  1  0  0  0
 49 50  1  0  0  0
 49 53  1  0  0  0
 49 64  1  0  0  0
 49122  1  0  0  0
 50 51  1  0  0  0
 50123  1  0  0  0
 50124  1  0  0  0
 51 52  1  0  0  0
 51125  1  0  0  0
 51126  1  0  0  0
 52127  1  0  0  0
 52128  1  0  0  0
 53 54  1  0  0  0
 54 55  2  0  0  0
 54129  1  0  0  0
 55 57  1  0  0  0
 55130  1  0  0  0
 56 69  2  0  0  0
 57 58  2  0  0  0
 57131  1  0  0  0
 58132  1  0  0  0
 59 60  1  0  0  0
 59 61  1  0  0  0
 59 62  1  0  0  0
 60133  1  0  0  0
 60134  1  0  0  0
 60135  1  0  0  0
 61136  1  0  0  0
 61137  1  0  0  0
 61138  1  0  0  0
 62139  1  0  0  0
 62140  1  0  0  0
 62141  1  0  0  0
 63 65  1  0  0  0
 63142  1  0  0  0
 63143  1  0  0  0
 63144  1  0  0  0
 64145  1  0  0  0
 65146  1  0  0  0
 68 83  1  0  0  0
 71 72  2  0  0  0
 71 87  1  0  0  0
 71147  1  0  0  0
 72 84  1  0  0  0
 72 86  1  0  0  0
 73 74  1  0  0  0
 73 86  1  0  0  0
 73 87  2  0  0  0
 74148  1  0  0  0
 74149  1  0  0  0
 74150  1  0  0  0
 75 79  1  0  0  0
 75151  1  0  0  0
 75152  1  0  0  0
 75153  1  0  0  0
 76154  1  0  0  0
 76155  1  0  0  0
 76156  1  0  0  0
 76 84  1  0  0  0
 77157  1  0  0  0
 77158  1  0  0  0
 77159  1  0  0  0
 77 85  1  0  0  0
 78 85  1  0  0  0
 78160  1  0  0  0
 78161  1  0  0  0
 78162  1  0  0  0
 79 81  1  0  0  0
 79163  1  0  0  0
 79164  1  0  0  0
 80 82  1  0  0  0
 80 83  1  0  0  0
 80165  1  0  0  0
 80166  1  0  0  0
 81 84  1  0  0  0
 81167  1  0  0  0
 81168  1  0  0  0
 82 84  1  0  0  0
 82169  1  0  0  0
 82170  1  0  0  0
 83171  1  0  0  0
 83172  1  0  0  0
 85 86  1  0  0  0
 87173  1  0  0  0
M  CHG  1  87   1
M  ISO  4   1 100  68 101  83 101  85 100
M  END
> <chiral flag>
0

> <version>
0

> <s_m_source_file>
/data/baiqing/PycharmProjects/Reinvent-master-3.2/result/LINK_invent/BTK/process_docking_weight1_custom_sum_contain_oxygen_bond_distance_aromatic_linkinvent_7_9_3/rearranged_h_0063.sdf

> <i_m_source_file_index>
26

> <r_mmod_Potential_Energy-OPLS-2005>
968.982421875

> <r_mmod_Stretch_Energy-OPLS-2005>
351.643402099609

> <r_mmod_Bend_Energy-OPLS-2005>
423.915496826172

> <r_mmod_Torsional_Energy-OPLS-2005>
398.4423828125

> <r_mmod_Improper_Torsional_Energy-OPLS-2005>
11.659068107605

> <r_mmod_Van_der_Waal_Energy-OPLS-2005>
150.059783935547

> <r_mmod_Electrostatic_Energy-OPLS-2005>
-195.421508789062

> <r_mmod_Solvation_Energy-OPLS-2005>
-381.039794921875

> <b_mmod_Minimization_Converged-OPLS-2005>
0

> <r_mmod_RMS_Derivative-OPLS-2005>
17.157506942749

$$$$
28
                    3D
 Structure written by MMmdl.
165173  0  0  1  0            999 V2000
  -30.6277  -14.7406   20.5608 C   0  0  0  0  0  0
  -30.4379  -12.4808   19.4658 C   0  0  0  0  0  0
  -29.5093  -12.5417   18.2304 C   0  0  0  0  0  0
  -28.0318  -12.3579   18.6315 C   0  0  0  0  0  0
  -27.6464  -13.2232   19.8591 C   0  0  2  0  0  0
  -28.6903  -13.0538   20.9779 C   0  0  0  0  0  0
  -25.2520  -13.8173   20.5666 C   0  0  0  0  0  0
  -24.1806  -13.0429   20.9182 C   0  0  0  0  0  0
  -24.6389  -11.6904   20.8729 C   0  0  0  0  0  0
  -23.9067  -10.4287   21.0401 C   0  0  0  0  0  0
  -24.3619   -9.4203   21.9182 C   0  0  0  0  0  0
  -23.6290   -8.2243   22.0756 C   0  0  0  0  0  0
  -22.4272   -8.0281   21.3547 C   0  0  0  0  0  0
  -21.9908   -9.0252   20.4647 C   0  0  0  0  0  0
  -22.7239  -10.2130   20.3052 C   0  0  0  0  0  0
  -21.6852   -6.0735   22.5281 C   0  0  0  0  0  0
  -21.4014   -6.5638   23.8214 C   0  0  0  0  0  0
  -21.3658   -5.6790   24.9177 C   0  0  0  0  0  0
  -21.6045   -4.3054   24.7225 C   0  0  0  0  0  0
  -21.8821   -3.8146   23.4346 C   0  0  0  0  0  0
  -21.9193   -4.6963   22.3403 C   0  0  0  0  0  0
  -22.7830  -13.5217   21.1852 C   0  0  0  0  0  0
  -22.1661   -4.2147   21.0979 F   0  0  0  0  0  0
  -21.5627   -3.4539   25.7739 F   0  0  0  0  0  0
  -29.9846  -13.5116   20.4435 N   0  0  0  0  0  0
  -26.2947  -12.9368   20.3279 N   0  0  0  0  0  0
  -25.9314  -11.6516   20.5722 N   0  0  0  0  0  0
  -22.0480  -12.8212   22.0414 N   0  0  0  0  0  0
  -25.4206  -15.1898   20.4087 N   0  0  0  0  0  0
  -31.7645  -14.7963   20.0790 O   0  0  0  0  0  0
  -21.6638   -6.8877   21.4243 O   0  0  0  0  0  0
  -22.3511  -14.5522   20.6700 O   0  0  0  0  0  0
  -24.6294  -31.8562   23.1998 C   0  0  0  0  0  0
  -25.9127  -32.4756   23.8336 C   0  0  1  0  0  0
  -27.2172  -27.2702   20.1341 C   0  0  0  0  0  0
  -25.5922  -33.8559   24.2258 N   0  0  0  0  0  0
  -23.4255  -30.4779   21.5436 C   0  0  2  0  0  0
  -24.8702  -28.9179   20.1198 C   0  0  0  0  0  0
  -22.7492  -29.4606   22.4936 C   0  0  0  0  0  0
  -18.0290  -28.1393   22.8487 C   0  0  0  0  0  0
  -24.1486  -36.7288   23.2645 C   0  0  0  0  0  0
  -25.9695  -30.7693   21.3794 C   0  0  0  0  0  0
  -26.0403  -29.3884   20.7305 C   0  0  0  0  0  0
  -27.2177  -28.5764   20.7263 C   0  0  0  0  0  0
  -26.0337  -26.8692   19.4862 C   0  0  0  0  0  0
  -24.8696  -27.6632   19.4896 C   0  0  0  0  0  0
  -23.6436  -29.8082   20.1616 C   0  0  0  0  0  0
  -25.4110  -36.3065   24.0330 C   0  0  1  0  0  0
  -20.5890  -28.3700   23.1281 C   0  0  2  0  0  0
  -20.6777  -26.9421   22.5411 C   0  0  0  0  0  0
  -19.5752  -26.6394   21.5213 C   0  0  0  0  0  0
  -18.1933  -26.7937   22.1623 C   0  0  0  0  0  0
  -19.1542  -28.8863   23.2879 C   0  0  0  0  0  0
  -18.9463  -30.1462   23.8903 C   0  0  0  0  0  0
  -17.6460  -30.6593   24.0565 C   0  0  0  0  0  0
  -25.9053  -34.9439   23.5101 C   0  0  0  0  0  0
  -16.5350  -29.9090   23.6332 C   0  0  0  0  0  0
  -16.7274  -28.6507   23.0355 C   0  0  0  0  0  0
  -26.4494  -31.6581   25.0724 C   0  0  0  0  0  0
  -25.3710  -31.3723   26.1442 C   0  0  0  0  0  0
  -27.0349  -30.2997   24.6213 C   0  0  0  0  0  0
  -27.6049  -32.4325   25.7494 C   0  0  0  0  0  0
  -27.5575  -37.1794   24.8468 C   0  0  0  0  0  0
  -21.4203  -29.3041   22.3669 N   0  0  0  0  0  0
  -26.4285  -37.3762   23.9413 N   0  0  0  0  0  0
  -24.6939  -31.0531   22.0969 N   0  0  0  0  0  0
  -23.4194  -28.8158   23.3041 O   0  0  0  0  0  0
  -28.3430  -26.4292   20.0720 O   0  0  0  0  0  0
  -26.5633  -34.8918   22.4675 O   0  0  0  0  0  0
  -23.5449  -32.1388   23.7296 O   0  0  0  0  0  0
  -29.2292  -19.5251   20.0872 C   0  0  0  0  0  0
  -30.2907  -17.8852   19.2487 C   0  0  0  0  0  0
  -31.1033  -17.0894   18.2816 C   0  0  0  0  0  0
  -28.8936  -15.9172   22.2029 C   0  0  0  0  0  0
  -31.2638  -16.5312   22.2203 C   0  0  0  0  0  0
  -26.5857  -23.3217   20.2376 C   0  0  0  0  0  0
  -28.3022  -23.8409   18.4634 C   0  0  0  0  0  0
  -28.3690  -20.8446   20.1240 C   0  0  0  0  0  0
  -28.9329  -22.3342   20.4333 C   0  0  0  0  0  0
  -28.3888  -25.0694   20.7071 C   0  0  0  0  0  0
  -30.1062  -16.1325   21.2678 C   0  0  0  0  0  0
  -28.0719  -23.6495   19.9736 C   0  0  0  0  0  0
  -29.9430  -19.1586   18.9807 N   0  0  0  0  0  0
  -29.1753  -18.5254   21.0000 N   0  0  0  0  0  0
  -29.8433  -17.4200   20.4395 N   0  0  0  0  0  0
  -31.4727  -12.6156   19.1484 H   0  0  0  0  0  0
  -30.4143  -11.4860   19.9135 H   0  0  0  0  0  0
  -29.7964  -11.7798   17.5043 H   0  0  0  0  0  0
  -29.6341  -13.5037   17.7309 H   0  0  0  0  0  0
  -27.8801  -11.3029   18.8635 H   0  0  0  0  0  0
  -27.3775  -12.5803   17.7880 H   0  0  0  0  0  0
  -27.6675  -14.2635   19.5338 H   0  0  0  0  0  0
  -28.7521  -12.0005   21.2561 H   0  0  0  0  0  0
  -28.3722  -13.5203   21.8983 H   0  0  0  0  0  0
  -25.2766   -9.5680   22.4753 H   0  0  0  0  0  0
  -23.9997   -7.4639   22.7480 H   0  0  0  0  0  0
  -21.0839   -8.8774   19.8954 H   0  0  0  0  0  0
  -22.3699  -10.9668   19.6159 H   0  0  0  0  0  0
  -21.2010   -7.6148   23.9716 H   0  0  0  0  0  0
  -21.1476   -6.0522   25.9079 H   0  0  0  0  0  0
  -22.0603   -2.7607   23.2849 H   0  0  0  0  0  0
  -22.4101  -11.9875   22.4802 H   0  0  0  0  0  0
  -21.1100  -13.1242   22.2624 H   0  0  0  0  0  0
  -24.6562  -15.8443   20.5339 H   0  0  0  0  0  0
  -26.2753  -15.6348   20.1007 H   0  0  0  0  0  0
  -26.7193  -32.5409   23.1081 H   0  0  0  0  0  0
  -25.0024  -33.9691   25.0370 H   0  0  0  0  0  0
  -22.7202  -31.2987   21.3969 H   0  0  0  0  0  0
  -23.3742  -35.9625   23.3299 H   0  0  0  0  0  0
  -24.3575  -36.8926   22.2061 H   0  0  0  0  0  0
  -23.7248  -37.6491   23.6677 H   0  0  0  0  0  0
  -26.1069  -31.5254   20.6048 H   0  0  0  0  0  0
  -26.8483  -30.8214   22.0107 H   0  0  0  0  0  0
  -28.1215  -28.9386   21.1967 H   0  0  0  0  0  0
  -26.0089  -25.9382   18.9446 H   0  0  0  0  0  0
  -23.9791  -27.3042   18.9917 H   0  0  0  0  0  0
  -23.7711  -30.5826   19.4040 H   0  0  0  0  0  0
  -22.7606  -29.2427   19.8580 H   0  0  0  0  0  0
  -25.1287  -36.1913   25.0820 H   0  0  0  0  0  0
  -20.9973  -28.3281   24.1405 H   0  0  0  0  0  0
  -20.5681  -26.2307   23.3608 H   0  0  0  0  0  0
  -21.6648  -26.7453   22.1203 H   0  0  0  0  0  0
  -19.6914  -25.6304   21.1250 H   0  0  0  0  0  0
  -19.6698  -27.3197   20.6736 H   0  0  0  0  0  0
  -17.4202  -26.6684   21.4026 H   0  0  0  0  0  0
  -18.0329  -26.0082   22.9018 H   0  0  0  0  0  0
  -19.7938  -30.7276   24.2279 H   0  0  0  0  0  0
  -17.5016  -31.6274   24.5167 H   0  0  0  0  0  0
  -15.5350  -30.2991   23.7661 H   0  0  0  0  0  0
  -15.8673  -28.0827   22.7073 H   0  0  0  0  0  0
  -24.5918  -30.7033   25.7774 H   0  0  0  0  0  0
  -24.8851  -32.2878   26.4822 H   0  0  0  0  0  0
  -25.8025  -30.8946   27.0249 H   0  0  0  0  0  0
  -26.2935  -29.6731   24.1238 H   0  0  0  0  0  0
  -27.4034  -29.7275   25.4740 H   0  0  0  0  0  0
  -27.8811  -30.4276   23.9459 H   0  0  0  0  0  0
  -27.2674  -33.3658   26.2018 H   0  0  0  0  0  0
  -28.3878  -32.6835   25.0323 H   0  0  0  0  0  0
  -28.0689  -31.8479   26.5449 H   0  0  0  0  0  0
  -28.2587  -38.0095   24.7510 H   0  0  0  0  0  0
  -28.1076  -36.2623   24.6292 H   0  0  0  0  0  0
  -27.2295  -37.1447   25.8873 H   0  0  0  0  0  0
  -20.9390  -29.8750   21.6862 H   0  0  0  0  0  0
  -26.0166  -38.2840   24.1401 H   0  0  0  0  0  0
  -31.1975  -17.6221   17.3353 H   0  0  0  0  0  0
  -30.6248  -16.1334   18.0727 H   0  0  0  0  0  0
  -32.1058  -16.9243   18.6750 H   0  0  0  0  0  0
  -28.6649  -16.8029   22.7950 H   0  0  0  0  0  0
  -29.0935  -15.1460   22.9456 H   0  0  0  0  0  0
  -27.9884  -15.6808   21.6459 H   0  0  0  0  0  0
  -30.9925  -17.3725   22.8588 H   0  0  0  0  0  0
  -32.1540  -16.8322   21.6663 H   0  0  0  0  0  0
  -31.5511  -15.7088   22.8771 H   0  0  0  0  0  0
  -26.2288  -22.4918   19.6277 H   0  0  0  0  0  0
  -25.9246  -24.1576   20.0333 H   0  0  0  0  0  0
  -26.4268  -23.0529   21.2820 H   0  0  0  0  0  0
  -28.0640  -22.9384   17.9000 H   0  0  0  0  0  0
  -29.3427  -24.0932   18.2557 H   0  0  0  0  0  0
  -27.6913  -24.6467   18.0576 H   0  0  0  0  0  0
  -27.5454  -20.6605   20.8144 H   0  0  0  0  0  0
  -27.8879  -20.8915   19.1476 H   0  0  0  0  0  0
  -29.9210  -22.4129   19.9792 H   0  0  0  0  0  0
  -29.1179  -22.3952   21.5060 H   0  0  0  0  0  0
  -29.4237  -24.9945   21.0415 H   0  0  0  0  0  0
  -27.8218  -25.1204   21.6382 H   0  0  0  0  0  0
  1 25  1  0  0  0
  1 30  2  0  0  0
  1 81  1  0  0  0
  2  3  1  0  0  0
  2 25  1  0  0  0
  2 86  1  0  0  0
  2 87  1  0  0  0
  3  4  1  0  0  0
  3 88  1  0  0  0
  3 89  1  0  0  0
  4  5  1  0  0  0
  4 90  1  0  0  0
  4 91  1  0  0  0
  5  6  1  0  0  0
  5 26  1  0  0  0
  5 92  1  0  0  0
  6 25  1  0  0  0
  6 93  1  0  0  0
  6 94  1  0  0  0
  7  8  2  0  0  0
  7 26  1  0  0  0
  7 29  1  0  0  0
  8  9  1  0  0  0
  8 22  1  0  0  0
  9 10  1  0  0  0
  9 27  2  0  0  0
 10 11  2  0  0  0
 10 15  1  0  0  0
 11 12  1  0  0  0
 11 95  1  0  0  0
 12 13  2  0  0  0
 12 96  1  0  0  0
 13 14  1  0  0  0
 13 31  1  0  0  0
 14 15  2  0  0  0
 14 97  1  0  0  0
 15 98  1  0  0  0
 16 17  2  0  0  0
 16 21  1  0  0  0
 16 31  1  0  0  0
 17 18  1  0  0  0
 17 99  1  0  0  0
 18 19  2  0  0  0
 18100  1  0  0  0
 19 20  1  0  0  0
 19 24  1  0  0  0
 20 21  2  0  0  0
 20101  1  0  0  0
 21 23  1  0  0  0
 22 28  1  0  0  0
 22 32  2  0  0  0
 26 27  1  0  0  0
 28102  1  0  0  0
 28103  1  0  0  0
 29104  1  0  0  0
 29105  1  0  0  0
 33 34  1  0  0  0
 33 66  1  0  0  0
 33 70  2  0  0  0
 34 36  1  0  0  0
 34 59  1  0  0  0
 34106  1  0  0  0
 35 44  2  0  0  0
 35 45  1  0  0  0
 35 68  1  0  0  0
 36 56  1  0  0  0
 36107  1  0  0  0
 37 39  1  0  0  0
 37 47  1  0  0  0
 37 66  1  0  0  0
 37108  1  0  0  0
 38 43  2  0  0  0
 38 46  1  0  0  0
 38 47  1  0  0  0
 39 64  1  0  0  0
 39 67  2  0  0  0
 40 52  1  0  0  0
 40 53  2  0  0  0
 40 58  1  0  0  0
 41109  1  0  0  0
 41110  1  0  0  0
 41111  1  0  0  0
 41 48  1  0  0  0
 42 43  1  0  0  0
 42 66  1  0  0  0
 42112  1  0  0  0
 42113  1  0  0  0
 43 44  1  0  0  0
 44114  1  0  0  0
 45 46  2  0  0  0
 45115  1  0  0  0
 46116  1  0  0  0
 47117  1  0  0  0
 47118  1  0  0  0
 48 56  1  0  0  0
 48 65  1  0  0  0
 48119  1  0  0  0
 49 50  1  0  0  0
 49 53  1  0  0  0
 49 64  1  0  0  0
 49120  1  0  0  0
 50 51  1  0  0  0
 50121  1  0  0  0
 50122  1  0  0  0
 51 52  1  0  0  0
 51123  1  0  0  0
 51124  1  0  0  0
 52125  1  0  0  0
 52126  1  0  0  0
 53 54  1  0  0  0
 54 55  2  0  0  0
 54127  1  0  0  0
 55 57  1  0  0  0
 55128  1  0  0  0
 56 69  2  0  0  0
 57 58  2  0  0  0
 57129  1  0  0  0
 58130  1  0  0  0
 59 60  1  0  0  0
 59 61  1  0  0  0
 59 62  1  0  0  0
 60131  1  0  0  0
 60132  1  0  0  0
 60133  1  0  0  0
 61134  1  0  0  0
 61135  1  0  0  0
 61136  1  0  0  0
 62137  1  0  0  0
 62138  1  0  0  0
 62139  1  0  0  0
 63 65  1  0  0  0
 63140  1  0  0  0
 63141  1  0  0  0
 63142  1  0  0  0
 64143  1  0  0  0
 65144  1  0  0  0
 68 80  1  0  0  0
 71 78  1  0  0  0
 71 83  1  0  0  0
 71 84  2  0  0  0
 72 73  1  0  0  0
 72 83  2  0  0  0
 72 85  1  0  0  0
 73145  1  0  0  0
 73146  1  0  0  0
 73147  1  0  0  0
 74148  1  0  0  0
 74149  1  0  0  0
 74150  1  0  0  0
 74 81  1  0  0  0
 75 81  1  0  0  0
 75151  1  0  0  0
 75152  1  0  0  0
 75153  1  0  0  0
 76154  1  0  0  0
 76155  1  0  0  0
 76156  1  0  0  0
 76 82  1  0  0  0
 77 82  1  0  0  0
 77157  1  0  0  0
 77158  1  0  0  0
 77159  1  0  0  0
 78 79  1  0  0  0
 78160  1  0  0  0
 78161  1  0  0  0
 79 82  1  0  0  0
 79162  1  0  0  0
 79163  1  0  0  0
 80 82  1  0  0  0
 80164  1  0  0  0
 80165  1  0  0  0
 81 85  1  0  0  0
 84 85  1  0  0  0
M  ISO  4   1 100  68 101  80 101  81 100
M  END
> <chiral flag>
0

> <version>
0

> <s_m_source_file>
/data/baiqing/PycharmProjects/Reinvent-master-3.2/result/LINK_invent/BTK/process_docking_weight1_custom_sum_contain_oxygen_bond_distance_aromatic_linkinvent_7_9_3/rearranged_h_0063.sdf

> <i_m_source_file_index>
27

> <r_mmod_Potential_Energy-OPLS-2005>
286.221252441406

> <r_mmod_Stretch_Energy-OPLS-2005>
146.845031738281

> <r_mmod_Bend_Energy-OPLS-2005>
240.210693359375

> <r_mmod_Torsional_Energy-OPLS-2005>
242.999740600586

> <r_mmod_Improper_Torsional_Energy-OPLS-2005>
3.93152117729187

> <r_mmod_Van_der_Waal_Energy-OPLS-2005>
130.146224975586

> <r_mmod_Electrostatic_Energy-OPLS-2005>
-356.766174316406

> <r_mmod_Solvation_Energy-OPLS-2005>
-188.743743896484

> <b_mmod_Minimization_Converged-OPLS-2005>
0

> <r_mmod_RMS_Derivative-OPLS-2005>
0.889138400554657

$$$$
29
                    3D
 Structure written by MMmdl.
165173  0  0  1  0            999 V2000
  -30.6112  -14.7583   20.4618 C   0  0  0  0  0  0
  -30.4475  -12.4693   19.4645 C   0  0  0  0  0  0
  -29.5301  -12.5369   18.2221 C   0  0  0  0  0  0
  -28.0479  -12.3749   18.6178 C   0  0  0  0  0  0
  -27.6524  -13.2364   19.8485 C   0  0  2  0  0  0
  -28.6991  -13.1488   20.9799 C   0  0  0  0  0  0
  -25.2610  -13.8155   20.5632 C   0  0  0  0  0  0
  -24.1905  -13.0432   20.9120 C   0  0  0  0  0  0
  -24.6443  -11.6889   20.8639 C   0  0  0  0  0  0
  -23.9062  -10.4278   21.0338 C   0  0  0  0  0  0
  -24.3603   -9.4223   21.9163 C   0  0  0  0  0  0
  -23.6279   -8.2268   22.0803 C   0  0  0  0  0  0
  -22.4276   -8.0268   21.3564 C   0  0  0  0  0  0
  -21.9894   -9.0205   20.4641 C   0  0  0  0  0  0
  -22.7204  -10.2098   20.3018 C   0  0  0  0  0  0
  -21.6883   -6.0691   22.5247 C   0  0  0  0  0  0
  -21.4028   -6.5624   23.8159 C   0  0  0  0  0  0
  -21.3670   -5.6804   24.9127 C   0  0  0  0  0  0
  -21.6061   -4.3058   24.7214 C   0  0  0  0  0  0
  -21.8831   -3.8122   23.4336 C   0  0  0  0  0  0
  -21.9209   -4.6921   22.3383 C   0  0  0  0  0  0
  -22.7915  -13.5246   21.1745 C   0  0  0  0  0  0
  -22.1694   -4.2116   21.0968 F   0  0  0  0  0  0
  -21.5617   -3.4554   25.7742 F   0  0  0  0  0  0
  -29.9969  -13.5229   20.4021 N   0  0  0  0  0  0
  -26.3033  -12.9373   20.3222 N   0  0  0  0  0  0
  -25.9398  -11.6495   20.5658 N   0  0  0  0  0  0
  -22.0588  -12.8232   22.0281 N   0  0  0  0  0  0
  -25.4387  -15.1897   20.4036 N   0  0  0  0  0  0
  -31.8022  -14.8673   20.1684 O   0  0  0  0  0  0
  -21.6694   -6.8843   21.4217 O   0  0  0  0  0  0
  -22.3594  -14.5530   20.6546 O   0  0  0  0  0  0
  -24.6299  -31.8570   23.1960 C   0  0  0  0  0  0
  -25.9166  -32.4719   23.8273 C   0  0  1  0  0  0
  -27.1902  -27.2303   20.1455 C   0  0  0  0  0  0
  -25.5979  -33.8528   24.2197 N   0  0  0  0  0  0
  -23.4218  -30.4808   21.5381 C   0  0  2  0  0  0
  -24.8634  -28.9283   20.0981 C   0  0  0  0  0  0
  -22.7453  -29.4659   22.4903 C   0  0  0  0  0  0
  -18.0271  -28.1437   22.8451 C   0  0  0  0  0  0
  -24.1501  -36.7245   23.2628 C   0  0  0  0  0  0
  -25.9702  -30.7540   21.3871 C   0  0  0  0  0  0
  -26.0318  -29.3765   20.7278 C   0  0  0  0  0  0
  -27.1891  -28.5344   20.7520 C   0  0  0  0  0  0
  -26.0142  -26.8745   19.4460 C   0  0  0  0  0  0
  -24.8658  -27.6896   19.4414 C   0  0  0  0  0  0
  -23.6329  -29.8121   20.1549 C   0  0  0  0  0  0
  -25.4143  -36.3032   24.0297 C   0  0  1  0  0  0
  -20.5871  -28.3753   23.1245 C   0  0  2  0  0  0
  -20.6797  -26.9486   22.5378 C   0  0  0  0  0  0
  -19.5777  -26.6416   21.5197 C   0  0  0  0  0  0
  -18.1946  -26.7962   22.1601 C   0  0  0  0  0  0
  -19.1522  -28.8909   23.2819 C   0  0  0  0  0  0
  -18.9466  -30.1504   23.8850 C   0  0  0  0  0  0
  -17.6483  -30.6630   24.0581 C   0  0  0  0  0  0
  -25.9101  -34.9416   23.5061 C   0  0  0  0  0  0
  -16.5365  -29.9137   23.6369 C   0  0  0  0  0  0
  -16.7257  -28.6562   23.0370 C   0  0  0  0  0  0
  -26.4513  -31.6542   25.0672 C   0  0  0  0  0  0
  -25.3682  -31.3729   26.1333 C   0  0  0  0  0  0
  -27.0421  -30.2939   24.6258 C   0  0  0  0  0  0
  -27.6069  -32.4294   25.7460 C   0  0  0  0  0  0
  -27.5595  -37.1768   24.8460 C   0  0  0  0  0  0
  -21.4168  -29.3087   22.3614 N   0  0  0  0  0  0
  -26.4304  -37.3756   23.9424 N   0  0  0  0  0  0
  -24.6932  -31.0505   22.0952 N   0  0  0  0  0  0
  -23.4129  -28.8219   23.3040 O   0  0  0  0  0  0
  -28.2752  -26.3255   20.2661 O   0  0  0  0  0  0
  -26.5667  -34.8922   22.4621 O   0  0  0  0  0  0
  -23.5462  -32.1450   23.7245 O   0  0  0  0  0  0
  -29.0925  -20.9042   20.6385 C   0  0  0  0  0  0
  -29.8369  -20.0138   19.7473 C   0  0  0  0  0  0
  -29.2320  -22.2462   20.2231 C   0  0  0  0  0  0
  -31.5501  -18.2589   19.0238 C   0  0  0  0  0  0
  -29.1197  -17.8836   18.4782 C   0  0  0  0  0  0
  -29.9330  -24.2633   21.6509 C   0  0  0  0  0  0
  -27.6620  -23.3252   21.8843 C   0  0  0  0  0  0
  -30.6348  -23.1351   18.2565 C   0  0  0  0  0  0
  -30.0460  -17.3940   20.8291 C   0  0  0  0  0  0
  -28.1953  -24.8541   19.8914 C   0  0  0  0  0  0
  -30.0953  -18.4152   19.5607 C   0  0  0  0  0  0
  -28.7663  -23.6528   20.8509 C   0  0  0  0  0  0
  -30.3292  -20.8154   18.7978 N   0  0  0  0  0  0
  -30.0448  -22.1146   19.1048 N   0  0  0  0  0  0
  -29.8102  -15.8718   20.6769 N   0  0  0  0  0  0
  -31.4930  -12.5971   19.1789 H   0  0  0  0  0  0
  -30.3852  -11.4875   19.9376 H   0  0  0  0  0  0
  -29.8168  -11.7669   17.5025 H   0  0  0  0  0  0
  -29.6810  -13.4968   17.7223 H   0  0  0  0  0  0
  -27.8675  -11.3197   18.8252 H   0  0  0  0  0  0
  -27.4192  -12.6430   17.7675 H   0  0  0  0  0  0
  -27.6498  -14.2661   19.4938 H   0  0  0  0  0  0
  -28.7481  -12.1407   21.4007 H   0  0  0  0  0  0
  -28.4312  -13.8096   21.8025 H   0  0  0  0  0  0
  -25.2760   -9.5735   22.4695 H   0  0  0  0  0  0
  -24.0006   -7.4709   22.7564 H   0  0  0  0  0  0
  -21.0848   -8.8657   19.8919 H   0  0  0  0  0  0
  -22.3666  -10.9588   19.6093 H   0  0  0  0  0  0
  -21.2068   -7.6156   23.9625 H   0  0  0  0  0  0
  -21.1487   -6.0562   25.9025 H   0  0  0  0  0  0
  -22.0621   -2.7581   23.2857 H   0  0  0  0  0  0
  -22.4280  -11.9936   22.4672 H   0  0  0  0  0  0
  -21.1143  -13.1152   22.2364 H   0  0  0  0  0  0
  -24.6734  -15.8510   20.4817 H   0  0  0  0  0  0
  -26.2954  -15.6083   20.0670 H   0  0  0  0  0  0
  -26.7211  -32.5336   23.0990 H   0  0  0  0  0  0
  -25.0125  -33.9636   25.0335 H   0  0  0  0  0  0
  -22.7202  -31.3050   21.3933 H   0  0  0  0  0  0
  -23.3797  -35.9541   23.3257 H   0  0  0  0  0  0
  -24.3593  -36.8926   22.2048 H   0  0  0  0  0  0
  -23.7204  -37.6414   23.6690 H   0  0  0  0  0  0
  -26.1301  -31.5203   20.6259 H   0  0  0  0  0  0
  -26.8391  -30.7839   22.0345 H   0  0  0  0  0  0
  -28.0681  -28.8598   21.2940 H   0  0  0  0  0  0
  -25.9315  -25.9501   18.8973 H   0  0  0  0  0  0
  -23.9817  -27.3578   18.9149 H   0  0  0  0  0  0
  -23.7355  -30.5848   19.3928 H   0  0  0  0  0  0
  -22.7524  -29.2346   19.8625 H   0  0  0  0  0  0
  -25.1335  -36.1860   25.0786 H   0  0  0  0  0  0
  -20.9911  -28.3380   24.1391 H   0  0  0  0  0  0
  -20.5808  -26.2382   23.3585 H   0  0  0  0  0  0
  -21.6672  -26.7626   22.1127 H   0  0  0  0  0  0
  -19.7015  -25.6320   21.1280 H   0  0  0  0  0  0
  -19.6740  -27.3186   20.6704 H   0  0  0  0  0  0
  -17.4220  -26.6646   21.3995 H   0  0  0  0  0  0
  -18.0385  -26.0117   22.9023 H   0  0  0  0  0  0
  -19.7969  -30.7303   24.2192 H   0  0  0  0  0  0
  -17.5080  -31.6316   24.5195 H   0  0  0  0  0  0
  -15.5381  -30.3069   23.7765 H   0  0  0  0  0  0
  -15.8624  -28.0899   22.7160 H   0  0  0  0  0  0
  -24.5857  -30.7113   25.7589 H   0  0  0  0  0  0
  -24.8863  -32.2916   26.4688 H   0  0  0  0  0  0
  -25.7891  -30.8891   27.0150 H   0  0  0  0  0  0
  -26.3066  -29.6598   24.1287 H   0  0  0  0  0  0
  -27.4073  -29.7287   25.4853 H   0  0  0  0  0  0
  -27.8943  -30.4193   23.9575 H   0  0  0  0  0  0
  -27.2688  -33.3621   26.1998 H   0  0  0  0  0  0
  -28.3890  -32.6808   25.0276 H   0  0  0  0  0  0
  -28.0713  -31.8431   26.5396 H   0  0  0  0  0  0
  -28.2561  -38.0119   24.7617 H   0  0  0  0  0  0
  -28.1152  -36.2660   24.6185 H   0  0  0  0  0  0
  -27.2310  -37.1286   25.8856 H   0  0  0  0  0  0
  -20.9387  -29.8685   21.6694 H   0  0  0  0  0  0
  -26.0171  -38.2827   24.1463 H   0  0  0  0  0  0
  -28.5244  -20.5877   21.5012 H   0  0  0  0  0  0
  -31.6871  -18.6757   18.0249 H   0  0  0  0  0  0
  -31.8519  -17.2155   18.9412 H   0  0  0  0  0  0
  -32.2755  -18.7497   19.6779 H   0  0  0  0  0  0
  -29.1252  -18.4984   17.5748 H   0  0  0  0  0  0
  -28.0886  -17.8614   18.8375 H   0  0  0  0  0  0
  -29.3815  -16.8723   18.1551 H   0  0  0  0  0  0
  -30.3193  -23.5635   22.3935 H   0  0  0  0  0  0
  -29.6070  -25.1516   22.1914 H   0  0  0  0  0  0
  -30.7578  -24.5761   21.0128 H   0  0  0  0  0  0
  -28.0516  -22.7227   22.7068 H   0  0  0  0  0  0
  -26.8459  -22.7554   21.4391 H   0  0  0  0  0  0
  -27.2297  -24.2198   22.3307 H   0  0  0  0  0  0
  -30.0130  -23.2988   17.3756 H   0  0  0  0  0  0
  -31.6320  -22.8248   17.9377 H   0  0  0  0  0  0
  -30.7544  -24.0683   18.8024 H   0  0  0  0  0  0
  -29.2212  -17.7316   21.4567 H   0  0  0  0  0  0
  -30.9315  -17.5459   21.4507 H   0  0  0  0  0  0
  -27.1921  -24.5412   19.6179 H   0  0  0  0  0  0
  -28.7302  -24.8266   18.9495 H   0  0  0  0  0  0
  -28.8644  -15.6066   20.8999 H   0  0  0  0  0  0
  1 25  1  0  0  0
  1 30  2  0  0  0
  1 85  1  0  0  0
  2  3  1  0  0  0
  2 25  1  0  0  0
  2 86  1  0  0  0
  2 87  1  0  0  0
  3  4  1  0  0  0
  3 88  1  0  0  0
  3 89  1  0  0  0
  4  5  1  0  0  0
  4 90  1  0  0  0
  4 91  1  0  0  0
  5  6  1  0  0  0
  5 26  1  0  0  0
  5 92  1  0  0  0
  6 25  1  0  0  0
  6 93  1  0  0  0
  6 94  1  0  0  0
  7  8  2  0  0  0
  7 26  1  0  0  0
  7 29  1  0  0  0
  8  9  1  0  0  0
  8 22  1  0  0  0
  9 10  1  0  0  0
  9 27  2  0  0  0
 10 11  2  0  0  0
 10 15  1  0  0  0
 11 12  1  0  0  0
 11 95  1  0  0  0
 12 13  2  0  0  0
 12 96  1  0  0  0
 13 14  1  0  0  0
 13 31  1  0  0  0
 14 15  2  0  0  0
 14 97  1  0  0  0
 15 98  1  0  0  0
 16 17  2  0  0  0
 16 21  1  0  0  0
 16 31  1  0  0  0
 17 18  1  0  0  0
 17 99  1  0  0  0
 18 19  2  0  0  0
 18100  1  0  0  0
 19 20  1  0  0  0
 19 24  1  0  0  0
 20 21  2  0  0  0
 20101  1  0  0  0
 21 23  1  0  0  0
 22 28  1  0  0  0
 22 32  2  0  0  0
 26 27  1  0  0  0
 28102  1  0  0  0
 28103  1  0  0  0
 29104  1  0  0  0
 29105  1  0  0  0
 33 34  1  0  0  0
 33 66  1  0  0  0
 33 70  2  0  0  0
 34 36  1  0  0  0
 34 59  1  0  0  0
 34106  1  0  0  0
 35 44  2  0  0  0
 35 45  1  0  0  0
 35 68  1  0  0  0
 36 56  1  0  0  0
 36107  1  0  0  0
 37 39  1  0  0  0
 37 47  1  0  0  0
 37 66  1  0  0  0
 37108  1  0  0  0
 38 43  2  0  0  0
 38 46  1  0  0  0
 38 47  1  0  0  0
 39 64  1  0  0  0
 39 67  2  0  0  0
 40 52  1  0  0  0
 40 53  2  0  0  0
 40 58  1  0  0  0
 41109  1  0  0  0
 41110  1  0  0  0
 41111  1  0  0  0
 41 48  1  0  0  0
 42 43  1  0  0  0
 42 66  1  0  0  0
 42112  1  0  0  0
 42113  1  0  0  0
 43 44  1  0  0  0
 44114  1  0  0  0
 45 46  2  0  0  0
 45115  1  0  0  0
 46116  1  0  0  0
 47117  1  0  0  0
 47118  1  0  0  0
 48 56  1  0  0  0
 48 65  1  0  0  0
 48119  1  0  0  0
 49 50  1  0  0  0
 49 53  1  0  0  0
 49 64  1  0  0  0
 49120  1  0  0  0
 50 51  1  0  0  0
 50121  1  0  0  0
 50122  1  0  0  0
 51 52  1  0  0  0
 51123  1  0  0  0
 51124  1  0  0  0
 52125  1  0  0  0
 52126  1  0  0  0
 53 54  1  0  0  0
 54 55  2  0  0  0
 54127  1  0  0  0
 55 57  1  0  0  0
 55128  1  0  0  0
 56 69  2  0  0  0
 57 58  2  0  0  0
 57129  1  0  0  0
 58130  1  0  0  0
 59 60  1  0  0  0
 59 61  1  0  0  0
 59 62  1  0  0  0
 60131  1  0  0  0
 60132  1  0  0  0
 60133  1  0  0  0
 61134  1  0  0  0
 61135  1  0  0  0
 61136  1  0  0  0
 62137  1  0  0  0
 62138  1  0  0  0
 62139  1  0  0  0
 63 65  1  0  0  0
 63140  1  0  0  0
 63141  1  0  0  0
 63142  1  0  0  0
 64143  1  0  0  0
 65144  1  0  0  0
 68 80  1  0  0  0
 71 72  1  0  0  0
 71 73  2  0  0  0
 71145  1  0  0  0
 72 81  1  0  0  0
 72 83  2  0  0  0
 73 82  1  0  0  0
 73 84  1  0  0  0
 74146  1  0  0  0
 74147  1  0  0  0
 74148  1  0  0  0
 74 81  1  0  0  0
 75 81  1  0  0  0
 75149  1  0  0  0
 75150  1  0  0  0
 75151  1  0  0  0
 76152  1  0  0  0
 76153  1  0  0  0
 76154  1  0  0  0
 76 82  1  0  0  0
 77 82  1  0  0  0
 77155  1  0  0  0
 77156  1  0  0  0
 77157  1  0  0  0
 78 84  1  0  0  0
 78158  1  0  0  0
 78159  1  0  0  0
 78160  1  0  0  0
 79 81  1  0  0  0
 79 85  1  0  0  0
 79161  1  0  0  0
 79162  1  0  0  0
 80 82  1  0  0  0
 80163  1  0  0  0
 80164  1  0  0  0
 83 84  1  0  0  0
 85165  1  0  0  0
M  ISO  4   1 100  68 101  80 101  85 100
M  END
> <chiral flag>
0

> <version>
0

> <s_m_source_file>
/data/baiqing/PycharmProjects/Reinvent-master-3.2/result/LINK_invent/BTK/process_docking_weight1_custom_sum_contain_oxygen_bond_distance_aromatic_linkinvent_7_9_3/rearranged_h_0063.sdf

> <i_m_source_file_index>
28

> <r_mmod_Potential_Energy-OPLS-2005>
163.744384765625

> <r_mmod_Stretch_Energy-OPLS-2005>
156.510513305664

> <r_mmod_Bend_Energy-OPLS-2005>
220.119079589844

> <r_mmod_Torsional_Energy-OPLS-2005>
228.226699829102

> <r_mmod_Improper_Torsional_Energy-OPLS-2005>
4.69718551635742

> <r_mmod_Van_der_Waal_Energy-OPLS-2005>
119.67310333252

> <r_mmod_Electrostatic_Energy-OPLS-2005>
-453.989624023438

> <r_mmod_Solvation_Energy-OPLS-2005>
-211.536376953125

> <b_mmod_Minimization_Converged-OPLS-2005>
0

> <r_mmod_RMS_Derivative-OPLS-2005>
6.68952798843384

$$$$
30
                    3D
 Structure written by MMmdl.
175183  0  0  1  0            999 V2000
  -30.6473  -14.7563   20.4580 C   0  0  0  0  0  0
  -30.4280  -12.4584   19.4925 C   0  0  0  0  0  0
  -29.5023  -12.4770   18.2560 C   0  0  0  0  0  0
  -28.0350  -12.2619   18.6730 C   0  0  0  0  0  0
  -27.6338  -13.1798   19.8513 C   0  0  2  0  0  0
  -28.6886  -13.1654   20.9877 C   0  0  0  0  0  0
  -25.2467  -13.8043   20.5674 C   0  0  0  0  0  0
  -24.1765  -13.0368   20.9246 C   0  0  0  0  0  0
  -24.6361  -11.6837   20.8910 C   0  0  0  0  0  0
  -23.9052  -10.4260   21.0541 C   0  0  0  0  0  0
  -24.3611   -9.4161   21.9315 C   0  0  0  0  0  0
  -23.6287   -8.2194   22.0808 C   0  0  0  0  0  0
  -22.4280   -8.0267   21.3557 C   0  0  0  0  0  0
  -21.9933   -9.0267   20.4693 C   0  0  0  0  0  0
  -22.7265  -10.2148   20.3158 C   0  0  0  0  0  0
  -21.6834   -6.0776   22.5267 C   0  0  0  0  0  0
  -21.4009   -6.5674   23.8207 C   0  0  0  0  0  0
  -21.3652   -5.6825   24.9163 C   0  0  0  0  0  0
  -21.6039   -4.3086   24.7216 C   0  0  0  0  0  0
  -21.8817   -3.8191   23.4319 C   0  0  0  0  0  0
  -21.9182   -4.7007   22.3381 C   0  0  0  0  0  0
  -22.7808  -13.5192   21.1855 C   0  0  0  0  0  0
  -22.1660   -4.2198   21.0960 F   0  0  0  0  0  0
  -21.5601   -3.4565   25.7726 F   0  0  0  0  0  0
  -29.9833  -13.5429   20.4048 N   0  0  0  0  0  0
  -26.2877  -12.9155   20.3355 N   0  0  0  0  0  0
  -25.9270  -11.6373   20.5984 N   0  0  0  0  0  0
  -22.0449  -12.8237   22.0440 N   0  0  0  0  0  0
  -25.4016  -15.1767   20.3931 N   0  0  0  0  0  0
  -31.8366  -14.7391   20.1490 O   0  0  0  0  0  0
  -21.6608   -6.8902   21.4240 O   0  0  0  0  0  0
  -22.3544  -14.5534   20.6680 O   0  0  0  0  0  0
  -24.6286  -31.8544   23.2038 C   0  0  0  0  0  0
  -25.9131  -32.4743   23.8370 C   0  0  1  0  0  0
  -27.2177  -27.2741   20.1424 C   0  0  0  0  0  0
  -25.5948  -33.8556   24.2287 N   0  0  0  0  0  0
  -23.4270  -30.4794   21.5448 C   0  0  2  0  0  0
  -24.8764  -28.9267   20.1154 C   0  0  0  0  0  0
  -22.7494  -29.4600   22.4930 C   0  0  0  0  0  0
  -18.0286  -28.1371   22.8478 C   0  0  0  0  0  0
  -24.1484  -36.7270   23.2640 C   0  0  0  0  0  0
  -25.9704  -30.7670   21.3892 C   0  0  0  0  0  0
  -26.0452  -29.3914   20.7338 C   0  0  0  0  0  0
  -27.2206  -28.5761   20.7417 C   0  0  0  0  0  0
  -26.0368  -26.8808   19.4790 C   0  0  0  0  0  0
  -24.8755  -27.6756   19.4794 C   0  0  0  0  0  0
  -23.6466  -29.8123   20.1618 C   0  0  0  0  0  0
  -25.4109  -36.3060   24.0332 C   0  0  1  0  0  0
  -20.5883  -28.3690   23.1268 C   0  0  2  0  0  0
  -20.6779  -26.9410   22.5413 C   0  0  0  0  0  0
  -19.5766  -26.6371   21.5203 C   0  0  0  0  0  0
  -18.1941  -26.7912   22.1612 C   0  0  0  0  0  0
  -19.1537  -28.8845   23.2863 C   0  0  0  0  0  0
  -18.9466  -30.1450   23.8874 C   0  0  0  0  0  0
  -17.6466  -30.6581   24.0547 C   0  0  0  0  0  0
  -25.9051  -34.9427   23.5092 C   0  0  0  0  0  0
  -16.5355  -29.9076   23.6330 C   0  0  0  0  0  0
  -16.7272  -28.6487   23.0359 C   0  0  0  0  0  0
  -26.4523  -31.6576   25.0753 C   0  0  0  0  0  0
  -25.3785  -31.3718   26.1505 C   0  0  0  0  0  0
  -27.0394  -30.2984   24.6275 C   0  0  0  0  0  0
  -27.6082  -32.4337   25.7527 C   0  0  0  0  0  0
  -27.5574  -37.1797   24.8466 C   0  0  0  0  0  0
  -21.4206  -29.3030   22.3659 N   0  0  0  0  0  0
  -26.4285  -37.3765   23.9406 N   0  0  0  0  0  0
  -24.6930  -31.0542   22.0994 N   0  0  0  0  0  0
  -23.4177  -28.8144   23.3037 O   0  0  0  0  0  0
  -28.3048  -26.3735   20.1368 O   0  0  0  0  0  0
  -26.5632  -34.8905   22.4666 O   0  0  0  0  0  0
  -23.5447  -32.1385   23.7349 O   0  0  0  0  0  0
  -29.4571  -21.0420   20.3057 C   0  0  0  0  0  0
  -30.0820  -18.9855   19.8810 C   0  0  0  0  0  0
  -29.0292  -24.8902   23.4999 C   0  0  0  0  0  0
  -30.4118  -20.6137   16.3863 C   0  0  0  0  0  0
  -28.5219  -16.3354   20.2947 C   0  0  0  0  0  0
  -30.0170  -16.4422   22.2368 C   0  0  0  0  0  0
  -26.8911  -24.7454   21.4833 C   0  0  0  0  0  0
  -28.9982  -22.3617   21.0107 C   0  0  0  0  0  0
  -29.2441  -25.5403   22.1206 C   0  0  0  0  0  0
  -28.9011  -23.7786   20.2226 C   0  0  0  0  0  0
  -30.3385  -19.3988   17.3334 C   0  0  0  0  0  0
  -30.7461  -17.5135   19.9309 C   0  0  2  0  0  0
  -30.0071  -16.2433   20.7044 C   0  0  0  0  0  0
  -28.3072  -25.1049   20.9567 C   0  0  2  0  0  0
  -32.2873  -17.7145   20.2306 C   0  0  0  0  0  0
  -29.7332  -19.8128   20.9136 N   0  0  0  0  0  0
  -29.5744  -20.9922   18.9917 N   0  0  0  0  0  0
  -30.0142  -19.7211   18.7288 N   0  0  0  0  0  0
  -30.7506  -16.9526   18.6206 O   0  0  0  0  0  0
  -32.5838  -17.5152   21.5107 F   0  0  0  0  0  0
  -32.6871  -18.9541   19.9314 F   0  0  0  0  0  0
  -33.0673  -16.9122   19.5018 F   0  0  0  0  0  0
  -31.4630  -12.5692   19.1730 H   0  0  0  0  0  0
  -30.3876  -11.4932   19.9981 H   0  0  0  0  0  0
  -29.8024  -11.7050   17.5466 H   0  0  0  0  0  0
  -29.6031  -13.4309   17.7375 H   0  0  0  0  0  0
  -27.9185  -11.2178   18.9673 H   0  0  0  0  0  0
  -27.3695  -12.4219   17.8249 H   0  0  0  0  0  0
  -27.5887  -14.1540   19.3902 H   0  0  0  0  0  0
  -28.7584  -12.1731   21.4354 H   0  0  0  0  0  0
  -28.4057  -13.8184   21.8113 H   0  0  0  0  0  0
  -25.2758   -9.5600   22.4919 H   0  0  0  0  0  0
  -23.9996   -7.4555   22.7489 H   0  0  0  0  0  0
  -21.0879   -8.8815   19.8974 H   0  0  0  0  0  0
  -22.3774  -10.9723   19.6272 H   0  0  0  0  0  0
  -21.2027   -7.6194   23.9710 H   0  0  0  0  0  0
  -21.1468   -6.0566   25.9057 H   0  0  0  0  0  0
  -22.0613   -2.7654   23.2796 H   0  0  0  0  0  0
  -22.4053  -11.9859   22.4783 H   0  0  0  0  0  0
  -21.1088  -13.1298   22.2685 H   0  0  0  0  0  0
  -24.6316  -15.8218   20.5422 H   0  0  0  0  0  0
  -26.2363  -15.6324   20.0500 H   0  0  0  0  0  0
  -26.7194  -32.5395   23.1113 H   0  0  0  0  0  0
  -25.0099  -33.9707   25.0436 H   0  0  0  0  0  0
  -22.7211  -31.2997   21.3991 H   0  0  0  0  0  0
  -23.3760  -35.9589   23.3285 H   0  0  0  0  0  0
  -24.3566  -36.8906   22.2055 H   0  0  0  0  0  0
  -23.7234  -37.6466   23.6673 H   0  0  0  0  0  0
  -26.1172  -31.5279   20.6233 H   0  0  0  0  0  0
  -26.8444  -30.8102   22.0274 H   0  0  0  0  0  0
  -28.1130  -28.9214   21.2447 H   0  0  0  0  0  0
  -26.0043  -25.9202   18.9847 H   0  0  0  0  0  0
  -23.9853  -27.3120   18.9838 H   0  0  0  0  0  0
  -23.7744  -30.5886   19.4070 H   0  0  0  0  0  0
  -22.7633  -29.2484   19.8526 H   0  0  0  0  0  0
  -25.1283  -36.1907   25.0831 H   0  0  0  0  0  0
  -20.9965  -28.3271   24.1391 H   0  0  0  0  0  0
  -20.5665  -26.2294   23.3615 H   0  0  0  0  0  0
  -21.6647  -26.7428   22.1209 H   0  0  0  0  0  0
  -19.6930  -25.6275   21.1241 H   0  0  0  0  0  0
  -19.6702  -27.3169   20.6725 H   0  0  0  0  0  0
  -17.4206  -26.6646   21.4024 H   0  0  0  0  0  0
  -18.0356  -26.0057   22.9010 H   0  0  0  0  0  0
  -19.7950  -30.7267   24.2232 H   0  0  0  0  0  0
  -17.5029  -31.6261   24.5146 H   0  0  0  0  0  0
  -15.5361  -30.2966   23.7674 H   0  0  0  0  0  0
  -15.8675  -28.0797   22.7095 H   0  0  0  0  0  0
  -24.5941  -30.7072   25.7855 H   0  0  0  0  0  0
  -24.9013  -32.2881   26.4988 H   0  0  0  0  0  0
  -25.8142  -30.8870   27.0251 H   0  0  0  0  0  0
  -26.2992  -29.6723   24.1269 H   0  0  0  0  0  0
  -27.4017  -29.7253   25.4825 H   0  0  0  0  0  0
  -27.8890  -30.4235   23.9559 H   0  0  0  0  0  0
  -27.2664  -33.3618   26.2126 H   0  0  0  0  0  0
  -28.3882  -32.6937   25.0356 H   0  0  0  0  0  0
  -28.0770  -31.8468   26.5444 H   0  0  0  0  0  0
  -28.2591  -38.0097   24.7499 H   0  0  0  0  0  0
  -28.1069  -36.2623   24.6289 H   0  0  0  0  0  0
  -27.2284  -37.1427   25.8872 H   0  0  0  0  0  0
  -20.9395  -29.8724   21.6830 H   0  0  0  0  0  0
  -26.0153  -38.2827   24.1447 H   0  0  0  0  0  0
  -29.7461  -25.2822   24.2192 H   0  0  0  0  0  0
  -29.1621  -23.8127   23.4799 H   0  0  0  0  0  0
  -28.0364  -25.1046   23.8963 H   0  0  0  0  0  0
  -29.4720  -21.1682   16.3554 H   0  0  0  0  0  0
  -30.6434  -20.3062   15.3673 H   0  0  0  0  0  0
  -31.1991  -21.2992   16.7031 H   0  0  0  0  0  0
  -27.8962  -15.7184   20.9294 H   0  0  0  0  0  0
  -28.1220  -17.3386   20.4264 H   0  0  0  0  0  0
  -28.3741  -16.0774   19.2456 H   0  0  0  0  0  0
  -29.3098  -15.7639   22.7220 H   0  0  0  0  0  0
  -29.7352  -17.4578   22.5182 H   0  0  0  0  0  0
  -30.9912  -16.2321   22.6753 H   0  0  0  0  0  0
  -26.9166  -23.9416   22.2177 H   0  0  0  0  0  0
  -26.2454  -24.3927   20.6814 H   0  0  0  0  0  0
  -26.3965  -25.5868   21.9712 H   0  0  0  0  0  0
  -29.6822  -22.4989   21.8462 H   0  0  0  0  0  0
  -28.0277  -22.1445   21.4499 H   0  0  0  0  0  0
  -30.2799  -25.3934   21.8091 H   0  0  0  0  0  0
  -29.1408  -26.6158   22.2789 H   0  0  0  0  0  0
  -29.8952  -24.0177   19.8493 H   0  0  0  0  0  0
  -28.3089  -23.6051   19.3236 H   0  0  0  0  0  0
  -31.3133  -18.9137   17.3075 H   0  0  0  0  0  0
  -29.6038  -18.6790   16.9720 H   0  0  0  0  0  0
  -31.4434  -16.2931   18.6402 H   0  0  0  0  0  0
  1 25  1  0  0  0
  1 30  2  0  0  0
  1 83  1  0  0  0
  2  3  1  0  0  0
  2 25  1  0  0  0
  2 93  1  0  0  0
  2 94  1  0  0  0
  3  4  1  0  0  0
  3 95  1  0  0  0
  3 96  1  0  0  0
  4  5  1  0  0  0
  4 97  1  0  0  0
  4 98  1  0  0  0
  5  6  1  0  0  0
  5 26  1  0  0  0
  5 99  1  0  0  0
  6 25  1  0  0  0
  6100  1  0  0  0
  6101  1  0  0  0
  7  8  2  0  0  0
  7 26  1  0  0  0
  7 29  1  0  0  0
  8  9  1  0  0  0
  8 22  1  0  0  0
  9 10  1  0  0  0
  9 27  2  0  0  0
 10 11  2  0  0  0
 10 15  1  0  0  0
 11 12  1  0  0  0
 11102  1  0  0  0
 12 13  2  0  0  0
 12103  1  0  0  0
 13 14  1  0  0  0
 13 31  1  0  0  0
 14 15  2  0  0  0
 14104  1  0  0  0
 15105  1  0  0  0
 16 17  2  0  0  0
 16 21  1  0  0  0
 16 31  1  0  0  0
 17 18  1  0  0  0
 17106  1  0  0  0
 18 19  2  0  0  0
 18107  1  0  0  0
 19 20  1  0  0  0
 19 24  1  0  0  0
 20 21  2  0  0  0
 20108  1  0  0  0
 21 23  1  0  0  0
 22 28  1  0  0  0
 22 32  2  0  0  0
 26 27  1  0  0  0
 28109  1  0  0  0
 28110  1  0  0  0
 29111  1  0  0  0
 29112  1  0  0  0
 33 34  1  0  0  0
 33 66  1  0  0  0
 33 70  2  0  0  0
 34 36  1  0  0  0
 34 59  1  0  0  0
 34113  1  0  0  0
 35 44  2  0  0  0
 35 45  1  0  0  0
 35 68  1  0  0  0
 36 56  1  0  0  0
 36114  1  0  0  0
 37 39  1  0  0  0
 37 47  1  0  0  0
 37 66  1  0  0  0
 37115  1  0  0  0
 38 43  2  0  0  0
 38 46  1  0  0  0
 38 47  1  0  0  0
 39 64  1  0  0  0
 39 67  2  0  0  0
 40 52  1  0  0  0
 40 53  2  0  0  0
 40 58  1  0  0  0
 41116  1  0  0  0
 41117  1  0  0  0
 41118  1  0  0  0
 41 48  1  0  0  0
 42 43  1  0  0  0
 42 66  1  0  0  0
 42119  1  0  0  0
 42120  1  0  0  0
 43 44  1  0  0  0
 44121  1  0  0  0
 45 46  2  0  0  0
 45122  1  0  0  0
 46123  1  0  0  0
 47124  1  0  0  0
 47125  1  0  0  0
 48 56  1  0  0  0
 48 65  1  0  0  0
 48126  1  0  0  0
 49 50  1  0  0  0
 49 53  1  0  0  0
 49 64  1  0  0  0
 49127  1  0  0  0
 50 51  1  0  0  0
 50128  1  0  0  0
 50129  1  0  0  0
 51 52  1  0  0  0
 51130  1  0  0  0
 51131  1  0  0  0
 52132  1  0  0  0
 52133  1  0  0  0
 53 54  1  0  0  0
 54 55  2  0  0  0
 54134  1  0  0  0
 55 57  1  0  0  0
 55135  1  0  0  0
 56 69  2  0  0  0
 57 58  2  0  0  0
 57136  1  0  0  0
 58137  1  0  0  0
 59 60  1  0  0  0
 59 61  1  0  0  0
 59 62  1  0  0  0
 60138  1  0  0  0
 60139  1  0  0  0
 60140  1  0  0  0
 61141  1  0  0  0
 61142  1  0  0  0
 61143  1  0  0  0
 62144  1  0  0  0
 62145  1  0  0  0
 62146  1  0  0  0
 63 65  1  0  0  0
 63147  1  0  0  0
 63148  1  0  0  0
 63149  1  0  0  0
 64150  1  0  0  0
 65151  1  0  0  0
 68 84  1  0  0  0
 71 78  1  0  0  0
 71 86  1  0  0  0
 71 87  2  0  0  0
 72 82  1  0  0  0
 72 86  2  0  0  0
 72 88  1  0  0  0
 73 79  1  0  0  0
 73152  1  0  0  0
 73153  1  0  0  0
 73154  1  0  0  0
 74 81  1  0  0  0
 74155  1  0  0  0
 74156  1  0  0  0
 74157  1  0  0  0
 75158  1  0  0  0
 75159  1  0  0  0
 75160  1  0  0  0
 75 83  1  0  0  0
 76 83  1  0  0  0
 76161  1  0  0  0
 76162  1  0  0  0
 76163  1  0  0  0
 77164  1  0  0  0
 77165  1  0  0  0
 77166  1  0  0  0
 77 84  1  0  0  0
 78 80  1  0  0  0
 78167  1  0  0  0
 78168  1  0  0  0
 79 84  1  0  0  0
 79169  1  0  0  0
 79170  1  0  0  0
 80 84  1  0  0  0
 80171  1  0  0  0
 80172  1  0  0  0
 81 88  1  0  0  0
 81173  1  0  0  0
 81174  1  0  0  0
 82 83  1  0  0  0
 82 85  1  0  0  0
 82 89  1  0  0  0
 85 90  1  0  0  0
 85 91  1  0  0  0
 85 92  1  0  0  0
 87 88  1  0  0  0
 89175  1  0  0  0
M  ISO  4   1 100  68 101  83 100  84 101
M  END
> <chiral flag>
0

> <version>
0

> <s_m_source_file>
/data/baiqing/PycharmProjects/Reinvent-master-3.2/result/LINK_invent/BTK/process_docking_weight1_custom_sum_contain_oxygen_bond_distance_aromatic_linkinvent_7_9_3/rearranged_h_0063.sdf

> <i_m_source_file_index>
29

> <r_mmod_Potential_Energy-OPLS-2005>
420.886260986328

> <r_mmod_Stretch_Energy-OPLS-2005>
156.230651855469

> <r_mmod_Bend_Energy-OPLS-2005>
223.748626708984

> <r_mmod_Torsional_Energy-OPLS-2005>
266.594451904297

> <r_mmod_Improper_Torsional_Energy-OPLS-2005>
4.56794881820679

> <r_mmod_Van_der_Waal_Energy-OPLS-2005>
169.001434326172

> <r_mmod_Electrostatic_Energy-OPLS-2005>
-305.781372070312

> <r_mmod_Solvation_Energy-OPLS-2005>
-178.427368164062

> <b_mmod_Minimization_Converged-OPLS-2005>
0

> <r_mmod_RMS_Derivative-OPLS-2005>
5.36588335037231

$$$$
31
                    3D
 Structure written by MMmdl.
151159  0  0  1  0            999 V2000
  -30.5549  -14.8981   20.4779 C   0  0  0  0  0  0
  -30.4349  -12.5620   19.4956 C   0  0  0  0  0  0
  -29.5169  -12.5571   18.2508 C   0  0  0  0  0  0
  -28.0426  -12.3508   18.6540 C   0  0  0  0  0  0
  -27.6329  -13.2405   19.8568 C   0  0  2  0  0  0
  -28.6790  -13.1635   20.9893 C   0  0  0  0  0  0
  -25.2400  -13.8182   20.5642 C   0  0  0  0  0  0
  -24.1753  -13.0405   20.9232 C   0  0  0  0  0  0
  -24.6389  -11.6895   20.8772 C   0  0  0  0  0  0
  -23.9084  -10.4274   21.0409 C   0  0  0  0  0  0
  -24.3629   -9.4192   21.9190 C   0  0  0  0  0  0
  -23.6304   -8.2231   22.0761 C   0  0  0  0  0  0
  -22.4294   -8.0271   21.3546 C   0  0  0  0  0  0
  -21.9927   -9.0240   20.4650 C   0  0  0  0  0  0
  -22.7260  -10.2113   20.3048 C   0  0  0  0  0  0
  -21.6851   -6.0740   22.5291 C   0  0  0  0  0  0
  -21.4020   -6.5643   23.8228 C   0  0  0  0  0  0
  -21.3673   -5.6797   24.9188 C   0  0  0  0  0  0
  -21.6043   -4.3054   24.7232 C   0  0  0  0  0  0
  -21.8807   -3.8149   23.4353 C   0  0  0  0  0  0
  -21.9186   -4.6972   22.3412 C   0  0  0  0  0  0
  -22.7775  -13.5176   21.1902 C   0  0  0  0  0  0
  -22.1643   -4.2157   21.0991 F   0  0  0  0  0  0
  -21.5632   -3.4541   25.7743 F   0  0  0  0  0  0
  -29.9498  -13.6362   20.4145 N   0  0  0  0  0  0
  -26.2867  -12.9424   20.3278 N   0  0  0  0  0  0
  -25.9320  -11.6553   20.5775 N   0  0  0  0  0  0
  -22.0438  -12.8172   22.0467 N   0  0  0  0  0  0
  -25.3877  -15.1917   20.3939 N   0  0  0  0  0  0
  -31.7350  -14.9527   20.1053 O   0  0  0  0  0  0
  -21.6630   -6.8883   21.4253 O   0  0  0  0  0  0
  -22.3454  -14.5485   20.6750 O   0  0  0  0  0  0
  -24.6392  -31.8518   23.1928 C   0  0  0  0  0  0
  -25.9202  -32.4730   23.8295 C   0  0  1  0  0  0
  -27.2064  -27.1820   20.1450 C   0  0  0  0  0  0
  -25.5990  -33.8535   24.2227 N   0  0  0  0  0  0
  -23.4399  -30.4750   21.5367 C   0  0  2  0  0  0
  -24.8855  -28.9109   20.1086 C   0  0  0  0  0  0
  -22.7557  -29.4581   22.4845 C   0  0  0  0  0  0
  -18.0317  -28.1386   22.8486 C   0  0  0  0  0  0
  -24.1506  -36.7271   23.2637 C   0  0  0  0  0  0
  -25.9936  -30.7377   21.3880 C   0  0  0  0  0  0
  -26.0616  -29.3549   20.7258 C   0  0  0  0  0  0
  -27.2247  -28.5061   20.7287 C   0  0  0  0  0  0
  -26.0061  -26.8271   19.4927 C   0  0  0  0  0  0
  -24.8673  -27.6583   19.4782 C   0  0  0  0  0  0
  -23.6673  -29.8170   20.1507 C   0  0  0  0  0  0
  -25.4136  -36.3054   24.0317 C   0  0  1  0  0  0
  -20.5931  -28.3720   23.1245 C   0  0  2  0  0  0
  -20.6817  -26.9426   22.5407 C   0  0  0  0  0  0
  -19.5783  -26.6372   21.5228 C   0  0  0  0  0  0
  -18.1960  -26.7928   22.1627 C   0  0  0  0  0  0
  -19.1574  -28.8868   23.2863 C   0  0  0  0  0  0
  -18.9480  -30.1466   23.8882 C   0  0  0  0  0  0
  -17.6475  -30.6579   24.0565 C   0  0  0  0  0  0
  -25.9083  -34.9430   23.5068 C   0  0  0  0  0  0
  -16.5371  -29.9072   23.6328 C   0  0  0  0  0  0
  -16.7304  -28.6497   23.0345 C   0  0  0  0  0  0
  -26.4520  -31.6573   25.0719 C   0  0  0  0  0  0
  -25.3701  -31.3766   26.1410 C   0  0  0  0  0  0
  -27.0385  -30.2973   24.6275 C   0  0  0  0  0  0
  -27.6043  -32.4329   25.7522 C   0  0  0  0  0  0
  -27.5592  -37.1800   24.8451 C   0  0  0  0  0  0
  -21.4253  -29.3057   22.3609 N   0  0  0  0  0  0
  -26.4298  -37.3765   23.9399 N   0  0  0  0  0  0
  -24.7099  -31.0415   22.0940 N   0  0  0  0  0  0
  -23.4241  -28.8120   23.2963 O   0  0  0  0  0  0
  -28.2689  -26.2258   20.2136 O   0  0  0  0  0  0
  -26.5633  -34.8913   22.4627 O   0  0  0  0  0  0
  -23.5525  -32.1381   23.7177 O   0  0  0  0  0  0
  -29.3226  -19.7012   21.5709 C   0  0  0  0  0  0
  -29.0255  -21.1161   21.6098 C   0  0  0  0  0  0
  -29.6373  -19.0376   20.3451 C   0  0  0  0  0  0
  -29.0545  -21.9244   20.4257 C   0  0  0  0  0  0
  -28.7353  -16.2053   21.6373 C   0  0  0  0  0  0
  -29.1400  -23.5640   20.4631 C   0  0  0  0  0  0
  -30.2895  -17.5317   20.1635 C   0  0  0  0  0  0
  -28.0018  -24.7096   20.0960 C   0  0  0  0  0  0
  -29.5996  -19.8698   19.2400 N   0  0  0  0  0  0
  -29.3365  -21.2215   19.2725 N   0  0  0  0  0  0
  -29.8268  -16.1179   20.6660 N   0  0  0  0  0  0
  -28.7968  -21.7046   22.8102 F   0  0  0  0  0  0
  -31.4736  -12.7068   19.1957 H   0  0  0  0  0  0
  -30.4107  -11.5855   19.9827 H   0  0  0  0  0  0
  -29.8297  -11.7810   17.5520 H   0  0  0  0  0  0
  -29.6200  -13.5058   17.7225 H   0  0  0  0  0  0
  -27.9131  -11.3007   18.9141 H   0  0  0  0  0  0
  -27.3857  -12.5355   17.8032 H   0  0  0  0  0  0
  -27.6210  -14.2649   19.4839 H   0  0  0  0  0  0
  -28.7716  -12.1375   21.3486 H   0  0  0  0  0  0
  -28.3737  -13.7158   21.8723 H   0  0  0  0  0  0
  -25.2766   -9.5676   22.4780 H   0  0  0  0  0  0
  -24.0000   -7.4632   22.7495 H   0  0  0  0  0  0
  -21.0847   -8.8772   19.8976 H   0  0  0  0  0  0
  -22.3721  -10.9650   19.6154 H   0  0  0  0  0  0
  -21.2006   -7.6147   23.9742 H   0  0  0  0  0  0
  -21.1520   -6.0520   25.9100 H   0  0  0  0  0  0
  -22.0576   -2.7611   23.2845 H   0  0  0  0  0  0
  -22.4048  -11.9803   22.4802 H   0  0  0  0  0  0
  -21.1073  -13.1215   22.2729 H   0  0  0  0  0  0
  -24.6048  -15.8243   20.5209 H   0  0  0  0  0  0
  -26.2023  -15.6471   20.0042 H   0  0  0  0  0  0
  -26.7266  -32.5340   23.1025 H   0  0  0  0  0  0
  -25.0202  -33.9659   25.0415 H   0  0  0  0  0  0
  -22.7396  -31.3003   21.3889 H   0  0  0  0  0  0
  -23.3784  -35.9583   23.3271 H   0  0  0  0  0  0
  -24.3599  -36.8930   22.2056 H   0  0  0  0  0  0
  -23.7241  -37.6453   23.6685 H   0  0  0  0  0  0
  -26.1553  -31.4980   20.6230 H   0  0  0  0  0  0
  -26.8629  -30.7763   22.0339 H   0  0  0  0  0  0
  -28.1187  -28.8410   21.2355 H   0  0  0  0  0  0
  -25.9127  -25.8702   19.0026 H   0  0  0  0  0  0
  -23.9685  -27.3140   18.9847 H   0  0  0  0  0  0
  -23.8220  -30.6020   19.4088 H   0  0  0  0  0  0
  -22.7790  -29.2749   19.8212 H   0  0  0  0  0  0
  -25.1321  -36.1890   25.0808 H   0  0  0  0  0  0
  -21.0044  -28.3315   24.1360 H   0  0  0  0  0  0
  -20.5753  -26.2325   23.3624 H   0  0  0  0  0  0
  -21.6674  -26.7455   22.1176 H   0  0  0  0  0  0
  -19.6946  -25.6280   21.1264 H   0  0  0  0  0  0
  -19.6721  -27.3176   20.6755 H   0  0  0  0  0  0
  -17.4247  -26.6709   21.4010 H   0  0  0  0  0  0
  -18.0326  -26.0058   22.9004 H   0  0  0  0  0  0
  -19.7953  -30.7288   24.2246 H   0  0  0  0  0  0
  -17.5022  -31.6248   24.5181 H   0  0  0  0  0  0
  -15.5368  -30.2963   23.7643 H   0  0  0  0  0  0
  -15.8714  -28.0801   22.7053 H   0  0  0  0  0  0
  -24.5864  -30.7139   25.7723 H   0  0  0  0  0  0
  -24.8911  -32.2958   26.4787 H   0  0  0  0  0  0
  -25.7971  -30.8954   27.0218 H   0  0  0  0  0  0
  -26.2993  -29.6691   24.1297 H   0  0  0  0  0  0
  -27.4034  -29.7268   25.4825 H   0  0  0  0  0  0
  -27.8884  -30.4220   23.9565 H   0  0  0  0  0  0
  -27.2621  -33.3630   26.2073 H   0  0  0  0  0  0
  -28.3885  -32.6899   25.0387 H   0  0  0  0  0  0
  -28.0681  -31.8479   26.5474 H   0  0  0  0  0  0
  -28.2565  -38.0141   24.7537 H   0  0  0  0  0  0
  -28.1137  -36.2669   24.6231 H   0  0  0  0  0  0
  -27.2307  -37.1381   25.8850 H   0  0  0  0  0  0
  -20.9445  -29.8804   21.6825 H   0  0  0  0  0  0
  -26.0172  -38.2833   24.1410 H   0  0  0  0  0  0
  -29.3806  -19.1607   22.5034 H   0  0  0  0  0  0
  -28.4789  -17.2218   21.9139 H   0  0  0  0  0  0
  -28.9996  -15.6990   22.5664 H   0  0  0  0  0  0
  -27.8224  -15.7720   21.2411 H   0  0  0  0  0  0
  -30.0034  -23.8049   19.8450 H   0  0  0  0  0  0
  -29.4678  -23.8029   21.4742 H   0  0  0  0  0  0
  -31.3090  -17.6396   20.5355 H   0  0  0  0  0  0
  -30.4138  -17.4075   19.0872 H   0  0  0  0  0  0
  -27.1254  -24.4990   20.7115 H   0  0  0  0  0  0
  -27.6890  -24.5242   19.0685 H   0  0  0  0  0  0
  1 25  1  0  0  0
  1 30  2  0  0  0
  1 81  1  0  0  0
  2  3  1  0  0  0
  2 25  1  0  0  0
  2 83  1  0  0  0
  2 84  1  0  0  0
  3  4  1  0  0  0
  3 85  1  0  0  0
  3 86  1  0  0  0
  4  5  1  0  0  0
  4 87  1  0  0  0
  4 88  1  0  0  0
  5  6  1  0  0  0
  5 26  1  0  0  0
  5 89  1  0  0  0
  6 25  1  0  0  0
  6 90  1  0  0  0
  6 91  1  0  0  0
  7  8  2  0  0  0
  7 26  1  0  0  0
  7 29  1  0  0  0
  8  9  1  0  0  0
  8 22  1  0  0  0
  9 10  1  0  0  0
  9 27  2  0  0  0
 10 11  2  0  0  0
 10 15  1  0  0  0
 11 12  1  0  0  0
 11 92  1  0  0  0
 12 13  2  0  0  0
 12 93  1  0  0  0
 13 14  1  0  0  0
 13 31  1  0  0  0
 14 15  2  0  0  0
 14 94  1  0  0  0
 15 95  1  0  0  0
 16 17  2  0  0  0
 16 21  1  0  0  0
 16 31  1  0  0  0
 17 18  1  0  0  0
 17 96  1  0  0  0
 18 19  2  0  0  0
 18 97  1  0  0  0
 19 20  1  0  0  0
 19 24  1  0  0  0
 20 21  2  0  0  0
 20 98  1  0  0  0
 21 23  1  0  0  0
 22 28  1  0  0  0
 22 32  2  0  0  0
 26 27  1  0  0  0
 28 99  1  0  0  0
 28100  1  0  0  0
 29101  1  0  0  0
 29102  1  0  0  0
 33 34  1  0  0  0
 33 66  1  0  0  0
 33 70  2  0  0  0
 34 36  1  0  0  0
 34 59  1  0  0  0
 34103  1  0  0  0
 35 44  2  0  0  0
 35 45  1  0  0  0
 35 68  1  0  0  0
 36 56  1  0  0  0
 36104  1  0  0  0
 37 39  1  0  0  0
 37 47  1  0  0  0
 37 66  1  0  0  0
 37105  1  0  0  0
 38 43  2  0  0  0
 38 46  1  0  0  0
 38 47  1  0  0  0
 39 64  1  0  0  0
 39 67  2  0  0  0
 40 52  1  0  0  0
 40 53  2  0  0  0
 40 58  1  0  0  0
 41106  1  0  0  0
 41107  1  0  0  0
 41108  1  0  0  0
 41 48  1  0  0  0
 42 43  1  0  0  0
 42 66  1  0  0  0
 42109  1  0  0  0
 42110  1  0  0  0
 43 44  1  0  0  0
 44111  1  0  0  0
 45 46  2  0  0  0
 45112  1  0  0  0
 46113  1  0  0  0
 47114  1  0  0  0
 47115  1  0  0  0
 48 56  1  0  0  0
 48 65  1  0  0  0
 48116  1  0  0  0
 49 50  1  0  0  0
 49 53  1  0  0  0
 49 64  1  0  0  0
 49117  1  0  0  0
 50 51  1  0  0  0
 50118  1  0  0  0
 50119  1  0  0  0
 51 52  1  0  0  0
 51120  1  0  0  0
 51121  1  0  0  0
 52122  1  0  0  0
 52123  1  0  0  0
 53 54  1  0  0  0
 54 55  2  0  0  0
 54124  1  0  0  0
 55 57  1  0  0  0
 55125  1  0  0  0
 56 69  2  0  0  0
 57 58  2  0  0  0
 57126  1  0  0  0
 58127  1  0  0  0
 59 60  1  0  0  0
 59 61  1  0  0  0
 59 62  1  0  0  0
 60128  1  0  0  0
 60129  1  0  0  0
 60130  1  0  0  0
 61131  1  0  0  0
 61132  1  0  0  0
 61133  1  0  0  0
 62134  1  0  0  0
 62135  1  0  0  0
 62136  1  0  0  0
 63 65  1  0  0  0
 63137  1  0  0  0
 63138  1  0  0  0
 63139  1  0  0  0
 64140  1  0  0  0
 65141  1  0  0  0
 68 78  1  0  0  0
 71 72  2  0  0  0
 71 73  1  0  0  0
 71142  1  0  0  0
 72 74  1  0  0  0
 72 82  1  0  0  0
 73 77  1  0  0  0
 73 79  2  0  0  0
 74 76  1  0  0  0
 74 80  2  0  0  0
 75 81  1  0  0  0
 75143  1  0  0  0
 75144  1  0  0  0
 75145  1  0  0  0
 76 78  1  0  0  0
 76146  1  0  0  0
 76147  1  0  0  0
 77 81  1  0  0  0
 77148  1  0  0  0
 77149  1  0  0  0
 78150  1  0  0  0
 78151  1  0  0  0
 79 80  1  0  0  0
M  ISO  4   1 100  68 101  78 101  81 100
M  END
> <chiral flag>
0

> <version>
0

> <s_m_source_file>
/data/baiqing/PycharmProjects/Reinvent-master-3.2/result/LINK_invent/BTK/process_docking_weight1_custom_sum_contain_oxygen_bond_distance_aromatic_linkinvent_7_9_3/rearranged_h_0063.sdf

> <i_m_source_file_index>
30

> <r_mmod_Potential_Energy-OPLS-2005>
460.911102294922

> <r_mmod_Stretch_Energy-OPLS-2005>
212.393661499023

> <r_mmod_Bend_Energy-OPLS-2005>
260.705383300781

> <r_mmod_Torsional_Energy-OPLS-2005>
245.915374755859

> <r_mmod_Improper_Torsional_Energy-OPLS-2005>
11.1545352935791

> <r_mmod_Van_der_Waal_Energy-OPLS-2005>
147.375350952148

> <r_mmod_Electrostatic_Energy-OPLS-2005>
-340.291717529297

> <r_mmod_Solvation_Energy-OPLS-2005>
-224.713348388672

> <b_mmod_Minimization_Converged-OPLS-2005>
0

> <r_mmod_RMS_Derivative-OPLS-2005>
2.05347990989685

$$$$
32
                    3D
 Structure written by MMmdl.
166174  0  0  1  0            999 V2000
  -30.6175  -14.7605   20.5058 C   0  0  0  0  0  0
  -30.4281  -12.4770   19.4777 C   0  0  0  0  0  0
  -29.5098  -12.5186   18.2364 C   0  0  0  0  0  0
  -28.0364  -12.3354   18.6467 C   0  0  0  0  0  0
  -27.6391  -13.2275   19.8519 C   0  0  2  0  0  0
  -28.6787  -13.1628   20.9892 C   0  0  0  0  0  0
  -25.2471  -13.7989   20.5613 C   0  0  0  0  0  0
  -24.1778  -13.0310   20.9217 C   0  0  0  0  0  0
  -24.6392  -11.6816   20.8783 C   0  0  0  0  0  0
  -23.9060  -10.4227   21.0432 C   0  0  0  0  0  0
  -24.3604   -9.4156   21.9214 C   0  0  0  0  0  0
  -23.6267   -8.2203   22.0774 C   0  0  0  0  0  0
  -22.4254   -8.0251   21.3549 C   0  0  0  0  0  0
  -21.9895   -9.0230   20.4657 C   0  0  0  0  0  0
  -22.7236  -10.2100   20.3072 C   0  0  0  0  0  0
  -21.6843   -6.0718   22.5282 C   0  0  0  0  0  0
  -21.4007   -6.5627   23.8214 C   0  0  0  0  0  0
  -21.3657   -5.6781   24.9177 C   0  0  0  0  0  0
  -21.6043   -4.3046   24.7233 C   0  0  0  0  0  0
  -21.8826   -3.8135   23.4356 C   0  0  0  0  0  0
  -21.9193   -4.6948   22.3410 C   0  0  0  0  0  0
  -22.7823  -13.5172   21.1850 C   0  0  0  0  0  0
  -22.1660   -4.2131   21.0989 F   0  0  0  0  0  0
  -21.5621   -3.4533   25.7749 F   0  0  0  0  0  0
  -29.9764  -13.5384   20.4149 N   0  0  0  0  0  0
  -26.2930  -12.9268   20.3281 N   0  0  0  0  0  0
  -25.9333  -11.6427   20.5785 N   0  0  0  0  0  0
  -22.0439  -12.8216   22.0419 N   0  0  0  0  0  0
  -25.4098  -15.1596   20.3788 N   0  0  0  0  0  0
  -31.7816  -14.8444   20.0990 O   0  0  0  0  0  0
  -21.6617   -6.8852   21.4240 O   0  0  0  0  0  0
  -22.3557  -14.5489   20.6685 O   0  0  0  0  0  0
  -24.6295  -31.8548   23.1965 C   0  0  0  0  0  0
  -25.9118  -32.4755   23.8320 C   0  0  1  0  0  0
  -27.2361  -27.2757   20.1490 C   0  0  0  0  0  0
  -25.5915  -33.8558   24.2247 N   0  0  0  0  0  0
  -23.4275  -30.4736   21.5387 C   0  0  2  0  0  0
  -24.8781  -28.9092   20.1220 C   0  0  0  0  0  0
  -22.7487  -29.4595   22.4914 C   0  0  0  0  0  0
  -18.0286  -28.1387   22.8481 C   0  0  0  0  0  0
  -24.1482  -36.7290   23.2643 C   0  0  0  0  0  0
  -25.9694  -30.7746   21.3709 C   0  0  0  0  0  0
  -26.0464  -29.3927   20.7256 C   0  0  0  0  0  0
  -27.2301  -28.5900   20.7223 C   0  0  0  0  0  0
  -26.0462  -26.8432   19.5304 C   0  0  0  0  0  0
  -24.8810  -27.6402   19.5154 C   0  0  0  0  0  0
  -23.6475  -29.7966   20.1591 C   0  0  0  0  0  0
  -25.4112  -36.3073   24.0322 C   0  0  1  0  0  0
  -20.5890  -28.3689   23.1275 C   0  0  2  0  0  0
  -20.6778  -26.9408   22.5413 C   0  0  0  0  0  0
  -19.5753  -26.6377   21.5219 C   0  0  0  0  0  0
  -18.1931  -26.7926   22.1622 C   0  0  0  0  0  0
  -19.1541  -28.8853   23.2872 C   0  0  0  0  0  0
  -18.9462  -30.1457   23.8888 C   0  0  0  0  0  0
  -17.6461  -30.6588   24.0562 C   0  0  0  0  0  0
  -25.9047  -34.9442   23.5087 C   0  0  0  0  0  0
  -16.5350  -29.9088   23.6334 C   0  0  0  0  0  0
  -16.7275  -28.6504   23.0347 C   0  0  0  0  0  0
  -26.4501  -31.6581   25.0708 C   0  0  0  0  0  0
  -25.3727  -31.3735   26.1428 C   0  0  0  0  0  0
  -27.0354  -30.3003   24.6187 C   0  0  0  0  0  0
  -27.6044  -32.4331   25.7490 C   0  0  0  0  0  0
  -27.5573  -37.1798   24.8466 C   0  0  0  0  0  0
  -21.4195  -29.3041   22.3662 N   0  0  0  0  0  0
  -26.4286  -37.3775   23.9406 N   0  0  0  0  0  0
  -24.6947  -31.0523   22.0928 N   0  0  0  0  0  0
  -23.4180  -28.8144   23.3023 O   0  0  0  0  0  0
  -28.3632  -26.4329   20.1054 O   0  0  0  0  0  0
  -26.5633  -34.8918   22.4665 O   0  0  0  0  0  0
  -23.5444  -32.1348   23.7268 O   0  0  0  0  0  0
  -27.8168  -20.2899   20.6567 C   0  0  0  0  0  0
  -29.0170  -20.9470   20.6359 C   0  0  0  0  0  0
  -29.3529  -18.6372   20.4293 C   0  0  0  0  0  0
  -25.0706  -19.0950   19.1456 C   0  0  0  0  0  0
  -29.9440  -17.0490   18.5235 C   0  0  0  0  0  0
  -29.7094  -16.1651   22.2449 C   0  0  0  0  0  0
  -29.3262  -22.4792   20.8594 C   0  0  0  0  0  0
  -25.5222  -18.4597   20.4691 C   0  0  0  0  0  0
  -28.5137  -23.6674   20.1071 C   0  0  0  0  0  0
  -26.9680  -17.9040   20.4454 C   0  0  0  0  0  0
  -28.3775  -25.1188   20.8216 C   0  0  0  0  0  0
  -30.0972  -17.2666   20.0435 C   0  0  2  0  0  0
  -28.0294  -18.9228   20.5121 N   0  0  0  0  0  0
  -29.9316  -19.8809   20.5103 N   0  3  0  0  0  0
  -29.8941  -15.9311   20.8060 N   0  0  0  0  0  0
  -31.4681  -12.6025   19.1717 H   0  0  0  0  0  0
  -30.3799  -11.4982   19.9585 H   0  0  0  0  0  0
  -29.7971  -11.7397   17.5292 H   0  0  0  0  0  0
  -29.6329  -13.4686   17.7123 H   0  0  0  0  0  0
  -27.8946  -11.2844   18.9037 H   0  0  0  0  0  0
  -27.3793  -12.5295   17.7986 H   0  0  0  0  0  0
  -27.6332  -14.2527   19.4796 H   0  0  0  0  0  0
  -28.7248  -12.1616   21.4211 H   0  0  0  0  0  0
  -28.3899  -13.8295   21.8004 H   0  0  0  0  0  0
  -25.2746   -9.5633   22.4798 H   0  0  0  0  0  0
  -23.9968   -7.4596   22.7495 H   0  0  0  0  0  0
  -21.0830   -8.8762   19.8953 H   0  0  0  0  0  0
  -22.3708  -10.9651   19.6185 H   0  0  0  0  0  0
  -21.1993   -7.6135   23.9712 H   0  0  0  0  0  0
  -21.1471   -6.0514   25.9080 H   0  0  0  0  0  0
  -22.0611   -2.7592   23.2870 H   0  0  0  0  0  0
  -22.4002  -11.9876   22.4841 H   0  0  0  0  0  0
  -21.1076  -13.1309   22.2599 H   0  0  0  0  0  0
  -24.6098  -15.7814   20.3913 H   0  0  0  0  0  0
  -26.2247  -15.5567   19.9361 H   0  0  0  0  0  0
  -26.7186  -32.5424   23.1067 H   0  0  0  0  0  0
  -25.0053  -33.9697   25.0386 H   0  0  0  0  0  0
  -22.7239  -31.2948   21.3868 H   0  0  0  0  0  0
  -23.3740  -35.9625   23.3307 H   0  0  0  0  0  0
  -24.3576  -36.8915   22.2059 H   0  0  0  0  0  0
  -23.7237  -37.6492   23.6672 H   0  0  0  0  0  0
  -26.0991  -31.5290   20.5935 H   0  0  0  0  0  0
  -26.8500  -30.8334   21.9992 H   0  0  0  0  0  0
  -28.1321  -28.9636   21.1873 H   0  0  0  0  0  0
  -26.0203  -25.8714   19.0569 H   0  0  0  0  0  0
  -23.9857  -27.2624   19.0405 H   0  0  0  0  0  0
  -23.7722  -30.5672   19.3967 H   0  0  0  0  0  0
  -22.7676  -29.2258   19.8570 H   0  0  0  0  0  0
  -25.1295  -36.1921   25.0815 H   0  0  0  0  0  0
  -20.9982  -28.3271   24.1394 H   0  0  0  0  0  0
  -20.5684  -26.2298   23.3616 H   0  0  0  0  0  0
  -21.6644  -26.7437   22.1206 H   0  0  0  0  0  0
  -19.6916  -25.6289   21.1252 H   0  0  0  0  0  0
  -19.6698  -27.3180   20.6747 H   0  0  0  0  0  0
  -17.4207  -26.6671   21.4023 H   0  0  0  0  0  0
  -18.0321  -26.0075   22.9023 H   0  0  0  0  0  0
  -19.7939  -30.7276   24.2251 H   0  0  0  0  0  0
  -17.5019  -31.6269   24.5166 H   0  0  0  0  0  0
  -15.5351  -30.2989   23.7672 H   0  0  0  0  0  0
  -15.8668  -28.0834   22.7063 H   0  0  0  0  0  0
  -24.5894  -30.7092   25.7764 H   0  0  0  0  0  0
  -24.8926  -32.2907   26.4847 H   0  0  0  0  0  0
  -25.8036  -30.8919   27.0211 H   0  0  0  0  0  0
  -26.2938  -29.6736   24.1219 H   0  0  0  0  0  0
  -27.4059  -29.7284   25.4706 H   0  0  0  0  0  0
  -27.8799  -30.4295   23.9413 H   0  0  0  0  0  0
  -27.2644  -33.3639   26.2045 H   0  0  0  0  0  0
  -28.3869  -32.6876   25.0329 H   0  0  0  0  0  0
  -28.0692  -31.8469   26.5428 H   0  0  0  0  0  0
  -28.2592  -38.0095   24.7506 H   0  0  0  0  0  0
  -28.1062  -36.2619   24.6290 H   0  0  0  0  0  0
  -27.2290  -37.1456   25.8871 H   0  0  0  0  0  0
  -20.9376  -29.8757   21.6865 H   0  0  0  0  0  0
  -26.0156  -38.2848   24.1405 H   0  0  0  0  0  0
  -26.8326  -20.7216   20.7665 H   0  0  0  0  0  0
  -24.0454  -19.4586   19.2228 H   0  0  0  0  0  0
  -25.0978  -18.3661   18.3352 H   0  0  0  0  0  0
  -25.6959  -19.9377   18.8531 H   0  0  0  0  0  0
  -28.9278  -16.7608   18.2574 H   0  0  0  0  0  0
  -30.6125  -16.2761   18.1462 H   0  0  0  0  0  0
  -30.1797  -17.9630   17.9756 H   0  0  0  0  0  0
  -28.6898  -16.4586   22.4803 H   0  0  0  0  0  0
  -30.3749  -16.9554   22.5953 H   0  0  0  0  0  0
  -29.9308  -15.2870   22.8556 H   0  0  0  0  0  0
  -30.3903  -22.6361   20.6837 H   0  0  0  0  0  0
  -29.1986  -22.6442   21.9292 H   0  0  0  0  0  0
  -24.8276  -17.6561   20.7004 H   0  0  0  0  0  0
  -25.3948  -19.1556   21.2988 H   0  0  0  0  0  0
  -27.5005  -23.3176   19.9130 H   0  0  0  0  0  0
  -28.9584  -23.7959   19.1211 H   0  0  0  0  0  0
  -27.1265  -17.3059   19.5494 H   0  0  0  0  0  0
  -27.0964  -17.2463   21.3008 H   0  0  0  0  0  0
  -29.2419  -25.2053   21.4806 H   0  0  0  0  0  0
  -27.5275  -25.0850   21.5045 H   0  0  0  0  0  0
  -31.1478  -17.5124   20.2079 H   0  0  0  0  0  0
  -30.9349  -20.0143   20.4629 H   0  0  0  0  0  0
  1 25  1  0  0  0
  1 30  2  0  0  0
  1 85  1  0  0  0
  2  3  1  0  0  0
  2 25  1  0  0  0
  2 86  1  0  0  0
  2 87  1  0  0  0
  3  4  1  0  0  0
  3 88  1  0  0  0
  3 89  1  0  0  0
  4  5  1  0  0  0
  4 90  1  0  0  0
  4 91  1  0  0  0
  5  6  1  0  0  0
  5 26  1  0  0  0
  5 92  1  0  0  0
  6 25  1  0  0  0
  6 93  1  0  0  0
  6 94  1  0  0  0
  7  8  2  0  0  0
  7 26  1  0  0  0
  7 29  1  0  0  0
  8  9  1  0  0  0
  8 22  1  0  0  0
  9 10  1  0  0  0
  9 27  2  0  0  0
 10 11  2  0  0  0
 10 15  1  0  0  0
 11 12  1  0  0  0
 11 95  1  0  0  0
 12 13  2  0  0  0
 12 96  1  0  0  0
 13 14  1  0  0  0
 13 31  1  0  0  0
 14 15  2  0  0  0
 14 97  1  0  0  0
 15 98  1  0  0  0
 16 17  2  0  0  0
 16 21  1  0  0  0
 16 31  1  0  0  0
 17 18  1  0  0  0
 17 99  1  0  0  0
 18 19  2  0  0  0
 18100  1  0  0  0
 19 20  1  0  0  0
 19 24  1  0  0  0
 20 21  2  0  0  0
 20101  1  0  0  0
 21 23  1  0  0  0
 22 28  1  0  0  0
 22 32  2  0  0  0
 26 27  1  0  0  0
 28102  1  0  0  0
 28103  1  0  0  0
 29104  1  0  0  0
 29105  1  0  0  0
 33 34  1  0  0  0
 33 66  1  0  0  0
 33 70  2  0  0  0
 34 36  1  0  0  0
 34 59  1  0  0  0
 34106  1  0  0  0
 35 44  2  0  0  0
 35 45  1  0  0  0
 35 68  1  0  0  0
 36 56  1  0  0  0
 36107  1  0  0  0
 37 39  1  0  0  0
 37 47  1  0  0  0
 37 66  1  0  0  0
 37108  1  0  0  0
 38 43  2  0  0  0
 38 46  1  0  0  0
 38 47  1  0  0  0
 39 64  1  0  0  0
 39 67  2  0  0  0
 40 52  1  0  0  0
 40 53  2  0  0  0
 40 58  1  0  0  0
 41109  1  0  0  0
 41110  1  0  0  0
 41111  1  0  0  0
 41 48  1  0  0  0
 42 43  1  0  0  0
 42 66  1  0  0  0
 42112  1  0  0  0
 42113  1  0  0  0
 43 44  1  0  0  0
 44114  1  0  0  0
 45 46  2  0  0  0
 45115  1  0  0  0
 46116  1  0  0  0
 47117  1  0  0  0
 47118  1  0  0  0
 48 56  1  0  0  0
 48 65  1  0  0  0
 48119  1  0  0  0
 49 50  1  0  0  0
 49 53  1  0  0  0
 49 64  1  0  0  0
 49120  1  0  0  0
 50 51  1  0  0  0
 50121  1  0  0  0
 50122  1  0  0  0
 51 52  1  0  0  0
 51123  1  0  0  0
 51124  1  0  0  0
 52125  1  0  0  0
 52126  1  0  0  0
 53 54  1  0  0  0
 54 55  2  0  0  0
 54127  1  0  0  0
 55 57  1  0  0  0
 55128  1  0  0  0
 56 69  2  0  0  0
 57 58  2  0  0  0
 57129  1  0  0  0
 58130  1  0  0  0
 59 60  1  0  0  0
 59 61  1  0  0  0
 59 62  1  0  0  0
 60131  1  0  0  0
 60132  1  0  0  0
 60133  1  0  0  0
 61134  1  0  0  0
 61135  1  0  0  0
 61136  1  0  0  0
 62137  1  0  0  0
 62138  1  0  0  0
 62139  1  0  0  0
 63 65  1  0  0  0
 63140  1  0  0  0
 63141  1  0  0  0
 63142  1  0  0  0
 64143  1  0  0  0
 65144  1  0  0  0
 68 81  1  0  0  0
 71 72  2  0  0  0
 71 83  1  0  0  0
 71145  1  0  0  0
 72 77  1  0  0  0
 72 84  1  0  0  0
 73 82  1  0  0  0
 73 83  1  0  0  0
 73 84  2  0  0  0
 74 78  1  0  0  0
 74146  1  0  0  0
 74147  1  0  0  0
 74148  1  0  0  0
 75149  1  0  0  0
 75150  1  0  0  0
 75151  1  0  0  0
 75 82  1  0  0  0
 76 85  1  0  0  0
 76152  1  0  0  0
 76153  1  0  0  0
 76154  1  0  0  0
 77 79  1  0  0  0
 77155  1  0  0  0
 77156  1  0  0  0
 78 80  1  0  0  0
 78157  1  0  0  0
 78158  1  0  0  0
 79 81  1  0  0  0
 79159  1  0  0  0
 79160  1  0  0  0
 80 83  1  0  0  0
 80161  1  0  0  0
 80162  1  0  0  0
 81163  1  0  0  0
 81164  1  0  0  0
 82 85  1  0  0  0
 82165  1  0  0  0
 84166  1  0  0  0
M  CHG  1  84   1
M  ISO  4   1 100  68 101  81 101  85 100
M  END
> <chiral flag>
0

> <version>
0

> <s_m_source_file>
/data/baiqing/PycharmProjects/Reinvent-master-3.2/result/LINK_invent/BTK/process_docking_weight1_custom_sum_contain_oxygen_bond_distance_aromatic_linkinvent_7_9_3/rearranged_h_0063.sdf

> <i_m_source_file_index>
31

> <r_mmod_Potential_Energy-OPLS-2005>
310.305572509766

> <r_mmod_Stretch_Energy-OPLS-2005>
134.943115234375

> <r_mmod_Bend_Energy-OPLS-2005>
198.253967285156

> <r_mmod_Torsional_Energy-OPLS-2005>
316.984069824219

> <r_mmod_Improper_Torsional_Energy-OPLS-2005>
11.7756605148315

> <r_mmod_Van_der_Waal_Energy-OPLS-2005>
110.393409729004

> <r_mmod_Electrostatic_Energy-OPLS-2005>
-150.194915771484

> <r_mmod_Solvation_Energy-OPLS-2005>
-390.090881347656

> <b_mmod_Minimization_Converged-OPLS-2005>
0

> <r_mmod_RMS_Derivative-OPLS-2005>
1.46675395965576

$$$$
33
                    3D
 Structure written by MMmdl.
160168  0  0  1  0            999 V2000
  -30.5063  -15.0226   20.3843 C   0  0  0  0  0  0
  -30.4456  -12.6259   19.5184 C   0  0  0  0  0  0
  -29.5323  -12.5389   18.2718 C   0  0  0  0  0  0
  -28.0674  -12.3129   18.6886 C   0  0  0  0  0  0
  -27.6343  -13.2534   19.8435 C   0  0  2  0  0  0
  -28.6742  -13.3068   20.9840 C   0  0  0  0  0  0
  -25.2500  -13.8241   20.5738 C   0  0  0  0  0  0
  -24.1796  -13.0463   20.9221 C   0  0  0  0  0  0
  -24.6414  -11.6947   20.8772 C   0  0  0  0  0  0
  -23.9090  -10.4317   21.0440 C   0  0  0  0  0  0
  -24.3636   -9.4216   21.9203 C   0  0  0  0  0  0
  -23.6315   -8.2247   22.0768 C   0  0  0  0  0  0
  -22.4298   -8.0288   21.3552 C   0  0  0  0  0  0
  -21.9937   -9.0268   20.4656 C   0  0  0  0  0  0
  -22.7268  -10.2150   20.3075 C   0  0  0  0  0  0
  -21.6860   -6.0754   22.5286 C   0  0  0  0  0  0
  -21.4017   -6.5651   23.8219 C   0  0  0  0  0  0
  -21.3657   -5.6795   24.9174 C   0  0  0  0  0  0
  -21.6047   -4.3055   24.7221 C   0  0  0  0  0  0
  -21.8813   -3.8156   23.4336 C   0  0  0  0  0  0
  -21.9195   -4.6987   22.3397 C   0  0  0  0  0  0
  -22.7808  -13.5237   21.1857 C   0  0  0  0  0  0
  -22.1667   -4.2165   21.0982 F   0  0  0  0  0  0
  -21.5627   -3.4545   25.7736 F   0  0  0  0  0  0
  -29.9455  -13.7376   20.3878 N   0  0  0  0  0  0
  -26.2924  -12.9473   20.3282 N   0  0  0  0  0  0
  -25.9352  -11.6602   20.5780 N   0  0  0  0  0  0
  -22.0439  -12.8240   22.0405 N   0  0  0  0  0  0
  -25.4170  -15.1972   20.4185 N   0  0  0  0  0  0
  -31.6922  -15.0943   20.0458 O   0  0  0  0  0  0
  -21.6648   -6.8893   21.4241 O   0  0  0  0  0  0
  -22.3495  -14.5520   20.6671 O   0  0  0  0  0  0
  -24.6484  -31.8348   23.1792 C   0  0  0  0  0  0
  -25.9238  -32.4652   23.8204 C   0  0  1  0  0  0
  -27.2299  -27.0750   20.1459 C   0  0  0  0  0  0
  -25.5958  -33.8462   24.2114 N   0  0  0  0  0  0
  -23.4553  -30.4497   21.5237 C   0  0  2  0  0  0
  -24.9092  -28.8652   20.0951 C   0  0  0  0  0  0
  -22.7604  -29.4490   22.4808 C   0  0  0  0  0  0
  -18.0313  -28.1407   22.8470 C   0  0  0  0  0  0
  -24.1492  -36.7244   23.2638 C   0  0  0  0  0  0
  -26.0126  -30.6895   21.3841 C   0  0  0  0  0  0
  -26.0835  -29.2966   20.7217 C   0  0  0  0  0  0
  -27.2336  -28.4137   20.7341 C   0  0  0  0  0  0
  -26.0269  -26.7543   19.4871 C   0  0  0  0  0  0
  -24.8970  -27.6105   19.4615 C   0  0  0  0  0  0
  -23.6848  -29.7715   20.1440 C   0  0  0  0  0  0
  -25.4127  -36.3000   24.0292 C   0  0  1  0  0  0
  -20.5921  -28.3736   23.1227 C   0  0  2  0  0  0
  -20.6788  -26.9426   22.5419 C   0  0  0  0  0  0
  -19.5761  -26.6372   21.5230 C   0  0  0  0  0  0
  -18.1945  -26.7942   22.1633 C   0  0  0  0  0  0
  -19.1571  -28.8893   23.2837 C   0  0  0  0  0  0
  -18.9480  -30.1485   23.8871 C   0  0  0  0  0  0
  -17.6478  -30.6598   24.0558 C   0  0  0  0  0  0
  -25.9084  -34.9385   23.5016 C   0  0  0  0  0  0
  -16.5373  -29.9087   23.6333 C   0  0  0  0  0  0
  -16.7293  -28.6507   23.0351 C   0  0  0  0  0  0
  -26.4538  -31.6555   25.0684 C   0  0  0  0  0  0
  -25.3701  -31.3790   26.1368 C   0  0  0  0  0  0
  -27.0395  -30.2930   24.6312 C   0  0  0  0  0  0
  -27.6031  -32.4346   25.7501 C   0  0  0  0  0  0
  -27.5568  -37.1778   24.8456 C   0  0  0  0  0  0
  -21.4286  -29.3049   22.3595 N   0  0  0  0  0  0
  -26.4281  -37.3724   23.9400 N   0  0  0  0  0  0
  -24.7258  -31.0152   22.0840 N   0  0  0  0  0  0
  -23.4223  -28.8051   23.2993 O   0  0  0  0  0  0
  -28.2721  -26.0835   20.3666 O   0  0  0  0  0  0
  -26.5683  -34.8896   22.4608 O   0  0  0  0  0  0
  -23.5595  -32.1261   23.6982 O   0  0  0  0  0  0
  -27.8756  -20.3798   18.9460 C   0  0  0  0  0  0
  -28.8131  -20.5962   19.9729 C   0  0  0  0  0  0
  -27.4176  -22.6772   18.6487 C   0  0  0  0  0  0
  -28.2974  -23.0993   19.6987 C   0  0  0  0  0  0
  -25.2212  -23.5543   17.6593 C   0  0  0  0  0  0
  -30.7206  -19.5756   21.4117 C   0  0  0  0  0  0
  -28.3637  -18.8766   21.8333 C   0  0  0  0  0  0
  -26.7583  -23.6202   17.6448 C   0  0  0  0  0  0
  -28.7649  -24.7242   19.7074 C   0  0  0  0  0  0
  -29.7047  -17.6994   19.9474 C   0  0  0  0  0  0
  -29.3900  -19.2045   20.7365 C   0  0  0  0  0  0
  -27.2072  -21.3738   18.3183 N   0  0  0  0  0  0
  -28.9845  -21.9909   20.3429 N   0  0  0  0  0  0
  -29.7075  -16.2055   20.5542 N   0  0  0  0  0  0
  -31.4806  -12.7812   19.2101 H   0  0  0  0  0  0
  -30.4406  -11.6807   20.0626 H   0  0  0  0  0  0
  -29.8613  -11.7343   17.6126 H   0  0  0  0  0  0
  -29.6102  -13.4606   17.6941 H   0  0  0  0  0  0
  -27.9766  -11.2750   19.0104 H   0  0  0  0  0  0
  -27.4020  -12.4236   17.8322 H   0  0  0  0  0  0
  -27.5929  -14.2501   19.4038 H   0  0  0  0  0  0
  -28.7769  -12.3364   21.4719 H   0  0  0  0  0  0
  -28.3649  -14.0115   21.7569 H   0  0  0  0  0  0
  -25.2778   -9.5695   22.4792 H   0  0  0  0  0  0
  -24.0026   -7.4641   22.7494 H   0  0  0  0  0  0
  -21.0862   -8.8783   19.8979 H   0  0  0  0  0  0
  -22.3714  -10.9692   19.6194 H   0  0  0  0  0  0
  -21.2006   -7.6159   23.9724 H   0  0  0  0  0  0
  -21.1490   -6.0528   25.9075 H   0  0  0  0  0  0
  -22.0595   -2.7625   23.2830 H   0  0  0  0  0  0
  -22.4052  -11.9911   22.4800 H   0  0  0  0  0  0
  -21.1060  -13.1285   22.2615 H   0  0  0  0  0  0
  -24.6473  -15.8475   20.5302 H   0  0  0  0  0  0
  -26.2552  -15.6384   20.0639 H   0  0  0  0  0  0
  -26.7302  -32.5230   23.0923 H   0  0  0  0  0  0
  -25.0073  -33.9555   25.0238 H   0  0  0  0  0  0
  -22.7600  -31.2757   21.3638 H   0  0  0  0  0  0
  -23.3751  -35.9580   23.3282 H   0  0  0  0  0  0
  -24.3567  -36.8913   22.2054 H   0  0  0  0  0  0
  -23.7264  -37.6433   23.6710 H   0  0  0  0  0  0
  -26.1725  -31.4402   20.6089 H   0  0  0  0  0  0
  -26.8807  -30.7441   22.0285 H   0  0  0  0  0  0
  -28.1171  -28.7283   21.2701 H   0  0  0  0  0  0
  -25.9014  -25.7735   19.0684 H   0  0  0  0  0  0
  -23.9936  -27.2671   18.9757 H   0  0  0  0  0  0
  -23.8234  -30.5431   19.3859 H   0  0  0  0  0  0
  -22.7990  -29.2142   19.8328 H   0  0  0  0  0  0
  -25.1327  -36.1794   25.0784 H   0  0  0  0  0  0
  -21.0016  -28.3333   24.1348 H   0  0  0  0  0  0
  -20.5675  -26.2347   23.3651 H   0  0  0  0  0  0
  -21.6649  -26.7416   22.1222 H   0  0  0  0  0  0
  -19.6921  -25.6272   21.1280 H   0  0  0  0  0  0
  -19.6704  -27.3159   20.6740 H   0  0  0  0  0  0
  -17.4215  -26.6685   21.4030 H   0  0  0  0  0  0
  -18.0337  -26.0098   22.9041 H   0  0  0  0  0  0
  -19.7956  -30.7311   24.2223 H   0  0  0  0  0  0
  -17.5025  -31.6275   24.5174 H   0  0  0  0  0  0
  -15.5360  -30.2984   23.7677 H   0  0  0  0  0  0
  -15.8692  -28.0826   22.7076 H   0  0  0  0  0  0
  -24.5884  -30.7132   25.7701 H   0  0  0  0  0  0
  -24.8896  -32.2995   26.4689 H   0  0  0  0  0  0
  -25.7960  -30.9039   27.0211 H   0  0  0  0  0  0
  -26.3010  -29.6658   24.1301 H   0  0  0  0  0  0
  -27.3950  -29.7241   25.4911 H   0  0  0  0  0  0
  -27.8949  -30.4132   23.9661 H   0  0  0  0  0  0
  -27.2578  -33.3657   26.2008 H   0  0  0  0  0  0
  -28.3895  -32.6898   25.0387 H   0  0  0  0  0  0
  -28.0647  -31.8534   26.5493 H   0  0  0  0  0  0
  -28.2560  -38.0096   24.7501 H   0  0  0  0  0  0
  -28.1088  -36.2620   24.6282 H   0  0  0  0  0  0
  -27.2287  -37.1420   25.8859 H   0  0  0  0  0  0
  -20.9520  -29.8766   21.6769 H   0  0  0  0  0  0
  -26.0128  -38.2778   24.1425 H   0  0  0  0  0  0
  -27.6131  -19.3763   18.6447 H   0  0  0  0  0  0
  -24.8009  -24.2657   16.9489 H   0  0  0  0  0  0
  -24.8150  -23.7825   18.6444 H   0  0  0  0  0  0
  -24.8608  -22.5660   17.3747 H   0  0  0  0  0  0
  -31.1476  -18.7279   21.9484 H   0  0  0  0  0  0
  -30.5913  -20.3840   22.1301 H   0  0  0  0  0  0
  -31.4553  -19.9052   20.6766 H   0  0  0  0  0  0
  -27.4016  -18.6140   21.3927 H   0  0  0  0  0  0
  -28.1976  -19.7300   22.4915 H   0  0  0  0  0  0
  -28.6853  -18.0400   22.4541 H   0  0  0  0  0  0
  -27.1104  -23.3489   16.6476 H   0  0  0  0  0  0
  -27.0811  -24.6470   17.7632 H   0  0  0  0  0  0
  -28.9992  -24.9776   18.6749 H   0  0  0  0  0  0
  -29.7620  -24.6462   20.1417 H   0  0  0  0  0  0
  -30.6246  -17.8096   19.3729 H   0  0  0  0  0  0
  -28.9358  -17.6163   19.1796 H   0  0  0  0  0  0
  -28.8085  -15.9689   20.9472 H   0  0  0  0  0  0
  1 25  1  0  0  0
  1 30  2  0  0  0
  1 84  1  0  0  0
  2  3  1  0  0  0
  2 25  1  0  0  0
  2 85  1  0  0  0
  2 86  1  0  0  0
  3  4  1  0  0  0
  3 87  1  0  0  0
  3 88  1  0  0  0
  4  5  1  0  0  0
  4 89  1  0  0  0
  4 90  1  0  0  0
  5  6  1  0  0  0
  5 26  1  0  0  0
  5 91  1  0  0  0
  6 25  1  0  0  0
  6 92  1  0  0  0
  6 93  1  0  0  0
  7  8  2  0  0  0
  7 26  1  0  0  0
  7 29  1  0  0  0
  8  9  1  0  0  0
  8 22  1  0  0  0
  9 10  1  0  0  0
  9 27  2  0  0  0
 10 11  2  0  0  0
 10 15  1  0  0  0
 11 12  1  0  0  0
 11 94  1  0  0  0
 12 13  2  0  0  0
 12 95  1  0  0  0
 13 14  1  0  0  0
 13 31  1  0  0  0
 14 15  2  0  0  0
 14 96  1  0  0  0
 15 97  1  0  0  0
 16 17  2  0  0  0
 16 21  1  0  0  0
 16 31  1  0  0  0
 17 18  1  0  0  0
 17 98  1  0  0  0
 18 19  2  0  0  0
 18 99  1  0  0  0
 19 20  1  0  0  0
 19 24  1  0  0  0
 20 21  2  0  0  0
 20100  1  0  0  0
 21 23  1  0  0  0
 22 28  1  0  0  0
 22 32  2  0  0  0
 26 27  1  0  0  0
 28101  1  0  0  0
 28102  1  0  0  0
 29103  1  0  0  0
 29104  1  0  0  0
 33 34  1  0  0  0
 33 66  1  0  0  0
 33 70  2  0  0  0
 34 36  1  0  0  0
 34 59  1  0  0  0
 34105  1  0  0  0
 35 44  2  0  0  0
 35 45  1  0  0  0
 35 68  1  0  0  0
 36 56  1  0  0  0
 36106  1  0  0  0
 37 39  1  0  0  0
 37 47  1  0  0  0
 37 66  1  0  0  0
 37107  1  0  0  0
 38 43  2  0  0  0
 38 46  1  0  0  0
 38 47  1  0  0  0
 39 64  1  0  0  0
 39 67  2  0  0  0
 40 52  1  0  0  0
 40 53  2  0  0  0
 40 58  1  0  0  0
 41108  1  0  0  0
 41109  1  0  0  0
 41110  1  0  0  0
 41 48  1  0  0  0
 42 43  1  0  0  0
 42 66  1  0  0  0
 42111  1  0  0  0
 42112  1  0  0  0
 43 44  1  0  0  0
 44113  1  0  0  0
 45 46  2  0  0  0
 45114  1  0  0  0
 46115  1  0  0  0
 47116  1  0  0  0
 47117  1  0  0  0
 48 56  1  0  0  0
 48 65  1  0  0  0
 48118  1  0  0  0
 49 50  1  0  0  0
 49 53  1  0  0  0
 49 64  1  0  0  0
 49119  1  0  0  0
 50 51  1  0  0  0
 50120  1  0  0  0
 50121  1  0  0  0
 51 52  1  0  0  0
 51122  1  0  0  0
 51123  1  0  0  0
 52124  1  0  0  0
 52125  1  0  0  0
 53 54  1  0  0  0
 54 55  2  0  0  0
 54126  1  0  0  0
 55 57  1  0  0  0
 55127  1  0  0  0
 56 69  2  0  0  0
 57 58  2  0  0  0
 57128  1  0  0  0
 58129  1  0  0  0
 59 60  1  0  0  0
 59 61  1  0  0  0
 59 62  1  0  0  0
 60130  1  0  0  0
 60131  1  0  0  0
 60132  1  0  0  0
 61133  1  0  0  0
 61134  1  0  0  0
 61135  1  0  0  0
 62136  1  0  0  0
 62137  1  0  0  0
 62138  1  0  0  0
 63 65  1  0  0  0
 63139  1  0  0  0
 63140  1  0  0  0
 63141  1  0  0  0
 64142  1  0  0  0
 65143  1  0  0  0
 68 79  1  0  0  0
 71 72  2  0  0  0
 71 82  1  0  0  0
 71144  1  0  0  0
 72 81  1  0  0  0
 72 83  1  0  0  0
 73 74  1  0  0  0
 73 78  1  0  0  0
 73 82  2  0  0  0
 74 79  1  0  0  0
 74 83  2  0  0  0
 75 78  1  0  0  0
 75145  1  0  0  0
 75146  1  0  0  0
 75147  1  0  0  0
 76148  1  0  0  0
 76149  1  0  0  0
 76150  1  0  0  0
 76 81  1  0  0  0
 77 81  1  0  0  0
 77151  1  0  0  0
 77152  1  0  0  0
 77153  1  0  0  0
 78154  1  0  0  0
 78155  1  0  0  0
 79156  1  0  0  0
 79157  1  0  0  0
 80 81  1  0  0  0
 80 84  1  0  0  0
 80158  1  0  0  0
 80159  1  0  0  0
 84160  1  0  0  0
M  ISO  4   1 100  68 101  79 101  84 100
M  END
> <chiral flag>
0

> <version>
0

> <s_m_source_file>
/data/baiqing/PycharmProjects/Reinvent-master-3.2/result/LINK_invent/BTK/process_docking_weight1_custom_sum_contain_oxygen_bond_distance_aromatic_linkinvent_7_9_3/rearranged_h_0063.sdf

> <i_m_source_file_index>
32

> <r_mmod_Potential_Energy-OPLS-2005>
850.728759765625

> <r_mmod_Stretch_Energy-OPLS-2005>
363.438171386719

> <r_mmod_Bend_Energy-OPLS-2005>
410.227600097656

> <r_mmod_Torsional_Energy-OPLS-2005>
230.885284423828

> <r_mmod_Improper_Torsional_Energy-OPLS-2005>
12.1851778030396

> <r_mmod_Van_der_Waal_Energy-OPLS-2005>
124.502090454102

> <r_mmod_Electrostatic_Energy-OPLS-2005>
-319.654022216797

> <r_mmod_Solvation_Energy-OPLS-2005>
-224.956481933594

> <b_mmod_Minimization_Converged-OPLS-2005>
0

> <r_mmod_RMS_Derivative-OPLS-2005>
2.2837450504303

$$$$
34
                    3D
 Structure written by MMmdl.
158166  0  0  1  0            999 V2000
  -30.5094  -14.8223   20.6014 C   0  0  0  0  0  0
  -30.5261  -12.4441   19.6509 C   0  0  0  0  0  0
  -29.5766  -12.3483   18.3995 C   0  0  0  0  0  0
  -28.0858  -12.2040   18.8752 C   0  0  0  0  0  0
  -27.7041  -13.1627   20.0361 C   0  0  2  0  0  0
  -28.7681  -12.9381   21.1187 C   0  0  0  0  0  0
  -25.2697  -13.8048   20.6150 C   0  0  0  0  0  0
  -24.1697  -13.0549   20.9131 C   0  0  0  0  0  0
  -24.5995  -11.6983   20.8717 C   0  0  0  0  0  0
  -23.8613  -10.4553   21.0504 C   0  0  0  0  0  0
  -24.3563   -9.4403   21.9228 C   0  0  0  0  0  0
  -23.6488   -8.2264   22.0615 C   0  0  0  0  0  0
  -22.4395   -8.0350   21.3424 C   0  0  0  0  0  0
  -21.9862   -9.0344   20.4493 C   0  0  0  0  0  0
  -22.6894  -10.2313   20.3133 C   0  0  0  0  0  0
  -21.7072   -6.0908   22.5402 C   0  0  0  0  0  0
  -21.4040   -6.5746   23.8334 C   0  0  0  0  0  0
  -21.3603   -5.6845   24.9212 C   0  0  0  0  0  0
  -21.5953   -4.3108   24.7341 C   0  0  0  0  0  0
  -21.8719   -3.8244   23.4460 C   0  0  0  0  0  0
  -21.9277   -4.7073   22.3560 C   0  0  0  0  0  0
  -22.7658  -13.5553   21.1448 C   0  0  0  0  0  0
  -22.1668   -4.2271   21.1133 F   0  0  0  0  0  0
  -21.5783   -3.4643   25.7832 F   0  0  0  0  0  0
  -29.9819  -13.5189   20.5161 N   0  0  0  0  0  0
  -26.3264  -12.9063   20.4461 N   0  0  0  0  0  0
  -25.8988  -11.6237   20.6241 N   0  0  0  0  0  0
  -22.0401  -12.8496   22.0115 N   0  0  0  0  0  0
  -25.3927  -15.1966   20.4423 N   0  0  0  0  0  0
  -31.6919  -14.9731   20.2712 O   0  0  0  0  0  0
  -21.6510   -6.9173   21.4372 O   0  0  0  0  0  0
  -22.3433  -14.5962   20.6561 O   0  0  0  0  0  0
  -24.6204  -31.8612   23.2071 C   0  0  0  0  0  0
  -25.9023  -32.4787   23.8353 C   0  0  1  0  0  0
  -27.2637  -27.3553   20.0982 C   0  0  0  0  0  0
  -25.5929  -33.8576   24.2315 N   0  0  0  0  0  0
  -23.4173  -30.4825   21.5473 C   0  0  2  0  0  0
  -24.8711  -28.9396   20.1183 C   0  0  0  0  0  0
  -22.7439  -29.4637   22.4992 C   0  0  0  0  0  0
  -18.0292  -28.1366   22.8536 C   0  0  0  0  0  0
  -24.1493  -36.7301   23.2652 C   0  0  0  0  0  0
  -25.9513  -30.8000   21.3724 C   0  0  0  0  0  0
  -26.0454  -29.4300   20.7166 C   0  0  0  0  0  0
  -27.2452  -28.6476   20.7065 C   0  0  0  0  0  0
  -26.0727  -26.9507   19.4421 C   0  0  0  0  0  0
  -24.8799  -27.6977   19.4678 C   0  0  0  0  0  0
  -23.6326  -29.8054   20.1739 C   0  0  0  0  0  0
  -25.4118  -36.3102   24.0337 C   0  0  1  0  0  0
  -20.5892  -28.3654   23.1319 C   0  0  2  0  0  0
  -20.6767  -26.9375   22.5403 C   0  0  0  0  0  0
  -19.5736  -26.6378   21.5216 C   0  0  0  0  0  0
  -18.1942  -26.7913   22.1643 C   0  0  0  0  0  0
  -19.1559  -28.8827   23.2936 C   0  0  0  0  0  0
  -18.9463  -30.1445   23.8913 C   0  0  0  0  0  0
  -17.6457  -30.6564   24.0546 C   0  0  0  0  0  0
  -25.9048  -34.9455   23.5098 C   0  0  0  0  0  0
  -16.5345  -29.9061   23.6306 C   0  0  0  0  0  0
  -16.7291  -28.6482   23.0354 C   0  0  0  0  0  0
  -26.4486  -31.6580   25.0661 C   0  0  0  0  0  0
  -25.3727  -31.3700   26.1404 C   0  0  0  0  0  0
  -27.0353  -30.3040   24.6015 C   0  0  0  0  0  0
  -27.6070  -32.4283   25.7457 C   0  0  0  0  0  0
  -27.5565  -37.1792   24.8464 C   0  0  0  0  0  0
  -21.4135  -29.3008   22.3686 N   0  0  0  0  0  0
  -26.4287  -37.3774   23.9424 N   0  0  0  0  0  0
  -24.6826  -31.0572   22.1086 N   0  0  0  0  0  0
  -23.4169  -28.8177   23.3043 O   0  0  0  0  0  0
  -28.3396  -26.4556   20.2099 O   0  0  0  0  0  0
  -26.5588  -34.8946   22.4631 O   0  0  0  0  0  0
  -23.5367  -32.1402   23.7423 O   0  0  0  0  0  0
  -26.5474  -20.9977   22.0221 C   0  0  0  0  0  0
  -27.8721  -22.5950   21.5565 C   0  0  0  0  0  0
  -25.7997  -19.7331   22.0662 C   0  0  0  0  0  0
  -28.9910  -18.9322   23.3368 C   0  0  0  0  0  0
  -28.7879  -23.7809   21.0206 C   0  0  0  0  0  0
  -28.6817  -20.0552   21.1837 C   0  0  0  0  0  0
  -30.0563  -17.3539   21.4680 C   0  0  0  0  0  0
  -27.9154  -25.0804   20.5573 C   0  0  0  0  0  0
  -28.9060  -18.5122   21.8399 C   0  0  1  0  0  0
  -26.0191  -22.0808   22.5250 N   0  0  0  0  0  0
  -26.8921  -23.0754   22.2885 N   0  0  0  0  0  0
  -27.8114  -21.1552   21.5924 N   0  0  0  0  0  0
  -29.7058  -15.9528   20.8085 N   0  0  0  0  0  0
  -27.8116  -17.7955   21.6023 F   0  0  0  0  0  0
  -31.5321  -12.7888   19.3728 H   0  0  0  0  0  0
  -30.5716  -11.4322   20.1550 H   0  0  0  0  0  0
  -29.8511  -11.4056   17.8650 H   0  0  0  0  0  0
  -29.7418  -13.2765   17.8044 H   0  0  0  0  0  0
  -28.0361  -11.1604   19.2613 H   0  0  0  0  0  0
  -27.2932  -12.2652   18.1240 H   0  0  0  0  0  0
  -27.7901  -14.2168   19.7687 H   0  0  0  0  0  0
  -28.8183  -11.8361   21.2130 H   0  0  0  0  0  0
  -28.6213  -13.2731   22.1496 H   0  0  0  0  0  0
  -25.2858   -9.6211   22.4521 H   0  0  0  0  0  0
  -24.0361   -7.4873   22.7541 H   0  0  0  0  0  0
  -21.0662   -8.9188   19.9038 H   0  0  0  0  0  0
  -22.3573  -10.9935   19.6270 H   0  0  0  0  0  0
  -21.1754   -7.6243   23.9986 H   0  0  0  0  0  0
  -21.1480   -6.0506   25.9196 H   0  0  0  0  0  0
  -22.0533   -2.7767   23.2984 H   0  0  0  0  0  0
  -22.3694  -11.9807   22.3988 H   0  0  0  0  0  0
  -21.1047  -13.1432   22.2181 H   0  0  0  0  0  0
  -24.6428  -15.8561   20.6715 H   0  0  0  0  0  0
  -26.2282  -15.6998   20.1815 H   0  0  0  0  0  0
  -26.7029  -32.5528   23.1087 H   0  0  0  0  0  0
  -25.0031  -33.9714   25.0443 H   0  0  0  0  0  0
  -22.7090  -31.3004   21.3951 H   0  0  0  0  0  0
  -23.3733  -35.9631   23.3304 H   0  0  0  0  0  0
  -24.3582  -36.8907   22.2054 H   0  0  0  0  0  0
  -23.7218  -37.6505   23.6639 H   0  0  0  0  0  0
  -26.0602  -31.5635   20.6037 H   0  0  0  0  0  0
  -26.8416  -30.8689   21.9832 H   0  0  0  0  0  0
  -28.1336  -29.0099   21.2194 H   0  0  0  0  0  0
  -26.0192  -26.0276   18.9001 H   0  0  0  0  0  0
  -23.9888  -27.3233   18.9867 H   0  0  0  0  0  0
  -23.7282  -30.5580   19.4010 H   0  0  0  0  0  0
  -22.7705  -29.2144   19.8869 H   0  0  0  0  0  0
  -25.1273  -36.1948   25.0802 H   0  0  0  0  0  0
  -21.0010  -28.3212   24.1443 H   0  0  0  0  0  0
  -20.5680  -26.2232   23.3609 H   0  0  0  0  0  0
  -21.6632  -26.7395   22.1176 H   0  0  0  0  0  0
  -19.6853  -25.6327   21.1213 H   0  0  0  0  0  0
  -19.6645  -27.3214   20.6808 H   0  0  0  0  0  0
  -17.4177  -26.6710   21.4071 H   0  0  0  0  0  0
  -18.0315  -26.0048   22.9038 H   0  0  0  0  0  0
  -19.7946  -30.7276   24.2255 H   0  0  0  0  0  0
  -17.5011  -31.6264   24.5143 H   0  0  0  0  0  0
  -15.5357  -30.2927   23.7651 H   0  0  0  0  0  0
  -15.8728  -28.0794   22.7021 H   0  0  0  0  0  0
  -24.5868  -30.7123   25.7697 H   0  0  0  0  0  0
  -24.8996  -32.2890   26.4859 H   0  0  0  0  0  0
  -25.8048  -30.8801   27.0145 H   0  0  0  0  0  0
  -26.2920  -29.6798   24.1058 H   0  0  0  0  0  0
  -27.4200  -29.7252   25.4429 H   0  0  0  0  0  0
  -27.8712  -30.4443   23.9160 H   0  0  0  0  0  0
  -27.2683  -33.3545   26.2125 H   0  0  0  0  0  0
  -28.3876  -32.6893   25.0287 H   0  0  0  0  0  0
  -28.0754  -31.8321   26.5314 H   0  0  0  0  0  0
  -28.2599  -38.0095   24.7521 H   0  0  0  0  0  0
  -28.1065  -36.2600   24.6281 H   0  0  0  0  0  0
  -27.2294  -37.1442   25.8886 H   0  0  0  0  0  0
  -20.9303  -29.8726   21.6926 H   0  0  0  0  0  0
  -26.0176  -38.2843   24.1426 H   0  0  0  0  0  0
  -24.7395  -19.9705   22.1790 H   0  0  0  0  0  0
  -26.1282  -19.1996   22.9589 H   0  0  0  0  0  0
  -25.9125  -19.1435   21.1533 H   0  0  0  0  0  0
  -28.1262  -19.5479   23.5261 H   0  0  0  0  0  0
  -29.8671  -19.5175   23.6978 H   0  0  0  0  0  0
  -28.8447  -18.0971   23.9815 H   0  0  0  0  0  0
  -29.4627  -23.4959   20.2160 H   0  0  0  0  0  0
  -29.4008  -24.0743   21.8816 H   0  0  0  0  0  0
  -29.5240  -20.7804   21.4832 H   0  0  0  0  0  0
  -28.1057  -20.0483   20.2104 H   0  0  0  0  0  0
  -30.3433  -17.0125   22.4707 H   0  0  0  0  0  0
  -31.0227  -17.8212   21.1725 H   0  0  0  0  0  0
  -27.2336  -25.2995   21.3806 H   0  0  0  0  0  0
  -27.3294  -24.7155   19.7163 H   0  0  0  0  0  0
  -29.2703  -16.1688   19.8987 H   0  0  0  0  0  0
  1 25  1  0  0  0
  1 30  2  0  0  0
  1 83  1  0  0  0
  2  3  1  0  0  0
  2 25  1  0  0  0
  2 85  1  0  0  0
  2 86  1  0  0  0
  3  4  1  0  0  0
  3 87  1  0  0  0
  3 88  1  0  0  0
  4  5  1  0  0  0
  4 89  1  0  0  0
  4 90  1  0  0  0
  5  6  1  0  0  0
  5 26  1  0  0  0
  5 91  1  0  0  0
  6 25  1  0  0  0
  6 92  1  0  0  0
  6 93  1  0  0  0
  7  8  2  0  0  0
  7 26  1  0  0  0
  7 29  1  0  0  0
  8  9  1  0  0  0
  8 22  1  0  0  0
  9 10  1  0  0  0
  9 27  2  0  0  0
 10 11  2  0  0  0
 10 15  1  0  0  0
 11 12  1  0  0  0
 11 94  1  0  0  0
 12 13  2  0  0  0
 12 95  1  0  0  0
 13 14  1  0  0  0
 13 31  1  0  0  0
 14 15  2  0  0  0
 14 96  1  0  0  0
 15 97  1  0  0  0
 16 17  2  0  0  0
 16 21  1  0  0  0
 16 31  1  0  0  0
 17 18  1  0  0  0
 17 98  1  0  0  0
 18 19  2  0  0  0
 18 99  1  0  0  0
 19 20  1  0  0  0
 19 24  1  0  0  0
 20 21  2  0  0  0
 20100  1  0  0  0
 21 23  1  0  0  0
 22 28  1  0  0  0
 22 32  2  0  0  0
 26 27  1  0  0  0
 28101  1  0  0  0
 28102  1  0  0  0
 29103  1  0  0  0
 29104  1  0  0  0
 33 34  1  0  0  0
 33 66  1  0  0  0
 33 70  2  0  0  0
 34 36  1  0  0  0
 34 59  1  0  0  0
 34105  1  0  0  0
 35 44  2  0  0  0
 35 45  1  0  0  0
 35 68  1  0  0  0
 36 56  1  0  0  0
 36106  1  0  0  0
 37 39  1  0  0  0
 37 47  1  0  0  0
 37 66  1  0  0  0
 37107  1  0  0  0
 38 43  2  0  0  0
 38 46  1  0  0  0
 38 47  1  0  0  0
 39 64  1  0  0  0
 39 67  2  0  0  0
 40 52  1  0  0  0
 40 53  2  0  0  0
 40 58  1  0  0  0
 41108  1  0  0  0
 41109  1  0  0  0
 41110  1  0  0  0
 41 48  1  0  0  0
 42 43  1  0  0  0
 42 66  1  0  0  0
 42111  1  0  0  0
 42112  1  0  0  0
 43 44  1  0  0  0
 44113  1  0  0  0
 45 46  2  0  0  0
 45114  1  0  0  0
 46115  1  0  0  0
 47116  1  0  0  0
 47117  1  0  0  0
 48 56  1  0  0  0
 48 65  1  0  0  0
 48118  1  0  0  0
 49 50  1  0  0  0
 49 53  1  0  0  0
 49 64  1  0  0  0
 49119  1  0  0  0
 50 51  1  0  0  0
 50120  1  0  0  0
 50121  1  0  0  0
 51 52  1  0  0  0
 51122  1  0  0  0
 51123  1  0  0  0
 52124  1  0  0  0
 52125  1  0  0  0
 53 54  1  0  0  0
 54 55  2  0  0  0
 54126  1  0  0  0
 55 57  1  0  0  0
 55127  1  0  0  0
 56 69  2  0  0  0
 57 58  2  0  0  0
 57128  1  0  0  0
 58129  1  0  0  0
 59 60  1  0  0  0
 59 61  1  0  0  0
 59 62  1  0  0  0
 60130  1  0  0  0
 60131  1  0  0  0
 60132  1  0  0  0
 61133  1  0  0  0
 61134  1  0  0  0
 61135  1  0  0  0
 62136  1  0  0  0
 62137  1  0  0  0
 62138  1  0  0  0
 63 65  1  0  0  0
 63139  1  0  0  0
 63140  1  0  0  0
 63141  1  0  0  0
 64142  1  0  0  0
 65143  1  0  0  0
 68 78  1  0  0  0
 71 73  1  0  0  0
 71 80  2  0  0  0
 71 82  1  0  0  0
 72 75  1  0  0  0
 72 81  2  0  0  0
 72 82  1  0  0  0
 73144  1  0  0  0
 73145  1  0  0  0
 73146  1  0  0  0
 74147  1  0  0  0
 74148  1  0  0  0
 74149  1  0  0  0
 74 79  1  0  0  0
 75 78  1  0  0  0
 75150  1  0  0  0
 75151  1  0  0  0
 76 79  1  0  0  0
 76 82  1  0  0  0
 76152  1  0  0  0
 76153  1  0  0  0
 77 79  1  0  0  0
 77 83  1  0  0  0
 77154  1  0  0  0
 77155  1  0  0  0
 78156  1  0  0  0
 78157  1  0  0  0
 79 84  1  0  0  0
 80 81  1  0  0  0
 83158  1  0  0  0
M  ISO  4   1 100  68 101  78 101  83 100
M  END
> <chiral flag>
0

> <version>
0

> <s_m_source_file>
/data/baiqing/PycharmProjects/Reinvent-master-3.2/result/LINK_invent/BTK/process_docking_weight1_custom_sum_contain_oxygen_bond_distance_aromatic_linkinvent_7_9_3/rearranged_h_0063.sdf

> <i_m_source_file_index>
33

> <r_mmod_Potential_Energy-OPLS-2005>
597.331420898438

> <r_mmod_Stretch_Energy-OPLS-2005>
219.145538330078

> <r_mmod_Bend_Energy-OPLS-2005>
489.779266357422

> <r_mmod_Torsional_Energy-OPLS-2005>
316.159851074219

> <r_mmod_Improper_Torsional_Energy-OPLS-2005>
13.0302314758301

> <r_mmod_Van_der_Waal_Energy-OPLS-2005>
166.938278198242

> <r_mmod_Electrostatic_Energy-OPLS-2005>
-491.570251464844

> <r_mmod_Solvation_Energy-OPLS-2005>
-234.81591796875

> <b_mmod_Minimization_Converged-OPLS-2005>
0

> <r_mmod_RMS_Derivative-OPLS-2005>
52.1558570861816

$$$$
35
                    3D
 Structure written by MMmdl.
165173  0  0  1  0            999 V2000
  -30.5651  -14.9908   20.3789 C   0  0  0  0  0  0
  -30.4238  -12.6135   19.4897 C   0  0  0  0  0  0
  -29.5083  -12.5156   18.2507 C   0  0  0  0  0  0
  -28.0454  -12.3003   18.6776 C   0  0  0  0  0  0
  -27.6165  -13.2551   19.8219 C   0  0  2  0  0  0
  -28.6611  -13.3341   20.9534 C   0  0  0  0  0  0
  -25.2408  -13.8239   20.5714 C   0  0  0  0  0  0
  -24.1730  -13.0448   20.9248 C   0  0  0  0  0  0
  -24.6363  -11.6933   20.8752 C   0  0  0  0  0  0
  -23.9054  -10.4290   21.0407 C   0  0  0  0  0  0
  -24.3614   -9.4207   21.9183 C   0  0  0  0  0  0
  -23.6292   -8.2237   22.0750 C   0  0  0  0  0  0
  -22.4274   -8.0278   21.3539 C   0  0  0  0  0  0
  -21.9910   -9.0237   20.4639 C   0  0  0  0  0  0
  -22.7233  -10.2125   20.3048 C   0  0  0  0  0  0
  -21.6855   -6.0730   22.5271 C   0  0  0  0  0  0
  -21.4015   -6.5632   23.8208 C   0  0  0  0  0  0
  -21.3660   -5.6795   24.9172 C   0  0  0  0  0  0
  -21.6048   -4.3056   24.7232 C   0  0  0  0  0  0
  -21.8818   -3.8140   23.4348 C   0  0  0  0  0  0
  -21.9192   -4.6946   22.3408 C   0  0  0  0  0  0
  -22.7765  -13.5206   21.1911 C   0  0  0  0  0  0
  -22.1657   -4.2136   21.0982 F   0  0  0  0  0  0
  -21.5631   -3.4541   25.7740 F   0  0  0  0  0  0
  -29.9242  -13.7469   20.3277 N   0  0  0  0  0  0
  -26.2811  -12.9475   20.3197 N   0  0  0  0  0  0
  -25.9286  -11.6595   20.5722 N   0  0  0  0  0  0
  -22.0419  -12.8163   22.0465 N   0  0  0  0  0  0
  -25.4072  -15.1964   20.4118 N   0  0  0  0  0  0
  -31.7846  -14.9480   20.1957 O   0  0  0  0  0  0
  -21.6642   -6.8865   21.4236 O   0  0  0  0  0  0
  -22.3419  -14.5496   20.6764 O   0  0  0  0  0  0
  -24.6488  -31.8381   23.1740 C   0  0  0  0  0  0
  -25.9258  -32.4623   23.8147 C   0  0  1  0  0  0
  -27.2161  -27.1050   20.1380 C   0  0  0  0  0  0
  -25.5974  -33.8433   24.2035 N   0  0  0  0  0  0
  -23.4502  -30.4595   21.5232 C   0  0  2  0  0  0
  -24.8968  -28.8799   20.1014 C   0  0  0  0  0  0
  -22.7588  -29.4550   22.4808 C   0  0  0  0  0  0
  -18.0326  -28.1424   22.8488 C   0  0  0  0  0  0
  -24.1514  -36.7235   23.2630 C   0  0  0  0  0  0
  -26.0076  -30.7090   21.3734 C   0  0  0  0  0  0
  -26.0797  -29.3164   20.7135 C   0  0  0  0  0  0
  -27.2409  -28.4502   20.7036 C   0  0  0  0  0  0
  -26.0009  -26.7736   19.4995 C   0  0  0  0  0  0
  -24.8731  -27.6252   19.4774 C   0  0  0  0  0  0
  -23.6738  -29.7834   20.1449 C   0  0  0  0  0  0
  -25.4147  -36.2973   24.0275 C   0  0  1  0  0  0
  -20.5948  -28.3747   23.1211 C   0  0  2  0  0  0
  -20.6832  -26.9461   22.5392 C   0  0  0  0  0  0
  -19.5796  -26.6416   21.5215 C   0  0  0  0  0  0
  -18.1974  -26.7961   22.1629 C   0  0  0  0  0  0
  -19.1581  -28.8912   23.2837 C   0  0  0  0  0  0
  -18.9500  -30.1516   23.8865 C   0  0  0  0  0  0
  -17.6485  -30.6616   24.0583 C   0  0  0  0  0  0
  -25.9114  -34.9361   23.4957 C   0  0  0  0  0  0
  -16.5383  -29.9118   23.6372 C   0  0  0  0  0  0
  -16.7312  -28.6527   23.0369 C   0  0  0  0  0  0
  -26.4565  -31.6520   25.0604 C   0  0  0  0  0  0
  -25.3727  -31.3757   26.1273 C   0  0  0  0  0  0
  -27.0422  -30.2899   24.6231 C   0  0  0  0  0  0
  -27.6053  -32.4298   25.7424 C   0  0  0  0  0  0
  -27.5571  -37.1776   24.8459 C   0  0  0  0  0  0
  -21.4279  -29.3025   22.3536 N   0  0  0  0  0  0
  -26.4283  -37.3711   23.9400 N   0  0  0  0  0  0
  -24.7220  -31.0270   22.0748 N   0  0  0  0  0  0
  -23.4226  -28.8153   23.2995 O   0  0  0  0  0  0
  -28.2721  -26.1077   20.1922 O   0  0  0  0  0  0
  -26.5708  -34.8898   22.4547 O   0  0  0  0  0  0
  -23.5616  -32.1239   23.6973 O   0  0  0  0  0  0
  -29.6023  -20.4853   20.9050 C   0  0  0  0  0  0
  -29.0681  -21.6400   20.1388 C   0  0  0  0  0  0
  -29.5756  -19.2365   20.2058 C   0  0  0  0  0  0
  -30.7840  -17.8643   22.0211 C   0  0  0  0  0  0
  -31.6879  -17.8824   19.7160 C   0  0  0  0  0  0
  -28.6491  -17.5305   17.7560 C   0  0  0  0  0  0
  -30.0472  -19.4119   16.8046 C   0  0  0  0  0  0
  -27.5659  -19.5962   16.9556 C   0  0  0  0  0  0
  -29.1830  -23.3076   20.2746 C   0  0  0  0  0  0
  -28.0232  -24.5472   20.1131 C   0  0  0  0  0  0
  -30.3780  -17.7831   20.5341 C   0  0  0  0  0  0
  -28.8259  -19.0569   17.6757 C   0  0  0  0  0  0
  -28.7035  -21.0689   18.9998 N   0  0  0  0  0  0
  -28.9806  -19.6993   18.9989 N   0  0  0  0  0  0
  -29.8697  -16.2565   20.4290 N   0  0  0  0  0  0
  -31.4545  -12.7598   19.1627 H   0  0  0  0  0  0
  -30.4180  -11.6779   20.0523 H   0  0  0  0  0  0
  -29.8306  -11.7000   17.6024 H   0  0  0  0  0  0
  -29.5906  -13.4300   17.6607 H   0  0  0  0  0  0
  -27.9535  -11.2656   19.0099 H   0  0  0  0  0  0
  -27.3783  -12.4058   17.8206 H   0  0  0  0  0  0
  -27.5633  -14.2460   19.3687 H   0  0  0  0  0  0
  -28.7586  -12.3740   21.4642 H   0  0  0  0  0  0
  -28.3529  -14.0622   21.7066 H   0  0  0  0  0  0
  -25.2752   -9.5692   22.4767 H   0  0  0  0  0  0
  -23.9998   -7.4631   22.7471 H   0  0  0  0  0  0
  -21.0847   -8.8749   19.8943 H   0  0  0  0  0  0
  -22.3679  -10.9659   19.6155 H   0  0  0  0  0  0
  -21.2008   -7.6140   23.9705 H   0  0  0  0  0  0
  -21.1486   -6.0525   25.9077 H   0  0  0  0  0  0
  -22.0599   -2.7597   23.2859 H   0  0  0  0  0  0
  -22.4049  -11.9819   22.4831 H   0  0  0  0  0  0
  -21.1030  -13.1158   22.2681 H   0  0  0  0  0  0
  -24.6422  -15.8516   20.5267 H   0  0  0  0  0  0
  -26.2507  -15.6335   20.0657 H   0  0  0  0  0  0
  -26.7301  -32.5241   23.0856 H   0  0  0  0  0  0
  -25.0092  -33.9530   25.0159 H   0  0  0  0  0  0
  -22.7482  -31.2805   21.3629 H   0  0  0  0  0  0
  -23.3753  -35.9597   23.3268 H   0  0  0  0  0  0
  -24.3578  -36.8912   22.2045 H   0  0  0  0  0  0
  -23.7324  -37.6435   23.6716 H   0  0  0  0  0  0
  -26.1672  -31.4721   20.6094 H   0  0  0  0  0  0
  -26.8698  -30.7502   22.0261 H   0  0  0  0  0  0
  -28.1499  -28.7990   21.1732 H   0  0  0  0  0  0
  -25.8847  -25.8164   19.0127 H   0  0  0  0  0  0
  -23.9756  -27.2880   18.9745 H   0  0  0  0  0  0
  -23.7801  -30.5422   19.3660 H   0  0  0  0  0  0
  -22.7905  -29.2103   19.8662 H   0  0  0  0  0  0
  -25.1359  -36.1703   25.0761 H   0  0  0  0  0  0
  -21.0036  -28.3362   24.1329 H   0  0  0  0  0  0
  -20.5752  -26.2374   23.3625 H   0  0  0  0  0  0
  -21.6707  -26.7506   22.1168 H   0  0  0  0  0  0
  -19.6953  -25.6311   21.1272 H   0  0  0  0  0  0
  -19.6735  -27.3213   20.6727 H   0  0  0  0  0  0
  -17.4258  -26.6706   21.4015 H   0  0  0  0  0  0
  -18.0366  -26.0108   22.9024 H   0  0  0  0  0  0
  -19.7971  -30.7369   24.2169 H   0  0  0  0  0  0
  -17.5043  -31.6295   24.5199 H   0  0  0  0  0  0
  -15.5378  -30.3009   23.7712 H   0  0  0  0  0  0
  -15.8713  -28.0869   22.7075 H   0  0  0  0  0  0
  -24.5913  -30.7096   25.7583 H   0  0  0  0  0  0
  -24.8938  -32.2979   26.4568 H   0  0  0  0  0  0
  -25.7993  -30.9000   27.0111 H   0  0  0  0  0  0
  -26.3048  -29.6576   24.1268 H   0  0  0  0  0  0
  -27.4026  -29.7213   25.4809 H   0  0  0  0  0  0
  -27.8950  -30.4057   23.9546 H   0  0  0  0  0  0
  -27.2602  -33.3603   26.1935 H   0  0  0  0  0  0
  -28.3956  -32.6830   25.0348 H   0  0  0  0  0  0
  -28.0637  -31.8457   26.5426 H   0  0  0  0  0  0
  -28.2560  -38.0092   24.7507 H   0  0  0  0  0  0
  -28.1086  -36.2614   24.6278 H   0  0  0  0  0  0
  -27.2283  -37.1411   25.8860 H   0  0  0  0  0  0
  -20.9478  -29.8661   21.6664 H   0  0  0  0  0  0
  -26.0089  -38.2748   24.1430 H   0  0  0  0  0  0
  -30.1038  -20.6089   21.8537 H   0  0  0  0  0  0
  -31.3415  -18.7725   22.2495 H   0  0  0  0  0  0
  -31.4223  -17.0334   22.3267 H   0  0  0  0  0  0
  -29.8992  -17.8479   22.6587 H   0  0  0  0  0  0
  -32.0636  -18.9045   19.6900 H   0  0  0  0  0  0
  -31.5550  -17.5596   18.6858 H   0  0  0  0  0  0
  -32.4939  -17.2810   20.1301 H   0  0  0  0  0  0
  -28.3395  -17.1353   16.7887 H   0  0  0  0  0  0
  -27.8834  -17.2527   18.4818 H   0  0  0  0  0  0
  -29.5691  -17.0072   17.9920 H   0  0  0  0  0  0
  -30.0051  -18.9079   15.8393 H   0  0  0  0  0  0
  -30.9934  -19.1515   17.2726 H   0  0  0  0  0  0
  -30.0937  -20.4838   16.6110 H   0  0  0  0  0  0
  -27.4172  -19.1014   15.9968 H   0  0  0  0  0  0
  -27.6346  -20.6636   16.7377 H   0  0  0  0  0  0
  -26.6750  -19.4339   17.5606 H   0  0  0  0  0  0
  -29.9200  -23.5858   19.5240 H   0  0  0  0  0  0
  -29.7027  -23.5084   21.2137 H   0  0  0  0  0  0
  -27.2357  -24.3298   20.8339 H   0  0  0  0  0  0
  -27.5610  -24.3768   19.1434 H   0  0  0  0  0  0
  -28.8663  -16.1579   20.4961 H   0  0  0  0  0  0
  1 25  1  0  0  0
  1 30  2  0  0  0
  1 85  1  0  0  0
  2  3  1  0  0  0
  2 25  1  0  0  0
  2 86  1  0  0  0
  2 87  1  0  0  0
  3  4  1  0  0  0
  3 88  1  0  0  0
  3 89  1  0  0  0
  4  5  1  0  0  0
  4 90  1  0  0  0
  4 91  1  0  0  0
  5  6  1  0  0  0
  5 26  1  0  0  0
  5 92  1  0  0  0
  6 25  1  0  0  0
  6 93  1  0  0  0
  6 94  1  0  0  0
  7  8  2  0  0  0
  7 26  1  0  0  0
  7 29  1  0  0  0
  8  9  1  0  0  0
  8 22  1  0  0  0
  9 10  1  0  0  0
  9 27  2  0  0  0
 10 11  2  0  0  0
 10 15  1  0  0  0
 11 12  1  0  0  0
 11 95  1  0  0  0
 12 13  2  0  0  0
 12 96  1  0  0  0
 13 14  1  0  0  0
 13 31  1  0  0  0
 14 15  2  0  0  0
 14 97  1  0  0  0
 15 98  1  0  0  0
 16 17  2  0  0  0
 16 21  1  0  0  0
 16 31  1  0  0  0
 17 18  1  0  0  0
 17 99  1  0  0  0
 18 19  2  0  0  0
 18100  1  0  0  0
 19 20  1  0  0  0
 19 24  1  0  0  0
 20 21  2  0  0  0
 20101  1  0  0  0
 21 23  1  0  0  0
 22 28  1  0  0  0
 22 32  2  0  0  0
 26 27  1  0  0  0
 28102  1  0  0  0
 28103  1  0  0  0
 29104  1  0  0  0
 29105  1  0  0  0
 33 34  1  0  0  0
 33 66  1  0  0  0
 33 70  2  0  0  0
 34 36  1  0  0  0
 34 59  1  0  0  0
 34106  1  0  0  0
 35 44  2  0  0  0
 35 45  1  0  0  0
 35 68  1  0  0  0
 36 56  1  0  0  0
 36107  1  0  0  0
 37 39  1  0  0  0
 37 47  1  0  0  0
 37 66  1  0  0  0
 37108  1  0  0  0
 38 43  2  0  0  0
 38 46  1  0  0  0
 38 47  1  0  0  0
 39 64  1  0  0  0
 39 67  2  0  0  0
 40 52  1  0  0  0
 40 53  2  0  0  0
 40 58  1  0  0  0
 41109  1  0  0  0
 41110  1  0  0  0
 41111  1  0  0  0
 41 48  1  0  0  0
 42 43  1  0  0  0
 42 66  1  0  0  0
 42112  1  0  0  0
 42113  1  0  0  0
 43 44  1  0  0  0
 44114  1  0  0  0
 45 46  2  0  0  0
 45115  1  0  0  0
 46116  1  0  0  0
 47117  1  0  0  0
 47118  1  0  0  0
 48 56  1  0  0  0
 48 65  1  0  0  0
 48119  1  0  0  0
 49 50  1  0  0  0
 49 53  1  0  0  0
 49 64  1  0  0  0
 49120  1  0  0  0
 50 51  1  0  0  0
 50121  1  0  0  0
 50122  1  0  0  0
 51 52  1  0  0  0
 51123  1  0  0  0
 51124  1  0  0  0
 52125  1  0  0  0
 52126  1  0  0  0
 53 54  1  0  0  0
 54 55  2  0  0  0
 54127  1  0  0  0
 55 57  1  0  0  0
 55128  1  0  0  0
 56 69  2  0  0  0
 57 58  2  0  0  0
 57129  1  0  0  0
 58130  1  0  0  0
 59 60  1  0  0  0
 59 61  1  0  0  0
 59 62  1  0  0  0
 60131  1  0  0  0
 60132  1  0  0  0
 60133  1  0  0  0
 61134  1  0  0  0
 61135  1  0  0  0
 61136  1  0  0  0
 62137  1  0  0  0
 62138  1  0  0  0
 62139  1  0  0  0
 63 65  1  0  0  0
 63140  1  0  0  0
 63141  1  0  0  0
 63142  1  0  0  0
 64143  1  0  0  0
 65144  1  0  0  0
 68 80  1  0  0  0
 71 72  1  0  0  0
 71 73  2  0  0  0
 71145  1  0  0  0
 72 79  1  0  0  0
 72 83  2  0  0  0
 73 81  1  0  0  0
 73 84  1  0  0  0
 74146  1  0  0  0
 74147  1  0  0  0
 74148  1  0  0  0
 74 81  1  0  0  0
 75 81  1  0  0  0
 75149  1  0  0  0
 75150  1  0  0  0
 75151  1  0  0  0
 76152  1  0  0  0
 76153  1  0  0  0
 76154  1  0  0  0
 76 82  1  0  0  0
 77 82  1  0  0  0
 77155  1  0  0  0
 77156  1  0  0  0
 77157  1  0  0  0
 78 82  1  0  0  0
 78158  1  0  0  0
 78159  1  0  0  0
 78160  1  0  0  0
 79 80  1  0  0  0
 79161  1  0  0  0
 79162  1  0  0  0
 80163  1  0  0  0
 80164  1  0  0  0
 81 85  1  0  0  0
 82 84  1  0  0  0
 83 84  1  0  0  0
 85165  1  0  0  0
M  ISO  4   1 100  68 101  80 101  85 100
M  END
> <chiral flag>
0

> <version>
0

> <s_m_source_file>
/data/baiqing/PycharmProjects/Reinvent-master-3.2/result/LINK_invent/BTK/process_docking_weight1_custom_sum_contain_oxygen_bond_distance_aromatic_linkinvent_7_9_3/rearranged_h_0063.sdf

> <i_m_source_file_index>
34

> <r_mmod_Potential_Energy-OPLS-2005>
619.275695800781

> <r_mmod_Stretch_Energy-OPLS-2005>
324.352844238281

> <r_mmod_Bend_Energy-OPLS-2005>
333.005340576172

> <r_mmod_Torsional_Energy-OPLS-2005>
246.873245239258

> <r_mmod_Improper_Torsional_Energy-OPLS-2005>
9.38092613220215

> <r_mmod_Van_der_Waal_Energy-OPLS-2005>
125.098564147949

> <r_mmod_Electrostatic_Energy-OPLS-2005>
-435.565582275391

> <r_mmod_Solvation_Energy-OPLS-2005>
-205.237930297852

> <b_mmod_Minimization_Converged-OPLS-2005>
0

> <r_mmod_RMS_Derivative-OPLS-2005>
4.63647842407227

$$$$
36
                    3D
 Structure written by MMmdl.
160168  0  0  1  0            999 V2000
  -30.6242  -14.6396   20.5019 C   0  0  0  0  0  0
  -30.4365  -12.3956   19.4546 C   0  0  0  0  0  0
  -29.5111  -12.5088   18.2225 C   0  0  0  0  0  0
  -28.0345  -12.3355   18.6321 C   0  0  0  0  0  0
  -27.6505  -13.2074   19.8567 C   0  0  2  0  0  0
  -28.6949  -13.0769   20.9880 C   0  0  0  0  0  0
  -25.2525  -13.8082   20.5593 C   0  0  0  0  0  0
  -24.1813  -13.0374   20.9185 C   0  0  0  0  0  0
  -24.6388  -11.6867   20.8736 C   0  0  0  0  0  0
  -23.9035  -10.4271   21.0393 C   0  0  0  0  0  0
  -24.3593   -9.4200   21.9179 C   0  0  0  0  0  0
  -23.6281   -8.2231   22.0743 C   0  0  0  0  0  0
  -22.4257   -8.0262   21.3538 C   0  0  0  0  0  0
  -21.9886   -9.0226   20.4635 C   0  0  0  0  0  0
  -22.7202  -10.2117   20.3051 C   0  0  0  0  0  0
  -21.6852   -6.0726   22.5272 C   0  0  0  0  0  0
  -21.4010   -6.5632   23.8205 C   0  0  0  0  0  0
  -21.3663   -5.6783   24.9168 C   0  0  0  0  0  0
  -21.6043   -4.3041   24.7220 C   0  0  0  0  0  0
  -21.8833   -3.8137   23.4341 C   0  0  0  0  0  0
  -21.9198   -4.6956   22.3396 C   0  0  0  0  0  0
  -22.7852  -13.5210   21.1831 C   0  0  0  0  0  0
  -22.1658   -4.2149   21.0971 F   0  0  0  0  0  0
  -21.5642   -3.4527   25.7734 F   0  0  0  0  0  0
  -30.0055  -13.4226   20.4209 N   0  0  0  0  0  0
  -26.2964  -12.9271   20.3262 N   0  0  0  0  0  0
  -25.9325  -11.6440   20.5770 N   0  0  0  0  0  0
  -22.0468  -12.8242   22.0399 N   0  0  0  0  0  0
  -25.4122  -15.1760   20.3815 N   0  0  0  0  0  0
  -31.7981  -14.7923   20.1554 O   0  0  0  0  0  0
  -21.6623   -6.8861   21.4230 O   0  0  0  0  0  0
  -22.3541  -14.5499   20.6640 O   0  0  0  0  0  0
  -24.6241  -31.8586   23.1999 C   0  0  0  0  0  0
  -25.9089  -32.4793   23.8329 C   0  0  1  0  0  0
  -27.2457  -27.3378   20.1247 C   0  0  0  0  0  0
  -25.5907  -33.8590   24.2261 N   0  0  0  0  0  0
  -23.4197  -30.4816   21.5390 C   0  0  2  0  0  0
  -24.8727  -28.9347   20.1104 C   0  0  0  0  0  0
  -22.7469  -29.4624   22.4900 C   0  0  0  0  0  0
  -18.0280  -28.1392   22.8496 C   0  0  0  0  0  0
  -24.1486  -36.7313   23.2644 C   0  0  0  0  0  0
  -25.9561  -30.7995   21.3655 C   0  0  0  0  0  0
  -26.0353  -29.4243   20.7158 C   0  0  0  0  0  0
  -27.2223  -28.6367   20.7156 C   0  0  0  0  0  0
  -26.0594  -26.8941   19.4970 C   0  0  0  0  0  0
  -24.8862  -27.6737   19.4909 C   0  0  0  0  0  0
  -23.6354  -29.8087   20.1558 C   0  0  0  0  0  0
  -25.4108  -36.3096   24.0330 C   0  0  1  0  0  0
  -20.5883  -28.3691   23.1295 C   0  0  2  0  0  0
  -20.6769  -26.9412   22.5414 C   0  0  0  0  0  0
  -19.5735  -26.6374   21.5231 C   0  0  0  0  0  0
  -18.1918  -26.7933   22.1633 C   0  0  0  0  0  0
  -19.1540  -28.8851   23.2899 C   0  0  0  0  0  0
  -18.9464  -30.1462   23.8915 C   0  0  0  0  0  0
  -17.6472  -30.6597   24.0573 C   0  0  0  0  0  0
  -25.9038  -34.9466   23.5089 C   0  0  0  0  0  0
  -16.5357  -29.9104   23.6333 C   0  0  0  0  0  0
  -16.7277  -28.6513   23.0358 C   0  0  0  0  0  0
  -26.4470  -31.6621   25.0711 C   0  0  0  0  0  0
  -25.3702  -31.3785   26.1454 C   0  0  0  0  0  0
  -27.0304  -30.3051   24.6135 C   0  0  0  0  0  0
  -27.6007  -32.4371   25.7492 C   0  0  0  0  0  0
  -27.5570  -37.1821   24.8465 C   0  0  0  0  0  0
  -21.4180  -29.3059   22.3684 N   0  0  0  0  0  0
  -26.4288  -37.3790   23.9405 N   0  0  0  0  0  0
  -24.6854  -31.0627   22.0931 N   0  0  0  0  0  0
  -23.4205  -28.8152   23.2973 O   0  0  0  0  0  0
  -28.3854  -26.5239   20.1775 O   0  0  0  0  0  0
  -26.5610  -34.8936   22.4656 O   0  0  0  0  0  0
  -23.5405  -32.1343   23.7353 O   0  0  0  0  0  0
  -28.5761  -20.5242   21.2039 C   0  0  0  0  0  0
  -29.3855  -19.7784   20.2963 C   0  0  0  0  0  0
  -29.3588  -22.5871   20.3874 C   0  0  0  0  0  0
  -30.1978  -21.8396   19.4980 C   0  0  0  0  0  0
  -32.6118  -22.5151   19.1436 C   0  0  0  0  0  0
  -29.4194  -24.1515   20.5659 C   0  0  0  0  0  0
  -31.1960  -22.4873   18.5489 C   0  0  0  0  0  0
  -30.1237  -17.1956   20.8738 C   0  0  0  0  0  0
  -28.2380  -25.0603   20.0294 C   0  0  0  0  0  0
  -29.2106  -18.2283   20.0529 C   0  0  1  0  0  0
  -27.7081  -17.8654   20.0308 C   0  0  0  0  0  0
  -28.5607  -21.8931   21.2480 N   0  0  0  0  0  0
  -30.2045  -20.4698   19.4569 N   0  0  0  0  0  0
  -29.8207  -15.7107   20.7905 N   0  0  0  0  0  0
  -27.5463  -16.6957   19.4146 F   0  0  0  0  0  0
  -27.2225  -17.7650   21.2673 F   0  0  0  0  0  0
  -26.9932  -18.7696   19.3572 F   0  0  0  0  0  0
  -31.4814  -12.5182   19.1616 H   0  0  0  0  0  0
  -30.3657  -11.4039   19.9026 H   0  0  0  0  0  0
  -29.7849  -11.7629   17.4767 H   0  0  0  0  0  0
  -29.6482  -13.4811   17.7479 H   0  0  0  0  0  0
  -27.8823  -11.2818   18.8694 H   0  0  0  0  0  0
  -27.3796  -12.5548   17.7884 H   0  0  0  0  0  0
  -27.6635  -14.2371   19.5063 H   0  0  0  0  0  0
  -28.7156  -12.0603   21.3828 H   0  0  0  0  0  0
  -28.4404  -13.7194   21.8321 H   0  0  0  0  0  0
  -25.2743   -9.5698   22.4743 H   0  0  0  0  0  0
  -24.0000   -7.4639   22.7463 H   0  0  0  0  0  0
  -21.0824   -8.8746   19.8949 H   0  0  0  0  0  0
  -22.3647  -10.9660   19.6169 H   0  0  0  0  0  0
  -21.1990   -7.6145   23.9714 H   0  0  0  0  0  0
  -21.1461   -6.0505   25.9076 H   0  0  0  0  0  0
  -22.0608   -2.7605   23.2831 H   0  0  0  0  0  0
  -22.4035  -11.9936   22.4864 H   0  0  0  0  0  0
  -21.1094  -13.1309   22.2550 H   0  0  0  0  0  0
  -24.6208  -15.8080   20.4149 H   0  0  0  0  0  0
  -26.2352  -15.5978   19.9667 H   0  0  0  0  0  0
  -26.7168  -32.5491   23.1100 H   0  0  0  0  0  0
  -25.0096  -33.9715   25.0439 H   0  0  0  0  0  0
  -22.7149  -31.3017   21.3918 H   0  0  0  0  0  0
  -23.3731  -35.9670   23.3335 H   0  0  0  0  0  0
  -24.3566  -36.8879   22.2047 H   0  0  0  0  0  0
  -23.7246  -37.6529   23.6645 H   0  0  0  0  0  0
  -26.0756  -31.5571   20.5899 H   0  0  0  0  0  0
  -26.8410  -30.8603   21.9865 H   0  0  0  0  0  0
  -28.1108  -29.0089   21.2046 H   0  0  0  0  0  0
  -26.0204  -25.9298   19.0127 H   0  0  0  0  0  0
  -23.9982  -27.2944   19.0045 H   0  0  0  0  0  0
  -23.7488  -30.5818   19.3945 H   0  0  0  0  0  0
  -22.7600  -29.2293   19.8547 H   0  0  0  0  0  0
  -25.1287  -36.1948   25.0821 H   0  0  0  0  0  0
  -20.9998  -28.3269   24.1408 H   0  0  0  0  0  0
  -20.5687  -26.2296   23.3614 H   0  0  0  0  0  0
  -21.6631  -26.7440   22.1194 H   0  0  0  0  0  0
  -19.6899  -25.6288   21.1254 H   0  0  0  0  0  0
  -19.6679  -27.3194   20.6771 H   0  0  0  0  0  0
  -17.4186  -26.6702   21.4036 H   0  0  0  0  0  0
  -18.0310  -26.0083   22.9030 H   0  0  0  0  0  0
  -19.7953  -30.7276   24.2277 H   0  0  0  0  0  0
  -17.5031  -31.6284   24.5170 H   0  0  0  0  0  0
  -15.5366  -30.3018   23.7648 H   0  0  0  0  0  0
  -15.8666  -28.0852   22.7058 H   0  0  0  0  0  0
  -24.5842  -30.7165   25.7810 H   0  0  0  0  0  0
  -24.8960  -32.2982   26.4903 H   0  0  0  0  0  0
  -25.8024  -30.8951   27.0223 H   0  0  0  0  0  0
  -26.2863  -29.6838   24.1136 H   0  0  0  0  0  0
  -27.3990  -29.7276   25.4620 H   0  0  0  0  0  0
  -27.8742  -30.4359   23.9349 H   0  0  0  0  0  0
  -27.2568  -33.3648   26.2086 H   0  0  0  0  0  0
  -28.3818  -32.6965   25.0336 H   0  0  0  0  0  0
  -28.0688  -31.8501   26.5402 H   0  0  0  0  0  0
  -28.2607  -38.0106   24.7487 H   0  0  0  0  0  0
  -28.1033  -36.2621   24.6314 H   0  0  0  0  0  0
  -27.2287  -37.1499   25.8873 H   0  0  0  0  0  0
  -20.9337  -29.8827   21.6948 H   0  0  0  0  0  0
  -26.0165  -38.2868   24.1403 H   0  0  0  0  0  0
  -27.8849  -20.0298   21.8689 H   0  0  0  0  0  0
  -33.3375  -22.8791   18.4165 H   0  0  0  0  0  0
  -32.9326  -21.5195   19.4563 H   0  0  0  0  0  0
  -32.6576  -23.1686   20.0147 H   0  0  0  0  0  0
  -30.3562  -24.5262   20.1553 H   0  0  0  0  0  0
  -29.5085  -24.3269   21.6379 H   0  0  0  0  0  0
  -30.8767  -23.4910   18.2650 H   0  0  0  0  0  0
  -31.2056  -21.9194   17.6173 H   0  0  0  0  0  0
  -30.0513  -17.4618   21.9271 H   0  0  0  0  0  0
  -31.1656  -17.3665   20.6049 H   0  0  0  0  0  0
  -27.3337  -24.7425   20.5508 H   0  0  0  0  0  0
  -28.0892  -24.8382   18.9726 H   0  0  0  0  0  0
  -29.5258  -18.0964   19.0166 H   0  0  0  0  0  0
  -28.8669  -15.4541   21.0004 H   0  0  0  0  0  0
  1 25  1  0  0  0
  1 30  2  0  0  0
  1 84  1  0  0  0
  2  3  1  0  0  0
  2 25  1  0  0  0
  2 88  1  0  0  0
  2 89  1  0  0  0
  3  4  1  0  0  0
  3 90  1  0  0  0
  3 91  1  0  0  0
  4  5  1  0  0  0
  4 92  1  0  0  0
  4 93  1  0  0  0
  5  6  1  0  0  0
  5 26  1  0  0  0
  5 94  1  0  0  0
  6 25  1  0  0  0
  6 95  1  0  0  0
  6 96  1  0  0  0
  7  8  2  0  0  0
  7 26  1  0  0  0
  7 29  1  0  0  0
  8  9  1  0  0  0
  8 22  1  0  0  0
  9 10  1  0  0  0
  9 27  2  0  0  0
 10 11  2  0  0  0
 10 15  1  0  0  0
 11 12  1  0  0  0
 11 97  1  0  0  0
 12 13  2  0  0  0
 12 98  1  0  0  0
 13 14  1  0  0  0
 13 31  1  0  0  0
 14 15  2  0  0  0
 14 99  1  0  0  0
 15100  1  0  0  0
 16 17  2  0  0  0
 16 21  1  0  0  0
 16 31  1  0  0  0
 17 18  1  0  0  0
 17101  1  0  0  0
 18 19  2  0  0  0
 18102  1  0  0  0
 19 20  1  0  0  0
 19 24  1  0  0  0
 20 21  2  0  0  0
 20103  1  0  0  0
 21 23  1  0  0  0
 22 28  1  0  0  0
 22 32  2  0  0  0
 26 27  1  0  0  0
 28104  1  0  0  0
 28105  1  0  0  0
 29106  1  0  0  0
 29107  1  0  0  0
 33 34  1  0  0  0
 33 66  1  0  0  0
 33 70  2  0  0  0
 34 36  1  0  0  0
 34 59  1  0  0  0
 34108  1  0  0  0
 35 44  2  0  0  0
 35 45  1  0  0  0
 35 68  1  0  0  0
 36 56  1  0  0  0
 36109  1  0  0  0
 37 39  1  0  0  0
 37 47  1  0  0  0
 37 66  1  0  0  0
 37110  1  0  0  0
 38 43  2  0  0  0
 38 46  1  0  0  0
 38 47  1  0  0  0
 39 64  1  0  0  0
 39 67  2  0  0  0
 40 52  1  0  0  0
 40 53  2  0  0  0
 40 58  1  0  0  0
 41111  1  0  0  0
 41112  1  0  0  0
 41113  1  0  0  0
 41 48  1  0  0  0
 42 43  1  0  0  0
 42 66  1  0  0  0
 42114  1  0  0  0
 42115  1  0  0  0
 43 44  1  0  0  0
 44116  1  0  0  0
 45 46  2  0  0  0
 45117  1  0  0  0
 46118  1  0  0  0
 47119  1  0  0  0
 47120  1  0  0  0
 48 56  1  0  0  0
 48 65  1  0  0  0
 48121  1  0  0  0
 49 50  1  0  0  0
 49 53  1  0  0  0
 49 64  1  0  0  0
 49122  1  0  0  0
 50 51  1  0  0  0
 50123  1  0  0  0
 50124  1  0  0  0
 51 52  1  0  0  0
 51125  1  0  0  0
 51126  1  0  0  0
 52127  1  0  0  0
 52128  1  0  0  0
 53 54  1  0  0  0
 54 55  2  0  0  0
 54129  1  0  0  0
 55 57  1  0  0  0
 55130  1  0  0  0
 56 69  2  0  0  0
 57 58  2  0  0  0
 57131  1  0  0  0
 58132  1  0  0  0
 59 60  1  0  0  0
 59 61  1  0  0  0
 59 62  1  0  0  0
 60133  1  0  0  0
 60134  1  0  0  0
 60135  1  0  0  0
 61136  1  0  0  0
 61137  1  0  0  0
 61138  1  0  0  0
 62139  1  0  0  0
 62140  1  0  0  0
 62141  1  0  0  0
 63 65  1  0  0  0
 63142  1  0  0  0
 63143  1  0  0  0
 63144  1  0  0  0
 64145  1  0  0  0
 65146  1  0  0  0
 68 79  1  0  0  0
 71 72  2  0  0  0
 71 82  1  0  0  0
 71147  1  0  0  0
 72 80  1  0  0  0
 72 83  1  0  0  0
 73 74  1  0  0  0
 73 76  1  0  0  0
 73 82  2  0  0  0
 74 77  1  0  0  0
 74 83  2  0  0  0
 75 77  1  0  0  0
 75148  1  0  0  0
 75149  1  0  0  0
 75150  1  0  0  0
 76 79  1  0  0  0
 76151  1  0  0  0
 76152  1  0  0  0
 77153  1  0  0  0
 77154  1  0  0  0
 78 84  1  0  0  0
 78155  1  0  0  0
 78156  1  0  0  0
 78 80  1  0  0  0
 79157  1  0  0  0
 79158  1  0  0  0
 80 81  1  0  0  0
 80159  1  0  0  0
 81 85  1  0  0  0
 81 86  1  0  0  0
 81 87  1  0  0  0
 84160  1  0  0  0
M  ISO  4   1 100  68 101  79 101  84 100
M  END
> <chiral flag>
0

> <version>
0

> <s_m_source_file>
/data/baiqing/PycharmProjects/Reinvent-master-3.2/result/LINK_invent/BTK/process_docking_weight1_custom_sum_contain_oxygen_bond_distance_aromatic_linkinvent_7_9_3/rearranged_h_0063.sdf

> <i_m_source_file_index>
35

> <r_mmod_Potential_Energy-OPLS-2005>
115.702995300293

> <r_mmod_Stretch_Energy-OPLS-2005>
83.2719268798828

> <r_mmod_Bend_Energy-OPLS-2005>
138.507476806641

> <r_mmod_Torsional_Energy-OPLS-2005>
198.069564819336

> <r_mmod_Improper_Torsional_Energy-OPLS-2005>
6.5424427986145

> <r_mmod_Van_der_Waal_Energy-OPLS-2005>
147.871810913086

> <r_mmod_Electrostatic_Energy-OPLS-2005>
-293.143371582031

> <r_mmod_Solvation_Energy-OPLS-2005>
-210.99153137207

> <b_mmod_Minimization_Converged-OPLS-2005>
0

> <r_mmod_RMS_Derivative-OPLS-2005>
2.98493194580078

$$$$
37
                    3D
 Structure written by MMmdl.
174182  0  0  1  0            999 V2000
  -30.7472  -14.4776   20.4900 C   0  0  0  0  0  0
  -30.4081  -12.2984   19.4270 C   0  0  0  0  0  0
  -29.4834  -12.4649   18.2014 C   0  0  0  0  0  0
  -27.9989  -12.3720   18.6042 C   0  0  0  0  0  0
  -27.6492  -13.2135   19.8581 C   0  0  2  0  0  0
  -28.6963  -12.9985   20.9643 C   0  0  0  0  0  0
  -25.2510  -13.8104   20.5633 C   0  0  0  0  0  0
  -24.1787  -13.0390   20.9129 C   0  0  0  0  0  0
  -24.6380  -11.6868   20.8730 C   0  0  0  0  0  0
  -23.9062  -10.4269   21.0424 C   0  0  0  0  0  0
  -24.3606   -9.4183   21.9224 C   0  0  0  0  0  0
  -23.6275   -8.2224   22.0789 C   0  0  0  0  0  0
  -22.4260   -8.0267   21.3564 C   0  0  0  0  0  0
  -21.9899   -9.0238   20.4667 C   0  0  0  0  0  0
  -22.7226  -10.2118   20.3083 C   0  0  0  0  0  0
  -21.6836   -6.0722   22.5294 C   0  0  0  0  0  0
  -21.3993   -6.5631   23.8213 C   0  0  0  0  0  0
  -21.3662   -5.6796   24.9182 C   0  0  0  0  0  0
  -21.6032   -4.3054   24.7239 C   0  0  0  0  0  0
  -21.8814   -3.8143   23.4360 C   0  0  0  0  0  0
  -21.9186   -4.6961   22.3413 C   0  0  0  0  0  0
  -22.7819  -13.5194   21.1810 C   0  0  0  0  0  0
  -22.1671   -4.2147   21.0998 F   0  0  0  0  0  0
  -21.5644   -3.4552   25.7758 F   0  0  0  0  0  0
  -30.0212  -13.3199   20.4177 N   0  0  0  0  0  0
  -26.2967  -12.9323   20.3331 N   0  0  0  0  0  0
  -25.9307  -11.6470   20.5762 N   0  0  0  0  0  0
  -22.0492  -12.8192   22.0376 N   0  0  0  0  0  0
  -25.4203  -15.1818   20.4055 N   0  0  0  0  0  0
  -31.9541  -14.4451   20.2413 O   0  0  0  0  0  0
  -21.6622   -6.8869   21.4249 O   0  0  0  0  0  0
  -22.3501  -14.5508   20.6670 O   0  0  0  0  0  0
  -24.6145  -31.8760   23.2191 C   0  0  0  0  0  0
  -25.9037  -32.4860   23.8489 C   0  0  1  0  0  0
  -27.2285  -27.4718   20.0630 C   0  0  0  0  0  0
  -25.5869  -33.8647   24.2429 N   0  0  0  0  0  0
  -23.3989  -30.5088   21.5606 C   0  0  2  0  0  0
  -24.8386  -28.9809   20.1163 C   0  0  0  0  0  0
  -22.7428  -29.4730   22.5014 C   0  0  0  0  0  0
  -18.0290  -28.1338   22.8527 C   0  0  0  0  0  0
  -24.1481  -36.7331   23.2653 C   0  0  0  0  0  0
  -25.9307  -30.8443   21.3737 C   0  0  0  0  0  0
  -25.9991  -29.4866   20.7104 C   0  0  0  0  0  0
  -27.1921  -28.7326   20.6902 C   0  0  0  0  0  0
  -26.0394  -26.9682   19.4773 C   0  0  0  0  0  0
  -24.8486  -27.7134   19.5128 C   0  0  0  0  0  0
  -23.6015  -29.8483   20.1727 C   0  0  0  0  0  0
  -25.4075  -36.3138   24.0388 C   0  0  1  0  0  0
  -20.5888  -28.3636   23.1302 C   0  0  2  0  0  0
  -20.6744  -26.9354   22.5407 C   0  0  0  0  0  0
  -19.5707  -26.6357   21.5220 C   0  0  0  0  0  0
  -18.1903  -26.7893   22.1661 C   0  0  0  0  0  0
  -19.1535  -28.8808   23.2926 C   0  0  0  0  0  0
  -18.9458  -30.1424   23.8924 C   0  0  0  0  0  0
  -17.6449  -30.6544   24.0565 C   0  0  0  0  0  0
  -25.9008  -34.9493   23.5218 C   0  0  0  0  0  0
  -16.5343  -29.9047   23.6314 C   0  0  0  0  0  0
  -16.7281  -28.6457   23.0354 C   0  0  0  0  0  0
  -26.4421  -31.6623   25.0806 C   0  0  0  0  0  0
  -25.3672  -31.3727   26.1562 C   0  0  0  0  0  0
  -27.0243  -30.3059   24.6172 C   0  0  0  0  0  0
  -27.6026  -32.4348   25.7518 C   0  0  0  0  0  0
  -27.5582  -37.1803   24.8464 C   0  0  0  0  0  0
  -21.4157  -29.3037   22.3732 N   0  0  0  0  0  0
  -26.4277  -37.3784   23.9431 N   0  0  0  0  0  0
  -24.6663  -31.0900   22.1086 N   0  0  0  0  0  0
  -23.4226  -28.8233   23.2994 O   0  0  0  0  0  0
  -28.4363  -26.8081   20.0483 O   0  0  0  0  0  0
  -26.5561  -34.8908   22.4770 O   0  0  0  0  0  0
  -23.5347  -32.1527   23.7584 O   0  0  0  0  0  0
  -27.8157  -16.3113   23.0676 C   0  0  0  0  0  0
  -28.0306  -17.2240   21.2124 C   0  0  0  0  0  0
  -28.2330  -23.1890   17.6624 C   0  0  0  0  0  0
  -29.8756  -16.1523   18.8994 C   0  0  0  0  0  0
  -31.2402  -16.9417   20.8642 C   0  0  0  0  0  0
  -25.8824  -22.2435   19.2807 C   0  0  0  0  0  0
  -27.8552  -18.1949   20.0742 C   0  0  0  0  0  0
  -27.4748  -19.6234   20.5046 C   0  0  0  0  0  0
  -28.0587  -24.3973   19.9696 C   0  0  0  0  0  0
  -27.7270  -20.6302   19.3623 C   0  0  0  0  0  0
  -28.5791  -25.6497   19.2376 C   0  0  0  0  0  0
  -28.2506  -23.0602   19.2042 C   0  0  1  0  0  0
  -27.3243  -15.9773   24.4603 C   0  0  0  0  0  0
  -30.1400  -15.9316   20.4224 C   0  0  0  0  0  0
  -27.2225  -17.2449   22.2677 N   0  0  0  0  0  0
  -28.9265  -15.7730   22.5596 N   0  0  0  0  0  0
  -28.9748  -16.2516   21.2866 N   0  0  0  0  0  0
  -27.2958  -22.0151   19.6897 N   0  3  1  0  0  0
  -26.0737  -16.4114   24.6419 F   0  0  0  0  0  0
  -27.3375  -14.6565   24.6462 F   0  0  0  0  0  0
  -28.1072  -16.5496   25.3786 F   0  0  0  0  0  0
  -31.4491  -12.3760   19.1091 H   0  0  0  0  0  0
  -30.3121  -11.2991   19.8574 H   0  0  0  0  0  0
  -29.7059  -11.6973   17.4581 H   0  0  0  0  0  0
  -29.6734  -13.4180   17.7088 H   0  0  0  0  0  0
  -27.7729  -11.3221   18.7895 H   0  0  0  0  0  0
  -27.3665  -12.6787   17.7701 H   0  0  0  0  0  0
  -27.6801  -14.2576   19.5571 H   0  0  0  0  0  0
  -28.6819  -11.9552   21.2792 H   0  0  0  0  0  0
  -28.4500  -13.5351   21.8689 H   0  0  0  0  0  0
  -25.2769   -9.5635   22.4778 H   0  0  0  0  0  0
  -23.9989   -7.4590   22.7490 H   0  0  0  0  0  0
  -21.0854   -8.8715   19.8950 H   0  0  0  0  0  0
  -22.3699  -10.9637   19.6173 H   0  0  0  0  0  0
  -21.1967   -7.6144   23.9705 H   0  0  0  0  0  0
  -21.1506   -6.0547   25.9080 H   0  0  0  0  0  0
  -22.0597   -2.7612   23.2867 H   0  0  0  0  0  0
  -22.4126  -11.9879   22.4768 H   0  0  0  0  0  0
  -21.1146  -13.1239   22.2638 H   0  0  0  0  0  0
  -24.6683  -15.8450   20.5525 H   0  0  0  0  0  0
  -26.3036  -15.6259   20.1983 H   0  0  0  0  0  0
  -26.7099  -32.5583   23.1253 H   0  0  0  0  0  0
  -24.9939  -33.9818   25.0523 H   0  0  0  0  0  0
  -22.6861  -31.3265   21.4286 H   0  0  0  0  0  0
  -23.3738  -35.9680   23.3306 H   0  0  0  0  0  0
  -24.3590  -36.8931   22.2069 H   0  0  0  0  0  0
  -23.7222  -37.6532   23.6650 H   0  0  0  0  0  0
  -26.0559  -31.6177   20.6143 H   0  0  0  0  0  0
  -26.8151  -30.8829   21.9980 H   0  0  0  0  0  0
  -28.0946  -29.1195   21.1449 H   0  0  0  0  0  0
  -26.0005  -26.0089   18.9866 H   0  0  0  0  0  0
  -23.9456  -27.3114   19.0736 H   0  0  0  0  0  0
  -23.6967  -30.6283   19.4155 H   0  0  0  0  0  0
  -22.7228  -29.2691   19.8842 H   0  0  0  0  0  0
  -25.1219  -36.2048   25.0880 H   0  0  0  0  0  0
  -21.0015  -28.3174   24.1415 H   0  0  0  0  0  0
  -20.5608  -26.2246   23.3600 H   0  0  0  0  0  0
  -21.6612  -26.7353   22.1210 H   0  0  0  0  0  0
  -19.6833  -25.6282   21.1213 H   0  0  0  0  0  0
  -19.6612  -27.3200   20.6765 H   0  0  0  0  0  0
  -17.4166  -26.6700   21.4048 H   0  0  0  0  0  0
  -18.0270  -26.0012   22.9027 H   0  0  0  0  0  0
  -19.7922  -30.7242   24.2289 H   0  0  0  0  0  0
  -17.4987  -31.6233   24.5155 H   0  0  0  0  0  0
  -15.5335  -30.2937   23.7581 H   0  0  0  0  0  0
  -15.8700  -28.0759   22.7036 H   0  0  0  0  0  0
  -24.5877  -30.7007   25.7934 H   0  0  0  0  0  0
  -24.8794  -32.2866   26.4979 H   0  0  0  0  0  0
  -25.8031  -30.8962   27.0363 H   0  0  0  0  0  0
  -26.2811  -29.6820   24.1180 H   0  0  0  0  0  0
  -27.3932  -29.7266   25.4648 H   0  0  0  0  0  0
  -27.8685  -30.4330   23.9390 H   0  0  0  0  0  0
  -27.2676  -33.3663   26.2083 H   0  0  0  0  0  0
  -28.3806  -32.6875   25.0313 H   0  0  0  0  0  0
  -28.0712  -31.8483   26.5428 H   0  0  0  0  0  0
  -28.2588  -38.0095   24.7512 H   0  0  0  0  0  0
  -28.1082  -36.2640   24.6283 H   0  0  0  0  0  0
  -27.2330  -37.1451   25.8866 H   0  0  0  0  0  0
  -20.9307  -29.8858   21.7030 H   0  0  0  0  0  0
  -26.0210  -38.2902   24.1350 H   0  0  0  0  0  0
  -29.0296  -23.8410   17.3007 H   0  0  0  0  0  0
  -27.2896  -23.5955   17.2975 H   0  0  0  0  0  0
  -28.4064  -22.2276   17.1799 H   0  0  0  0  0  0
  -30.2000  -17.1327   18.5534 H   0  0  0  0  0  0
  -28.8312  -16.0144   18.6267 H   0  0  0  0  0  0
  -30.4433  -15.4704   18.2647 H   0  0  0  0  0  0
  -30.8741  -17.9684   20.8496 H   0  0  0  0  0  0
  -32.1250  -16.9186   20.2265 H   0  0  0  0  0  0
  -31.5727  -16.7393   21.8821 H   0  0  0  0  0  0
  -25.2394  -21.4802   19.7181 H   0  0  0  0  0  0
  -25.7676  -22.1734   18.2002 H   0  0  0  0  0  0
  -25.4866  -23.2122   19.5828 H   0  0  0  0  0  0
  -27.1361  -17.7938   19.3576 H   0  0  0  0  0  0
  -28.7981  -18.3081   19.5535 H   0  0  0  0  0  0
  -28.0986  -19.9107   21.3530 H   0  0  0  0  0  0
  -26.4389  -19.6358   20.8500 H   0  0  0  0  0  0
  -27.0173  -24.5592   20.2308 H   0  0  0  0  0  0
  -28.5667  -24.3207   20.9319 H   0  0  0  0  0  0
  -27.2373  -20.3042   18.4424 H   0  0  0  0  0  0
  -28.7968  -20.6098   19.1436 H   0  0  0  0  0  0
  -28.0883  -25.7992   18.2746 H   0  0  0  0  0  0
  -29.6399  -25.5392   19.0120 H   0  0  0  0  0  0
  -29.2600  -22.7326   19.4658 H   0  0  0  0  0  0
  -27.3204  -22.0770   20.6967 H   0  0  0  0  0  0
  1 25  1  0  0  0
  1 30  2  0  0  0
  1 84  1  0  0  0
  2  3  1  0  0  0
  2 25  1  0  0  0
  2 92  1  0  0  0
  2 93  1  0  0  0
  3  4  1  0  0  0
  3 94  1  0  0  0
  3 95  1  0  0  0
  4  5  1  0  0  0
  4 96  1  0  0  0
  4 97  1  0  0  0
  5  6  1  0  0  0
  5 26  1  0  0  0
  5 98  1  0  0  0
  6 25  1  0  0  0
  6 99  1  0  0  0
  6100  1  0  0  0
  7  8  2  0  0  0
  7 26  1  0  0  0
  7 29  1  0  0  0
  8  9  1  0  0  0
  8 22  1  0  0  0
  9 10  1  0  0  0
  9 27  2  0  0  0
 10 11  2  0  0  0
 10 15  1  0  0  0
 11 12  1  0  0  0
 11101  1  0  0  0
 12 13  2  0  0  0
 12102  1  0  0  0
 13 14  1  0  0  0
 13 31  1  0  0  0
 14 15  2  0  0  0
 14103  1  0  0  0
 15104  1  0  0  0
 16 17  2  0  0  0
 16 21  1  0  0  0
 16 31  1  0  0  0
 17 18  1  0  0  0
 17105  1  0  0  0
 18 19  2  0  0  0
 18106  1  0  0  0
 19 20  1  0  0  0
 19 24  1  0  0  0
 20 21  2  0  0  0
 20107  1  0  0  0
 21 23  1  0  0  0
 22 28  1  0  0  0
 22 32  2  0  0  0
 26 27  1  0  0  0
 28108  1  0  0  0
 28109  1  0  0  0
 29110  1  0  0  0
 29111  1  0  0  0
 33 34  1  0  0  0
 33 66  1  0  0  0
 33 70  2  0  0  0
 34 36  1  0  0  0
 34 59  1  0  0  0
 34112  1  0  0  0
 35 44  2  0  0  0
 35 45  1  0  0  0
 35 68  1  0  0  0
 36 56  1  0  0  0
 36113  1  0  0  0
 37 39  1  0  0  0
 37 47  1  0  0  0
 37 66  1  0  0  0
 37114  1  0  0  0
 38 43  2  0  0  0
 38 46  1  0  0  0
 38 47  1  0  0  0
 39 64  1  0  0  0
 39 67  2  0  0  0
 40 52  1  0  0  0
 40 53  2  0  0  0
 40 58  1  0  0  0
 41115  1  0  0  0
 41116  1  0  0  0
 41117  1  0  0  0
 41 48  1  0  0  0
 42 43  1  0  0  0
 42 66  1  0  0  0
 42118  1  0  0  0
 42119  1  0  0  0
 43 44  1  0  0  0
 44120  1  0  0  0
 45 46  2  0  0  0
 45121  1  0  0  0
 46122  1  0  0  0
 47123  1  0  0  0
 47124  1  0  0  0
 48 56  1  0  0  0
 48 65  1  0  0  0
 48125  1  0  0  0
 49 50  1  0  0  0
 49 53  1  0  0  0
 49 64  1  0  0  0
 49126  1  0  0  0
 50 51  1  0  0  0
 50127  1  0  0  0
 50128  1  0  0  0
 51 52  1  0  0  0
 51129  1  0  0  0
 51130  1  0  0  0
 52131  1  0  0  0
 52132  1  0  0  0
 53 54  1  0  0  0
 54 55  2  0  0  0
 54133  1  0  0  0
 55 57  1  0  0  0
 55134  1  0  0  0
 56 69  2  0  0  0
 57 58  2  0  0  0
 57135  1  0  0  0
 58136  1  0  0  0
 59 60  1  0  0  0
 59 61  1  0  0  0
 59 62  1  0  0  0
 60137  1  0  0  0
 60138  1  0  0  0
 60139  1  0  0  0
 61140  1  0  0  0
 61141  1  0  0  0
 61142  1  0  0  0
 62143  1  0  0  0
 62144  1  0  0  0
 62145  1  0  0  0
 63 65  1  0  0  0
 63146  1  0  0  0
 63147  1  0  0  0
 63148  1  0  0  0
 64149  1  0  0  0
 65150  1  0  0  0
 68 81  1  0  0  0
 71 83  1  0  0  0
 71 85  1  0  0  0
 71 86  2  0  0  0
 72 77  1  0  0  0
 72 85  2  0  0  0
 72 87  1  0  0  0
 73151  1  0  0  0
 73152  1  0  0  0
 73153  1  0  0  0
 73 82  1  0  0  0
 74154  1  0  0  0
 74155  1  0  0  0
 74156  1  0  0  0
 74 84  1  0  0  0
 75 84  1  0  0  0
 75157  1  0  0  0
 75158  1  0  0  0
 75159  1  0  0  0
 76160  1  0  0  0
 76161  1  0  0  0
 76162  1  0  0  0
 76 88  1  0  0  0
 77 78  1  0  0  0
 77163  1  0  0  0
 77164  1  0  0  0
 78 80  1  0  0  0
 78165  1  0  0  0
 78166  1  0  0  0
 79 81  1  0  0  0
 79 82  1  0  0  0
 79167  1  0  0  0
 79168  1  0  0  0
 80 88  1  0  0  0
 80169  1  0  0  0
 80170  1  0  0  0
 81171  1  0  0  0
 81172  1  0  0  0
 82 88  1  0  0  0
 82173  1  0  0  0
 83 89  1  0  0  0
 83 90  1  0  0  0
 83 91  1  0  0  0
 84 87  1  0  0  0
 86 87  1  0  0  0
 88174  1  0  0  0
M  CHG  1  88   1
M  ISO  4   1 100  68 101  81 101  84 100
M  END
> <chiral flag>
0

> <version>
0

> <s_m_source_file>
/data/baiqing/PycharmProjects/Reinvent-master-3.2/result/LINK_invent/BTK/process_docking_weight1_custom_sum_contain_oxygen_bond_distance_aromatic_linkinvent_7_9_3/rearranged_h_0063.sdf

> <i_m_source_file_index>
36

> <r_mmod_Potential_Energy-OPLS-2005>
182.313491821289

> <r_mmod_Stretch_Energy-OPLS-2005>
44.1318473815918

> <r_mmod_Bend_Energy-OPLS-2005>
149.932281494141

> <r_mmod_Torsional_Energy-OPLS-2005>
257.363037109375

> <r_mmod_Improper_Torsional_Energy-OPLS-2005>
13.6273603439331

> <r_mmod_Van_der_Waal_Energy-OPLS-2005>
154.56982421875

> <r_mmod_Electrostatic_Energy-OPLS-2005>
-30.5348091125488

> <r_mmod_Solvation_Energy-OPLS-2005>
-433.906646728516

> <b_mmod_Minimization_Converged-OPLS-2005>
0

> <r_mmod_RMS_Derivative-OPLS-2005>
4.68356323242188

$$$$
38
                    3D
 Structure written by MMmdl.
179187  0  0  1  0            999 V2000
  -30.7775  -14.1775   20.5873 C   0  0  0  0  0  0
  -31.2603  -12.1222   19.1207 C   0  0  0  0  0  0
  -29.7711  -12.1459   17.6841 C   0  0  0  0  0  0
  -27.8910  -12.7307   18.1490 C   0  0  0  0  0  0
  -27.4157  -13.3912   19.9902 C   0  0  2  0  0  0
  -28.7401  -13.3302   21.5313 C   0  0  0  0  0  0
  -25.0951  -13.8625   20.6159 C   0  0  0  0  0  0
  -24.0642  -13.0474   20.9399 C   0  0  0  0  0  0
  -24.5548  -11.7068   20.8704 C   0  0  0  0  0  0
  -23.8684  -10.4288   21.0354 C   0  0  0  0  0  0
  -24.3465   -9.4292   21.9103 C   0  0  0  0  0  0
  -23.6258   -8.2265   22.0727 C   0  0  0  0  0  0
  -22.4230   -8.0208   21.3547 C   0  0  0  0  0  0
  -21.9729   -9.0101   20.4635 C   0  0  0  0  0  0
  -22.6926  -10.2027   20.2993 C   0  0  0  0  0  0
  -21.6862   -6.0680   22.5283 C   0  0  0  0  0  0
  -21.4060   -6.5620   23.8201 C   0  0  0  0  0  0
  -21.3662   -5.6785   24.9167 C   0  0  0  0  0  0
  -21.6026   -4.3038   24.7238 C   0  0  0  0  0  0
  -21.8829   -3.8118   23.4367 C   0  0  0  0  0  0
  -21.9212   -4.6916   22.3418 C   0  0  0  0  0  0
  -22.6771  -13.5093   21.2057 C   0  0  0  0  0  0
  -22.1672   -4.2095   21.0990 F   0  0  0  0  0  0
  -21.5596   -3.4543   25.7756 F   0  0  0  0  0  0
  -30.5816  -13.0211   20.8252 N   0  0  0  0  0  0
  -26.1302  -13.0076   20.3781 N   0  0  0  0  0  0
  -25.8255  -11.7060   20.5293 N   0  0  0  0  0  0
  -21.9641  -12.8022   22.0694 N   0  0  0  0  0  0
  -25.2290  -15.2449   20.4912 N   0  0  0  0  0  0
  -31.7987  -14.7306   20.1554 O   0  0  0  0  0  0
  -21.6670   -6.8782   21.4227 O   0  0  0  0  0  0
  -22.2480  -14.5397   20.6895 O   0  0  0  0  0  0
  -24.6175  -31.8662   23.2086 C   0  0  0  0  0  0
  -25.9040  -32.4823   23.8394 C   0  0  1  0  0  0
  -27.2314  -27.4156   20.0807 C   0  0  0  0  0  0
  -25.5870  -33.8608   24.2320 N   0  0  0  0  0  0
  -23.4047  -30.4923   21.5525 C   0  0  2  0  0  0
  -24.8481  -28.9603   20.1070 C   0  0  0  0  0  0
  -22.7432  -29.4650   22.5007 C   0  0  0  0  0  0
  -18.0256  -28.1354   22.8507 C   0  0  0  0  0  0
  -24.1458  -36.7345   23.2656 C   0  0  0  0  0  0
  -25.9363  -30.8262   21.3591 C   0  0  0  0  0  0
  -26.0092  -29.4571   20.7110 C   0  0  0  0  0  0
  -27.2000  -28.6921   20.6951 C   0  0  0  0  0  0
  -26.0446  -26.9372   19.4771 C   0  0  0  0  0  0
  -24.8652  -27.7040   19.4821 C   0  0  0  0  0  0
  -23.6085  -29.8260   20.1651 C   0  0  0  0  0  0
  -25.4085  -36.3150   24.0368 C   0  0  1  0  0  0
  -20.5859  -28.3649   23.1300 C   0  0  2  0  0  0
  -20.6744  -26.9388   22.5406 C   0  0  0  0  0  0
  -19.5712  -26.6374   21.5204 C   0  0  0  0  0  0
  -18.1892  -26.7900   22.1628 C   0  0  0  0  0  0
  -19.1511  -28.8828   23.2895 C   0  0  0  0  0  0
  -18.9440  -30.1424   23.8930 C   0  0  0  0  0  0
  -17.6444  -30.6578   24.0551 C   0  0  0  0  0  0
  -25.9014  -34.9491   23.5152 C   0  0  0  0  0  0
  -16.5336  -29.9082   23.6303 C   0  0  0  0  0  0
  -16.7250  -28.6475   23.0374 C   0  0  0  0  0  0
  -26.4451  -31.6610   25.0730 C   0  0  0  0  0  0
  -25.3683  -31.3730   26.1456 C   0  0  0  0  0  0
  -27.0298  -30.3064   24.6077 C   0  0  0  0  0  0
  -27.6016  -32.4361   25.7485 C   0  0  0  0  0  0
  -27.5570  -37.1833   24.8469 C   0  0  0  0  0  0
  -21.4170  -29.3014   22.3736 N   0  0  0  0  0  0
  -26.4284  -37.3833   23.9411 N   0  0  0  0  0  0
  -24.6741  -31.0739   22.0995 N   0  0  0  0  0  0
  -23.4208  -28.8199   23.3057 O   0  0  0  0  0  0
  -28.4180  -26.6967   20.0849 O   0  0  0  0  0  0
  -26.5602  -34.8972   22.4728 O   0  0  0  0  0  0
  -23.5355  -32.1412   23.7467 O   0  0  0  0  0  0
  -30.6447  -14.8849   17.5507 C   0  0  0  0  0  0
  -29.6258  -14.7177   18.5365 C   0  0  0  0  0  0
  -30.1226  -17.0924   17.1840 C   0  0  0  0  0  0
  -29.0880  -17.0038   18.1500 C   0  0  0  0  0  0
  -31.9273  -18.8519   16.8784 C   0  0  0  0  0  0
  -27.8496  -20.8906   22.5737 C   0  0  0  0  0  0
  -29.9267  -22.3629   22.3279 C   0  0  0  0  0  0
  -30.5221  -18.3760   16.4675 C   0  0  0  0  0  0
  -28.1928  -18.2106   18.4792 C   0  0  0  0  0  0
  -28.8460  -19.3176   19.3618 C   0  0  0  0  0  0
  -27.8640  -24.3500   20.7111 C   0  0  0  0  0  0
  -27.9964  -20.6330   19.4383 C   0  0  0  0  0  0
  -27.4830  -22.9064   20.2346 C   0  0  0  0  0  0
  -28.4414  -25.3198   19.6470 C   0  0  0  0  0  0
  -28.9764  -21.3699   21.6353 C   0  0  0  0  0  0
  -29.7549  -13.5117   19.6578 C   0  0  1  0  0  0
  -29.2727  -11.3225   20.1672 C   0  0  0  0  0  0
  -30.8678  -16.0190   16.8585 N   0  0  0  0  0  0
  -28.8578  -15.8307   18.8165 N   0  0  0  0  0  0
  -28.5018  -21.7906   20.2708 N   0  3  1  0  0  0
  -29.1278  -12.1054   19.7536 F   0  0  0  0  0  0
  -30.1682  -10.6894   21.0327 F   0  0  0  0  0  0
  -28.2046  -10.8538   20.9914 F   0  0  0  0  0  0
  -29.3160  -10.1927   19.2709 F   0  0  0  0  0  0
  -32.1532  -12.6270   18.7495 H   0  0  0  0  0  0
  -31.6285  -11.1069   19.2845 H   0  0  0  0  0  0
  -29.6963  -11.1400   17.2660 H   0  0  0  0  0  0
  -30.0949  -12.6273   16.7654 H   0  0  0  0  0  0
  -27.2671  -11.8540   17.9760 H   0  0  0  0  0  0
  -27.5295  -13.4430   17.4061 H   0  0  0  0  0  0
  -27.3197  -14.4458   19.8262 H   0  0  0  0  0  0
  -28.4748  -12.6184   22.3137 H   0  0  0  0  0  0
  -28.6915  -14.2857   22.0619 H   0  0  0  0  0  0
  -25.2604   -9.5889   22.4654 H   0  0  0  0  0  0
  -24.0028   -7.4698   22.7466 H   0  0  0  0  0  0
  -21.0651   -8.8529   19.8981 H   0  0  0  0  0  0
  -22.3282  -10.9543   19.6131 H   0  0  0  0  0  0
  -21.2097   -7.6141   23.9681 H   0  0  0  0  0  0
  -21.1454   -6.0533   25.9061 H   0  0  0  0  0  0
  -22.0610   -2.7570   23.2884 H   0  0  0  0  0  0
  -22.3449  -11.9741   22.5029 H   0  0  0  0  0  0
  -21.0263  -13.0938   22.3082 H   0  0  0  0  0  0
  -24.4302  -15.8557   20.6193 H   0  0  0  0  0  0
  -26.0623  -15.7354   20.1868 H   0  0  0  0  0  0
  -26.7144  -32.5524   23.1194 H   0  0  0  0  0  0
  -25.0044  -33.9713   25.0480 H   0  0  0  0  0  0
  -22.6943  -31.3096   21.4167 H   0  0  0  0  0  0
  -23.3720  -35.9670   23.3330 H   0  0  0  0  0  0
  -24.3588  -36.8922   22.2072 H   0  0  0  0  0  0
  -23.7178  -37.6556   23.6636 H   0  0  0  0  0  0
  -26.0352  -31.5823   20.5784 H   0  0  0  0  0  0
  -26.8295  -30.8916   21.9692 H   0  0  0  0  0  0
  -28.0988  -29.0712   21.1601 H   0  0  0  0  0  0
  -25.9984  -25.9771   18.9871 H   0  0  0  0  0  0
  -23.9799  -27.3256   18.9906 H   0  0  0  0  0  0
  -23.6977  -30.5948   19.3957 H   0  0  0  0  0  0
  -22.7332  -29.2351   19.8931 H   0  0  0  0  0  0
  -25.1241  -36.2082   25.0870 H   0  0  0  0  0  0
  -20.9919  -28.3214   24.1425 H   0  0  0  0  0  0
  -20.5610  -26.2282   23.3617 H   0  0  0  0  0  0
  -21.6619  -26.7401   22.1224 H   0  0  0  0  0  0
  -19.6871  -25.6290   21.1226 H   0  0  0  0  0  0
  -19.6630  -27.3190   20.6753 H   0  0  0  0  0  0
  -17.4165  -26.6652   21.4033 H   0  0  0  0  0  0
  -18.0286  -26.0009   22.9004 H   0  0  0  0  0  0
  -19.7927  -30.7190   24.2353 H   0  0  0  0  0  0
  -17.5013  -31.6258   24.5141 H   0  0  0  0  0  0
  -15.5344  -30.3002   23.7587 H   0  0  0  0  0  0
  -15.8642  -28.0777   22.7126 H   0  0  0  0  0  0
  -24.5855  -30.7084   25.7788 H   0  0  0  0  0  0
  -24.8868  -32.2893   26.4881 H   0  0  0  0  0  0
  -25.7976  -30.8914   27.0238 H   0  0  0  0  0  0
  -26.2857  -29.6826   24.1110 H   0  0  0  0  0  0
  -27.4088  -29.7298   25.4521 H   0  0  0  0  0  0
  -27.8663  -30.4428   23.9215 H   0  0  0  0  0  0
  -27.2613  -33.3650   26.2072 H   0  0  0  0  0  0
  -28.3790  -32.6940   25.0285 H   0  0  0  0  0  0
  -28.0726  -31.8499   26.5378 H   0  0  0  0  0  0
  -28.2634  -38.0097   24.7522 H   0  0  0  0  0  0
  -28.1017  -36.2632   24.6283 H   0  0  0  0  0  0
  -27.2296  -37.1489   25.8878 H   0  0  0  0  0  0
  -20.9365  -29.8800   21.6993 H   0  0  0  0  0  0
  -26.0200  -38.2934   24.1365 H   0  0  0  0  0  0
  -31.4118  -14.1446   17.3915 H   0  0  0  0  0  0
  -32.2019  -19.7778   16.3709 H   0  0  0  0  0  0
  -32.6832  -18.1081   16.6303 H   0  0  0  0  0  0
  -31.9905  -19.0263   17.9526 H   0  0  0  0  0  0
  -28.2729  -20.5016   23.4993 H   0  0  0  0  0  0
  -27.2720  -20.0836   22.1247 H   0  0  0  0  0  0
  -27.1592  -21.6876   22.8493 H   0  0  0  0  0  0
  -30.6224  -21.8206   22.9691 H   0  0  0  0  0  0
  -29.4054  -23.0631   22.9795 H   0  0  0  0  0  0
  -30.5290  -22.9233   21.6123 H   0  0  0  0  0  0
  -29.8115  -19.1762   16.6573 H   0  0  0  0  0  0
  -30.4882  -18.2033   15.3910 H   0  0  0  0  0  0
  -27.2850  -17.8503   18.9670 H   0  0  0  0  0  0
  -27.8394  -18.6394   17.5405 H   0  0  0  0  0  0
  -29.8359  -19.5721   18.9874 H   0  0  0  0  0  0
  -28.9969  -18.8695   20.3405 H   0  0  0  0  0  0
  -28.4936  -24.3678   21.5918 H   0  0  0  0  0  0
  -26.9290  -24.7903   21.0571 H   0  0  0  0  0  0
  -26.9957  -20.3696   19.7814 H   0  0  0  0  0  0
  -27.8688  -20.9975   18.4176 H   0  0  0  0  0  0
  -27.1054  -23.0069   19.2168 H   0  0  0  0  0  0
  -26.6195  -22.5760   20.8121 H   0  0  0  0  0  0
  -27.9566  -25.2080   18.6782 H   0  0  0  0  0  0
  -29.4789  -25.0460   19.4569 H   0  0  0  0  0  0
  -29.6369  -20.5204   21.4807 H   0  0  0  0  0  0
  -29.3206  -22.1269   19.7847 H   0  0  0  0  0  0
  1 25  1  0  0  0
  1 30  2  0  0  0
  1 86  1  0  0  0
  2  3  1  0  0  0
  2 25  1  0  0  0
  2 95  1  0  0  0
  2 96  1  0  0  0
  3  4  1  0  0  0
  3 97  1  0  0  0
  3 98  1  0  0  0
  4  5  1  0  0  0
  4 99  1  0  0  0
  4100  1  0  0  0
  5  6  1  0  0  0
  5 26  1  0  0  0
  5101  1  0  0  0
  6 25  1  0  0  0
  6102  1  0  0  0
  6103  1  0  0  0
  7  8  2  0  0  0
  7 26  1  0  0  0
  7 29  1  0  0  0
  8  9  1  0  0  0
  8 22  1  0  0  0
  9 10  1  0  0  0
  9 27  2  0  0  0
 10 11  2  0  0  0
 10 15  1  0  0  0
 11 12  1  0  0  0
 11104  1  0  0  0
 12 13  2  0  0  0
 12105  1  0  0  0
 13 14  1  0  0  0
 13 31  1  0  0  0
 14 15  2  0  0  0
 14106  1  0  0  0
 15107  1  0  0  0
 16 17  2  0  0  0
 16 21  1  0  0  0
 16 31  1  0  0  0
 17 18  1  0  0  0
 17108  1  0  0  0
 18 19  2  0  0  0
 18109  1  0  0  0
 19 20  1  0  0  0
 19 24  1  0  0  0
 20 21  2  0  0  0
 20110  1  0  0  0
 21 23  1  0  0  0
 22 28  1  0  0  0
 22 32  2  0  0  0
 26 27  1  0  0  0
 28111  1  0  0  0
 28112  1  0  0  0
 29113  1  0  0  0
 29114  1  0  0  0
 33 34  1  0  0  0
 33 66  1  0  0  0
 33 70  2  0  0  0
 34 36  1  0  0  0
 34 59  1  0  0  0
 34115  1  0  0  0
 35 44  2  0  0  0
 35 45  1  0  0  0
 35 68  1  0  0  0
 36 56  1  0  0  0
 36116  1  0  0  0
 37 39  1  0  0  0
 37 47  1  0  0  0
 37 66  1  0  0  0
 37117  1  0  0  0
 38 43  2  0  0  0
 38 46  1  0  0  0
 38 47  1  0  0  0
 39 64  1  0  0  0
 39 67  2  0  0  0
 40 52  1  0  0  0
 40 53  2  0  0  0
 40 58  1  0  0  0
 41118  1  0  0  0
 41119  1  0  0  0
 41120  1  0  0  0
 41 48  1  0  0  0
 42 43  1  0  0  0
 42 66  1  0  0  0
 42121  1  0  0  0
 42122  1  0  0  0
 43 44  1  0  0  0
 44123  1  0  0  0
 45 46  2  0  0  0
 45124  1  0  0  0
 46125  1  0  0  0
 47126  1  0  0  0
 47127  1  0  0  0
 48 56  1  0  0  0
 48 65  1  0  0  0
 48128  1  0  0  0
 49 50  1  0  0  0
 49 53  1  0  0  0
 49 64  1  0  0  0
 49129  1  0  0  0
 50 51  1  0  0  0
 50130  1  0  0  0
 50131  1  0  0  0
 51 52  1  0  0  0
 51132  1  0  0  0
 51133  1  0  0  0
 52134  1  0  0  0
 52135  1  0  0  0
 53 54  1  0  0  0
 54 55  2  0  0  0
 54136  1  0  0  0
 55 57  1  0  0  0
 55137  1  0  0  0
 56 69  2  0  0  0
 57 58  2  0  0  0
 57138  1  0  0  0
 58139  1  0  0  0
 59 60  1  0  0  0
 59 61  1  0  0  0
 59 62  1  0  0  0
 60140  1  0  0  0
 60141  1  0  0  0
 60142  1  0  0  0
 61143  1  0  0  0
 61144  1  0  0  0
 61145  1  0  0  0
 62146  1  0  0  0
 62147  1  0  0  0
 62148  1  0  0  0
 63 65  1  0  0  0
 63149  1  0  0  0
 63150  1  0  0  0
 63151  1  0  0  0
 64152  1  0  0  0
 65153  1  0  0  0
 68 84  1  0  0  0
 71 72  2  0  0  0
 71 88  1  0  0  0
 71154  1  0  0  0
 72 86  1  0  0  0
 72 89  1  0  0  0
 73 74  1  0  0  0
 73 78  1  0  0  0
 73 88  2  0  0  0
 74 79  1  0  0  0
 74 89  2  0  0  0
 75 78  1  0  0  0
 75155  1  0  0  0
 75156  1  0  0  0
 75157  1  0  0  0
 76158  1  0  0  0
 76159  1  0  0  0
 76160  1  0  0  0
 76 85  1  0  0  0
 77 85  1  0  0  0
 77161  1  0  0  0
 77162  1  0  0  0
 77163  1  0  0  0
 78164  1  0  0  0
 78165  1  0  0  0
 79 80  1  0  0  0
 79166  1  0  0  0
 79167  1  0  0  0
 80 82  1  0  0  0
 80168  1  0  0  0
 80169  1  0  0  0
 81 83  1  0  0  0
 81 84  1  0  0  0
 81170  1  0  0  0
 81171  1  0  0  0
 82172  1  0  0  0
 82173  1  0  0  0
 82 90  1  0  0  0
 83 90  1  0  0  0
 83174  1  0  0  0
 83175  1  0  0  0
 84176  1  0  0  0
 84177  1  0  0  0
 85 90  1  0  0  0
 85178  1  0  0  0
 86 87  1  0  0  0
 86 91  1  0  0  0
 87 92  1  0  0  0
 87 93  1  0  0  0
 87 94  1  0  0  0
 90179  1  0  0  0
M  CHG  1  90   1
M  ISO  4   1 100  68 101  84 101  86 100
M  END
> <chiral flag>
0

> <version>
0

> <s_m_source_file>
/data/baiqing/PycharmProjects/Reinvent-master-3.2/result/LINK_invent/BTK/process_docking_weight1_custom_sum_contain_oxygen_bond_distance_aromatic_linkinvent_7_9_3/rearranged_h_0063.sdf

> <i_m_source_file_index>
37

> <r_mmod_Potential_Energy-OPLS-2005>
6499.0693359375

> <r_mmod_Stretch_Energy-OPLS-2005>
2960.03271484375

> <r_mmod_Bend_Energy-OPLS-2005>
1394.79235839844

> <r_mmod_Torsional_Energy-OPLS-2005>
263.340667724609

> <r_mmod_Improper_Torsional_Energy-OPLS-2005>
73.0567474365234

> <r_mmod_Van_der_Waal_Energy-OPLS-2005>
1958.09411621094

> <r_mmod_Electrostatic_Energy-OPLS-2005>
6.84340381622314

> <r_mmod_Solvation_Energy-OPLS-2005>
-446.023803710938

> <b_mmod_Minimization_Converged-OPLS-2005>
0

> <r_mmod_RMS_Derivative-OPLS-2005>
4.75319766998291

$$$$
39
                    3D
 Structure written by MMmdl.
157165  0  0  1  0            999 V2000
  -30.4565  -15.3523   20.2233 C   0  0  0  0  0  0
  -30.4448  -12.8527   19.4928 C   0  0  0  0  0  0
  -29.5396  -12.5027   18.2874 C   0  0  0  0  0  0
  -28.0975  -12.2207   18.7453 C   0  0  0  0  0  0
  -27.5925  -13.2400   19.7915 C   0  0  2  0  0  0
  -28.6428  -13.5477   20.8818 C   0  0  0  0  0  0
  -25.2330  -13.8024   20.5818 C   0  0  0  0  0  0
  -24.1678  -13.0268   20.9283 C   0  0  0  0  0  0
  -24.6333  -11.6784   20.8819 C   0  0  0  0  0  0
  -23.9019  -10.4169   21.0456 C   0  0  0  0  0  0
  -24.3580   -9.4097   21.9240 C   0  0  0  0  0  0
  -23.6235   -8.2146   22.0791 C   0  0  0  0  0  0
  -22.4205   -8.0220   21.3574 C   0  0  0  0  0  0
  -21.9864   -9.0193   20.4669 C   0  0  0  0  0  0
  -22.7191  -10.2056   20.3103 C   0  0  0  0  0  0
  -21.6803   -6.0694   22.5295 C   0  0  0  0  0  0
  -21.4000   -6.5618   23.8215 C   0  0  0  0  0  0
  -21.3675   -5.6781   24.9188 C   0  0  0  0  0  0
  -21.6052   -4.3046   24.7232 C   0  0  0  0  0  0
  -21.8793   -3.8121   23.4348 C   0  0  0  0  0  0
  -21.9152   -4.6932   22.3402 C   0  0  0  0  0  0
  -22.7707  -13.5103   21.1919 C   0  0  0  0  0  0
  -22.1615   -4.2125   21.0967 F   0  0  0  0  0  0
  -21.5652   -3.4527   25.7748 F   0  0  0  0  0  0
  -29.8607  -14.0470   20.2072 N   0  0  0  0  0  0
  -26.2771  -12.9292   20.3286 N   0  0  0  0  0  0
  -25.9266  -11.6424   20.5762 N   0  0  0  0  0  0
  -22.0329  -12.8178   22.0504 N   0  0  0  0  0  0
  -25.3745  -15.1760   20.4256 N   0  0  0  0  0  0
  -31.6806  -15.2193   20.3909 O   0  0  0  0  0  0
  -21.6561   -6.8845   21.4260 O   0  0  0  0  0  0
  -22.3436  -14.5389   20.6677 O   0  0  0  0  0  0
  -24.6615  -31.8226   23.1658 C   0  0  0  0  0  0
  -25.9293  -32.4591   23.8125 C   0  0  1  0  0  0
  -27.2429  -26.9296   20.1620 C   0  0  0  0  0  0
  -25.5989  -33.8412   24.2082 N   0  0  0  0  0  0
  -23.4770  -30.4291   21.5116 C   0  0  2  0  0  0
  -24.9374  -28.8056   20.1054 C   0  0  0  0  0  0
  -22.7653  -29.4430   22.4733 C   0  0  0  0  0  0
  -18.0328  -28.1376   22.8465 C   0  0  0  0  0  0
  -24.1501  -36.7196   23.2640 C   0  0  0  0  0  0
  -26.0459  -30.6240   21.3984 C   0  0  0  0  0  0
  -26.1173  -29.2144   20.7374 C   0  0  0  0  0  0
  -27.2550  -28.2909   20.7481 C   0  0  0  0  0  0
  -26.0352  -26.6673   19.4822 C   0  0  0  0  0  0
  -24.9210  -27.5521   19.4647 C   0  0  0  0  0  0
  -23.7207  -29.7323   20.1415 C   0  0  0  0  0  0
  -25.4136  -36.2979   24.0304 C   0  0  1  0  0  0
  -20.5955  -28.3737   23.1160 C   0  0  2  0  0  0
  -20.6789  -26.9400   22.5384 C   0  0  0  0  0  0
  -19.5777  -26.6339   21.5180 C   0  0  0  0  0  0
  -18.1964  -26.7918   22.1595 C   0  0  0  0  0  0
  -19.1587  -28.8866   23.2827 C   0  0  0  0  0  0
  -18.9508  -30.1450   23.8883 C   0  0  0  0  0  0
  -17.6501  -30.6578   24.0522 C   0  0  0  0  0  0
  -25.9089  -34.9358   23.5007 C   0  0  0  0  0  0
  -16.5393  -29.9059   23.6320 C   0  0  0  0  0  0
  -16.7313  -28.6459   23.0380 C   0  0  0  0  0  0
  -26.4580  -31.6536   25.0642 C   0  0  0  0  0  0
  -25.3735  -31.3781   26.1315 C   0  0  0  0  0  0
  -27.0476  -30.2900   24.6373 C   0  0  0  0  0  0
  -27.6083  -32.4336   25.7471 C   0  0  0  0  0  0
  -27.5575  -37.1732   24.8468 C   0  0  0  0  0  0
  -21.4320  -29.3055   22.3506 N   0  0  0  0  0  0
  -26.4290  -37.3701   23.9404 N   0  0  0  0  0  0
  -24.7490  -30.9842   22.0814 N   0  0  0  0  0  0
  -23.4193  -28.7991   23.2977 O   0  0  0  0  0  0
  -28.2785  -25.8699   20.3316 O   0  0  0  0  0  0
  -26.5687  -34.8900   22.4598 O   0  0  0  0  0  0
  -23.5684  -32.1220   23.6724 O   0  0  0  0  0  0
  -29.0013  -19.7657   19.4889 C   0  0  0  0  0  0
  -29.9742  -19.1820   21.2413 C   0  0  0  0  0  0
  -28.9772  -21.0286   20.2292 C   0  0  0  0  0  0
  -27.1487  -22.3600   18.9830 C   0  0  0  0  0  0
  -27.2794  -22.6232   21.4346 C   0  0  0  0  0  0
  -28.6037  -24.3051   19.8657 C   0  0  0  0  0  0
  -28.1316  -22.5844   20.1517 C   0  0  0  0  0  0
  -29.8913  -16.9314   19.5411 C   0  0  0  0  0  0
  -31.0217  -17.2074   18.4814 C   0  0  0  0  0  0
  -28.6033  -16.5923   18.7459 C   0  0  0  0  0  0
  -29.6619  -20.5221   21.3665 N   0  0  0  0  0  0
  -29.6120  -18.5175   20.1123 N   0  0  0  0  0  0
  -32.1434  -17.6001   19.0941 F   0  0  0  0  0  0
  -31.3255  -16.1395   17.7368 F   0  0  0  0  0  0
  -30.7028  -18.1836   17.6270 F   0  0  0  0  0  0
  -28.1829  -17.5433   17.9161 F   0  0  0  0  0  0
  -27.6345  -16.3910   19.6324 F   0  0  0  0  0  0
  -28.7399  -15.5113   17.9830 F   0  0  0  0  0  0
  -31.4488  -13.0716   19.1266 H   0  0  0  0  0  0
  -30.5524  -11.9949   20.1589 H   0  0  0  0  0  0
  -29.9462  -11.6324   17.7672 H   0  0  0  0  0  0
  -29.5542  -13.3111   17.5601 H   0  0  0  0  0  0
  -28.1024  -11.2265   19.1994 H   0  0  0  0  0  0
  -27.4220  -12.1714   17.8882 H   0  0  0  0  0  0
  -27.4220  -14.1327   19.2105 H   0  0  0  0  0  0
  -28.8437  -12.6623   21.4840 H   0  0  0  0  0  0
  -28.2718  -14.3131   21.5642 H   0  0  0  0  0  0
  -25.2744   -9.5538   22.4816 H   0  0  0  0  0  0
  -23.9914   -7.4521   22.7527 H   0  0  0  0  0  0
  -21.0784   -8.8683   19.9001 H   0  0  0  0  0  0
  -22.3653  -10.9588   19.6204 H   0  0  0  0  0  0
  -21.2007   -7.6127   23.9703 H   0  0  0  0  0  0
  -21.1559   -6.0533   25.9089 H   0  0  0  0  0  0
  -22.0573   -2.7584   23.2826 H   0  0  0  0  0  0
  -22.3855  -11.9850   22.4967 H   0  0  0  0  0  0
  -21.1007  -13.1356   22.2740 H   0  0  0  0  0  0
  -24.5872  -15.8033   20.5380 H   0  0  0  0  0  0
  -26.2110  -15.6535   20.1104 H   0  0  0  0  0  0
  -26.7349  -32.5154   23.0824 H   0  0  0  0  0  0
  -25.0160  -33.9497   25.0258 H   0  0  0  0  0  0
  -22.7942  -31.2621   21.3307 H   0  0  0  0  0  0
  -23.3799  -35.9495   23.3299 H   0  0  0  0  0  0
  -24.3565  -36.8847   22.2052 H   0  0  0  0  0  0
  -23.7226  -37.6363   23.6710 H   0  0  0  0  0  0
  -26.2184  -31.3648   20.6158 H   0  0  0  0  0  0
  -26.9101  -30.6830   22.0499 H   0  0  0  0  0  0
  -28.1407  -28.5875   21.2905 H   0  0  0  0  0  0
  -25.9185  -25.7013   19.0129 H   0  0  0  0  0  0
  -24.0187  -27.2275   18.9655 H   0  0  0  0  0  0
  -23.8770  -30.4988   19.3819 H   0  0  0  0  0  0
  -22.8341  -29.1829   19.8188 H   0  0  0  0  0  0
  -25.1327  -36.1766   25.0793 H   0  0  0  0  0  0
  -21.0071  -28.3340   24.1266 H   0  0  0  0  0  0
  -20.5615  -26.2334   23.3630 H   0  0  0  0  0  0
  -21.6655  -26.7341   22.1211 H   0  0  0  0  0  0
  -19.6924  -25.6235   21.1237 H   0  0  0  0  0  0
  -19.6724  -27.3125   20.6706 H   0  0  0  0  0  0
  -17.4212  -26.6675   21.4014 H   0  0  0  0  0  0
  -18.0390  -26.0061   22.9007 H   0  0  0  0  0  0
  -19.7987  -30.7245   24.2276 H   0  0  0  0  0  0
  -17.5061  -31.6267   24.5102 H   0  0  0  0  0  0
  -15.5397  -30.2950   23.7650 H   0  0  0  0  0  0
  -15.8718  -28.0737   22.7163 H   0  0  0  0  0  0
  -24.5926  -30.7127   25.7619 H   0  0  0  0  0  0
  -24.8915  -32.2984   26.4622 H   0  0  0  0  0  0
  -25.7963  -30.9004   27.0165 H   0  0  0  0  0  0
  -26.3127  -29.6564   24.1385 H   0  0  0  0  0  0
  -27.4039  -29.7260   25.5006 H   0  0  0  0  0  0
  -27.9079  -30.4094   23.9782 H   0  0  0  0  0  0
  -27.2676  -33.3692   26.1937 H   0  0  0  0  0  0
  -28.3990  -32.6797   25.0368 H   0  0  0  0  0  0
  -28.0684  -31.8522   26.5479 H   0  0  0  0  0  0
  -28.2564  -38.0050   24.7510 H   0  0  0  0  0  0
  -28.1088  -36.2555   24.6320 H   0  0  0  0  0  0
  -27.2272  -37.1427   25.8868 H   0  0  0  0  0  0
  -20.9532  -29.8778   21.6696 H   0  0  0  0  0  0
  -26.0148  -38.2757   24.1436 H   0  0  0  0  0  0
  -28.5707  -19.6704   18.5011 H   0  0  0  0  0  0
  -30.4994  -18.6666   22.0340 H   0  0  0  0  0  0
  -26.3742  -23.1245   18.9514 H   0  0  0  0  0  0
  -26.6461  -21.3962   19.0548 H   0  0  0  0  0  0
  -27.6677  -22.3809   18.0240 H   0  0  0  0  0  0
  -26.5877  -23.4665   21.4273 H   0  0  0  0  0  0
  -27.9086  -22.7158   22.3191 H   0  0  0  0  0  0
  -26.6812  -21.7176   21.5525 H   0  0  0  0  0  0
  -28.7125  -24.3910   18.7821 H   0  0  0  0  0  0
  -29.6392  -24.2737   20.2030 H   0  0  0  0  0  0
  1 25  1  0  0  0
  1 30  2  0  0  0
  1 78  1  0  0  0
  2  3  1  0  0  0
  2 25  1  0  0  0
  2 89  1  0  0  0
  2 90  1  0  0  0
  3  4  1  0  0  0
  3 91  1  0  0  0
  3 92  1  0  0  0
  4  5  1  0  0  0
  4 93  1  0  0  0
  4 94  1  0  0  0
  5  6  1  0  0  0
  5 26  1  0  0  0
  5 95  1  0  0  0
  6 25  1  0  0  0
  6 96  1  0  0  0
  6 97  1  0  0  0
  7  8  2  0  0  0
  7 26  1  0  0  0
  7 29  1  0  0  0
  8  9  1  0  0  0
  8 22  1  0  0  0
  9 10  1  0  0  0
  9 27  2  0  0  0
 10 11  2  0  0  0
 10 15  1  0  0  0
 11 12  1  0  0  0
 11 98  1  0  0  0
 12 13  2  0  0  0
 12 99  1  0  0  0
 13 14  1  0  0  0
 13 31  1  0  0  0
 14 15  2  0  0  0
 14100  1  0  0  0
 15101  1  0  0  0
 16 17  2  0  0  0
 16 21  1  0  0  0
 16 31  1  0  0  0
 17 18  1  0  0  0
 17102  1  0  0  0
 18 19  2  0  0  0
 18103  1  0  0  0
 19 20  1  0  0  0
 19 24  1  0  0  0
 20 21  2  0  0  0
 20104  1  0  0  0
 21 23  1  0  0  0
 22 28  1  0  0  0
 22 32  2  0  0  0
 26 27  1  0  0  0
 28105  1  0  0  0
 28106  1  0  0  0
 29107  1  0  0  0
 29108  1  0  0  0
 33 34  1  0  0  0
 33 66  1  0  0  0
 33 70  2  0  0  0
 34 36  1  0  0  0
 34 59  1  0  0  0
 34109  1  0  0  0
 35 44  2  0  0  0
 35 45  1  0  0  0
 35 68  1  0  0  0
 36 56  1  0  0  0
 36110  1  0  0  0
 37 39  1  0  0  0
 37 47  1  0  0  0
 37 66  1  0  0  0
 37111  1  0  0  0
 38 43  2  0  0  0
 38 46  1  0  0  0
 38 47  1  0  0  0
 39 64  1  0  0  0
 39 67  2  0  0  0
 40 52  1  0  0  0
 40 53  2  0  0  0
 40 58  1  0  0  0
 41112  1  0  0  0
 41113  1  0  0  0
 41114  1  0  0  0
 41 48  1  0  0  0
 42 43  1  0  0  0
 42 66  1  0  0  0
 42115  1  0  0  0
 42116  1  0  0  0
 43 44  1  0  0  0
 44117  1  0  0  0
 45 46  2  0  0  0
 45118  1  0  0  0
 46119  1  0  0  0
 47120  1  0  0  0
 47121  1  0  0  0
 48 56  1  0  0  0
 48 65  1  0  0  0
 48122  1  0  0  0
 49 50  1  0  0  0
 49 53  1  0  0  0
 49 64  1  0  0  0
 49123  1  0  0  0
 50 51  1  0  0  0
 50124  1  0  0  0
 50125  1  0  0  0
 51 52  1  0  0  0
 51126  1  0  0  0
 51127  1  0  0  0
 52128  1  0  0  0
 52129  1  0  0  0
 53 54  1  0  0  0
 54 55  2  0  0  0
 54130  1  0  0  0
 55 57  1  0  0  0
 55131  1  0  0  0
 56 69  2  0  0  0
 57 58  2  0  0  0
 57132  1  0  0  0
 58133  1  0  0  0
 59 60  1  0  0  0
 59 61  1  0  0  0
 59 62  1  0  0  0
 60134  1  0  0  0
 60135  1  0  0  0
 60136  1  0  0  0
 61137  1  0  0  0
 61138  1  0  0  0
 61139  1  0  0  0
 62140  1  0  0  0
 62141  1  0  0  0
 62142  1  0  0  0
 63 65  1  0  0  0
 63143  1  0  0  0
 63144  1  0  0  0
 63145  1  0  0  0
 64146  1  0  0  0
 65147  1  0  0  0
 68 76  1  0  0  0
 71 73  2  0  0  0
 71 82  1  0  0  0
 71148  1  0  0  0
 72 81  2  0  0  0
 72 82  1  0  0  0
 72149  1  0  0  0
 73 77  1  0  0  0
 73 81  1  0  0  0
 74150  1  0  0  0
 74151  1  0  0  0
 74152  1  0  0  0
 74 77  1  0  0  0
 75 77  1  0  0  0
 75153  1  0  0  0
 75154  1  0  0  0
 75155  1  0  0  0
 76 77  1  0  0  0
 76156  1  0  0  0
 76157  1  0  0  0
 78 79  1  0  0  0
 78 80  1  0  0  0
 78 82  1  0  0  0
 79 83  1  0  0  0
 79 84  1  0  0  0
 79 85  1  0  0  0
 80 86  1  0  0  0
 80 87  1  0  0  0
 80 88  1  0  0  0
M  ISO  4   1 100  68 101  76 101  78 100
M  END
> <chiral flag>
0

> <version>
0

> <s_m_source_file>
/data/baiqing/PycharmProjects/Reinvent-master-3.2/result/LINK_invent/BTK/process_docking_weight1_custom_sum_contain_oxygen_bond_distance_aromatic_linkinvent_7_9_3/rearranged_h_0063.sdf

> <i_m_source_file_index>
38

> <r_mmod_Potential_Energy-OPLS-2005>
1731.68029785156

> <r_mmod_Stretch_Energy-OPLS-2005>
655.113708496094

> <r_mmod_Bend_Energy-OPLS-2005>
604.95751953125

> <r_mmod_Torsional_Energy-OPLS-2005>
246.082916259766

> <r_mmod_Improper_Torsional_Energy-OPLS-2005>
18.9319496154785

> <r_mmod_Van_der_Waal_Energy-OPLS-2005>
132.292709350586

> <r_mmod_Electrostatic_Energy-OPLS-2005>
-258.602203369141

> <r_mmod_Solvation_Energy-OPLS-2005>
-192.686294555664

> <b_mmod_Minimization_Converged-OPLS-2005>
0

> <r_mmod_RMS_Derivative-OPLS-2005>
4.86602878570557

$$$$
40
                    3D
 Structure written by MMmdl.
177185  0  0  1  0            999 V2000
  -30.6389  -14.7530   20.5446 C   0  0  0  0  0  0
  -30.4128  -12.4632   19.5207 C   0  0  0  0  0  0
  -29.5087  -12.5226   18.2699 C   0  0  0  0  0  0
  -28.0335  -12.3434   18.6669 C   0  0  0  0  0  0
  -27.6358  -13.2240   19.8800 C   0  0  2  0  0  0
  -28.6749  -13.1759   21.0265 C   0  0  0  0  0  0
  -25.2214  -13.8013   20.5262 C   0  0  0  0  0  0
  -24.1684  -13.0334   20.9195 C   0  0  0  0  0  0
  -24.6354  -11.6830   20.8867 C   0  0  0  0  0  0
  -23.9037  -10.4232   21.0495 C   0  0  0  0  0  0
  -24.3570   -9.4137   21.9272 C   0  0  0  0  0  0
  -23.6249   -8.2186   22.0789 C   0  0  0  0  0  0
  -22.4256   -8.0233   21.3543 C   0  0  0  0  0  0
  -21.9893   -9.0226   20.4654 C   0  0  0  0  0  0
  -22.7220  -10.2096   20.3109 C   0  0  0  0  0  0
  -21.6844   -6.0685   22.5276 C   0  0  0  0  0  0
  -21.4013   -6.5614   23.8189 C   0  0  0  0  0  0
  -21.3657   -5.6776   24.9170 C   0  0  0  0  0  0
  -21.6048   -4.3046   24.7225 C   0  0  0  0  0  0
  -21.8817   -3.8113   23.4364 C   0  0  0  0  0  0
  -21.9185   -4.6923   22.3395 C   0  0  0  0  0  0
  -22.7713  -13.5127   21.1866 C   0  0  0  0  0  0
  -22.1662   -4.2091   21.0982 F   0  0  0  0  0  0
  -21.5612   -3.4536   25.7751 F   0  0  0  0  0  0
  -29.9835  -13.5322   20.4690 N   0  0  0  0  0  0
  -26.2852  -12.9319   20.3383 N   0  0  0  0  0  0
  -25.9309  -11.6484   20.5999 N   0  0  0  0  0  0
  -22.0394  -12.8165   22.0455 N   0  0  0  0  0  0
  -25.3343  -15.1590   20.2622 N   0  0  0  0  0  0
  -31.7491  -14.8121   20.0048 O   0  0  0  0  0  0
  -21.6633   -6.8837   21.4228 O   0  0  0  0  0  0
  -22.3381  -14.5455   20.6744 O   0  0  0  0  0  0
  -24.6254  -31.8535   23.1894 C   0  0  0  0  0  0
  -25.9056  -32.4737   23.8241 C   0  0  1  0  0  0
  -27.2317  -27.2616   20.1788 C   0  0  0  0  0  0
  -25.5902  -33.8536   24.2180 N   0  0  0  0  0  0
  -23.4301  -30.4709   21.5269 C   0  0  2  0  0  0
  -24.8827  -28.9027   20.1217 C   0  0  0  0  0  0
  -22.7493  -29.4634   22.4799 C   0  0  0  0  0  0
  -18.0318  -28.1436   22.8449 C   0  0  0  0  0  0
  -24.1514  -36.7216   23.2657 C   0  0  0  0  0  0
  -25.9706  -30.7657   21.3741 C   0  0  0  0  0  0
  -26.0494  -29.3806   20.7366 C   0  0  0  0  0  0
  -27.2251  -28.5708   20.7625 C   0  0  0  0  0  0
  -26.0506  -26.8389   19.5369 C   0  0  0  0  0  0
  -24.8854  -27.6369   19.5141 C   0  0  0  0  0  0
  -23.6572  -29.7904   20.1512 C   0  0  0  0  0  0
  -25.4143  -36.3039   24.0340 C   0  0  1  0  0  0
  -20.5934  -28.3768   23.1178 C   0  0  2  0  0  0
  -20.6843  -26.9474   22.5377 C   0  0  0  0  0  0
  -19.5829  -26.6412   21.5185 C   0  0  0  0  0  0
  -18.1989  -26.7969   22.1573 C   0  0  0  0  0  0
  -19.1578  -28.8892   23.2828 C   0  0  0  0  0  0
  -18.9509  -30.1483   23.8878 C   0  0  0  0  0  0
  -17.6516  -30.6624   24.0590 C   0  0  0  0  0  0
  -25.9072  -34.9433   23.5063 C   0  0  0  0  0  0
  -16.5391  -29.9153   23.6339 C   0  0  0  0  0  0
  -16.7305  -28.6570   23.0336 C   0  0  0  0  0  0
  -26.4466  -31.6598   25.0622 C   0  0  0  0  0  0
  -25.3677  -31.3751   26.1328 C   0  0  0  0  0  0
  -27.0379  -30.3039   24.6126 C   0  0  0  0  0  0
  -27.6012  -32.4390   25.7375 C   0  0  0  0  0  0
  -27.5591  -37.1754   24.8488 C   0  0  0  0  0  0
  -21.4203  -29.3090   22.3514 N   0  0  0  0  0  0
  -26.4314  -37.3734   23.9416 N   0  0  0  0  0  0
  -24.6916  -31.0504   22.0879 N   0  0  0  0  0  0
  -23.4165  -28.8206   23.2945 O   0  0  0  0  0  0
  -28.3413  -26.4022   20.1265 O   0  0  0  0  0  0
  -26.5654  -34.8921   22.4650 O   0  0  0  0  0  0
  -23.5389  -32.1386   23.7186 O   0  0  0  0  0  0
  -29.6357  -21.0671   21.3762 C   0  0  0  0  0  0
  -29.4891  -18.8576   21.1227 C   0  0  0  0  0  0
  -26.2960  -20.7212   21.2148 C   0  0  0  0  0  0
  -29.6986  -23.0146   22.9520 C   0  0  0  0  0  0
  -30.8999  -23.1392   20.7378 C   0  0  0  0  0  0
  -26.0161  -16.7985   23.1989 C   0  0  0  0  0  0
  -28.2010  -17.8946   23.7531 C   0  0  0  0  0  0
  -30.1874  -16.1306   21.2879 C   0  0  0  0  0  0
  -28.4612  -23.6870   20.8142 C   0  0  0  0  0  0
  -27.7566  -16.9710   21.3345 C   0  0  0  0  0  0
  -27.4702  -20.3259   20.2931 C   0  0  0  0  0  0
  -28.5271  -25.3034   21.1165 C   0  0  0  0  0  0
  -29.5958  -22.6824   21.4412 C   0  0  0  0  0  0
  -29.1579  -17.3172   20.7409 C   0  0  1  0  0  0
  -27.5192  -16.8346   22.8769 C   0  0  0  0  0  0
  -29.1755  -17.1961   19.1772 C   0  0  0  0  0  0
  -30.7422  -20.4828   21.8731 N   0  0  0  0  0  0
  -30.6676  -19.1248   21.6902 N   0  0  0  0  0  0
  -28.7757  -20.0734   20.9255 N   0  0  0  0  0  0
  -27.9798  -15.6596   23.2986 F   0  0  0  0  0  0
  -30.3808  -17.5213   18.7119 F   0  0  0  0  0  0
  -28.2913  -17.9903   18.5892 F   0  0  0  0  0  0
  -28.8862  -15.9765   18.7325 F   0  0  0  0  0  0
  -31.4591  -12.5564   19.2248 H   0  0  0  0  0  0
  -30.3285  -11.4806   19.9887 H   0  0  0  0  0  0
  -29.7993  -11.7522   17.5547 H   0  0  0  0  0  0
  -29.6391  -13.4792   17.7651 H   0  0  0  0  0  0
  -27.8785  -11.2909   18.9066 H   0  0  0  0  0  0
  -27.3828  -12.5630   17.8186 H   0  0  0  0  0  0
  -27.6120  -14.2421   19.5137 H   0  0  0  0  0  0
  -28.7004  -12.1914   21.5011 H   0  0  0  0  0  0
  -28.3949  -13.8701   21.8124 H   0  0  0  0  0  0
  -25.2678   -9.5619   22.4894 H   0  0  0  0  0  0
  -23.9929   -7.4561   22.7497 H   0  0  0  0  0  0
  -21.0838   -8.8754   19.8932 H   0  0  0  0  0  0
  -22.3697  -10.9664   19.6237 H   0  0  0  0  0  0
  -21.2029   -7.6124   23.9675 H   0  0  0  0  0  0
  -21.1488   -6.0527   25.9065 H   0  0  0  0  0  0
  -22.0602   -2.7571   23.2889 H   0  0  0  0  0  0
  -22.4016  -11.9796   22.4791 H   0  0  0  0  0  0
  -21.1067  -13.1279   22.2744 H   0  0  0  0  0  0
  -24.5349  -15.7788   20.3162 H   0  0  0  0  0  0
  -26.1044  -15.5540   19.7439 H   0  0  0  0  0  0
  -26.7120  -32.5418   23.0985 H   0  0  0  0  0  0
  -25.0081  -33.9688   25.0340 H   0  0  0  0  0  0
  -22.7336  -31.2951   21.3637 H   0  0  0  0  0  0
  -23.3806  -35.9520   23.3357 H   0  0  0  0  0  0
  -24.3594  -36.8795   22.2057 H   0  0  0  0  0  0
  -23.7225  -37.6420   23.6650 H   0  0  0  0  0  0
  -26.1092  -31.5115   20.5894 H   0  0  0  0  0  0
  -26.8458  -30.8198   22.0108 H   0  0  0  0  0  0
  -28.1191  -28.9279   21.2574 H   0  0  0  0  0  0
  -26.0327  -25.8669   19.0641 H   0  0  0  0  0  0
  -23.9933  -27.2598   19.0297 H   0  0  0  0  0  0
  -23.7954  -30.5549   19.3857 H   0  0  0  0  0  0
  -22.7754  -29.2202   19.8446 H   0  0  0  0  0  0
  -25.1338  -36.1866   25.0826 H   0  0  0  0  0  0
  -21.0054  -28.3388   24.1291 H   0  0  0  0  0  0
  -20.5781  -26.2363   23.3596 H   0  0  0  0  0  0
  -21.6694  -26.7554   22.1137 H   0  0  0  0  0  0
  -19.7040  -25.6309   21.1247 H   0  0  0  0  0  0
  -19.6787  -27.3193   20.6708 H   0  0  0  0  0  0
  -17.4263  -26.6684   21.3980 H   0  0  0  0  0  0
  -18.0425  -26.0130   22.8997 H   0  0  0  0  0  0
  -19.7990  -30.7301   24.2242 H   0  0  0  0  0  0
  -17.5098  -31.6322   24.5210 H   0  0  0  0  0  0
  -15.5408  -30.3074   23.7726 H   0  0  0  0  0  0
  -15.8688  -28.0953   22.7008 H   0  0  0  0  0  0
  -24.5843  -30.7140   25.7595 H   0  0  0  0  0  0
  -24.8866  -32.2932   26.4687 H   0  0  0  0  0  0
  -25.7908  -30.8918   27.0131 H   0  0  0  0  0  0
  -26.2982  -29.6681   24.1243 H   0  0  0  0  0  0
  -27.4226  -29.7376   25.4612 H   0  0  0  0  0  0
  -27.8767  -30.4345   23.9284 H   0  0  0  0  0  0
  -27.2625  -33.3728   26.1854 H   0  0  0  0  0  0
  -28.3804  -32.6903   25.0168 H   0  0  0  0  0  0
  -28.0702  -31.8603   26.5332 H   0  0  0  0  0  0
  -28.2615  -38.0063   24.7560 H   0  0  0  0  0  0
  -28.1102  -36.2581   24.6330 H   0  0  0  0  0  0
  -27.2300  -37.1406   25.8900 H   0  0  0  0  0  0
  -20.9395  -29.8650   21.6598 H   0  0  0  0  0  0
  -26.0207  -38.2806   24.1450 H   0  0  0  0  0  0
  -26.1444  -21.7947   21.2868 H   0  0  0  0  0  0
  -26.3622  -20.3087   22.2216 H   0  0  0  0  0  0
  -25.3680  -20.3496   20.7789 H   0  0  0  0  0  0
  -30.6559  -22.6899   23.3661 H   0  0  0  0  0  0
  -28.9172  -22.5001   23.5111 H   0  0  0  0  0  0
  -29.6139  -24.0730   23.1826 H   0  0  0  0  0  0
  -31.7916  -22.6906   21.1763 H   0  0  0  0  0  0
  -31.0643  -24.2113   20.7679 H   0  0  0  0  0  0
  -30.8841  -22.8416   19.6889 H   0  0  0  0  0  0
  -25.5339  -17.7331   22.9188 H   0  0  0  0  0  0
  -25.8332  -16.6406   24.2621 H   0  0  0  0  0  0
  -25.5109  -15.9891   22.6769 H   0  0  0  0  0  0
  -29.2863  -17.8009   23.7103 H   0  0  0  0  0  0
  -27.9195  -17.7895   24.8040 H   0  0  0  0  0  0
  -27.9236  -18.8993   23.4422 H   0  0  0  0  0  0
  -30.0518  -15.9200   22.3433 H   0  0  0  0  0  0
  -31.1452  -16.6456   21.2997 H   0  0  0  0  0  0
  -28.3849  -23.5386   19.7384 H   0  0  0  0  0  0
  -27.5044  -23.3726   21.2202 H   0  0  0  0  0  0
  -27.5085  -16.0087   20.9212 H   0  0  0  0  0  0
  -27.0097  -17.6598   20.9491 H   0  0  0  0  0  0
  -27.6012  -21.0751   19.5092 H   0  0  0  0  0  0
  -27.1529  -19.4375   19.7734 H   0  0  0  0  0  0
  -27.8986  -25.5286   21.9812 H   0  0  0  0  0  0
  -29.5306  -25.5229   21.4725 H   0  0  0  0  0  0
  1 25  1  0  0  0
  1 30  2  0  0  0
  1 78  1  0  0  0
  2  3  1  0  0  0
  2 25  1  0  0  0
  2 94  1  0  0  0
  2 95  1  0  0  0
  3  4  1  0  0  0
  3 96  1  0  0  0
  3 97  1  0  0  0
  4  5  1  0  0  0
  4 98  1  0  0  0
  4 99  1  0  0  0
  5  6  1  0  0  0
  5 26  1  0  0  0
  5100  1  0  0  0
  6 25  1  0  0  0
  6101  1  0  0  0
  6102  1  0  0  0
  7  8  2  0  0  0
  7 26  1  0  0  0
  7 29  1  0  0  0
  8  9  1  0  0  0
  8 22  1  0  0  0
  9 10  1  0  0  0
  9 27  2  0  0  0
 10 11  2  0  0  0
 10 15  1  0  0  0
 11 12  1  0  0  0
 11103  1  0  0  0
 12 13  2  0  0  0
 12104  1  0  0  0
 13 14  1  0  0  0
 13 31  1  0  0  0
 14 15  2  0  0  0
 14105  1  0  0  0
 15106  1  0  0  0
 16 17  2  0  0  0
 16 21  1  0  0  0
 16 31  1  0  0  0
 17 18  1  0  0  0
 17107  1  0  0  0
 18 19  2  0  0  0
 18108  1  0  0  0
 19 20  1  0  0  0
 19 24  1  0  0  0
 20 21  2  0  0  0
 20109  1  0  0  0
 21 23  1  0  0  0
 22 28  1  0  0  0
 22 32  2  0  0  0
 26 27  1  0  0  0
 28110  1  0  0  0
 28111  1  0  0  0
 29112  1  0  0  0
 29113  1  0  0  0
 33 34  1  0  0  0
 33 66  1  0  0  0
 33 70  2  0  0  0
 34 36  1  0  0  0
 34 59  1  0  0  0
 34114  1  0  0  0
 35 44  2  0  0  0
 35 45  1  0  0  0
 35 68  1  0  0  0
 36 56  1  0  0  0
 36115  1  0  0  0
 37 39  1  0  0  0
 37 47  1  0  0  0
 37 66  1  0  0  0
 37116  1  0  0  0
 38 43  2  0  0  0
 38 46  1  0  0  0
 38 47  1  0  0  0
 39 64  1  0  0  0
 39 67  2  0  0  0
 40 52  1  0  0  0
 40 53  2  0  0  0
 40 58  1  0  0  0
 41117  1  0  0  0
 41118  1  0  0  0
 41119  1  0  0  0
 41 48  1  0  0  0
 42 43  1  0  0  0
 42 66  1  0  0  0
 42120  1  0  0  0
 42121  1  0  0  0
 43 44  1  0  0  0
 44122  1  0  0  0
 45 46  2  0  0  0
 45123  1  0  0  0
 46124  1  0  0  0
 47125  1  0  0  0
 47126  1  0  0  0
 48 56  1  0  0  0
 48 65  1  0  0  0
 48127  1  0  0  0
 49 50  1  0  0  0
 49 53  1  0  0  0
 49 64  1  0  0  0
 49128  1  0  0  0
 50 51  1  0  0  0
 50129  1  0  0  0
 50130  1  0  0  0
 51 52  1  0  0  0
 51131  1  0  0  0
 51132  1  0  0  0
 52133  1  0  0  0
 52134  1  0  0  0
 53 54  1  0  0  0
 54 55  2  0  0  0
 54135  1  0  0  0
 55 57  1  0  0  0
 55136  1  0  0  0
 56 69  2  0  0  0
 57 58  2  0  0  0
 57137  1  0  0  0
 58138  1  0  0  0
 59 60  1  0  0  0
 59 61  1  0  0  0
 59 62  1  0  0  0
 60139  1  0  0  0
 60140  1  0  0  0
 60141  1  0  0  0
 61142  1  0  0  0
 61143  1  0  0  0
 61144  1  0  0  0
 62145  1  0  0  0
 62146  1  0  0  0
 62147  1  0  0  0
 63 65  1  0  0  0
 63148  1  0  0  0
 63149  1  0  0  0
 63150  1  0  0  0
 64151  1  0  0  0
 65152  1  0  0  0
 68 82  1  0  0  0
 71 83  1  0  0  0
 71 87  2  0  0  0
 71 89  1  0  0  0
 72 84  1  0  0  0
 72 88  2  0  0  0
 72 89  1  0  0  0
 73 81  1  0  0  0
 73153  1  0  0  0
 73154  1  0  0  0
 73155  1  0  0  0
 74156  1  0  0  0
 74157  1  0  0  0
 74158  1  0  0  0
 74 83  1  0  0  0
 75 83  1  0  0  0
 75159  1  0  0  0
 75160  1  0  0  0
 75161  1  0  0  0
 76162  1  0  0  0
 76163  1  0  0  0
 76164  1  0  0  0
 76 85  1  0  0  0
 77 85  1  0  0  0
 77165  1  0  0  0
 77166  1  0  0  0
 77167  1  0  0  0
 78168  1  0  0  0
 78169  1  0  0  0
 78 84  1  0  0  0
 79 82  1  0  0  0
 79 83  1  0  0  0
 79170  1  0  0  0
 79171  1  0  0  0
 80 84  1  0  0  0
 80 85  1  0  0  0
 80172  1  0  0  0
 80173  1  0  0  0
 81 89  1  0  0  0
 81174  1  0  0  0
 81175  1  0  0  0
 82176  1  0  0  0
 82177  1  0  0  0
 84 86  1  0  0  0
 85 90  1  0  0  0
 86 91  1  0  0  0
 86 92  1  0  0  0
 86 93  1  0  0  0
 87 88  1  0  0  0
M  ISO  4   1 100  68 101  78 100  82 101
M  END
> <chiral flag>
0

> <version>
0

> <s_m_source_file>
/data/baiqing/PycharmProjects/Reinvent-master-3.2/result/LINK_invent/BTK/process_docking_weight1_custom_sum_contain_oxygen_bond_distance_aromatic_linkinvent_7_9_3/rearranged_h_0063.sdf

> <i_m_source_file_index>
39

> <r_mmod_Potential_Energy-OPLS-2005>
349.048461914062

> <r_mmod_Stretch_Energy-OPLS-2005>
183.133407592773

> <r_mmod_Bend_Energy-OPLS-2005>
324.299957275391

> <r_mmod_Torsional_Energy-OPLS-2005>
272.782836914062

> <r_mmod_Improper_Torsional_Energy-OPLS-2005>
3.60429716110229

> <r_mmod_Van_der_Waal_Energy-OPLS-2005>
133.498809814453

> <r_mmod_Electrostatic_Energy-OPLS-2005>
-452.742462158203

> <r_mmod_Solvation_Energy-OPLS-2005>
-200.540786743164

> <b_mmod_Minimization_Converged-OPLS-2005>
0

> <r_mmod_RMS_Derivative-OPLS-2005>
6.88254833221436

$$$$
41
                    3D
 Structure written by MMmdl.
174182  0  0  1  0            999 V2000
  -30.4997  -14.9843   20.4067 C   0  0  0  0  0  0
  -30.4435  -12.6164   19.4985 C   0  0  0  0  0  0
  -29.5323  -12.5680   18.2512 C   0  0  0  0  0  0
  -28.0666  -12.3306   18.6515 C   0  0  0  0  0  0
  -27.6343  -13.2463   19.8308 C   0  0  2  0  0  0
  -28.6699  -13.2684   20.9773 C   0  0  0  0  0  0
  -25.2467  -13.8092   20.5621 C   0  0  0  0  0  0
  -24.1793  -13.0326   20.9127 C   0  0  0  0  0  0
  -24.6433  -11.6827   20.8639 C   0  0  0  0  0  0
  -23.9109  -10.4230   21.0333 C   0  0  0  0  0  0
  -24.3648   -9.4171   21.9136 C   0  0  0  0  0  0
  -23.6297   -8.2229   22.0748 C   0  0  0  0  0  0
  -22.4273   -8.0287   21.3540 C   0  0  0  0  0  0
  -21.9921   -9.0223   20.4611 C   0  0  0  0  0  0
  -22.7276  -10.2083   20.2986 C   0  0  0  0  0  0
  -21.6888   -6.0721   22.5256 C   0  0  0  0  0  0
  -21.4037   -6.5620   23.8195 C   0  0  0  0  0  0
  -21.3656   -5.6775   24.9150 C   0  0  0  0  0  0
  -21.6065   -4.3044   24.7226 C   0  0  0  0  0  0
  -21.8823   -3.8127   23.4341 C   0  0  0  0  0  0
  -21.9207   -4.6940   22.3391 C   0  0  0  0  0  0
  -22.7832  -13.5164   21.1759 C   0  0  0  0  0  0
  -22.1664   -4.2119   21.0979 F   0  0  0  0  0  0
  -21.5619   -3.4523   25.7723 F   0  0  0  0  0  0
  -29.9510  -13.6984   20.4023 N   0  0  0  0  0  0
  -26.2909  -12.9355   20.3120 N   0  0  0  0  0  0
  -25.9381  -11.6473   20.5604 N   0  0  0  0  0  0
  -22.0490  -12.8194   22.0349 N   0  0  0  0  0  0
  -25.3993  -15.1818   20.4092 N   0  0  0  0  0  0
  -31.6689  -15.0940   20.0152 O   0  0  0  0  0  0
  -21.6661   -6.8867   21.4231 O   0  0  0  0  0  0
  -22.3498  -14.5434   20.6594 O   0  0  0  0  0  0
  -24.6422  -31.8402   23.1856 C   0  0  0  0  0  0
  -25.9195  -32.4666   23.8260 C   0  0  1  0  0  0
  -27.2372  -27.1206   20.1352 C   0  0  0  0  0  0
  -25.5911  -33.8493   24.2153 N   0  0  0  0  0  0
  -23.4492  -30.4586   21.5288 C   0  0  2  0  0  0
  -24.9023  -28.8765   20.1054 C   0  0  0  0  0  0
  -22.7550  -29.4514   22.4801 C   0  0  0  0  0  0
  -18.0300  -28.1420   22.8456 C   0  0  0  0  0  0
  -24.1490  -36.7261   23.2653 C   0  0  0  0  0  0
  -26.0083  -30.7011   21.3880 C   0  0  0  0  0  0
  -26.0785  -29.3115   20.7293 C   0  0  0  0  0  0
  -27.2416  -28.4499   20.7314 C   0  0  0  0  0  0
  -26.0386  -26.7975   19.4588 C   0  0  0  0  0  0
  -24.8963  -27.6320   19.4560 C   0  0  0  0  0  0
  -23.6779  -29.7818   20.1500 C   0  0  0  0  0  0
  -25.4117  -36.3005   24.0311 C   0  0  1  0  0  0
  -20.5902  -28.3736   23.1224 C   0  0  2  0  0  0
  -20.6792  -26.9439   22.5399 C   0  0  0  0  0  0
  -19.5769  -26.6359   21.5220 C   0  0  0  0  0  0
  -18.1936  -26.7945   22.1607 C   0  0  0  0  0  0
  -19.1556  -28.8877   23.2837 C   0  0  0  0  0  0
  -18.9477  -30.1467   23.8888 C   0  0  0  0  0  0
  -17.6478  -30.6609   24.0559 C   0  0  0  0  0  0
  -25.9079  -34.9385   23.5048 C   0  0  0  0  0  0
  -16.5370  -29.9115   23.6342 C   0  0  0  0  0  0
  -16.7274  -28.6535   23.0368 C   0  0  0  0  0  0
  -26.4512  -31.6571   25.0730 C   0  0  0  0  0  0
  -25.3683  -31.3755   26.1413 C   0  0  0  0  0  0
  -27.0382  -30.2960   24.6328 C   0  0  0  0  0  0
  -27.6034  -32.4356   25.7518 C   0  0  0  0  0  0
  -27.5560  -37.1778   24.8453 C   0  0  0  0  0  0
  -21.4229  -29.3078   22.3591 N   0  0  0  0  0  0
  -26.4261  -37.3715   23.9407 N   0  0  0  0  0  0
  -24.7210  -31.0182   22.0909 N   0  0  0  0  0  0
  -23.4184  -28.8066   23.2957 O   0  0  0  0  0  0
  -28.3043  -26.1417   20.2251 O   0  0  0  0  0  0
  -26.5674  -34.8885   22.4646 O   0  0  0  0  0  0
  -23.5544  -32.1298   23.7025 O   0  0  0  0  0  0
  -31.0357  -18.7880   21.6073 C   0  0  0  0  0  0
  -31.4938  -20.0731   21.9896 C   0  0  0  0  0  0
  -29.9715  -18.9617   20.7671 C   0  0  0  0  0  0
  -32.7550  -21.8149   23.3571 C   0  0  0  0  0  0
  -33.9725  -20.2734   21.8092 C   0  0  0  0  0  0
  -32.9747  -19.3791   23.9236 C   0  0  0  0  0  0
  -29.8030  -17.5334   18.6200 C   0  0  0  0  0  0
  -27.8516  -17.6575   20.1518 C   0  0  0  0  0  0
  -27.4057  -21.3562   20.8096 C   0  0  0  0  0  0
  -28.6307  -21.4178   18.6471 C   0  0  0  0  0  0
  -29.0811  -23.2793   20.4292 C   0  0  0  0  0  0
  -28.1338  -24.6098   19.9282 C   0  0  0  0  0  0
  -32.7732  -20.3876   22.7670 C   0  0  0  0  0  0
  -29.3870  -17.5836   20.1026 C   0  0  0  0  0  0
  -28.7745  -21.6049   20.1641 C   0  0  0  0  0  0
  -30.7525  -21.0283   21.4505 N   0  0  0  0  0  0
  -29.7517  -20.4644   20.7200 N   0  0  0  0  0  0
  -29.6782  -16.1159   20.6781 N   0  0  0  0  0  0
  -31.4786  -12.7813   19.1918 H   0  0  0  0  0  0
  -30.4353  -11.6541   20.0099 H   0  0  0  0  0  0
  -29.8684  -11.7845   17.5727 H   0  0  0  0  0  0
  -29.6088  -13.5080   17.7015 H   0  0  0  0  0  0
  -27.9692  -11.2789   18.9234 H   0  0  0  0  0  0
  -27.4183  -12.4811   17.7861 H   0  0  0  0  0  0
  -27.5936  -14.2498   19.4060 H   0  0  0  0  0  0
  -28.7595  -12.2900   21.4464 H   0  0  0  0  0  0
  -28.3618  -13.9576   21.7648 H   0  0  0  0  0  0
  -25.2805   -9.5637   22.4686 H   0  0  0  0  0  0
  -23.9987   -7.4654   22.7516 H   0  0  0  0  0  0
  -21.0855   -8.8745   19.8926 H   0  0  0  0  0  0
  -22.3762  -10.9593   19.6074 H   0  0  0  0  0  0
  -21.2029   -7.6126   23.9683 H   0  0  0  0  0  0
  -21.1477   -6.0503   25.9051 H   0  0  0  0  0  0
  -22.0606   -2.7591   23.2860 H   0  0  0  0  0  0
  -22.4179  -11.9995   22.4901 H   0  0  0  0  0  0
  -21.1026  -13.1137   22.2369 H   0  0  0  0  0  0
  -24.6148  -15.8183   20.5118 H   0  0  0  0  0  0
  -26.2391  -15.6320   20.0716 H   0  0  0  0  0  0
  -26.7261  -32.5235   23.0991 H   0  0  0  0  0  0
  -25.0017  -33.9639   25.0257 H   0  0  0  0  0  0
  -22.7554  -31.2868   21.3681 H   0  0  0  0  0  0
  -23.3731  -35.9614   23.3271 H   0  0  0  0  0  0
  -24.3568  -36.8937   22.2074 H   0  0  0  0  0  0
  -23.7268  -37.6457   23.6732 H   0  0  0  0  0  0
  -26.1607  -31.4423   20.6038 H   0  0  0  0  0  0
  -26.8863  -30.7615   22.0184 H   0  0  0  0  0  0
  -28.1348  -28.7686   21.2486 H   0  0  0  0  0  0
  -25.9601  -25.8582   18.9328 H   0  0  0  0  0  0
  -24.0054  -27.2905   18.9506 H   0  0  0  0  0  0
  -23.8143  -30.5597   19.3985 H   0  0  0  0  0  0
  -22.7935  -29.2247   19.8307 H   0  0  0  0  0  0
  -25.1302  -36.1815   25.0794 H   0  0  0  0  0  0
  -21.0025  -28.3331   24.1335 H   0  0  0  0  0  0
  -20.5700  -26.2356   23.3625 H   0  0  0  0  0  0
  -21.6661  -26.7462   22.1190 H   0  0  0  0  0  0
  -19.6974  -25.6257   21.1293 H   0  0  0  0  0  0
  -19.6736  -27.3155   20.6738 H   0  0  0  0  0  0
  -17.4230  -26.6676   21.4004 H   0  0  0  0  0  0
  -18.0327  -26.0114   22.9017 H   0  0  0  0  0  0
  -19.7960  -30.7270   24.2265 H   0  0  0  0  0  0
  -17.5054  -31.6305   24.5154 H   0  0  0  0  0  0
  -15.5395  -30.3052   23.7661 H   0  0  0  0  0  0
  -15.8645  -28.0859   22.7127 H   0  0  0  0  0  0
  -24.5906  -30.7051   25.7719 H   0  0  0  0  0  0
  -24.8827  -32.2938   26.4742 H   0  0  0  0  0  0
  -25.7950  -30.9000   27.0251 H   0  0  0  0  0  0
  -26.2999  -29.6686   24.1320 H   0  0  0  0  0  0
  -27.3972  -29.7251   25.4900 H   0  0  0  0  0  0
  -27.8908  -30.4185   23.9643 H   0  0  0  0  0  0
  -27.2634  -33.3702   26.1991 H   0  0  0  0  0  0
  -28.3902  -32.6853   25.0387 H   0  0  0  0  0  0
  -28.0651  -31.8561   26.5516 H   0  0  0  0  0  0
  -28.2526  -38.0121   24.7496 H   0  0  0  0  0  0
  -28.1091  -36.2630   24.6254 H   0  0  0  0  0  0
  -27.2274  -37.1391   25.8858 H   0  0  0  0  0  0
  -20.9419  -29.8786   21.6777 H   0  0  0  0  0  0
  -26.0099  -38.2758   24.1468 H   0  0  0  0  0  0
  -31.4773  -17.8363   21.8646 H   0  0  0  0  0  0
  -32.7418  -22.5673   22.5661 H   0  0  0  0  0  0
  -33.6422  -22.0092   23.9627 H   0  0  0  0  0  0
  -31.8833  -21.9878   23.9874 H   0  0  0  0  0  0
  -33.8929  -20.9816   20.9834 H   0  0  0  0  0  0
  -34.0370  -19.2761   21.3705 H   0  0  0  0  0  0
  -34.9148  -20.4628   22.3263 H   0  0  0  0  0  0
  -32.1109  -19.3389   24.5888 H   0  0  0  0  0  0
  -33.8377  -19.6430   24.5356 H   0  0  0  0  0  0
  -33.1628  -18.3668   23.5593 H   0  0  0  0  0  0
  -29.4546  -18.4026   18.0657 H   0  0  0  0  0  0
  -29.3982  -16.6540   18.1172 H   0  0  0  0  0  0
  -30.8892  -17.5026   18.5184 H   0  0  0  0  0  0
  -27.4693  -18.4789   19.5523 H   0  0  0  0  0  0
  -27.4870  -17.7962   21.1723 H   0  0  0  0  0  0
  -27.3930  -16.7595   19.7473 H   0  0  0  0  0  0
  -27.0494  -20.3438   20.6482 H   0  0  0  0  0  0
  -26.6576  -22.0286   20.3942 H   0  0  0  0  0  0
  -27.4372  -21.5328   21.8840 H   0  0  0  0  0  0
  -27.8374  -22.0544   18.2560 H   0  0  0  0  0  0
  -28.3724  -20.3915   18.3940 H   0  0  0  0  0  0
  -29.5463  -21.6758   18.1174 H   0  0  0  0  0  0
  -29.2156  -23.4003   21.5069 H   0  0  0  0  0  0
  -30.0767  -23.4724   20.0277 H   0  0  0  0  0  0
  -27.1106  -24.3662   20.2095 H   0  0  0  0  0  0
  -28.1448  -24.5665   18.8370 H   0  0  0  0  0  0
  -28.8676  -15.8024   21.1905 H   0  0  0  0  0  0
  1 25  1  0  0  0
  1 30  2  0  0  0
  1 88  1  0  0  0
  2  3  1  0  0  0
  2 25  1  0  0  0
  2 89  1  0  0  0
  2 90  1  0  0  0
  3  4  1  0  0  0
  3 91  1  0  0  0
  3 92  1  0  0  0
  4  5  1  0  0  0
  4 93  1  0  0  0
  4 94  1  0  0  0
  5  6  1  0  0  0
  5 26  1  0  0  0
  5 95  1  0  0  0
  6 25  1  0  0  0
  6 96  1  0  0  0
  6 97  1  0  0  0
  7  8  2  0  0  0
  7 26  1  0  0  0
  7 29  1  0  0  0
  8  9  1  0  0  0
  8 22  1  0  0  0
  9 10  1  0  0  0
  9 27  2  0  0  0
 10 11  2  0  0  0
 10 15  1  0  0  0
 11 12  1  0  0  0
 11 98  1  0  0  0
 12 13  2  0  0  0
 12 99  1  0  0  0
 13 14  1  0  0  0
 13 31  1  0  0  0
 14 15  2  0  0  0
 14100  1  0  0  0
 15101  1  0  0  0
 16 17  2  0  0  0
 16 21  1  0  0  0
 16 31  1  0  0  0
 17 18  1  0  0  0
 17102  1  0  0  0
 18 19  2  0  0  0
 18103  1  0  0  0
 19 20  1  0  0  0
 19 24  1  0  0  0
 20 21  2  0  0  0
 20104  1  0  0  0
 21 23  1  0  0  0
 22 28  1  0  0  0
 22 32  2  0  0  0
 26 27  1  0  0  0
 28105  1  0  0  0
 28106  1  0  0  0
 29107  1  0  0  0
 29108  1  0  0  0
 33 34  1  0  0  0
 33 66  1  0  0  0
 33 70  2  0  0  0
 34 36  1  0  0  0
 34 59  1  0  0  0
 34109  1  0  0  0
 35 44  2  0  0  0
 35 45  1  0  0  0
 35 68  1  0  0  0
 36 56  1  0  0  0
 36110  1  0  0  0
 37 39  1  0  0  0
 37 47  1  0  0  0
 37 66  1  0  0  0
 37111  1  0  0  0
 38 43  2  0  0  0
 38 46  1  0  0  0
 38 47  1  0  0  0
 39 64  1  0  0  0
 39 67  2  0  0  0
 40 52  1  0  0  0
 40 53  2  0  0  0
 40 58  1  0  0  0
 41112  1  0  0  0
 41113  1  0  0  0
 41114  1  0  0  0
 41 48  1  0  0  0
 42 43  1  0  0  0
 42 66  1  0  0  0
 42115  1  0  0  0
 42116  1  0  0  0
 43 44  1  0  0  0
 44117  1  0  0  0
 45 46  2  0  0  0
 45118  1  0  0  0
 46119  1  0  0  0
 47120  1  0  0  0
 47121  1  0  0  0
 48 56  1  0  0  0
 48 65  1  0  0  0
 48122  1  0  0  0
 49 50  1  0  0  0
 49 53  1  0  0  0
 49 64  1  0  0  0
 49123  1  0  0  0
 50 51  1  0  0  0
 50124  1  0  0  0
 50125  1  0  0  0
 51 52  1  0  0  0
 51126  1  0  0  0
 51127  1  0  0  0
 52128  1  0  0  0
 52129  1  0  0  0
 53 54  1  0  0  0
 54 55  2  0  0  0
 54130  1  0  0  0
 55 57  1  0  0  0
 55131  1  0  0  0
 56 69  2  0  0  0
 57 58  2  0  0  0
 57132  1  0  0  0
 58133  1  0  0  0
 59 60  1  0  0  0
 59 61  1  0  0  0
 59 62  1  0  0  0
 60134  1  0  0  0
 60135  1  0  0  0
 60136  1  0  0  0
 61137  1  0  0  0
 61138  1  0  0  0
 61139  1  0  0  0
 62140  1  0  0  0
 62141  1  0  0  0
 62142  1  0  0  0
 63 65  1  0  0  0
 63143  1  0  0  0
 63144  1  0  0  0
 63145  1  0  0  0
 64146  1  0  0  0
 65147  1  0  0  0
 68 82  1  0  0  0
 71 72  1  0  0  0
 71 73  2  0  0  0
 71148  1  0  0  0
 72 83  1  0  0  0
 72 86  2  0  0  0
 73 84  1  0  0  0
 73 87  1  0  0  0
 74149  1  0  0  0
 74150  1  0  0  0
 74151  1  0  0  0
 74 83  1  0  0  0
 75 83  1  0  0  0
 75152  1  0  0  0
 75153  1  0  0  0
 75154  1  0  0  0
 76 83  1  0  0  0
 76155  1  0  0  0
 76156  1  0  0  0
 76157  1  0  0  0
 77158  1  0  0  0
 77159  1  0  0  0
 77160  1  0  0  0
 77 84  1  0  0  0
 78 84  1  0  0  0
 78161  1  0  0  0
 78162  1  0  0  0
 78163  1  0  0  0
 79164  1  0  0  0
 79165  1  0  0  0
 79166  1  0  0  0
 79 85  1  0  0  0
 80 85  1  0  0  0
 80167  1  0  0  0
 80168  1  0  0  0
 80169  1  0  0  0
 81 82  1  0  0  0
 81 85  1  0  0  0
 81170  1  0  0  0
 81171  1  0  0  0
 82172  1  0  0  0
 82173  1  0  0  0
 84 88  1  0  0  0
 85 87  1  0  0  0
 86 87  1  0  0  0
 88174  1  0  0  0
M  ISO  4   1 100  68 101  82 101  88 100
M  END
> <chiral flag>
0

> <version>
0

> <s_m_source_file>
/data/baiqing/PycharmProjects/Reinvent-master-3.2/result/LINK_invent/BTK/process_docking_weight1_custom_sum_contain_oxygen_bond_distance_aromatic_linkinvent_7_9_3/rearranged_h_0063.sdf

> <i_m_source_file_index>
40

> <r_mmod_Potential_Energy-OPLS-2005>
566.794860839844

> <r_mmod_Stretch_Energy-OPLS-2005>
328.007751464844

> <r_mmod_Bend_Energy-OPLS-2005>
347.384674072266

> <r_mmod_Torsional_Energy-OPLS-2005>
257.841827392578

> <r_mmod_Improper_Torsional_Energy-OPLS-2005>
6.11041212081909

> <r_mmod_Van_der_Waal_Energy-OPLS-2005>
98.4231948852539

> <r_mmod_Electrostatic_Energy-OPLS-2005>
-478.174926757812

> <r_mmod_Solvation_Energy-OPLS-2005>
-206.549575805664

> <b_mmod_Minimization_Converged-OPLS-2005>
0

> <r_mmod_RMS_Derivative-OPLS-2005>
5.8106632232666

$$$$
42
                    3D
 Structure written by MMmdl.
157165  0  0  1  0            999 V2000
  -30.7076  -14.5291   20.5355 C   0  0  0  0  0  0
  -30.4158  -12.3367   19.4380 C   0  0  0  0  0  0
  -29.4935  -12.4985   18.2132 C   0  0  0  0  0  0
  -28.0170  -12.3553   18.6287 C   0  0  0  0  0  0
  -27.6539  -13.2182   19.8674 C   0  0  2  0  0  0
  -28.6986  -13.0606   20.9949 C   0  0  0  0  0  0
  -25.2553  -13.8180   20.5686 C   0  0  0  0  0  0
  -24.1813  -13.0442   20.9170 C   0  0  0  0  0  0
  -24.6386  -11.6914   20.8740 C   0  0  0  0  0  0
  -23.9057  -10.4296   21.0406 C   0  0  0  0  0  0
  -24.3613   -9.4218   21.9186 C   0  0  0  0  0  0
  -23.6293   -8.2252   22.0757 C   0  0  0  0  0  0
  -22.4273   -8.0287   21.3550 C   0  0  0  0  0  0
  -21.9902   -9.0256   20.4649 C   0  0  0  0  0  0
  -22.7226  -10.2139   20.3059 C   0  0  0  0  0  0
  -21.6855   -6.0739   22.5279 C   0  0  0  0  0  0
  -21.4013   -6.5641   23.8212 C   0  0  0  0  0  0
  -21.3662   -5.6795   24.9173 C   0  0  0  0  0  0
  -21.6046   -4.3058   24.7221 C   0  0  0  0  0  0
  -21.8819   -3.8151   23.4342 C   0  0  0  0  0  0
  -21.9190   -4.6967   22.3399 C   0  0  0  0  0  0
  -22.7842  -13.5248   21.1836 C   0  0  0  0  0  0
  -22.1656   -4.2154   21.0976 F   0  0  0  0  0  0
  -21.5635   -3.4538   25.7735 F   0  0  0  0  0  0
  -30.0206  -13.3569   20.4254 N   0  0  0  0  0  0
  -26.2996  -12.9369   20.3364 N   0  0  0  0  0  0
  -25.9325  -11.6520   20.5789 N   0  0  0  0  0  0
  -22.0478  -12.8249   22.0395 N   0  0  0  0  0  0
  -25.4270  -15.1896   20.4111 N   0  0  0  0  0  0
  -31.8579  -14.6507   20.1093 O   0  0  0  0  0  0
  -21.6642   -6.8883   21.4241 O   0  0  0  0  0  0
  -22.3545  -14.5569   20.6704 O   0  0  0  0  0  0
  -24.6191  -31.8650   23.2088 C   0  0  0  0  0  0
  -25.9065  -32.4811   23.8392 C   0  0  1  0  0  0
  -27.2236  -27.3884   20.1087 C   0  0  0  0  0  0
  -25.5908  -33.8612   24.2321 N   0  0  0  0  0  0
  -23.4096  -30.4900   21.5494 C   0  0  2  0  0  0
  -24.8568  -28.9563   20.1101 C   0  0  0  0  0  0
  -22.7440  -29.4644   22.4964 C   0  0  0  0  0  0
  -18.0277  -28.1376   22.8493 C   0  0  0  0  0  0
  -24.1486  -36.7312   23.2637 C   0  0  0  0  0  0
  -25.9440  -30.8175   21.3694 C   0  0  0  0  0  0
  -26.0208  -29.4500   20.7141 C   0  0  0  0  0  0
  -27.2106  -28.6751   20.7084 C   0  0  0  0  0  0
  -26.0483  -26.9382   19.4681 C   0  0  0  0  0  0
  -24.8683  -27.7025   19.4790 C   0  0  0  0  0  0
  -23.6208  -29.8271   20.1629 C   0  0  0  0  0  0
  -25.4106  -36.3107   24.0338 C   0  0  1  0  0  0
  -20.5873  -28.3669   23.1305 C   0  0  2  0  0  0
  -20.6768  -26.9400   22.5414 C   0  0  0  0  0  0
  -19.5743  -26.6383   21.5213 C   0  0  0  0  0  0
  -18.1924  -26.7922   22.1628 C   0  0  0  0  0  0
  -19.1529  -28.8839   23.2899 C   0  0  0  0  0  0
  -18.9453  -30.1444   23.8910 C   0  0  0  0  0  0
  -17.6456  -30.6583   24.0562 C   0  0  0  0  0  0
  -25.9036  -34.9471   23.5124 C   0  0  0  0  0  0
  -16.5346  -29.9083   23.6326 C   0  0  0  0  0  0
  -16.7267  -28.6500   23.0348 C   0  0  0  0  0  0
  -26.4477  -31.6597   25.0732 C   0  0  0  0  0  0
  -25.3736  -31.3710   26.1478 C   0  0  0  0  0  0
  -27.0308  -30.3035   24.6125 C   0  0  0  0  0  0
  -27.6051  -32.4316   25.7495 C   0  0  0  0  0  0
  -27.5579  -37.1812   24.8466 C   0  0  0  0  0  0
  -21.4160  -29.3038   22.3711 N   0  0  0  0  0  0
  -26.4291  -37.3793   23.9410 N   0  0  0  0  0  0
  -24.6760  -31.0723   22.1005 N   0  0  0  0  0  0
  -23.4197  -28.8174   23.3007 O   0  0  0  0  0  0
  -28.3422  -26.5665   20.1433 O   0  0  0  0  0  0
  -26.5597  -34.8923   22.4686 O   0  0  0  0  0  0
  -23.5372  -32.1417   23.7458 O   0  0  0  0  0  0
  -27.4661  -18.7943   21.3400 C   0  0  0  0  0  0
  -29.5306  -18.0980   20.9320 C   0  0  0  0  0  0
  -29.0042  -20.2658   20.7057 C   0  0  0  0  0  0
  -26.0389  -18.4949   21.7438 C   0  0  0  0  0  0
  -31.3840  -17.1497   22.3524 C   0  0  0  0  0  0
  -29.0226  -24.0717   20.2212 C   0  0  0  0  0  0
  -28.1052  -25.2412   20.7060 C   0  0  0  0  0  0
  -28.5066  -22.6570   20.6653 C   0  0  0  0  0  0
  -30.5900  -16.9847   21.0442 C   0  0  2  0  0  0
  -28.2996  -17.7610   21.3008 N   0  0  0  0  0  0
  -27.7435  -20.0646   21.0681 N   0  0  0  0  0  0
  -29.9481  -19.3286   20.6056 N   0  0  0  0  0  0
  -30.0373  -15.6102   20.9845 N   0  0  0  0  0  0
  -29.4037  -21.5434   20.4079 O   0  0  0  0  0  0
  -31.4611  -12.4233   19.1356 H   0  0  0  0  0  0
  -30.3131  -11.3393   19.8681 H   0  0  0  0  0  0
  -29.7412  -11.7563   17.4530 H   0  0  0  0  0  0
  -29.6564  -13.4747   17.7538 H   0  0  0  0  0  0
  -27.8400  -11.3019   18.8482 H   0  0  0  0  0  0
  -27.3634  -12.6047   17.7920 H   0  0  0  0  0  0
  -27.6796  -14.2571   19.5392 H   0  0  0  0  0  0
  -28.4617  -13.7143   21.8361 H   0  0  0  0  0  0
  -28.6851  -12.0445   21.3926 H   0  0  0  0  0  0
  -25.2758   -9.5705   22.4759 H   0  0  0  0  0  0
  -24.0009   -7.4639   22.7473 H   0  0  0  0  0  0
  -21.0836   -8.8766   19.8952 H   0  0  0  0  0  0
  -22.3676  -10.9676   19.6174 H   0  0  0  0  0  0
  -21.2003   -7.6150   23.9715 H   0  0  0  0  0  0
  -21.1489   -6.0526   25.9075 H   0  0  0  0  0  0
  -22.0597   -2.7613   23.2839 H   0  0  0  0  0  0
  -22.4079  -11.9912   22.4793 H   0  0  0  0  0  0
  -21.1102  -13.1297   22.2598 H   0  0  0  0  0  0
  -24.6573  -15.8417   20.5091 H   0  0  0  0  0  0
  -26.2956  -15.6312   20.1367 H   0  0  0  0  0  0
  -26.7134  -32.5511   23.1151 H   0  0  0  0  0  0
  -25.0078  -33.9772   25.0479 H   0  0  0  0  0  0
  -22.7001  -31.3084   21.4106 H   0  0  0  0  0  0
  -23.3745  -35.9650   23.3308 H   0  0  0  0  0  0
  -24.3578  -36.8920   22.2050 H   0  0  0  0  0  0
  -23.7245  -37.6523   23.6644 H   0  0  0  0  0  0
  -26.0617  -31.5823   20.6004 H   0  0  0  0  0  0
  -26.8302  -30.8708   21.9903 H   0  0  0  0  0  0
  -28.1046  -29.0459   21.1903 H   0  0  0  0  0  0
  -26.0346  -25.9837   18.9609 H   0  0  0  0  0  0
  -23.9788  -27.3227   18.9953 H   0  0  0  0  0  0
  -23.7325  -30.6045   19.4060 H   0  0  0  0  0  0
  -22.7438  -29.2505   19.8636 H   0  0  0  0  0  0
  -25.1281  -36.1970   25.0832 H   0  0  0  0  0  0
  -20.9968  -28.3235   24.1423 H   0  0  0  0  0  0
  -20.5671  -26.2277   23.3604 H   0  0  0  0  0  0
  -21.6638  -26.7438   22.1204 H   0  0  0  0  0  0
  -19.6905  -25.6298   21.1232 H   0  0  0  0  0  0
  -19.6680  -27.3204   20.6750 H   0  0  0  0  0  0
  -17.4193  -26.6670   21.4030 H   0  0  0  0  0  0
  -18.0325  -26.0059   22.9019 H   0  0  0  0  0  0
  -19.7929  -30.7255   24.2290 H   0  0  0  0  0  0
  -17.5009  -31.6266   24.5155 H   0  0  0  0  0  0
  -15.5347  -30.2988   23.7643 H   0  0  0  0  0  0
  -15.8666  -28.0824   22.7055 H   0  0  0  0  0  0
  -24.5912  -30.7052   25.7818 H   0  0  0  0  0  0
  -24.8922  -32.2867   26.4922 H   0  0  0  0  0  0
  -25.8087  -30.8886   27.0239 H   0  0  0  0  0  0
  -26.2862  -29.6804   24.1157 H   0  0  0  0  0  0
  -27.4048  -29.7265   25.4592 H   0  0  0  0  0  0
  -27.8710  -30.4351   23.9303 H   0  0  0  0  0  0
  -27.2672  -33.3608   26.2095 H   0  0  0  0  0  0
  -28.3849  -32.6888   25.0315 H   0  0  0  0  0  0
  -28.0728  -31.8424   26.5393 H   0  0  0  0  0  0
  -28.2603  -38.0102   24.7504 H   0  0  0  0  0  0
  -28.1066  -36.2634   24.6298 H   0  0  0  0  0  0
  -27.2296  -37.1476   25.8869 H   0  0  0  0  0  0
  -20.9319  -29.8783   21.6953 H   0  0  0  0  0  0
  -26.0179  -38.2873   24.1405 H   0  0  0  0  0  0
  -25.6248  -19.3054   22.3437 H   0  0  0  0  0  0
  -25.9780  -17.5788   22.3316 H   0  0  0  0  0  0
  -25.4163  -18.3733   20.8581 H   0  0  0  0  0  0
  -30.7321  -17.0601   23.2217 H   0  0  0  0  0  0
  -31.8584  -18.1304   22.3956 H   0  0  0  0  0  0
  -32.1728  -16.4034   22.4412 H   0  0  0  0  0  0
  -30.0327  -24.2324   20.5978 H   0  0  0  0  0  0
  -29.0937  -24.0958   19.1335 H   0  0  0  0  0  0
  -28.2108  -25.3330   21.7877 H   0  0  0  0  0  0
  -27.0769  -24.9136   20.5614 H   0  0  0  0  0  0
  -27.5532  -22.4795   20.1646 H   0  0  0  0  0  0
  -28.2978  -22.6784   21.7363 H   0  0  0  0  0  0
  -31.2705  -17.1243   20.2017 H   0  0  0  0  0  0
  -29.0609  -15.5397   21.2330 H   0  0  0  0  0  0
  1 25  1  0  0  0
  1 30  2  0  0  0
  1 83  1  0  0  0
  2  3  1  0  0  0
  2 25  1  0  0  0
  2 85  1  0  0  0
  2 86  1  0  0  0
  3  4  1  0  0  0
  3 87  1  0  0  0
  3 88  1  0  0  0
  4  5  1  0  0  0
  4 89  1  0  0  0
  4 90  1  0  0  0
  5  6  1  0  0  0
  5 26  1  0  0  0
  5 91  1  0  0  0
  6 25  1  0  0  0
  6 92  1  0  0  0
  6 93  1  0  0  0
  7  8  2  0  0  0
  7 26  1  0  0  0
  7 29  1  0  0  0
  8  9  1  0  0  0
  8 22  1  0  0  0
  9 10  1  0  0  0
  9 27  2  0  0  0
 10 11  2  0  0  0
 10 15  1  0  0  0
 11 12  1  0  0  0
 11 94  1  0  0  0
 12 13  2  0  0  0
 12 95  1  0  0  0
 13 14  1  0  0  0
 13 31  1  0  0  0
 14 15  2  0  0  0
 14 96  1  0  0  0
 15 97  1  0  0  0
 16 17  2  0  0  0
 16 21  1  0  0  0
 16 31  1  0  0  0
 17 18  1  0  0  0
 17 98  1  0  0  0
 18 19  2  0  0  0
 18 99  1  0  0  0
 19 20  1  0  0  0
 19 24  1  0  0  0
 20 21  2  0  0  0
 20100  1  0  0  0
 21 23  1  0  0  0
 22 28  1  0  0  0
 22 32  2  0  0  0
 26 27  1  0  0  0
 28101  1  0  0  0
 28102  1  0  0  0
 29103  1  0  0  0
 29104  1  0  0  0
 33 34  1  0  0  0
 33 66  1  0  0  0
 33 70  2  0  0  0
 34 36  1  0  0  0
 34 59  1  0  0  0
 34105  1  0  0  0
 35 44  2  0  0  0
 35 45  1  0  0  0
 35 68  1  0  0  0
 36 56  1  0  0  0
 36106  1  0  0  0
 37 39  1  0  0  0
 37 47  1  0  0  0
 37 66  1  0  0  0
 37107  1  0  0  0
 38 43  2  0  0  0
 38 46  1  0  0  0
 38 47  1  0  0  0
 39 64  1  0  0  0
 39 67  2  0  0  0
 40 52  1  0  0  0
 40 53  2  0  0  0
 40 58  1  0  0  0
 41108  1  0  0  0
 41109  1  0  0  0
 41110  1  0  0  0
 41 48  1  0  0  0
 42 43  1  0  0  0
 42 66  1  0  0  0
 42111  1  0  0  0
 42112  1  0  0  0
 43 44  1  0  0  0
 44113  1  0  0  0
 45 46  2  0  0  0
 45114  1  0  0  0
 46115  1  0  0  0
 47116  1  0  0  0
 47117  1  0  0  0
 48 56  1  0  0  0
 48 65  1  0  0  0
 48118  1  0  0  0
 49 50  1  0  0  0
 49 53  1  0  0  0
 49 64  1  0  0  0
 49119  1  0  0  0
 50 51  1  0  0  0
 50120  1  0  0  0
 50121  1  0  0  0
 51 52  1  0  0  0
 51122  1  0  0  0
 51123  1  0  0  0
 52124  1  0  0  0
 52125  1  0  0  0
 53 54  1  0  0  0
 54 55  2  0  0  0
 54126  1  0  0  0
 55 57  1  0  0  0
 55127  1  0  0  0
 56 69  2  0  0  0
 57 58  2  0  0  0
 57128  1  0  0  0
 58129  1  0  0  0
 59 60  1  0  0  0
 59 61  1  0  0  0
 59 62  1  0  0  0
 60130  1  0  0  0
 60131  1  0  0  0
 60132  1  0  0  0
 61133  1  0  0  0
 61134  1  0  0  0
 61135  1  0  0  0
 62136  1  0  0  0
 62137  1  0  0  0
 62138  1  0  0  0
 63 65  1  0  0  0
 63139  1  0  0  0
 63140  1  0  0  0
 63141  1  0  0  0
 64142  1  0  0  0
 65143  1  0  0  0
 68 77  1  0  0  0
 71 74  1  0  0  0
 71 80  2  0  0  0
 71 81  1  0  0  0
 72 79  1  0  0  0
 72 80  1  0  0  0
 72 82  2  0  0  0
 73 81  2  0  0  0
 73 82  1  0  0  0
 73 84  1  0  0  0
 74144  1  0  0  0
 74145  1  0  0  0
 74146  1  0  0  0
 75147  1  0  0  0
 75148  1  0  0  0
 75149  1  0  0  0
 75 79  1  0  0  0
 76 77  1  0  0  0
 76 78  1  0  0  0
 76150  1  0  0  0
 76151  1  0  0  0
 77152  1  0  0  0
 77153  1  0  0  0
 78 84  1  0  0  0
 78154  1  0  0  0
 78155  1  0  0  0
 79 83  1  0  0  0
 79156  1  0  0  0
 83157  1  0  0  0
M  ISO  4   1 100  68 101  77 101  83 100
M  END
> <chiral flag>
0

> <version>
0

> <s_m_source_file>
/data/baiqing/PycharmProjects/Reinvent-master-3.2/result/LINK_invent/BTK/process_docking_weight1_custom_sum_contain_oxygen_bond_distance_aromatic_linkinvent_7_9_3/rearranged_h_0063.sdf

> <i_m_source_file_index>
41

> <r_mmod_Potential_Energy-OPLS-2005>
-925.793151855469

> <r_mmod_Stretch_Energy-OPLS-2005>
46.8852233886719

> <r_mmod_Bend_Energy-OPLS-2005>
106.399208068848

> <r_mmod_Torsional_Energy-OPLS-2005>
198.727951049805

> <r_mmod_Improper_Torsional_Energy-OPLS-2005>
3.76848316192627

> <r_mmod_Van_der_Waal_Energy-OPLS-2005>
179.330093383789

> <r_mmod_Electrostatic_Energy-OPLS-2005>
-1275.3642578125

> <r_mmod_Solvation_Energy-OPLS-2005>
-210.682907104492

> <b_mmod_Minimization_Converged-OPLS-2005>
0

> <r_mmod_RMS_Derivative-OPLS-2005>
0.710566520690918

$$$$
43
                    3D
 Structure written by MMmdl.
170179  0  0  1  0            999 V2000
  -30.7114  -14.5853   20.5973 C   0  0  0  0  0  0
  -30.4162  -12.3815   19.4630 C   0  0  0  0  0  0
  -29.4989  -12.5183   18.2297 C   0  0  0  0  0  0
  -28.0226  -12.3397   18.6310 C   0  0  0  0  0  0
  -27.6475  -13.1992   19.8625 C   0  0  2  0  0  0
  -28.6866  -13.0410   20.9912 C   0  0  0  0  0  0
  -25.2558  -13.8074   20.5717 C   0  0  0  0  0  0
  -24.1805  -13.0394   20.9190 C   0  0  0  0  0  0
  -24.6346  -11.6864   20.8741 C   0  0  0  0  0  0
  -23.9019  -10.4286   21.0417 C   0  0  0  0  0  0
  -24.3576   -9.4216   21.9194 C   0  0  0  0  0  0
  -23.6273   -8.2243   22.0753 C   0  0  0  0  0  0
  -22.4263   -8.0269   21.3535 C   0  0  0  0  0  0
  -21.9905   -9.0248   20.4639 C   0  0  0  0  0  0
  -22.7210  -10.2133   20.3046 C   0  0  0  0  0  0
  -21.6841   -6.0737   22.5281 C   0  0  0  0  0  0
  -21.4014   -6.5632   23.8219 C   0  0  0  0  0  0
  -21.3657   -5.6780   24.9178 C   0  0  0  0  0  0
  -21.6055   -4.3049   24.7228 C   0  0  0  0  0  0
  -21.8820   -3.8143   23.4343 C   0  0  0  0  0  0
  -21.9183   -4.6966   22.3405 C   0  0  0  0  0  0
  -22.7851  -13.5239   21.1857 C   0  0  0  0  0  0
  -22.1646   -4.2161   21.0985 F   0  0  0  0  0  0
  -21.5629   -3.4524   25.7736 F   0  0  0  0  0  0
  -30.0093  -13.4057   20.4595 N   0  0  0  0  0  0
  -26.2943  -12.9234   20.3301 N   0  0  0  0  0  0
  -25.9260  -11.6418   20.5756 N   0  0  0  0  0  0
  -22.0468  -12.8282   22.0425 N   0  0  0  0  0  0
  -25.4311  -15.1755   20.4216 N   0  0  0  0  0  0
  -31.7982  -14.6656   20.0093 O   0  0  0  0  0  0
  -21.6620   -6.8876   21.4239 O   0  0  0  0  0  0
  -22.3589  -14.5571   20.6720 O   0  0  0  0  0  0
  -24.6200  -31.8623   23.2040 C   0  0  0  0  0  0
  -25.9077  -32.4784   23.8337 C   0  0  1  0  0  0
  -27.2302  -27.3743   20.0973 C   0  0  0  0  0  0
  -25.5908  -33.8583   24.2267 N   0  0  0  0  0  0
  -23.4090  -30.4871   21.5459 C   0  0  2  0  0  0
  -24.8529  -28.9447   20.1141 C   0  0  0  0  0  0
  -22.7417  -29.4655   22.4952 C   0  0  0  0  0  0
  -18.0279  -28.1380   22.8492 C   0  0  0  0  0  0
  -24.1497  -36.7302   23.2639 C   0  0  0  0  0  0
  -25.9436  -30.8098   21.3654 C   0  0  0  0  0  0
  -26.0178  -29.4410   20.7103 C   0  0  0  0  0  0
  -27.2052  -28.6647   20.6960 C   0  0  0  0  0  0
  -26.0345  -26.9019   19.5075 C   0  0  0  0  0  0
  -24.8593  -27.6768   19.5104 C   0  0  0  0  0  0
  -23.6179  -29.8171   20.1624 C   0  0  0  0  0  0
  -25.4119  -36.3086   24.0328 C   0  0  1  0  0  0
  -20.5870  -28.3681   23.1294 C   0  0  2  0  0  0
  -20.6768  -26.9407   22.5411 C   0  0  0  0  0  0
  -19.5750  -26.6386   21.5209 C   0  0  0  0  0  0
  -18.1930  -26.7927   22.1623 C   0  0  0  0  0  0
  -19.1530  -28.8845   23.2896 C   0  0  0  0  0  0
  -18.9458  -30.1448   23.8909 C   0  0  0  0  0  0
  -17.6464  -30.6588   24.0562 C   0  0  0  0  0  0
  -25.9047  -34.9455   23.5099 C   0  0  0  0  0  0
  -16.5354  -29.9085   23.6327 C   0  0  0  0  0  0
  -16.7271  -28.6501   23.0350 C   0  0  0  0  0  0
  -26.4490  -31.6587   25.0688 C   0  0  0  0  0  0
  -25.3736  -31.3713   26.1419 C   0  0  0  0  0  0
  -27.0328  -30.3016   24.6110 C   0  0  0  0  0  0
  -27.6048  -32.4318   25.7464 C   0  0  0  0  0  0
  -27.5581  -37.1807   24.8466 C   0  0  0  0  0  0
  -21.4140  -29.3051   22.3692 N   0  0  0  0  0  0
  -26.4301  -37.3771   23.9402 N   0  0  0  0  0  0
  -24.6758  -31.0687   22.0959 N   0  0  0  0  0  0
  -23.4164  -28.8195   23.3016 O   0  0  0  0  0  0
  -28.4052  -26.6282   20.1235 O   0  0  0  0  0  0
  -26.5617  -34.8918   22.4667 O   0  0  0  0  0  0
  -23.5384  -32.1407   23.7407 O   0  0  0  0  0  0
  -29.4359  -16.9455   20.6700 C   0  0  0  0  0  0
  -27.7234  -17.7052   19.6527 C   0  0  0  0  0  0
  -26.7036  -20.2045   19.4185 C   0  0  0  0  0  0
  -27.9299  -20.0907   20.0448 C   0  0  0  0  0  0
  -26.0531  -19.0518   18.9281 C   0  0  0  0  0  0
  -24.6080  -18.5920   16.8960 C   0  0  0  0  0  0
  -23.6058  -18.5040   19.2433 C   0  0  0  0  0  0
  -29.5912  -15.5773   22.7771 C   0  0  0  0  0  0
  -31.6282  -16.5899   21.8273 C   0  0  0  0  0  0
  -28.6035  -21.3611   20.6330 C   0  0  0  0  0  0
  -28.5356  -22.6747   19.7459 C   0  0  0  0  0  0
  -28.4275  -24.0701   20.4660 C   0  0  0  0  0  0
  -28.5095  -25.3116   19.5079 C   0  0  0  0  0  0
  -24.6570  -19.1496   18.3262 C   0  0  0  0  0  0
  -30.2901  -15.8968   21.4341 C   0  0  0  0  0  0
  -28.3605  -16.5702   19.9254 N   0  0  0  0  0  0
  -29.5189  -18.2802   20.8828 N   0  0  0  0  0  0
  -26.5605  -17.8311   19.0087 N   0  0  0  0  0  0
  -28.4235  -18.7953   20.2051 N   0  0  0  0  0  0
  -31.4596  -12.4614   19.1566 H   0  0  0  0  0  0
  -30.3310  -11.3828   19.8935 H   0  0  0  0  0  0
  -29.7706  -11.7833   17.4709 H   0  0  0  0  0  0
  -29.6432  -13.4995   17.7749 H   0  0  0  0  0  0
  -27.8612  -11.2836   18.8538 H   0  0  0  0  0  0
  -27.3691  -12.5798   17.7916 H   0  0  0  0  0  0
  -27.6629  -14.2267   19.5166 H   0  0  0  0  0  0
  -28.7031  -12.0072   21.3396 H   0  0  0  0  0  0
  -28.3806  -13.6047   21.8588 H   0  0  0  0  0  0
  -25.2703   -9.5731   22.4780 H   0  0  0  0  0  0
  -23.9988   -7.4658   22.7485 H   0  0  0  0  0  0
  -21.0848   -8.8758   19.8931 H   0  0  0  0  0  0
  -22.3672  -10.9679   19.6151 H   0  0  0  0  0  0
  -21.2019   -7.6139   23.9734 H   0  0  0  0  0  0
  -21.1469   -6.0503   25.9082 H   0  0  0  0  0  0
  -22.0601   -2.7607   23.2839 H   0  0  0  0  0  0
  -22.4019  -11.9916   22.4813 H   0  0  0  0  0  0
  -21.1119  -13.1412   22.2647 H   0  0  0  0  0  0
  -24.6587  -15.8278   20.4757 H   0  0  0  0  0  0
  -26.2862  -15.6002   20.0729 H   0  0  0  0  0  0
  -26.7130  -32.5465   23.1070 H   0  0  0  0  0  0
  -25.0044  -33.9734   25.0402 H   0  0  0  0  0  0
  -22.7021  -31.3066   21.4028 H   0  0  0  0  0  0
  -23.3748  -35.9648   23.3311 H   0  0  0  0  0  0
  -24.3577  -36.8911   22.2050 H   0  0  0  0  0  0
  -23.7270  -37.6515   23.6654 H   0  0  0  0  0  0
  -26.0685  -31.5731   20.5966 H   0  0  0  0  0  0
  -26.8269  -30.8580   21.9903 H   0  0  0  0  0  0
  -28.1038  -29.0483   21.1600 H   0  0  0  0  0  0
  -25.9670  -25.9280   19.0500 H   0  0  0  0  0  0
  -23.9614  -27.2824   19.0546 H   0  0  0  0  0  0
  -23.7280  -30.5888   19.3999 H   0  0  0  0  0  0
  -22.7400  -29.2382   19.8690 H   0  0  0  0  0  0
  -25.1308  -36.1933   25.0822 H   0  0  0  0  0  0
  -20.9984  -28.3265   24.1407 H   0  0  0  0  0  0
  -20.5673  -26.2291   23.3607 H   0  0  0  0  0  0
  -21.6638  -26.7446   22.1206 H   0  0  0  0  0  0
  -19.6911  -25.6299   21.1236 H   0  0  0  0  0  0
  -19.6690  -27.3197   20.6740 H   0  0  0  0  0  0
  -17.4196  -26.6676   21.4028 H   0  0  0  0  0  0
  -18.0336  -26.0067   22.9020 H   0  0  0  0  0  0
  -19.7939  -30.7255   24.2284 H   0  0  0  0  0  0
  -17.5023  -31.6273   24.5156 H   0  0  0  0  0  0
  -15.5358  -30.2992   23.7644 H   0  0  0  0  0  0
  -15.8671  -28.0823   22.7057 H   0  0  0  0  0  0
  -24.5907  -30.7065   25.7746 H   0  0  0  0  0  0
  -24.8934  -32.2881   26.4852 H   0  0  0  0  0  0
  -25.8071  -30.8879   27.0182 H   0  0  0  0  0  0
  -26.2879  -29.6758   24.1174 H   0  0  0  0  0  0
  -27.4083  -29.7276   25.4595 H   0  0  0  0  0  0
  -27.8724  -30.4309   23.9271 H   0  0  0  0  0  0
  -27.2646  -33.3607   26.2050 H   0  0  0  0  0  0
  -28.3857  -32.6892   25.0296 H   0  0  0  0  0  0
  -28.0711  -31.8431   26.5375 H   0  0  0  0  0  0
  -28.2611  -38.0089   24.7484 H   0  0  0  0  0  0
  -28.1063  -36.2618   24.6332 H   0  0  0  0  0  0
  -27.2285  -37.1501   25.8864 H   0  0  0  0  0  0
  -20.9288  -29.8758   21.6905 H   0  0  0  0  0  0
  -26.0184  -38.2852   24.1378 H   0  0  0  0  0  0
  -26.2029  -21.1651   19.3401 H   0  0  0  0  0  0
  -25.3267  -19.1065   16.2576 H   0  0  0  0  0  0
  -23.6179  -18.7156   16.4572 H   0  0  0  0  0  0
  -24.8479  -17.5286   16.8742 H   0  0  0  0  0  0
  -23.6367  -18.9438   20.2411 H   0  0  0  0  0  0
  -23.7706  -17.4326   19.3530 H   0  0  0  0  0  0
  -22.5985  -18.6428   18.8505 H   0  0  0  0  0  0
  -28.5099  -15.5061   22.6632 H   0  0  0  0  0  0
  -29.7356  -16.3736   23.5063 H   0  0  0  0  0  0
  -29.9659  -14.6585   23.2288 H   0  0  0  0  0  0
  -31.4719  -17.4380   22.4940 H   0  0  0  0  0  0
  -32.1499  -16.9811   20.9527 H   0  0  0  0  0  0
  -32.3028  -15.9029   22.3404 H   0  0  0  0  0  0
  -29.6426  -21.1409   20.8822 H   0  0  0  0  0  0
  -28.1071  -21.5521   21.5848 H   0  0  0  0  0  0
  -27.6803  -22.6350   19.0769 H   0  0  0  0  0  0
  -29.3959  -22.6753   19.0757 H   0  0  0  0  0  0
  -29.2216  -24.1525   21.2096 H   0  0  0  0  0  0
  -27.4879  -24.1107   21.0187 H   0  0  0  0  0  0
  -27.8450  -25.1892   18.6559 H   0  0  0  0  0  0
  -29.4989  -25.2923   19.0504 H   0  0  0  0  0  0
  -24.4038  -20.2080   18.2565 H   0  0  0  0  0  0
  1 25  1  0  0  0
  1 30  2  0  0  0
  1 85  1  0  0  0
  2  3  1  0  0  0
  2 25  1  0  0  0
  2 90  1  0  0  0
  2 91  1  0  0  0
  3  4  1  0  0  0
  3 92  1  0  0  0
  3 93  1  0  0  0
  4  5  1  0  0  0
  4 94  1  0  0  0
  4 95  1  0  0  0
  5  6  1  0  0  0
  5 26  1  0  0  0
  5 96  1  0  0  0
  6 25  1  0  0  0
  6 97  1  0  0  0
  6 98  1  0  0  0
  7  8  2  0  0  0
  7 26  1  0  0  0
  7 29  1  0  0  0
  8  9  1  0  0  0
  8 22  1  0  0  0
  9 10  1  0  0  0
  9 27  2  0  0  0
 10 11  2  0  0  0
 10 15  1  0  0  0
 11 12  1  0  0  0
 11 99  1  0  0  0
 12 13  2  0  0  0
 12100  1  0  0  0
 13 14  1  0  0  0
 13 31  1  0  0  0
 14 15  2  0  0  0
 14101  1  0  0  0
 15102  1  0  0  0
 16 17  2  0  0  0
 16 21  1  0  0  0
 16 31  1  0  0  0
 17 18  1  0  0  0
 17103  1  0  0  0
 18 19  2  0  0  0
 18104  1  0  0  0
 19 20  1  0  0  0
 19 24  1  0  0  0
 20 21  2  0  0  0
 20105  1  0  0  0
 21 23  1  0  0  0
 22 28  1  0  0  0
 22 32  2  0  0  0
 26 27  1  0  0  0
 28106  1  0  0  0
 28107  1  0  0  0
 29108  1  0  0  0
 29109  1  0  0  0
 33 34  1  0  0  0
 33 66  1  0  0  0
 33 70  2  0  0  0
 34 36  1  0  0  0
 34 59  1  0  0  0
 34110  1  0  0  0
 35 44  2  0  0  0
 35 45  1  0  0  0
 35 68  1  0  0  0
 36 56  1  0  0  0
 36111  1  0  0  0
 37 39  1  0  0  0
 37 47  1  0  0  0
 37 66  1  0  0  0
 37112  1  0  0  0
 38 43  2  0  0  0
 38 46  1  0  0  0
 38 47  1  0  0  0
 39 64  1  0  0  0
 39 67  2  0  0  0
 40 52  1  0  0  0
 40 53  2  0  0  0
 40 58  1  0  0  0
 41113  1  0  0  0
 41114  1  0  0  0
 41115  1  0  0  0
 41 48  1  0  0  0
 42 43  1  0  0  0
 42 66  1  0  0  0
 42116  1  0  0  0
 42117  1  0  0  0
 43 44  1  0  0  0
 44118  1  0  0  0
 45 46  2  0  0  0
 45119  1  0  0  0
 46120  1  0  0  0
 47121  1  0  0  0
 47122  1  0  0  0
 48 56  1  0  0  0
 48 65  1  0  0  0
 48123  1  0  0  0
 49 50  1  0  0  0
 49 53  1  0  0  0
 49 64  1  0  0  0
 49124  1  0  0  0
 50 51  1  0  0  0
 50125  1  0  0  0
 50126  1  0  0  0
 51 52  1  0  0  0
 51127  1  0  0  0
 51128  1  0  0  0
 52129  1  0  0  0
 52130  1  0  0  0
 53 54  1  0  0  0
 54 55  2  0  0  0
 54131  1  0  0  0
 55 57  1  0  0  0
 55132  1  0  0  0
 56 69  2  0  0  0
 57 58  2  0  0  0
 57133  1  0  0  0
 58134  1  0  0  0
 59 60  1  0  0  0
 59 61  1  0  0  0
 59 62  1  0  0  0
 60135  1  0  0  0
 60136  1  0  0  0
 60137  1  0  0  0
 61138  1  0  0  0
 61139  1  0  0  0
 61140  1  0  0  0
 62141  1  0  0  0
 62142  1  0  0  0
 62143  1  0  0  0
 63 65  1  0  0  0
 63144  1  0  0  0
 63145  1  0  0  0
 63146  1  0  0  0
 64147  1  0  0  0
 65148  1  0  0  0
 68 83  1  0  0  0
 71 85  1  0  0  0
 71 86  1  0  0  0
 71 87  2  0  0  0
 72 86  2  0  0  0
 72 88  1  0  0  0
 72 89  1  0  0  0
 73 74  2  0  0  0
 73 75  1  0  0  0
 73149  1  0  0  0
 74 80  1  0  0  0
 74 89  1  0  0  0
 75 84  1  0  0  0
 75 88  2  0  0  0
 76150  1  0  0  0
 76151  1  0  0  0
 76152  1  0  0  0
 76 84  1  0  0  0
 77 84  1  0  0  0
 77153  1  0  0  0
 77154  1  0  0  0
 77155  1  0  0  0
 78156  1  0  0  0
 78157  1  0  0  0
 78158  1  0  0  0
 78 85  1  0  0  0
 79 85  1  0  0  0
 79159  1  0  0  0
 79160  1  0  0  0
 79161  1  0  0  0
 80 81  1  0  0  0
 80162  1  0  0  0
 80163  1  0  0  0
 81 82  1  0  0  0
 81164  1  0  0  0
 81165  1  0  0  0
 82 83  1  0  0  0
 82166  1  0  0  0
 82167  1  0  0  0
 83168  1  0  0  0
 83169  1  0  0  0
 84170  1  0  0  0
 87 89  1  0  0  0
M  ISO  4   1 100  68 101  83 101  85 100
M  END
> <chiral flag>
0

> <version>
0

> <s_m_source_file>
/data/baiqing/PycharmProjects/Reinvent-master-3.2/result/LINK_invent/BTK/process_docking_weight1_custom_sum_contain_oxygen_bond_distance_aromatic_linkinvent_7_9_3/rearranged_h_0063.sdf

> <i_m_source_file_index>
42

> <r_mmod_Potential_Energy-OPLS-2005>
-24.1882305145264

> <r_mmod_Stretch_Energy-OPLS-2005>
74.8009033203125

> <r_mmod_Bend_Energy-OPLS-2005>
164.569808959961

> <r_mmod_Torsional_Energy-OPLS-2005>
163.548294067383

> <r_mmod_Improper_Torsional_Energy-OPLS-2005>
4.07203340530396

> <r_mmod_Van_der_Waal_Energy-OPLS-2005>
161.380432128906

> <r_mmod_Electrostatic_Energy-OPLS-2005>
-432.662628173828

> <r_mmod_Solvation_Energy-OPLS-2005>
-187.058639526367

> <b_mmod_Minimization_Converged-OPLS-2005>
0

> <r_mmod_RMS_Derivative-OPLS-2005>
2.21219277381897

$$$$
44
                    3D
 Structure written by MMmdl.
152160  0  0  1  0            999 V2000
  -30.5675  -15.0562   20.4538 C   0  0  0  0  0  0
  -30.4524  -12.6851   19.5130 C   0  0  0  0  0  0
  -29.5377  -12.5527   18.2732 C   0  0  0  0  0  0
  -28.0800  -12.3036   18.7081 C   0  0  0  0  0  0
  -27.6317  -13.2619   19.8429 C   0  0  2  0  0  0
  -28.6778  -13.3616   20.9768 C   0  0  0  0  0  0
  -25.2513  -13.8221   20.5778 C   0  0  0  0  0  0
  -24.1851  -13.0460   20.9268 C   0  0  0  0  0  0
  -24.6442  -11.6931   20.8769 C   0  0  0  0  0  0
  -23.9121  -10.4312   21.0429 C   0  0  0  0  0  0
  -24.3647   -9.4209   21.9190 C   0  0  0  0  0  0
  -23.6304   -8.2255   22.0758 C   0  0  0  0  0  0
  -22.4276   -8.0299   21.3550 C   0  0  0  0  0  0
  -21.9942   -9.0296   20.4653 C   0  0  0  0  0  0
  -22.7296  -10.2165   20.3071 C   0  0  0  0  0  0
  -21.6859   -6.0754   22.5282 C   0  0  0  0  0  0
  -21.4012   -6.5650   23.8214 C   0  0  0  0  0  0
  -21.3660   -5.6801   24.9174 C   0  0  0  0  0  0
  -21.6042   -4.3063   24.7225 C   0  0  0  0  0  0
  -21.8821   -3.8160   23.4342 C   0  0  0  0  0  0
  -21.9189   -4.6984   22.3397 C   0  0  0  0  0  0
  -22.7835  -13.5236   21.1880 C   0  0  0  0  0  0
  -22.1658   -4.2157   21.0975 F   0  0  0  0  0  0
  -21.5634   -3.4536   25.7736 F   0  0  0  0  0  0
  -29.9375  -13.8045   20.3613 N   0  0  0  0  0  0
  -26.2936  -12.9475   20.3313 N   0  0  0  0  0  0
  -25.9387  -11.6611   20.5806 N   0  0  0  0  0  0
  -22.0469  -12.8233   22.0413 N   0  0  0  0  0  0
  -25.4181  -15.1978   20.4176 N   0  0  0  0  0  0
  -31.7796  -15.0679   20.2173 O   0  0  0  0  0  0
  -21.6642   -6.8889   21.4237 O   0  0  0  0  0  0
  -22.3506  -14.5543   20.6711 O   0  0  0  0  0  0
  -24.6606  -31.8299   23.1786 C   0  0  0  0  0  0
  -25.9325  -32.4596   23.8202 C   0  0  1  0  0  0
  -27.2415  -27.0698   20.2161 C   0  0  0  0  0  0
  -25.5964  -33.8406   24.2164 N   0  0  0  0  0  0
  -23.4620  -30.4524   21.5178 C   0  0  2  0  0  0
  -24.9148  -28.8389   20.1422 C   0  0  0  0  0  0
  -22.7651  -29.4563   22.4792 C   0  0  0  0  0  0
  -18.0316  -28.1443   22.8434 C   0  0  0  0  0  0
  -24.1475  -36.7316   23.2641 C   0  0  0  0  0  0
  -26.0203  -30.6892   21.3783 C   0  0  0  0  0  0
  -26.0932  -29.2791   20.7632 C   0  0  0  0  0  0
  -27.2653  -28.4158   20.7696 C   0  0  0  0  0  0
  -26.0315  -26.7354   19.5774 C   0  0  0  0  0  0
  -24.8999  -27.5775   19.5285 C   0  0  0  0  0  0
  -23.6983  -29.7526   20.1514 C   0  0  0  0  0  0
  -25.4056  -36.2954   24.0343 C   0  0  1  0  0  0
  -20.5955  -28.3772   23.1218 C   0  0  2  0  0  0
  -20.6781  -26.9481   22.5369 C   0  0  0  0  0  0
  -19.5768  -26.6412   21.5144 C   0  0  0  0  0  0
  -18.1960  -26.7978   22.1583 C   0  0  0  0  0  0
  -19.1576  -28.8913   23.2823 C   0  0  0  0  0  0
  -18.9499  -30.1505   23.8850 C   0  0  0  0  0  0
  -17.6497  -30.6624   24.0561 C   0  0  0  0  0  0
  -25.9014  -34.9349   23.5062 C   0  0  0  0  0  0
  -16.5386  -29.9128   23.6342 C   0  0  0  0  0  0
  -16.7309  -28.6567   23.0328 C   0  0  0  0  0  0
  -26.4594  -31.6431   25.0699 C   0  0  0  0  0  0
  -25.3832  -31.3633   26.1458 C   0  0  0  0  0  0
  -27.0458  -30.2818   24.6259 C   0  0  0  0  0  0
  -27.6088  -32.4249   25.7533 C   0  0  0  0  0  0
  -27.5537  -37.1794   24.8456 C   0  0  0  0  0  0
  -21.4317  -29.3120   22.3580 N   0  0  0  0  0  0
  -26.4176  -37.3714   23.9464 N   0  0  0  0  0  0
  -24.7345  -31.0177   22.0815 N   0  0  0  0  0  0
  -23.4265  -28.8033   23.2903 O   0  0  0  0  0  0
  -28.3236  -26.1511   19.9218 O   0  0  0  0  0  0
  -26.5636  -34.8886   22.4652 O   0  0  0  0  0  0
  -23.5739  -32.1185   23.6985 O   0  0  0  0  0  0
  -29.0136  -22.1808   23.1785 C   0  0  0  0  0  0
  -28.5593  -23.2873   22.4367 C   0  0  0  0  0  0
  -29.5716  -21.0323   22.5694 C   0  0  0  0  0  0
  -28.7900  -23.3682   21.0568 C   0  0  0  0  0  0
  -29.4690  -20.8719   21.1529 C   0  0  0  0  0  0
  -29.5005  -19.3161   20.4540 C   0  0  0  0  0  0
  -29.0906  -24.9563   20.6009 C   0  0  0  0  0  0
  -30.2618  -17.8221   20.9298 C   0  0  0  0  0  0
  -30.2670  -20.0516   23.5062 C   0  0  0  0  0  0
  -29.1784  -22.1114   20.4436 N   0  0  0  0  0  0
  -29.8531  -16.2979   20.6068 N   0  0  0  0  0  0
  -30.7189  -20.6649   24.6015 F   0  0  0  0  0  0
  -29.3996  -19.1113   23.8823 F   0  0  0  0  0  0
  -31.3391  -19.5119   22.9281 F   0  0  0  0  0  0
  -31.4840  -12.8535   19.2023 H   0  0  0  0  0  0
  -30.4652  -11.7575   20.0880 H   0  0  0  0  0  0
  -29.8876  -11.7282   17.6489 H   0  0  0  0  0  0
  -29.5975  -13.4543   17.6622 H   0  0  0  0  0  0
  -28.0263  -11.2713   19.0605 H   0  0  0  0  0  0
  -27.4030  -12.3702   17.8542 H   0  0  0  0  0  0
  -27.5768  -14.2489   19.3812 H   0  0  0  0  0  0
  -28.8091  -12.4068   21.4916 H   0  0  0  0  0  0
  -28.3549  -14.0758   21.7394 H   0  0  0  0  0  0
  -25.2787   -9.5671   22.4770 H   0  0  0  0  0  0
  -24.0019   -7.4632   22.7467 H   0  0  0  0  0  0
  -21.0873   -8.8825   19.8936 H   0  0  0  0  0  0
  -22.3765  -10.9708   19.6186 H   0  0  0  0  0  0
  -21.2003   -7.6145   23.9722 H   0  0  0  0  0  0
  -21.1479   -6.0520   25.9079 H   0  0  0  0  0  0
  -22.0596   -2.7607   23.2839 H   0  0  0  0  0  0
  -22.4102  -11.9924   22.4855 H   0  0  0  0  0  0
  -21.1056  -13.1232   22.2601 H   0  0  0  0  0  0
  -24.6470  -15.8489   20.5306 H   0  0  0  0  0  0
  -26.2587  -15.6329   20.0667 H   0  0  0  0  0  0
  -26.7440  -32.5187   23.0970 H   0  0  0  0  0  0
  -25.0020  -33.9337   25.0275 H   0  0  0  0  0  0
  -22.7748  -31.2861   21.3470 H   0  0  0  0  0  0
  -23.3619  -35.9761   23.3222 H   0  0  0  0  0  0
  -24.3556  -36.9037   22.2059 H   0  0  0  0  0  0
  -23.7353  -37.6546   23.6741 H   0  0  0  0  0  0
  -26.1540  -31.4010   20.5621 H   0  0  0  0  0  0
  -26.9062  -30.7848   21.9924 H   0  0  0  0  0  0
  -28.1903  -28.7833   21.1889 H   0  0  0  0  0  0
  -25.9786  -25.7795   19.0725 H   0  0  0  0  0  0
  -24.0115  -27.2329   19.0169 H   0  0  0  0  0  0
  -23.8644  -30.5068   19.3825 H   0  0  0  0  0  0
  -22.8022  -29.2085   19.8340 H   0  0  0  0  0  0
  -25.1229  -36.1698   25.0828 H   0  0  0  0  0  0
  -21.0009  -28.3304   24.1348 H   0  0  0  0  0  0
  -20.5570  -26.2392   23.3564 H   0  0  0  0  0  0
  -21.6677  -26.7440   22.1223 H   0  0  0  0  0  0
  -19.6931  -25.6286   21.1264 H   0  0  0  0  0  0
  -19.6692  -27.3152   20.6613 H   0  0  0  0  0  0
  -17.4196  -26.6648   21.4051 H   0  0  0  0  0  0
  -18.0449  -26.0153   22.9044 H   0  0  0  0  0  0
  -19.7977  -30.7336   24.2208 H   0  0  0  0  0  0
  -17.5049  -31.6290   24.5209 H   0  0  0  0  0  0
  -15.5391  -30.3005   23.7685 H   0  0  0  0  0  0
  -15.8704  -28.0859   22.7054 H   0  0  0  0  0  0
  -24.5957  -30.6978   25.7891 H   0  0  0  0  0  0
  -24.9083  -32.2834   26.4896 H   0  0  0  0  0  0
  -25.8217  -30.8827   27.0216 H   0  0  0  0  0  0
  -26.3062  -29.6549   24.1277 H   0  0  0  0  0  0
  -27.4062  -29.7079   25.4804 H   0  0  0  0  0  0
  -27.8957  -30.4041   23.9571 H   0  0  0  0  0  0
  -27.2570  -33.3546   26.2020 H   0  0  0  0  0  0
  -28.3971  -32.6795   25.0453 H   0  0  0  0  0  0
  -28.0676  -31.8424   26.5515 H   0  0  0  0  0  0
  -28.2514  -38.0122   24.7439 H   0  0  0  0  0  0
  -28.1025  -36.2627   24.6264 H   0  0  0  0  0  0
  -27.2277  -37.1518   25.8863 H   0  0  0  0  0  0
  -20.9507  -29.8853   21.6783 H   0  0  0  0  0  0
  -25.9983  -38.2753   24.1434 H   0  0  0  0  0  0
  -28.9968  -22.2616   24.2567 H   0  0  0  0  0  0
  -28.2334  -24.1674   22.9790 H   0  0  0  0  0  0
  -29.8318  -19.4887   19.4313 H   0  0  0  0  0  0
  -28.4399  -19.0672   20.3602 H   0  0  0  0  0  0
  -29.9555  -24.8358   19.9463 H   0  0  0  0  0  0
  -29.5332  -25.4242   21.4865 H   0  0  0  0  0  0
  -30.2057  -17.7635   22.0047 H   0  0  0  0  0  0
  -31.3241  -17.9175   20.7004 H   0  0  0  0  0  0
  -28.8592  -16.1482   20.6694 H   0  0  0  0  0  0
  1 25  1  0  0  0
  1 30  2  0  0  0
  1 81  1  0  0  0
  2  3  1  0  0  0
  2 25  1  0  0  0
  2 85  1  0  0  0
  2 86  1  0  0  0
  3  4  1  0  0  0
  3 87  1  0  0  0
  3 88  1  0  0  0
  4  5  1  0  0  0
  4 89  1  0  0  0
  4 90  1  0  0  0
  5  6  1  0  0  0
  5 26  1  0  0  0
  5 91  1  0  0  0
  6 25  1  0  0  0
  6 92  1  0  0  0
  6 93  1  0  0  0
  7  8  2  0  0  0
  7 26  1  0  0  0
  7 29  1  0  0  0
  8  9  1  0  0  0
  8 22  1  0  0  0
  9 10  1  0  0  0
  9 27  2  0  0  0
 10 11  2  0  0  0
 10 15  1  0  0  0
 11 12  1  0  0  0
 11 94  1  0  0  0
 12 13  2  0  0  0
 12 95  1  0  0  0
 13 14  1  0  0  0
 13 31  1  0  0  0
 14 15  2  0  0  0
 14 96  1  0  0  0
 15 97  1  0  0  0
 16 17  2  0  0  0
 16 21  1  0  0  0
 16 31  1  0  0  0
 17 18  1  0  0  0
 17 98  1  0  0  0
 18 19  2  0  0  0
 18 99  1  0  0  0
 19 20  1  0  0  0
 19 24  1  0  0  0
 20 21  2  0  0  0
 20100  1  0  0  0
 21 23  1  0  0  0
 22 28  1  0  0  0
 22 32  2  0  0  0
 26 27  1  0  0  0
 28101  1  0  0  0
 28102  1  0  0  0
 29103  1  0  0  0
 29104  1  0  0  0
 33 34  1  0  0  0
 33 66  1  0  0  0
 33 70  2  0  0  0
 34 36  1  0  0  0
 34 59  1  0  0  0
 34105  1  0  0  0
 35 44  2  0  0  0
 35 45  1  0  0  0
 35 68  1  0  0  0
 36 56  1  0  0  0
 36106  1  0  0  0
 37 39  1  0  0  0
 37 47  1  0  0  0
 37 66  1  0  0  0
 37107  1  0  0  0
 38 43  2  0  0  0
 38 46  1  0  0  0
 38 47  1  0  0  0
 39 64  1  0  0  0
 39 67  2  0  0  0
 40 52  1  0  0  0
 40 53  2  0  0  0
 40 58  1  0  0  0
 41108  1  0  0  0
 41109  1  0  0  0
 41110  1  0  0  0
 41 48  1  0  0  0
 42 43  1  0  0  0
 42 66  1  0  0  0
 42111  1  0  0  0
 42112  1  0  0  0
 43 44  1  0  0  0
 44113  1  0  0  0
 45 46  2  0  0  0
 45114  1  0  0  0
 46115  1  0  0  0
 47116  1  0  0  0
 47117  1  0  0  0
 48 56  1  0  0  0
 48 65  1  0  0  0
 48118  1  0  0  0
 49 50  1  0  0  0
 49 53  1  0  0  0
 49 64  1  0  0  0
 49119  1  0  0  0
 50 51  1  0  0  0
 50120  1  0  0  0
 50121  1  0  0  0
 51 52  1  0  0  0
 51122  1  0  0  0
 51123  1  0  0  0
 52124  1  0  0  0
 52125  1  0  0  0
 53 54  1  0  0  0
 54 55  2  0  0  0
 54126  1  0  0  0
 55 57  1  0  0  0
 55127  1  0  0  0
 56 69  2  0  0  0
 57 58  2  0  0  0
 57128  1  0  0  0
 58129  1  0  0  0
 59 60  1  0  0  0
 59 61  1  0  0  0
 59 62  1  0  0  0
 60130  1  0  0  0
 60131  1  0  0  0
 60132  1  0  0  0
 61133  1  0  0  0
 61134  1  0  0  0
 61135  1  0  0  0
 62136  1  0  0  0
 62137  1  0  0  0
 62138  1  0  0  0
 63 65  1  0  0  0
 63139  1  0  0  0
 63140  1  0  0  0
 63141  1  0  0  0
 64142  1  0  0  0
 65143  1  0  0  0
 68 77  1  0  0  0
 71 72  2  0  0  0
 71 73  1  0  0  0
 71144  1  0  0  0
 72 74  1  0  0  0
 72145  1  0  0  0
 73 75  2  0  0  0
 73 79  1  0  0  0
 74 77  1  0  0  0
 74 80  2  0  0  0
 75 76  1  0  0  0
 75 80  1  0  0  0
 76 78  1  0  0  0
 76146  1  0  0  0
 76147  1  0  0  0
 77148  1  0  0  0
 77149  1  0  0  0
 78 81  1  0  0  0
 78150  1  0  0  0
 78151  1  0  0  0
 79 82  1  0  0  0
 79 83  1  0  0  0
 79 84  1  0  0  0
 81152  1  0  0  0
M  ISO  4   1 100  68 101  77 101  81 100
M  END
> <chiral flag>
0

> <version>
0

> <s_m_source_file>
/data/baiqing/PycharmProjects/Reinvent-master-3.2/result/LINK_invent/BTK/process_docking_weight1_custom_sum_contain_oxygen_bond_distance_aromatic_linkinvent_7_9_3/rearranged_h_0063.sdf

> <i_m_source_file_index>
43

> <r_mmod_Potential_Energy-OPLS-2005>
856.830139160156

> <r_mmod_Stretch_Energy-OPLS-2005>
364.620758056641

> <r_mmod_Bend_Energy-OPLS-2005>
461.418151855469

> <r_mmod_Torsional_Energy-OPLS-2005>
291.567626953125

> <r_mmod_Improper_Torsional_Energy-OPLS-2005>
14.5858879089355

> <r_mmod_Van_der_Waal_Energy-OPLS-2005>
134.57177734375

> <r_mmod_Electrostatic_Energy-OPLS-2005>
-441.331909179688

> <r_mmod_Solvation_Energy-OPLS-2005>
-223.101272583008

> <b_mmod_Minimization_Converged-OPLS-2005>
0

> <r_mmod_RMS_Derivative-OPLS-2005>
9.45149326324463

$$$$
45
                    3D
 Structure written by MMmdl.
156164  0  0  1  0            999 V2000
  -30.6562  -14.7226   20.6448 C   0  0  0  0  0  0
  -30.4538  -12.4887   19.4764 C   0  0  0  0  0  0
  -29.5342  -12.5445   18.2322 C   0  0  0  0  0  0
  -28.0576  -12.3287   18.6195 C   0  0  0  0  0  0
  -27.6542  -13.2009   19.8366 C   0  0  2  0  0  0
  -28.6880  -13.0207   20.9680 C   0  0  0  0  0  0
  -25.2521  -13.8066   20.5407 C   0  0  0  0  0  0
  -24.1830  -13.0389   20.9019 C   0  0  0  0  0  0
  -24.6375  -11.6842   20.8642 C   0  0  0  0  0  0
  -23.9044  -10.4270   21.0382 C   0  0  0  0  0  0
  -24.3614   -9.4213   21.9162 C   0  0  0  0  0  0
  -23.6292   -8.2259   22.0757 C   0  0  0  0  0  0
  -22.4276   -8.0282   21.3561 C   0  0  0  0  0  0
  -21.9900   -9.0226   20.4644 C   0  0  0  0  0  0
  -22.7219  -10.2104   20.3029 C   0  0  0  0  0  0
  -21.6849   -6.0734   22.5276 C   0  0  0  0  0  0
  -21.4024   -6.5640   23.8216 C   0  0  0  0  0  0
  -21.3642   -5.6790   24.9168 C   0  0  0  0  0  0
  -21.6039   -4.3045   24.7219 C   0  0  0  0  0  0
  -21.8822   -3.8150   23.4327 C   0  0  0  0  0  0
  -21.9207   -4.6964   22.3404 C   0  0  0  0  0  0
  -22.7868  -13.5230   21.1744 C   0  0  0  0  0  0
  -22.1667   -4.2162   21.0969 F   0  0  0  0  0  0
  -21.5614   -3.4523   25.7723 F   0  0  0  0  0  0
  -29.9960  -13.5008   20.4762 N   0  0  0  0  0  0
  -26.2961  -12.9247   20.3035 N   0  0  0  0  0  0
  -25.9296  -11.6417   20.5584 N   0  0  0  0  0  0
  -22.0522  -12.8284   22.0330 N   0  0  0  0  0  0
  -25.4150  -15.1783   20.3760 N   0  0  0  0  0  0
  -31.7106  -14.8457   20.0042 O   0  0  0  0  0  0
  -21.6642   -6.8881   21.4245 O   0  0  0  0  0  0
  -22.3561  -14.5528   20.6569 O   0  0  0  0  0  0
  -24.6256  -31.8595   23.2080 C   0  0  0  0  0  0
  -25.9098  -32.4782   23.8403 C   0  0  1  0  0  0
  -27.2002  -27.2703   20.1375 C   0  0  0  0  0  0
  -25.5906  -33.8588   24.2294 N   0  0  0  0  0  0
  -23.4196  -30.4839   21.5536 C   0  0  2  0  0  0
  -24.8643  -28.9418   20.1096 C   0  0  0  0  0  0
  -22.7468  -29.4590   22.4979 C   0  0  0  0  0  0
  -18.0288  -28.1326   22.8502 C   0  0  0  0  0  0
  -24.1489  -36.7299   23.2639 C   0  0  0  0  0  0
  -25.9633  -30.7756   21.3880 C   0  0  0  0  0  0
  -26.0362  -29.4016   20.7249 C   0  0  0  0  0  0
  -27.2086  -28.5803   20.7246 C   0  0  0  0  0  0
  -26.0081  -26.8807   19.4855 C   0  0  0  0  0  0
  -24.8560  -27.6900   19.4768 C   0  0  0  0  0  0
  -23.6350  -29.8296   20.1659 C   0  0  0  0  0  0
  -25.4109  -36.3087   24.0307 C   0  0  1  0  0  0
  -20.5887  -28.3651   23.1271 C   0  0  2  0  0  0
  -20.6797  -26.9372   22.5405 C   0  0  0  0  0  0
  -19.5786  -26.6346   21.5194 C   0  0  0  0  0  0
  -18.1954  -26.7872   22.1611 C   0  0  0  0  0  0
  -19.1538  -28.8799   23.2902 C   0  0  0  0  0  0
  -18.9471  -30.1401   23.8889 C   0  0  0  0  0  0
  -17.6477  -30.6552   24.0515 C   0  0  0  0  0  0
  -25.9029  -34.9443   23.5105 C   0  0  0  0  0  0
  -16.5367  -29.9028   23.6327 C   0  0  0  0  0  0
  -16.7275  -28.6447   23.0367 C   0  0  0  0  0  0
  -26.4490  -31.6580   25.0768 C   0  0  0  0  0  0
  -25.3734  -31.3659   26.1496 C   0  0  0  0  0  0
  -27.0360  -30.3015   24.6228 C   0  0  0  0  0  0
  -27.6012  -32.4361   25.7530 C   0  0  0  0  0  0
  -27.5592  -37.1797   24.8465 C   0  0  0  0  0  0
  -21.4190  -29.3021   22.3692 N   0  0  0  0  0  0
  -26.4307  -37.3774   23.9397 N   0  0  0  0  0  0
  -24.6891  -31.0545   22.1072 N   0  0  0  0  0  0
  -23.4188  -28.8139   23.3056 O   0  0  0  0  0  0
  -28.2861  -26.3699   20.2076 O   0  0  0  0  0  0
  -26.5638  -34.8903   22.4689 O   0  0  0  0  0  0
  -23.5421  -32.1415   23.7373 O   0  0  0  0  0  0
  -30.3217  -18.7216   21.6390 C   0  0  0  0  0  0
  -30.1969  -17.4686   21.0221 C   0  0  0  0  0  0
  -28.9233  -22.2461   20.4813 C   0  0  0  0  0  0
  -29.1972  -23.8454   20.5031 C   0  0  0  0  0  0
  -30.1474  -21.2479   20.8006 C   0  0  0  0  0  0
  -28.0027  -24.8943   20.2531 C   0  0  0  0  0  0
  -28.9500  -15.7883   22.4187 C   0  0  0  0  0  0
  -30.2819  -15.9815   21.6400 C   0  0  1  0  0  0
  -31.4308  -15.9426   22.7125 C   0  0  0  0  0  0
  -29.7848  -17.7988   19.7136 N   0  0  0  0  0  0
  -29.7183  -19.1039   19.5368 N   0  0  0  0  0  0
  -30.0093  -19.7311   20.7068 N   0  0  0  0  0  0
  -28.6961  -16.7684   23.2884 F   0  0  0  0  0  0
  -27.9089  -15.7264   21.5915 F   0  0  0  0  0  0
  -31.2093  -16.7782   23.7307 F   0  0  0  0  0  0
  -32.6153  -16.2775   22.1915 F   0  0  0  0  0  0
  -31.5576  -14.7176   23.2345 F   0  0  0  0  0  0
  -31.4894  -12.6302   19.1654 H   0  0  0  0  0  0
  -30.4412  -11.4859   19.9052 H   0  0  0  0  0  0
  -29.8419  -11.7881   17.5072 H   0  0  0  0  0  0
  -29.6490  -13.5101   17.7357 H   0  0  0  0  0  0
  -27.9301  -11.2725   18.8690 H   0  0  0  0  0  0
  -27.4103  -12.5184   17.7636 H   0  0  0  0  0  0
  -27.6819  -14.2372   19.4993 H   0  0  0  0  0  0
  -28.7544  -11.9588   21.2159 H   0  0  0  0  0  0
  -28.3129  -13.4432   21.8830 H   0  0  0  0  0  0
  -25.2755   -9.5709   22.4725 H   0  0  0  0  0  0
  -23.9987   -7.4675   22.7504 H   0  0  0  0  0  0
  -21.0822   -8.8727   19.8974 H   0  0  0  0  0  0
  -22.3651  -10.9626   19.6132 H   0  0  0  0  0  0
  -21.2012   -7.6142   23.9720 H   0  0  0  0  0  0
  -21.1452   -6.0503   25.9065 H   0  0  0  0  0  0
  -22.0618   -2.7615   23.2819 H   0  0  0  0  0  0
  -22.4177  -12.0031   22.4871 H   0  0  0  0  0  0
  -21.1104  -13.1313   22.2387 H   0  0  0  0  0  0
  -24.6660  -15.8348   20.5556 H   0  0  0  0  0  0
  -26.3074  -15.6277   20.2142 H   0  0  0  0  0  0
  -26.7132  -32.5435   23.1113 H   0  0  0  0  0  0
  -25.0008  -33.9718   25.0413 H   0  0  0  0  0  0
  -22.7121  -31.3058   21.4203 H   0  0  0  0  0  0
  -23.3748  -35.9649   23.3302 H   0  0  0  0  0  0
  -24.3563  -36.8942   22.2067 H   0  0  0  0  0  0
  -23.7243  -37.6480   23.6690 H   0  0  0  0  0  0
  -26.1050  -31.5476   20.6304 H   0  0  0  0  0  0
  -26.8375  -30.8149   22.0255 H   0  0  0  0  0  0
  -28.1035  -28.9262   21.2183 H   0  0  0  0  0  0
  -25.9374  -25.9351   18.9720 H   0  0  0  0  0  0
  -23.9570  -27.3350   18.9887 H   0  0  0  0  0  0
  -23.7543  -30.6164   19.4184 H   0  0  0  0  0  0
  -22.7496  -29.2705   19.8643 H   0  0  0  0  0  0
  -25.1293  -36.1946   25.0802 H   0  0  0  0  0  0
  -20.9975  -28.3222   24.1389 H   0  0  0  0  0  0
  -20.5690  -26.2240   23.3595 H   0  0  0  0  0  0
  -21.6660  -26.7399   22.1190 H   0  0  0  0  0  0
  -19.6923  -25.6256   21.1222 H   0  0  0  0  0  0
  -19.6690  -27.3154   20.6702 H   0  0  0  0  0  0
  -17.4219  -26.6615   21.4011 H   0  0  0  0  0  0
  -18.0341  -25.9980   22.8966 H   0  0  0  0  0  0
  -19.7967  -30.7207   24.2259 H   0  0  0  0  0  0
  -17.5049  -31.6227   24.5135 H   0  0  0  0  0  0
  -15.5378  -30.2936   23.7639 H   0  0  0  0  0  0
  -15.8680  -28.0731   22.7116 H   0  0  0  0  0  0
  -24.5956  -30.6949   25.7839 H   0  0  0  0  0  0
  -24.8854  -32.2788   26.4947 H   0  0  0  0  0  0
  -25.8120  -30.8869   27.0258 H   0  0  0  0  0  0
  -26.2942  -29.6714   24.1337 H   0  0  0  0  0  0
  -27.4132  -29.7333   25.4730 H   0  0  0  0  0  0
  -27.8782  -30.4289   23.9425 H   0  0  0  0  0  0
  -27.2601  -33.3691   26.2033 H   0  0  0  0  0  0
  -28.3874  -32.6875   25.0401 H   0  0  0  0  0  0
  -28.0624  -31.8545   26.5520 H   0  0  0  0  0  0
  -28.2593  -38.0122   24.7557 H   0  0  0  0  0  0
  -28.1131  -36.2644   24.6280 H   0  0  0  0  0  0
  -27.2302  -37.1406   25.8871 H   0  0  0  0  0  0
  -20.9352  -29.8769   21.6937 H   0  0  0  0  0  0
  -26.0194  -38.2853   24.1414 H   0  0  0  0  0  0
  -30.5931  -18.9817   22.6545 H   0  0  0  0  0  0
  -28.5340  -21.9873   19.4968 H   0  0  0  0  0  0
  -28.1195  -22.0169   21.1834 H   0  0  0  0  0  0
  -29.9536  -24.0465   19.7446 H   0  0  0  0  0  0
  -29.6661  -24.0996   21.4548 H   0  0  0  0  0  0
  -30.5072  -21.4704   21.8057 H   0  0  0  0  0  0
  -30.9731  -21.5223   20.1430 H   0  0  0  0  0  0
  -27.2529  -24.7218   21.0301 H   0  0  0  0  0  0
  -27.5266  -24.5947   19.3189 H   0  0  0  0  0  0
  -28.9897  -14.9064   23.0537 H   0  0  0  0  0  0
  1 25  1  0  0  0
  1 30  2  0  0  0
  1 78  1  0  0  0
  2  3  1  0  0  0
  2 25  1  0  0  0
  2 88  1  0  0  0
  2 89  1  0  0  0
  3  4  1  0  0  0
  3 90  1  0  0  0
  3 91  1  0  0  0
  4  5  1  0  0  0
  4 92  1  0  0  0
  4 93  1  0  0  0
  5  6  1  0  0  0
  5 26  1  0  0  0
  5 94  1  0  0  0
  6 25  1  0  0  0
  6 95  1  0  0  0
  6 96  1  0  0  0
  7  8  2  0  0  0
  7 26  1  0  0  0
  7 29  1  0  0  0
  8  9  1  0  0  0
  8 22  1  0  0  0
  9 10  1  0  0  0
  9 27  2  0  0  0
 10 11  2  0  0  0
 10 15  1  0  0  0
 11 12  1  0  0  0
 11 97  1  0  0  0
 12 13  2  0  0  0
 12 98  1  0  0  0
 13 14  1  0  0  0
 13 31  1  0  0  0
 14 15  2  0  0  0
 14 99  1  0  0  0
 15100  1  0  0  0
 16 17  2  0  0  0
 16 21  1  0  0  0
 16 31  1  0  0  0
 17 18  1  0  0  0
 17101  1  0  0  0
 18 19  2  0  0  0
 18102  1  0  0  0
 19 20  1  0  0  0
 19 24  1  0  0  0
 20 21  2  0  0  0
 20103  1  0  0  0
 21 23  1  0  0  0
 22 28  1  0  0  0
 22 32  2  0  0  0
 26 27  1  0  0  0
 28104  1  0  0  0
 28105  1  0  0  0
 29106  1  0  0  0
 29107  1  0  0  0
 33 34  1  0  0  0
 33 66  1  0  0  0
 33 70  2  0  0  0
 34 36  1  0  0  0
 34 59  1  0  0  0
 34108  1  0  0  0
 35 44  2  0  0  0
 35 45  1  0  0  0
 35 68  1  0  0  0
 36 56  1  0  0  0
 36109  1  0  0  0
 37 39  1  0  0  0
 37 47  1  0  0  0
 37 66  1  0  0  0
 37110  1  0  0  0
 38 43  2  0  0  0
 38 46  1  0  0  0
 38 47  1  0  0  0
 39 64  1  0  0  0
 39 67  2  0  0  0
 40 52  1  0  0  0
 40 53  2  0  0  0
 40 58  1  0  0  0
 41111  1  0  0  0
 41112  1  0  0  0
 41113  1  0  0  0
 41 48  1  0  0  0
 42 43  1  0  0  0
 42 66  1  0  0  0
 42114  1  0  0  0
 42115  1  0  0  0
 43 44  1  0  0  0
 44116  1  0  0  0
 45 46  2  0  0  0
 45117  1  0  0  0
 46118  1  0  0  0
 47119  1  0  0  0
 47120  1  0  0  0
 48 56  1  0  0  0
 48 65  1  0  0  0
 48121  1  0  0  0
 49 50  1  0  0  0
 49 53  1  0  0  0
 49 64  1  0  0  0
 49122  1  0  0  0
 50 51  1  0  0  0
 50123  1  0  0  0
 50124  1  0  0  0
 51 52  1  0  0  0
 51125  1  0  0  0
 51126  1  0  0  0
 52127  1  0  0  0
 52128  1  0  0  0
 53 54  1  0  0  0
 54 55  2  0  0  0
 54129  1  0  0  0
 55 57  1  0  0  0
 55130  1  0  0  0
 56 69  2  0  0  0
 57 58  2  0  0  0
 57131  1  0  0  0
 58132  1  0  0  0
 59 60  1  0  0  0
 59 61  1  0  0  0
 59 62  1  0  0  0
 60133  1  0  0  0
 60134  1  0  0  0
 60135  1  0  0  0
 61136  1  0  0  0
 61137  1  0  0  0
 61138  1  0  0  0
 62139  1  0  0  0
 62140  1  0  0  0
 62141  1  0  0  0
 63 65  1  0  0  0
 63142  1  0  0  0
 63143  1  0  0  0
 63144  1  0  0  0
 64145  1  0  0  0
 65146  1  0  0  0
 68 76  1  0  0  0
 71 72  2  0  0  0
 71 82  1  0  0  0
 71147  1  0  0  0
 72 78  1  0  0  0
 72 80  1  0  0  0
 73 74  1  0  0  0
 73 75  1  0  0  0
 73148  1  0  0  0
 73149  1  0  0  0
 74 76  1  0  0  0
 74150  1  0  0  0
 74151  1  0  0  0
 75 82  1  0  0  0
 75152  1  0  0  0
 75153  1  0  0  0
 76154  1  0  0  0
 76155  1  0  0  0
 77 78  1  0  0  0
 77 83  1  0  0  0
 77 84  1  0  0  0
 77156  1  0  0  0
 78 79  1  0  0  0
 79 85  1  0  0  0
 79 86  1  0  0  0
 79 87  1  0  0  0
 80 81  2  0  0  0
 81 82  1  0  0  0
M  ISO  4   1 100  68 101  76 101  78 100
M  END
> <chiral flag>
0

> <version>
0

> <s_m_source_file>
/data/baiqing/PycharmProjects/Reinvent-master-3.2/result/LINK_invent/BTK/process_docking_weight1_custom_sum_contain_oxygen_bond_distance_aromatic_linkinvent_7_9_3/rearranged_h_0063.sdf

> <i_m_source_file_index>
44

> <r_mmod_Potential_Energy-OPLS-2005>
451.401977539062

> <r_mmod_Stretch_Energy-OPLS-2005>
141.21501159668

> <r_mmod_Bend_Energy-OPLS-2005>
202.183792114258

> <r_mmod_Torsional_Energy-OPLS-2005>
177.300659179688

> <r_mmod_Improper_Torsional_Energy-OPLS-2005>
3.43623018264771

> <r_mmod_Van_der_Waal_Energy-OPLS-2005>
139.246459960938

> <r_mmod_Electrostatic_Energy-OPLS-2005>
-98.4351577758789

> <r_mmod_Solvation_Energy-OPLS-2005>
-188.741287231445

> <b_mmod_Minimization_Converged-OPLS-2005>
0

> <r_mmod_RMS_Derivative-OPLS-2005>
5.52640008926392

$$$$
46
                    3D
 Structure written by MMmdl.
170178  0  0  1  0            999 V2000
  -30.6743  -14.6962   20.6186 C   0  0  0  0  0  0
  -30.4490  -12.4689   19.4721 C   0  0  0  0  0  0
  -29.5286  -12.5648   18.2357 C   0  0  0  0  0  0
  -28.0478  -12.3707   18.6266 C   0  0  0  0  0  0
  -27.6565  -13.2139   19.8691 C   0  0  2  0  0  0
  -28.6982  -13.0159   20.9881 C   0  0  0  0  0  0
  -25.2563  -13.8113   20.5721 C   0  0  0  0  0  0
  -24.1848  -13.0377   20.9293 C   0  0  0  0  0  0
  -24.6427  -11.6864   20.8768 C   0  0  0  0  0  0
  -23.9089  -10.4264   21.0459 C   0  0  0  0  0  0
  -24.3656   -9.4174   21.9216 C   0  0  0  0  0  0
  -23.6318   -8.2211   22.0797 C   0  0  0  0  0  0
  -22.4307   -8.0272   21.3555 C   0  0  0  0  0  0
  -21.9945   -9.0254   20.4652 C   0  0  0  0  0  0
  -22.7284  -10.2125   20.3061 C   0  0  0  0  0  0
  -21.6830   -6.0747   22.5281 C   0  0  0  0  0  0
  -21.3987   -6.5654   23.8209 C   0  0  0  0  0  0
  -21.3656   -5.6824   24.9177 C   0  0  0  0  0  0
  -21.6017   -4.3079   24.7243 C   0  0  0  0  0  0
  -21.8778   -3.8167   23.4358 C   0  0  0  0  0  0
  -21.9147   -4.6975   22.3409 C   0  0  0  0  0  0
  -22.7870  -13.5198   21.1939 C   0  0  0  0  0  0
  -22.1612   -4.2156   21.0993 F   0  0  0  0  0  0
  -21.5655   -3.4549   25.7743 F   0  0  0  0  0  0
  -30.0077  -13.4781   20.4784 N   0  0  0  0  0  0
  -26.2988  -12.9301   20.3246 N   0  0  0  0  0  0
  -25.9331  -11.6449   20.5676 N   0  0  0  0  0  0
  -22.0420  -12.8179   22.0434 N   0  0  0  0  0  0
  -25.4203  -15.1829   20.4148 N   0  0  0  0  0  0
  -31.7559  -14.8015   20.0298 O   0  0  0  0  0  0
  -21.6628   -6.8889   21.4247 O   0  0  0  0  0  0
  -22.3599  -14.5497   20.6779 O   0  0  0  0  0  0
  -24.6298  -31.8566   23.1964 C   0  0  0  0  0  0
  -25.9130  -32.4772   23.8318 C   0  0  1  0  0  0
  -27.2396  -27.2933   20.1348 C   0  0  0  0  0  0
  -25.5934  -33.8566   24.2255 N   0  0  0  0  0  0
  -23.4281  -30.4782   21.5393 C   0  0  2  0  0  0
  -24.8763  -28.9266   20.1129 C   0  0  0  0  0  0
  -22.7505  -29.4614   22.4896 C   0  0  0  0  0  0
  -18.0289  -28.1401   22.8464 C   0  0  0  0  0  0
  -24.1501  -36.7279   23.2636 C   0  0  0  0  0  0
  -25.9702  -30.7795   21.3733 C   0  0  0  0  0  0
  -26.0443  -29.4040   20.7185 C   0  0  0  0  0  0
  -27.2249  -28.5997   20.7207 C   0  0  0  0  0  0
  -26.0447  -26.8747   19.5009 C   0  0  0  0  0  0
  -24.8788  -27.6653   19.4960 C   0  0  0  0  0  0
  -23.6437  -29.8056   20.1574 C   0  0  0  0  0  0
  -25.4124  -36.3070   24.0332 C   0  0  1  0  0  0
  -20.5884  -28.3726   23.1252 C   0  0  2  0  0  0
  -20.6776  -26.9442   22.5396 C   0  0  0  0  0  0
  -19.5759  -26.6397   21.5201 C   0  0  0  0  0  0
  -18.1935  -26.7935   22.1608 C   0  0  0  0  0  0
  -19.1537  -28.8877   23.2855 C   0  0  0  0  0  0
  -18.9462  -30.1460   23.8903 C   0  0  0  0  0  0
  -17.6464  -30.6599   24.0555 C   0  0  0  0  0  0
  -25.9063  -34.9447   23.5095 C   0  0  0  0  0  0
  -16.5356  -29.9096   23.6316 C   0  0  0  0  0  0
  -16.7272  -28.6506   23.0345 C   0  0  0  0  0  0
  -26.4484  -31.6592   25.0710 C   0  0  0  0  0  0
  -25.3694  -31.3752   26.1436 C   0  0  0  0  0  0
  -27.0324  -30.3009   24.6196 C   0  0  0  0  0  0
  -27.6066  -32.4314   25.7468 C   0  0  0  0  0  0
  -27.5579  -37.1788   24.8460 C   0  0  0  0  0  0
  -21.4206  -29.3060   22.3633 N   0  0  0  0  0  0
  -26.4291  -37.3768   23.9408 N   0  0  0  0  0  0
  -24.6950  -31.0569   22.0917 N   0  0  0  0  0  0
  -23.4201  -28.8149   23.2997 O   0  0  0  0  0  0
  -28.3578  -26.4361   20.2071 O   0  0  0  0  0  0
  -26.5634  -34.8917   22.4665 O   0  0  0  0  0  0
  -23.5454  -32.1358   23.7281 O   0  0  0  0  0  0
  -29.3735  -19.1176   19.3404 C   0  0  0  0  0  0
  -29.8213  -19.7345   20.4823 C   0  0  0  0  0  0
  -30.0512  -17.4237   20.6834 C   0  0  0  0  0  0
  -27.1849  -15.8669   17.0375 C   0  0  0  0  0  0
  -31.4513  -16.2420   22.4173 C   0  0  0  0  0  0
  -29.9476  -21.2393   20.8861 C   0  0  0  0  0  0
  -27.6351  -16.9161   18.0588 C   0  0  0  0  0  0
  -28.9412  -22.3354   20.2824 C   0  0  0  0  0  0
  -29.2215  -23.8988   20.5559 C   0  0  0  0  0  0
  -29.1248  -16.7990   18.4190 C   0  0  0  0  0  0
  -28.9822  -15.7930   22.3500 C   0  0  0  0  0  0
  -28.1773  -24.9727   19.9820 C   0  0  0  0  0  0
  -30.2416  -16.0343   21.4570 C   0  0  1  0  0  0
  -29.5125  -17.7419   19.4781 N   0  0  0  0  0  0
  -30.2733  -18.6540   21.2443 N   0  3  0  0  0  0
  -28.5571  -16.8894   23.2536 N   0  3  0  0  0  0
  -31.4883  -12.6017   19.1675 H   0  0  0  0  0  0
  -30.4211  -11.4617   19.8917 H   0  0  0  0  0  0
  -29.8245  -11.8242   17.4905 H   0  0  0  0  0  0
  -29.6651  -13.5446   17.7730 H   0  0  0  0  0  0
  -27.8963  -11.3119   18.8422 H   0  0  0  0  0  0
  -27.3971  -12.6001   17.7815 H   0  0  0  0  0  0
  -27.6858  -14.2642   19.5842 H   0  0  0  0  0  0
  -28.7516  -11.9557   21.2404 H   0  0  0  0  0  0
  -28.3581  -13.4351   21.9211 H   0  0  0  0  0  0
  -25.2834   -9.5658   22.4777 H   0  0  0  0  0  0
  -23.9997   -7.4634   22.7583 H   0  0  0  0  0  0
  -21.0830   -8.8824   19.9011 H   0  0  0  0  0  0
  -22.3816  -10.9675   19.6147 H   0  0  0  0  0  0
  -21.1984   -7.6169   23.9700 H   0  0  0  0  0  0
  -21.1558   -6.0589   25.9073 H   0  0  0  0  0  0
  -22.0589   -2.7634   23.2878 H   0  0  0  0  0  0
  -22.3973  -11.9897   22.4982 H   0  0  0  0  0  0
  -21.0939  -13.1151   22.2312 H   0  0  0  0  0  0
  -26.1276  -15.5726   19.8064 H   0  0  0  0  0  0
  -24.5952  -15.7723   20.4606 H   0  0  0  0  0  0
  -26.7202  -32.5426   23.1073 H   0  0  0  0  0  0
  -25.0106  -33.9697   25.0416 H   0  0  0  0  0  0
  -22.7267  -31.3017   21.3896 H   0  0  0  0  0  0
  -23.3764  -35.9607   23.3303 H   0  0  0  0  0  0
  -24.3583  -36.8884   22.2040 H   0  0  0  0  0  0
  -23.7247  -37.6485   23.6653 H   0  0  0  0  0  0
  -26.1088  -31.5367   20.6001 H   0  0  0  0  0  0
  -26.8508  -30.8306   22.0003 H   0  0  0  0  0  0
  -28.1151  -28.9600   21.2168 H   0  0  0  0  0  0
  -25.9832  -25.9117   19.0183 H   0  0  0  0  0  0
  -23.9821  -27.2866   19.0242 H   0  0  0  0  0  0
  -23.7589  -30.5784   19.3977 H   0  0  0  0  0  0
  -22.7671  -29.2277   19.8589 H   0  0  0  0  0  0
  -25.1293  -36.1919   25.0819 H   0  0  0  0  0  0
  -20.9969  -28.3311   24.1377 H   0  0  0  0  0  0
  -20.5668  -26.2345   23.3603 H   0  0  0  0  0  0
  -21.6646  -26.7458   22.1198 H   0  0  0  0  0  0
  -19.6934  -25.6299   21.1239 H   0  0  0  0  0  0
  -19.6700  -27.3197   20.6723 H   0  0  0  0  0  0
  -17.4193  -26.6661   21.4017 H   0  0  0  0  0  0
  -18.0357  -26.0095   22.9028 H   0  0  0  0  0  0
  -19.7944  -30.7250   24.2306 H   0  0  0  0  0  0
  -17.5029  -31.6286   24.5152 H   0  0  0  0  0  0
  -15.5356  -30.3010   23.7653 H   0  0  0  0  0  0
  -15.8666  -28.0830   22.7081 H   0  0  0  0  0  0
  -24.5885  -30.7094   25.7749 H   0  0  0  0  0  0
  -24.8871  -32.2924   26.4820 H   0  0  0  0  0  0
  -25.7991  -30.8940   27.0236 H   0  0  0  0  0  0
  -26.2909  -29.6780   24.1198 H   0  0  0  0  0  0
  -27.3974  -29.7262   25.4720 H   0  0  0  0  0  0
  -27.8800  -30.4290   23.9469 H   0  0  0  0  0  0
  -27.2719  -33.3631   26.2054 H   0  0  0  0  0  0
  -28.3875  -32.6853   25.0280 H   0  0  0  0  0  0
  -28.0769  -31.8435   26.5365 H   0  0  0  0  0  0
  -28.2592  -38.0089   24.7502 H   0  0  0  0  0  0
  -28.1083  -36.2612   24.6300 H   0  0  0  0  0  0
  -27.2301  -37.1453   25.8866 H   0  0  0  0  0  0
  -20.9415  -29.8760   21.6799 H   0  0  0  0  0  0
  -26.0175  -38.2844   24.1410 H   0  0  0  0  0  0
  -28.9687  -19.5607   18.4403 H   0  0  0  0  0  0
  -26.1094  -15.9259   16.8642 H   0  0  0  0  0  0
  -27.4064  -14.8597   17.3789 H   0  0  0  0  0  0
  -27.6892  -16.0048   16.0809 H   0  0  0  0  0  0
  -31.2979  -17.0381   23.1445 H   0  0  0  0  0  0
  -32.3482  -16.5197   21.8604 H   0  0  0  0  0  0
  -31.6955  -15.3371   22.9776 H   0  0  0  0  0  0
  -30.9651  -21.5417   20.6335 H   0  0  0  0  0  0
  -29.8958  -21.2902   21.9748 H   0  0  0  0  0  0
  -27.0329  -16.8316   18.9620 H   0  0  0  0  0  0
  -27.4337  -17.9046   17.6481 H   0  0  0  0  0  0
  -27.9399  -22.1032   20.6483 H   0  0  0  0  0  0
  -28.8914  -22.1950   19.2028 H   0  0  0  0  0  0
  -30.2138  -24.1345   20.1701 H   0  0  0  0  0  0
  -29.2972  -24.0521   21.6341 H   0  0  0  0  0  0
  -29.7401  -17.0235   17.5469 H   0  0  0  0  0  0
  -29.3649  -15.7874   18.7161 H   0  0  0  0  0  0
  -29.1705  -14.9468   23.0124 H   0  0  0  0  0  0
  -28.1205  -15.5785   21.7191 H   0  0  0  0  0  0
  -27.2128  -24.6790   20.3966 H   0  0  0  0  0  0
  -28.1092  -24.8225   18.9024 H   0  0  0  0  0  0
  -30.7689  -18.7852   22.1203 H   0  0  0  0  0  0
  -28.3754  -17.7522   22.7727 H   0  0  0  0  0  0
  -29.2143  -17.0404   23.9986 H   0  0  0  0  0  0
  -27.6906  -16.6254   23.6931 H   0  0  0  0  0  0
  1 25  1  0  0  0
  1 30  2  0  0  0
  1 83  1  0  0  0
  2  3  1  0  0  0
  2 25  1  0  0  0
  2 87  1  0  0  0
  2 88  1  0  0  0
  3  4  1  0  0  0
  3 89  1  0  0  0
  3 90  1  0  0  0
  4  5  1  0  0  0
  4 91  1  0  0  0
  4 92  1  0  0  0
  5  6  1  0  0  0
  5 26  1  0  0  0
  5 93  1  0  0  0
  6 25  1  0  0  0
  6 94  1  0  0  0
  6 95  1  0  0  0
  7  8  2  0  0  0
  7 26  1  0  0  0
  7 29  1  0  0  0
  8  9  1  0  0  0
  8 22  1  0  0  0
  9 10  1  0  0  0
  9 27  2  0  0  0
 10 11  2  0  0  0
 10 15  1  0  0  0
 11 12  1  0  0  0
 11 96  1  0  0  0
 12 13  2  0  0  0
 12 97  1  0  0  0
 13 14  1  0  0  0
 13 31  1  0  0  0
 14 15  2  0  0  0
 14 98  1  0  0  0
 15 99  1  0  0  0
 16 17  2  0  0  0
 16 21  1  0  0  0
 16 31  1  0  0  0
 17 18  1  0  0  0
 17100  1  0  0  0
 18 19  2  0  0  0
 18101  1  0  0  0
 19 20  1  0  0  0
 19 24  1  0  0  0
 20 21  2  0  0  0
 20102  1  0  0  0
 21 23  1  0  0  0
 22 28  1  0  0  0
 22 32  2  0  0  0
 26 27  1  0  0  0
 28103  1  0  0  0
 28104  1  0  0  0
 29105  1  0  0  0
 29106  1  0  0  0
 33 34  1  0  0  0
 33 66  1  0  0  0
 33 70  2  0  0  0
 34 36  1  0  0  0
 34 59  1  0  0  0
 34107  1  0  0  0
 35 44  2  0  0  0
 35 45  1  0  0  0
 35 68  1  0  0  0
 36 56  1  0  0  0
 36108  1  0  0  0
 37 39  1  0  0  0
 37 47  1  0  0  0
 37 66  1  0  0  0
 37109  1  0  0  0
 38 43  2  0  0  0
 38 46  1  0  0  0
 38 47  1  0  0  0
 39 64  1  0  0  0
 39 67  2  0  0  0
 40 52  1  0  0  0
 40 53  2  0  0  0
 40 58  1  0  0  0
 41110  1  0  0  0
 41111  1  0  0  0
 41112  1  0  0  0
 41 48  1  0  0  0
 42 43  1  0  0  0
 42 66  1  0  0  0
 42113  1  0  0  0
 42114  1  0  0  0
 43 44  1  0  0  0
 44115  1  0  0  0
 45 46  2  0  0  0
 45116  1  0  0  0
 46117  1  0  0  0
 47118  1  0  0  0
 47119  1  0  0  0
 48 56  1  0  0  0
 48 65  1  0  0  0
 48120  1  0  0  0
 49 50  1  0  0  0
 49 53  1  0  0  0
 49 64  1  0  0  0
 49121  1  0  0  0
 50 51  1  0  0  0
 50122  1  0  0  0
 50123  1  0  0  0
 51 52  1  0  0  0
 51124  1  0  0  0
 51125  1  0  0  0
 52126  1  0  0  0
 52127  1  0  0  0
 53 54  1  0  0  0
 54 55  2  0  0  0
 54128  1  0  0  0
 55 57  1  0  0  0
 55129  1  0  0  0
 56 69  2  0  0  0
 57 58  2  0  0  0
 57130  1  0  0  0
 58131  1  0  0  0
 59 60  1  0  0  0
 59 61  1  0  0  0
 59 62  1  0  0  0
 60132  1  0  0  0
 60133  1  0  0  0
 60134  1  0  0  0
 61135  1  0  0  0
 61136  1  0  0  0
 61137  1  0  0  0
 62138  1  0  0  0
 62139  1  0  0  0
 62140  1  0  0  0
 63 65  1  0  0  0
 63141  1  0  0  0
 63142  1  0  0  0
 63143  1  0  0  0
 64144  1  0  0  0
 65145  1  0  0  0
 68 82  1  0  0  0
 71 72  2  0  0  0
 71 84  1  0  0  0
 71146  1  0  0  0
 72 76  1  0  0  0
 72 85  1  0  0  0
 73 83  1  0  0  0
 73 84  1  0  0  0
 73 85  2  0  0  0
 74 77  1  0  0  0
 74147  1  0  0  0
 74148  1  0  0  0
 74149  1  0  0  0
 75150  1  0  0  0
 75151  1  0  0  0
 75152  1  0  0  0
 75 83  1  0  0  0
 76 78  1  0  0  0
 76153  1  0  0  0
 76154  1  0  0  0
 77 80  1  0  0  0
 77155  1  0  0  0
 77156  1  0  0  0
 78 79  1  0  0  0
 78157  1  0  0  0
 78158  1  0  0  0
 79 82  1  0  0  0
 79159  1  0  0  0
 79160  1  0  0  0
 80 84  1  0  0  0
 80161  1  0  0  0
 80162  1  0  0  0
 81 83  1  0  0  0
 81 86  1  0  0  0
 81163  1  0  0  0
 81164  1  0  0  0
 82165  1  0  0  0
 82166  1  0  0  0
 85167  1  0  0  0
 86168  1  0  0  0
 86169  1  0  0  0
 86170  1  0  0  0
M  CHG  2  85   1  86   1
M  ISO  4   1 100  68 101  82 101  83 100
M  END
> <chiral flag>
0

> <version>
0

> <s_m_source_file>
/data/baiqing/PycharmProjects/Reinvent-master-3.2/result/LINK_invent/BTK/process_docking_weight1_custom_sum_contain_oxygen_bond_distance_aromatic_linkinvent_7_9_3/rearranged_h_0063.sdf

> <i_m_source_file_index>
45

> <r_mmod_Potential_Energy-OPLS-2005>
-44.8326950073242

> <r_mmod_Stretch_Energy-OPLS-2005>
125.023635864258

> <r_mmod_Bend_Energy-OPLS-2005>
197.899536132812

> <r_mmod_Torsional_Energy-OPLS-2005>
231.771575927734

> <r_mmod_Improper_Torsional_Energy-OPLS-2005>
4.90081691741943

> <r_mmod_Van_der_Waal_Energy-OPLS-2005>
123.398704528809

> <r_mmod_Electrostatic_Energy-OPLS-2005>
204.76985168457

> <r_mmod_Solvation_Energy-OPLS-2005>
-992.500244140625

> <b_mmod_Minimization_Converged-OPLS-2005>
0

> <r_mmod_RMS_Derivative-OPLS-2005>
4.90538120269775

$$$$
47
                    3D
 Structure written by MMmdl.
169177  0  0  1  0            999 V2000
  -30.6335  -14.5603   20.4475 C   0  0  0  0  0  0
  -30.4858  -12.3564   19.3623 C   0  0  0  0  0  0
  -29.5064  -12.3665   18.1718 C   0  0  0  0  0  0
  -28.0356  -12.2443   18.6361 C   0  0  0  0  0  0
  -27.6618  -13.1546   19.8325 C   0  0  2  0  0  0
  -28.7223  -12.9298   20.9325 C   0  0  0  0  0  0
  -25.2684  -13.7865   20.5489 C   0  0  0  0  0  0
  -24.1977  -13.0239   20.9106 C   0  0  0  0  0  0
  -24.6440  -11.6655   20.8675 C   0  0  0  0  0  0
  -23.9003  -10.4109   21.0347 C   0  0  0  0  0  0
  -24.3502   -9.4030   21.9183 C   0  0  0  0  0  0
  -23.6184   -8.2080   22.0737 C   0  0  0  0  0  0
  -22.4205   -8.0120   21.3482 C   0  0  0  0  0  0
  -21.9811   -9.0097   20.4610 C   0  0  0  0  0  0
  -22.7127  -10.1985   20.3006 C   0  0  0  0  0  0
  -21.6818   -6.0639   22.5287 C   0  0  0  0  0  0
  -21.4016   -6.5574   23.8201 C   0  0  0  0  0  0
  -21.3650   -5.6740   24.9189 C   0  0  0  0  0  0
  -21.6015   -4.3003   24.7252 C   0  0  0  0  0  0
  -21.8791   -3.8074   23.4392 C   0  0  0  0  0  0
  -21.9153   -4.6877   22.3424 C   0  0  0  0  0  0
  -22.8043  -13.5074   21.1875 C   0  0  0  0  0  0
  -22.1634   -4.2035   21.1020 F   0  0  0  0  0  0
  -21.5585   -3.4496   25.7798 F   0  0  0  0  0  0
  -29.9991  -13.3557   20.3389 N   0  0  0  0  0  0
  -26.3051  -12.8992   20.3072 N   0  0  0  0  0  0
  -25.9362  -11.6202   20.5703 N   0  0  0  0  0  0
  -22.0611  -12.8195   22.0396 N   0  0  0  0  0  0
  -25.4388  -15.1629   20.3894 N   0  0  0  0  0  0
  -31.8437  -14.6119   20.2168 O   0  0  0  0  0  0
  -21.6556   -6.8771   21.4222 O   0  0  0  0  0  0
  -22.3818  -14.5459   20.6779 O   0  0  0  0  0  0
  -24.6137  -31.8661   23.2149 C   0  0  0  0  0  0
  -25.9020  -32.4841   23.8402 C   0  0  1  0  0  0
  -27.2209  -27.4632   20.0976 C   0  0  0  0  0  0
  -25.5919  -33.8648   24.2364 N   0  0  0  0  0  0
  -23.3980  -30.4952   21.5479 C   0  0  2  0  0  0
  -24.8430  -28.9737   20.1062 C   0  0  0  0  0  0
  -22.7389  -29.4636   22.4918 C   0  0  0  0  0  0
  -18.0264  -28.1407   22.8480 C   0  0  0  0  0  0
  -24.1467  -36.7310   23.2632 C   0  0  0  0  0  0
  -25.9258  -30.8440   21.3587 C   0  0  0  0  0  0
  -25.9989  -29.4798   20.7141 C   0  0  0  0  0  0
  -27.1933  -28.7317   20.7107 C   0  0  0  0  0  0
  -26.0587  -26.9652   19.4736 C   0  0  0  0  0  0
  -24.8671  -27.7120   19.4894 C   0  0  0  0  0  0
  -23.6019  -29.8350   20.1594 C   0  0  0  0  0  0
  -25.4092  -36.3132   24.0323 C   0  0  1  0  0  0
  -20.5856  -28.3667   23.1341 C   0  0  2  0  0  0
  -20.6775  -26.9401   22.5427 C   0  0  0  0  0  0
  -19.5765  -26.6388   21.5239 C   0  0  0  0  0  0
  -18.1917  -26.7936   22.1612 C   0  0  0  0  0  0
  -19.1502  -28.8851   23.2917 C   0  0  0  0  0  0
  -18.9427  -30.1456   23.8932 C   0  0  0  0  0  0
  -17.6442  -30.6605   24.0578 C   0  0  0  0  0  0
  -25.9023  -34.9490   23.5124 C   0  0  0  0  0  0
  -16.5339  -29.9099   23.6365 C   0  0  0  0  0  0
  -16.7240  -28.6524   23.0341 C   0  0  0  0  0  0
  -26.4453  -31.6640   25.0737 C   0  0  0  0  0  0
  -25.3698  -31.3721   26.1505 C   0  0  0  0  0  0
  -27.0272  -30.3099   24.6062 C   0  0  0  0  0  0
  -27.6082  -32.4325   25.7450 C   0  0  0  0  0  0
  -27.5576  -37.1811   24.8451 C   0  0  0  0  0  0
  -21.4101  -29.3031   22.3707 N   0  0  0  0  0  0
  -26.4296  -37.3809   23.9379 N   0  0  0  0  0  0
  -24.6645  -31.0822   22.0996 N   0  0  0  0  0  0
  -23.4196  -28.8137   23.2887 O   0  0  0  0  0  0
  -28.3477  -26.6895   20.1510 O   0  0  0  0  0  0
  -26.5549  -34.8933   22.4680 O   0  0  0  0  0  0
  -23.5336  -32.1330   23.7601 O   0  0  0  0  0  0
  -29.6317  -19.7507   20.7553 C   0  0  0  0  0  0
  -30.5995  -18.7300   21.0050 C   0  0  0  0  0  0
  -29.1293  -20.0657   21.9897 C   0  0  0  0  0  0
  -32.7002  -17.3815   20.5805 C   0  0  0  0  0  0
  -31.7989  -18.8312   18.8147 C   0  0  0  0  0  0
  -29.5234  -19.0953   24.3095 C   0  0  0  0  0  0
  -28.6264  -16.1066   20.8766 C   0  0  0  0  0  0
  -27.9945  -24.3653   20.8183 C   0  0  0  0  0  0
  -27.9818  -23.3369   21.9658 C   0  0  0  0  0  0
  -30.4364  -16.7889   19.3557 C   0  0  0  0  0  0
  -28.3426  -25.7935   21.2679 C   0  0  0  0  0  0
  -27.7121  -21.9107   21.4500 C   0  0  0  0  0  0
  -31.3621  -17.9028   19.9756 C   0  0  0  0  0  0
  -30.6663  -18.4355   22.3016 N   0  0  0  0  0  0
  -29.7456  -19.2309   22.8930 N   0  0  0  0  0  0
  -29.9005  -15.7069   20.2374 N   0  0  0  0  0  0
  -28.1863  -20.9550   22.4046 O   0  0  0  0  0  0
  -31.5012  -12.5224   18.9792 H   0  0  0  0  0  0
  -30.5341  -11.3717   19.8302 H   0  0  0  0  0  0
  -29.7457  -11.5199   17.5261 H   0  0  0  0  0  0
  -29.6357  -13.2461   17.5414 H   0  0  0  0  0  0
  -27.9004  -11.2051   18.9473 H   0  0  0  0  0  0
  -27.3622  -12.4057   17.7948 H   0  0  0  0  0  0
  -27.6855  -14.1752   19.4512 H   0  0  0  0  0  0
  -28.7445  -11.8595   21.1710 H   0  0  0  0  0  0
  -28.5134  -13.4054   21.8857 H   0  0  0  0  0  0
  -25.2547   -9.5524   22.4899 H   0  0  0  0  0  0
  -23.9756   -7.4469   22.7547 H   0  0  0  0  0  0
  -21.0655   -8.8600   19.9037 H   0  0  0  0  0  0
  -22.3451  -10.9545   19.6191 H   0  0  0  0  0  0
  -21.2079   -7.6090   23.9674 H   0  0  0  0  0  0
  -21.1526   -6.0527   25.9083 H   0  0  0  0  0  0
  -22.0616   -2.7527   23.2949 H   0  0  0  0  0  0
  -22.4079  -11.9844   22.4928 H   0  0  0  0  0  0
  -21.1283  -13.1507   22.2442 H   0  0  0  0  0  0
  -24.6705  -15.8146   20.5052 H   0  0  0  0  0  0
  -26.2877  -15.6098   20.0720 H   0  0  0  0  0  0
  -26.7111  -32.5502   23.1174 H   0  0  0  0  0  0
  -25.0173  -33.9825   25.0580 H   0  0  0  0  0  0
  -22.6900  -31.3160   21.4146 H   0  0  0  0  0  0
  -23.3738  -35.9642   23.3303 H   0  0  0  0  0  0
  -24.3585  -36.8899   22.2056 H   0  0  0  0  0  0
  -23.7226  -37.6510   23.6649 H   0  0  0  0  0  0
  -26.0313  -31.6071   20.5859 H   0  0  0  0  0  0
  -26.8294  -30.9065   21.9547 H   0  0  0  0  0  0
  -28.0844  -29.1149   21.1877 H   0  0  0  0  0  0
  -26.0739  -25.9991   18.9882 H   0  0  0  0  0  0
  -23.9736  -27.3180   19.0263 H   0  0  0  0  0  0
  -23.6986  -30.6203   19.4074 H   0  0  0  0  0  0
  -22.7313  -29.2412   19.8665 H   0  0  0  0  0  0
  -25.1263  -36.2018   25.0812 H   0  0  0  0  0  0
  -20.9964  -28.3247   24.1459 H   0  0  0  0  0  0
  -20.5762  -26.2220   23.3569 H   0  0  0  0  0  0
  -21.6629  -26.7466   22.1176 H   0  0  0  0  0  0
  -19.6919  -25.6304   21.1254 H   0  0  0  0  0  0
  -19.6795  -27.3240   20.6817 H   0  0  0  0  0  0
  -17.4198  -26.6739   21.3985 H   0  0  0  0  0  0
  -18.0286  -26.0083   22.9008 H   0  0  0  0  0  0
  -19.7908  -30.7265   24.2319 H   0  0  0  0  0  0
  -17.4990  -31.6303   24.5150 H   0  0  0  0  0  0
  -15.5354  -30.3011   23.7683 H   0  0  0  0  0  0
  -15.8631  -28.0886   22.7035 H   0  0  0  0  0  0
  -24.5929  -30.6993   25.7854 H   0  0  0  0  0  0
  -24.8791  -32.2848   26.4919 H   0  0  0  0  0  0
  -25.8059  -30.8946   27.0293 H   0  0  0  0  0  0
  -26.2800  -29.6917   24.1092 H   0  0  0  0  0  0
  -27.4029  -29.7333   25.4516 H   0  0  0  0  0  0
  -27.8635  -30.4446   23.9202 H   0  0  0  0  0  0
  -27.2807  -33.3660   26.2030 H   0  0  0  0  0  0
  -28.3907  -32.6829   25.0272 H   0  0  0  0  0  0
  -28.0724  -31.8385   26.5322 H   0  0  0  0  0  0
  -28.2612  -38.0098   24.7518 H   0  0  0  0  0  0
  -28.1065  -36.2636   24.6269 H   0  0  0  0  0  0
  -27.2272  -37.1434   25.8850 H   0  0  0  0  0  0
  -20.9209  -29.8729   21.6952 H   0  0  0  0  0  0
  -26.0174  -38.2863   24.1465 H   0  0  0  0  0  0
  -29.3317  -20.1514   19.8008 H   0  0  0  0  0  0
  -33.3161  -18.2073   20.9418 H   0  0  0  0  0  0
  -33.2980  -16.8493   19.8368 H   0  0  0  0  0  0
  -32.5599  -16.7133   21.4335 H   0  0  0  0  0  0
  -32.4715  -19.6121   19.1809 H   0  0  0  0  0  0
  -30.9603  -19.3259   18.3144 H   0  0  0  0  0  0
  -32.3392  -18.2613   18.0517 H   0  0  0  0  0  0
  -28.9017  -19.9110   24.6804 H   0  0  0  0  0  0
  -30.4898  -19.1060   24.8055 H   0  0  0  0  0  0
  -29.0240  -18.1456   24.4984 H   0  0  0  0  0  0
  -28.1613  -15.3586   21.5012 H   0  0  0  0  0  0
  -27.8712  -16.4387   20.1574 H   0  0  0  0  0  0
  -28.7880  -16.9298   21.5607 H   0  0  0  0  0  0
  -27.0237  -24.3515   20.3211 H   0  0  0  0  0  0
  -28.7291  -24.0420   20.0804 H   0  0  0  0  0  0
  -27.2165  -23.5973   22.6974 H   0  0  0  0  0  0
  -28.9362  -23.3677   22.4951 H   0  0  0  0  0  0
  -30.9551  -16.3413   18.5052 H   0  0  0  0  0  0
  -29.5832  -17.2870   18.8896 H   0  0  0  0  0  0
  -29.3340  -25.8066   21.7206 H   0  0  0  0  0  0
  -27.6506  -26.1226   22.0461 H   0  0  0  0  0  0
  -28.1585  -21.7940   20.4641 H   0  0  0  0  0  0
  -26.6372  -21.7719   21.3056 H   0  0  0  0  0  0
  1 25  1  0  0  0
  1 30  2  0  0  0
  1 86  1  0  0  0
  2  3  1  0  0  0
  2 25  1  0  0  0
  2 88  1  0  0  0
  2 89  1  0  0  0
  3  4  1  0  0  0
  3 90  1  0  0  0
  3 91  1  0  0  0
  4  5  1  0  0  0
  4 92  1  0  0  0
  4 93  1  0  0  0
  5  6  1  0  0  0
  5 26  1  0  0  0
  5 94  1  0  0  0
  6 25  1  0  0  0
  6 95  1  0  0  0
  6 96  1  0  0  0
  7  8  2  0  0  0
  7 26  1  0  0  0
  7 29  1  0  0  0
  8  9  1  0  0  0
  8 22  1  0  0  0
  9 10  1  0  0  0
  9 27  2  0  0  0
 10 11  2  0  0  0
 10 15  1  0  0  0
 11 12  1  0  0  0
 11 97  1  0  0  0
 12 13  2  0  0  0
 12 98  1  0  0  0
 13 14  1  0  0  0
 13 31  1  0  0  0
 14 15  2  0  0  0
 14 99  1  0  0  0
 15100  1  0  0  0
 16 17  2  0  0  0
 16 21  1  0  0  0
 16 31  1  0  0  0
 17 18  1  0  0  0
 17101  1  0  0  0
 18 19  2  0  0  0
 18102  1  0  0  0
 19 20  1  0  0  0
 19 24  1  0  0  0
 20 21  2  0  0  0
 20103  1  0  0  0
 21 23  1  0  0  0
 22 28  1  0  0  0
 22 32  2  0  0  0
 26 27  1  0  0  0
 28104  1  0  0  0
 28105  1  0  0  0
 29106  1  0  0  0
 29107  1  0  0  0
 33 34  1  0  0  0
 33 66  1  0  0  0
 33 70  2  0  0  0
 34 36  1  0  0  0
 34 59  1  0  0  0
 34108  1  0  0  0
 35 44  2  0  0  0
 35 45  1  0  0  0
 35 68  1  0  0  0
 36 56  1  0  0  0
 36109  1  0  0  0
 37 39  1  0  0  0
 37 47  1  0  0  0
 37 66  1  0  0  0
 37110  1  0  0  0
 38 43  2  0  0  0
 38 46  1  0  0  0
 38 47  1  0  0  0
 39 64  1  0  0  0
 39 67  2  0  0  0
 40 52  1  0  0  0
 40 53  2  0  0  0
 40 58  1  0  0  0
 41111  1  0  0  0
 41112  1  0  0  0
 41113  1  0  0  0
 41 48  1  0  0  0
 42 43  1  0  0  0
 42 66  1  0  0  0
 42114  1  0  0  0
 42115  1  0  0  0
 43 44  1  0  0  0
 44116  1  0  0  0
 45 46  2  0  0  0
 45117  1  0  0  0
 46118  1  0  0  0
 47119  1  0  0  0
 47120  1  0  0  0
 48 56  1  0  0  0
 48 65  1  0  0  0
 48121  1  0  0  0
 49 50  1  0  0  0
 49 53  1  0  0  0
 49 64  1  0  0  0
 49122  1  0  0  0
 50 51  1  0  0  0
 50123  1  0  0  0
 50124  1  0  0  0
 51 52  1  0  0  0
 51125  1  0  0  0
 51126  1  0  0  0
 52127  1  0  0  0
 52128  1  0  0  0
 53 54  1  0  0  0
 54 55  2  0  0  0
 54129  1  0  0  0
 55 57  1  0  0  0
 55130  1  0  0  0
 56 69  2  0  0  0
 57 58  2  0  0  0
 57131  1  0  0  0
 58132  1  0  0  0
 59 60  1  0  0  0
 59 61  1  0  0  0
 59 62  1  0  0  0
 60133  1  0  0  0
 60134  1  0  0  0
 60135  1  0  0  0
 61136  1  0  0  0
 61137  1  0  0  0
 61138  1  0  0  0
 62139  1  0  0  0
 62140  1  0  0  0
 62141  1  0  0  0
 63 65  1  0  0  0
 63142  1  0  0  0
 63143  1  0  0  0
 63144  1  0  0  0
 64145  1  0  0  0
 65146  1  0  0  0
 68 81  1  0  0  0
 71 72  1  0  0  0
 71 73  2  0  0  0
 71147  1  0  0  0
 72 83  1  0  0  0
 72 84  2  0  0  0
 73 85  1  0  0  0
 73 87  1  0  0  0
 74148  1  0  0  0
 74149  1  0  0  0
 74150  1  0  0  0
 74 83  1  0  0  0
 75 83  1  0  0  0
 75151  1  0  0  0
 75152  1  0  0  0
 75153  1  0  0  0
 76 85  1  0  0  0
 76154  1  0  0  0
 76155  1  0  0  0
 76156  1  0  0  0
 77 86  1  0  0  0
 77157  1  0  0  0
 77158  1  0  0  0
 77159  1  0  0  0
 78 79  1  0  0  0
 78 81  1  0  0  0
 78160  1  0  0  0
 78161  1  0  0  0
 79 82  1  0  0  0
 79162  1  0  0  0
 79163  1  0  0  0
 80 83  1  0  0  0
 80 86  1  0  0  0
 80164  1  0  0  0
 80165  1  0  0  0
 81166  1  0  0  0
 81167  1  0  0  0
 82 87  1  0  0  0
 82168  1  0  0  0
 82169  1  0  0  0
 84 85  1  0  0  0
M  ISO  4   1 100  68 101  81 101  86 100
M  END
> <chiral flag>
0

> <version>
0

> <s_m_source_file>
/data/baiqing/PycharmProjects/Reinvent-master-3.2/result/LINK_invent/BTK/process_docking_weight1_custom_sum_contain_oxygen_bond_distance_aromatic_linkinvent_7_9_3/rearranged_h_0063.sdf

> <i_m_source_file_index>
46

> <r_mmod_Potential_Energy-OPLS-2005>
115.461334228516

> <r_mmod_Stretch_Energy-OPLS-2005>
46.1711883544922

> <r_mmod_Bend_Energy-OPLS-2005>
136.771392822266

> <r_mmod_Torsional_Energy-OPLS-2005>
305.549072265625

> <r_mmod_Improper_Torsional_Energy-OPLS-2005>
20.4274845123291

> <r_mmod_Van_der_Waal_Energy-OPLS-2005>
149.479400634766

> <r_mmod_Electrostatic_Energy-OPLS-2005>
-386.890075683594

> <r_mmod_Solvation_Energy-OPLS-2005>
-191.8671875

> <b_mmod_Minimization_Converged-OPLS-2005>
0

> <r_mmod_RMS_Derivative-OPLS-2005>
11.5604696273804

$$$$
48
                    3D
 Structure written by MMmdl.
160168  0  0  1  0            999 V2000
  -30.4059  -15.3227   20.4045 C   0  0  0  0  0  0
  -30.4474  -12.8497   19.5296 C   0  0  0  0  0  0
  -29.5420  -12.6192   18.2892 C   0  0  0  0  0  0
  -28.0886  -12.3235   18.7032 C   0  0  0  0  0  0
  -27.6181  -13.2752   19.8292 C   0  0  2  0  0  0
  -28.6589  -13.3967   20.9631 C   0  0  0  0  0  0
  -25.2355  -13.8184   20.5677 C   0  0  0  0  0  0
  -24.1740  -13.0371   20.9222 C   0  0  0  0  0  0
  -24.6439  -11.6893   20.8751 C   0  0  0  0  0  0
  -23.9130  -10.4261   21.0394 C   0  0  0  0  0  0
  -24.3668   -9.4184   21.9183 C   0  0  0  0  0  0
  -23.6325   -8.2225   22.0757 C   0  0  0  0  0  0
  -22.4298   -8.0276   21.3548 C   0  0  0  0  0  0
  -21.9952   -9.0250   20.4643 C   0  0  0  0  0  0
  -22.7297  -10.2114   20.3049 C   0  0  0  0  0  0
  -21.6857   -6.0736   22.5293 C   0  0  0  0  0  0
  -21.4005   -6.5638   23.8219 C   0  0  0  0  0  0
  -21.3671   -5.6797   24.9187 C   0  0  0  0  0  0
  -21.6049   -4.3057   24.7238 C   0  0  0  0  0  0
  -21.8822   -3.8148   23.4359 C   0  0  0  0  0  0
  -21.9195   -4.6965   22.3417 C   0  0  0  0  0  0
  -22.7758  -13.5130   21.1881 C   0  0  0  0  0  0
  -22.1666   -4.2152   21.0988 F   0  0  0  0  0  0
  -21.5634   -3.4546   25.7744 F   0  0  0  0  0  0
  -29.8821  -13.9805   20.3700 N   0  0  0  0  0  0
  -26.2848  -12.9514   20.3207 N   0  0  0  0  0  0
  -25.9380  -11.6611   20.5714 N   0  0  0  0  0  0
  -22.0448  -12.8109   22.0452 N   0  0  0  0  0  0
  -25.3791  -15.1901   20.4024 N   0  0  0  0  0  0
  -31.5906  -15.3146   20.0283 O   0  0  0  0  0  0
  -21.6645   -6.8882   21.4249 O   0  0  0  0  0  0
  -22.3426  -14.5439   20.6741 O   0  0  0  0  0  0
  -24.6623  -31.8216   23.1707 C   0  0  0  0  0  0
  -25.9304  -32.4589   23.8176 C   0  0  1  0  0  0
  -27.2367  -26.9242   20.1814 C   0  0  0  0  0  0
  -25.5967  -33.8409   24.2074 N   0  0  0  0  0  0
  -23.4805  -30.4301   21.5194 C   0  0  2  0  0  0
  -24.9384  -28.8104   20.1142 C   0  0  0  0  0  0
  -22.7669  -29.4429   22.4793 C   0  0  0  0  0  0
  -18.0313  -28.1401   22.8451 C   0  0  0  0  0  0
  -24.1489  -36.7209   23.2654 C   0  0  0  0  0  0
  -26.0486  -30.6249   21.4043 C   0  0  0  0  0  0
  -26.1201  -29.2136   20.7478 C   0  0  0  0  0  0
  -27.2612  -28.2900   20.7574 C   0  0  0  0  0  0
  -26.0245  -26.6731   19.4991 C   0  0  0  0  0  0
  -24.9151  -27.5608   19.4710 C   0  0  0  0  0  0
  -23.7231  -29.7388   20.1483 C   0  0  0  0  0  0
  -25.4134  -36.2980   24.0305 C   0  0  1  0  0  0
  -20.5933  -28.3757   23.1168 C   0  0  2  0  0  0
  -20.6782  -26.9436   22.5389 C   0  0  0  0  0  0
  -19.5771  -26.6368   21.5195 C   0  0  0  0  0  0
  -18.1946  -26.7932   22.1601 C   0  0  0  0  0  0
  -19.1577  -28.8899   23.2792 C   0  0  0  0  0  0
  -18.9496  -30.1483   23.8839 C   0  0  0  0  0  0
  -17.6494  -30.6593   24.0552 C   0  0  0  0  0  0
  -25.9101  -34.9360   23.5016 C   0  0  0  0  0  0
  -16.5383  -29.9086   23.6348 C   0  0  0  0  0  0
  -16.7298  -28.6505   23.0367 C   0  0  0  0  0  0
  -26.4549  -31.6556   25.0726 C   0  0  0  0  0  0
  -25.3664  -31.3804   26.1379 C   0  0  0  0  0  0
  -27.0470  -30.2925   24.6494 C   0  0  0  0  0  0
  -27.6038  -32.4371   25.7520 C   0  0  0  0  0  0
  -27.5570  -37.1764   24.8471 C   0  0  0  0  0  0
  -21.4336  -29.3052   22.3529 N   0  0  0  0  0  0
  -26.4280  -37.3720   23.9409 N   0  0  0  0  0  0
  -24.7515  -30.9861   22.0856 N   0  0  0  0  0  0
  -23.4194  -28.8002   23.3055 O   0  0  0  0  0  0
  -28.2527  -25.8315   20.2770 O   0  0  0  0  0  0
  -26.5733  -34.8889   22.4621 O   0  0  0  0  0  0
  -23.5689  -32.1202   23.6781 O   0  0  0  0  0  0
  -29.6018  -19.8474   20.9737 C   0  0  0  0  0  0
  -29.0851  -21.0169   20.2678 C   0  0  0  0  0  0
  -28.7006  -20.2052   19.1307 C   0  0  0  0  0  0
  -28.0610  -20.7348   17.8814 C   0  0  0  0  0  0
  -28.6840  -22.8344   22.1136 C   0  0  0  0  0  0
  -30.4949  -23.1976   20.4411 C   0  0  0  0  0  0
  -28.3100  -16.6220   21.4693 C   0  0  0  0  0  0
  -30.6154  -17.1337   22.2086 C   0  0  0  0  0  0
  -28.1193  -24.2031   19.9879 C   0  0  0  0  0  0
  -29.0291  -22.7683   20.6168 C   0  0  0  0  0  0
  -29.7327  -16.8935   20.9639 C   0  0  0  0  0  0
  -28.9319  -18.8397   19.2011 N   0  0  0  0  0  0
  -29.5741  -18.4777   20.3615 N   0  0  0  0  0  0
  -31.4616  -13.0614   19.1920 H   0  0  0  0  0  0
  -30.5383  -11.9328   20.1131 H   0  0  0  0  0  0
  -29.9305  -11.8048   17.6758 H   0  0  0  0  0  0
  -29.5647  -13.5115   17.6619 H   0  0  0  0  0  0
  -28.0438  -11.2898   19.0480 H   0  0  0  0  0  0
  -27.4230  -12.3906   17.8411 H   0  0  0  0  0  0
  -27.5413  -14.2539   19.3559 H   0  0  0  0  0  0
  -28.8514  -12.4218   21.4130 H   0  0  0  0  0  0
  -28.2763  -13.9959   21.7797 H   0  0  0  0  0  0
  -25.2813   -9.5652   22.4755 H   0  0  0  0  0  0
  -24.0033   -7.4618   22.7479 H   0  0  0  0  0  0
  -21.0878   -8.8776   19.8949 H   0  0  0  0  0  0
  -22.3772  -10.9652   19.6151 H   0  0  0  0  0  0
  -21.1987   -7.6146   23.9721 H   0  0  0  0  0  0
  -21.1488   -6.0525   25.9088 H   0  0  0  0  0  0
  -22.0590   -2.7609   23.2859 H   0  0  0  0  0  0
  -22.4118  -11.9803   22.4855 H   0  0  0  0  0  0
  -21.1051  -13.1076   22.2663 H   0  0  0  0  0  0
  -24.6029  -15.8306   20.5270 H   0  0  0  0  0  0
  -26.2186  -15.6452   20.0711 H   0  0  0  0  0  0
  -26.7369  -32.5120   23.0888 H   0  0  0  0  0  0
  -25.0049  -33.9500   25.0177 H   0  0  0  0  0  0
  -22.7938  -31.2617   21.3442 H   0  0  0  0  0  0
  -23.3782  -35.9509   23.3291 H   0  0  0  0  0  0
  -24.3561  -36.8888   22.2074 H   0  0  0  0  0  0
  -23.7209  -37.6369   23.6730 H   0  0  0  0  0  0
  -26.2295  -31.3674   20.6263 H   0  0  0  0  0  0
  -26.9069  -30.6833   22.0628 H   0  0  0  0  0  0
  -28.1546  -28.5971   21.2827 H   0  0  0  0  0  0
  -25.9048  -25.7172   19.0100 H   0  0  0  0  0  0
  -24.0164  -27.2444   18.9603 H   0  0  0  0  0  0
  -23.8806  -30.5052   19.3886 H   0  0  0  0  0  0
  -22.8322  -29.1933   19.8328 H   0  0  0  0  0  0
  -25.1327  -36.1784   25.0796 H   0  0  0  0  0  0
  -21.0004  -28.3376   24.1306 H   0  0  0  0  0  0
  -20.5627  -26.2401   23.3650 H   0  0  0  0  0  0
  -21.6651  -26.7400   22.1229 H   0  0  0  0  0  0
  -19.6946  -25.6262   21.1279 H   0  0  0  0  0  0
  -19.6702  -27.3129   20.6681 H   0  0  0  0  0  0
  -17.4212  -26.6664   21.4012 H   0  0  0  0  0  0
  -18.0356  -26.0081   22.9004 H   0  0  0  0  0  0
  -19.7981  -30.7289   24.2199 H   0  0  0  0  0  0
  -17.5065  -31.6281   24.5151 H   0  0  0  0  0  0
  -15.5382  -30.2975   23.7718 H   0  0  0  0  0  0
  -15.8692  -28.0804   22.7130 H   0  0  0  0  0  0
  -24.5847  -30.7170   25.7668 H   0  0  0  0  0  0
  -24.8862  -32.3008   26.4711 H   0  0  0  0  0  0
  -25.7879  -30.9012   27.0227 H   0  0  0  0  0  0
  -26.3165  -29.6580   24.1475 H   0  0  0  0  0  0
  -27.3964  -29.7315   25.5171 H   0  0  0  0  0  0
  -27.9101  -30.4118   23.9945 H   0  0  0  0  0  0
  -27.2616  -33.3710   26.1985 H   0  0  0  0  0  0
  -28.3895  -32.6881   25.0385 H   0  0  0  0  0  0
  -28.0666  -31.8591   26.5532 H   0  0  0  0  0  0
  -28.2579  -38.0068   24.7523 H   0  0  0  0  0  0
  -28.1067  -36.2601   24.6280 H   0  0  0  0  0  0
  -27.2294  -37.1379   25.8875 H   0  0  0  0  0  0
  -20.9607  -29.8742   21.6641 H   0  0  0  0  0  0
  -26.0138  -38.2779   24.1418 H   0  0  0  0  0  0
  -30.0123  -19.8906   21.9723 H   0  0  0  0  0  0
  -26.9748  -20.7460   17.9712 H   0  0  0  0  0  0
  -28.3183  -20.1322   17.0098 H   0  0  0  0  0  0
  -28.3870  -21.7542   17.6797 H   0  0  0  0  0  0
  -28.7494  -23.8555   22.4926 H   0  0  0  0  0  0
  -29.3474  -22.2203   22.7216 H   0  0  0  0  0  0
  -27.6644  -22.4898   22.2865 H   0  0  0  0  0  0
  -30.6500  -24.2351   20.7419 H   0  0  0  0  0  0
  -30.8081  -23.1050   19.4004 H   0  0  0  0  0  0
  -31.1698  -22.5850   21.0402 H   0  0  0  0  0  0
  -27.7955  -17.5377   21.7638 H   0  0  0  0  0  0
  -28.2942  -15.9870   22.3506 H   0  0  0  0  0  0
  -27.7234  -16.1739   20.6752 H   0  0  0  0  0  0
  -31.5749  -17.5633   21.9182 H   0  0  0  0  0  0
  -30.8217  -16.2170   22.7623 H   0  0  0  0  0  0
  -30.1478  -17.8198   22.9139 H   0  0  0  0  0  0
  -27.0689  -23.9799   20.1723 H   0  0  0  0  0  0
  -28.2157  -24.1411   18.9043 H   0  0  0  0  0  0
  1 25  1  0  0  0
  1 30  2  0  0  0
  1 81  1  0  0  0
  2  3  1  0  0  0
  2 25  1  0  0  0
  2 84  1  0  0  0
  2 85  1  0  0  0
  3  4  1  0  0  0
  3 86  1  0  0  0
  3 87  1  0  0  0
  4  5  1  0  0  0
  4 88  1  0  0  0
  4 89  1  0  0  0
  5  6  1  0  0  0
  5 26  1  0  0  0
  5 90  1  0  0  0
  6 25  1  0  0  0
  6 91  1  0  0  0
  6 92  1  0  0  0
  7  8  2  0  0  0
  7 26  1  0  0  0
  7 29  1  0  0  0
  8  9  1  0  0  0
  8 22  1  0  0  0
  9 10  1  0  0  0
  9 27  2  0  0  0
 10 11  2  0  0  0
 10 15  1  0  0  0
 11 12  1  0  0  0
 11 93  1  0  0  0
 12 13  2  0  0  0
 12 94  1  0  0  0
 13 14  1  0  0  0
 13 31  1  0  0  0
 14 15  2  0  0  0
 14 95  1  0  0  0
 15 96  1  0  0  0
 16 17  2  0  0  0
 16 21  1  0  0  0
 16 31  1  0  0  0
 17 18  1  0  0  0
 17 97  1  0  0  0
 18 19  2  0  0  0
 18 98  1  0  0  0
 19 20  1  0  0  0
 19 24  1  0  0  0
 20 21  2  0  0  0
 20 99  1  0  0  0
 21 23  1  0  0  0
 22 28  1  0  0  0
 22 32  2  0  0  0
 26 27  1  0  0  0
 28100  1  0  0  0
 28101  1  0  0  0
 29102  1  0  0  0
 29103  1  0  0  0
 33 34  1  0  0  0
 33 66  1  0  0  0
 33 70  2  0  0  0
 34 36  1  0  0  0
 34 59  1  0  0  0
 34104  1  0  0  0
 35 44  2  0  0  0
 35 45  1  0  0  0
 35 68  1  0  0  0
 36 56  1  0  0  0
 36105  1  0  0  0
 37 39  1  0  0  0
 37 47  1  0  0  0
 37 66  1  0  0  0
 37106  1  0  0  0
 38 43  2  0  0  0
 38 46  1  0  0  0
 38 47  1  0  0  0
 39 64  1  0  0  0
 39 67  2  0  0  0
 40 52  1  0  0  0
 40 53  2  0  0  0
 40 58  1  0  0  0
 41107  1  0  0  0
 41108  1  0  0  0
 41109  1  0  0  0
 41 48  1  0  0  0
 42 43  1  0  0  0
 42 66  1  0  0  0
 42110  1  0  0  0
 42111  1  0  0  0
 43 44  1  0  0  0
 44112  1  0  0  0
 45 46  2  0  0  0
 45113  1  0  0  0
 46114  1  0  0  0
 47115  1  0  0  0
 47116  1  0  0  0
 48 56  1  0  0  0
 48 65  1  0  0  0
 48117  1  0  0  0
 49 50  1  0  0  0
 49 53  1  0  0  0
 49 64  1  0  0  0
 49118  1  0  0  0
 50 51  1  0  0  0
 50119  1  0  0  0
 50120  1  0  0  0
 51 52  1  0  0  0
 51121  1  0  0  0
 51122  1  0  0  0
 52123  1  0  0  0
 52124  1  0  0  0
 53 54  1  0  0  0
 54 55  2  0  0  0
 54125  1  0  0  0
 55 57  1  0  0  0
 55126  1  0  0  0
 56 69  2  0  0  0
 57 58  2  0  0  0
 57127  1  0  0  0
 58128  1  0  0  0
 59 60  1  0  0  0
 59 61  1  0  0  0
 59 62  1  0  0  0
 60129  1  0  0  0
 60130  1  0  0  0
 60131  1  0  0  0
 61132  1  0  0  0
 61133  1  0  0  0
 61134  1  0  0  0
 62135  1  0  0  0
 62136  1  0  0  0
 62137  1  0  0  0
 63 65  1  0  0  0
 63138  1  0  0  0
 63139  1  0  0  0
 63140  1  0  0  0
 64141  1  0  0  0
 65142  1  0  0  0
 68 79  1  0  0  0
 71 72  2  0  0  0
 71 83  1  0  0  0
 71143  1  0  0  0
 72 73  1  0  0  0
 72 80  1  0  0  0
 73 74  1  0  0  0
 73 82  2  0  0  0
 74144  1  0  0  0
 74145  1  0  0  0
 74146  1  0  0  0
 75147  1  0  0  0
 75148  1  0  0  0
 75149  1  0  0  0
 75 80  1  0  0  0
 76 80  1  0  0  0
 76150  1  0  0  0
 76151  1  0  0  0
 76152  1  0  0  0
 77153  1  0  0  0
 77154  1  0  0  0
 77155  1  0  0  0
 77 81  1  0  0  0
 78 81  1  0  0  0
 78156  1  0  0  0
 78157  1  0  0  0
 78158  1  0  0  0
 79 80  1  0  0  0
 79159  1  0  0  0
 79160  1  0  0  0
 81 83  1  0  0  0
 82 83  1  0  0  0
M  ISO  4   1 100  68 101  79 101  81 100
M  END
> <chiral flag>
0

> <version>
0

> <s_m_source_file>
/data/baiqing/PycharmProjects/Reinvent-master-3.2/result/LINK_invent/BTK/process_docking_weight1_custom_sum_contain_oxygen_bond_distance_aromatic_linkinvent_7_9_3/rearranged_h_0063.sdf

> <i_m_source_file_index>
47

> <r_mmod_Potential_Energy-OPLS-2005>
1464.61242675781

> <r_mmod_Stretch_Energy-OPLS-2005>
640.980529785156

> <r_mmod_Bend_Energy-OPLS-2005>
508.501190185547

> <r_mmod_Torsional_Energy-OPLS-2005>
230.113021850586

> <r_mmod_Improper_Torsional_Energy-OPLS-2005>
5.21868515014648

> <r_mmod_Van_der_Waal_Energy-OPLS-2005>
112.093551635742

> <r_mmod_Electrostatic_Energy-OPLS-2005>
-316.427917480469

> <r_mmod_Solvation_Energy-OPLS-2005>
-196.230438232422

> <b_mmod_Minimization_Converged-OPLS-2005>
0

> <r_mmod_RMS_Derivative-OPLS-2005>
2.21981072425842

$$$$
49
                    3D
 Structure written by MMmdl.
166174  0  0  1  0            999 V2000
  -30.7388  -14.5118   20.6331 C   0  0  0  0  0  0
  -30.4150  -12.3517   19.4409 C   0  0  0  0  0  0
  -29.4965  -12.5407   18.2147 C   0  0  0  0  0  0
  -28.0151  -12.3878   18.6086 C   0  0  0  0  0  0
  -27.6584  -13.2072   19.8753 C   0  0  2  0  0  0
  -28.6958  -12.9581   20.9879 C   0  0  0  0  0  0
  -25.2598  -13.8151   20.5693 C   0  0  0  0  0  0
  -24.1833  -13.0431   20.9158 C   0  0  0  0  0  0
  -24.6385  -11.6896   20.8703 C   0  0  0  0  0  0
  -23.9056  -10.4281   21.0399 C   0  0  0  0  0  0
  -24.3617   -9.4200   21.9176 C   0  0  0  0  0  0
  -23.6291   -8.2240   22.0760 C   0  0  0  0  0  0
  -22.4269   -8.0281   21.3558 C   0  0  0  0  0  0
  -21.9902   -9.0249   20.4653 C   0  0  0  0  0  0
  -22.7230  -10.2127   20.3052 C   0  0  0  0  0  0
  -21.6850   -6.0730   22.5284 C   0  0  0  0  0  0
  -21.4006   -6.5634   23.8213 C   0  0  0  0  0  0
  -21.3664   -5.6797   24.9180 C   0  0  0  0  0  0
  -21.6048   -4.3059   24.7232 C   0  0  0  0  0  0
  -21.8818   -3.8141   23.4353 C   0  0  0  0  0  0
  -21.9195   -4.6958   22.3407 C   0  0  0  0  0  0
  -22.7862  -13.5232   21.1845 C   0  0  0  0  0  0
  -22.1663   -4.2138   21.0988 F   0  0  0  0  0  0
  -21.5639   -3.4548   25.7748 F   0  0  0  0  0  0
  -30.0228  -13.3432   20.4753 N   0  0  0  0  0  0
  -26.3003  -12.9310   20.3334 N   0  0  0  0  0  0
  -25.9306  -11.6470   20.5708 N   0  0  0  0  0  0
  -22.0512  -12.8206   22.0401 N   0  0  0  0  0  0
  -25.4451  -15.1857   20.4205 N   0  0  0  0  0  0
  -31.8023  -14.6136   20.0058 O   0  0  0  0  0  0
  -21.6640   -6.8877   21.4247 O   0  0  0  0  0  0
  -22.3549  -14.5556   20.6736 O   0  0  0  0  0  0
  -24.6183  -31.8666   23.2093 C   0  0  0  0  0  0
  -25.9065  -32.4814   23.8394 C   0  0  1  0  0  0
  -27.2253  -27.3960   20.0958 C   0  0  0  0  0  0
  -25.5913  -33.8615   24.2321 N   0  0  0  0  0  0
  -23.4071  -30.4925   21.5508 C   0  0  2  0  0  0
  -24.8520  -28.9625   20.1090 C   0  0  0  0  0  0
  -22.7430  -29.4656   22.4973 C   0  0  0  0  0  0
  -18.0277  -28.1373   22.8489 C   0  0  0  0  0  0
  -24.1487  -36.7314   23.2636 C   0  0  0  0  0  0
  -25.9415  -30.8202   21.3702 C   0  0  0  0  0  0
  -26.0157  -29.4541   20.7123 C   0  0  0  0  0  0
  -27.2033  -28.6781   20.7047 C   0  0  0  0  0  0
  -26.0416  -26.9472   19.4596 C   0  0  0  0  0  0
  -24.8627  -27.7106   19.4770 C   0  0  0  0  0  0
  -23.6159  -29.8318   20.1633 C   0  0  0  0  0  0
  -25.4106  -36.3106   24.0337 C   0  0  1  0  0  0
  -20.5870  -28.3669   23.1308 C   0  0  2  0  0  0
  -20.6767  -26.9403   22.5412 C   0  0  0  0  0  0
  -19.5745  -26.6383   21.5208 C   0  0  0  0  0  0
  -18.1925  -26.7918   22.1621 C   0  0  0  0  0  0
  -19.1524  -28.8837   23.2896 C   0  0  0  0  0  0
  -18.9449  -30.1442   23.8906 C   0  0  0  0  0  0
  -17.6451  -30.6581   24.0560 C   0  0  0  0  0  0
  -25.9039  -34.9472   23.5123 C   0  0  0  0  0  0
  -16.5344  -29.9080   23.6323 C   0  0  0  0  0  0
  -16.7267  -28.6497   23.0347 C   0  0  0  0  0  0
  -26.4478  -31.6597   25.0732 C   0  0  0  0  0  0
  -25.3737  -31.3705   26.1474 C   0  0  0  0  0  0
  -27.0310  -30.3035   24.6125 C   0  0  0  0  0  0
  -27.6051  -32.4316   25.7496 C   0  0  0  0  0  0
  -27.5579  -37.1811   24.8463 C   0  0  0  0  0  0
  -21.4152  -29.3037   22.3714 N   0  0  0  0  0  0
  -26.4290  -37.3792   23.9409 N   0  0  0  0  0  0
  -24.6740  -31.0743   22.1011 N   0  0  0  0  0  0
  -23.4189  -28.8190   23.3022 O   0  0  0  0  0  0
  -28.3715  -26.6092   20.1511 O   0  0  0  0  0  0
  -26.5597  -34.8925   22.4682 O   0  0  0  0  0  0
  -23.5368  -32.1434   23.7469 O   0  0  0  0  0  0
  -28.3361  -17.7693   19.1790 C   0  0  0  0  0  0
  -29.8322  -19.1527   20.0597 C   0  0  0  0  0  0
  -29.8362  -16.9639   20.6286 C   0  0  0  0  0  0
  -27.1457  -17.5413   18.2718 C   0  0  0  0  0  0
  -31.7333  -16.2028   22.1807 C   0  0  0  0  0  0
  -30.5656  -20.5047   20.0138 C   0  0  0  0  0  0
  -29.9731  -21.7134   20.8046 C   0  0  0  0  0  0
  -29.1875  -22.7765   19.9747 C   0  0  0  0  0  0
  -29.2849  -24.2513   20.4865 C   0  0  0  0  0  0
  -29.3734  -15.5410   22.7020 C   0  0  0  0  0  0
  -28.2305  -25.1966   19.8477 C   0  0  0  0  0  0
  -30.3688  -15.7907   21.5232 C   0  0  1  0  0  0
  -28.8121  -19.0069   19.2263 N   0  0  0  0  0  0
  -28.7881  -16.7105   19.8453 N   0  0  0  0  0  0
  -30.3380  -18.1942   20.8408 N   0  0  0  0  0  0
  -29.3017  -16.6051   23.7351 N   0  3  0  0  0  0
  -31.4600  -12.4261   19.1364 H   0  0  0  0  0  0
  -30.3184  -11.3368   19.8314 H   0  0  0  0  0  0
  -29.7521  -11.8243   17.4328 H   0  0  0  0  0  0
  -29.6603  -13.5315   17.7877 H   0  0  0  0  0  0
  -27.8209  -11.3290   18.7826 H   0  0  0  0  0  0
  -27.3733  -12.6836   17.7781 H   0  0  0  0  0  0
  -27.7063  -14.2585   19.5967 H   0  0  0  0  0  0
  -28.7020  -11.8943   21.2344 H   0  0  0  0  0  0
  -28.3894  -13.4093   21.9184 H   0  0  0  0  0  0
  -25.2777   -9.5672   22.4725 H   0  0  0  0  0  0
  -24.0009   -7.4625   22.7464 H   0  0  0  0  0  0
  -21.0843   -8.8765   19.8945 H   0  0  0  0  0  0
  -22.3708  -10.9661   19.6144 H   0  0  0  0  0  0
  -21.1984   -7.6142   23.9705 H   0  0  0  0  0  0
  -21.1498   -6.0536   25.9087 H   0  0  0  0  0  0
  -22.0594   -2.7601   23.2865 H   0  0  0  0  0  0
  -22.4142  -11.9856   22.4759 H   0  0  0  0  0  0
  -21.1133  -13.1213   22.2630 H   0  0  0  0  0  0
  -24.6916  -15.8544   20.5352 H   0  0  0  0  0  0
  -26.3240  -15.6075   20.1485 H   0  0  0  0  0  0
  -26.7134  -32.5511   23.1155 H   0  0  0  0  0  0
  -25.0069  -33.9773   25.0469 H   0  0  0  0  0  0
  -22.6972  -31.3108   21.4139 H   0  0  0  0  0  0
  -23.3747  -35.9649   23.3298 H   0  0  0  0  0  0
  -24.3582  -36.8931   22.2050 H   0  0  0  0  0  0
  -23.7245  -37.6520   23.6653 H   0  0  0  0  0  0
  -26.0607  -31.5876   20.6038 H   0  0  0  0  0  0
  -26.8268  -30.8691   21.9925 H   0  0  0  0  0  0
  -28.0966  -29.0502   21.1861 H   0  0  0  0  0  0
  -25.9967  -26.0029   18.9380 H   0  0  0  0  0  0
  -23.9725  -27.3322   18.9933 H   0  0  0  0  0  0
  -23.7254  -30.6101   19.4071 H   0  0  0  0  0  0
  -22.7387  -29.2549   19.8648 H   0  0  0  0  0  0
  -25.1282  -36.1965   25.0831 H   0  0  0  0  0  0
  -20.9957  -28.3229   24.1431 H   0  0  0  0  0  0
  -20.5667  -26.2274   23.3598 H   0  0  0  0  0  0
  -21.6639  -26.7441   22.1206 H   0  0  0  0  0  0
  -19.6906  -25.6296   21.1235 H   0  0  0  0  0  0
  -19.6682  -27.3198   20.6742 H   0  0  0  0  0  0
  -17.4192  -26.6663   21.4026 H   0  0  0  0  0  0
  -18.0329  -26.0059   22.9017 H   0  0  0  0  0  0
  -19.7925  -30.7254   24.2283 H   0  0  0  0  0  0
  -17.5007  -31.6263   24.5157 H   0  0  0  0  0  0
  -15.5345  -30.2983   23.7644 H   0  0  0  0  0  0
  -15.8667  -28.0822   22.7054 H   0  0  0  0  0  0
  -24.5915  -30.7048   25.7808 H   0  0  0  0  0  0
  -24.8925  -32.2861   26.4923 H   0  0  0  0  0  0
  -25.8092  -30.8873   27.0230 H   0  0  0  0  0  0
  -26.2862  -29.6799   24.1169 H   0  0  0  0  0  0
  -27.4057  -29.7271   25.4594 H   0  0  0  0  0  0
  -27.8710  -30.4343   23.9298 H   0  0  0  0  0  0
  -27.2669  -33.3609   26.2091 H   0  0  0  0  0  0
  -28.3853  -32.6885   25.0318 H   0  0  0  0  0  0
  -28.0726  -31.8427   26.5397 H   0  0  0  0  0  0
  -28.2595  -38.0109   24.7515 H   0  0  0  0  0  0
  -28.1077  -36.2643   24.6281 H   0  0  0  0  0  0
  -27.2300  -37.1452   25.8866 H   0  0  0  0  0  0
  -20.9310  -29.8774   21.6950 H   0  0  0  0  0  0
  -26.0177  -38.2871   24.1407 H   0  0  0  0  0  0
  -27.2022  -18.1718   17.3844 H   0  0  0  0  0  0
  -26.2219  -17.7771   18.7983 H   0  0  0  0  0  0
  -27.0918  -16.5035   17.9403 H   0  0  0  0  0  0
  -31.6546  -17.0706   22.8341 H   0  0  0  0  0  0
  -32.4810  -16.4820   21.4367 H   0  0  0  0  0  0
  -32.1540  -15.3908   22.7753 H   0  0  0  0  0  0
  -30.7246  -20.7803   18.9707 H   0  0  0  0  0  0
  -31.5711  -20.3227   20.3956 H   0  0  0  0  0  0
  -30.8264  -22.2323   21.2422 H   0  0  0  0  0  0
  -29.3874  -21.3633   21.6553 H   0  0  0  0  0  0
  -28.1415  -22.4682   19.9329 H   0  0  0  0  0  0
  -29.5337  -22.7652   18.9403 H   0  0  0  0  0  0
  -30.2861  -24.6344   20.2868 H   0  0  0  0  0  0
  -29.1622  -24.2726   21.5701 H   0  0  0  0  0  0
  -29.6318  -14.6170   23.2207 H   0  0  0  0  0  0
  -28.3603  -15.4481   22.3106 H   0  0  0  0  0  0
  -27.2688  -24.8222   20.2025 H   0  0  0  0  0  0
  -28.2436  -25.0776   18.7636 H   0  0  0  0  0  0
  -30.1893  -16.7246   24.1922 H   0  0  0  0  0  0
  -28.6322  -16.3513   24.4412 H   0  0  0  0  0  0
  -29.0196  -17.4892   23.3486 H   0  0  0  0  0  0
  1 25  1  0  0  0
  1 30  2  0  0  0
  1 82  1  0  0  0
  2  3  1  0  0  0
  2 25  1  0  0  0
  2 87  1  0  0  0
  2 88  1  0  0  0
  3  4  1  0  0  0
  3 89  1  0  0  0
  3 90  1  0  0  0
  4  5  1  0  0  0
  4 91  1  0  0  0
  4 92  1  0  0  0
  5  6  1  0  0  0
  5 26  1  0  0  0
  5 93  1  0  0  0
  6 25  1  0  0  0
  6 94  1  0  0  0
  6 95  1  0  0  0
  7  8  2  0  0  0
  7 26  1  0  0  0
  7 29  1  0  0  0
  8  9  1  0  0  0
  8 22  1  0  0  0
  9 10  1  0  0  0
  9 27  2  0  0  0
 10 11  2  0  0  0
 10 15  1  0  0  0
 11 12  1  0  0  0
 11 96  1  0  0  0
 12 13  2  0  0  0
 12 97  1  0  0  0
 13 14  1  0  0  0
 13 31  1  0  0  0
 14 15  2  0  0  0
 14 98  1  0  0  0
 15 99  1  0  0  0
 16 17  2  0  0  0
 16 21  1  0  0  0
 16 31  1  0  0  0
 17 18  1  0  0  0
 17100  1  0  0  0
 18 19  2  0  0  0
 18101  1  0  0  0
 19 20  1  0  0  0
 19 24  1  0  0  0
 20 21  2  0  0  0
 20102  1  0  0  0
 21 23  1  0  0  0
 22 28  1  0  0  0
 22 32  2  0  0  0
 26 27  1  0  0  0
 28103  1  0  0  0
 28104  1  0  0  0
 29105  1  0  0  0
 29106  1  0  0  0
 33 34  1  0  0  0
 33 66  1  0  0  0
 33 70  2  0  0  0
 34 36  1  0  0  0
 34 59  1  0  0  0
 34107  1  0  0  0
 35 44  2  0  0  0
 35 45  1  0  0  0
 35 68  1  0  0  0
 36 56  1  0  0  0
 36108  1  0  0  0
 37 39  1  0  0  0
 37 47  1  0  0  0
 37 66  1  0  0  0
 37109  1  0  0  0
 38 43  2  0  0  0
 38 46  1  0  0  0
 38 47  1  0  0  0
 39 64  1  0  0  0
 39 67  2  0  0  0
 40 52  1  0  0  0
 40 53  2  0  0  0
 40 58  1  0  0  0
 41110  1  0  0  0
 41111  1  0  0  0
 41112  1  0  0  0
 41 48  1  0  0  0
 42 43  1  0  0  0
 42 66  1  0  0  0
 42113  1  0  0  0
 42114  1  0  0  0
 43 44  1  0  0  0
 44115  1  0  0  0
 45 46  2  0  0  0
 45116  1  0  0  0
 46117  1  0  0  0
 47118  1  0  0  0
 47119  1  0  0  0
 48 56  1  0  0  0
 48 65  1  0  0  0
 48120  1  0  0  0
 49 50  1  0  0  0
 49 53  1  0  0  0
 49 64  1  0  0  0
 49121  1  0  0  0
 50 51  1  0  0  0
 50122  1  0  0  0
 50123  1  0  0  0
 51 52  1  0  0  0
 51124  1  0  0  0
 51125  1  0  0  0
 52126  1  0  0  0
 52127  1  0  0  0
 53 54  1  0  0  0
 54 55  2  0  0  0
 54128  1  0  0  0
 55 57  1  0  0  0
 55129  1  0  0  0
 56 69  2  0  0  0
 57 58  2  0  0  0
 57130  1  0  0  0
 58131  1  0  0  0
 59 60  1  0  0  0
 59 61  1  0  0  0
 59 62  1  0  0  0
 60132  1  0  0  0
 60133  1  0  0  0
 60134  1  0  0  0
 61135  1  0  0  0
 61136  1  0  0  0
 61137  1  0  0  0
 62138  1  0  0  0
 62139  1  0  0  0
 62140  1  0  0  0
 63 65  1  0  0  0
 63141  1  0  0  0
 63142  1  0  0  0
 63143  1  0  0  0
 64144  1  0  0  0
 65145  1  0  0  0
 68 81  1  0  0  0
 71 74  1  0  0  0
 71 83  2  0  0  0
 71 84  1  0  0  0
 72 76  1  0  0  0
 72 83  1  0  0  0
 72 85  2  0  0  0
 73 82  1  0  0  0
 73 84  2  0  0  0
 73 85  1  0  0  0
 74146  1  0  0  0
 74147  1  0  0  0
 74148  1  0  0  0
 75149  1  0  0  0
 75150  1  0  0  0
 75151  1  0  0  0
 75 82  1  0  0  0
 76 77  1  0  0  0
 76152  1  0  0  0
 76153  1  0  0  0
 77 78  1  0  0  0
 77154  1  0  0  0
 77155  1  0  0  0
 78 79  1  0  0  0
 78156  1  0  0  0
 78157  1  0  0  0
 79 81  1  0  0  0
 79158  1  0  0  0
 79159  1  0  0  0
 80 82  1  0  0  0
 80 86  1  0  0  0
 80160  1  0  0  0
 80161  1  0  0  0
 81162  1  0  0  0
 81163  1  0  0  0
 86164  1  0  0  0
 86165  1  0  0  0
 86166  1  0  0  0
M  CHG  1  86   1
M  ISO  4   1 100  68 101  81 101  82 100
M  END
> <chiral flag>
0

> <version>
0

> <s_m_source_file>
/data/baiqing/PycharmProjects/Reinvent-master-3.2/result/LINK_invent/BTK/process_docking_weight1_custom_sum_contain_oxygen_bond_distance_aromatic_linkinvent_7_9_3/rearranged_h_0063.sdf

> <i_m_source_file_index>
48

> <r_mmod_Potential_Energy-OPLS-2005>
-685.15625

> <r_mmod_Stretch_Energy-OPLS-2005>
61.3112182617188

> <r_mmod_Bend_Energy-OPLS-2005>
146.971603393555

> <r_mmod_Torsional_Energy-OPLS-2005>
196.716949462891

> <r_mmod_Improper_Torsional_Energy-OPLS-2005>
2.98225045204163

> <r_mmod_Van_der_Waal_Energy-OPLS-2005>
187.488327026367

> <r_mmod_Electrostatic_Energy-OPLS-2005>
-814.146240234375

> <r_mmod_Solvation_Energy-OPLS-2005>
-486.205596923828

> <b_mmod_Minimization_Converged-OPLS-2005>
0

> <r_mmod_RMS_Derivative-OPLS-2005>
1.06131291389465

$$$$
50
                    3D
 Structure written by MMmdl.
164172  0  0  1  0            999 V2000
  -30.6224  -14.7194   20.5364 C   0  0  0  0  0  0
  -30.4471  -12.4497   19.4883 C   0  0  0  0  0  0
  -29.5254  -12.5020   18.2488 C   0  0  0  0  0  0
  -28.0494  -12.3265   18.6554 C   0  0  0  0  0  0
  -27.6536  -13.2189   19.8620 C   0  0  2  0  0  0
  -28.6898  -13.1102   20.9994 C   0  0  0  0  0  0
  -25.2564  -13.8127   20.5604 C   0  0  0  0  0  0
  -24.1830  -13.0409   20.9124 C   0  0  0  0  0  0
  -24.6413  -11.6882   20.8737 C   0  0  0  0  0  0
  -23.9081  -10.4281   21.0412 C   0  0  0  0  0  0
  -24.3617   -9.4199   21.9202 C   0  0  0  0  0  0
  -23.6279   -8.2244   22.0772 C   0  0  0  0  0  0
  -22.4268   -8.0289   21.3548 C   0  0  0  0  0  0
  -21.9916   -9.0259   20.4646 C   0  0  0  0  0  0
  -22.7250  -10.2130   20.3052 C   0  0  0  0  0  0
  -21.6845   -6.0735   22.5273 C   0  0  0  0  0  0
  -21.4002   -6.5638   23.8208 C   0  0  0  0  0  0
  -21.3654   -5.6786   24.9168 C   0  0  0  0  0  0
  -21.6047   -4.3051   24.7216 C   0  0  0  0  0  0
  -21.8822   -3.8146   23.4334 C   0  0  0  0  0  0
  -21.9189   -4.6967   22.3394 C   0  0  0  0  0  0
  -22.7867  -13.5227   21.1795 C   0  0  0  0  0  0
  -22.1661   -4.2153   21.0974 F   0  0  0  0  0  0
  -21.5631   -3.4537   25.7731 F   0  0  0  0  0  0
  -29.9971  -13.4910   20.4444 N   0  0  0  0  0  0
  -26.3010  -12.9321   20.3314 N   0  0  0  0  0  0
  -25.9352  -11.6474   20.5778 N   0  0  0  0  0  0
  -22.0493  -12.8242   22.0363 N   0  0  0  0  0  0
  -25.4291  -15.1801   20.3989 N   0  0  0  0  0  0
  -31.7409  -14.8680   20.0326 O   0  0  0  0  0  0
  -21.6630   -6.8882   21.4241 O   0  0  0  0  0  0
  -22.3553  -14.5530   20.6637 O   0  0  0  0  0  0
  -24.6312  -31.8563   23.1979 C   0  0  0  0  0  0
  -25.9144  -32.4761   23.8338 C   0  0  1  0  0  0
  -27.2157  -27.2648   20.1195 C   0  0  0  0  0  0
  -25.5951  -33.8566   24.2272 N   0  0  0  0  0  0
  -23.4290  -30.4812   21.5403 C   0  0  2  0  0  0
  -24.8738  -28.9339   20.1072 C   0  0  0  0  0  0
  -22.7512  -29.4592   22.4859 C   0  0  0  0  0  0
  -18.0293  -28.1405   22.8466 C   0  0  0  0  0  0
  -24.1473  -36.7276   23.2645 C   0  0  0  0  0  0
  -25.9754  -30.7737   21.3713 C   0  0  0  0  0  0
  -26.0478  -29.3956   20.7153 C   0  0  0  0  0  0
  -27.2224  -28.5737   20.7113 C   0  0  0  0  0  0
  -26.0142  -26.8751   19.4842 C   0  0  0  0  0  0
  -24.8620  -27.6804   19.4825 C   0  0  0  0  0  0
  -23.6462  -29.8215   20.1536 C   0  0  0  0  0  0
  -25.4105  -36.3069   24.0321 C   0  0  1  0  0  0
  -20.5910  -28.3688   23.1272 C   0  0  2  0  0  0
  -20.6783  -26.9406   22.5400 C   0  0  0  0  0  0
  -19.5763  -26.6398   21.5199 C   0  0  0  0  0  0
  -18.1935  -26.7952   22.1608 C   0  0  0  0  0  0
  -19.1557  -28.8854   23.2869 C   0  0  0  0  0  0
  -18.9486  -30.1450   23.8889 C   0  0  0  0  0  0
  -17.6496  -30.6596   24.0545 C   0  0  0  0  0  0
  -25.9069  -34.9444   23.5097 C   0  0  0  0  0  0
  -16.5367  -29.9100   23.6343 C   0  0  0  0  0  0
  -16.7282  -28.6526   23.0346 C   0  0  0  0  0  0
  -26.4514  -31.6588   25.0714 C   0  0  0  0  0  0
  -25.3753  -31.3728   26.1442 C   0  0  0  0  0  0
  -27.0351  -30.3022   24.6134 C   0  0  0  0  0  0
  -27.6058  -32.4312   25.7502 C   0  0  0  0  0  0
  -27.5557  -37.1792   24.8476 C   0  0  0  0  0  0
  -21.4215  -29.3055   22.3645 N   0  0  0  0  0  0
  -26.4264  -37.3785   23.9414 N   0  0  0  0  0  0
  -24.6986  -31.0543   22.0938 N   0  0  0  0  0  0
  -23.4227  -28.8107   23.2937 O   0  0  0  0  0  0
  -28.3065  -26.3610   20.1698 O   0  0  0  0  0  0
  -26.5630  -34.8925   22.4656 O   0  0  0  0  0  0
  -23.5458  -32.1359   23.7290 O   0  0  0  0  0  0
  -26.7735  -18.5812   21.3758 C   0  0  0  0  0  0
  -28.7420  -18.1579   20.7494 C   0  0  0  0  0  0
  -29.7722  -23.9921   21.6816 C   0  0  0  0  0  0
  -30.1542  -23.7569   19.2114 C   0  0  0  0  0  0
  -29.7540  -15.8385   22.4968 C   0  0  0  0  0  0
  -29.9903  -17.2497   20.4688 C   0  0  0  0  0  0
  -28.4764  -22.2170   20.3762 C   0  0  0  0  0  0
  -29.3457  -20.8325   20.5021 C   0  0  0  0  0  0
  -28.0119  -24.8885   20.0594 C   0  0  0  0  0  0
  -25.3659  -18.4434   21.9224 C   0  0  0  0  0  0
  -29.0974  -23.7139   20.3297 C   0  0  0  0  0  0
  -27.5959  -17.5391   21.0543 N   0  0  0  0  0  0
  -27.2897  -19.7817   21.1528 N   0  0  0  0  0  0
  -28.5633  -19.5506   20.7426 N   0  0  0  0  0  0
  -29.9248  -15.8169   21.0342 N   0  0  0  0  0  0
  -25.1394  -17.2125   22.3797 F   0  0  0  0  0  0
  -25.1796  -19.2927   22.9364 F   0  0  0  0  0  0
  -24.4734  -18.7184   20.9690 F   0  0  0  0  0  0
  -31.4883  -12.5833   19.1868 H   0  0  0  0  0  0
  -30.4070  -11.4664   19.9599 H   0  0  0  0  0  0
  -29.8116  -11.7212   17.5425 H   0  0  0  0  0  0
  -29.6581  -13.4515   17.7279 H   0  0  0  0  0  0
  -27.9071  -11.2780   18.9186 H   0  0  0  0  0  0
  -27.3936  -12.5183   17.8059 H   0  0  0  0  0  0
  -27.6632  -14.2502   19.5053 H   0  0  0  0  0  0
  -28.7281  -12.0925   21.3905 H   0  0  0  0  0  0
  -28.3910  -13.7331   21.8392 H   0  0  0  0  0  0
  -25.2760   -9.5674   22.4770 H   0  0  0  0  0  0
  -23.9976   -7.4642   22.7498 H   0  0  0  0  0  0
  -21.0844   -8.8780   19.8946 H   0  0  0  0  0  0
  -22.3722  -10.9670   19.6150 H   0  0  0  0  0  0
  -21.1988   -7.6142   23.9711 H   0  0  0  0  0  0
  -21.1472   -6.0516   25.9071 H   0  0  0  0  0  0
  -22.0605   -2.7611   23.2831 H   0  0  0  0  0  0
  -22.4068  -11.9891   22.4758 H   0  0  0  0  0  0
  -21.1123  -13.1309   22.2558 H   0  0  0  0  0  0
  -24.6781  -15.8232   20.6130 H   0  0  0  0  0  0
  -26.3306  -15.6367   20.3091 H   0  0  0  0  0  0
  -26.7169  -32.5404   23.1055 H   0  0  0  0  0  0
  -25.0112  -33.9698   25.0417 H   0  0  0  0  0  0
  -22.7276  -31.3049   21.3950 H   0  0  0  0  0  0
  -23.3748  -35.9599   23.3313 H   0  0  0  0  0  0
  -24.3573  -36.8899   22.2062 H   0  0  0  0  0  0
  -23.7214  -37.6468   23.6672 H   0  0  0  0  0  0
  -26.1099  -31.5312   20.5963 H   0  0  0  0  0  0
  -26.8586  -30.8324   21.9987 H   0  0  0  0  0  0
  -28.1188  -28.9232   21.2013 H   0  0  0  0  0  0
  -25.9186  -25.9227   18.9870 H   0  0  0  0  0  0
  -23.9654  -27.3198   19.0005 H   0  0  0  0  0  0
  -23.7727  -30.6042   19.4042 H   0  0  0  0  0  0
  -22.7641  -29.2623   19.8407 H   0  0  0  0  0  0
  -25.1283  -36.1913   25.0814 H   0  0  0  0  0  0
  -20.9994  -28.3239   24.1398 H   0  0  0  0  0  0
  -20.5701  -26.2268   23.3583 H   0  0  0  0  0  0
  -21.6628  -26.7452   22.1155 H   0  0  0  0  0  0
  -19.6917  -25.6316   21.1200 H   0  0  0  0  0  0
  -19.6693  -27.3221   20.6748 H   0  0  0  0  0  0
  -17.4189  -26.6680   21.4012 H   0  0  0  0  0  0
  -18.0310  -26.0121   22.9030 H   0  0  0  0  0  0
  -19.7965  -30.7260   24.2243 H   0  0  0  0  0  0
  -17.5059  -31.6272   24.5154 H   0  0  0  0  0  0
  -15.5365  -30.3002   23.7698 H   0  0  0  0  0  0
  -15.8673  -28.0849   22.7077 H   0  0  0  0  0  0
  -24.5942  -30.7045   25.7799 H   0  0  0  0  0  0
  -24.8923  -32.2890   26.4860 H   0  0  0  0  0  0
  -25.8102  -30.8944   27.0229 H   0  0  0  0  0  0
  -26.2916  -29.6789   24.1142 H   0  0  0  0  0  0
  -27.4086  -29.7253   25.4609 H   0  0  0  0  0  0
  -27.8767  -30.4357   23.9325 H   0  0  0  0  0  0
  -27.2668  -33.3630   26.2047 H   0  0  0  0  0  0
  -28.3902  -32.6845   25.0355 H   0  0  0  0  0  0
  -28.0678  -31.8453   26.5461 H   0  0  0  0  0  0
  -28.2573  -38.0090   24.7526 H   0  0  0  0  0  0
  -28.1050  -36.2625   24.6296 H   0  0  0  0  0  0
  -27.2278  -37.1430   25.8881 H   0  0  0  0  0  0
  -20.9376  -29.8864   21.6932 H   0  0  0  0  0  0
  -26.0144  -38.2837   24.1483 H   0  0  0  0  0  0
  -30.5323  -23.2460   21.9140 H   0  0  0  0  0  0
  -29.0442  -23.9857   22.4932 H   0  0  0  0  0  0
  -30.2597  -24.9670   21.6869 H   0  0  0  0  0  0
  -30.9569  -23.0419   19.3963 H   0  0  0  0  0  0
  -30.6090  -24.7452   19.1209 H   0  0  0  0  0  0
  -29.7172  -23.5072   18.2436 H   0  0  0  0  0  0
  -28.6971  -15.8510   22.7640 H   0  0  0  0  0  0
  -30.2161  -16.7265   22.9323 H   0  0  0  0  0  0
  -30.2008  -14.9757   22.9959 H   0  0  0  0  0  0
  -30.8782  -17.7496   20.8562 H   0  0  0  0  0  0
  -30.1248  -17.1926   19.3879 H   0  0  0  0  0  0
  -27.7724  -22.2442   21.2085 H   0  0  0  0  0  0
  -27.8487  -22.1063   19.4918 H   0  0  0  0  0  0
  -30.0498  -20.9270   21.3284 H   0  0  0  0  0  0
  -29.9482  -20.6939   19.6038 H   0  0  0  0  0  0
  -27.1679  -24.6921   20.7229 H   0  0  0  0  0  0
  -27.6425  -24.7032   19.0494 H   0  0  0  0  0  0
  1 25  1  0  0  0
  1 30  2  0  0  0
  1 85  1  0  0  0
  2  3  1  0  0  0
  2 25  1  0  0  0
  2 89  1  0  0  0
  2 90  1  0  0  0
  3  4  1  0  0  0
  3 91  1  0  0  0
  3 92  1  0  0  0
  4  5  1  0  0  0
  4 93  1  0  0  0
  4 94  1  0  0  0
  5  6  1  0  0  0
  5 26  1  0  0  0
  5 95  1  0  0  0
  6 25  1  0  0  0
  6 96  1  0  0  0
  6 97  1  0  0  0
  7  8  2  0  0  0
  7 26  1  0  0  0
  7 29  1  0  0  0
  8  9  1  0  0  0
  8 22  1  0  0  0
  9 10  1  0  0  0
  9 27  2  0  0  0
 10 11  2  0  0  0
 10 15  1  0  0  0
 11 12  1  0  0  0
 11 98  1  0  0  0
 12 13  2  0  0  0
 12 99  1  0  0  0
 13 14  1  0  0  0
 13 31  1  0  0  0
 14 15  2  0  0  0
 14100  1  0  0  0
 15101  1  0  0  0
 16 17  2  0  0  0
 16 21  1  0  0  0
 16 31  1  0  0  0
 17 18  1  0  0  0
 17102  1  0  0  0
 18 19  2  0  0  0
 18103  1  0  0  0
 19 20  1  0  0  0
 19 24  1  0  0  0
 20 21  2  0  0  0
 20104  1  0  0  0
 21 23  1  0  0  0
 22 28  1  0  0  0
 22 32  2  0  0  0
 26 27  1  0  0  0
 28105  1  0  0  0
 28106  1  0  0  0
 29107  1  0  0  0
 29108  1  0  0  0
 33 34  1  0  0  0
 33 66  1  0  0  0
 33 70  2  0  0  0
 34 36  1  0  0  0
 34 59  1  0  0  0
 34109  1  0  0  0
 35 44  2  0  0  0
 35 45  1  0  0  0
 35 68  1  0  0  0
 36 56  1  0  0  0
 36110  1  0  0  0
 37 39  1  0  0  0
 37 47  1  0  0  0
 37 66  1  0  0  0
 37111  1  0  0  0
 38 43  2  0  0  0
 38 46  1  0  0  0
 38 47  1  0  0  0
 39 64  1  0  0  0
 39 67  2  0  0  0
 40 52  1  0  0  0
 40 53  2  0  0  0
 40 58  1  0  0  0
 41112  1  0  0  0
 41113  1  0  0  0
 41114  1  0  0  0
 41 48  1  0  0  0
 42 43  1  0  0  0
 42 66  1  0  0  0
 42115  1  0  0  0
 42116  1  0  0  0
 43 44  1  0  0  0
 44117  1  0  0  0
 45 46  2  0  0  0
 45118  1  0  0  0
 46119  1  0  0  0
 47120  1  0  0  0
 47121  1  0  0  0
 48 56  1  0  0  0
 48 65  1  0  0  0
 48122  1  0  0  0
 49 50  1  0  0  0
 49 53  1  0  0  0
 49 64  1  0  0  0
 49123  1  0  0  0
 50 51  1  0  0  0
 50124  1  0  0  0
 50125  1  0  0  0
 51 52  1  0  0  0
 51126  1  0  0  0
 51127  1  0  0  0
 52128  1  0  0  0
 52129  1  0  0  0
 53 54  1  0  0  0
 54 55  2  0  0  0
 54130  1  0  0  0
 55 57  1  0  0  0
 55131  1  0  0  0
 56 69  2  0  0  0
 57 58  2  0  0  0
 57132  1  0  0  0
 58133  1  0  0  0
 59 60  1  0  0  0
 59 61  1  0  0  0
 59 62  1  0  0  0
 60134  1  0  0  0
 60135  1  0  0  0
 60136  1  0  0  0
 61137  1  0  0  0
 61138  1  0  0  0
 61139  1  0  0  0
 62140  1  0  0  0
 62141  1  0  0  0
 62142  1  0  0  0
 63 65  1  0  0  0
 63143  1  0  0  0
 63144  1  0  0  0
 63145  1  0  0  0
 64146  1  0  0  0
 65147  1  0  0  0
 68 79  1  0  0  0
 71 80  1  0  0  0
 71 82  1  0  0  0
 71 83  2  0  0  0
 72 76  1  0  0  0
 72 82  2  0  0  0
 72 84  1  0  0  0
 73148  1  0  0  0
 73149  1  0  0  0
 73150  1  0  0  0
 73 81  1  0  0  0
 74 81  1  0  0  0
 74151  1  0  0  0
 74152  1  0  0  0
 74153  1  0  0  0
 75 85  1  0  0  0
 75154  1  0  0  0
 75155  1  0  0  0
 75156  1  0  0  0
 76 85  1  0  0  0
 76157  1  0  0  0
 76158  1  0  0  0
 77 78  1  0  0  0
 77 81  1  0  0  0
 77159  1  0  0  0
 77160  1  0  0  0
 78 84  1  0  0  0
 78161  1  0  0  0
 78162  1  0  0  0
 79 81  1  0  0  0
 79163  1  0  0  0
 79164  1  0  0  0
 80 86  1  0  0  0
 80 87  1  0  0  0
 80 88  1  0  0  0
 83 84  1  0  0  0
M  ISO  4   1 100  68 101  79 101  85 100
M  END
> <chiral flag>
0

> <version>
0

> <s_m_source_file>
/data/baiqing/PycharmProjects/Reinvent-master-3.2/result/LINK_invent/BTK/process_docking_weight1_custom_sum_contain_oxygen_bond_distance_aromatic_linkinvent_7_9_3/rearranged_h_0063.sdf

> <i_m_source_file_index>
49

> <r_mmod_Potential_Energy-OPLS-2005>
411.427124023438

> <r_mmod_Stretch_Energy-OPLS-2005>
134.90966796875

> <r_mmod_Bend_Energy-OPLS-2005>
197.389801025391

> <r_mmod_Torsional_Energy-OPLS-2005>
281.428100585938

> <r_mmod_Improper_Torsional_Energy-OPLS-2005>
7.07796001434326

> <r_mmod_Van_der_Waal_Energy-OPLS-2005>
127.372314453125

> <r_mmod_Electrostatic_Energy-OPLS-2005>
-231.699066162109

> <r_mmod_Solvation_Energy-OPLS-2005>
-182.126861572266

> <b_mmod_Minimization_Converged-OPLS-2005>
0

> <r_mmod_RMS_Derivative-OPLS-2005>
3.18018579483032

$$$$
51
                    3D
 Structure written by MMmdl.
162170  0  0  1  0            999 V2000
  -30.6787  -14.7513   20.5553 C   0  0  0  0  0  0
  -30.4361  -12.4827   19.5045 C   0  0  0  0  0  0
  -29.5200  -12.5238   18.2608 C   0  0  0  0  0  0
  -28.0498  -12.3386   18.6710 C   0  0  0  0  0  0
  -27.6513  -13.2436   19.8638 C   0  0  2  0  0  0
  -28.6872  -13.1937   21.0109 C   0  0  0  0  0  0
  -25.2559  -13.8269   20.5701 C   0  0  0  0  0  0
  -24.1836  -13.0499   20.9206 C   0  0  0  0  0  0
  -24.6420  -11.6969   20.8732 C   0  0  0  0  0  0
  -23.9098  -10.4338   21.0409 C   0  0  0  0  0  0
  -24.3670   -9.4254   21.9183 C   0  0  0  0  0  0
  -23.6357   -8.2284   22.0728 C   0  0  0  0  0  0
  -22.4338   -8.0320   21.3522 C   0  0  0  0  0  0
  -21.9968   -9.0289   20.4617 C   0  0  0  0  0  0
  -22.7275  -10.2182   20.3038 C   0  0  0  0  0  0
  -21.6882   -6.0754   22.5257 C   0  0  0  0  0  0
  -21.4023   -6.5640   23.8195 C   0  0  0  0  0  0
  -21.3672   -5.6792   24.9161 C   0  0  0  0  0  0
  -21.6072   -4.3056   24.7200 C   0  0  0  0  0  0
  -21.8830   -3.8140   23.4316 C   0  0  0  0  0  0
  -21.9213   -4.6974   22.3376 C   0  0  0  0  0  0
  -22.7850  -13.5256   21.1893 C   0  0  0  0  0  0
  -22.1670   -4.2158   21.0957 F   0  0  0  0  0  0
  -21.5664   -3.4531   25.7712 F   0  0  0  0  0  0
  -30.0046  -13.5439   20.4545 N   0  0  0  0  0  0
  -26.3005  -12.9482   20.3340 N   0  0  0  0  0  0
  -25.9372  -11.6608   20.5774 N   0  0  0  0  0  0
  -22.0529  -12.8181   22.0437 N   0  0  0  0  0  0
  -25.4292  -15.1987   20.4089 N   0  0  0  0  0  0
  -31.7958  -14.8521   20.0448 O   0  0  0  0  0  0
  -21.6696   -6.8908   21.4220 O   0  0  0  0  0  0
  -22.3491  -14.5545   20.6752 O   0  0  0  0  0  0
  -24.6351  -31.8506   23.2051 C   0  0  0  0  0  0
  -25.9184  -32.4710   23.8369 C   0  0  1  0  0  0
  -27.2197  -27.2404   20.1363 C   0  0  0  0  0  0
  -25.5971  -33.8510   24.2280 N   0  0  0  0  0  0
  -23.4326  -30.4823   21.5424 C   0  0  2  0  0  0
  -24.8819  -28.9356   20.1097 C   0  0  0  0  0  0
  -22.7516  -29.4590   22.4862 C   0  0  0  0  0  0
  -18.0292  -28.1365   22.8503 C   0  0  0  0  0  0
  -24.1486  -36.7274   23.2635 C   0  0  0  0  0  0
  -25.9837  -30.7614   21.3891 C   0  0  0  0  0  0
  -26.0568  -29.3849   20.7275 C   0  0  0  0  0  0
  -27.2264  -28.5507   20.7341 C   0  0  0  0  0  0
  -26.0206  -26.8841   19.4680 C   0  0  0  0  0  0
  -24.8717  -27.6912   19.4703 C   0  0  0  0  0  0
  -23.6560  -29.8271   20.1556 C   0  0  0  0  0  0
  -25.4097  -36.3020   24.0326 C   0  0  1  0  0  0
  -20.5912  -28.3681   23.1256 C   0  0  2  0  0  0
  -20.6788  -26.9382   22.5406 C   0  0  0  0  0  0
  -19.5754  -26.6363   21.5217 C   0  0  0  0  0  0
  -18.1936  -26.7917   22.1634 C   0  0  0  0  0  0
  -19.1558  -28.8834   23.2890 C   0  0  0  0  0  0
  -18.9459  -30.1435   23.8912 C   0  0  0  0  0  0
  -17.6458  -30.6573   24.0549 C   0  0  0  0  0  0
  -25.9036  -34.9393   23.5089 C   0  0  0  0  0  0
  -16.5349  -29.9057   23.6323 C   0  0  0  0  0  0
  -16.7289  -28.6467   23.0374 C   0  0  0  0  0  0
  -26.4550  -31.6549   25.0768 C   0  0  0  0  0  0
  -25.3821  -31.3700   26.1525 C   0  0  0  0  0  0
  -27.0412  -30.2954   24.6293 C   0  0  0  0  0  0
  -27.6081  -32.4302   25.7568 C   0  0  0  0  0  0
  -27.5570  -37.1769   24.8444 C   0  0  0  0  0  0
  -21.4213  -29.3053   22.3634 N   0  0  0  0  0  0
  -26.4260  -37.3730   23.9416 N   0  0  0  0  0  0
  -24.7024  -31.0492   22.0998 N   0  0  0  0  0  0
  -23.4214  -28.8088   23.2924 O   0  0  0  0  0  0
  -28.2827  -26.2946   20.2247 O   0  0  0  0  0  0
  -26.5573  -34.8886   22.4638 O   0  0  0  0  0  0
  -23.5513  -32.1298   23.7357 O   0  0  0  0  0  0
  -30.2366  -23.3557   20.4291 C   0  0  0  0  0  0
  -28.3926  -22.2498   20.5033 C   0  0  0  0  0  0
  -28.8269  -23.5670   20.3258 C   0  0  0  0  0  0
  -29.5812  -19.8002   22.6380 C   0  0  0  0  0  0
  -30.4892  -19.0865   18.9211 C   0  0  0  0  0  0
  -31.7128  -18.5725   20.9817 C   0  0  0  0  0  0
  -29.9090  -16.0165   22.5255 C   0  0  0  0  0  0
  -27.9258  -24.8432   19.9960 C   0  0  0  0  0  0
  -29.5991  -17.1518   20.3220 C   0  0  0  0  0  0
  -29.4061  -19.8437   21.1060 C   0  0  2  0  0  0
  -30.2831  -18.6492   20.3885 C   0  0  0  0  0  0
  -30.5934  -22.0731   20.6624 N   0  0  0  0  0  0
  -29.4515  -21.3290   20.6812 N   0  0  0  0  0  0
  -30.0472  -15.8883   21.0718 N   0  0  0  0  0  0
  -31.4767  -12.5998   19.2009 H   0  0  0  0  0  0
  -30.3760  -11.5058   19.9847 H   0  0  0  0  0  0
  -29.8069  -11.7394   17.5605 H   0  0  0  0  0  0
  -29.6463  -13.4682   17.7326 H   0  0  0  0  0  0
  -27.9154  -11.2870   18.9355 H   0  0  0  0  0  0
  -27.3942  -12.5240   17.8201 H   0  0  0  0  0  0
  -27.6439  -14.2627   19.4784 H   0  0  0  0  0  0
  -28.7167  -12.2078   21.4730 H   0  0  0  0  0  0
  -28.3880  -13.8917   21.7948 H   0  0  0  0  0  0
  -25.2827   -9.5749   22.4733 H   0  0  0  0  0  0
  -24.0093   -7.4676   22.7425 H   0  0  0  0  0  0
  -21.0923   -8.8814   19.8890 H   0  0  0  0  0  0
  -22.3762  -10.9732   19.6143 H   0  0  0  0  0  0
  -21.1972   -7.6140   23.9695 H   0  0  0  0  0  0
  -21.1511   -6.0511   25.9067 H   0  0  0  0  0  0
  -22.0593   -2.7590   23.2820 H   0  0  0  0  0  0
  -22.4194  -11.9847   22.4792 H   0  0  0  0  0  0
  -21.1108  -13.1085   22.2635 H   0  0  0  0  0  0
  -24.6758  -15.8674   20.5282 H   0  0  0  0  0  0
  -26.3026  -15.6274   20.1242 H   0  0  0  0  0  0
  -26.7251  -32.5350   23.1117 H   0  0  0  0  0  0
  -25.0188  -33.9615   25.0476 H   0  0  0  0  0  0
  -22.7340  -31.3091   21.3995 H   0  0  0  0  0  0
  -23.3735  -35.9614   23.3228 H   0  0  0  0  0  0
  -24.3616  -36.8965   22.2070 H   0  0  0  0  0  0
  -23.7258  -37.6464   23.6703 H   0  0  0  0  0  0
  -26.1362  -31.5249   20.6250 H   0  0  0  0  0  0
  -26.8581  -30.8026   22.0279 H   0  0  0  0  0  0
  -28.1188  -28.8814   21.2484 H   0  0  0  0  0  0
  -25.9174  -25.9461   18.9454 H   0  0  0  0  0  0
  -23.9756  -27.3421   18.9740 H   0  0  0  0  0  0
  -23.7939  -30.6108   19.4101 H   0  0  0  0  0  0
  -22.7717  -29.2733   19.8327 H   0  0  0  0  0  0
  -25.1280  -36.1840   25.0816 H   0  0  0  0  0  0
  -21.0055  -28.3255   24.1354 H   0  0  0  0  0  0
  -20.5688  -26.2262   23.3602 H   0  0  0  0  0  0
  -21.6638  -26.7387   22.1174 H   0  0  0  0  0  0
  -19.6897  -25.6273   21.1232 H   0  0  0  0  0  0
  -19.6710  -27.3184   20.6760 H   0  0  0  0  0  0
  -17.4206  -26.6694   21.4036 H   0  0  0  0  0  0
  -18.0320  -26.0037   22.9006 H   0  0  0  0  0  0
  -19.7918  -30.7248   24.2316 H   0  0  0  0  0  0
  -17.4985  -31.6260   24.5121 H   0  0  0  0  0  0
  -15.5341  -30.2956   23.7623 H   0  0  0  0  0  0
  -15.8684  -28.0762   22.7126 H   0  0  0  0  0  0
  -24.5981  -30.7037   25.7916 H   0  0  0  0  0  0
  -24.9063  -32.2877   26.4988 H   0  0  0  0  0  0
  -25.8213  -30.8888   27.0281 H   0  0  0  0  0  0
  -26.3009  -29.6683   24.1316 H   0  0  0  0  0  0
  -27.4059  -29.7233   25.4842 H   0  0  0  0  0  0
  -27.8910  -30.4200   23.9578 H   0  0  0  0  0  0
  -27.2637  -33.3577   26.2166 H   0  0  0  0  0  0
  -28.3923  -32.6908   25.0444 H   0  0  0  0  0  0
  -28.0724  -31.8425   26.5501 H   0  0  0  0  0  0
  -28.2503  -38.0140   24.7527 H   0  0  0  0  0  0
  -28.1139  -36.2663   24.6191 H   0  0  0  0  0  0
  -27.2293  -37.1322   25.8845 H   0  0  0  0  0  0
  -20.9351  -29.8838   21.6924 H   0  0  0  0  0  0
  -26.0112  -38.2774   24.1495 H   0  0  0  0  0  0
  -31.0169  -24.0990   20.3368 H   0  0  0  0  0  0
  -27.3760  -21.8810   20.5345 H   0  0  0  0  0  0
  -29.3087  -18.8272   23.0479 H   0  0  0  0  0  0
  -28.9664  -20.5521   23.1320 H   0  0  0  0  0  0
  -30.6122  -20.0141   22.9254 H   0  0  0  0  0  0
  -31.0469  -18.3464   18.3465 H   0  0  0  0  0  0
  -31.0564  -20.0160   18.8570 H   0  0  0  0  0  0
  -29.5372  -19.2522   18.4149 H   0  0  0  0  0  0
  -32.3365  -17.8474   20.4573 H   0  0  0  0  0  0
  -31.7218  -18.2936   22.0318 H   0  0  0  0  0  0
  -32.2102  -19.5408   20.9112 H   0  0  0  0  0  0
  -30.7319  -16.5964   22.9437 H   0  0  0  0  0  0
  -29.9141  -15.0496   23.0301 H   0  0  0  0  0  0
  -28.9779  -16.5195   22.7900 H   0  0  0  0  0  0
  -26.9795  -24.6815   20.5158 H   0  0  0  0  0  0
  -27.6873  -24.7670   18.9352 H   0  0  0  0  0  0
  -29.5927  -16.8351   19.2788 H   0  0  0  0  0  0
  -28.5373  -17.2685   20.5372 H   0  0  0  0  0  0
  -28.3671  -19.5644   20.9219 H   0  0  0  0  0  0
  1 25  1  0  0  0
  1 30  2  0  0  0
  1 84  1  0  0  0
  2  3  1  0  0  0
  2 25  1  0  0  0
  2 85  1  0  0  0
  2 86  1  0  0  0
  3  4  1  0  0  0
  3 87  1  0  0  0
  3 88  1  0  0  0
  4  5  1  0  0  0
  4 89  1  0  0  0
  4 90  1  0  0  0
  5  6  1  0  0  0
  5 26  1  0  0  0
  5 91  1  0  0  0
  6 25  1  0  0  0
  6 92  1  0  0  0
  6 93  1  0  0  0
  7  8  2  0  0  0
  7 26  1  0  0  0
  7 29  1  0  0  0
  8  9  1  0  0  0
  8 22  1  0  0  0
  9 10  1  0  0  0
  9 27  2  0  0  0
 10 11  2  0  0  0
 10 15  1  0  0  0
 11 12  1  0  0  0
 11 94  1  0  0  0
 12 13  2  0  0  0
 12 95  1  0  0  0
 13 14  1  0  0  0
 13 31  1  0  0  0
 14 15  2  0  0  0
 14 96  1  0  0  0
 15 97  1  0  0  0
 16 17  2  0  0  0
 16 21  1  0  0  0
 16 31  1  0  0  0
 17 18  1  0  0  0
 17 98  1  0  0  0
 18 19  2  0  0  0
 18 99  1  0  0  0
 19 20  1  0  0  0
 19 24  1  0  0  0
 20 21  2  0  0  0
 20100  1  0  0  0
 21 23  1  0  0  0
 22 28  1  0  0  0
 22 32  2  0  0  0
 26 27  1  0  0  0
 28101  1  0  0  0
 28102  1  0  0  0
 29103  1  0  0  0
 29104  1  0  0  0
 33 34  1  0  0  0
 33 66  1  0  0  0
 33 70  2  0  0  0
 34 36  1  0  0  0
 34 59  1  0  0  0
 34105  1  0  0  0
 35 44  2  0  0  0
 35 45  1  0  0  0
 35 68  1  0  0  0
 36 56  1  0  0  0
 36106  1  0  0  0
 37 39  1  0  0  0
 37 47  1  0  0  0
 37 66  1  0  0  0
 37107  1  0  0  0
 38 43  2  0  0  0
 38 46  1  0  0  0
 38 47  1  0  0  0
 39 64  1  0  0  0
 39 67  2  0  0  0
 40 52  1  0  0  0
 40 53  2  0  0  0
 40 58  1  0  0  0
 41108  1  0  0  0
 41109  1  0  0  0
 41110  1  0  0  0
 41 48  1  0  0  0
 42 43  1  0  0  0
 42 66  1  0  0  0
 42111  1  0  0  0
 42112  1  0  0  0
 43 44  1  0  0  0
 44113  1  0  0  0
 45 46  2  0  0  0
 45114  1  0  0  0
 46115  1  0  0  0
 47116  1  0  0  0
 47117  1  0  0  0
 48 56  1  0  0  0
 48 65  1  0  0  0
 48118  1  0  0  0
 49 50  1  0  0  0
 49 53  1  0  0  0
 49 64  1  0  0  0
 49119  1  0  0  0
 50 51  1  0  0  0
 50120  1  0  0  0
 50121  1  0  0  0
 51 52  1  0  0  0
 51122  1  0  0  0
 51123  1  0  0  0
 52124  1  0  0  0
 52125  1  0  0  0
 53 54  1  0  0  0
 54 55  2  0  0  0
 54126  1  0  0  0
 55 57  1  0  0  0
 55127  1  0  0  0
 56 69  2  0  0  0
 57 58  2  0  0  0
 57128  1  0  0  0
 58129  1  0  0  0
 59 60  1  0  0  0
 59 61  1  0  0  0
 59 62  1  0  0  0
 60130  1  0  0  0
 60131  1  0  0  0
 60132  1  0  0  0
 61133  1  0  0  0
 61134  1  0  0  0
 61135  1  0  0  0
 62136  1  0  0  0
 62137  1  0  0  0
 62138  1  0  0  0
 63 65  1  0  0  0
 63139  1  0  0  0
 63140  1  0  0  0
 63141  1  0  0  0
 64142  1  0  0  0
 65143  1  0  0  0
 68 78  1  0  0  0
 71 73  1  0  0  0
 71 82  2  0  0  0
 71144  1  0  0  0
 72 73  2  0  0  0
 72 83  1  0  0  0
 72145  1  0  0  0
 73 78  1  0  0  0
 74146  1  0  0  0
 74147  1  0  0  0
 74148  1  0  0  0
 74 80  1  0  0  0
 75149  1  0  0  0
 75150  1  0  0  0
 75151  1  0  0  0
 75 81  1  0  0  0
 76 81  1  0  0  0
 76152  1  0  0  0
 76153  1  0  0  0
 76154  1  0  0  0
 77 84  1  0  0  0
 77155  1  0  0  0
 77156  1  0  0  0
 77157  1  0  0  0
 78158  1  0  0  0
 78159  1  0  0  0
 79 81  1  0  0  0
 79 84  1  0  0  0
 79160  1  0  0  0
 79161  1  0  0  0
 80 81  1  0  0  0
 80 83  1  0  0  0
 80162  1  0  0  0
 82 83  1  0  0  0
M  ISO  4   1 100  68 101  78 101  84 100
M  END
> <chiral flag>
0

> <version>
0

> <s_m_source_file>
/data/baiqing/PycharmProjects/Reinvent-master-3.2/result/LINK_invent/BTK/process_docking_weight1_custom_sum_contain_oxygen_bond_distance_aromatic_linkinvent_7_9_3/rearranged_h_0063.sdf

> <i_m_source_file_index>
50

> <r_mmod_Potential_Energy-OPLS-2005>
431.728881835938

> <r_mmod_Stretch_Energy-OPLS-2005>
146.935317993164

> <r_mmod_Bend_Energy-OPLS-2005>
218.048873901367

> <r_mmod_Torsional_Energy-OPLS-2005>
349.503784179688

> <r_mmod_Improper_Torsional_Energy-OPLS-2005>
5.0260534286499

> <r_mmod_Van_der_Waal_Energy-OPLS-2005>
123.889389038086

> <r_mmod_Electrostatic_Energy-OPLS-2005>
-301.688018798828

> <r_mmod_Solvation_Energy-OPLS-2005>
-206.650009155273

> <b_mmod_Minimization_Converged-OPLS-2005>
0

> <r_mmod_RMS_Derivative-OPLS-2005>
4.2920823097229

$$$$
52
                    3D
 Structure written by MMmdl.
170178  0  0  1  0            999 V2000
  -30.4761  -15.0470   20.4108 C   0  0  0  0  0  0
  -30.4308  -12.6653   19.4522 C   0  0  0  0  0  0
  -29.4972  -12.5398   18.2198 C   0  0  0  0  0  0
  -28.0365  -12.2742   18.6371 C   0  0  0  0  0  0
  -27.6024  -13.2093   19.7896 C   0  0  2  0  0  0
  -28.6576  -13.2262   20.9215 C   0  0  0  0  0  0
  -25.2210  -13.8008   20.5478 C   0  0  0  0  0  0
  -24.1632  -13.0272   20.9232 C   0  0  0  0  0  0
  -24.6275  -11.6796   20.8763 C   0  0  0  0  0  0
  -23.8965  -10.4191   21.0423 C   0  0  0  0  0  0
  -24.3560   -9.4133   21.9201 C   0  0  0  0  0  0
  -23.6257   -8.2172   22.0767 C   0  0  0  0  0  0
  -22.4235   -8.0207   21.3550 C   0  0  0  0  0  0
  -21.9864   -9.0146   20.4645 C   0  0  0  0  0  0
  -22.7160  -10.2030   20.3049 C   0  0  0  0  0  0
  -21.6829   -6.0714   22.5320 C   0  0  0  0  0  0
  -21.3985   -6.5615   23.8238 C   0  0  0  0  0  0
  -21.3638   -5.6768   24.9190 C   0  0  0  0  0  0
  -21.6043   -4.3049   24.7245 C   0  0  0  0  0  0
  -21.8818   -3.8134   23.4367 C   0  0  0  0  0  0
  -21.9181   -4.6938   22.3421 C   0  0  0  0  0  0
  -22.7675  -13.5104   21.1892 C   0  0  0  0  0  0
  -22.1668   -4.2139   21.1008 F   0  0  0  0  0  0
  -21.5609   -3.4536   25.7757 F   0  0  0  0  0  0
  -29.9019  -13.7590   20.3342 N   0  0  0  0  0  0
  -26.2674  -12.9234   20.2956 N   0  0  0  0  0  0
  -25.9183  -11.6405   20.5649 N   0  0  0  0  0  0
  -22.0323  -12.8122   22.0481 N   0  0  0  0  0  0
  -25.3443  -15.1738   20.3674 N   0  0  0  0  0  0
  -31.6782  -15.0898   20.1121 O   0  0  0  0  0  0
  -21.6591   -6.8828   21.4270 O   0  0  0  0  0  0
  -22.3346  -14.5393   20.6677 O   0  0  0  0  0  0
  -24.6518  -31.8460   23.1819 C   0  0  0  0  0  0
  -25.9280  -32.4720   23.8246 C   0  0  1  0  0  0
  -27.1743  -27.0603   20.1493 C   0  0  0  0  0  0
  -25.6021  -33.8513   24.2198 N   0  0  0  0  0  0
  -23.4540  -30.4724   21.5231 C   0  0  2  0  0  0
  -24.8932  -28.8802   20.1178 C   0  0  0  0  0  0
  -22.7583  -29.4638   22.4732 C   0  0  0  0  0  0
  -18.0347  -28.1522   22.8504 C   0  0  0  0  0  0
  -24.1455  -36.7171   23.2647 C   0  0  0  0  0  0
  -26.0185  -30.6908   21.3941 C   0  0  0  0  0  0
  -26.0781  -29.2920   20.7405 C   0  0  0  0  0  0
  -27.2215  -28.3937   20.7452 C   0  0  0  0  0  0
  -25.9598  -26.7708   19.4966 C   0  0  0  0  0  0
  -24.8449  -27.6310   19.4910 C   0  0  0  0  0  0
  -23.6911  -29.8099   20.1459 C   0  0  0  0  0  0
  -25.4092  -36.2996   24.0334 C   0  0  1  0  0  0
  -20.5979  -28.3845   23.1186 C   0  0  2  0  0  0
  -20.6871  -26.9534   22.5392 C   0  0  0  0  0  0
  -19.5799  -26.6488   21.5241 C   0  0  0  0  0  0
  -18.1981  -26.8074   22.1660 C   0  0  0  0  0  0
  -19.1626  -28.8950   23.2879 C   0  0  0  0  0  0
  -18.9538  -30.1560   23.8905 C   0  0  0  0  0  0
  -17.6550  -30.6690   24.0579 C   0  0  0  0  0  0
  -25.9066  -34.9410   23.5012 C   0  0  0  0  0  0
  -16.5410  -29.9201   23.6384 C   0  0  0  0  0  0
  -16.7336  -28.6646   23.0376 C   0  0  0  0  0  0
  -26.4599  -31.6555   25.0643 C   0  0  0  0  0  0
  -25.3784  -31.3756   26.1320 C   0  0  0  0  0  0
  -27.0493  -30.2963   24.6211 C   0  0  0  0  0  0
  -27.6111  -32.4328   25.7450 C   0  0  0  0  0  0
  -27.5534  -37.1745   24.8496 C   0  0  0  0  0  0
  -21.4269  -29.3136   22.3464 N   0  0  0  0  0  0
  -26.4217  -37.3751   23.9467 N   0  0  0  0  0  0
  -24.7287  -31.0269   22.0887 N   0  0  0  0  0  0
  -23.4179  -28.8179   23.2925 O   0  0  0  0  0  0
  -28.2354  -26.0688   20.0376 O   0  0  0  0  0  0
  -26.5572  -34.8906   22.4556 O   0  0  0  0  0  0
  -23.5613  -32.1374   23.6971 O   0  0  0  0  0  0
  -29.3324  -19.9784   22.8938 C   0  0  0  0  0  0
  -29.6116  -19.1101   20.9880 C   0  0  0  0  0  0
  -30.4527  -20.2292   17.9312 C   0  0  0  0  0  0
  -26.8721  -22.4467   20.4435 C   0  0  0  0  0  0
  -27.7633  -23.5292   18.4751 C   0  0  0  0  0  0
  -30.7545  -22.3773   19.9811 C   0  0  0  0  0  0
  -28.4117  -16.2865   21.2147 C   0  0  0  0  0  0
  -29.9999  -17.7931   20.0679 C   0  0  0  0  0  0
  -29.3024  -21.1535   18.3809 C   0  0  0  0  0  0
  -28.1745  -23.1337   19.9211 C   0  0  0  0  0  0
  -29.3310  -21.7808   19.8289 C   0  0  2  0  0  0
  -28.3640  -24.7356   20.6536 C   0  0  2  0  0  0
  -27.6747  -24.8556   22.0617 C   0  0  0  0  0  0
  -29.6430  -18.8083   22.2851 N   0  0  0  0  0  0
  -29.1279  -21.0073   22.0955 N   0  0  0  0  0  0
  -29.2979  -20.5357   20.8289 N   0  0  0  0  0  0
  -29.7103  -16.2828   20.5371 N   0  0  0  0  0  0
  -29.6651  -24.7010   21.0233 F   0  0  0  0  0  0
  -28.0063  -23.8498   22.8675 F   0  0  0  0  0  0
  -28.0490  -25.9835   22.6813 F   0  0  0  0  0  0
  -26.3437  -24.8783   21.9575 F   0  0  0  0  0  0
  -31.4456  -12.8660   19.1089 H   0  0  0  0  0  0
  -30.4908  -11.7164   19.9897 H   0  0  0  0  0  0
  -29.8503  -11.7618   17.5395 H   0  0  0  0  0  0
  -29.5325  -13.4694   17.6486 H   0  0  0  0  0  0
  -27.9560  -11.2333   18.9544 H   0  0  0  0  0  0
  -27.3722  -12.3783   17.7778 H   0  0  0  0  0  0
  -27.5483  -14.1822   19.3063 H   0  0  0  0  0  0
  -28.8012  -12.2125   21.2974 H   0  0  0  0  0  0
  -28.3205  -13.7947   21.7841 H   0  0  0  0  0  0
  -25.2721   -9.5620   22.4742 H   0  0  0  0  0  0
  -23.9977   -7.4555   22.7490 H   0  0  0  0  0  0
  -21.0800   -8.8601   19.8956 H   0  0  0  0  0  0
  -22.3611  -10.9515   19.6108 H   0  0  0  0  0  0
  -21.1977   -7.6125   23.9724 H   0  0  0  0  0  0
  -21.1450   -6.0508   25.9087 H   0  0  0  0  0  0
  -22.0610   -2.7607   23.2858 H   0  0  0  0  0  0
  -22.3958  -11.9799   22.4873 H   0  0  0  0  0  0
  -21.0903  -13.1116   22.2667 H   0  0  0  0  0  0
  -24.5390  -15.7794   20.4732 H   0  0  0  0  0  0
  -26.1541  -15.6495   19.9964 H   0  0  0  0  0  0
  -26.7308  -32.5276   23.0943 H   0  0  0  0  0  0
  -25.0371  -33.9721   25.0471 H   0  0  0  0  0  0
  -22.7621  -31.3038   21.3623 H   0  0  0  0  0  0
  -23.3764  -35.9455   23.3320 H   0  0  0  0  0  0
  -24.3556  -36.8774   22.2060 H   0  0  0  0  0  0
  -23.7154  -37.6354   23.6666 H   0  0  0  0  0  0
  -26.1944  -31.4405   20.6213 H   0  0  0  0  0  0
  -26.8867  -30.7347   22.0401 H   0  0  0  0  0  0
  -28.1270  -28.7028   21.2424 H   0  0  0  0  0  0
  -25.8194  -25.8391   18.9768 H   0  0  0  0  0  0
  -23.9300  -27.3112   19.0040 H   0  0  0  0  0  0
  -23.8766  -30.5845   19.4007 H   0  0  0  0  0  0
  -22.7975  -29.2840   19.8083 H   0  0  0  0  0  0
  -25.1298  -36.1790   25.0831 H   0  0  0  0  0  0
  -21.0149  -28.3478   24.1291 H   0  0  0  0  0  0
  -20.5836  -26.2458   23.3640 H   0  0  0  0  0  0
  -21.6725  -26.7613   22.1102 H   0  0  0  0  0  0
  -19.6935  -25.6393   21.1316 H   0  0  0  0  0  0
  -19.6740  -27.3272   20.6737 H   0  0  0  0  0  0
  -17.4272  -26.6893   21.4025 H   0  0  0  0  0  0
  -18.0259  -26.0270   22.9082 H   0  0  0  0  0  0
  -19.8006  -30.7400   24.2253 H   0  0  0  0  0  0
  -17.5130  -31.6366   24.5225 H   0  0  0  0  0  0
  -15.5446  -30.3112   23.7756 H   0  0  0  0  0  0
  -15.8747  -28.0989   22.7059 H   0  0  0  0  0  0
  -24.5993  -30.7054   25.7677 H   0  0  0  0  0  0
  -24.8913  -32.2930   26.4628 H   0  0  0  0  0  0
  -25.8089  -30.9047   27.0151 H   0  0  0  0  0  0
  -26.3129  -29.6653   24.1194 H   0  0  0  0  0  0
  -27.4148  -29.7308   25.4798 H   0  0  0  0  0  0
  -27.9037  -30.4295   23.9557 H   0  0  0  0  0  0
  -27.2770  -33.3743   26.1850 H   0  0  0  0  0  0
  -28.4042  -32.6690   25.0338 H   0  0  0  0  0  0
  -28.0622  -31.8499   26.5505 H   0  0  0  0  0  0
  -28.2549  -38.0044   24.7563 H   0  0  0  0  0  0
  -28.1028  -36.2573   24.6295 H   0  0  0  0  0  0
  -27.2281  -37.1367   25.8909 H   0  0  0  0  0  0
  -20.9443  -29.8789   21.6613 H   0  0  0  0  0  0
  -26.0042  -38.2780   24.1550 H   0  0  0  0  0  0
  -29.2859  -20.0792   23.9696 H   0  0  0  0  0  0
  -30.0736  -19.4072   17.3187 H   0  0  0  0  0  0
  -31.0158  -19.8159   18.7604 H   0  0  0  0  0  0
  -31.1733  -20.7695   17.3129 H   0  0  0  0  0  0
  -26.6701  -21.5124   19.9133 H   0  0  0  0  0  0
  -25.9802  -23.0604   20.3219 H   0  0  0  0  0  0
  -26.9414  -22.1704   21.4934 H   0  0  0  0  0  0
  -27.3570  -22.7005   17.8953 H   0  0  0  0  0  0
  -28.5883  -23.9714   17.9163 H   0  0  0  0  0  0
  -26.9493  -24.2401   18.4616 H   0  0  0  0  0  0
  -30.9427  -23.1643   19.2505 H   0  0  0  0  0  0
  -31.5456  -21.6375   19.8768 H   0  0  0  0  0  0
  -30.9119  -22.7846   20.9773 H   0  0  0  0  0  0
  -27.7334  -15.6069   20.7489 H   0  0  0  0  0  0
  -27.8660  -17.2276   21.1509 H   0  0  0  0  0  0
  -28.5203  -16.0314   22.2673 H   0  0  0  0  0  0
  -31.0709  -17.8461   19.8702 H   0  0  0  0  0  0
  -29.5212  -17.9210   19.0971 H   0  0  0  0  0  0
  -28.3592  -20.6226   18.2542 H   0  0  0  0  0  0
  -29.3313  -21.9172   17.6072 H   0  0  0  0  0  0
  1 25  1  0  0  0
  1 30  2  0  0  0
  1 87  1  0  0  0
  2  3  1  0  0  0
  2 25  1  0  0  0
  2 92  1  0  0  0
  2 93  1  0  0  0
  3  4  1  0  0  0
  3 94  1  0  0  0
  3 95  1  0  0  0
  4  5  1  0  0  0
  4 96  1  0  0  0
  4 97  1  0  0  0
  5  6  1  0  0  0
  5 26  1  0  0  0
  5 98  1  0  0  0
  6 25  1  0  0  0
  6 99  1  0  0  0
  6100  1  0  0  0
  7  8  2  0  0  0
  7 26  1  0  0  0
  7 29  1  0  0  0
  8  9  1  0  0  0
  8 22  1  0  0  0
  9 10  1  0  0  0
  9 27  2  0  0  0
 10 11  2  0  0  0
 10 15  1  0  0  0
 11 12  1  0  0  0
 11101  1  0  0  0
 12 13  2  0  0  0
 12102  1  0  0  0
 13 14  1  0  0  0
 13 31  1  0  0  0
 14 15  2  0  0  0
 14103  1  0  0  0
 15104  1  0  0  0
 16 17  2  0  0  0
 16 21  1  0  0  0
 16 31  1  0  0  0
 17 18  1  0  0  0
 17105  1  0  0  0
 18 19  2  0  0  0
 18106  1  0  0  0
 19 20  1  0  0  0
 19 24  1  0  0  0
 20 21  2  0  0  0
 20107  1  0  0  0
 21 23  1  0  0  0
 22 28  1  0  0  0
 22 32  2  0  0  0
 26 27  1  0  0  0
 28108  1  0  0  0
 28109  1  0  0  0
 29110  1  0  0  0
 29111  1  0  0  0
 33 34  1  0  0  0
 33 66  1  0  0  0
 33 70  2  0  0  0
 34 36  1  0  0  0
 34 59  1  0  0  0
 34112  1  0  0  0
 35 44  2  0  0  0
 35 45  1  0  0  0
 35 68  1  0  0  0
 36 56  1  0  0  0
 36113  1  0  0  0
 37 39  1  0  0  0
 37 47  1  0  0  0
 37 66  1  0  0  0
 37114  1  0  0  0
 38 43  2  0  0  0
 38 46  1  0  0  0
 38 47  1  0  0  0
 39 64  1  0  0  0
 39 67  2  0  0  0
 40 52  1  0  0  0
 40 53  2  0  0  0
 40 58  1  0  0  0
 41115  1  0  0  0
 41116  1  0  0  0
 41117  1  0  0  0
 41 48  1  0  0  0
 42 43  1  0  0  0
 42 66  1  0  0  0
 42118  1  0  0  0
 42119  1  0  0  0
 43 44  1  0  0  0
 44120  1  0  0  0
 45 46  2  0  0  0
 45121  1  0  0  0
 46122  1  0  0  0
 47123  1  0  0  0
 47124  1  0  0  0
 48 56  1  0  0  0
 48 65  1  0  0  0
 48125  1  0  0  0
 49 50  1  0  0  0
 49 53  1  0  0  0
 49 64  1  0  0  0
 49126  1  0  0  0
 50 51  1  0  0  0
 50127  1  0  0  0
 50128  1  0  0  0
 51 52  1  0  0  0
 51129  1  0  0  0
 51130  1  0  0  0
 52131  1  0  0  0
 52132  1  0  0  0
 53 54  1  0  0  0
 54 55  2  0  0  0
 54133  1  0  0  0
 55 57  1  0  0  0
 55134  1  0  0  0
 56 69  2  0  0  0
 57 58  2  0  0  0
 57135  1  0  0  0
 58136  1  0  0  0
 59 60  1  0  0  0
 59 61  1  0  0  0
 59 62  1  0  0  0
 60137  1  0  0  0
 60138  1  0  0  0
 60139  1  0  0  0
 61140  1  0  0  0
 61141  1  0  0  0
 61142  1  0  0  0
 62143  1  0  0  0
 62144  1  0  0  0
 62145  1  0  0  0
 63 65  1  0  0  0
 63146  1  0  0  0
 63147  1  0  0  0
 63148  1  0  0  0
 64149  1  0  0  0
 65150  1  0  0  0
 68 82  1  0  0  0
 71 84  1  0  0  0
 71 85  2  0  0  0
 71151  1  0  0  0
 72 78  1  0  0  0
 72 84  2  0  0  0
 72 86  1  0  0  0
 73 79  1  0  0  0
 73152  1  0  0  0
 73153  1  0  0  0
 73154  1  0  0  0
 74155  1  0  0  0
 74156  1  0  0  0
 74157  1  0  0  0
 74 80  1  0  0  0
 75 80  1  0  0  0
 75158  1  0  0  0
 75159  1  0  0  0
 75160  1  0  0  0
 76161  1  0  0  0
 76162  1  0  0  0
 76163  1  0  0  0
 76 81  1  0  0  0
 77 87  1  0  0  0
 77164  1  0  0  0
 77165  1  0  0  0
 77166  1  0  0  0
 78 87  1  0  0  0
 78167  1  0  0  0
 78168  1  0  0  0
 79 81  1  0  0  0
 79169  1  0  0  0
 79170  1  0  0  0
 80 81  1  0  0  0
 80 82  1  0  0  0
 81 86  1  0  0  0
 82 83  1  0  0  0
 82 88  1  0  0  0
 83 89  1  0  0  0
 83 90  1  0  0  0
 83 91  1  0  0  0
 85 86  1  0  0  0
M  ISO  4   1 100  68 101  82 101  87 100
M  END
> <chiral flag>
0

> <version>
0

> <s_m_source_file>
/data/baiqing/PycharmProjects/Reinvent-master-3.2/result/LINK_invent/BTK/process_docking_weight1_custom_sum_contain_oxygen_bond_distance_aromatic_linkinvent_7_9_3/rearranged_h_0063.sdf

> <i_m_source_file_index>
51

> <r_mmod_Potential_Energy-OPLS-2005>
1189.19958496094

> <r_mmod_Stretch_Energy-OPLS-2005>
418.105987548828

> <r_mmod_Bend_Energy-OPLS-2005>
433.094543457031

> <r_mmod_Torsional_Energy-OPLS-2005>
331.234405517578

> <r_mmod_Improper_Torsional_Energy-OPLS-2005>
8.0349760055542

> <r_mmod_Van_der_Waal_Energy-OPLS-2005>
169.273773193359

> <r_mmod_Electrostatic_Energy-OPLS-2005>
-222.99626159668

> <r_mmod_Solvation_Energy-OPLS-2005>
-203.104644775391

> <b_mmod_Minimization_Converged-OPLS-2005>
0

> <r_mmod_RMS_Derivative-OPLS-2005>
7.26289987564087

$$$$
53
                    3D
 Structure written by MMmdl.
163171  0  0  1  0            999 V2000
  -30.6548  -14.6532   20.4089 C   0  0  0  0  0  0
  -30.4224  -12.3796   19.4748 C   0  0  0  0  0  0
  -29.5068  -12.4578   18.2346 C   0  0  0  0  0  0
  -28.0295  -12.3132   18.6469 C   0  0  0  0  0  0
  -27.6401  -13.2248   19.8421 C   0  0  2  0  0  0
  -28.6837  -13.1616   20.9794 C   0  0  0  0  0  0
  -25.2500  -13.8187   20.5673 C   0  0  0  0  0  0
  -24.1787  -13.0441   20.9203 C   0  0  0  0  0  0
  -24.6368  -11.6916   20.8772 C   0  0  0  0  0  0
  -23.9046  -10.4297   21.0427 C   0  0  0  0  0  0
  -24.3606   -9.4202   21.9193 C   0  0  0  0  0  0
  -23.6282   -8.2234   22.0750 C   0  0  0  0  0  0
  -22.4271   -8.0277   21.3532 C   0  0  0  0  0  0
  -21.9906   -9.0256   20.4648 C   0  0  0  0  0  0
  -22.7223  -10.2136   20.3064 C   0  0  0  0  0  0
  -21.6851   -6.0738   22.5271 C   0  0  0  0  0  0
  -21.4016   -6.5640   23.8209 C   0  0  0  0  0  0
  -21.3659   -5.6782   24.9170 C   0  0  0  0  0  0
  -21.6041   -4.3046   24.7223 C   0  0  0  0  0  0
  -21.8813   -3.8143   23.4344 C   0  0  0  0  0  0
  -21.9183   -4.6963   22.3399 C   0  0  0  0  0  0
  -22.7808  -13.5245   21.1837 C   0  0  0  0  0  0
  -22.1645   -4.2143   21.0984 F   0  0  0  0  0  0
  -21.5632   -3.4537   25.7740 F   0  0  0  0  0  0
  -29.9977  -13.4524   20.3966 N   0  0  0  0  0  0
  -26.2918  -12.9382   20.3235 N   0  0  0  0  0  0
  -25.9292  -11.6533   20.5757 N   0  0  0  0  0  0
  -22.0414  -12.8291   22.0409 N   0  0  0  0  0  0
  -25.4218  -15.1908   20.4088 N   0  0  0  0  0  0
  -31.8670  -14.6904   20.1994 O   0  0  0  0  0  0
  -21.6620   -6.8880   21.4233 O   0  0  0  0  0  0
  -22.3517  -14.5530   20.6626 O   0  0  0  0  0  0
  -24.6209  -31.8631   23.2046 C   0  0  0  0  0  0
  -25.9079  -32.4802   23.8369 C   0  0  1  0  0  0
  -27.2294  -27.3574   20.1287 C   0  0  0  0  0  0
  -25.5895  -33.8591   24.2296 N   0  0  0  0  0  0
  -23.4118  -30.4862   21.5471 C   0  0  2  0  0  0
  -24.8622  -28.9453   20.1091 C   0  0  0  0  0  0
  -22.7430  -29.4635   22.4951 C   0  0  0  0  0  0
  -18.0272  -28.1368   22.8524 C   0  0  0  0  0  0
  -24.1476  -36.7312   23.2638 C   0  0  0  0  0  0
  -25.9479  -30.8091   21.3652 C   0  0  0  0  0  0
  -26.0273  -29.4374   20.7134 C   0  0  0  0  0  0
  -27.2155  -28.6559   20.7124 C   0  0  0  0  0  0
  -26.0503  -26.9083   19.4947 C   0  0  0  0  0  0
  -24.8764  -27.6857   19.4877 C   0  0  0  0  0  0
  -23.6248  -29.8197   20.1611 C   0  0  0  0  0  0
  -25.4089  -36.3091   24.0341 C   0  0  1  0  0  0
  -20.5868  -28.3659   23.1321 C   0  0  2  0  0  0
  -20.6744  -26.9386   22.5431 C   0  0  0  0  0  0
  -19.5710  -26.6380   21.5232 C   0  0  0  0  0  0
  -18.1899  -26.7921   22.1655 C   0  0  0  0  0  0
  -19.1524  -28.8830   23.2924 C   0  0  0  0  0  0
  -18.9461  -30.1444   23.8928 C   0  0  0  0  0  0
  -17.6458  -30.6588   24.0578 C   0  0  0  0  0  0
  -25.9041  -34.9460   23.5130 C   0  0  0  0  0  0
  -16.5347  -29.9100   23.6323 C   0  0  0  0  0  0
  -16.7264  -28.6504   23.0375 C   0  0  0  0  0  0
  -26.4472  -31.6596   25.0715 C   0  0  0  0  0  0
  -25.3724  -31.3765   26.1471 C   0  0  0  0  0  0
  -27.0297  -30.3017   24.6144 C   0  0  0  0  0  0
  -27.6032  -32.4331   25.7483 C   0  0  0  0  0  0
  -27.5577  -37.1801   24.8461 C   0  0  0  0  0  0
  -21.4140  -29.3040   22.3727 N   0  0  0  0  0  0
  -26.4267  -37.3790   23.9434 N   0  0  0  0  0  0
  -24.6795  -31.0678   22.0972 N   0  0  0  0  0  0
  -23.4173  -28.8143   23.3000 O   0  0  0  0  0  0
  -28.3466  -26.5238   20.1573 O   0  0  0  0  0  0
  -26.5616  -34.8924   22.4702 O   0  0  0  0  0  0
  -23.5395  -32.1404   23.7402 O   0  0  0  0  0  0
  -28.9357  -18.8333   21.0032 C   0  0  0  0  0  0
  -29.7049  -18.4530   19.8720 C   0  0  0  0  0  0
  -28.9481  -21.1259   20.3745 C   0  0  0  0  0  0
  -29.7574  -20.7528   19.2593 C   0  0  0  0  0  0
  -29.3510  -21.9160   17.0336 C   0  0  0  0  0  0
  -31.3678  -16.9871   18.6442 C   0  0  0  0  0  0
  -28.9099  -16.6800   18.3101 C   0  0  0  0  0  0
  -28.3204  -22.5377   20.6889 C   0  0  0  0  0  0
  -30.3014  -21.7241   18.2214 C   0  0  0  0  0  0
  -28.8188  -23.9243   20.0958 C   0  0  0  0  0  0
  -28.1445  -25.1949   20.7556 C   0  0  0  0  0  0
  -29.9897  -16.9723   19.3731 C   0  0  0  0  0  0
  -28.5657  -20.1345   21.2387 N   0  0  0  0  0  0
  -30.0867  -19.4504   19.0184 N   0  0  0  0  0  0
  -29.8793  -15.7917   20.3338 N   0  0  0  0  0  0
  -31.4664  -12.4763   19.1732 H   0  0  0  0  0  0
  -30.3398  -11.4079   19.9636 H   0  0  0  0  0  0
  -29.7740  -11.6724   17.5254 H   0  0  0  0  0  0
  -29.6581  -13.4037   17.7136 H   0  0  0  0  0  0
  -27.8730  -11.2689   18.9214 H   0  0  0  0  0  0
  -27.3781  -12.5005   17.7921 H   0  0  0  0  0  0
  -27.6353  -14.2417   19.4514 H   0  0  0  0  0  0
  -28.6874  -12.1784   21.4513 H   0  0  0  0  0  0
  -28.4390  -13.8805   21.7630 H   0  0  0  0  0  0
  -25.2754   -9.5680   22.4764 H   0  0  0  0  0  0
  -23.9976   -7.4640   22.7492 H   0  0  0  0  0  0
  -21.0820   -8.8792   19.8983 H   0  0  0  0  0  0
  -22.3680  -10.9679   19.6180 H   0  0  0  0  0  0
  -21.2008   -7.6150   23.9718 H   0  0  0  0  0  0
  -21.1485   -6.0515   25.9073 H   0  0  0  0  0  0
  -22.0593   -2.7604   23.2840 H   0  0  0  0  0  0
  -22.4000  -12.0007   22.4915 H   0  0  0  0  0  0
  -21.1020  -13.1341   22.2531 H   0  0  0  0  0  0
  -24.6544  -15.8467   20.5175 H   0  0  0  0  0  0
  -26.2632  -15.6248   20.0554 H   0  0  0  0  0  0
  -26.7147  -32.5497   23.1130 H   0  0  0  0  0  0
  -24.9999  -33.9746   25.0414 H   0  0  0  0  0  0
  -22.7048  -31.3068   21.4086 H   0  0  0  0  0  0
  -23.3736  -35.9649   23.3276 H   0  0  0  0  0  0
  -24.3578  -36.8956   22.2062 H   0  0  0  0  0  0
  -23.7234  -37.6512   23.6670 H   0  0  0  0  0  0
  -26.0673  -31.5697   20.5917 H   0  0  0  0  0  0
  -26.8338  -30.8660   21.9870 H   0  0  0  0  0  0
  -28.1094  -29.0330   21.1894 H   0  0  0  0  0  0
  -26.0370  -25.9425   19.0097 H   0  0  0  0  0  0
  -23.9870  -27.3079   19.0025 H   0  0  0  0  0  0
  -23.7323  -30.5995   19.4053 H   0  0  0  0  0  0
  -22.7459  -29.2447   19.8652 H   0  0  0  0  0  0
  -25.1266  -36.1934   25.0832 H   0  0  0  0  0  0
  -20.9997  -28.3227   24.1427 H   0  0  0  0  0  0
  -20.5622  -26.2275   23.3628 H   0  0  0  0  0  0
  -21.6614  -26.7404   22.1235 H   0  0  0  0  0  0
  -19.6850  -25.6302   21.1243 H   0  0  0  0  0  0
  -19.6630  -27.3212   20.6775 H   0  0  0  0  0  0
  -17.4172  -26.6714   21.4049 H   0  0  0  0  0  0
  -18.0271  -26.0044   22.9025 H   0  0  0  0  0  0
  -19.7937  -30.7253   24.2294 H   0  0  0  0  0  0
  -17.5022  -31.6263   24.5191 H   0  0  0  0  0  0
  -15.5355  -30.3023   23.7605 H   0  0  0  0  0  0
  -15.8665  -28.0823   22.7082 H   0  0  0  0  0  0
  -24.5848  -30.7159   25.7840 H   0  0  0  0  0  0
  -24.8970  -32.2953   26.4915 H   0  0  0  0  0  0
  -25.8052  -30.8936   27.0236 H   0  0  0  0  0  0
  -26.2861  -29.6785   24.1162 H   0  0  0  0  0  0
  -27.4007  -29.7254   25.4629 H   0  0  0  0  0  0
  -27.8720  -30.4319   23.9340 H   0  0  0  0  0  0
  -27.2636  -33.3629   26.2061 H   0  0  0  0  0  0
  -28.3835  -32.6902   25.0307 H   0  0  0  0  0  0
  -28.0698  -31.8453   26.5402 H   0  0  0  0  0  0
  -28.2585  -38.0108   24.7525 H   0  0  0  0  0  0
  -28.1076  -36.2646   24.6237 H   0  0  0  0  0  0
  -27.2311  -37.1411   25.8865 H   0  0  0  0  0  0
  -20.9271  -29.8847   21.7050 H   0  0  0  0  0  0
  -26.0145  -38.2858   24.1451 H   0  0  0  0  0  0
  -28.5649  -18.0915   21.6949 H   0  0  0  0  0  0
  -28.4027  -22.3506   17.3497 H   0  0  0  0  0  0
  -29.1371  -20.9655   16.5452 H   0  0  0  0  0  0
  -29.7880  -22.5810   16.2885 H   0  0  0  0  0  0
  -31.4037  -17.7117   17.8309 H   0  0  0  0  0  0
  -31.5970  -16.0392   18.1596 H   0  0  0  0  0  0
  -32.1775  -17.2364   19.3324 H   0  0  0  0  0  0
  -28.9429  -17.3929   17.4858 H   0  0  0  0  0  0
  -27.9095  -16.7407   18.7389 H   0  0  0  0  0  0
  -29.0217  -15.6863   17.8754 H   0  0  0  0  0  0
  -28.3285  -22.6365   21.7748 H   0  0  0  0  0  0
  -27.2655  -22.4483   20.4235 H   0  0  0  0  0  0
  -31.2523  -21.3366   17.8507 H   0  0  0  0  0  0
  -30.5725  -22.6732   18.6713 H   0  0  0  0  0  0
  -28.6304  -23.9492   19.0229 H   0  0  0  0  0  0
  -29.8954  -24.0133   20.2362 H   0  0  0  0  0  0
  -28.5230  -25.2694   21.7774 H   0  0  0  0  0  0
  -27.0842  -24.9776   20.8818 H   0  0  0  0  0  0
  -28.9410  -15.6453   20.6690 H   0  0  0  0  0  0
  1 25  1  0  0  0
  1 30  2  0  0  0
  1 85  1  0  0  0
  2  3  1  0  0  0
  2 25  1  0  0  0
  2 86  1  0  0  0
  2 87  1  0  0  0
  3  4  1  0  0  0
  3 88  1  0  0  0
  3 89  1  0  0  0
  4  5  1  0  0  0
  4 90  1  0  0  0
  4 91  1  0  0  0
  5  6  1  0  0  0
  5 26  1  0  0  0
  5 92  1  0  0  0
  6 25  1  0  0  0
  6 93  1  0  0  0
  6 94  1  0  0  0
  7  8  2  0  0  0
  7 26  1  0  0  0
  7 29  1  0  0  0
  8  9  1  0  0  0
  8 22  1  0  0  0
  9 10  1  0  0  0
  9 27  2  0  0  0
 10 11  2  0  0  0
 10 15  1  0  0  0
 11 12  1  0  0  0
 11 95  1  0  0  0
 12 13  2  0  0  0
 12 96  1  0  0  0
 13 14  1  0  0  0
 13 31  1  0  0  0
 14 15  2  0  0  0
 14 97  1  0  0  0
 15 98  1  0  0  0
 16 17  2  0  0  0
 16 21  1  0  0  0
 16 31  1  0  0  0
 17 18  1  0  0  0
 17 99  1  0  0  0
 18 19  2  0  0  0
 18100  1  0  0  0
 19 20  1  0  0  0
 19 24  1  0  0  0
 20 21  2  0  0  0
 20101  1  0  0  0
 21 23  1  0  0  0
 22 28  1  0  0  0
 22 32  2  0  0  0
 26 27  1  0  0  0
 28102  1  0  0  0
 28103  1  0  0  0
 29104  1  0  0  0
 29105  1  0  0  0
 33 34  1  0  0  0
 33 66  1  0  0  0
 33 70  2  0  0  0
 34 36  1  0  0  0
 34 59  1  0  0  0
 34106  1  0  0  0
 35 44  2  0  0  0
 35 45  1  0  0  0
 35 68  1  0  0  0
 36 56  1  0  0  0
 36107  1  0  0  0
 37 39  1  0  0  0
 37 47  1  0  0  0
 37 66  1  0  0  0
 37108  1  0  0  0
 38 43  2  0  0  0
 38 46  1  0  0  0
 38 47  1  0  0  0
 39 64  1  0  0  0
 39 67  2  0  0  0
 40 52  1  0  0  0
 40 53  2  0  0  0
 40 58  1  0  0  0
 41109  1  0  0  0
 41110  1  0  0  0
 41111  1  0  0  0
 41 48  1  0  0  0
 42 43  1  0  0  0
 42 66  1  0  0  0
 42112  1  0  0  0
 42113  1  0  0  0
 43 44  1  0  0  0
 44114  1  0  0  0
 45 46  2  0  0  0
 45115  1  0  0  0
 46116  1  0  0  0
 47117  1  0  0  0
 47118  1  0  0  0
 48 56  1  0  0  0
 48 65  1  0  0  0
 48119  1  0  0  0
 49 50  1  0  0  0
 49 53  1  0  0  0
 49 64  1  0  0  0
 49120  1  0  0  0
 50 51  1  0  0  0
 50121  1  0  0  0
 50122  1  0  0  0
 51 52  1  0  0  0
 51123  1  0  0  0
 51124  1  0  0  0
 52125  1  0  0  0
 52126  1  0  0  0
 53 54  1  0  0  0
 54 55  2  0  0  0
 54127  1  0  0  0
 55 57  1  0  0  0
 55128  1  0  0  0
 56 69  2  0  0  0
 57 58  2  0  0  0
 57129  1  0  0  0
 58130  1  0  0  0
 59 60  1  0  0  0
 59 61  1  0  0  0
 59 62  1  0  0  0
 60131  1  0  0  0
 60132  1  0  0  0
 60133  1  0  0  0
 61134  1  0  0  0
 61135  1  0  0  0
 61136  1  0  0  0
 62137  1  0  0  0
 62138  1  0  0  0
 62139  1  0  0  0
 63 65  1  0  0  0
 63140  1  0  0  0
 63141  1  0  0  0
 63142  1  0  0  0
 64143  1  0  0  0
 65144  1  0  0  0
 68 81  1  0  0  0
 71 72  2  0  0  0
 71 83  1  0  0  0
 71145  1  0  0  0
 72 82  1  0  0  0
 72 84  1  0  0  0
 73 74  1  0  0  0
 73 78  1  0  0  0
 73 83  2  0  0  0
 74 79  1  0  0  0
 74 84  2  0  0  0
 75 79  1  0  0  0
 75146  1  0  0  0
 75147  1  0  0  0
 75148  1  0  0  0
 76149  1  0  0  0
 76150  1  0  0  0
 76151  1  0  0  0
 76 82  1  0  0  0
 77 82  1  0  0  0
 77152  1  0  0  0
 77153  1  0  0  0
 77154  1  0  0  0
 78 80  1  0  0  0
 78155  1  0  0  0
 78156  1  0  0  0
 79157  1  0  0  0
 79158  1  0  0  0
 80 81  1  0  0  0
 80159  1  0  0  0
 80160  1  0  0  0
 81161  1  0  0  0
 81162  1  0  0  0
 82 85  1  0  0  0
 85163  1  0  0  0
M  ISO  4   1 100  68 101  81 101  85 100
M  END
> <chiral flag>
0

> <version>
0

> <s_m_source_file>
/data/baiqing/PycharmProjects/Reinvent-master-3.2/result/LINK_invent/BTK/process_docking_weight1_custom_sum_contain_oxygen_bond_distance_aromatic_linkinvent_7_9_3/rearranged_h_0063.sdf

> <i_m_source_file_index>
52

> <r_mmod_Potential_Energy-OPLS-2005>
140.647689819336

> <r_mmod_Stretch_Energy-OPLS-2005>
83.6886215209961

> <r_mmod_Bend_Energy-OPLS-2005>
166.151214599609

> <r_mmod_Torsional_Energy-OPLS-2005>
230.898696899414

> <r_mmod_Improper_Torsional_Energy-OPLS-2005>
11.1780471801758

> <r_mmod_Van_der_Waal_Energy-OPLS-2005>
155.025894165039

> <r_mmod_Electrostatic_Energy-OPLS-2005>
-344.431457519531

> <r_mmod_Solvation_Energy-OPLS-2005>
-214.769561767578

> <b_mmod_Minimization_Converged-OPLS-2005>
0

> <r_mmod_RMS_Derivative-OPLS-2005>
3.23417162895203

$$$$
54
                    3D
 Structure written by MMmdl.
154162  0  0  1  0            999 V2000
  -30.6578  -14.6334   20.4520 C   0  0  0  0  0  0
  -30.4205  -12.3768   19.4747 C   0  0  0  0  0  0
  -29.5077  -12.4855   18.2352 C   0  0  0  0  0  0
  -28.0305  -12.3338   18.6416 C   0  0  0  0  0  0
  -27.6450  -13.2259   19.8531 C   0  0  2  0  0  0
  -28.6853  -13.1291   20.9906 C   0  0  0  0  0  0
  -25.2518  -13.8207   20.5682 C   0  0  0  0  0  0
  -24.1801  -13.0462   20.9219 C   0  0  0  0  0  0
  -24.6379  -11.6935   20.8765 C   0  0  0  0  0  0
  -23.9049  -10.4314   21.0423 C   0  0  0  0  0  0
  -24.3610   -9.4223   21.9186 C   0  0  0  0  0  0
  -23.6294   -8.2251   22.0747 C   0  0  0  0  0  0
  -22.4276   -8.0280   21.3542 C   0  0  0  0  0  0
  -21.9908   -9.0253   20.4648 C   0  0  0  0  0  0
  -22.7228  -10.2141   20.3065 C   0  0  0  0  0  0
  -21.6860   -6.0732   22.5281 C   0  0  0  0  0  0
  -21.4012   -6.5635   23.8213 C   0  0  0  0  0  0
  -21.3667   -5.6783   24.9172 C   0  0  0  0  0  0
  -21.6048   -4.3046   24.7221 C   0  0  0  0  0  0
  -21.8818   -3.8138   23.4343 C   0  0  0  0  0  0
  -21.9194   -4.6957   22.3403 C   0  0  0  0  0  0
  -22.7815  -13.5240   21.1861 C   0  0  0  0  0  0
  -22.1664   -4.2146   21.0979 F   0  0  0  0  0  0
  -21.5633   -3.4532   25.7734 F   0  0  0  0  0  0
  -30.0020  -13.4322   20.4201 N   0  0  0  0  0  0
  -26.2939  -12.9402   20.3275 N   0  0  0  0  0  0
  -25.9305  -11.6556   20.5758 N   0  0  0  0  0  0
  -22.0450  -12.8250   22.0427 N   0  0  0  0  0  0
  -25.4216  -15.1925   20.4082 N   0  0  0  0  0  0
  -31.8517  -14.6869   20.1584 O   0  0  0  0  0  0
  -21.6643   -6.8876   21.4243 O   0  0  0  0  0  0
  -22.3510  -14.5531   20.6673 O   0  0  0  0  0  0
  -24.6210  -31.8600   23.1994 C   0  0  0  0  0  0
  -25.9058  -32.4782   23.8331 C   0  0  1  0  0  0
  -27.2328  -27.3386   20.1248 C   0  0  0  0  0  0
  -25.5882  -33.8584   24.2272 N   0  0  0  0  0  0
  -23.4153  -30.4796   21.5406 C   0  0  2  0  0  0
  -24.8631  -28.9315   20.1069 C   0  0  0  0  0  0
  -22.7447  -29.4625   22.4928 C   0  0  0  0  0  0
  -18.0278  -28.1386   22.8489 C   0  0  0  0  0  0
  -24.1485  -36.7306   23.2643 C   0  0  0  0  0  0
  -25.9506  -30.7968   21.3657 C   0  0  0  0  0  0
  -26.0248  -29.4225   20.7151 C   0  0  0  0  0  0
  -27.2059  -28.6342   20.7187 C   0  0  0  0  0  0
  -26.0494  -26.8849   19.4993 C   0  0  0  0  0  0
  -24.8763  -27.6685   19.4910 C   0  0  0  0  0  0
  -23.6292  -29.8077   20.1561 C   0  0  0  0  0  0
  -25.4110  -36.3099   24.0331 C   0  0  1  0  0  0
  -20.5872  -28.3684   23.1288 C   0  0  2  0  0  0
  -20.6768  -26.9412   22.5410 C   0  0  0  0  0  0
  -19.5742  -26.6386   21.5211 C   0  0  0  0  0  0
  -18.1926  -26.7930   22.1628 C   0  0  0  0  0  0
  -19.1529  -28.8848   23.2888 C   0  0  0  0  0  0
  -18.9461  -30.1452   23.8894 C   0  0  0  0  0  0
  -17.6464  -30.6586   24.0567 C   0  0  0  0  0  0
  -25.9033  -34.9459   23.5114 C   0  0  0  0  0  0
  -16.5356  -29.9090   23.6330 C   0  0  0  0  0  0
  -16.7271  -28.6513   23.0347 C   0  0  0  0  0  0
  -26.4467  -31.6583   25.0690 C   0  0  0  0  0  0
  -25.3716  -31.3699   26.1428 C   0  0  0  0  0  0
  -27.0296  -30.3016   24.6095 C   0  0  0  0  0  0
  -27.6040  -32.4304   25.7458 C   0  0  0  0  0  0
  -27.5581  -37.1809   24.8468 C   0  0  0  0  0  0
  -21.4165  -29.3031   22.3684 N   0  0  0  0  0  0
  -26.4297  -37.3786   23.9402 N   0  0  0  0  0  0
  -24.6808  -31.0627   22.0927 N   0  0  0  0  0  0
  -23.4184  -28.8176   23.3009 O   0  0  0  0  0  0
  -28.3875  -26.5565   20.2147 O   0  0  0  0  0  0
  -26.5628  -34.8927   22.4694 O   0  0  0  0  0  0
  -23.5381  -32.1391   23.7340 O   0  0  0  0  0  0
  -29.8005  -20.4935   21.0269 C   0  0  0  0  0  0
  -28.3274  -20.2452   19.2079 C   0  0  0  0  0  0
  -29.0209  -21.1441   20.0418 C   0  0  0  0  0  0
  -29.3881  -18.3901   20.1251 C   0  0  0  0  0  0
  -31.4793  -17.3434   19.1839 C   0  0  0  0  0  0
  -29.1471  -22.6665   19.6587 C   0  0  0  0  0  0
  -28.4113  -23.8753   20.3814 C   0  0  0  0  0  0
  -28.5472  -25.2455   19.5719 C   0  0  0  0  0  0
  -30.0555  -17.0300   19.7021 C   0  0  2  0  0  0
  -29.9772  -19.1396   21.0627 N   0  0  0  0  0  0
  -28.5279  -18.9038   19.2441 N   0  0  0  0  0  0
  -29.8960  -15.7709   20.5244 N   0  0  0  0  0  0
  -31.4678  -12.4663   19.1787 H   0  0  0  0  0  0
  -30.3264  -11.3944   19.9405 H   0  0  0  0  0  0
  -29.7717  -11.7194   17.5044 H   0  0  0  0  0  0
  -29.6622  -13.4467   17.7432 H   0  0  0  0  0  0
  -27.8651  -11.2845   18.8873 H   0  0  0  0  0  0
  -27.3820  -12.5498   17.7923 H   0  0  0  0  0  0
  -27.6513  -14.2532   19.4875 H   0  0  0  0  0  0
  -28.6850  -12.1295   21.4254 H   0  0  0  0  0  0
  -28.4419  -13.8167   21.8019 H   0  0  0  0  0  0
  -25.2768   -9.5692   22.4746 H   0  0  0  0  0  0
  -24.0012   -7.4636   22.7453 H   0  0  0  0  0  0
  -21.0842   -8.8760   19.8957 H   0  0  0  0  0  0
  -22.3685  -10.9662   19.6157 H   0  0  0  0  0  0
  -21.1999   -7.6144   23.9719 H   0  0  0  0  0  0
  -21.1497   -6.0513   25.9077 H   0  0  0  0  0  0
  -22.0592   -2.7602   23.2843 H   0  0  0  0  0  0
  -22.4060  -11.9946   22.4884 H   0  0  0  0  0  0
  -21.1051  -13.1254   22.2588 H   0  0  0  0  0  0
  -24.6450  -15.8375   20.5066 H   0  0  0  0  0  0
  -26.2549  -15.6314   20.0395 H   0  0  0  0  0  0
  -26.7139  -32.5471   23.1089 H   0  0  0  0  0  0
  -25.0006  -33.9734   25.0407 H   0  0  0  0  0  0
  -22.7099  -31.3000   21.3937 H   0  0  0  0  0  0
  -23.3739  -35.9649   23.3324 H   0  0  0  0  0  0
  -24.3584  -36.8900   22.2055 H   0  0  0  0  0  0
  -23.7244  -37.6518   23.6653 H   0  0  0  0  0  0
  -26.0738  -31.5547   20.5911 H   0  0  0  0  0  0
  -26.8372  -30.8539   21.9855 H   0  0  0  0  0  0
  -28.0955  -29.0073   21.2076 H   0  0  0  0  0  0
  -26.0024  -25.9092   19.0411 H   0  0  0  0  0  0
  -23.9826  -27.2828   19.0183 H   0  0  0  0  0  0
  -23.7461  -30.5817   19.3968 H   0  0  0  0  0  0
  -22.7516  -29.2314   19.8573 H   0  0  0  0  0  0
  -25.1290  -36.1961   25.0826 H   0  0  0  0  0  0
  -20.9977  -28.3256   24.1398 H   0  0  0  0  0  0
  -20.5657  -26.2296   23.3607 H   0  0  0  0  0  0
  -21.6641  -26.7431   22.1202 H   0  0  0  0  0  0
  -19.6903  -25.6293   21.1237 H   0  0  0  0  0  0
  -19.6679  -27.3202   20.6749 H   0  0  0  0  0  0
  -17.4195  -26.6670   21.4041 H   0  0  0  0  0  0
  -18.0332  -26.0082   22.9031 H   0  0  0  0  0  0
  -19.7944  -30.7269   24.2263 H   0  0  0  0  0  0
  -17.5024  -31.6263   24.5176 H   0  0  0  0  0  0
  -15.5359  -30.2996   23.7642 H   0  0  0  0  0  0
  -15.8678  -28.0832   22.7050 H   0  0  0  0  0  0
  -24.5914  -30.7010   25.7777 H   0  0  0  0  0  0
  -24.8870  -32.2847   26.4849 H   0  0  0  0  0  0
  -25.8059  -30.8906   27.0208 H   0  0  0  0  0  0
  -26.2843  -29.6775   24.1147 H   0  0  0  0  0  0
  -27.4056  -29.7249   25.4557 H   0  0  0  0  0  0
  -27.8688  -30.4328   23.9257 H   0  0  0  0  0  0
  -27.2674  -33.3622   26.2023 H   0  0  0  0  0  0
  -28.3862  -32.6828   25.0284 H   0  0  0  0  0  0
  -28.0696  -31.8422   26.5379 H   0  0  0  0  0  0
  -28.2614  -38.0093   24.7505 H   0  0  0  0  0  0
  -28.1062  -36.2622   24.6315 H   0  0  0  0  0  0
  -27.2299  -37.1485   25.8872 H   0  0  0  0  0  0
  -20.9335  -29.8768   21.6907 H   0  0  0  0  0  0
  -26.0180  -38.2865   24.1387 H   0  0  0  0  0  0
  -30.4026  -21.0639   21.7188 H   0  0  0  0  0  0
  -27.7086  -20.6082   18.3999 H   0  0  0  0  0  0
  -32.1608  -17.5499   20.0086 H   0  0  0  0  0  0
  -31.4653  -18.2264   18.5444 H   0  0  0  0  0  0
  -31.8991  -16.5439   18.5756 H   0  0  0  0  0  0
  -28.8744  -22.7274   18.6047 H   0  0  0  0  0  0
  -30.2150  -22.8919   19.6683 H   0  0  0  0  0  0
  -28.8269  -23.9955   21.3828 H   0  0  0  0  0  0
  -27.3536  -23.6516   20.5177 H   0  0  0  0  0  0
  -27.9799  -25.1878   18.6444 H   0  0  0  0  0  0
  -29.5814  -25.2820   19.2271 H   0  0  0  0  0  0
  -29.5099  -16.7458   18.8003 H   0  0  0  0  0  0
  -28.9622  -15.6433   20.8783 H   0  0  0  0  0  0
  1 25  1  0  0  0
  1 30  2  0  0  0
  1 82  1  0  0  0
  2  3  1  0  0  0
  2 25  1  0  0  0
  2 83  1  0  0  0
  2 84  1  0  0  0
  3  4  1  0  0  0
  3 85  1  0  0  0
  3 86  1  0  0  0
  4  5  1  0  0  0
  4 87  1  0  0  0
  4 88  1  0  0  0
  5  6  1  0  0  0
  5 26  1  0  0  0
  5 89  1  0  0  0
  6 25  1  0  0  0
  6 90  1  0  0  0
  6 91  1  0  0  0
  7  8  2  0  0  0
  7 26  1  0  0  0
  7 29  1  0  0  0
  8  9  1  0  0  0
  8 22  1  0  0  0
  9 10  1  0  0  0
  9 27  2  0  0  0
 10 11  2  0  0  0
 10 15  1  0  0  0
 11 12  1  0  0  0
 11 92  1  0  0  0
 12 13  2  0  0  0
 12 93  1  0  0  0
 13 14  1  0  0  0
 13 31  1  0  0  0
 14 15  2  0  0  0
 14 94  1  0  0  0
 15 95  1  0  0  0
 16 17  2  0  0  0
 16 21  1  0  0  0
 16 31  1  0  0  0
 17 18  1  0  0  0
 17 96  1  0  0  0
 18 19  2  0  0  0
 18 97  1  0  0  0
 19 20  1  0  0  0
 19 24  1  0  0  0
 20 21  2  0  0  0
 20 98  1  0  0  0
 21 23  1  0  0  0
 22 28  1  0  0  0
 22 32  2  0  0  0
 26 27  1  0  0  0
 28 99  1  0  0  0
 28100  1  0  0  0
 29101  1  0  0  0
 29102  1  0  0  0
 33 34  1  0  0  0
 33 66  1  0  0  0
 33 70  2  0  0  0
 34 36  1  0  0  0
 34 59  1  0  0  0
 34103  1  0  0  0
 35 44  2  0  0  0
 35 45  1  0  0  0
 35 68  1  0  0  0
 36 56  1  0  0  0
 36104  1  0  0  0
 37 39  1  0  0  0
 37 47  1  0  0  0
 37 66  1  0  0  0
 37105  1  0  0  0
 38 43  2  0  0  0
 38 46  1  0  0  0
 38 47  1  0  0  0
 39 64  1  0  0  0
 39 67  2  0  0  0
 40 52  1  0  0  0
 40 53  2  0  0  0
 40 58  1  0  0  0
 41106  1  0  0  0
 41107  1  0  0  0
 41108  1  0  0  0
 41 48  1  0  0  0
 42 43  1  0  0  0
 42 66  1  0  0  0
 42109  1  0  0  0
 42110  1  0  0  0
 43 44  1  0  0  0
 44111  1  0  0  0
 45 46  2  0  0  0
 45112  1  0  0  0
 46113  1  0  0  0
 47114  1  0  0  0
 47115  1  0  0  0
 48 56  1  0  0  0
 48 65  1  0  0  0
 48116  1  0  0  0
 49 50  1  0  0  0
 49 53  1  0  0  0
 49 64  1  0  0  0
 49117  1  0  0  0
 50 51  1  0  0  0
 50118  1  0  0  0
 50119  1  0  0  0
 51 52  1  0  0  0
 51120  1  0  0  0
 51121  1  0  0  0
 52122  1  0  0  0
 52123  1  0  0  0
 53 54  1  0  0  0
 54 55  2  0  0  0
 54124  1  0  0  0
 55 57  1  0  0  0
 55125  1  0  0  0
 56 69  2  0  0  0
 57 58  2  0  0  0
 57126  1  0  0  0
 58127  1  0  0  0
 59 60  1  0  0  0
 59 61  1  0  0  0
 59 62  1  0  0  0
 60128  1  0  0  0
 60129  1  0  0  0
 60130  1  0  0  0
 61131  1  0  0  0
 61132  1  0  0  0
 61133  1  0  0  0
 62134  1  0  0  0
 62135  1  0  0  0
 62136  1  0  0  0
 63 65  1  0  0  0
 63137  1  0  0  0
 63138  1  0  0  0
 63139  1  0  0  0
 64140  1  0  0  0
 65141  1  0  0  0
 68 78  1  0  0  0
 71 73  2  0  0  0
 71 80  1  0  0  0
 71142  1  0  0  0
 72 73  1  0  0  0
 72 81  2  0  0  0
 72143  1  0  0  0
 73 76  1  0  0  0
 74 79  1  0  0  0
 74 80  2  0  0  0
 74 81  1  0  0  0
 75144  1  0  0  0
 75145  1  0  0  0
 75146  1  0  0  0
 75 79  1  0  0  0
 76 77  1  0  0  0
 76147  1  0  0  0
 76148  1  0  0  0
 77 78  1  0  0  0
 77149  1  0  0  0
 77150  1  0  0  0
 78151  1  0  0  0
 78152  1  0  0  0
 79 82  1  0  0  0
 79153  1  0  0  0
 82154  1  0  0  0
M  ISO  4   1 100  68 101  78 101  82 100
M  END
> <chiral flag>
0

> <version>
0

> <s_m_source_file>
/data/baiqing/PycharmProjects/Reinvent-master-3.2/result/LINK_invent/BTK/process_docking_weight1_custom_sum_contain_oxygen_bond_distance_aromatic_linkinvent_7_9_3/rearranged_h_0063.sdf

> <i_m_source_file_index>
53

> <r_mmod_Potential_Energy-OPLS-2005>
-422.826080322266

> <r_mmod_Stretch_Energy-OPLS-2005>
71.3795013427734

> <r_mmod_Bend_Energy-OPLS-2005>
173.156311035156

> <r_mmod_Torsional_Energy-OPLS-2005>
230.279922485352

> <r_mmod_Improper_Torsional_Energy-OPLS-2005>
15.8743991851807

> <r_mmod_Van_der_Waal_Energy-OPLS-2005>
154.516159057617

> <r_mmod_Electrostatic_Energy-OPLS-2005>
-888.217041015625

> <r_mmod_Solvation_Energy-OPLS-2005>
-227.266555786133

> <b_mmod_Minimization_Converged-OPLS-2005>
0

> <r_mmod_RMS_Derivative-OPLS-2005>
2.20594835281372

$$$$
55
                    3D
 Structure written by MMmdl.
172180  0  0  1  0            999 V2000
  -30.3273  -15.3250   20.3151 C   0  0  0  0  0  0
  -30.4685  -12.8475   19.4964 C   0  0  0  0  0  0
  -29.5372  -12.5836   18.2788 C   0  0  0  0  0  0
  -28.0821  -12.2990   18.7084 C   0  0  0  0  0  0
  -27.6196  -13.2349   19.8517 C   0  0  2  0  0  0
  -28.6871  -13.3371   20.9598 C   0  0  0  0  0  0
  -25.2480  -13.8136   20.5785 C   0  0  0  0  0  0
  -24.1742  -13.0373   20.9155 C   0  0  0  0  0  0
  -24.6353  -11.6852   20.8732 C   0  0  0  0  0  0
  -23.9037  -10.4249   21.0383 C   0  0  0  0  0  0
  -24.3596   -9.4175   21.9157 C   0  0  0  0  0  0
  -23.6271   -8.2219   22.0743 C   0  0  0  0  0  0
  -22.4258   -8.0256   21.3532 C   0  0  0  0  0  0
  -21.9882   -9.0226   20.4641 C   0  0  0  0  0  0
  -22.7212  -10.2099   20.3035 C   0  0  0  0  0  0
  -21.6831   -6.0732   22.5289 C   0  0  0  0  0  0
  -21.3994   -6.5639   23.8220 C   0  0  0  0  0  0
  -21.3646   -5.6793   24.9182 C   0  0  0  0  0  0
  -21.6039   -4.3058   24.7243 C   0  0  0  0  0  0
  -21.8821   -3.8150   23.4369 C   0  0  0  0  0  0
  -21.9189   -4.6962   22.3420 C   0  0  0  0  0  0
  -22.7785  -13.5183   21.1817 C   0  0  0  0  0  0
  -22.1665   -4.2144   21.1002 F   0  0  0  0  0  0
  -21.5628   -3.4546   25.7760 F   0  0  0  0  0  0
  -29.8825  -13.9559   20.3404 N   0  0  0  0  0  0
  -26.2883  -12.9297   20.3453 N   0  0  0  0  0  0
  -25.9304  -11.6451   20.5832 N   0  0  0  0  0  0
  -22.0420  -12.8200   22.0391 N   0  0  0  0  0  0
  -25.4296  -15.1915   20.4381 N   0  0  0  0  0  0
  -31.5572  -15.3736   20.1361 O   0  0  0  0  0  0
  -21.6606   -6.8866   21.4250 O   0  0  0  0  0  0
  -22.3586  -14.5556   20.6717 O   0  0  0  0  0  0
  -24.6628  -31.8230   23.1698 C   0  0  0  0  0  0
  -25.9308  -32.4585   23.8166 C   0  0  1  0  0  0
  -27.2375  -26.9372   20.1685 C   0  0  0  0  0  0
  -25.5977  -33.8399   24.2074 N   0  0  0  0  0  0
  -23.4781  -30.4328   21.5183 C   0  0  2  0  0  0
  -24.9345  -28.8200   20.1094 C   0  0  0  0  0  0
  -22.7667  -29.4437   22.4780 C   0  0  0  0  0  0
  -18.0326  -28.1409   22.8466 C   0  0  0  0  0  0
  -24.1488  -36.7195   23.2640 C   0  0  0  0  0  0
  -26.0464  -30.6308   21.3994 C   0  0  0  0  0  0
  -26.1167  -29.2213   20.7425 C   0  0  0  0  0  0
  -27.2571  -28.2992   20.7514 C   0  0  0  0  0  0
  -26.0221  -26.6868   19.4892 C   0  0  0  0  0  0
  -24.9124  -27.5723   19.4648 C   0  0  0  0  0  0
  -23.7182  -29.7451   20.1455 C   0  0  0  0  0  0
  -25.4124  -36.2959   24.0300 C   0  0  1  0  0  0
  -20.5951  -28.3751   23.1188 C   0  0  2  0  0  0
  -20.6794  -26.9433   22.5404 C   0  0  0  0  0  0
  -19.5767  -26.6376   21.5213 C   0  0  0  0  0  0
  -18.1952  -26.7943   22.1620 C   0  0  0  0  0  0
  -19.1589  -28.8902   23.2812 C   0  0  0  0  0  0
  -18.9494  -30.1490   23.8852 C   0  0  0  0  0  0
  -17.6486  -30.6599   24.0557 C   0  0  0  0  0  0
  -25.9101  -34.9348   23.5011 C   0  0  0  0  0  0
  -16.5378  -29.9086   23.6348 C   0  0  0  0  0  0
  -16.7307  -28.6506   23.0368 C   0  0  0  0  0  0
  -26.4567  -31.6533   25.0695 C   0  0  0  0  0  0
  -25.3690  -31.3784   26.1349 C   0  0  0  0  0  0
  -27.0458  -30.2897   24.6425 C   0  0  0  0  0  0
  -27.6067  -32.4341   25.7491 C   0  0  0  0  0  0
  -27.5577  -37.1732   24.8453 C   0  0  0  0  0  0
  -21.4336  -29.3038   22.3532 N   0  0  0  0  0  0
  -26.4257  -37.3710   23.9437 N   0  0  0  0  0  0
  -24.7502  -30.9891   22.0833 N   0  0  0  0  0  0
  -23.4211  -28.8007   23.3028 O   0  0  0  0  0  0
  -28.2631  -25.8541   20.2855 O   0  0  0  0  0  0
  -26.5708  -34.8888   22.4605 O   0  0  0  0  0  0
  -23.5699  -32.1196   23.6792 O   0  0  0  0  0  0
  -28.7925  -19.7574   20.7050 C   0  0  0  0  0  0
  -30.1610  -20.6752   19.4415 C   0  0  0  0  0  0
  -29.5507  -18.5860   20.2174 C   0  0  0  0  0  0
  -28.3714  -16.6819   21.4558 C   0  0  0  0  0  0
  -28.7561  -25.6754   17.6060 C   0  0  0  0  0  0
  -30.6013  -24.3675   18.6000 C   0  0  0  0  0  0
  -28.6467  -23.2304   17.4372 C   0  0  0  0  0  0
  -27.3247  -22.5072   21.4008 C   0  0  0  0  0  0
  -29.6890  -23.1341   21.7067 C   0  0  0  0  0  0
  -28.5703  -16.6248   18.8768 C   0  0  0  0  0  0
  -28.3113  -24.2838   19.7573 C   0  0  1  0  0  0
  -29.3205  -16.8237   20.2442 C   0  0  2  0  0  0
  -29.0753  -24.3741   18.3824 C   0  0  0  0  0  0
  -28.6508  -22.7227   20.6468 C   0  0  0  0  0  0
  -30.4188  -19.3226   19.3785 N   0  0  0  0  0  0
  -29.1350  -21.1441   20.2134 N   0  0  0  0  0  0
  -27.1214  -16.9484   18.8692 N   0  3  0  0  0  0
  -31.4611  -13.1142   19.1314 H   0  0  0  0  0  0
  -30.6166  -11.9375   20.0808 H   0  0  0  0  0  0
  -29.9182  -11.7521   17.6835 H   0  0  0  0  0  0
  -29.5552  -13.4540   17.6230 H   0  0  0  0  0  0
  -28.0302  -11.2634   19.0472 H   0  0  0  0  0  0
  -27.4089  -12.3732   17.8537 H   0  0  0  0  0  0
  -27.5198  -14.2059   19.3920 H   0  0  0  0  0  0
  -28.9057  -12.3423   21.3512 H   0  0  0  0  0  0
  -28.3523  -13.8750   21.8410 H   0  0  0  0  0  0
  -25.2753   -9.5638   22.4709 H   0  0  0  0  0  0
  -23.9971   -7.4622   22.7472 H   0  0  0  0  0  0
  -21.0796   -8.8754   19.8975 H   0  0  0  0  0  0
  -22.3676  -10.9628   19.6131 H   0  0  0  0  0  0
  -21.1974   -7.6145   23.9722 H   0  0  0  0  0  0
  -21.1450   -6.0525   25.9077 H   0  0  0  0  0  0
  -22.0607   -2.7614   23.2888 H   0  0  0  0  0  0
  -22.3981  -11.9837   22.4769 H   0  0  0  0  0  0
  -21.1063  -13.1280   22.2613 H   0  0  0  0  0  0
  -24.4960  -15.5950   20.4533 H   0  0  0  0  0  0
  -25.8440  -15.4801   21.3186 H   0  0  0  0  0  0
  -26.7377  -32.5129   23.0883 H   0  0  0  0  0  0
  -25.0091  -33.9477   25.0203 H   0  0  0  0  0  0
  -22.7914  -31.2643   21.3455 H   0  0  0  0  0  0
  -23.3791  -35.9481   23.3216 H   0  0  0  0  0  0
  -24.3580  -36.8931   22.2072 H   0  0  0  0  0  0
  -23.7194  -37.6334   23.6754 H   0  0  0  0  0  0
  -26.2249  -31.3732   20.6200 H   0  0  0  0  0  0
  -26.9063  -30.6887   22.0545 H   0  0  0  0  0  0
  -28.1499  -28.6035   21.2791 H   0  0  0  0  0  0
  -25.8858  -25.7354   18.9997 H   0  0  0  0  0  0
  -24.0133  -27.2570   18.9531 H   0  0  0  0  0  0
  -23.8712  -30.5117   19.3858 H   0  0  0  0  0  0
  -22.8290  -29.1970   19.8297 H   0  0  0  0  0  0
  -25.1316  -36.1740   25.0788 H   0  0  0  0  0  0
  -21.0038  -28.3359   24.1308 H   0  0  0  0  0  0
  -20.5670  -26.2371   23.3642 H   0  0  0  0  0  0
  -21.6658  -26.7402   22.1216 H   0  0  0  0  0  0
  -19.6927  -25.6273   21.1275 H   0  0  0  0  0  0
  -19.6710  -27.3159   20.6719 H   0  0  0  0  0  0
  -17.4223  -26.6696   21.4024 H   0  0  0  0  0  0
  -18.0343  -26.0094   22.9021 H   0  0  0  0  0  0
  -19.7968  -30.7321   24.2202 H   0  0  0  0  0  0
  -17.5038  -31.6273   24.5163 H   0  0  0  0  0  0
  -15.5377  -30.2971   23.7694 H   0  0  0  0  0  0
  -15.8706  -28.0802   22.7118 H   0  0  0  0  0  0
  -24.5917  -30.7078   25.7673 H   0  0  0  0  0  0
  -24.8819  -32.2973   26.4618 H   0  0  0  0  0  0
  -25.7921  -30.9077   27.0230 H   0  0  0  0  0  0
  -26.3120  -29.6575   24.1410 H   0  0  0  0  0  0
  -27.3970  -29.7269   25.5085 H   0  0  0  0  0  0
  -27.9076  -30.4087   23.9853 H   0  0  0  0  0  0
  -27.2665  -33.3718   26.1899 H   0  0  0  0  0  0
  -28.3963  -32.6768   25.0367 H   0  0  0  0  0  0
  -28.0633  -31.8565   26.5538 H   0  0  0  0  0  0
  -28.2514  -38.0109   24.7608 H   0  0  0  0  0  0
  -28.1157  -36.2644   24.6145 H   0  0  0  0  0  0
  -27.2313  -37.1207   25.8854 H   0  0  0  0  0  0
  -20.9593  -29.8723   21.6653 H   0  0  0  0  0  0
  -26.0100  -38.2750   24.1522 H   0  0  0  0  0  0
  -27.9646  -19.7049   21.3979 H   0  0  0  0  0  0
  -30.7870  -21.3526   18.8845 H   0  0  0  0  0  0
  -27.6152  -17.4635   21.4911 H   0  0  0  0  0  0
  -28.9273  -16.7419   22.3902 H   0  0  0  0  0  0
  -27.8051  -15.7658   21.4516 H   0  0  0  0  0  0
  -29.2302  -25.6792   16.6235 H   0  0  0  0  0  0
  -29.1268  -26.5657   18.1155 H   0  0  0  0  0  0
  -27.6872  -25.8019   17.4405 H   0  0  0  0  0  0
  -31.1415  -24.4721   17.6584 H   0  0  0  0  0  0
  -30.9553  -23.4540   19.0649 H   0  0  0  0  0  0
  -30.9080  -25.1921   19.2442 H   0  0  0  0  0  0
  -29.1096  -23.3286   16.4542 H   0  0  0  0  0  0
  -27.5670  -23.2342   17.2797 H   0  0  0  0  0  0
  -28.9069  -22.2461   17.8046 H   0  0  0  0  0  0
  -26.9663  -23.4361   21.8487 H   0  0  0  0  0  0
  -27.4209  -21.7836   22.2101 H   0  0  0  0  0  0
  -26.5471  -22.1487   20.7257 H   0  0  0  0  0  0
  -29.4181  -24.0762   22.1846 H   0  0  0  0  0  0
  -30.6788  -23.2648   21.2737 H   0  0  0  0  0  0
  -29.7800  -22.3838   22.4927 H   0  0  0  0  0  0
  -28.7009  -15.6330   18.4519 H   0  0  0  0  0  0
  -29.0431  -17.2587   18.1272 H   0  0  0  0  0  0
  -27.2742  -24.1374   19.4602 H   0  0  0  0  0  0
  -26.5734  -16.3073   19.4386 H   0  0  0  0  0  0
  -26.7664  -16.8734   17.9314 H   0  0  0  0  0  0
  -26.9525  -17.8871   19.1844 H   0  0  0  0  0  0
  1 25  1  0  0  0
  1 30  2  0  0  0
  1 82  1  0  0  0
  2  3  1  0  0  0
  2 25  1  0  0  0
  2 88  1  0  0  0
  2 89  1  0  0  0
  3  4  1  0  0  0
  3 90  1  0  0  0
  3 91  1  0  0  0
  4  5  1  0  0  0
  4 92  1  0  0  0
  4 93  1  0  0  0
  5  6  1  0  0  0
  5 26  1  0  0  0
  5 94  1  0  0  0
  6 25  1  0  0  0
  6 95  1  0  0  0
  6 96  1  0  0  0
  7  8  2  0  0  0
  7 26  1  0  0  0
  7 29  1  0  0  0
  8  9  1  0  0  0
  8 22  1  0  0  0
  9 10  1  0  0  0
  9 27  2  0  0  0
 10 11  2  0  0  0
 10 15  1  0  0  0
 11 12  1  0  0  0
 11 97  1  0  0  0
 12 13  2  0  0  0
 12 98  1  0  0  0
 13 14  1  0  0  0
 13 31  1  0  0  0
 14 15  2  0  0  0
 14 99  1  0  0  0
 15100  1  0  0  0
 16 17  2  0  0  0
 16 21  1  0  0  0
 16 31  1  0  0  0
 17 18  1  0  0  0
 17101  1  0  0  0
 18 19  2  0  0  0
 18102  1  0  0  0
 19 20  1  0  0  0
 19 24  1  0  0  0
 20 21  2  0  0  0
 20103  1  0  0  0
 21 23  1  0  0  0
 22 28  1  0  0  0
 22 32  2  0  0  0
 26 27  1  0  0  0
 28104  1  0  0  0
 28105  1  0  0  0
 29106  1  0  0  0
 29107  1  0  0  0
 33 34  1  0  0  0
 33 66  1  0  0  0
 33 70  2  0  0  0
 34 36  1  0  0  0
 34 59  1  0  0  0
 34108  1  0  0  0
 35 44  2  0  0  0
 35 45  1  0  0  0
 35 68  1  0  0  0
 36 56  1  0  0  0
 36109  1  0  0  0
 37 39  1  0  0  0
 37 47  1  0  0  0
 37 66  1  0  0  0
 37110  1  0  0  0
 38 43  2  0  0  0
 38 46  1  0  0  0
 38 47  1  0  0  0
 39 64  1  0  0  0
 39 67  2  0  0  0
 40 52  1  0  0  0
 40 53  2  0  0  0
 40 58  1  0  0  0
 41111  1  0  0  0
 41112  1  0  0  0
 41113  1  0  0  0
 41 48  1  0  0  0
 42 43  1  0  0  0
 42 66  1  0  0  0
 42114  1  0  0  0
 42115  1  0  0  0
 43 44  1  0  0  0
 44116  1  0  0  0
 45 46  2  0  0  0
 45117  1  0  0  0
 46118  1  0  0  0
 47119  1  0  0  0
 47120  1  0  0  0
 48 56  1  0  0  0
 48 65  1  0  0  0
 48121  1  0  0  0
 49 50  1  0  0  0
 49 53  1  0  0  0
 49 64  1  0  0  0
 49122  1  0  0  0
 50 51  1  0  0  0
 50123  1  0  0  0
 50124  1  0  0  0
 51 52  1  0  0  0
 51125  1  0  0  0
 51126  1  0  0  0
 52127  1  0  0  0
 52128  1  0  0  0
 53 54  1  0  0  0
 54 55  2  0  0  0
 54129  1  0  0  0
 55 57  1  0  0  0
 55130  1  0  0  0
 56 69  2  0  0  0
 57 58  2  0  0  0
 57131  1  0  0  0
 58132  1  0  0  0
 59 60  1  0  0  0
 59 61  1  0  0  0
 59 62  1  0  0  0
 60133  1  0  0  0
 60134  1  0  0  0
 60135  1  0  0  0
 61136  1  0  0  0
 61137  1  0  0  0
 61138  1  0  0  0
 62139  1  0  0  0
 62140  1  0  0  0
 62141  1  0  0  0
 63 65  1  0  0  0
 63142  1  0  0  0
 63143  1  0  0  0
 63144  1  0  0  0
 64145  1  0  0  0
 65146  1  0  0  0
 68 81  1  0  0  0
 71 73  2  0  0  0
 71 86  1  0  0  0
 71147  1  0  0  0
 72 85  2  0  0  0
 72 86  1  0  0  0
 72148  1  0  0  0
 73 82  1  0  0  0
 73 85  1  0  0  0
 74149  1  0  0  0
 74150  1  0  0  0
 74151  1  0  0  0
 74 82  1  0  0  0
 75152  1  0  0  0
 75153  1  0  0  0
 75154  1  0  0  0
 75 83  1  0  0  0
 76 83  1  0  0  0
 76155  1  0  0  0
 76156  1  0  0  0
 76157  1  0  0  0
 77 83  1  0  0  0
 77158  1  0  0  0
 77159  1  0  0  0
 77160  1  0  0  0
 78161  1  0  0  0
 78162  1  0  0  0
 78163  1  0  0  0
 78 84  1  0  0  0
 79 84  1  0  0  0
 79164  1  0  0  0
 79165  1  0  0  0
 79166  1  0  0  0
 80 82  1  0  0  0
 80 87  1  0  0  0
 80167  1  0  0  0
 80168  1  0  0  0
 81 83  1  0  0  0
 81 84  1  0  0  0
 81169  1  0  0  0
 84 86  1  0  0  0
 87170  1  0  0  0
 87171  1  0  0  0
 87172  1  0  0  0
M  CHG  1  87   1
M  ISO  4   1 100  68 101  81 101  82 100
M  END
> <chiral flag>
0

> <version>
0

> <s_m_source_file>
/data/baiqing/PycharmProjects/Reinvent-master-3.2/result/LINK_invent/BTK/process_docking_weight1_custom_sum_contain_oxygen_bond_distance_aromatic_linkinvent_7_9_3/rearranged_h_0063.sdf

> <i_m_source_file_index>
54

> <r_mmod_Potential_Energy-OPLS-2005>
1392.943359375

> <r_mmod_Stretch_Energy-OPLS-2005>
671.24169921875

> <r_mmod_Bend_Energy-OPLS-2005>
538.398071289062

> <r_mmod_Torsional_Energy-OPLS-2005>
309.466064453125

> <r_mmod_Improper_Torsional_Energy-OPLS-2005>
15.9668521881104

> <r_mmod_Van_der_Waal_Energy-OPLS-2005>
129.433807373047

> <r_mmod_Electrostatic_Energy-OPLS-2005>
-287.279296875

> <r_mmod_Solvation_Energy-OPLS-2005>
-467.446716308594

> <b_mmod_Minimization_Converged-OPLS-2005>
0

> <r_mmod_RMS_Derivative-OPLS-2005>
1.73430466651917

$$$$
56
                    3D
 Structure written by MMmdl.
167175  0  0  1  0            999 V2000
  -30.5011  -15.0391   20.4722 C   0  0  0  0  0  0
  -30.4579  -12.6786   19.4774 C   0  0  0  0  0  0
  -29.5182  -12.5658   18.2497 C   0  0  0  0  0  0
  -28.0530  -12.3155   18.6685 C   0  0  0  0  0  0
  -27.6291  -13.2195   19.8529 C   0  0  2  0  0  0
  -28.6957  -13.1950   20.9732 C   0  0  0  0  0  0
  -25.2400  -13.8058   20.5744 C   0  0  0  0  0  0
  -24.1727  -13.0301   20.9283 C   0  0  0  0  0  0
  -24.6359  -11.6804   20.8822 C   0  0  0  0  0  0
  -23.9057  -10.4206   21.0476 C   0  0  0  0  0  0
  -24.3607   -9.4123   21.9243 C   0  0  0  0  0  0
  -23.6273   -8.2170   22.0792 C   0  0  0  0  0  0
  -22.4259   -8.0251   21.3563 C   0  0  0  0  0  0
  -21.9908   -9.0227   20.4663 C   0  0  0  0  0  0
  -22.7252  -10.2097   20.3093 C   0  0  0  0  0  0
  -21.6815   -6.0726   22.5296 C   0  0  0  0  0  0
  -21.3954   -6.5633   23.8227 C   0  0  0  0  0  0
  -21.3672   -5.6793   24.9200 C   0  0  0  0  0  0
  -21.6051   -4.3059   24.7259 C   0  0  0  0  0  0
  -21.8810   -3.8150   23.4376 C   0  0  0  0  0  0
  -21.9164   -4.6958   22.3426 C   0  0  0  0  0  0
  -22.7751  -13.5107   21.1891 C   0  0  0  0  0  0
  -22.1635   -4.2129   21.1015 F   0  0  0  0  0  0
  -21.5683   -3.4561   25.7790 F   0  0  0  0  0  0
  -29.9250  -13.7521   20.3765 N   0  0  0  0  0  0
  -26.2869  -12.9281   20.3364 N   0  0  0  0  0  0
  -25.9289  -11.6427   20.5806 N   0  0  0  0  0  0
  -22.0393  -12.8133   22.0483 N   0  0  0  0  0  0
  -25.3897  -15.1772   20.4102 N   0  0  0  0  0  0
  -31.7113  -15.0775   20.2127 O   0  0  0  0  0  0
  -21.6620   -6.8858   21.4249 O   0  0  0  0  0  0
  -22.3448  -14.5395   20.6719 O   0  0  0  0  0  0
  -24.6445  -31.8415   23.1856 C   0  0  0  0  0  0
  -25.9210  -32.4686   23.8246 C   0  0  1  0  0  0
  -27.2237  -27.1113   20.1761 C   0  0  0  0  0  0
  -25.5951  -33.8492   24.2167 N   0  0  0  0  0  0
  -23.4518  -30.4581   21.5306 C   0  0  2  0  0  0
  -24.9038  -28.8753   20.1169 C   0  0  0  0  0  0
  -22.7578  -29.4534   22.4845 C   0  0  0  0  0  0
  -18.0304  -28.1408   22.8464 C   0  0  0  0  0  0
  -24.1498  -36.7250   23.2640 C   0  0  0  0  0  0
  -26.0088  -30.7079   21.3897 C   0  0  0  0  0  0
  -26.0806  -29.3154   20.7361 C   0  0  0  0  0  0
  -27.2421  -28.4521   20.7429 C   0  0  0  0  0  0
  -26.0236  -26.7793   19.5104 C   0  0  0  0  0  0
  -24.8888  -27.6214   19.4862 C   0  0  0  0  0  0
  -23.6819  -29.7810   20.1525 C   0  0  0  0  0  0
  -25.4132  -36.3029   24.0312 C   0  0  1  0  0  0
  -20.5916  -28.3738   23.1228 C   0  0  2  0  0  0
  -20.6797  -26.9438   22.5399 C   0  0  0  0  0  0
  -19.5778  -26.6386   21.5208 C   0  0  0  0  0  0
  -18.1952  -26.7943   22.1610 C   0  0  0  0  0  0
  -19.1558  -28.8889   23.2840 C   0  0  0  0  0  0
  -18.9481  -30.1483   23.8870 C   0  0  0  0  0  0
  -17.6479  -30.6600   24.0563 C   0  0  0  0  0  0
  -25.9082  -34.9404   23.5053 C   0  0  0  0  0  0
  -16.5369  -29.9091   23.6345 C   0  0  0  0  0  0
  -16.7291  -28.6516   23.0355 C   0  0  0  0  0  0
  -26.4514  -31.6568   25.0705 C   0  0  0  0  0  0
  -25.3687  -31.3766   26.1393 C   0  0  0  0  0  0
  -27.0387  -30.2959   24.6321 C   0  0  0  0  0  0
  -27.6045  -32.4339   25.7494 C   0  0  0  0  0  0
  -27.5586  -37.1779   24.8455 C   0  0  0  0  0  0
  -21.4266  -29.3057   22.3589 N   0  0  0  0  0  0
  -26.4288  -37.3748   23.9411 N   0  0  0  0  0  0
  -24.7213  -31.0246   22.0898 N   0  0  0  0  0  0
  -23.4195  -28.8084   23.3016 O   0  0  0  0  0  0
  -28.2860  -26.1283   20.2149 O   0  0  0  0  0  0
  -26.5673  -34.8908   22.4637 O   0  0  0  0  0  0
  -23.5562  -32.1297   23.7073 O   0  0  0  0  0  0
  -28.7383  -19.3285   17.7992 C   0  0  0  0  0  0
  -29.5103  -18.9096   19.7166 C   0  0  0  0  0  0
  -30.4442  -23.6524   20.4477 C   0  0  0  0  0  0
  -28.9675  -23.3660   18.5054 C   0  0  0  0  0  0
  -27.2263  -21.5335   20.8087 C   0  0  0  0  0  0
  -29.4014  -21.3757   21.9532 C   0  0  0  0  0  0
  -28.3144  -16.3297   20.9173 C   0  0  0  0  0  0
  -30.1844  -17.8158   20.7186 C   0  0  0  0  0  0
  -28.0520  -24.6015   20.5161 C   0  0  0  0  0  0
  -28.2115  -19.1294   16.3948 C   0  0  0  0  0  0
  -29.0060  -23.2634   20.0417 C   0  0  0  0  0  0
  -28.7537  -21.6104   20.5731 C   0  0  0  0  0  0
  -29.3245  -18.3425   18.5237 N   0  0  0  0  0  0
  -28.5617  -20.4727   18.4437 N   0  0  0  0  0  0
  -29.0877  -20.3084   19.6902 N   0  0  0  0  0  0
  -29.7555  -16.2775   20.6528 N   0  0  0  0  0  0
  -26.8839  -18.9917   16.4263 F   0  0  0  0  0  0
  -28.5157  -20.1783   15.6274 F   0  0  0  0  0  0
  -28.7368  -18.0344   15.8390 F   0  0  0  0  0  0
  -31.4716  -12.8958   19.1355 H   0  0  0  0  0  0
  -30.5385  -11.7276   20.0035 H   0  0  0  0  0  0
  -29.8575  -11.7689   17.5879 H   0  0  0  0  0  0
  -29.5786  -13.4909   17.6754 H   0  0  0  0  0  0
  -27.9522  -11.2640   18.9416 H   0  0  0  0  0  0
  -27.3866  -12.4774   17.8202 H   0  0  0  0  0  0
  -27.5868  -14.2141   19.4226 H   0  0  0  0  0  0
  -28.8453  -12.1681   21.3070 H   0  0  0  0  0  0
  -28.4032  -13.7004   21.8871 H   0  0  0  0  0  0
  -25.2762   -9.5565   22.4826 H   0  0  0  0  0  0
  -23.9976   -7.4509   22.7469 H   0  0  0  0  0  0
  -21.0862   -8.8765   19.8920 H   0  0  0  0  0  0
  -22.3769  -10.9667   19.6203 H   0  0  0  0  0  0
  -21.1899   -7.6131   23.9736 H   0  0  0  0  0  0
  -21.1527   -6.0521   25.9105 H   0  0  0  0  0  0
  -22.0583   -2.7621   23.2866 H   0  0  0  0  0  0
  -22.3971  -11.9772   22.4845 H   0  0  0  0  0  0
  -21.1017  -13.1200   22.2695 H   0  0  0  0  0  0
  -24.6135  -15.8190   20.5331 H   0  0  0  0  0  0
  -26.2399  -15.6369   20.1164 H   0  0  0  0  0  0
  -26.7283  -32.5285   23.0978 H   0  0  0  0  0  0
  -25.0063  -33.9592   25.0291 H   0  0  0  0  0  0
  -22.7564  -31.2837   21.3689 H   0  0  0  0  0  0
  -23.3778  -35.9561   23.3272 H   0  0  0  0  0  0
  -24.3582  -36.8916   22.2059 H   0  0  0  0  0  0
  -23.7234  -37.6427   23.6701 H   0  0  0  0  0  0
  -26.1684  -31.4600   20.6160 H   0  0  0  0  0  0
  -26.8772  -30.7576   22.0344 H   0  0  0  0  0  0
  -28.1412  -28.7849   21.2422 H   0  0  0  0  0  0
  -25.9442  -25.8256   19.0106 H   0  0  0  0  0  0
  -23.9934  -27.2803   18.9848 H   0  0  0  0  0  0
  -23.8254  -30.5501   19.3924 H   0  0  0  0  0  0
  -22.7977  -29.2221   19.8416 H   0  0  0  0  0  0
  -25.1325  -36.1845   25.0802 H   0  0  0  0  0  0
  -21.0004  -28.3340   24.1356 H   0  0  0  0  0  0
  -20.5695  -26.2354   23.3621 H   0  0  0  0  0  0
  -21.6667  -26.7431   22.1206 H   0  0  0  0  0  0
  -19.6933  -25.6283   21.1281 H   0  0  0  0  0  0
  -19.6721  -27.3172   20.6720 H   0  0  0  0  0  0
  -17.4215  -26.6672   21.4023 H   0  0  0  0  0  0
  -18.0349  -26.0097   22.9018 H   0  0  0  0  0  0
  -19.7957  -30.7308   24.2227 H   0  0  0  0  0  0
  -17.5033  -31.6280   24.5163 H   0  0  0  0  0  0
  -15.5373  -30.2989   23.7690 H   0  0  0  0  0  0
  -15.8690  -28.0837   22.7083 H   0  0  0  0  0  0
  -24.5856  -30.7137   25.7694 H   0  0  0  0  0  0
  -24.8885  -32.2950   26.4777 H   0  0  0  0  0  0
  -25.7942  -30.8940   27.0196 H   0  0  0  0  0  0
  -26.3011  -29.6675   24.1317 H   0  0  0  0  0  0
  -27.3966  -29.7276   25.4915 H   0  0  0  0  0  0
  -27.8935  -30.4186   23.9669 H   0  0  0  0  0  0
  -27.2637  -33.3657   26.2021 H   0  0  0  0  0  0
  -28.3878  -32.6871   25.0337 H   0  0  0  0  0  0
  -28.0690  -31.8494   26.5446 H   0  0  0  0  0  0
  -28.2570  -38.0109   24.7550 H   0  0  0  0  0  0
  -28.1116  -36.2640   24.6229 H   0  0  0  0  0  0
  -27.2303  -37.1367   25.8854 H   0  0  0  0  0  0
  -20.9485  -29.8753   21.6742 H   0  0  0  0  0  0
  -26.0152  -38.2808   24.1436 H   0  0  0  0  0  0
  -30.7478  -24.5971   19.9950 H   0  0  0  0  0  0
  -31.1659  -22.8947   20.1394 H   0  0  0  0  0  0
  -30.5358  -23.7838   21.5259 H   0  0  0  0  0  0
  -29.1680  -24.3840   18.1689 H   0  0  0  0  0  0
  -27.9862  -23.0911   18.1174 H   0  0  0  0  0  0
  -29.7177  -22.7289   18.0365 H   0  0  0  0  0  0
  -26.8838  -22.2762   21.5291 H   0  0  0  0  0  0
  -26.9200  -20.5563   21.1853 H   0  0  0  0  0  0
  -26.6710  -21.7070   19.8857 H   0  0  0  0  0  0
  -29.1368  -22.1646   22.6600 H   0  0  0  0  0  0
  -30.4873  -21.3226   21.8879 H   0  0  0  0  0  0
  -29.0720  -20.4309   22.3885 H   0  0  0  0  0  0
  -27.9618  -15.6191   21.6491 H   0  0  0  0  0  0
  -27.7757  -16.2328   19.9797 H   0  0  0  0  0  0
  -27.9926  -17.2822   21.3402 H   0  0  0  0  0  0
  -31.2608  -17.8595   20.5525 H   0  0  0  0  0  0
  -30.0517  -18.1687   21.7409 H   0  0  0  0  0  0
  -28.0047  -24.5588   21.6046 H   0  0  0  0  0  0
  -27.0335  -24.3670   20.2120 H   0  0  0  0  0  0
  1 25  1  0  0  0
  1 30  2  0  0  0
  1 86  1  0  0  0
  2  3  1  0  0  0
  2 25  1  0  0  0
  2 90  1  0  0  0
  2 91  1  0  0  0
  3  4  1  0  0  0
  3 92  1  0  0  0
  3 93  1  0  0  0
  4  5  1  0  0  0
  4 94  1  0  0  0
  4 95  1  0  0  0
  5  6  1  0  0  0
  5 26  1  0  0  0
  5 96  1  0  0  0
  6 25  1  0  0  0
  6 97  1  0  0  0
  6 98  1  0  0  0
  7  8  2  0  0  0
  7 26  1  0  0  0
  7 29  1  0  0  0
  8  9  1  0  0  0
  8 22  1  0  0  0
  9 10  1  0  0  0
  9 27  2  0  0  0
 10 11  2  0  0  0
 10 15  1  0  0  0
 11 12  1  0  0  0
 11 99  1  0  0  0
 12 13  2  0  0  0
 12100  1  0  0  0
 13 14  1  0  0  0
 13 31  1  0  0  0
 14 15  2  0  0  0
 14101  1  0  0  0
 15102  1  0  0  0
 16 17  2  0  0  0
 16 21  1  0  0  0
 16 31  1  0  0  0
 17 18  1  0  0  0
 17103  1  0  0  0
 18 19  2  0  0  0
 18104  1  0  0  0
 19 20  1  0  0  0
 19 24  1  0  0  0
 20 21  2  0  0  0
 20105  1  0  0  0
 21 23  1  0  0  0
 22 28  1  0  0  0
 22 32  2  0  0  0
 26 27  1  0  0  0
 28106  1  0  0  0
 28107  1  0  0  0
 29108  1  0  0  0
 29109  1  0  0  0
 33 34  1  0  0  0
 33 66  1  0  0  0
 33 70  2  0  0  0
 34 36  1  0  0  0
 34 59  1  0  0  0
 34110  1  0  0  0
 35 44  2  0  0  0
 35 45  1  0  0  0
 35 68  1  0  0  0
 36 56  1  0  0  0
 36111  1  0  0  0
 37 39  1  0  0  0
 37 47  1  0  0  0
 37 66  1  0  0  0
 37112  1  0  0  0
 38 43  2  0  0  0
 38 46  1  0  0  0
 38 47  1  0  0  0
 39 64  1  0  0  0
 39 67  2  0  0  0
 40 52  1  0  0  0
 40 53  2  0  0  0
 40 58  1  0  0  0
 41113  1  0  0  0
 41114  1  0  0  0
 41115  1  0  0  0
 41 48  1  0  0  0
 42 43  1  0  0  0
 42 66  1  0  0  0
 42116  1  0  0  0
 42117  1  0  0  0
 43 44  1  0  0  0
 44118  1  0  0  0
 45 46  2  0  0  0
 45119  1  0  0  0
 46120  1  0  0  0
 47121  1  0  0  0
 47122  1  0  0  0
 48 56  1  0  0  0
 48 65  1  0  0  0
 48123  1  0  0  0
 49 50  1  0  0  0
 49 53  1  0  0  0
 49 64  1  0  0  0
 49124  1  0  0  0
 50 51  1  0  0  0
 50125  1  0  0  0
 50126  1  0  0  0
 51 52  1  0  0  0
 51127  1  0  0  0
 51128  1  0  0  0
 52129  1  0  0  0
 52130  1  0  0  0
 53 54  1  0  0  0
 54 55  2  0  0  0
 54131  1  0  0  0
 55 57  1  0  0  0
 55132  1  0  0  0
 56 69  2  0  0  0
 57 58  2  0  0  0
 57133  1  0  0  0
 58134  1  0  0  0
 59 60  1  0  0  0
 59 61  1  0  0  0
 59 62  1  0  0  0
 60135  1  0  0  0
 60136  1  0  0  0
 60137  1  0  0  0
 61138  1  0  0  0
 61139  1  0  0  0
 61140  1  0  0  0
 62141  1  0  0  0
 62142  1  0  0  0
 62143  1  0  0  0
 63 65  1  0  0  0
 63144  1  0  0  0
 63145  1  0  0  0
 63146  1  0  0  0
 64147  1  0  0  0
 65148  1  0  0  0
 68 79  1  0  0  0
 71 80  1  0  0  0
 71 83  1  0  0  0
 71 84  2  0  0  0
 72 78  1  0  0  0
 72 83  2  0  0  0
 72 85  1  0  0  0
 73149  1  0  0  0
 73150  1  0  0  0
 73151  1  0  0  0
 73 81  1  0  0  0
 74 81  1  0  0  0
 74152  1  0  0  0
 74153  1  0  0  0
 74154  1  0  0  0
 75155  1  0  0  0
 75156  1  0  0  0
 75157  1  0  0  0
 75 82  1  0  0  0
 76 82  1  0  0  0
 76158  1  0  0  0
 76159  1  0  0  0
 76160  1  0  0  0
 77 86  1  0  0  0
 77161  1  0  0  0
 77162  1  0  0  0
 77163  1  0  0  0
 78 86  1  0  0  0
 78164  1  0  0  0
 78165  1  0  0  0
 79 81  1  0  0  0
 79166  1  0  0  0
 79167  1  0  0  0
 80 87  1  0  0  0
 80 88  1  0  0  0
 80 89  1  0  0  0
 81 82  1  0  0  0
 82 85  1  0  0  0
 84 85  1  0  0  0
M  ISO  4   1 100  68 101  79 101  86 100
M  END
> <chiral flag>
0

> <version>
0

> <s_m_source_file>
/data/baiqing/PycharmProjects/Reinvent-master-3.2/result/LINK_invent/BTK/process_docking_weight1_custom_sum_contain_oxygen_bond_distance_aromatic_linkinvent_7_9_3/rearranged_h_0063.sdf

> <i_m_source_file_index>
55

> <r_mmod_Potential_Energy-OPLS-2005>
1005.02453613281

> <r_mmod_Stretch_Energy-OPLS-2005>
354.91259765625

> <r_mmod_Bend_Energy-OPLS-2005>
384.612365722656

> <r_mmod_Torsional_Energy-OPLS-2005>
308.1806640625

> <r_mmod_Improper_Torsional_Energy-OPLS-2005>
5.13659954071045

> <r_mmod_Van_der_Waal_Energy-OPLS-2005>
134.253234863281

> <r_mmod_Electrostatic_Energy-OPLS-2005>
-214.769805908203

> <r_mmod_Solvation_Energy-OPLS-2005>
-195.035430908203

> <b_mmod_Minimization_Converged-OPLS-2005>
0

> <r_mmod_RMS_Derivative-OPLS-2005>
3.08852386474609

$$$$
57
                    3D
 Structure written by MMmdl.
175183  0  0  1  0            999 V2000
  -29.6043  -14.2096   21.0146 C   0  0  0  0  0  0
  -30.6576  -12.5553   19.3207 C   0  0  0  0  0  0
  -29.8036  -12.5261   17.9818 C   0  0  0  0  0  0
  -28.2838  -12.2341   18.1034 C   0  0  0  0  0  0
  -27.9397  -12.9803   19.3102 C   0  0  2  0  0  0
  -28.7471  -12.2229   20.4630 C   0  0  0  0  0  0
  -25.2698  -14.2722   20.0113 C   0  0  0  0  0  0
  -24.2624  -13.5450   21.2243 C   0  0  0  0  0  0
  -24.8764  -11.9201   21.6477 C   0  0  0  0  0  0
  -24.0311  -10.6138   21.4790 C   0  0  0  0  0  0
  -24.4280   -9.4528   22.1754 C   0  0  0  0  0  0
  -23.6895   -8.2425   22.1530 C   0  0  0  0  0  0
  -22.5080   -8.1070   21.3913 C   0  0  0  0  0  0
  -22.1610   -9.1950   20.5564 C   0  0  0  0  0  0
  -22.9176  -10.4080   20.5822 C   0  0  0  0  0  0
  -21.7019   -6.1148   22.5058 C   0  0  0  0  0  0
  -21.4093   -6.5886   23.8060 C   0  0  0  0  0  0
  -21.3629   -5.6981   24.8996 C   0  0  0  0  0  0
  -21.5993   -4.3248   24.7026 C   0  0  0  0  0  0
  -21.8745   -3.8409   23.4117 C   0  0  0  0  0  0
  -21.9209   -4.7290   22.3195 C   0  0  0  0  0  0
  -22.7867  -13.7800   21.2826 C   0  0  0  0  0  0
  -22.1688   -4.2415   21.0805 F   0  0  0  0  0  0
  -21.5588   -3.4680   25.7524 F   0  0  0  0  0  0
  -29.8622  -12.9951   20.4931 N   0  0  0  0  0  0
  -26.6671  -13.0075   19.6881 N   0  0  0  0  0  0
  -26.3132  -11.6334   20.8234 N   0  0  0  0  0  0
  -22.0670  -12.9983   22.0827 N   0  0  0  0  0  0
  -25.3523  -15.5128   19.5247 N   0  0  0  0  0  0
  -30.5839  -14.9905   20.8310 O   0  0  0  0  0  0
  -21.7252   -6.9614   21.4089 O   0  0  0  0  0  0
  -22.2788  -14.6832   20.6371 O   0  0  0  0  0  0
  -24.6454  -31.8462   23.1949 C   0  0  0  0  0  0
  -25.9234  -32.4704   23.8304 C   0  0  1  0  0  0
  -27.0719  -27.0504   20.2176 C   0  0  0  0  0  0
  -25.5987  -33.8513   24.2203 N   0  0  0  0  0  0
  -23.4437  -30.4803   21.5419 C   0  0  2  0  0  0
  -24.8727  -28.9208   20.0964 C   0  0  0  0  0  0
  -22.7574  -29.4583   22.4847 C   0  0  0  0  0  0
  -18.0315  -28.1393   22.8482 C   0  0  0  0  0  0
  -24.1494  -36.7254   23.2640 C   0  0  0  0  0  0
  -26.0073  -30.6976   21.4066 C   0  0  0  0  0  0
  -26.0535  -29.3093   20.7449 C   0  0  0  0  0  0
  -27.1682  -28.3863   20.7925 C   0  0  0  0  0  0
  -25.9157  -26.8215   19.4507 C   0  0  0  0  0  0
  -24.8247  -27.7019   19.4192 C   0  0  0  0  0  0
  -23.6652  -29.8372   20.1501 C   0  0  0  0  0  0
  -25.4131  -36.3042   24.0311 C   0  0  1  0  0  0
  -20.5933  -28.3724   23.1225 C   0  0  2  0  0  0
  -20.6800  -26.9422   22.5400 C   0  0  0  0  0  0
  -19.5758  -26.6373   21.5223 C   0  0  0  0  0  0
  -18.1944  -26.7933   22.1634 C   0  0  0  0  0  0
  -19.1571  -28.8879   23.2849 C   0  0  0  0  0  0
  -18.9480  -30.1480   23.8866 C   0  0  0  0  0  0
  -17.6471  -30.6588   24.0555 C   0  0  0  0  0  0
  -25.9084  -34.9416   23.5066 C   0  0  0  0  0  0
  -16.5367  -29.9072   23.6340 C   0  0  0  0  0  0
  -16.7299  -28.6495   23.0362 C   0  0  0  0  0  0
  -26.4524  -31.6585   25.0758 C   0  0  0  0  0  0
  -25.3678  -31.3796   26.1434 C   0  0  0  0  0  0
  -27.0392  -30.2969   24.6393 C   0  0  0  0  0  0
  -27.6063  -32.4354   25.7526 C   0  0  0  0  0  0
  -27.5585  -37.1787   24.8462 C   0  0  0  0  0  0
  -21.4272  -29.3049   22.3587 N   0  0  0  0  0  0
  -26.4294  -37.3756   23.9410 N   0  0  0  0  0  0
  -24.7200  -31.0315   22.1009 N   0  0  0  0  0  0
  -23.4235  -28.8097   23.2956 O   0  0  0  0  0  0
  -27.9310  -25.9058   20.4142 O   0  0  0  0  0  0
  -26.5662  -34.8904   22.4636 O   0  0  0  0  0  0
  -23.5580  -32.1361   23.7170 O   0  0  0  0  0  0
  -27.5763  -17.8582   22.3519 C   0  0  0  0  0  0
  -26.5200  -16.9655   21.9090 C   0  0  0  0  0  0
  -26.7559  -19.9364   21.3273 C   0  0  0  0  0  0
  -25.6800  -19.0520   20.8653 C   0  0  0  0  0  0
  -24.9150  -20.1375   18.6836 C   0  0  0  0  0  0
  -23.5472  -20.4918   20.8502 C   0  0  0  0  0  0
  -23.4989  -18.3806   19.6232 C   0  0  0  0  0  0
  -25.1025  -14.4752   24.5444 C   0  0  0  0  0  0
  -24.3764  -16.6559   23.7479 C   0  0  0  0  0  0
  -26.6996  -21.6239   21.2901 C   0  0  0  0  0  0
  -27.7768  -22.8904   20.9204 C   0  0  0  0  0  0
  -26.5428  -13.7510   21.7677 C   0  0  0  0  0  0
  -27.2503  -24.4724   20.5282 C   0  0  0  0  0  0
  -26.1999  -15.3747   22.4766 C   0  0  2  0  0  0
  -24.4538  -19.5406   20.0331 C   0  0  0  0  0  0
  -27.6784  -19.2431   22.0958 N   0  0  0  0  0  0
  -25.5972  -17.6866   21.1798 N   0  0  0  0  0  0
  -28.1856  -14.4029   21.5559 N   0  0  0  0  0  0
  -24.9656  -15.3485   23.3476 N   0  3  0  0  0  0
  -31.5273  -13.2020   19.1892 H   0  0  0  0  0  0
  -31.0672  -11.5645   19.5216 H   0  0  0  0  0  0
  -30.2527  -11.8326   17.2689 H   0  0  0  0  0  0
  -29.9061  -13.5083   17.5153 H   0  0  0  0  0  0
  -28.0707  -11.1672   18.1935 H   0  0  0  0  0  0
  -27.7425  -12.6002   17.2298 H   0  0  0  0  0  0
  -28.1458  -14.0242   19.0519 H   0  0  0  0  0  0
  -28.9525  -11.1791   20.2047 H   0  0  0  0  0  0
  -28.4412  -12.0873   21.5054 H   0  0  0  0  0  0
  -25.3069   -9.5016   22.8028 H   0  0  0  0  0  0
  -24.0335   -7.4189   22.7622 H   0  0  0  0  0  0
  -21.2967   -9.1161   19.9110 H   0  0  0  0  0  0
  -22.6068  -11.2184   19.9378 H   0  0  0  0  0  0
  -21.2190   -7.6395   23.9660 H   0  0  0  0  0  0
  -21.1448   -6.0693   25.8907 H   0  0  0  0  0  0
  -22.0488   -2.7869   23.2561 H   0  0  0  0  0  0
  -22.4735  -12.2536   22.6278 H   0  0  0  0  0  0
  -21.0699  -13.1494   22.1453 H   0  0  0  0  0  0
  -24.8967  -16.3187   19.9455 H   0  0  0  0  0  0
  -26.1209  -15.7920   18.9274 H   0  0  0  0  0  0
  -26.7284  -32.5264   23.1009 H   0  0  0  0  0  0
  -25.0117  -33.9621   25.0341 H   0  0  0  0  0  0
  -22.7460  -31.3096   21.4032 H   0  0  0  0  0  0
  -23.3776  -35.9566   23.3286 H   0  0  0  0  0  0
  -24.3577  -36.8904   22.2058 H   0  0  0  0  0  0
  -23.7217  -37.6433   23.6684 H   0  0  0  0  0  0
  -26.1840  -31.4504   20.6376 H   0  0  0  0  0  0
  -26.8746  -30.7331   22.0540 H   0  0  0  0  0  0
  -28.0478  -28.6493   21.3631 H   0  0  0  0  0  0
  -25.7731  -25.9035   18.9070 H   0  0  0  0  0  0
  -23.9335  -27.4154   18.8781 H   0  0  0  0  0  0
  -23.8126  -30.6238   19.4094 H   0  0  0  0  0  0
  -22.7722  -29.2983   19.8284 H   0  0  0  0  0  0
  -25.1316  -36.1880   25.0803 H   0  0  0  0  0  0
  -21.0033  -28.3322   24.1345 H   0  0  0  0  0  0
  -20.5714  -26.2334   23.3624 H   0  0  0  0  0  0
  -21.6660  -26.7429   22.1177 H   0  0  0  0  0  0
  -19.6909  -25.6276   21.1268 H   0  0  0  0  0  0
  -19.6689  -27.3171   20.6743 H   0  0  0  0  0  0
  -17.4214  -26.6698   21.4039 H   0  0  0  0  0  0
  -18.0327  -26.0086   22.9037 H   0  0  0  0  0  0
  -19.7954  -30.7317   24.2212 H   0  0  0  0  0  0
  -17.5017  -31.6265   24.5160 H   0  0  0  0  0  0
  -15.5363  -30.2951   23.7682 H   0  0  0  0  0  0
  -15.8707  -28.0795   22.7085 H   0  0  0  0  0  0
  -24.5857  -30.7150   25.7739 H   0  0  0  0  0  0
  -24.8857  -32.2986   26.4786 H   0  0  0  0  0  0
  -25.7922  -30.9002   27.0262 H   0  0  0  0  0  0
  -26.3021  -29.6681   24.1387 H   0  0  0  0  0  0
  -27.3955  -29.7292   25.4998 H   0  0  0  0  0  0
  -27.8961  -30.4189   23.9765 H   0  0  0  0  0  0
  -27.2671  -33.3682   26.2042 H   0  0  0  0  0  0
  -28.3894  -32.6873   25.0360 H   0  0  0  0  0  0
  -28.0709  -31.8517   26.5484 H   0  0  0  0  0  0
  -28.2591  -38.0098   24.7539 H   0  0  0  0  0  0
  -28.1094  -36.2631   24.6263 H   0  0  0  0  0  0
  -27.2302  -37.1402   25.8862 H   0  0  0  0  0  0
  -20.9475  -29.8790   21.6794 H   0  0  0  0  0  0
  -26.0169  -38.2827   24.1415 H   0  0  0  0  0  0
  -28.3408  -17.4697   23.0077 H   0  0  0  0  0  0
  -25.5753  -20.9931   18.7675 H   0  0  0  0  0  0
  -24.0661  -20.4541   18.0753 H   0  0  0  0  0  0
  -25.4591  -19.3889   18.1065 H   0  0  0  0  0  0
  -24.0066  -21.4212   21.1638 H   0  0  0  0  0  0
  -23.1932  -20.0007   21.7568 H   0  0  0  0  0  0
  -22.6642  -20.7784   20.2782 H   0  0  0  0  0  0
  -23.9870  -17.6577   18.9725 H   0  0  0  0  0  0
  -22.6336  -18.7481   19.0694 H   0  0  0  0  0  0
  -23.1016  -17.8432   20.4858 H   0  0  0  0  0  0
  -24.1739  -14.4367   25.1146 H   0  0  0  0  0  0
  -25.8780  -14.8413   25.2197 H   0  0  0  0  0  0
  -25.3401  -13.4439   24.2912 H   0  0  0  0  0  0
  -23.6039  -16.5272   24.5063 H   0  0  0  0  0  0
  -23.8751  -17.1416   22.9131 H   0  0  0  0  0  0
  -25.1192  -17.3341   24.1709 H   0  0  0  0  0  0
  -26.2697  -21.8859   22.2565 H   0  0  0  0  0  0
  -25.9114  -21.8604   20.5963 H   0  0  0  0  0  0
  -28.3927  -22.5543   20.0864 H   0  0  0  0  0  0
  -28.4664  -22.9719   21.7603 H   0  0  0  0  0  0
  -24.9724  -12.4838   19.8951 H   0  0  0  0  0  0
  -26.6953  -13.1165   22.6477 H   0  0  0  0  0  0
  -26.3865  -24.6401   21.1739 H   0  0  0  0  0  0
  -26.8321  -24.2884   19.5414 H   0  0  0  0  0  0
  -26.9513  -15.4163   23.2684 H   0  0  0  0  0  0
  -28.1862  -15.3545   21.8849 H   0  0  0  0  0  0
  -24.2550  -14.9271   22.7672 H   0  0  0  0  0  0
  1 25  1  0  0  0
  1 30  2  0  0  0
  1 88  1  0  0  0
  2  3  1  0  0  0
  2 25  1  0  0  0
  2 90  1  0  0  0
  2 91  1  0  0  0
  3  4  1  0  0  0
  3 92  1  0  0  0
  3 93  1  0  0  0
  4  5  1  0  0  0
  4 94  1  0  0  0
  4 95  1  0  0  0
  5  6  1  0  0  0
  5 26  1  0  0  0
  5 96  1  0  0  0
  6 25  1  0  0  0
  6 97  1  0  0  0
  6 98  1  0  0  0
  7  8  2  0  0  0
  7 26  1  0  0  0
  7 29  1  0  0  0
  8  9  1  0  0  0
  8 22  1  0  0  0
  9 10  1  0  0  0
  9 27  2  0  0  0
 10 11  2  0  0  0
 10 15  1  0  0  0
 11 12  1  0  0  0
 11 99  1  0  0  0
 12 13  2  0  0  0
 12100  1  0  0  0
 13 14  1  0  0  0
 13 31  1  0  0  0
 14 15  2  0  0  0
 14101  1  0  0  0
 15102  1  0  0  0
 16 17  2  0  0  0
 16 21  1  0  0  0
 16 31  1  0  0  0
 17 18  1  0  0  0
 17103  1  0  0  0
 18 19  2  0  0  0
 18104  1  0  0  0
 19 20  1  0  0  0
 19 24  1  0  0  0
 20 21  2  0  0  0
 20105  1  0  0  0
 21 23  1  0  0  0
 22 28  1  0  0  0
 22 32  2  0  0  0
 26 27  1  0  0  0
 28106  1  0  0  0
 28107  1  0  0  0
 29108  1  0  0  0
 29109  1  0  0  0
 33 34  1  0  0  0
 33 66  1  0  0  0
 33 70  2  0  0  0
 34 36  1  0  0  0
 34 59  1  0  0  0
 34110  1  0  0  0
 35 44  2  0  0  0
 35 45  1  0  0  0
 35 68  1  0  0  0
 36 56  1  0  0  0
 36111  1  0  0  0
 37 39  1  0  0  0
 37 47  1  0  0  0
 37 66  1  0  0  0
 37112  1  0  0  0
 38 43  2  0  0  0
 38 46  1  0  0  0
 38 47  1  0  0  0
 39 64  1  0  0  0
 39 67  2  0  0  0
 40 52  1  0  0  0
 40 53  2  0  0  0
 40 58  1  0  0  0
 41113  1  0  0  0
 41114  1  0  0  0
 41115  1  0  0  0
 41 48  1  0  0  0
 42 43  1  0  0  0
 42 66  1  0  0  0
 42116  1  0  0  0
 42117  1  0  0  0
 43 44  1  0  0  0
 44118  1  0  0  0
 45 46  2  0  0  0
 45119  1  0  0  0
 46120  1  0  0  0
 47121  1  0  0  0
 47122  1  0  0  0
 48 56  1  0  0  0
 48 65  1  0  0  0
 48123  1  0  0  0
 49 50  1  0  0  0
 49 53  1  0  0  0
 49 64  1  0  0  0
 49124  1  0  0  0
 50 51  1  0  0  0
 50125  1  0  0  0
 50126  1  0  0  0
 51 52  1  0  0  0
 51127  1  0  0  0
 51128  1  0  0  0
 52129  1  0  0  0
 52130  1  0  0  0
 53 54  1  0  0  0
 54 55  2  0  0  0
 54131  1  0  0  0
 55 57  1  0  0  0
 55132  1  0  0  0
 56 69  2  0  0  0
 57 58  2  0  0  0
 57133  1  0  0  0
 58134  1  0  0  0
 59 60  1  0  0  0
 59 61  1  0  0  0
 59 62  1  0  0  0
 60135  1  0  0  0
 60136  1  0  0  0
 60137  1  0  0  0
 61138  1  0  0  0
 61139  1  0  0  0
 61140  1  0  0  0
 62141  1  0  0  0
 62142  1  0  0  0
 62143  1  0  0  0
 63 65  1  0  0  0
 63144  1  0  0  0
 63145  1  0  0  0
 63146  1  0  0  0
 64147  1  0  0  0
 65148  1  0  0  0
 68 83  1  0  0  0
 71 72  2  0  0  0
 71 86  1  0  0  0
 71149  1  0  0  0
 72 84  1  0  0  0
 72 87  1  0  0  0
 73 74  1  0  0  0
 73 80  1  0  0  0
 73 86  2  0  0  0
 74 85  1  0  0  0
 74 87  2  0  0  0
 75150  1  0  0  0
 75151  1  0  0  0
 75152  1  0  0  0
 75 85  1  0  0  0
 76 85  1  0  0  0
 76153  1  0  0  0
 76154  1  0  0  0
 76155  1  0  0  0
 77 85  1  0  0  0
 77156  1  0  0  0
 77157  1  0  0  0
 77158  1  0  0  0
 78159  1  0  0  0
 78160  1  0  0  0
 78161  1  0  0  0
 78 89  1  0  0  0
 79 89  1  0  0  0
 79162  1  0  0  0
 79163  1  0  0  0
 79164  1  0  0  0
 80 81  1  0  0  0
 80165  1  0  0  0
 80166  1  0  0  0
 81 83  1  0  0  0
 81167  1  0  0  0
 81168  1  0  0  0
 82 88  1  0  0  0
 82169  1  0  0  0
 82170  1  0  0  0
 82 84  1  0  0  0
 83171  1  0  0  0
 83172  1  0  0  0
 84 89  1  0  0  0
 84173  1  0  0  0
 88174  1  0  0  0
 89175  1  0  0  0
M  CHG  1  89   1
M  ISO  4   1 100  68 101  83 101  88 100
M  END
> <chiral flag>
0

> <version>
0

> <s_m_source_file>
/data/baiqing/PycharmProjects/Reinvent-master-3.2/result/LINK_invent/BTK/process_docking_weight1_custom_sum_contain_oxygen_bond_distance_aromatic_linkinvent_7_9_3/rearranged_h_0063.sdf

> <i_m_source_file_index>
56

> <r_mmod_Potential_Energy-OPLS-2005>
10317.248046875

> <r_mmod_Stretch_Energy-OPLS-2005>
6318.6982421875

> <r_mmod_Bend_Energy-OPLS-2005>
682.990356445312

> <r_mmod_Torsional_Energy-OPLS-2005>
390.786987304688

> <r_mmod_Improper_Torsional_Energy-OPLS-2005>
47.53955078125

> <r_mmod_Van_der_Waal_Energy-OPLS-2005>
2476.95361328125

> <r_mmod_Electrostatic_Energy-OPLS-2005>
-278.284912109375

> <r_mmod_Solvation_Energy-OPLS-2005>
-459.451995849609

> <b_mmod_Minimization_Converged-OPLS-2005>
0

> <r_mmod_RMS_Derivative-OPLS-2005>
5.35018873214722

$$$$
58
                    3D
 Structure written by MMmdl.
152160  0  0  1  0            999 V2000
  -30.4291  -15.2290   20.3699 C   0  0  0  0  0  0
  -30.4521  -12.7687   19.5426 C   0  0  0  0  0  0
  -29.5457  -12.5608   18.3001 C   0  0  0  0  0  0
  -28.0921  -12.2868   18.7256 C   0  0  0  0  0  0
  -27.6203  -13.2683   19.8261 C   0  0  2  0  0  0
  -28.6510  -13.4240   20.9640 C   0  0  0  0  0  0
  -25.2465  -13.8249   20.5773 C   0  0  0  0  0  0
  -24.1783  -13.0453   20.9239 C   0  0  0  0  0  0
  -24.6414  -11.6941   20.8749 C   0  0  0  0  0  0
  -23.9109  -10.4309   21.0414 C   0  0  0  0  0  0
  -24.3652   -9.4216   21.9191 C   0  0  0  0  0  0
  -23.6316   -8.2251   22.0757 C   0  0  0  0  0  0
  -22.4293   -8.0306   21.3542 C   0  0  0  0  0  0
  -21.9940   -9.0283   20.4644 C   0  0  0  0  0  0
  -22.7280  -10.2152   20.3062 C   0  0  0  0  0  0
  -21.6853   -6.0765   22.5285 C   0  0  0  0  0  0
  -21.4018   -6.5665   23.8222 C   0  0  0  0  0  0
  -21.3654   -5.6807   24.9173 C   0  0  0  0  0  0
  -21.6036   -4.3075   24.7219 C   0  0  0  0  0  0
  -21.8818   -3.8172   23.4337 C   0  0  0  0  0  0
  -21.9192   -4.6995   22.3397 C   0  0  0  0  0  0
  -22.7803  -13.5213   21.1907 C   0  0  0  0  0  0
  -22.1660   -4.2186   21.0972 F   0  0  0  0  0  0
  -21.5620   -3.4549   25.7724 F   0  0  0  0  0  0
  -29.9050  -13.9076   20.3629 N   0  0  0  0  0  0
  -26.2873  -12.9492   20.3226 N   0  0  0  0  0  0
  -25.9353  -11.6608   20.5725 N   0  0  0  0  0  0
  -22.0466  -12.8178   22.0456 N   0  0  0  0  0  0
  -25.4175  -15.1982   20.4304 N   0  0  0  0  0  0
  -31.6451  -15.2465   20.1338 O   0  0  0  0  0  0
  -21.6647   -6.8909   21.4246 O   0  0  0  0  0  0
  -22.3471  -14.5517   20.6765 O   0  0  0  0  0  0
  -24.6588  -31.8263   23.1737 C   0  0  0  0  0  0
  -25.9279  -32.4593   23.8199 C   0  0  1  0  0  0
  -27.2354  -26.9595   20.1805 C   0  0  0  0  0  0
  -25.5941  -33.8400   24.2087 N   0  0  0  0  0  0
  -23.4743  -30.4404   21.5184 C   0  0  2  0  0  0
  -24.9330  -28.8289   20.1151 C   0  0  0  0  0  0
  -22.7650  -29.4466   22.4759 C   0  0  0  0  0  0
  -18.0329  -28.1435   22.8447 C   0  0  0  0  0  0
  -24.1468  -36.7212   23.2662 C   0  0  0  0  0  0
  -26.0417  -30.6433   21.3994 C   0  0  0  0  0  0
  -26.1169  -29.2347   20.7447 C   0  0  0  0  0  0
  -27.2611  -28.3225   20.7520 C   0  0  0  0  0  0
  -26.0192  -26.6953   19.5093 C   0  0  0  0  0  0
  -24.9078  -27.5759   19.4813 C   0  0  0  0  0  0
  -23.7179  -29.7531   20.1463 C   0  0  0  0  0  0
  -25.4102  -36.2969   24.0310 C   0  0  1  0  0  0
  -20.5943  -28.3791   23.1179 C   0  0  2  0  0  0
  -20.6819  -26.9474   22.5393 C   0  0  0  0  0  0
  -19.5795  -26.6397   21.5209 C   0  0  0  0  0  0
  -18.1966  -26.7967   22.1600 C   0  0  0  0  0  0
  -19.1589  -28.8928   23.2807 C   0  0  0  0  0  0
  -18.9522  -30.1504   23.8874 C   0  0  0  0  0  0
  -17.6528  -30.6640   24.0560 C   0  0  0  0  0  0
  -25.9093  -34.9356   23.5046 C   0  0  0  0  0  0
  -16.5410  -29.9131   23.6348 C   0  0  0  0  0  0
  -16.7310  -28.6534   23.0374 C   0  0  0  0  0  0
  -26.4561  -31.6543   25.0722 C   0  0  0  0  0  0
  -25.3664  -31.3772   26.1362 C   0  0  0  0  0  0
  -27.0478  -30.2912   24.6459 C   0  0  0  0  0  0
  -27.6099  -32.4355   25.7476 C   0  0  0  0  0  0
  -27.5554  -37.1726   24.8469 C   0  0  0  0  0  0
  -21.4324  -29.3084   22.3509 N   0  0  0  0  0  0
  -26.4249  -37.3697   23.9442 N   0  0  0  0  0  0
  -24.7453  -30.9962   22.0840 N   0  0  0  0  0  0
  -23.4186  -28.8022   23.2997 O   0  0  0  0  0  0
  -28.2590  -25.8837   20.2445 O   0  0  0  0  0  0
  -26.5718  -34.8887   22.4653 O   0  0  0  0  0  0
  -23.5671  -32.1223   23.6829 O   0  0  0  0  0  0
  -28.7424  -19.7222   20.4347 C   0  0  0  0  0  0
  -30.9065  -18.7661   21.5274 C   0  0  0  0  0  0
  -29.5472  -16.7325   20.5031 C   0  0  0  0  0  0
  -29.0175  -22.7726   20.2868 C   0  0  0  0  0  0
  -28.0070  -24.2611   20.1945 C   0  0  0  0  0  0
  -29.9310  -18.4867   20.3649 C   0  0  1  0  0  0
  -30.6780  -18.6687   19.0218 C   0  0  0  0  0  0
  -27.5498  -19.1475   20.6082 N   0  0  0  0  0  0
  -26.6144  -20.1362   20.6760 N   0  0  0  0  0  0
  -27.1337  -21.3088   20.5474 N   0  0  0  0  0  0
  -28.4822  -21.2109   20.3902 N   0  0  0  0  0  0
  -31.0753  -19.9344   18.8793 F   0  0  0  0  0  0
  -31.7582  -17.8893   18.9456 F   0  0  0  0  0  0
  -29.8714  -18.3649   18.0042 F   0  0  0  0  0  0
  -31.4764  -12.9625   19.2234 H   0  0  0  0  0  0
  -30.5000  -11.8564   20.1390 H   0  0  0  0  0  0
  -29.9186  -11.7337   17.6962 H   0  0  0  0  0  0
  -29.5823  -13.4489   17.6672 H   0  0  0  0  0  0
  -28.0530  -11.2663   19.1088 H   0  0  0  0  0  0
  -27.4223  -12.3159   17.8655 H   0  0  0  0  0  0
  -27.5443  -14.2362   19.3298 H   0  0  0  0  0  0
  -28.7995  -12.4847   21.5004 H   0  0  0  0  0  0
  -28.2974  -14.1469   21.7008 H   0  0  0  0  0  0
  -25.2795   -9.5690   22.4773 H   0  0  0  0  0  0
  -24.0028   -7.4642   22.7477 H   0  0  0  0  0  0
  -21.0874   -8.8809   19.8949 H   0  0  0  0  0  0
  -22.3747  -10.9702   19.6180 H   0  0  0  0  0  0
  -21.2022   -7.6174   23.9731 H   0  0  0  0  0  0
  -21.1467   -6.0538   25.9073 H   0  0  0  0  0  0
  -22.0601   -2.7641   23.2820 H   0  0  0  0  0  0
  -22.4090  -11.9819   22.4789 H   0  0  0  0  0  0
  -21.1092  -13.1201   22.2717 H   0  0  0  0  0  0
  -24.6626  -15.8596   20.5775 H   0  0  0  0  0  0
  -26.2857  -15.6447   20.1623 H   0  0  0  0  0  0
  -26.7351  -32.5146   23.0920 H   0  0  0  0  0  0
  -24.9974  -33.9478   25.0150 H   0  0  0  0  0  0
  -22.7868  -31.2710   21.3442 H   0  0  0  0  0  0
  -23.3763  -35.9514   23.3278 H   0  0  0  0  0  0
  -24.3548  -36.8897   22.2091 H   0  0  0  0  0  0
  -23.7177  -37.6364   23.6752 H   0  0  0  0  0  0
  -26.2145  -31.3840   20.6181 H   0  0  0  0  0  0
  -26.9034  -30.7040   22.0526 H   0  0  0  0  0  0
  -28.1571  -28.6340   21.2726 H   0  0  0  0  0  0
  -25.8961  -25.7414   19.0218 H   0  0  0  0  0  0
  -24.0089  -27.2558   18.9704 H   0  0  0  0  0  0
  -23.8717  -30.5218   19.3878 H   0  0  0  0  0  0
  -22.8295  -29.2042   19.8284 H   0  0  0  0  0  0
  -25.1269  -36.1791   25.0788 H   0  0  0  0  0  0
  -21.0031  -28.3448   24.1305 H   0  0  0  0  0  0
  -20.5734  -26.2406   23.3637 H   0  0  0  0  0  0
  -21.6675  -26.7479   22.1175 H   0  0  0  0  0  0
  -19.6976  -25.6289   21.1285 H   0  0  0  0  0  0
  -19.6765  -27.3170   20.6714 H   0  0  0  0  0  0
  -17.4227  -26.6720   21.4013 H   0  0  0  0  0  0
  -18.0388  -26.0112   22.9009 H   0  0  0  0  0  0
  -19.8008  -30.7308   24.2237 H   0  0  0  0  0  0
  -17.5102  -31.6316   24.5187 H   0  0  0  0  0  0
  -15.5416  -30.3059   23.7700 H   0  0  0  0  0  0
  -15.8686  -28.0868   22.7137 H   0  0  0  0  0  0
  -24.5894  -30.7095   25.7641 H   0  0  0  0  0  0
  -24.8802  -32.2954   26.4682 H   0  0  0  0  0  0
  -25.7854  -30.8996   27.0225 H   0  0  0  0  0  0
  -26.3160  -29.6560   24.1472 H   0  0  0  0  0  0
  -27.4024  -29.7320   25.5134 H   0  0  0  0  0  0
  -27.9068  -30.4110   23.9855 H   0  0  0  0  0  0
  -27.2754  -33.3751   26.1880 H   0  0  0  0  0  0
  -28.3960  -32.6745   25.0302 H   0  0  0  0  0  0
  -28.0699  -31.8575   26.5507 H   0  0  0  0  0  0
  -28.2528  -38.0067   24.7560 H   0  0  0  0  0  0
  -28.1078  -36.2593   24.6219 H   0  0  0  0  0  0
  -27.2286  -37.1273   25.8873 H   0  0  0  0  0  0
  -20.9599  -29.8727   21.6585 H   0  0  0  0  0  0
  -26.0118  -38.2746   24.1521 H   0  0  0  0  0  0
  -30.4158  -18.6187   22.4885 H   0  0  0  0  0  0
  -31.2791  -19.7897   21.5015 H   0  0  0  0  0  0
  -31.7704  -18.1022   21.4906 H   0  0  0  0  0  0
  -28.7431  -16.5863   19.7841 H   0  0  0  0  0  0
  -29.0506  -16.6393   21.4687 H   0  0  0  0  0  0
  -29.6775  -22.9061   21.1450 H   0  0  0  0  0  0
  -29.6933  -22.7896   19.4324 H   0  0  0  0  0  0
  -27.2594  -24.1242   20.9751 H   0  0  0  0  0  0
  -27.4481  -24.1261   19.2699 H   0  0  0  0  0  0
  1 25  1  0  0  0
  1 30  2  0  0  0
  1 73  1  0  0  0
  2  3  1  0  0  0
  2 25  1  0  0  0
  2 85  1  0  0  0
  2 86  1  0  0  0
  3  4  1  0  0  0
  3 87  1  0  0  0
  3 88  1  0  0  0
  4  5  1  0  0  0
  4 89  1  0  0  0
  4 90  1  0  0  0
  5  6  1  0  0  0
  5 26  1  0  0  0
  5 91  1  0  0  0
  6 25  1  0  0  0
  6 92  1  0  0  0
  6 93  1  0  0  0
  7  8  2  0  0  0
  7 26  1  0  0  0
  7 29  1  0  0  0
  8  9  1  0  0  0
  8 22  1  0  0  0
  9 10  1  0  0  0
  9 27  2  0  0  0
 10 11  2  0  0  0
 10 15  1  0  0  0
 11 12  1  0  0  0
 11 94  1  0  0  0
 12 13  2  0  0  0
 12 95  1  0  0  0
 13 14  1  0  0  0
 13 31  1  0  0  0
 14 15  2  0  0  0
 14 96  1  0  0  0
 15 97  1  0  0  0
 16 17  2  0  0  0
 16 21  1  0  0  0
 16 31  1  0  0  0
 17 18  1  0  0  0
 17 98  1  0  0  0
 18 19  2  0  0  0
 18 99  1  0  0  0
 19 20  1  0  0  0
 19 24  1  0  0  0
 20 21  2  0  0  0
 20100  1  0  0  0
 21 23  1  0  0  0
 22 28  1  0  0  0
 22 32  2  0  0  0
 26 27  1  0  0  0
 28101  1  0  0  0
 28102  1  0  0  0
 29103  1  0  0  0
 29104  1  0  0  0
 33 34  1  0  0  0
 33 66  1  0  0  0
 33 70  2  0  0  0
 34 36  1  0  0  0
 34 59  1  0  0  0
 34105  1  0  0  0
 35 44  2  0  0  0
 35 45  1  0  0  0
 35 68  1  0  0  0
 36 56  1  0  0  0
 36106  1  0  0  0
 37 39  1  0  0  0
 37 47  1  0  0  0
 37 66  1  0  0  0
 37107  1  0  0  0
 38 43  2  0  0  0
 38 46  1  0  0  0
 38 47  1  0  0  0
 39 64  1  0  0  0
 39 67  2  0  0  0
 40 52  1  0  0  0
 40 53  2  0  0  0
 40 58  1  0  0  0
 41108  1  0  0  0
 41109  1  0  0  0
 41110  1  0  0  0
 41 48  1  0  0  0
 42 43  1  0  0  0
 42 66  1  0  0  0
 42111  1  0  0  0
 42112  1  0  0  0
 43 44  1  0  0  0
 44113  1  0  0  0
 45 46  2  0  0  0
 45114  1  0  0  0
 46115  1  0  0  0
 47116  1  0  0  0
 47117  1  0  0  0
 48 56  1  0  0  0
 48 65  1  0  0  0
 48118  1  0  0  0
 49 50  1  0  0  0
 49 53  1  0  0  0
 49 64  1  0  0  0
 49119  1  0  0  0
 50 51  1  0  0  0
 50120  1  0  0  0
 50121  1  0  0  0
 51 52  1  0  0  0
 51122  1  0  0  0
 51123  1  0  0  0
 52124  1  0  0  0
 52125  1  0  0  0
 53 54  1  0  0  0
 54 55  2  0  0  0
 54126  1  0  0  0
 55 57  1  0  0  0
 55127  1  0  0  0
 56 69  2  0  0  0
 57 58  2  0  0  0
 57128  1  0  0  0
 58129  1  0  0  0
 59 60  1  0  0  0
 59 61  1  0  0  0
 59 62  1  0  0  0
 60130  1  0  0  0
 60131  1  0  0  0
 60132  1  0  0  0
 61133  1  0  0  0
 61134  1  0  0  0
 61135  1  0  0  0
 62136  1  0  0  0
 62137  1  0  0  0
 62138  1  0  0  0
 63 65  1  0  0  0
 63139  1  0  0  0
 63140  1  0  0  0
 63141  1  0  0  0
 64142  1  0  0  0
 65143  1  0  0  0
 68 75  1  0  0  0
 71 76  1  0  0  0
 71 78  2  0  0  0
 71 81  1  0  0  0
 72144  1  0  0  0
 72145  1  0  0  0
 72146  1  0  0  0
 72 76  1  0  0  0
 73 76  1  0  0  0
 73147  1  0  0  0
 73148  1  0  0  0
 74 75  1  0  0  0
 74 81  1  0  0  0
 74149  1  0  0  0
 74150  1  0  0  0
 75151  1  0  0  0
 75152  1  0  0  0
 76 77  1  0  0  0
 77 82  1  0  0  0
 77 83  1  0  0  0
 77 84  1  0  0  0
 78 79  1  0  0  0
 79 80  2  0  0  0
 80 81  1  0  0  0
M  ISO  4   1 100  68 101  73 100  75 101
M  END
> <chiral flag>
0

> <version>
0

> <s_m_source_file>
/data/baiqing/PycharmProjects/Reinvent-master-3.2/result/LINK_invent/BTK/process_docking_weight1_custom_sum_contain_oxygen_bond_distance_aromatic_linkinvent_7_9_3/rearranged_h_0063.sdf

> <i_m_source_file_index>
57

> <r_mmod_Potential_Energy-OPLS-2005>
1158.34875488281

> <r_mmod_Stretch_Energy-OPLS-2005>
592.515380859375

> <r_mmod_Bend_Energy-OPLS-2005>
482.704132080078

> <r_mmod_Torsional_Energy-OPLS-2005>
198.53889465332

> <r_mmod_Improper_Torsional_Energy-OPLS-2005>
2.75728917121887

> <r_mmod_Van_der_Waal_Energy-OPLS-2005>
99.8796691894531

> <r_mmod_Electrostatic_Energy-OPLS-2005>
-417.216827392578

> <r_mmod_Solvation_Energy-OPLS-2005>
-214.094879150391

> <b_mmod_Minimization_Converged-OPLS-2005>
0

> <r_mmod_RMS_Derivative-OPLS-2005>
3.30270481109619

$$$$
59
                    3D
 Structure written by MMmdl.
170178  0  0  1  0            999 V2000
  -30.6018  -14.6166   20.6333 C   0  0  0  0  0  0
  -30.4314  -12.3869   19.5405 C   0  0  0  0  0  0
  -29.5466  -12.5274   18.2843 C   0  0  0  0  0  0
  -28.0641  -12.3226   18.6516 C   0  0  0  0  0  0
  -27.6376  -13.2153   19.8506 C   0  0  2  0  0  0
  -28.6431  -13.0701   21.0178 C   0  0  0  0  0  0
  -25.2139  -13.7938   20.5157 C   0  0  0  0  0  0
  -24.1577  -13.0184   20.9074 C   0  0  0  0  0  0
  -24.6301  -11.6754   20.8800 C   0  0  0  0  0  0
  -23.9001  -10.4152   21.0465 C   0  0  0  0  0  0
  -24.3606   -9.4077   21.9188 C   0  0  0  0  0  0
  -23.6251   -8.2138   22.0773 C   0  0  0  0  0  0
  -22.4226   -8.0195   21.3543 C   0  0  0  0  0  0
  -21.9872   -9.0167   20.4648 C   0  0  0  0  0  0
  -22.7219  -10.2032   20.3031 C   0  0  0  0  0  0
  -21.6766   -6.0684   22.5259 C   0  0  0  0  0  0
  -21.3948   -6.5617   23.8170 C   0  0  0  0  0  0
  -21.3691   -5.6788   24.9162 C   0  0  0  0  0  0
  -21.6090   -4.3046   24.7231 C   0  0  0  0  0  0
  -21.8835   -3.8126   23.4350 C   0  0  0  0  0  0
  -21.9176   -4.6940   22.3386 C   0  0  0  0  0  0
  -22.7627  -13.5031   21.1865 C   0  0  0  0  0  0
  -22.1653   -4.2141   21.0955 F   0  0  0  0  0  0
  -21.5671   -3.4539   25.7759 F   0  0  0  0  0  0
  -29.9851  -13.4004   20.5065 N   0  0  0  0  0  0
  -26.2757  -12.9253   20.2988 N   0  0  0  0  0  0
  -25.9208  -11.6429   20.5708 N   0  0  0  0  0  0
  -22.0323  -12.8033   22.0535 N   0  0  0  0  0  0
  -25.3215  -15.1536   20.3029 N   0  0  0  0  0  0
  -31.7319  -14.8238   20.1745 O   0  0  0  0  0  0
  -21.6550   -6.8833   21.4194 O   0  0  0  0  0  0
  -22.3331  -14.5303   20.6723 O   0  0  0  0  0  0
  -24.6224  -31.8612   23.1980 C   0  0  0  0  0  0
  -25.9108  -32.4782   23.8273 C   0  0  1  0  0  0
  -27.2061  -27.3540   20.1425 C   0  0  0  0  0  0
  -25.5943  -33.8582   24.2256 N   0  0  0  0  0  0
  -23.4144  -30.4791   21.5405 C   0  0  2  0  0  0
  -24.8621  -28.9412   20.1078 C   0  0  0  0  0  0
  -22.7463  -29.4499   22.4879 C   0  0  0  0  0  0
  -18.0335  -28.1271   22.8490 C   0  0  0  0  0  0
  -24.1523  -36.7287   23.2616 C   0  0  0  0  0  0
  -25.9456  -30.8083   21.3617 C   0  0  0  0  0  0
  -26.0269  -29.4342   20.7112 C   0  0  0  0  0  0
  -27.2067  -28.6469   20.7272 C   0  0  0  0  0  0
  -26.0356  -26.9013   19.4995 C   0  0  0  0  0  0
  -24.8616  -27.6766   19.4959 C   0  0  0  0  0  0
  -23.6322  -29.8187   20.1526 C   0  0  0  0  0  0
  -25.4150  -36.3094   24.0303 C   0  0  1  0  0  0
  -20.5905  -28.3540   23.1301 C   0  0  2  0  0  0
  -20.6758  -26.9249   22.5389 C   0  0  0  0  0  0
  -19.5750  -26.6228   21.5189 C   0  0  0  0  0  0
  -18.1947  -26.7837   22.1616 C   0  0  0  0  0  0
  -19.1569  -28.8723   23.2903 C   0  0  0  0  0  0
  -18.9486  -30.1309   23.8944 C   0  0  0  0  0  0
  -17.6520  -30.6505   24.0490 C   0  0  0  0  0  0
  -25.9047  -34.9469   23.5073 C   0  0  0  0  0  0
  -16.5404  -29.8965   23.6327 C   0  0  0  0  0  0
  -16.7335  -28.6369   23.0357 C   0  0  0  0  0  0
  -26.4508  -31.6569   25.0610 C   0  0  0  0  0  0
  -25.3703  -31.3706   26.1296 C   0  0  0  0  0  0
  -27.0323  -30.3011   24.6011 C   0  0  0  0  0  0
  -27.6097  -32.4214   25.7363 C   0  0  0  0  0  0
  -27.5588  -37.1825   24.8450 C   0  0  0  0  0  0
  -21.4170  -29.2941   22.3693 N   0  0  0  0  0  0
  -26.4341  -37.3772   23.9345 N   0  0  0  0  0  0
  -24.6778  -31.0627   22.0933 N   0  0  0  0  0  0
  -23.4222  -28.7976   23.2859 O   0  0  0  0  0  0
  -28.2898  -26.4970   20.2154 O   0  0  0  0  0  0
  -26.5604  -34.8929   22.4633 O   0  0  0  0  0  0
  -23.5394  -32.1377   23.7356 O   0  0  0  0  0  0
  -28.5487  -19.4222   21.1226 C   0  0  0  0  0  0
  -27.6114  -21.0773   22.0881 C   0  0  0  0  0  0
  -28.7743  -17.8064   19.1600 C   0  0  0  0  0  0
  -27.3809  -17.2832   21.1492 C   0  0  0  0  0  0
  -26.1980  -20.9639   24.2561 C   0  0  0  0  0  0
  -25.4667  -22.4384   22.4021 C   0  0  0  0  0  0
  -27.4517  -23.0340   23.8029 C   0  0  0  0  0  0
  -28.7016  -23.9479   20.3875 C   0  0  0  0  0  0
  -27.8273  -22.7108   20.0179 C   0  0  0  0  0  0
  -29.9404  -17.0986   21.2920 C   0  0  0  0  0  0
  -28.0069  -25.2460   20.9226 C   0  0  0  0  0  0
  -28.7051  -17.9266   20.7122 C   0  0  0  0  0  0
  -26.7242  -21.8684   23.0926 C   0  0  0  0  0  0
  -28.0508  -19.8263   22.3398 N   0  0  0  0  0  0
  -28.6480  -20.4267   20.2453 N   0  0  0  0  0  0
  -28.0191  -21.4880   20.8494 N   0  0  0  0  0  0
  -29.8211  -15.5963   21.1784 N   0  0  0  0  0  0
  -31.4959  -12.4734   19.3028 H   0  0  0  0  0  0
  -30.3130  -11.4015   19.9901 H   0  0  0  0  0  0
  -29.8670  -11.8196   17.5238 H   0  0  0  0  0  0
  -29.6698  -13.5233   17.8553 H   0  0  0  0  0  0
  -27.9397  -11.2706   18.9170 H   0  0  0  0  0  0
  -27.4325  -12.4968   17.7845 H   0  0  0  0  0  0
  -27.6694  -14.2493   19.5030 H   0  0  0  0  0  0
  -28.6219  -12.0504   21.4076 H   0  0  0  0  0  0
  -28.3295  -13.6942   21.8585 H   0  0  0  0  0  0
  -25.2824   -9.5515   22.4677 H   0  0  0  0  0  0
  -23.9938   -7.4542   22.7549 H   0  0  0  0  0  0
  -21.0775   -8.8681   19.9005 H   0  0  0  0  0  0
  -22.3732  -10.9524   19.6065 H   0  0  0  0  0  0
  -21.1881   -7.6128   23.9688 H   0  0  0  0  0  0
  -21.1494   -6.0512   25.9062 H   0  0  0  0  0  0
  -22.0592   -2.7589   23.2824 H   0  0  0  0  0  0
  -22.3993  -11.9776   22.5017 H   0  0  0  0  0  0
  -21.0931  -13.0963   22.2823 H   0  0  0  0  0  0
  -24.4955  -15.7459   20.2968 H   0  0  0  0  0  0
  -26.1621  -15.6193   19.9811 H   0  0  0  0  0  0
  -26.7126  -32.5507   23.0981 H   0  0  0  0  0  0
  -25.0230  -33.9708   25.0506 H   0  0  0  0  0  0
  -22.7062  -31.2937   21.4006 H   0  0  0  0  0  0
  -23.3786  -35.9605   23.3316 H   0  0  0  0  0  0
  -24.3624  -36.8884   22.2009 H   0  0  0  0  0  0
  -23.7270  -37.6504   23.6622 H   0  0  0  0  0  0
  -26.0560  -31.5692   20.5849 H   0  0  0  0  0  0
  -26.8291  -30.8626   21.9854 H   0  0  0  0  0  0
  -28.0964  -29.0017   21.2321 H   0  0  0  0  0  0
  -26.0205  -25.9216   19.0366 H   0  0  0  0  0  0
  -23.9654  -27.2875   19.0328 H   0  0  0  0  0  0
  -23.7569  -30.5867   19.3858 H   0  0  0  0  0  0
  -22.7569  -29.2435   19.8474 H   0  0  0  0  0  0
  -25.1341  -36.1942   25.0784 H   0  0  0  0  0  0
  -20.9984  -28.3163   24.1455 H   0  0  0  0  0  0
  -20.5592  -26.2082   23.3557 H   0  0  0  0  0  0
  -21.6663  -26.7209   22.1245 H   0  0  0  0  0  0
  -19.6911  -25.6117   21.1299 H   0  0  0  0  0  0
  -19.6674  -27.2919   20.6607 H   0  0  0  0  0  0
  -17.4187  -26.6647   21.4047 H   0  0  0  0  0  0
  -18.0257  -25.9955   22.8973 H   0  0  0  0  0  0
  -19.7975  -30.7060   24.2402 H   0  0  0  0  0  0
  -17.5079  -31.6231   24.5023 H   0  0  0  0  0  0
  -15.5374  -30.2803   23.7716 H   0  0  0  0  0  0
  -15.8755  -28.0692   22.7050 H   0  0  0  0  0  0
  -24.5899  -30.7069   25.7559 H   0  0  0  0  0  0
  -24.8884  -32.2876   26.4659 H   0  0  0  0  0  0
  -25.7968  -30.8879   27.0101 H   0  0  0  0  0  0
  -26.2873  -29.6718   24.1136 H   0  0  0  0  0  0
  -27.4149  -29.7277   25.4461 H   0  0  0  0  0  0
  -27.8661  -30.4284   23.9111 H   0  0  0  0  0  0
  -27.2801  -33.3529   26.1966 H   0  0  0  0  0  0
  -28.3911  -32.6733   25.0174 H   0  0  0  0  0  0
  -28.0753  -31.8295   26.5257 H   0  0  0  0  0  0
  -28.2643  -38.0104   24.7501 H   0  0  0  0  0  0
  -28.1084  -36.2640   24.6329 H   0  0  0  0  0  0
  -27.2292  -37.1485   25.8862 H   0  0  0  0  0  0
  -20.9346  -29.8859   21.7088 H   0  0  0  0  0  0
  -26.0239  -38.2836   24.1413 H   0  0  0  0  0  0
  -27.8671  -18.1760   18.6806 H   0  0  0  0  0  0
  -28.9141  -16.7827   18.8073 H   0  0  0  0  0  0
  -29.6103  -18.3844   18.7701 H   0  0  0  0  0  0
  -26.5236  -17.7589   20.6646 H   0  0  0  0  0  0
  -27.2111  -17.3579   22.2238 H   0  0  0  0  0  0
  -27.3872  -16.2285   20.9172 H   0  0  0  0  0  0
  -25.5381  -20.1580   23.9306 H   0  0  0  0  0  0
  -25.6258  -21.5428   24.9852 H   0  0  0  0  0  0
  -27.0104  -20.5023   24.8190 H   0  0  0  0  0  0
  -24.8037  -21.6588   22.0115 H   0  0  0  0  0  0
  -25.7197  -23.0967   21.5795 H   0  0  0  0  0  0
  -24.8943  -23.0729   23.0804 H   0  0  0  0  0  0
  -28.2939  -22.7116   24.4138 H   0  0  0  0  0  0
  -26.7680  -23.5438   24.4857 H   0  0  0  0  0  0
  -27.8058  -23.7895   23.1120 H   0  0  0  0  0  0
  -29.3129  -24.2086   19.5257 H   0  0  0  0  0  0
  -29.4121  -23.6017   21.1318 H   0  0  0  0  0  0
  -28.1086  -22.4469   18.9899 H   0  0  0  0  0  0
  -26.7777  -22.9517   19.8764 H   0  0  0  0  0  0
  -30.0245  -17.3392   22.3526 H   0  0  0  0  0  0
  -30.8717  -17.4508   20.8405 H   0  0  0  0  0  0
  -28.3752  -25.3993   21.9395 H   0  0  0  0  0  0
  -26.9391  -25.0546   21.0656 H   0  0  0  0  0  0
  -28.9767  -15.2209   21.5833 H   0  0  0  0  0  0
  1 25  1  0  0  0
  1 30  2  0  0  0
  1 87  1  0  0  0
  2  3  1  0  0  0
  2 25  1  0  0  0
  2 88  1  0  0  0
  2 89  1  0  0  0
  3  4  1  0  0  0
  3 90  1  0  0  0
  3 91  1  0  0  0
  4  5  1  0  0  0
  4 92  1  0  0  0
  4 93  1  0  0  0
  5  6  1  0  0  0
  5 26  1  0  0  0
  5 94  1  0  0  0
  6 25  1  0  0  0
  6 95  1  0  0  0
  6 96  1  0  0  0
  7  8  2  0  0  0
  7 26  1  0  0  0
  7 29  1  0  0  0
  8  9  1  0  0  0
  8 22  1  0  0  0
  9 10  1  0  0  0
  9 27  2  0  0  0
 10 11  2  0  0  0
 10 15  1  0  0  0
 11 12  1  0  0  0
 11 97  1  0  0  0
 12 13  2  0  0  0
 12 98  1  0  0  0
 13 14  1  0  0  0
 13 31  1  0  0  0
 14 15  2  0  0  0
 14 99  1  0  0  0
 15100  1  0  0  0
 16 17  2  0  0  0
 16 21  1  0  0  0
 16 31  1  0  0  0
 17 18  1  0  0  0
 17101  1  0  0  0
 18 19  2  0  0  0
 18102  1  0  0  0
 19 20  1  0  0  0
 19 24  1  0  0  0
 20 21  2  0  0  0
 20103  1  0  0  0
 21 23  1  0  0  0
 22 28  1  0  0  0
 22 32  2  0  0  0
 26 27  1  0  0  0
 28104  1  0  0  0
 28105  1  0  0  0
 29106  1  0  0  0
 29107  1  0  0  0
 33 34  1  0  0  0
 33 66  1  0  0  0
 33 70  2  0  0  0
 34 36  1  0  0  0
 34 59  1  0  0  0
 34108  1  0  0  0
 35 44  2  0  0  0
 35 45  1  0  0  0
 35 68  1  0  0  0
 36 56  1  0  0  0
 36109  1  0  0  0
 37 39  1  0  0  0
 37 47  1  0  0  0
 37 66  1  0  0  0
 37110  1  0  0  0
 38 43  2  0  0  0
 38 46  1  0  0  0
 38 47  1  0  0  0
 39 64  1  0  0  0
 39 67  2  0  0  0
 40 52  1  0  0  0
 40 53  2  0  0  0
 40 58  1  0  0  0
 41111  1  0  0  0
 41112  1  0  0  0
 41113  1  0  0  0
 41 48  1  0  0  0
 42 43  1  0  0  0
 42 66  1  0  0  0
 42114  1  0  0  0
 42115  1  0  0  0
 43 44  1  0  0  0
 44116  1  0  0  0
 45 46  2  0  0  0
 45117  1  0  0  0
 46118  1  0  0  0
 47119  1  0  0  0
 47120  1  0  0  0
 48 56  1  0  0  0
 48 65  1  0  0  0
 48121  1  0  0  0
 49 50  1  0  0  0
 49 53  1  0  0  0
 49 64  1  0  0  0
 49122  1  0  0  0
 50 51  1  0  0  0
 50123  1  0  0  0
 50124  1  0  0  0
 51 52  1  0  0  0
 51125  1  0  0  0
 51126  1  0  0  0
 52127  1  0  0  0
 52128  1  0  0  0
 53 54  1  0  0  0
 54 55  2  0  0  0
 54129  1  0  0  0
 55 57  1  0  0  0
 55130  1  0  0  0
 56 69  2  0  0  0
 57 58  2  0  0  0
 57131  1  0  0  0
 58132  1  0  0  0
 59 60  1  0  0  0
 59 61  1  0  0  0
 59 62  1  0  0  0
 60133  1  0  0  0
 60134  1  0  0  0
 60135  1  0  0  0
 61136  1  0  0  0
 61137  1  0  0  0
 61138  1  0  0  0
 62139  1  0  0  0
 62140  1  0  0  0
 62141  1  0  0  0
 63 65  1  0  0  0
 63142  1  0  0  0
 63143  1  0  0  0
 63144  1  0  0  0
 64145  1  0  0  0
 65146  1  0  0  0
 68 81  1  0  0  0
 71 82  1  0  0  0
 71 84  1  0  0  0
 71 85  2  0  0  0
 72 83  1  0  0  0
 72 84  2  0  0  0
 72 86  1  0  0  0
 73147  1  0  0  0
 73148  1  0  0  0
 73149  1  0  0  0
 73 82  1  0  0  0
 74 82  1  0  0  0
 74150  1  0  0  0
 74151  1  0  0  0
 74152  1  0  0  0
 75153  1  0  0  0
 75154  1  0  0  0
 75155  1  0  0  0
 75 83  1  0  0  0
 76 83  1  0  0  0
 76156  1  0  0  0
 76157  1  0  0  0
 76158  1  0  0  0
 77 83  1  0  0  0
 77159  1  0  0  0
 77160  1  0  0  0
 77161  1  0  0  0
 78 79  1  0  0  0
 78 81  1  0  0  0
 78162  1  0  0  0
 78163  1  0  0  0
 79 86  1  0  0  0
 79164  1  0  0  0
 79165  1  0  0  0
 80 82  1  0  0  0
 80 87  1  0  0  0
 80166  1  0  0  0
 80167  1  0  0  0
 81168  1  0  0  0
 81169  1  0  0  0
 85 86  1  0  0  0
 87170  1  0  0  0
M  ISO  4   1 100  68 101  81 101  87 100
M  END
> <chiral flag>
0

> <version>
0

> <s_m_source_file>
/data/baiqing/PycharmProjects/Reinvent-master-3.2/result/LINK_invent/BTK/process_docking_weight1_custom_sum_contain_oxygen_bond_distance_aromatic_linkinvent_7_9_3/rearranged_h_0063.sdf

> <i_m_source_file_index>
58

> <r_mmod_Potential_Energy-OPLS-2005>
68.2944717407227

> <r_mmod_Stretch_Energy-OPLS-2005>
73.8866806030273

> <r_mmod_Bend_Energy-OPLS-2005>
164.687896728516

> <r_mmod_Torsional_Energy-OPLS-2005>
279.273498535156

> <r_mmod_Improper_Torsional_Energy-OPLS-2005>
5.09837675094604

> <r_mmod_Van_der_Waal_Energy-OPLS-2005>
143.828094482422

> <r_mmod_Electrostatic_Energy-OPLS-2005>
-441.857604980469

> <r_mmod_Solvation_Energy-OPLS-2005>
-209.987335205078

> <b_mmod_Minimization_Converged-OPLS-2005>
0

> <r_mmod_RMS_Derivative-OPLS-2005>
12.49391746521

$$$$
60
                    3D
 Structure written by MMmdl.
157165  0  0  1  0            999 V2000
  -30.5900  -14.8946   20.4793 C   0  0  0  0  0  0
  -30.4318  -12.5666   19.4894 C   0  0  0  0  0  0
  -29.5138  -12.5256   18.2468 C   0  0  0  0  0  0
  -28.0421  -12.3240   18.6551 C   0  0  0  0  0  0
  -27.6284  -13.2392   19.8377 C   0  0  2  0  0  0
  -28.6705  -13.1985   20.9714 C   0  0  0  0  0  0
  -25.2437  -13.8190   20.5651 C   0  0  0  0  0  0
  -24.1759  -13.0433   20.9190 C   0  0  0  0  0  0
  -24.6363  -11.6915   20.8722 C   0  0  0  0  0  0
  -23.9051  -10.4297   21.0397 C   0  0  0  0  0  0
  -24.3604   -9.4221   21.9188 C   0  0  0  0  0  0
  -23.6288   -8.2250   22.0769 C   0  0  0  0  0  0
  -22.4280   -8.0272   21.3542 C   0  0  0  0  0  0
  -21.9899   -9.0241   20.4646 C   0  0  0  0  0  0
  -22.7217  -10.2125   20.3056 C   0  0  0  0  0  0
  -21.6852   -6.0724   22.5270 C   0  0  0  0  0  0
  -21.4020   -6.5639   23.8200 C   0  0  0  0  0  0
  -21.3658   -5.6797   24.9164 C   0  0  0  0  0  0
  -21.6035   -4.3058   24.7220 C   0  0  0  0  0  0
  -21.8825   -3.8142   23.4344 C   0  0  0  0  0  0
  -21.9200   -4.6955   22.3397 C   0  0  0  0  0  0
  -22.7785  -13.5209   21.1843 C   0  0  0  0  0  0
  -22.1666   -4.2138   21.0972 F   0  0  0  0  0  0
  -21.5623   -3.4545   25.7734 F   0  0  0  0  0  0
  -29.9421  -13.6565   20.3891 N   0  0  0  0  0  0
  -26.2853  -12.9409   20.3187 N   0  0  0  0  0  0
  -25.9283  -11.6548   20.5697 N   0  0  0  0  0  0
  -22.0429  -12.8215   22.0406 N   0  0  0  0  0  0
  -25.4087  -15.1913   20.4045 N   0  0  0  0  0  0
  -31.7826  -14.8742   20.1580 O   0  0  0  0  0  0
  -21.6652   -6.8864   21.4231 O   0  0  0  0  0  0
  -22.3466  -14.5500   20.6660 O   0  0  0  0  0  0
  -24.6409  -31.8454   23.1900 C   0  0  0  0  0  0
  -25.9197  -32.4689   23.8278 C   0  0  1  0  0  0
  -27.2157  -27.1702   20.1460 C   0  0  0  0  0  0
  -25.5945  -33.8484   24.2215 N   0  0  0  0  0  0
  -23.4421  -30.4675   21.5338 C   0  0  2  0  0  0
  -24.8906  -28.8995   20.1089 C   0  0  0  0  0  0
  -22.7549  -29.4565   22.4852 C   0  0  0  0  0  0
  -18.0305  -28.1385   22.8484 C   0  0  0  0  0  0
  -24.1488  -36.7278   23.2634 C   0  0  0  0  0  0
  -25.9944  -30.7333   21.3797 C   0  0  0  0  0  0
  -26.0667  -29.3459   20.7246 C   0  0  0  0  0  0
  -27.2314  -28.4972   20.7261 C   0  0  0  0  0  0
  -26.0136  -26.8134   19.4963 C   0  0  0  0  0  0
  -24.8760  -27.6459   19.4788 C   0  0  0  0  0  0
  -23.6651  -29.7966   20.1525 C   0  0  0  0  0  0
  -25.4116  -36.3029   24.0310 C   0  0  1  0  0  0
  -20.5915  -28.3705   23.1243 C   0  0  2  0  0  0
  -20.6790  -26.9410   22.5404 C   0  0  0  0  0  0
  -19.5764  -26.6380   21.5210 C   0  0  0  0  0  0
  -18.1946  -26.7927   22.1619 C   0  0  0  0  0  0
  -19.1564  -28.8864   23.2853 C   0  0  0  0  0  0
  -18.9469  -30.1460   23.8872 C   0  0  0  0  0  0
  -17.6462  -30.6573   24.0561 C   0  0  0  0  0  0
  -25.9058  -34.9393   23.5081 C   0  0  0  0  0  0
  -16.5355  -29.9074   23.6325 C   0  0  0  0  0  0
  -16.7285  -28.6499   23.0341 C   0  0  0  0  0  0
  -26.4536  -31.6531   25.0698 C   0  0  0  0  0  0
  -25.3732  -31.3683   26.1399 C   0  0  0  0  0  0
  -27.0401  -30.2928   24.6250 C   0  0  0  0  0  0
  -27.6073  -32.4294   25.7466 C   0  0  0  0  0  0
  -27.5584  -37.1785   24.8460 C   0  0  0  0  0  0
  -21.4242  -29.3044   22.3610 N   0  0  0  0  0  0
  -26.4288  -37.3742   23.9405 N   0  0  0  0  0  0
  -24.7129  -31.0348   22.0907 N   0  0  0  0  0  0
  -23.4215  -28.8108   23.2982 O   0  0  0  0  0  0
  -28.2813  -26.2149   20.2127 O   0  0  0  0  0  0
  -26.5646  -34.8892   22.4657 O   0  0  0  0  0  0
  -23.5545  -32.1310   23.7148 O   0  0  0  0  0  0
  -29.0716  -20.9983   21.3867 C   0  0  0  0  0  0
  -29.2950  -21.1788   19.0936 C   0  0  0  0  0  0
  -29.0769  -21.9130   20.2872 C   0  0  0  0  0  0
  -29.5529  -19.0199   20.1277 C   0  0  0  0  0  0
  -31.7614  -17.9020   20.5317 C   0  0  0  0  0  0
  -30.4884  -17.2731   18.4762 C   0  0  0  0  0  0
  -28.9088  -16.3064   21.6693 C   0  0  0  0  0  0
  -29.1674  -23.5473   20.4084 C   0  0  0  0  0  0
  -28.0217  -24.6983   20.0914 C   0  0  0  0  0  0
  -30.3470  -17.5601   19.9993 C   0  0  0  0  0  0
  -29.3156  -19.6333   21.3066 N   0  0  0  0  0  0
  -29.5296  -19.8212   19.0377 N   0  0  0  0  0  0
  -29.9070  -16.1549   20.6059 N   0  0  0  0  0  0
  -31.4640  -12.7112   19.1680 H   0  0  0  0  0  0
  -30.4315  -11.6057   20.0050 H   0  0  0  0  0  0
  -29.8296  -11.7294   17.5706 H   0  0  0  0  0  0
  -29.6151  -13.4585   17.6894 H   0  0  0  0  0  0
  -27.9195  -11.2779   18.9390 H   0  0  0  0  0  0
  -27.3870  -12.4845   17.7976 H   0  0  0  0  0  0
  -27.6117  -14.2558   19.4434 H   0  0  0  0  0  0
  -28.7607  -12.1832   21.3603 H   0  0  0  0  0  0
  -28.3444  -13.7922   21.8184 H   0  0  0  0  0  0
  -25.2740   -9.5718   22.4766 H   0  0  0  0  0  0
  -23.9995   -7.4659   22.7511 H   0  0  0  0  0  0
  -21.0826   -8.8741   19.8958 H   0  0  0  0  0  0
  -22.3656  -10.9655   19.6168 H   0  0  0  0  0  0
  -21.2019   -7.6151   23.9688 H   0  0  0  0  0  0
  -21.1468   -6.0534   25.9059 H   0  0  0  0  0  0
  -22.0603   -2.7604   23.2842 H   0  0  0  0  0  0
  -22.4050  -11.9898   22.4840 H   0  0  0  0  0  0
  -21.1018  -13.1208   22.2555 H   0  0  0  0  0  0
  -24.6389  -15.8402   20.5247 H   0  0  0  0  0  0
  -26.2501  -15.6322   20.0579 H   0  0  0  0  0  0
  -26.7262  -32.5312   23.1011 H   0  0  0  0  0  0
  -25.0047  -33.9590   25.0329 H   0  0  0  0  0  0
  -22.7429  -31.2917   21.3807 H   0  0  0  0  0  0
  -23.3737  -35.9623   23.3268 H   0  0  0  0  0  0
  -24.3592  -36.8959   22.2063 H   0  0  0  0  0  0
  -23.7284  -37.6474   23.6701 H   0  0  0  0  0  0
  -26.1367  -31.4852   20.6022 H   0  0  0  0  0  0
  -26.8711  -30.7913   22.0149 H   0  0  0  0  0  0
  -28.1296  -28.8316   21.2265 H   0  0  0  0  0  0
  -25.9199  -25.8538   19.0111 H   0  0  0  0  0  0
  -23.9775  -27.3002   18.9870 H   0  0  0  0  0  0
  -23.7970  -30.5683   19.3931 H   0  0  0  0  0  0
  -22.7818  -29.2340   19.8463 H   0  0  0  0  0  0
  -25.1307  -36.1857   25.0808 H   0  0  0  0  0  0
  -21.0012  -28.3300   24.1360 H   0  0  0  0  0  0
  -20.5693  -26.2311   23.3612 H   0  0  0  0  0  0
  -21.6652  -26.7425   22.1193 H   0  0  0  0  0  0
  -19.6911  -25.6291   21.1240 H   0  0  0  0  0  0
  -19.6701  -27.3181   20.6730 H   0  0  0  0  0  0
  -17.4217  -26.6676   21.4014 H   0  0  0  0  0  0
  -18.0333  -26.0067   22.9011 H   0  0  0  0  0  0
  -19.7938  -30.7289   24.2236 H   0  0  0  0  0  0
  -17.5009  -31.6246   24.5170 H   0  0  0  0  0  0
  -15.5358  -30.2960   23.7657 H   0  0  0  0  0  0
  -15.8692  -28.0813   22.7053 H   0  0  0  0  0  0
  -24.5941  -30.6992   25.7733 H   0  0  0  0  0  0
  -24.8861  -32.2829   26.4769 H   0  0  0  0  0  0
  -25.8039  -30.8910   27.0211 H   0  0  0  0  0  0
  -26.3007  -29.6616   24.1305 H   0  0  0  0  0  0
  -27.4083  -29.7262   25.4813 H   0  0  0  0  0  0
  -27.8883  -30.4171   23.9519 H   0  0  0  0  0  0
  -27.2695  -33.3640   26.1948 H   0  0  0  0  0  0
  -28.3919  -32.6779   25.0305 H   0  0  0  0  0  0
  -28.0686  -31.8468   26.5449 H   0  0  0  0  0  0
  -28.2568  -38.0107   24.7525 H   0  0  0  0  0  0
  -28.1126  -36.2643   24.6270 H   0  0  0  0  0  0
  -27.2303  -37.1425   25.8860 H   0  0  0  0  0  0
  -20.9435  -29.8789   21.6826 H   0  0  0  0  0  0
  -26.0151  -38.2811   24.1402 H   0  0  0  0  0  0
  -28.9684  -21.3843   22.3903 H   0  0  0  0  0  0
  -29.3889  -21.7061   18.1552 H   0  0  0  0  0  0
  -32.1122  -18.8440   20.1082 H   0  0  0  0  0  0
  -32.5204  -17.1655   20.2823 H   0  0  0  0  0  0
  -31.7548  -18.0215   21.6155 H   0  0  0  0  0  0
  -30.9904  -18.0869   17.9535 H   0  0  0  0  0  0
  -29.5115  -17.1392   18.0119 H   0  0  0  0  0  0
  -31.0813  -16.3889   18.2488 H   0  0  0  0  0  0
  -27.9044  -16.1353   21.2850 H   0  0  0  0  0  0
  -28.9221  -17.2952   22.1184 H   0  0  0  0  0  0
  -29.0928  -15.6383   22.5104 H   0  0  0  0  0  0
  -30.0156  -23.8123   19.7771 H   0  0  0  0  0  0
  -29.5238  -23.7397   21.4205 H   0  0  0  0  0  0
  -27.1658  -24.4765   20.7304 H   0  0  0  0  0  0
  -27.6804  -24.5170   19.0724 H   0  0  0  0  0  0
  1 25  1  0  0  0
  1 30  2  0  0  0
  1 83  1  0  0  0
  2  3  1  0  0  0
  2 25  1  0  0  0
  2 84  1  0  0  0
  2 85  1  0  0  0
  3  4  1  0  0  0
  3 86  1  0  0  0
  3 87  1  0  0  0
  4  5  1  0  0  0
  4 88  1  0  0  0
  4 89  1  0  0  0
  5  6  1  0  0  0
  5 26  1  0  0  0
  5 90  1  0  0  0
  6 25  1  0  0  0
  6 91  1  0  0  0
  6 92  1  0  0  0
  7  8  2  0  0  0
  7 26  1  0  0  0
  7 29  1  0  0  0
  8  9  1  0  0  0
  8 22  1  0  0  0
  9 10  1  0  0  0
  9 27  2  0  0  0
 10 11  2  0  0  0
 10 15  1  0  0  0
 11 12  1  0  0  0
 11 93  1  0  0  0
 12 13  2  0  0  0
 12 94  1  0  0  0
 13 14  1  0  0  0
 13 31  1  0  0  0
 14 15  2  0  0  0
 14 95  1  0  0  0
 15 96  1  0  0  0
 16 17  2  0  0  0
 16 21  1  0  0  0
 16 31  1  0  0  0
 17 18  1  0  0  0
 17 97  1  0  0  0
 18 19  2  0  0  0
 18 98  1  0  0  0
 19 20  1  0  0  0
 19 24  1  0  0  0
 20 21  2  0  0  0
 20 99  1  0  0  0
 21 23  1  0  0  0
 22 28  1  0  0  0
 22 32  2  0  0  0
 26 27  1  0  0  0
 28100  1  0  0  0
 28101  1  0  0  0
 29102  1  0  0  0
 29103  1  0  0  0
 33 34  1  0  0  0
 33 66  1  0  0  0
 33 70  2  0  0  0
 34 36  1  0  0  0
 34 59  1  0  0  0
 34104  1  0  0  0
 35 44  2  0  0  0
 35 45  1  0  0  0
 35 68  1  0  0  0
 36 56  1  0  0  0
 36105  1  0  0  0
 37 39  1  0  0  0
 37 47  1  0  0  0
 37 66  1  0  0  0
 37106  1  0  0  0
 38 43  2  0  0  0
 38 46  1  0  0  0
 38 47  1  0  0  0
 39 64  1  0  0  0
 39 67  2  0  0  0
 40 52  1  0  0  0
 40 53  2  0  0  0
 40 58  1  0  0  0
 41107  1  0  0  0
 41108  1  0  0  0
 41109  1  0  0  0
 41 48  1  0  0  0
 42 43  1  0  0  0
 42 66  1  0  0  0
 42110  1  0  0  0
 42111  1  0  0  0
 43 44  1  0  0  0
 44112  1  0  0  0
 45 46  2  0  0  0
 45113  1  0  0  0
 46114  1  0  0  0
 47115  1  0  0  0
 47116  1  0  0  0
 48 56  1  0  0  0
 48 65  1  0  0  0
 48117  1  0  0  0
 49 50  1  0  0  0
 49 53  1  0  0  0
 49 64  1  0  0  0
 49118  1  0  0  0
 50 51  1  0  0  0
 50119  1  0  0  0
 50120  1  0  0  0
 51 52  1  0  0  0
 51121  1  0  0  0
 51122  1  0  0  0
 52123  1  0  0  0
 52124  1  0  0  0
 53 54  1  0  0  0
 54 55  2  0  0  0
 54125  1  0  0  0
 55 57  1  0  0  0
 55126  1  0  0  0
 56 69  2  0  0  0
 57 58  2  0  0  0
 57127  1  0  0  0
 58128  1  0  0  0
 59 60  1  0  0  0
 59 61  1  0  0  0
 59 62  1  0  0  0
 60129  1  0  0  0
 60130  1  0  0  0
 60131  1  0  0  0
 61132  1  0  0  0
 61133  1  0  0  0
 61134  1  0  0  0
 62135  1  0  0  0
 62136  1  0  0  0
 62137  1  0  0  0
 63 65  1  0  0  0
 63138  1  0  0  0
 63139  1  0  0  0
 63140  1  0  0  0
 64141  1  0  0  0
 65142  1  0  0  0
 68 79  1  0  0  0
 71 73  2  0  0  0
 71 81  1  0  0  0
 71143  1  0  0  0
 72 73  1  0  0  0
 72 82  2  0  0  0
 72144  1  0  0  0
 73 78  1  0  0  0
 74 80  1  0  0  0
 74 81  2  0  0  0
 74 82  1  0  0  0
 75145  1  0  0  0
 75146  1  0  0  0
 75147  1  0  0  0
 75 80  1  0  0  0
 76 80  1  0  0  0
 76148  1  0  0  0
 76149  1  0  0  0
 76150  1  0  0  0
 77 83  1  0  0  0
 77151  1  0  0  0
 77152  1  0  0  0
 77153  1  0  0  0
 78 79  1  0  0  0
 78154  1  0  0  0
 78155  1  0  0  0
 79156  1  0  0  0
 79157  1  0  0  0
 80 83  1  0  0  0
M  ISO  4   1 100  68 101  79 101  83 100
M  END
> <chiral flag>
0

> <version>
0

> <s_m_source_file>
/data/baiqing/PycharmProjects/Reinvent-master-3.2/result/LINK_invent/BTK/process_docking_weight1_custom_sum_contain_oxygen_bond_distance_aromatic_linkinvent_7_9_3/rearranged_h_0063.sdf

> <i_m_source_file_index>
59

> <r_mmod_Potential_Energy-OPLS-2005>
85.2508544921875

> <r_mmod_Stretch_Energy-OPLS-2005>
222.29069519043

> <r_mmod_Bend_Energy-OPLS-2005>
269.284820556641

> <r_mmod_Torsional_Energy-OPLS-2005>
264.082611083984

> <r_mmod_Improper_Torsional_Energy-OPLS-2005>
14.9823722839355

> <r_mmod_Van_der_Waal_Energy-OPLS-2005>
164.911331176758

> <r_mmod_Electrostatic_Energy-OPLS-2005>
-795.635131835938

> <r_mmod_Solvation_Energy-OPLS-2005>
-205.304397583008

> <b_mmod_Minimization_Converged-OPLS-2005>
0

> <r_mmod_RMS_Derivative-OPLS-2005>
2.34292960166931

$$$$
61
                    3D
 Structure written by MMmdl.
166174  0  0  1  0            999 V2000
  -30.6776  -14.5399   20.4845 C   0  0  0  0  0  0
  -30.4267  -12.3129   19.4813 C   0  0  0  0  0  0
  -29.5279  -12.4796   18.2354 C   0  0  0  0  0  0
  -28.0438  -12.3096   18.6193 C   0  0  0  0  0  0
  -27.6445  -13.1840   19.8356 C   0  0  2  0  0  0
  -28.6799  -13.0780   20.9799 C   0  0  0  0  0  0
  -25.2634  -13.8068   20.5568 C   0  0  0  0  0  0
  -24.1870  -13.0422   20.9150 C   0  0  0  0  0  0
  -24.6362  -11.6886   20.8700 C   0  0  0  0  0  0
  -23.8968  -10.4314   21.0360 C   0  0  0  0  0  0
  -24.3547   -9.4256   21.9134 C   0  0  0  0  0  0
  -23.6253   -8.2287   22.0740 C   0  0  0  0  0  0
  -22.4227   -8.0299   21.3546 C   0  0  0  0  0  0
  -21.9830   -9.0242   20.4632 C   0  0  0  0  0  0
  -22.7141  -10.2136   20.3020 C   0  0  0  0  0  0
  -21.6857   -6.0743   22.5289 C   0  0  0  0  0  0
  -21.4017   -6.5642   23.8219 C   0  0  0  0  0  0
  -21.3663   -5.6792   24.9174 C   0  0  0  0  0  0
  -21.6046   -4.3048   24.7237 C   0  0  0  0  0  0
  -21.8822   -3.8156   23.4352 C   0  0  0  0  0  0
  -21.9205   -4.6971   22.3418 C   0  0  0  0  0  0
  -22.7933  -13.5276   21.1841 C   0  0  0  0  0  0
  -22.1653   -4.2176   21.0977 F   0  0  0  0  0  0
  -21.5639   -3.4517   25.7725 F   0  0  0  0  0  0
  -30.0222  -13.3463   20.4479 N   0  0  0  0  0  0
  -26.2941  -12.9158   20.3099 N   0  0  0  0  0  0
  -25.9251  -11.6356   20.5647 N   0  0  0  0  0  0
  -22.0525  -12.8298   22.0368 N   0  0  0  0  0  0
  -25.4443  -15.1806   20.3993 N   0  0  0  0  0  0
  -31.8893  -14.6085   20.2569 O   0  0  0  0  0  0
  -21.6625   -6.8888   21.4245 O   0  0  0  0  0  0
  -22.3645  -14.5578   20.6656 O   0  0  0  0  0  0
  -24.6205  -31.8709   23.2027 C   0  0  0  0  0  0
  -25.9107  -32.4805   23.8364 C   0  0  1  0  0  0
  -27.2274  -27.4372   20.1047 C   0  0  0  0  0  0
  -25.5984  -33.8623   24.2302 N   0  0  0  0  0  0
  -23.4027  -30.4920   21.5496 C   0  0  2  0  0  0
  -24.8398  -28.9528   20.1184 C   0  0  0  0  0  0
  -22.7428  -29.4666   22.5016 C   0  0  0  0  0  0
  -18.0278  -28.1384   22.8483 C   0  0  0  0  0  0
  -24.1501  -36.7336   23.2624 C   0  0  0  0  0  0
  -25.9289  -30.8401   21.3462 C   0  0  0  0  0  0
  -26.0023  -29.4723   20.6991 C   0  0  0  0  0  0
  -27.1998  -28.7251   20.6816 C   0  0  0  0  0  0
  -26.0475  -26.9298   19.5151 C   0  0  0  0  0  0
  -24.8540  -27.6769   19.5300 C   0  0  0  0  0  0
  -23.6064  -29.8260   20.1638 C   0  0  0  0  0  0
  -25.4114  -36.3123   24.0327 C   0  0  1  0  0  0
  -20.5881  -28.3637   23.1339 C   0  0  2  0  0  0
  -20.6790  -26.9365   22.5471 C   0  0  0  0  0  0
  -19.5741  -26.6384   21.5244 C   0  0  0  0  0  0
  -18.1925  -26.7898   22.1700 C   0  0  0  0  0  0
  -19.1533  -28.8828   23.2909 C   0  0  0  0  0  0
  -18.9487  -30.1420   23.8964 C   0  0  0  0  0  0
  -17.6501  -30.6577   24.0622 C   0  0  0  0  0  0
  -25.9045  -34.9486   23.5092 C   0  0  0  0  0  0
  -16.5391  -29.9142   23.6300 C   0  0  0  0  0  0
  -16.7267  -28.6550   23.0313 C   0  0  0  0  0  0
  -26.4516  -31.6584   25.0701 C   0  0  0  0  0  0
  -25.3805  -31.3721   26.1483 C   0  0  0  0  0  0
  -27.0326  -30.3012   24.6065 C   0  0  0  0  0  0
  -27.6049  -32.4345   25.7499 C   0  0  0  0  0  0
  -27.5580  -37.1821   24.8452 C   0  0  0  0  0  0
  -21.4166  -29.2976   22.3695 N   0  0  0  0  0  0
  -26.4299  -37.3820   23.9400 N   0  0  0  0  0  0
  -24.6701  -31.0825   22.0920 N   0  0  0  0  0  0
  -23.4193  -28.8289   23.3125 O   0  0  0  0  0  0
  -28.4099  -26.7292   20.1253 O   0  0  0  0  0  0
  -26.5554  -34.8947   22.4621 O   0  0  0  0  0  0
  -23.5397  -32.1544   23.7380 O   0  0  0  0  0  0
  -30.1796  -17.9843   23.1776 C   0  0  0  0  0  0
  -28.8276  -17.8642   21.4692 C   0  0  0  0  0  0
  -29.1026  -18.6717   22.5364 C   0  0  0  0  0  0
  -30.3937  -16.6430   19.0899 C   0  0  0  0  0  0
  -26.4917  -24.8577   22.1016 C   0  0  0  0  0  0
  -29.2973  -24.0096   23.6890 C   0  0  0  0  0  0
  -28.3926  -19.9635   22.9007 C   0  0  0  0  0  0
  -29.0406  -21.2158   22.2598 C   0  0  0  0  0  0
  -28.0899  -22.4422   22.2205 C   0  0  0  0  0  0
  -28.3646  -25.3093   20.3486 C   0  0  0  0  0  0
  -29.8714  -15.8754   20.3262 C   0  0  2  0  0  0
  -28.0089  -24.9517   21.8176 C   0  0  2  0  0  0
  -30.5777  -16.9021   22.5041 N   0  0  0  0  0  0
  -29.7407  -16.8256   21.4414 N   0  0  0  0  0  0
  -28.7814  -23.7632   22.3160 N   0  3  1  0  0  0
  -31.4800  -12.3884   19.2095 H   0  0  0  0  0  0
  -30.3045  -11.3222   19.9244 H   0  0  0  0  0  0
  -29.8106  -11.7528   17.4721 H   0  0  0  0  0  0
  -29.6907  -13.4653   17.7913 H   0  0  0  0  0  0
  -27.8840  -11.2555   18.8426 H   0  0  0  0  0  0
  -27.4086  -12.5350   17.7610 H   0  0  0  0  0  0
  -27.6182  -14.1914   19.4418 H   0  0  0  0  0  0
  -28.6553  -12.0801   21.4200 H   0  0  0  0  0  0
  -28.4336  -13.7722   21.7832 H   0  0  0  0  0  0
  -25.2715   -9.5777   22.4651 H   0  0  0  0  0  0
  -23.9993   -7.4712   22.7469 H   0  0  0  0  0  0
  -21.0772   -8.8727   19.8941 H   0  0  0  0  0  0
  -22.3576  -10.9633   19.6097 H   0  0  0  0  0  0
  -21.1964   -7.6143   23.9724 H   0  0  0  0  0  0
  -21.1470   -6.0513   25.9078 H   0  0  0  0  0  0
  -22.0591   -2.7619   23.2839 H   0  0  0  0  0  0
  -22.4067  -11.9914   22.4711 H   0  0  0  0  0  0
  -21.1161  -13.1416   22.2534 H   0  0  0  0  0  0
  -24.6848  -15.8443   20.5048 H   0  0  0  0  0  0
  -26.2926  -15.6067   20.0510 H   0  0  0  0  0  0
  -26.7185  -32.5453   23.1119 H   0  0  0  0  0  0
  -25.0307  -33.9781   25.0571 H   0  0  0  0  0  0
  -22.6893  -31.3070   21.4096 H   0  0  0  0  0  0
  -23.3771  -35.9650   23.3282 H   0  0  0  0  0  0
  -24.3616  -36.8981   22.2047 H   0  0  0  0  0  0
  -23.7259  -37.6543   23.6641 H   0  0  0  0  0  0
  -26.0370  -31.6005   20.5721 H   0  0  0  0  0  0
  -26.8241  -30.8926   21.9555 H   0  0  0  0  0  0
  -28.0997  -29.1256   21.1250 H   0  0  0  0  0  0
  -26.0230  -25.9596   19.0428 H   0  0  0  0  0  0
  -23.9567  -27.2577   19.0953 H   0  0  0  0  0  0
  -23.7334  -30.6069   19.4126 H   0  0  0  0  0  0
  -22.7232  -29.2624   19.8568 H   0  0  0  0  0  0
  -25.1282  -36.2006   25.0819 H   0  0  0  0  0  0
  -20.9979  -28.3196   24.1449 H   0  0  0  0  0  0
  -20.5692  -26.2297   23.3709 H   0  0  0  0  0  0
  -21.6697  -26.7389   22.1346 H   0  0  0  0  0  0
  -19.6843  -25.6363   21.1124 H   0  0  0  0  0  0
  -19.6621  -27.3280   20.6830 H   0  0  0  0  0  0
  -17.4184  -26.6514   21.4128 H   0  0  0  0  0  0
  -18.0407  -26.0097   22.9182 H   0  0  0  0  0  0
  -19.7976  -30.7157   24.2414 H   0  0  0  0  0  0
  -17.5090  -31.6239   24.5289 H   0  0  0  0  0  0
  -15.5419  -30.3116   23.7577 H   0  0  0  0  0  0
  -15.8640  -28.0921   22.6994 H   0  0  0  0  0  0
  -24.5926  -30.7096   25.7867 H   0  0  0  0  0  0
  -24.9060  -32.2910   26.4936 H   0  0  0  0  0  0
  -25.8200  -30.8918   27.0244 H   0  0  0  0  0  0
  -26.2836  -29.6787   24.1153 H   0  0  0  0  0  0
  -27.4161  -29.7209   25.4477 H   0  0  0  0  0  0
  -27.8645  -30.4310   23.9136 H   0  0  0  0  0  0
  -27.2570  -33.3611   26.2079 H   0  0  0  0  0  0
  -28.3855  -32.7027   25.0358 H   0  0  0  0  0  0
  -28.0756  -31.8557   26.5464 H   0  0  0  0  0  0
  -28.2589  -38.0129   24.7521 H   0  0  0  0  0  0
  -28.1096  -36.2678   24.6239 H   0  0  0  0  0  0
  -27.2303  -37.1412   25.8855 H   0  0  0  0  0  0
  -20.9346  -29.8621   21.6843 H   0  0  0  0  0  0
  -26.0202  -38.2894   24.1423 H   0  0  0  0  0  0
  -30.6974  -18.2463   24.0928 H   0  0  0  0  0  0
  -28.0835  -17.9809   20.6964 H   0  0  0  0  0  0
  -29.7194  -17.4536   18.8066 H   0  0  0  0  0  0
  -30.4895  -15.9907   18.2201 H   0  0  0  0  0  0
  -31.3782  -17.0770   19.2825 H   0  0  0  0  0  0
  -26.0220  -25.8402   22.0444 H   0  0  0  0  0  0
  -26.2861  -24.4821   23.1043 H   0  0  0  0  0  0
  -25.9828  -24.2116   21.3861 H   0  0  0  0  0  0
  -29.9262  -23.2003   24.0563 H   0  0  0  0  0  0
  -28.4750  -24.1385   24.3964 H   0  0  0  0  0  0
  -29.9128  -24.9108   23.7155 H   0  0  0  0  0  0
  -28.3412  -20.0994   23.9825 H   0  0  0  0  0  0
  -27.3531  -19.9102   22.5735 H   0  0  0  0  0  0
  -29.3363  -20.9927   21.2334 H   0  0  0  0  0  0
  -29.9723  -21.4294   22.7823 H   0  0  0  0  0  0
  -27.3668  -22.3775   23.0344 H   0  0  0  0  0  0
  -27.5189  -22.3821   21.2912 H   0  0  0  0  0  0
  -27.7349  -24.7850   19.6333 H   0  0  0  0  0  0
  -29.3800  -24.9600   20.1534 H   0  0  0  0  0  0
  -28.8496  -15.6230   20.0909 H   0  0  0  0  0  0
  -28.3547  -25.8111   22.3955 H   0  0  0  0  0  0
  -29.5981  -23.7048   21.7230 H   0  0  0  0  0  0
  1 25  1  0  0  0
  1 30  2  0  0  0
  1 81  1  0  0  0
  2  3  1  0  0  0
  2 25  1  0  0  0
  2 86  1  0  0  0
  2 87  1  0  0  0
  3  4  1  0  0  0
  3 88  1  0  0  0
  3 89  1  0  0  0
  4  5  1  0  0  0
  4 90  1  0  0  0
  4 91  1  0  0  0
  5  6  1  0  0  0
  5 26  1  0  0  0
  5 92  1  0  0  0
  6 25  1  0  0  0
  6 93  1  0  0  0
  6 94  1  0  0  0
  7  8  2  0  0  0
  7 26  1  0  0  0
  7 29  1  0  0  0
  8  9  1  0  0  0
  8 22  1  0  0  0
  9 10  1  0  0  0
  9 27  2  0  0  0
 10 11  2  0  0  0
 10 15  1  0  0  0
 11 12  1  0  0  0
 11 95  1  0  0  0
 12 13  2  0  0  0
 12 96  1  0  0  0
 13 14  1  0  0  0
 13 31  1  0  0  0
 14 15  2  0  0  0
 14 97  1  0  0  0
 15 98  1  0  0  0
 16 17  2  0  0  0
 16 21  1  0  0  0
 16 31  1  0  0  0
 17 18  1  0  0  0
 17 99  1  0  0  0
 18 19  2  0  0  0
 18100  1  0  0  0
 19 20  1  0  0  0
 19 24  1  0  0  0
 20 21  2  0  0  0
 20101  1  0  0  0
 21 23  1  0  0  0
 22 28  1  0  0  0
 22 32  2  0  0  0
 26 27  1  0  0  0
 28102  1  0  0  0
 28103  1  0  0  0
 29104  1  0  0  0
 29105  1  0  0  0
 33 34  1  0  0  0
 33 66  1  0  0  0
 33 70  2  0  0  0
 34 36  1  0  0  0
 34 59  1  0  0  0
 34106  1  0  0  0
 35 44  2  0  0  0
 35 45  1  0  0  0
 35 68  1  0  0  0
 36 56  1  0  0  0
 36107  1  0  0  0
 37 39  1  0  0  0
 37 47  1  0  0  0
 37 66  1  0  0  0
 37108  1  0  0  0
 38 43  2  0  0  0
 38 46  1  0  0  0
 38 47  1  0  0  0
 39 64  1  0  0  0
 39 67  2  0  0  0
 40 52  1  0  0  0
 40 53  2  0  0  0
 40 58  1  0  0  0
 41109  1  0  0  0
 41110  1  0  0  0
 41111  1  0  0  0
 41 48  1  0  0  0
 42 43  1  0  0  0
 42 66  1  0  0  0
 42112  1  0  0  0
 42113  1  0  0  0
 43 44  1  0  0  0
 44114  1  0  0  0
 45 46  2  0  0  0
 45115  1  0  0  0
 46116  1  0  0  0
 47117  1  0  0  0
 47118  1  0  0  0
 48 56  1  0  0  0
 48 65  1  0  0  0
 48119  1  0  0  0
 49 50  1  0  0  0
 49 53  1  0  0  0
 49 64  1  0  0  0
 49120  1  0  0  0
 50 51  1  0  0  0
 50121  1  0  0  0
 50122  1  0  0  0
 51 52  1  0  0  0
 51123  1  0  0  0
 51124  1  0  0  0
 52125  1  0  0  0
 52126  1  0  0  0
 53 54  1  0  0  0
 54 55  2  0  0  0
 54127  1  0  0  0
 55 57  1  0  0  0
 55128  1  0  0  0
 56 69  2  0  0  0
 57 58  2  0  0  0
 57129  1  0  0  0
 58130  1  0  0  0
 59 60  1  0  0  0
 59 61  1  0  0  0
 59 62  1  0  0  0
 60131  1  0  0  0
 60132  1  0  0  0
 60133  1  0  0  0
 61134  1  0  0  0
 61135  1  0  0  0
 61136  1  0  0  0
 62137  1  0  0  0
 62138  1  0  0  0
 62139  1  0  0  0
 63 65  1  0  0  0
 63140  1  0  0  0
 63141  1  0  0  0
 63142  1  0  0  0
 64143  1  0  0  0
 65144  1  0  0  0
 68 80  1  0  0  0
 71 73  1  0  0  0
 71 83  2  0  0  0
 71145  1  0  0  0
 72 73  2  0  0  0
 72 84  1  0  0  0
 72146  1  0  0  0
 73 77  1  0  0  0
 74147  1  0  0  0
 74148  1  0  0  0
 74149  1  0  0  0
 74 81  1  0  0  0
 75150  1  0  0  0
 75151  1  0  0  0
 75152  1  0  0  0
 75 82  1  0  0  0
 76153  1  0  0  0
 76154  1  0  0  0
 76155  1  0  0  0
 76 85  1  0  0  0
 77 78  1  0  0  0
 77156  1  0  0  0
 77157  1  0  0  0
 78 79  1  0  0  0
 78158  1  0  0  0
 78159  1  0  0  0
 79 85  1  0  0  0
 79160  1  0  0  0
 79161  1  0  0  0
 80 82  1  0  0  0
 80162  1  0  0  0
 80163  1  0  0  0
 81 84  1  0  0  0
 81164  1  0  0  0
 82 85  1  0  0  0
 82165  1  0  0  0
 83 84  1  0  0  0
 85166  1  0  0  0
M  CHG  1  85   1
M  ISO  4   1 100  68 101  80 101  81 100
M  END
> <chiral flag>
0

> <version>
0

> <s_m_source_file>
/data/baiqing/PycharmProjects/Reinvent-master-3.2/result/LINK_invent/BTK/process_docking_weight1_custom_sum_contain_oxygen_bond_distance_aromatic_linkinvent_7_9_3/rearranged_h_0063.sdf

> <i_m_source_file_index>
60

> <r_mmod_Potential_Energy-OPLS-2005>
41.3529281616211

> <r_mmod_Stretch_Energy-OPLS-2005>
40.8154182434082

> <r_mmod_Bend_Energy-OPLS-2005>
126.062164306641

> <r_mmod_Torsional_Energy-OPLS-2005>
247.450332641602

> <r_mmod_Improper_Torsional_Energy-OPLS-2005>
12.9753551483154

> <r_mmod_Van_der_Waal_Energy-OPLS-2005>
129.874557495117

> <r_mmod_Electrostatic_Energy-OPLS-2005>
-103.473976135254

> <r_mmod_Solvation_Energy-OPLS-2005>
-441.375244140625

> <b_mmod_Minimization_Converged-OPLS-2005>
0

> <r_mmod_RMS_Derivative-OPLS-2005>
4.98577356338501

$$$$
62
                    3D
 Structure written by MMmdl.
154162  0  0  1  0            999 V2000
  -30.5426  -15.0024   20.4468 C   0  0  0  0  0  0
  -30.4389  -12.6254   19.5122 C   0  0  0  0  0  0
  -29.5255  -12.5631   18.2645 C   0  0  0  0  0  0
  -28.0570  -12.3398   18.6702 C   0  0  0  0  0  0
  -27.6326  -13.2568   19.8457 C   0  0  2  0  0  0
  -28.6750  -13.2521   20.9818 C   0  0  0  0  0  0
  -25.2451  -13.8228   20.5683 C   0  0  0  0  0  0
  -24.1782  -13.0438   20.9225 C   0  0  0  0  0  0
  -24.6420  -11.6933   20.8762 C   0  0  0  0  0  0
  -23.9106  -10.4295   21.0417 C   0  0  0  0  0  0
  -24.3649   -9.4203   21.9191 C   0  0  0  0  0  0
  -23.6311   -8.2241   22.0763 C   0  0  0  0  0  0
  -22.4287   -8.0288   21.3558 C   0  0  0  0  0  0
  -21.9939   -9.0261   20.4656 C   0  0  0  0  0  0
  -22.7280  -10.2133   20.3063 C   0  0  0  0  0  0
  -21.6848   -6.0749   22.5288 C   0  0  0  0  0  0
  -21.4013   -6.5651   23.8224 C   0  0  0  0  0  0
  -21.3656   -5.6800   24.9185 C   0  0  0  0  0  0
  -21.6045   -4.3064   24.7232 C   0  0  0  0  0  0
  -21.8815   -3.8157   23.4352 C   0  0  0  0  0  0
  -21.9191   -4.6977   22.3410 C   0  0  0  0  0  0
  -22.7797  -13.5201   21.1872 C   0  0  0  0  0  0
  -22.1660   -4.2161   21.0987 F   0  0  0  0  0  0
  -21.5628   -3.4548   25.7744 F   0  0  0  0  0  0
  -29.9447  -13.7262   20.4072 N   0  0  0  0  0  0
  -26.2899  -12.9487   20.3258 N   0  0  0  0  0  0
  -25.9355  -11.6608   20.5745 N   0  0  0  0  0  0
  -22.0450  -12.8184   22.0430 N   0  0  0  0  0  0
  -25.4090  -15.1948   20.4061 N   0  0  0  0  0  0
  -31.7195  -14.9939   20.0594 O   0  0  0  0  0  0
  -21.6640   -6.8893   21.4249 O   0  0  0  0  0  0
  -22.3466  -14.5494   20.6712 O   0  0  0  0  0  0
  -24.6467  -31.8404   23.1862 C   0  0  0  0  0  0
  -25.9230  -32.4678   23.8257 C   0  0  1  0  0  0
  -27.2136  -27.0994   20.1517 C   0  0  0  0  0  0
  -25.5963  -33.8482   24.2177 N   0  0  0  0  0  0
  -23.4525  -30.4592   21.5324 C   0  0  2  0  0  0
  -24.9019  -28.8806   20.1075 C   0  0  0  0  0  0
  -22.7584  -29.4524   22.4846 C   0  0  0  0  0  0
  -18.0311  -28.1403   22.8471 C   0  0  0  0  0  0
  -24.1499  -36.7249   23.2644 C   0  0  0  0  0  0
  -26.0109  -30.7004   21.3924 C   0  0  0  0  0  0
  -26.0797  -29.3087   20.7326 C   0  0  0  0  0  0
  -27.2344  -28.4331   20.7397 C   0  0  0  0  0  0
  -26.0135  -26.7859   19.4766 C   0  0  0  0  0  0
  -24.8837  -27.6342   19.4635 C   0  0  0  0  0  0
  -23.6809  -29.7885   20.1514 C   0  0  0  0  0  0
  -25.4130  -36.3023   24.0314 C   0  0  1  0  0  0
  -20.5924  -28.3730   23.1230 C   0  0  2  0  0  0
  -20.6799  -26.9432   22.5405 C   0  0  0  0  0  0
  -19.5777  -26.6382   21.5215 C   0  0  0  0  0  0
  -18.1953  -26.7940   22.1618 C   0  0  0  0  0  0
  -19.1568  -28.8883   23.2841 C   0  0  0  0  0  0
  -18.9483  -30.1475   23.8876 C   0  0  0  0  0  0
  -17.6477  -30.6595   24.0557 C   0  0  0  0  0  0
  -25.9072  -34.9396   23.5057 C   0  0  0  0  0  0
  -16.5366  -29.9085   23.6341 C   0  0  0  0  0  0
  -16.7295  -28.6507   23.0359 C   0  0  0  0  0  0
  -26.4537  -31.6559   25.0712 C   0  0  0  0  0  0
  -25.3708  -31.3743   26.1395 C   0  0  0  0  0  0
  -27.0418  -30.2953   24.6325 C   0  0  0  0  0  0
  -27.6065  -32.4324   25.7496 C   0  0  0  0  0  0
  -27.5581  -37.1781   24.8464 C   0  0  0  0  0  0
  -21.4274  -29.3047   22.3596 N   0  0  0  0  0  0
  -26.4297  -37.3735   23.9401 N   0  0  0  0  0  0
  -24.7235  -31.0222   22.0920 N   0  0  0  0  0  0
  -23.4206  -28.8079   23.3021 O   0  0  0  0  0  0
  -28.2512  -26.0883   20.2410 O   0  0  0  0  0  0
  -26.5663  -34.8901   22.4639 O   0  0  0  0  0  0
  -23.5575  -32.1304   23.7058 O   0  0  0  0  0  0
  -28.4077  -17.8874   17.9963 C   0  0  0  0  0  0
  -29.0797  -19.0059   19.6536 C   0  0  0  0  0  0
  -31.1054  -17.2446   21.6344 C   0  0  0  0  0  0
  -28.8205  -16.3755   21.9502 C   0  0  0  0  0  0
  -28.8746  -23.1764   20.4666 C   0  0  0  0  0  0
  -28.0102  -24.5583   19.9513 C   0  0  0  0  0  0
  -28.6577  -21.5721   19.9208 C   0  0  0  0  0  0
  -29.9395  -16.5372   20.9073 C   0  0  0  0  0  0
  -28.4845  -19.1562   18.4685 N   0  0  0  0  0  0
  -28.9031  -16.9431   18.7789 N   0  0  0  0  0  0
  -29.4037  -17.5975   19.8628 N   0  0  0  0  0  0
  -29.2624  -20.1999   20.4208 O   0  0  0  0  0  0
  -31.4725  -12.7685   19.1946 H   0  0  0  0  0  0
  -30.4378  -11.6683   20.0366 H   0  0  0  0  0  0
  -29.8536  -11.7712   17.5899 H   0  0  0  0  0  0
  -29.6121  -13.4974   17.7075 H   0  0  0  0  0  0
  -27.9505  -11.2942   18.9621 H   0  0  0  0  0  0
  -27.3968  -12.4883   17.8144 H   0  0  0  0  0  0
  -27.6039  -14.2682   19.4386 H   0  0  0  0  0  0
  -28.7840  -12.2480   21.3941 H   0  0  0  0  0  0
  -28.3468  -13.8541   21.8215 H   0  0  0  0  0  0
  -25.2798   -9.5664   22.4763 H   0  0  0  0  0  0
  -24.0020   -7.4630   22.7482 H   0  0  0  0  0  0
  -21.0873   -8.8790   19.8958 H   0  0  0  0  0  0
  -22.3757  -10.9673   19.6168 H   0  0  0  0  0  0
  -21.2004   -7.6160   23.9727 H   0  0  0  0  0  0
  -21.1481   -6.0537   25.9089 H   0  0  0  0  0  0
  -22.0596   -2.7620   23.2848 H   0  0  0  0  0  0
  -22.4087  -11.9862   22.4843 H   0  0  0  0  0  0
  -21.1061  -13.1192   22.2620 H   0  0  0  0  0  0
  -24.6374  -15.8450   20.5093 H   0  0  0  0  0  0
  -26.2527  -15.6314   20.0563 H   0  0  0  0  0  0
  -26.7294  -32.5272   23.0977 H   0  0  0  0  0  0
  -25.0091  -33.9587   25.0313 H   0  0  0  0  0  0
  -22.7574  -31.2869   21.3765 H   0  0  0  0  0  0
  -23.3767  -35.9576   23.3291 H   0  0  0  0  0  0
  -24.3582  -36.8895   22.2062 H   0  0  0  0  0  0
  -23.7248  -37.6435   23.6695 H   0  0  0  0  0  0
  -26.1727  -31.4532   20.6191 H   0  0  0  0  0  0
  -26.8787  -30.7496   22.0388 H   0  0  0  0  0  0
  -28.1268  -28.7494   21.2617 H   0  0  0  0  0  0
  -25.9123  -25.8368   18.9721 H   0  0  0  0  0  0
  -23.9869  -27.3047   18.9570 H   0  0  0  0  0  0
  -23.8212  -30.5641   19.3971 H   0  0  0  0  0  0
  -22.7941  -29.2347   19.8391 H   0  0  0  0  0  0
  -25.1321  -36.1849   25.0806 H   0  0  0  0  0  0
  -21.0013  -28.3331   24.1352 H   0  0  0  0  0  0
  -20.5714  -26.2336   23.3623 H   0  0  0  0  0  0
  -21.6663  -26.7447   22.1196 H   0  0  0  0  0  0
  -19.6941  -25.6286   21.1267 H   0  0  0  0  0  0
  -19.6727  -27.3177   20.6734 H   0  0  0  0  0  0
  -17.4226  -26.6685   21.4018 H   0  0  0  0  0  0
  -18.0346  -26.0092   22.9024 H   0  0  0  0  0  0
  -19.7954  -30.7292   24.2248 H   0  0  0  0  0  0
  -17.5029  -31.6281   24.5153 H   0  0  0  0  0  0
  -15.5366  -30.2978   23.7684 H   0  0  0  0  0  0
  -15.8690  -28.0814   22.7093 H   0  0  0  0  0  0
  -24.5915  -30.7068   25.7702 H   0  0  0  0  0  0
  -24.8866  -32.2916   26.4749 H   0  0  0  0  0  0
  -25.7979  -30.8961   27.0219 H   0  0  0  0  0  0
  -26.3055  -29.6646   24.1340 H   0  0  0  0  0  0
  -27.4023  -29.7281   25.4913 H   0  0  0  0  0  0
  -27.8959  -30.4177   23.9665 H   0  0  0  0  0  0
  -27.2680  -33.3657   26.2003 H   0  0  0  0  0  0
  -28.3918  -32.6822   25.0352 H   0  0  0  0  0  0
  -28.0697  -31.8492   26.5465 H   0  0  0  0  0  0
  -28.2582  -38.0094   24.7514 H   0  0  0  0  0  0
  -28.1093  -36.2615   24.6296 H   0  0  0  0  0  0
  -27.2290  -37.1428   25.8865 H   0  0  0  0  0  0
  -20.9493  -29.8739   21.6748 H   0  0  0  0  0  0
  -26.0162  -38.2802   24.1397 H   0  0  0  0  0  0
  -27.9524  -17.6475   17.0459 H   0  0  0  0  0  0
  -30.7852  -18.1756   22.1025 H   0  0  0  0  0  0
  -31.9085  -17.4962   20.9419 H   0  0  0  0  0  0
  -31.5317  -16.6173   22.4188 H   0  0  0  0  0  0
  -28.5583  -17.3344   22.3985 H   0  0  0  0  0  0
  -29.1175  -15.7150   22.7651 H   0  0  0  0  0  0
  -27.9090  -15.9905   21.4965 H   0  0  0  0  0  0
  -28.7622  -23.1443   21.5503 H   0  0  0  0  0  0
  -29.9285  -23.4038   20.3075 H   0  0  0  0  0  0
  -26.9868  -24.3579   20.2676 H   0  0  0  0  0  0
  -27.9805  -24.4929   18.8629 H   0  0  0  0  0  0
  -28.9133  -21.6352   18.8625 H   0  0  0  0  0  0
  -27.5800  -21.4079   19.9325 H   0  0  0  0  0  0
  1 25  1  0  0  0
  1 30  2  0  0  0
  1 78  1  0  0  0
  2  3  1  0  0  0
  2 25  1  0  0  0
  2 83  1  0  0  0
  2 84  1  0  0  0
  3  4  1  0  0  0
  3 85  1  0  0  0
  3 86  1  0  0  0
  4  5  1  0  0  0
  4 87  1  0  0  0
  4 88  1  0  0  0
  5  6  1  0  0  0
  5 26  1  0  0  0
  5 89  1  0  0  0
  6 25  1  0  0  0
  6 90  1  0  0  0
  6 91  1  0  0  0
  7  8  2  0  0  0
  7 26  1  0  0  0
  7 29  1  0  0  0
  8  9  1  0  0  0
  8 22  1  0  0  0
  9 10  1  0  0  0
  9 27  2  0  0  0
 10 11  2  0  0  0
 10 15  1  0  0  0
 11 12  1  0  0  0
 11 92  1  0  0  0
 12 13  2  0  0  0
 12 93  1  0  0  0
 13 14  1  0  0  0
 13 31  1  0  0  0
 14 15  2  0  0  0
 14 94  1  0  0  0
 15 95  1  0  0  0
 16 17  2  0  0  0
 16 21  1  0  0  0
 16 31  1  0  0  0
 17 18  1  0  0  0
 17 96  1  0  0  0
 18 19  2  0  0  0
 18 97  1  0  0  0
 19 20  1  0  0  0
 19 24  1  0  0  0
 20 21  2  0  0  0
 20 98  1  0  0  0
 21 23  1  0  0  0
 22 28  1  0  0  0
 22 32  2  0  0  0
 26 27  1  0  0  0
 28 99  1  0  0  0
 28100  1  0  0  0
 29101  1  0  0  0
 29102  1  0  0  0
 33 34  1  0  0  0
 33 66  1  0  0  0
 33 70  2  0  0  0
 34 36  1  0  0  0
 34 59  1  0  0  0
 34103  1  0  0  0
 35 44  2  0  0  0
 35 45  1  0  0  0
 35 68  1  0  0  0
 36 56  1  0  0  0
 36104  1  0  0  0
 37 39  1  0  0  0
 37 47  1  0  0  0
 37 66  1  0  0  0
 37105  1  0  0  0
 38 43  2  0  0  0
 38 46  1  0  0  0
 38 47  1  0  0  0
 39 64  1  0  0  0
 39 67  2  0  0  0
 40 52  1  0  0  0
 40 53  2  0  0  0
 40 58  1  0  0  0
 41106  1  0  0  0
 41107  1  0  0  0
 41108  1  0  0  0
 41 48  1  0  0  0
 42 43  1  0  0  0
 42 66  1  0  0  0
 42109  1  0  0  0
 42110  1  0  0  0
 43 44  1  0  0  0
 44111  1  0  0  0
 45 46  2  0  0  0
 45112  1  0  0  0
 46113  1  0  0  0
 47114  1  0  0  0
 47115  1  0  0  0
 48 56  1  0  0  0
 48 65  1  0  0  0
 48116  1  0  0  0
 49 50  1  0  0  0
 49 53  1  0  0  0
 49 64  1  0  0  0
 49117  1  0  0  0
 50 51  1  0  0  0
 50118  1  0  0  0
 50119  1  0  0  0
 51 52  1  0  0  0
 51120  1  0  0  0
 51121  1  0  0  0
 52122  1  0  0  0
 52123  1  0  0  0
 53 54  1  0  0  0
 54 55  2  0  0  0
 54124  1  0  0  0
 55 57  1  0  0  0
 55125  1  0  0  0
 56 69  2  0  0  0
 57 58  2  0  0  0
 57126  1  0  0  0
 58127  1  0  0  0
 59 60  1  0  0  0
 59 61  1  0  0  0
 59 62  1  0  0  0
 60128  1  0  0  0
 60129  1  0  0  0
 60130  1  0  0  0
 61131  1  0  0  0
 61132  1  0  0  0
 61133  1  0  0  0
 62134  1  0  0  0
 62135  1  0  0  0
 62136  1  0  0  0
 63 65  1  0  0  0
 63137  1  0  0  0
 63138  1  0  0  0
 63139  1  0  0  0
 64140  1  0  0  0
 65141  1  0  0  0
 68 76  1  0  0  0
 71 79  1  0  0  0
 71 80  2  0  0  0
 71142  1  0  0  0
 72 79  2  0  0  0
 72 81  1  0  0  0
 72 82  1  0  0  0
 73143  1  0  0  0
 73144  1  0  0  0
 73145  1  0  0  0
 73 78  1  0  0  0
 74 78  1  0  0  0
 74146  1  0  0  0
 74147  1  0  0  0
 74148  1  0  0  0
 75 76  1  0  0  0
 75 77  1  0  0  0
 75149  1  0  0  0
 75150  1  0  0  0
 76151  1  0  0  0
 76152  1  0  0  0
 77 82  1  0  0  0
 77153  1  0  0  0
 77154  1  0  0  0
 78 81  1  0  0  0
 80 81  1  0  0  0
M  ISO  4   1 100  68 101  76 101  78 100
M  END
> <chiral flag>
0

> <version>
0

> <s_m_source_file>
/data/baiqing/PycharmProjects/Reinvent-master-3.2/result/LINK_invent/BTK/process_docking_weight1_custom_sum_contain_oxygen_bond_distance_aromatic_linkinvent_7_9_3/rearranged_h_0063.sdf

> <i_m_source_file_index>
61

> <r_mmod_Potential_Energy-OPLS-2005>
758.25634765625

> <r_mmod_Stretch_Energy-OPLS-2005>
341.525054931641

> <r_mmod_Bend_Energy-OPLS-2005>
358.832305908203

> <r_mmod_Torsional_Energy-OPLS-2005>
215.220825195312

> <r_mmod_Improper_Torsional_Energy-OPLS-2005>
2.21665811538696

> <r_mmod_Van_der_Waal_Energy-OPLS-2005>
120.986137390137

> <r_mmod_Electrostatic_Energy-OPLS-2005>
-302.274505615234

> <r_mmod_Solvation_Energy-OPLS-2005>
-196.833435058594

> <b_mmod_Minimization_Converged-OPLS-2005>
0

> <r_mmod_RMS_Derivative-OPLS-2005>
1.31020772457123

$$$$
63
                    3D
 Structure written by MMmdl.
182190  0  0  1  0            999 V2000
  -30.7662  -14.3952   20.6702 C   0  0  0  0  0  0
  -30.4165  -12.2940   19.4156 C   0  0  0  0  0  0
  -29.4883  -12.4834   18.2015 C   0  0  0  0  0  0
  -28.0101  -12.3467   18.6145 C   0  0  0  0  0  0
  -27.6582  -13.1873   19.8682 C   0  0  2  0  0  0
  -28.6967  -12.9707   20.9926 C   0  0  0  0  0  0
  -25.2600  -13.8114   20.5642 C   0  0  0  0  0  0
  -24.1843  -13.0431   20.9169 C   0  0  0  0  0  0
  -24.6367  -11.6887   20.8738 C   0  0  0  0  0  0
  -23.9027  -10.4288   21.0411 C   0  0  0  0  0  0
  -24.3597   -9.4209   21.9189 C   0  0  0  0  0  0
  -23.6282   -8.2242   22.0761 C   0  0  0  0  0  0
  -22.4265   -8.0276   21.3545 C   0  0  0  0  0  0
  -21.9894   -9.0246   20.4645 C   0  0  0  0  0  0
  -22.7210  -10.2128   20.3057 C   0  0  0  0  0  0
  -21.6853   -6.0732   22.5286 C   0  0  0  0  0  0
  -21.4008   -6.5638   23.8215 C   0  0  0  0  0  0
  -21.3653   -5.6790   24.9179 C   0  0  0  0  0  0
  -21.6049   -4.3057   24.7228 C   0  0  0  0  0  0
  -21.8819   -3.8146   23.4352 C   0  0  0  0  0  0
  -21.9192   -4.6961   22.3406 C   0  0  0  0  0  0
  -22.7874  -13.5257   21.1839 C   0  0  0  0  0  0
  -22.1664   -4.2152   21.0981 F   0  0  0  0  0  0
  -21.5630   -3.4541   25.7738 F   0  0  0  0  0  0
  -30.0371  -13.2654   20.4548 N   0  0  0  0  0  0
  -26.2996  -12.9244   20.3312 N   0  0  0  0  0  0
  -25.9279  -11.6430   20.5761 N   0  0  0  0  0  0
  -22.0495  -12.8248   22.0370 N   0  0  0  0  0  0
  -25.4340  -15.1832   20.4022 N   0  0  0  0  0  0
  -31.8211  -14.6308   20.0740 O   0  0  0  0  0  0
  -21.6640   -6.8876   21.4243 O   0  0  0  0  0  0
  -22.3574  -14.5574   20.6690 O   0  0  0  0  0  0
  -24.6082  -31.8700   23.2133 C   0  0  0  0  0  0
  -25.8992  -32.4841   23.8436 C   0  0  1  0  0  0
  -27.2427  -27.4826   20.0928 C   0  0  0  0  0  0
  -25.5875  -33.8637   24.2364 N   0  0  0  0  0  0
  -23.3965  -30.4882   21.5537 C   0  0  2  0  0  0
  -24.8477  -28.9627   20.1124 C   0  0  0  0  0  0
  -22.7385  -29.4622   22.5025 C   0  0  0  0  0  0
  -18.0242  -28.1348   22.8465 C   0  0  0  0  0  0
  -24.1492  -36.7321   23.2631 C   0  0  0  0  0  0
  -25.9180  -30.8510   21.3587 C   0  0  0  0  0  0
  -26.0017  -29.4904   20.7042 C   0  0  0  0  0  0
  -27.2045  -28.7560   20.6920 C   0  0  0  0  0  0
  -26.0795  -26.9541   19.4974 C   0  0  0  0  0  0
  -24.8801  -27.6942   19.5033 C   0  0  0  0  0  0
  -23.6007  -29.8171   20.1688 C   0  0  0  0  0  0
  -25.4121  -36.3133   24.0345 C   0  0  1  0  0  0
  -20.5823  -28.3610   23.1344 C   0  0  2  0  0  0
  -20.6724  -26.9350   22.5433 C   0  0  0  0  0  0
  -19.5712  -26.6339   21.5216 C   0  0  0  0  0  0
  -18.1878  -26.7894   22.1605 C   0  0  0  0  0  0
  -19.1494  -28.8796   23.2886 C   0  0  0  0  0  0
  -18.9434  -30.1403   23.8897 C   0  0  0  0  0  0
  -17.6446  -30.6562   24.0550 C   0  0  0  0  0  0
  -25.9042  -34.9479   23.5159 C   0  0  0  0  0  0
  -16.5328  -29.9065   23.6327 C   0  0  0  0  0  0
  -16.7237  -28.6477   23.0343 C   0  0  0  0  0  0
  -26.4434  -31.6610   25.0749 C   0  0  0  0  0  0
  -25.3692  -31.3707   26.1486 C   0  0  0  0  0  0
  -27.0295  -30.3088   24.6082 C   0  0  0  0  0  0
  -27.6036  -32.4310   25.7482 C   0  0  0  0  0  0
  -27.5600  -37.1801   24.8450 C   0  0  0  0  0  0
  -21.4117  -29.3003   22.3796 N   0  0  0  0  0  0
  -26.4309  -37.3812   23.9409 N   0  0  0  0  0  0
  -24.6594  -31.0816   22.1019 N   0  0  0  0  0  0
  -23.4178  -28.8154   23.3043 O   0  0  0  0  0  0
  -28.4017  -26.7550   20.1179 O   0  0  0  0  0  0
  -26.5594  -34.8912   22.4708 O   0  0  0  0  0  0
  -23.5284  -32.1444   23.7541 O   0  0  0  0  0  0
  -29.7873  -17.4857   20.7993 C   0  0  0  0  0  0
  -30.0436  -17.7905   19.4239 C   0  0  0  0  0  0
  -31.7362  -25.8711   16.3161 C   0  0  0  0  0  0
  -32.7653  -26.3288   18.5342 C   0  0  0  0  0  0
  -33.3590  -24.2176   17.2769 C   0  0  0  0  0  0
  -31.3274  -15.6074   22.6906 C   0  0  0  0  0  0
  -29.2995  -16.2044   21.4358 C   0  0  0  0  0  0
  -29.8391  -25.4010   21.5392 C   0  0  0  0  0  0
  -31.0328  -24.4807   18.2774 C   0  0  0  0  0  0
  -30.7066  -20.8605   20.9537 C   0  0  0  0  0  0
  -30.0683  -23.8772   21.6207 C   0  0  0  0  0  0
  -31.3698  -23.6087   19.5063 C   0  0  0  0  0  0
  -29.7604  -21.8278   20.2065 C   0  0  0  0  0  0
  -28.3973  -25.7780   21.1535 C   0  0  0  0  0  0
  -29.8917  -16.9330   18.1892 C   0  0  0  0  0  0
  -32.2299  -25.2098   17.6169 C   0  0  0  0  0  0
  -30.0160  -18.5552   21.5276 N   0  0  0  0  0  0
  -30.4586  -19.0333   19.3375 N   0  0  0  0  0  0
  -30.4002  -19.4810   20.6140 N   0  0  0  0  0  0
  -30.3537  -15.2039   21.6708 N   0  0  0  0  0  0
  -30.1394  -23.2644   20.2671 N   0  3  1  0  0  0
  -29.2202  -15.8135   18.4390 F   0  0  0  0  0  0
  -29.2199  -17.5783   17.2348 F   0  0  0  0  0  0
  -31.0774  -16.5934   17.6844 F   0  0  0  0  0  0
  -31.4603  -12.3893   19.1125 H   0  0  0  0  0  0
  -30.3208  -11.2826   19.8127 H   0  0  0  0  0  0
  -29.7272  -11.7442   17.4352 H   0  0  0  0  0  0
  -29.6621  -13.4574   17.7452 H   0  0  0  0  0  0
  -27.8176  -11.2910   18.8106 H   0  0  0  0  0  0
  -27.3624  -12.6229   17.7814 H   0  0  0  0  0  0
  -27.6932  -14.2256   19.5521 H   0  0  0  0  0  0
  -28.6677  -11.9358   21.3365 H   0  0  0  0  0  0
  -28.4412  -13.5679   21.8678 H   0  0  0  0  0  0
  -25.2748   -9.5702   22.4758 H   0  0  0  0  0  0
  -24.0004   -7.4639   22.7483 H   0  0  0  0  0  0
  -21.0831   -8.8750   19.8948 H   0  0  0  0  0  0
  -22.3669  -10.9664   19.6166 H   0  0  0  0  0  0
  -21.1992   -7.6147   23.9720 H   0  0  0  0  0  0
  -21.1473   -6.0521   25.9081 H   0  0  0  0  0  0
  -22.0598   -2.7613   23.2848 H   0  0  0  0  0  0
  -22.4098  -11.9894   22.4742 H   0  0  0  0  0  0
  -21.1110  -13.1279   22.2569 H   0  0  0  0  0  0
  -24.6589  -15.8307   20.4945 H   0  0  0  0  0  0
  -26.2684  -15.6171   20.0312 H   0  0  0  0  0  0
  -26.7064  -32.5576   23.1207 H   0  0  0  0  0  0
  -25.0056  -33.9835   25.0525 H   0  0  0  0  0  0
  -22.6831  -31.3026   21.4148 H   0  0  0  0  0  0
  -23.3784  -35.9621   23.3289 H   0  0  0  0  0  0
  -24.3586  -36.8955   22.2052 H   0  0  0  0  0  0
  -23.7207  -37.6507   23.6650 H   0  0  0  0  0  0
  -26.0222  -31.6187   20.5915 H   0  0  0  0  0  0
  -26.8093  -30.9066   21.9723 H   0  0  0  0  0  0
  -28.0993  -29.1574   21.1465 H   0  0  0  0  0  0
  -26.1046  -25.9778   19.0351 H   0  0  0  0  0  0
  -23.9927  -27.2859   19.0408 H   0  0  0  0  0  0
  -23.6872  -30.5894   19.4037 H   0  0  0  0  0  0
  -22.7306  -29.2211   19.8866 H   0  0  0  0  0  0
  -25.1287  -36.2020   25.0843 H   0  0  0  0  0  0
  -20.9875  -28.3136   24.1477 H   0  0  0  0  0  0
  -20.5593  -26.2215   23.3610 H   0  0  0  0  0  0
  -21.6602  -26.7366   22.1236 H   0  0  0  0  0  0
  -19.6885  -25.6253   21.1230 H   0  0  0  0  0  0
  -19.6688  -27.3156   20.6750 H   0  0  0  0  0  0
  -17.4170  -26.6635   21.3996 H   0  0  0  0  0  0
  -18.0265  -26.0048   22.9002 H   0  0  0  0  0  0
  -19.7917  -30.7183   24.2294 H   0  0  0  0  0  0
  -17.5007  -31.6246   24.5123 H   0  0  0  0  0  0
  -15.5325  -30.2953   23.7672 H   0  0  0  0  0  0
  -15.8626  -28.0788   22.7085 H   0  0  0  0  0  0
  -24.5841  -30.7098   25.7799 H   0  0  0  0  0  0
  -24.8886  -32.2866   26.4952 H   0  0  0  0  0  0
  -25.7997  -30.8835   27.0243 H   0  0  0  0  0  0
  -26.2863  -29.6837   24.1118 H   0  0  0  0  0  0
  -27.4133  -29.7319   25.4505 H   0  0  0  0  0  0
  -27.8642  -30.4508   23.9208 H   0  0  0  0  0  0
  -27.2709  -33.3609   26.2103 H   0  0  0  0  0  0
  -28.3797  -32.6870   25.0258 H   0  0  0  0  0  0
  -28.0751  -31.8400   26.5349 H   0  0  0  0  0  0
  -28.2578  -38.0135   24.7563 H   0  0  0  0  0  0
  -28.1134  -36.2668   24.6192 H   0  0  0  0  0  0
  -27.2309  -37.1350   25.8844 H   0  0  0  0  0  0
  -20.9263  -29.8785   21.7075 H   0  0  0  0  0  0
  -26.0216  -38.2896   24.1427 H   0  0  0  0  0  0
  -32.5300  -26.4386   15.8285 H   0  0  0  0  0  0
  -30.9158  -26.5627   16.5120 H   0  0  0  0  0  0
  -31.3754  -25.1346   15.5976 H   0  0  0  0  0  0
  -33.5569  -26.8959   18.0424 H   0  0  0  0  0  0
  -33.1828  -25.9473   19.4654 H   0  0  0  0  0  0
  -31.9779  -27.0366   18.7962 H   0  0  0  0  0  0
  -34.1482  -24.6998   16.6986 H   0  0  0  0  0  0
  -32.9891  -23.3762   16.6881 H   0  0  0  0  0  0
  -33.8266  -23.8089   18.1739 H   0  0  0  0  0  0
  -30.8721  -16.2301   23.4617 H   0  0  0  0  0  0
  -32.1491  -16.1743   22.2497 H   0  0  0  0  0  0
  -31.7475  -14.7310   23.1863 H   0  0  0  0  0  0
  -28.4914  -15.7867   20.8418 H   0  0  0  0  0  0
  -28.8264  -16.4230   22.3949 H   0  0  0  0  0  0
  -30.5531  -25.8619   20.8561 H   0  0  0  0  0  0
  -30.0649  -25.8462   22.5079 H   0  0  0  0  0  0
  -30.2866  -25.2292   18.5471 H   0  0  0  0  0  0
  -30.5495  -23.8428   17.5352 H   0  0  0  0  0  0
  -30.6211  -20.9920   22.0325 H   0  0  0  0  0  0
  -31.7501  -21.0369   20.6981 H   0  0  0  0  0  0
  -29.2655  -23.4235   22.2057 H   0  0  0  0  0  0
  -30.9876  -23.6626   22.1687 H   0  0  0  0  0  0
  -32.0760  -24.1168   20.1603 H   0  0  0  0  0  0
  -31.8897  -22.7107   19.1733 H   0  0  0  0  0  0
  -28.7463  -21.7048   20.5909 H   0  0  0  0  0  0
  -29.7009  -21.5566   19.1510 H   0  0  0  0  0  0
  -27.8787  -26.1396   22.0446 H   0  0  0  0  0  0
  -27.8369  -24.9082   20.8065 H   0  0  0  0  0  0
  -29.3972  -23.7118   19.7503 H   0  0  0  0  0  0
  1 25  1  0  0  0
  1 30  2  0  0  0
  1 90  1  0  0  0
  2  3  1  0  0  0
  2 25  1  0  0  0
  2 95  1  0  0  0
  2 96  1  0  0  0
  3  4  1  0  0  0
  3 97  1  0  0  0
  3 98  1  0  0  0
  4  5  1  0  0  0
  4 99  1  0  0  0
  4100  1  0  0  0
  5  6  1  0  0  0
  5 26  1  0  0  0
  5101  1  0  0  0
  6 25  1  0  0  0
  6102  1  0  0  0
  6103  1  0  0  0
  7  8  2  0  0  0
  7 26  1  0  0  0
  7 29  1  0  0  0
  8  9  1  0  0  0
  8 22  1  0  0  0
  9 10  1  0  0  0
  9 27  2  0  0  0
 10 11  2  0  0  0
 10 15  1  0  0  0
 11 12  1  0  0  0
 11104  1  0  0  0
 12 13  2  0  0  0
 12105  1  0  0  0
 13 14  1  0  0  0
 13 31  1  0  0  0
 14 15  2  0  0  0
 14106  1  0  0  0
 15107  1  0  0  0
 16 17  2  0  0  0
 16 21  1  0  0  0
 16 31  1  0  0  0
 17 18  1  0  0  0
 17108  1  0  0  0
 18 19  2  0  0  0
 18109  1  0  0  0
 19 20  1  0  0  0
 19 24  1  0  0  0
 20 21  2  0  0  0
 20110  1  0  0  0
 21 23  1  0  0  0
 22 28  1  0  0  0
 22 32  2  0  0  0
 26 27  1  0  0  0
 28111  1  0  0  0
 28112  1  0  0  0
 29113  1  0  0  0
 29114  1  0  0  0
 33 34  1  0  0  0
 33 66  1  0  0  0
 33 70  2  0  0  0
 34 36  1  0  0  0
 34 59  1  0  0  0
 34115  1  0  0  0
 35 44  2  0  0  0
 35 45  1  0  0  0
 35 68  1  0  0  0
 36 56  1  0  0  0
 36116  1  0  0  0
 37 39  1  0  0  0
 37 47  1  0  0  0
 37 66  1  0  0  0
 37117  1  0  0  0
 38 43  2  0  0  0
 38 46  1  0  0  0
 38 47  1  0  0  0
 39 64  1  0  0  0
 39 67  2  0  0  0
 40 52  1  0  0  0
 40 53  2  0  0  0
 40 58  1  0  0  0
 41118  1  0  0  0
 41119  1  0  0  0
 41120  1  0  0  0
 41 48  1  0  0  0
 42 43  1  0  0  0
 42 66  1  0  0  0
 42121  1  0  0  0
 42122  1  0  0  0
 43 44  1  0  0  0
 44123  1  0  0  0
 45 46  2  0  0  0
 45124  1  0  0  0
 46125  1  0  0  0
 47126  1  0  0  0
 47127  1  0  0  0
 48 56  1  0  0  0
 48 65  1  0  0  0
 48128  1  0  0  0
 49 50  1  0  0  0
 49 53  1  0  0  0
 49 64  1  0  0  0
 49129  1  0  0  0
 50 51  1  0  0  0
 50130  1  0  0  0
 50131  1  0  0  0
 51 52  1  0  0  0
 51132  1  0  0  0
 51133  1  0  0  0
 52134  1  0  0  0
 52135  1  0  0  0
 53 54  1  0  0  0
 54 55  2  0  0  0
 54136  1  0  0  0
 55 57  1  0  0  0
 55137  1  0  0  0
 56 69  2  0  0  0
 57 58  2  0  0  0
 57138  1  0  0  0
 58139  1  0  0  0
 59 60  1  0  0  0
 59 61  1  0  0  0
 59 62  1  0  0  0
 60140  1  0  0  0
 60141  1  0  0  0
 60142  1  0  0  0
 61143  1  0  0  0
 61144  1  0  0  0
 61145  1  0  0  0
 62146  1  0  0  0
 62147  1  0  0  0
 62148  1  0  0  0
 63 65  1  0  0  0
 63149  1  0  0  0
 63150  1  0  0  0
 63151  1  0  0  0
 64152  1  0  0  0
 65153  1  0  0  0
 68 84  1  0  0  0
 71 72  1  0  0  0
 71 77  1  0  0  0
 71 87  2  0  0  0
 72 85  1  0  0  0
 72 88  2  0  0  0
 73154  1  0  0  0
 73155  1  0  0  0
 73156  1  0  0  0
 73 86  1  0  0  0
 74 86  1  0  0  0
 74157  1  0  0  0
 74158  1  0  0  0
 74159  1  0  0  0
 75 86  1  0  0  0
 75160  1  0  0  0
 75161  1  0  0  0
 75162  1  0  0  0
 76 90  1  0  0  0
 76163  1  0  0  0
 76164  1  0  0  0
 76165  1  0  0  0
 77 90  1  0  0  0
 77166  1  0  0  0
 77167  1  0  0  0
 78 81  1  0  0  0
 78 84  1  0  0  0
 78168  1  0  0  0
 78169  1  0  0  0
 79 82  1  0  0  0
 79 86  1  0  0  0
 79170  1  0  0  0
 79171  1  0  0  0
 80 83  1  0  0  0
 80 89  1  0  0  0
 80172  1  0  0  0
 80173  1  0  0  0
 81174  1  0  0  0
 81175  1  0  0  0
 81 91  1  0  0  0
 82 91  1  0  0  0
 82176  1  0  0  0
 82177  1  0  0  0
 83 91  1  0  0  0
 83178  1  0  0  0
 83179  1  0  0  0
 84180  1  0  0  0
 84181  1  0  0  0
 85 92  1  0  0  0
 85 93  1  0  0  0
 85 94  1  0  0  0
 87 89  1  0  0  0
 88 89  1  0  0  0
 91182  1  0  0  0
M  CHG  1  91   1
M  ISO  4   1 100  68 101  84 101  90 100
M  END
> <chiral flag>
0

> <version>
0

> <s_m_source_file>
/data/baiqing/PycharmProjects/Reinvent-master-3.2/result/LINK_invent/BTK/process_docking_weight1_custom_sum_contain_oxygen_bond_distance_aromatic_linkinvent_7_9_3/rearranged_h_0063.sdf

> <i_m_source_file_index>
62

> <r_mmod_Potential_Energy-OPLS-2005>
18.3345050811768

> <r_mmod_Stretch_Energy-OPLS-2005>
34.5375518798828

> <r_mmod_Bend_Energy-OPLS-2005>
112.416107177734

> <r_mmod_Torsional_Energy-OPLS-2005>
345.668060302734

> <r_mmod_Improper_Torsional_Energy-OPLS-2005>
5.18081378936768

> <r_mmod_Van_der_Waal_Energy-OPLS-2005>
120.477996826172

> <r_mmod_Electrostatic_Energy-OPLS-2005>
-194.730438232422

> <r_mmod_Solvation_Energy-OPLS-2005>
-413.668518066406

> <b_mmod_Minimization_Converged-OPLS-2005>
0

> <r_mmod_RMS_Derivative-OPLS-2005>
2.4387047290802

$$$$
65
                    3D
 Structure written by MMmdl.
158166  0  0  1  0            999 V2000
  -30.7172  -14.7578   20.4916 C   0  0  0  0  0  0
  -30.4269  -12.4789   19.4939 C   0  0  0  0  0  0
  -29.5049  -12.4969   18.2570 C   0  0  0  0  0  0
  -28.0432  -12.3012   18.6916 C   0  0  0  0  0  0
  -27.6410  -13.2356   19.8612 C   0  0  2  0  0  0
  -28.6989  -13.2259   20.9961 C   0  0  0  0  0  0
  -25.2343  -13.8134   20.5545 C   0  0  0  0  0  0
  -24.1742  -13.0395   20.9238 C   0  0  0  0  0  0
  -24.6395  -11.6895   20.8843 C   0  0  0  0  0  0
  -23.9095  -10.4268   21.0455 C   0  0  0  0  0  0
  -24.3643   -9.4171   21.9210 C   0  0  0  0  0  0
  -23.6315   -8.2209   22.0759 C   0  0  0  0  0  0
  -22.4290   -8.0269   21.3539 C   0  0  0  0  0  0
  -21.9945   -9.0246   20.4633 C   0  0  0  0  0  0
  -22.7284  -10.2123   20.3070 C   0  0  0  0  0  0
  -21.6838   -6.0761   22.5288 C   0  0  0  0  0  0
  -21.3995   -6.5662   23.8228 C   0  0  0  0  0  0
  -21.3654   -5.6807   24.9181 C   0  0  0  0  0  0
  -21.6039   -4.3072   24.7217 C   0  0  0  0  0  0
  -21.8827   -3.8173   23.4333 C   0  0  0  0  0  0
  -21.9193   -4.6994   22.3398 C   0  0  0  0  0  0
  -22.7756  -13.5156   21.1864 C   0  0  0  0  0  0
  -22.1666   -4.2185   21.0974 F   0  0  0  0  0  0
  -21.5626   -3.4556   25.7727 F   0  0  0  0  0  0
  -29.9985  -13.5757   20.4012 N   0  0  0  0  0  0
  -26.2921  -12.9432   20.3406 N   0  0  0  0  0  0
  -25.9352  -11.6569   20.5941 N   0  0  0  0  0  0
  -22.0438  -12.8179   22.0457 N   0  0  0  0  0  0
  -25.3660  -15.1796   20.3400 N   0  0  0  0  0  0
  -31.8887  -14.7675   20.1197 O   0  0  0  0  0  0
  -21.6623   -6.8890   21.4245 O   0  0  0  0  0  0
  -22.3430  -14.5427   20.6646 O   0  0  0  0  0  0
  -24.6369  -31.8540   23.1965 C   0  0  0  0  0  0
  -25.9177  -32.4750   23.8338 C   0  0  1  0  0  0
  -27.2215  -27.2344   20.1264 C   0  0  0  0  0  0
  -25.5958  -33.8555   24.2266 N   0  0  0  0  0  0
  -23.4376  -30.4808   21.5388 C   0  0  2  0  0  0
  -24.8851  -28.9267   20.1084 C   0  0  0  0  0  0
  -22.7544  -29.4620   22.4836 C   0  0  0  0  0  0
  -18.0320  -28.1424   22.8489 C   0  0  0  0  0  0
  -24.1482  -36.7296   23.2638 C   0  0  0  0  0  0
  -25.9891  -30.7568   21.3836 C   0  0  0  0  0  0
  -26.0601  -29.3792   20.7220 C   0  0  0  0  0  0
  -27.2312  -28.5488   20.7160 C   0  0  0  0  0  0
  -26.0169  -26.8611   19.4833 C   0  0  0  0  0  0
  -24.8714  -27.6775   19.4755 C   0  0  0  0  0  0
  -23.6623  -29.8235   20.1528 C   0  0  0  0  0  0
  -25.4103  -36.3063   24.0329 C   0  0  1  0  0  0
  -20.5942  -28.3758   23.1224 C   0  0  2  0  0  0
  -20.6823  -26.9464   22.5399 C   0  0  0  0  0  0
  -19.5790  -26.6402   21.5227 C   0  0  0  0  0  0
  -18.1966  -26.7962   22.1630 C   0  0  0  0  0  0
  -19.1577  -28.8896   23.2867 C   0  0  0  0  0  0
  -18.9485  -30.1482   23.8911 C   0  0  0  0  0  0
  -17.6482  -30.6612   24.0575 C   0  0  0  0  0  0
  -25.9048  -34.9439   23.5097 C   0  0  0  0  0  0
  -16.5378  -29.9122   23.6327 C   0  0  0  0  0  0
  -16.7301  -28.6545   23.0346 C   0  0  0  0  0  0
  -26.4528  -31.6588   25.0749 C   0  0  0  0  0  0
  -25.3709  -31.3783   26.1440 C   0  0  0  0  0  0
  -27.0388  -30.2992   24.6281 C   0  0  0  0  0  0
  -27.6057  -32.4370   25.7532 C   0  0  0  0  0  0
  -27.5584  -37.1806   24.8464 C   0  0  0  0  0  0
  -21.4242  -29.3102   22.3586 N   0  0  0  0  0  0
  -26.4288  -37.3759   23.9408 N   0  0  0  0  0  0
  -24.7077  -31.0490   22.0949 N   0  0  0  0  0  0
  -23.4216  -28.8133   23.2935 O   0  0  0  0  0  0
  -28.3040  -26.3114   20.1825 O   0  0  0  0  0  0
  -26.5601  -34.8917   22.4656 O   0  0  0  0  0  0
  -23.5517  -32.1364   23.7246 O   0  0  0  0  0  0
  -29.6595  -18.5920   20.4096 C   0  0  0  0  0  0
  -30.6337  -20.4827   20.4271 C   0  0  0  0  0  0
  -31.6843  -21.5398   20.4477 C   0  0  0  0  0  0
  -27.9535  -16.8529   20.8686 C   0  0  0  0  0  0
  -29.3324  -16.7459   18.7277 C   0  0  0  0  0  0
  -29.0754  -23.6064   20.2648 C   0  0  0  0  0  0
  -28.4888  -22.0841   20.3278 C   0  0  0  0  0  0
  -28.0056  -24.8267   20.1108 C   0  0  0  0  0  0
  -29.3426  -17.0351   20.2456 C   0  0  0  0  0  0
  -30.9081  -19.1554   20.4671 N   0  0  0  0  0  0
  -28.6943  -19.5474   20.3005 N   0  0  0  0  0  0
  -29.3214  -20.7857   20.3479 N   0  0  0  0  0  0
  -30.1880  -15.9624   20.9374 N   0  0  0  0  0  0
  -31.4677  -12.5660   19.1812 H   0  0  0  0  0  0
  -30.3620  -11.5183   20.0074 H   0  0  0  0  0  0
  -29.7919  -11.7048   17.5644 H   0  0  0  0  0  0
  -29.6164  -13.4380   17.7175 H   0  0  0  0  0  0
  -27.9462  -11.2640   19.0137 H   0  0  0  0  0  0
  -27.3649  -12.4220   17.8464 H   0  0  0  0  0  0
  -27.6147  -14.2338   19.4322 H   0  0  0  0  0  0
  -28.7485  -12.2424   21.4673 H   0  0  0  0  0  0
  -28.4404  -13.9172   21.7968 H   0  0  0  0  0  0
  -25.2776   -9.5666   22.4795 H   0  0  0  0  0  0
  -24.0015   -7.4616   22.7509 H   0  0  0  0  0  0
  -21.0867   -8.8784   19.8943 H   0  0  0  0  0  0
  -22.3746  -10.9673   19.6186 H   0  0  0  0  0  0
  -21.1964   -7.6163   23.9742 H   0  0  0  0  0  0
  -21.1467   -6.0523   25.9091 H   0  0  0  0  0  0
  -22.0599   -2.7637   23.2814 H   0  0  0  0  0  0
  -22.4109  -11.9836   22.4790 H   0  0  0  0  0  0
  -21.1060  -13.1180   22.2709 H   0  0  0  0  0  0
  -24.5773  -15.8156   20.3809 H   0  0  0  0  0  0
  -26.1860  -15.5940   19.9197 H   0  0  0  0  0  0
  -26.7249  -32.5388   23.1085 H   0  0  0  0  0  0
  -25.0140  -33.9690   25.0433 H   0  0  0  0  0  0
  -22.7395  -31.3065   21.3906 H   0  0  0  0  0  0
  -23.3739  -35.9637   23.3289 H   0  0  0  0  0  0
  -24.3564  -36.8935   22.2056 H   0  0  0  0  0  0
  -23.7262  -37.6506   23.6665 H   0  0  0  0  0  0
  -26.1367  -31.5155   20.6126 H   0  0  0  0  0  0
  -26.8627  -30.8026   22.0211 H   0  0  0  0  0  0
  -28.1303  -28.8916   21.2088 H   0  0  0  0  0  0
  -25.9170  -25.9116   18.9824 H   0  0  0  0  0  0
  -23.9746  -27.3280   18.9849 H   0  0  0  0  0  0
  -23.8088  -30.6051   19.4055 H   0  0  0  0  0  0
  -22.7778  -29.2718   19.8314 H   0  0  0  0  0  0
  -25.1288  -36.1914   25.0828 H   0  0  0  0  0  0
  -21.0063  -28.3373   24.1331 H   0  0  0  0  0  0
  -20.5775  -26.2379   23.3622 H   0  0  0  0  0  0
  -21.6679  -26.7511   22.1161 H   0  0  0  0  0  0
  -19.6950  -25.6298   21.1287 H   0  0  0  0  0  0
  -19.6721  -27.3179   20.6727 H   0  0  0  0  0  0
  -17.4242  -26.6727   21.4017 H   0  0  0  0  0  0
  -18.0343  -26.0111   22.9029 H   0  0  0  0  0  0
  -19.7953  -30.7300   24.2305 H   0  0  0  0  0  0
  -17.5034  -31.6277   24.5186 H   0  0  0  0  0  0
  -15.5381  -30.3027   23.7629 H   0  0  0  0  0  0
  -15.8710  -28.0857   22.7055 H   0  0  0  0  0  0
  -24.5866  -30.7168   25.7754 H   0  0  0  0  0  0
  -24.8927  -32.2985   26.4814 H   0  0  0  0  0  0
  -25.7971  -30.8978   27.0254 H   0  0  0  0  0  0
  -26.3003  -29.6725   24.1267 H   0  0  0  0  0  0
  -27.4012  -29.7281   25.4842 H   0  0  0  0  0  0
  -27.8903  -30.4261   23.9586 H   0  0  0  0  0  0
  -27.2630  -33.3682   26.2053 H   0  0  0  0  0  0
  -28.3872  -32.6924   25.0365 H   0  0  0  0  0  0
  -28.0702  -31.8543   26.5490 H   0  0  0  0  0  0
  -28.2578  -38.0121   24.7495 H   0  0  0  0  0  0
  -28.1102  -36.2649   24.6291 H   0  0  0  0  0  0
  -27.2302  -37.1464   25.8868 H   0  0  0  0  0  0
  -20.9425  -29.8843   21.6796 H   0  0  0  0  0  0
  -26.0166  -38.2841   24.1387 H   0  0  0  0  0  0
  -31.5803  -22.1524   21.3424 H   0  0  0  0  0  0
  -31.5948  -22.1722   19.5648 H   0  0  0  0  0  0
  -32.6808  -21.0993   20.4418 H   0  0  0  0  0  0
  -27.9077  -17.3207   21.8541 H   0  0  0  0  0  0
  -27.7013  -15.8133   21.0177 H   0  0  0  0  0  0
  -27.1805  -17.3124   20.2531 H   0  0  0  0  0  0
  -29.0794  -15.7147   18.4857 H   0  0  0  0  0  0
  -30.3163  -16.9481   18.2989 H   0  0  0  0  0  0
  -28.6198  -17.3832   18.2040 H   0  0  0  0  0  0
  -29.7616  -23.6705   19.4206 H   0  0  0  0  0  0
  -29.6795  -23.7805   21.1552 H   0  0  0  0  0  0
  -27.7912  -21.9784   19.4967 H   0  0  0  0  0  0
  -27.8543  -22.0349   21.2135 H   0  0  0  0  0  0
  -27.2189  -24.6382   20.8421 H   0  0  0  0  0  0
  -27.5539  -24.6436   19.1374 H   0  0  0  0  0  0
  -30.9323  -16.4632   21.4041 H   0  0  0  0  0  0
  1 25  1  0  0  0
  1 30  2  0  0  0
  1 83  1  0  0  0
  2  3  1  0  0  0
  2 25  1  0  0  0
  2 84  1  0  0  0
  2 85  1  0  0  0
  3  4  1  0  0  0
  3 86  1  0  0  0
  3 87  1  0  0  0
  4  5  1  0  0  0
  4 88  1  0  0  0
  4 89  1  0  0  0
  5  6  1  0  0  0
  5 26  1  0  0  0
  5 90  1  0  0  0
  6 25  1  0  0  0
  6 91  1  0  0  0
  6 92  1  0  0  0
  7  8  2  0  0  0
  7 26  1  0  0  0
  7 29  1  0  0  0
  8  9  1  0  0  0
  8 22  1  0  0  0
  9 10  1  0  0  0
  9 27  2  0  0  0
 10 11  2  0  0  0
 10 15  1  0  0  0
 11 12  1  0  0  0
 11 93  1  0  0  0
 12 13  2  0  0  0
 12 94  1  0  0  0
 13 14  1  0  0  0
 13 31  1  0  0  0
 14 15  2  0  0  0
 14 95  1  0  0  0
 15 96  1  0  0  0
 16 17  2  0  0  0
 16 21  1  0  0  0
 16 31  1  0  0  0
 17 18  1  0  0  0
 17 97  1  0  0  0
 18 19  2  0  0  0
 18 98  1  0  0  0
 19 20  1  0  0  0
 19 24  1  0  0  0
 20 21  2  0  0  0
 20 99  1  0  0  0
 21 23  1  0  0  0
 22 28  1  0  0  0
 22 32  2  0  0  0
 26 27  1  0  0  0
 28100  1  0  0  0
 28101  1  0  0  0
 29102  1  0  0  0
 29103  1  0  0  0
 33 34  1  0  0  0
 33 66  1  0  0  0
 33 70  2  0  0  0
 34 36  1  0  0  0
 34 59  1  0  0  0
 34104  1  0  0  0
 35 44  2  0  0  0
 35 45  1  0  0  0
 35 68  1  0  0  0
 36 56  1  0  0  0
 36105  1  0  0  0
 37 39  1  0  0  0
 37 47  1  0  0  0
 37 66  1  0  0  0
 37106  1  0  0  0
 38 43  2  0  0  0
 38 46  1  0  0  0
 38 47  1  0  0  0
 39 64  1  0  0  0
 39 67  2  0  0  0
 40 52  1  0  0  0
 40 53  2  0  0  0
 40 58  1  0  0  0
 41107  1  0  0  0
 41108  1  0  0  0
 41109  1  0  0  0
 41 48  1  0  0  0
 42 43  1  0  0  0
 42 66  1  0  0  0
 42110  1  0  0  0
 42111  1  0  0  0
 43 44  1  0  0  0
 44112  1  0  0  0
 45 46  2  0  0  0
 45113  1  0  0  0
 46114  1  0  0  0
 47115  1  0  0  0
 47116  1  0  0  0
 48 56  1  0  0  0
 48 65  1  0  0  0
 48117  1  0  0  0
 49 50  1  0  0  0
 49 53  1  0  0  0
 49 64  1  0  0  0
 49118  1  0  0  0
 50 51  1  0  0  0
 50119  1  0  0  0
 50120  1  0  0  0
 51 52  1  0  0  0
 51121  1  0  0  0
 51122  1  0  0  0
 52123  1  0  0  0
 52124  1  0  0  0
 53 54  1  0  0  0
 54 55  2  0  0  0
 54125  1  0  0  0
 55 57  1  0  0  0
 55126  1  0  0  0
 56 69  2  0  0  0
 57 58  2  0  0  0
 57127  1  0  0  0
 58128  1  0  0  0
 59 60  1  0  0  0
 59 61  1  0  0  0
 59 62  1  0  0  0
 60129  1  0  0  0
 60130  1  0  0  0
 60131  1  0  0  0
 61132  1  0  0  0
 61133  1  0  0  0
 61134  1  0  0  0
 62135  1  0  0  0
 62136  1  0  0  0
 62137  1  0  0  0
 63 65  1  0  0  0
 63138  1  0  0  0
 63139  1  0  0  0
 63140  1  0  0  0
 64141  1  0  0  0
 65142  1  0  0  0
 68 78  1  0  0  0
 71 79  1  0  0  0
 71 80  1  0  0  0
 71 81  2  0  0  0
 72 73  1  0  0  0
 72 80  2  0  0  0
 72 82  1  0  0  0
 73143  1  0  0  0
 73144  1  0  0  0
 73145  1  0  0  0
 74146  1  0  0  0
 74147  1  0  0  0
 74148  1  0  0  0
 74 79  1  0  0  0
 75 79  1  0  0  0
 75149  1  0  0  0
 75150  1  0  0  0
 75151  1  0  0  0
 76 77  1  0  0  0
 76 78  1  0  0  0
 76152  1  0  0  0
 76153  1  0  0  0
 77 82  1  0  0  0
 77154  1  0  0  0
 77155  1  0  0  0
 78156  1  0  0  0
 78157  1  0  0  0
 79 83  1  0  0  0
 81 82  1  0  0  0
 83158  1  0  0  0
M  ISO  4   1 100  68 101  78 101  83 100
M  END
> <chiral flag>
0

> <version>
0

> <s_m_source_file>
/data/baiqing/PycharmProjects/Reinvent-master-3.2/result/LINK_invent/BTK/process_docking_weight1_custom_sum_contain_oxygen_bond_distance_aromatic_linkinvent_7_9_3/rearranged_h_0063.sdf

> <i_m_source_file_index>
63

> <r_mmod_Potential_Energy-OPLS-2005>
130.496109008789

> <r_mmod_Stretch_Energy-OPLS-2005>
139.340209960938

> <r_mmod_Bend_Energy-OPLS-2005>
231.871658325195

> <r_mmod_Torsional_Energy-OPLS-2005>
254.842178344727

> <r_mmod_Improper_Torsional_Energy-OPLS-2005>
7.72330379486084

> <r_mmod_Van_der_Waal_Energy-OPLS-2005>
125.079490661621

> <r_mmod_Electrostatic_Energy-OPLS-2005>
-514.028259277344

> <r_mmod_Solvation_Energy-OPLS-2005>
-215.670272827148

> <b_mmod_Minimization_Converged-OPLS-2005>
0

> <r_mmod_RMS_Derivative-OPLS-2005>
3.34953141212463

$$$$
66
                    3D
 Structure written by MMmdl.
168176  0  0  1  0            999 V2000
  -30.6315  -14.7140   20.5434 C   0  0  0  0  0  0
  -30.4378  -12.4502   19.4565 C   0  0  0  0  0  0
  -29.5030  -12.5259   18.2271 C   0  0  0  0  0  0
  -28.0321  -12.3331   18.6450 C   0  0  0  0  0  0
  -27.6467  -13.2164   19.8581 C   0  0  2  0  0  0
  -28.6961  -13.0961   20.9847 C   0  0  0  0  0  0
  -25.2556  -13.8168   20.5710 C   0  0  0  0  0  0
  -24.1813  -13.0439   20.9166 C   0  0  0  0  0  0
  -24.6380  -11.6905   20.8738 C   0  0  0  0  0  0
  -23.9072  -10.4283   21.0414 C   0  0  0  0  0  0
  -24.3635   -9.4195   21.9182 C   0  0  0  0  0  0
  -23.6319   -8.2234   22.0751 C   0  0  0  0  0  0
  -22.4285   -8.0288   21.3557 C   0  0  0  0  0  0
  -21.9926   -9.0248   20.4631 C   0  0  0  0  0  0
  -22.7256  -10.2122   20.3044 C   0  0  0  0  0  0
  -21.6851   -6.0743   22.5299 C   0  0  0  0  0  0
  -21.4011   -6.5644   23.8233 C   0  0  0  0  0  0
  -21.3657   -5.6791   24.9194 C   0  0  0  0  0  0
  -21.6049   -4.3056   24.7224 C   0  0  0  0  0  0
  -21.8838   -3.8152   23.4347 C   0  0  0  0  0  0
  -21.9190   -4.6971   22.3403 C   0  0  0  0  0  0
  -22.7828  -13.5203   21.1882 C   0  0  0  0  0  0
  -22.1669   -4.2145   21.0990 F   0  0  0  0  0  0
  -21.5616   -3.4541   25.7747 F   0  0  0  0  0  0
  -30.0028  -13.4844   20.4275 N   0  0  0  0  0  0
  -26.2967  -12.9336   20.3325 N   0  0  0  0  0  0
  -25.9293  -11.6495   20.5757 N   0  0  0  0  0  0
  -22.0515  -12.8124   22.0427 N   0  0  0  0  0  0
  -25.4355  -15.1890   20.4223 N   0  0  0  0  0  0
  -31.7772  -14.8145   20.0875 O   0  0  0  0  0  0
  -21.6654   -6.8893   21.4260 O   0  0  0  0  0  0
  -22.3486  -14.5511   20.6772 O   0  0  0  0  0  0
  -24.6285  -31.8570   23.1985 C   0  0  0  0  0  0
  -25.9116  -32.4762   23.8337 C   0  0  1  0  0  0
  -27.2294  -27.2780   20.1249 C   0  0  0  0  0  0
  -25.5917  -33.8566   24.2252 N   0  0  0  0  0  0
  -23.4248  -30.4778   21.5427 C   0  0  2  0  0  0
  -24.8754  -28.9278   20.1088 C   0  0  0  0  0  0
  -22.7493  -29.4590   22.4908 C   0  0  0  0  0  0
  -18.0298  -28.1376   22.8492 C   0  0  0  0  0  0
  -24.1487  -36.7285   23.2641 C   0  0  0  0  0  0
  -25.9699  -30.7717   21.3797 C   0  0  0  0  0  0
  -26.0436  -29.3960   20.7225 C   0  0  0  0  0  0
  -27.2202  -28.5802   20.7241 C   0  0  0  0  0  0
  -26.0381  -26.8807   19.4723 C   0  0  0  0  0  0
  -24.8771  -27.6775   19.4745 C   0  0  0  0  0  0
  -23.6433  -29.8110   20.1591 C   0  0  0  0  0  0
  -25.4114  -36.3061   24.0318 C   0  0  1  0  0  0
  -20.5897  -28.3684   23.1275 C   0  0  2  0  0  0
  -20.6772  -26.9396   22.5422 C   0  0  0  0  0  0
  -19.5747  -26.6366   21.5225 C   0  0  0  0  0  0
  -18.1929  -26.7917   22.1638 C   0  0  0  0  0  0
  -19.1548  -28.8850   23.2879 C   0  0  0  0  0  0
  -18.9470  -30.1456   23.8882 C   0  0  0  0  0  0
  -17.6466  -30.6579   24.0561 C   0  0  0  0  0  0
  -25.9051  -34.9433   23.5084 C   0  0  0  0  0  0
  -16.5357  -29.9071   23.6334 C   0  0  0  0  0  0
  -16.7283  -28.6493   23.0348 C   0  0  0  0  0  0
  -26.4473  -31.6579   25.0721 C   0  0  0  0  0  0
  -25.3700  -31.3726   26.1440 C   0  0  0  0  0  0
  -27.0350  -30.2999   24.6220 C   0  0  0  0  0  0
  -27.6008  -32.4340   25.7522 C   0  0  0  0  0  0
  -27.5573  -37.1810   24.8460 C   0  0  0  0  0  0
  -21.4199  -29.3037   22.3657 N   0  0  0  0  0  0
  -26.4282  -37.3769   23.9392 N   0  0  0  0  0  0
  -24.6932  -31.0531   22.0971 N   0  0  0  0  0  0
  -23.4193  -28.8137   23.3002 O   0  0  0  0  0  0
  -28.3372  -26.3993   20.2040 O   0  0  0  0  0  0
  -26.5648  -34.8912   22.4668 O   0  0  0  0  0  0
  -23.5435  -32.1380   23.7286 O   0  0  0  0  0  0
  -31.3102  -19.2855   20.2942 C   0  0  0  0  0  0
  -30.2568  -17.4958   20.6927 C   0  0  0  0  0  0
  -29.2372  -20.6753   17.7417 C   0  0  0  0  0  0
  -29.3578  -23.0589   17.2016 C   0  0  0  0  0  0
  -27.3509  -22.1151   18.4034 C   0  0  0  0  0  0
  -31.1221  -22.5402   19.4863 C   0  0  0  0  0  0
  -29.1536  -23.7970   20.4279 C   0  0  0  0  0  0
  -29.4375  -21.0873   20.7345 C   0  0  0  0  0  0
  -28.1752  -24.9529   19.8455 C   0  0  0  0  0  0
  -30.2151  -15.9876   22.7267 C   0  0  0  0  0  0
  -29.9315  -16.0223   21.2033 C   0  0  2  0  0  0
  -28.8960  -22.0761   18.3129 C   0  0  0  0  0  0
  -29.5957  -22.3660   19.7196 C   0  0  2  0  0  0
  -31.5119  -17.9606   20.3735 N   0  0  0  0  0  0
  -29.3589  -18.5212   20.7860 N   0  0  0  0  0  0
  -30.0528  -19.6974   20.5193 N   0  0  0  0  0  0
  -29.4941  -16.8933   23.3929 F   0  0  0  0  0  0
  -30.0271  -14.7912   23.2881 F   0  0  0  0  0  0
  -28.6079  -15.9048   21.0420 F   0  0  0  0  0  0
  -31.4744  -12.5793   19.1441 H   0  0  0  0  0  0
  -30.3973  -11.4596   19.9115 H   0  0  0  0  0  0
  -29.7843  -11.7813   17.4807 H   0  0  0  0  0  0
  -29.6145  -13.4992   17.7464 H   0  0  0  0  0  0
  -27.8878  -11.2802   18.8909 H   0  0  0  0  0  0
  -27.3692  -12.5359   17.8041 H   0  0  0  0  0  0
  -27.6488  -14.2416   19.4918 H   0  0  0  0  0  0
  -28.7346  -12.0724   21.3580 H   0  0  0  0  0  0
  -28.4069  -13.6965   21.8463 H   0  0  0  0  0  0
  -25.2800   -9.5647   22.4726 H   0  0  0  0  0  0
  -24.0030   -7.4603   22.7439 H   0  0  0  0  0  0
  -21.0868   -8.8766   19.8895 H   0  0  0  0  0  0
  -22.3760  -10.9664   19.6125 H   0  0  0  0  0  0
  -21.2031   -7.6156   23.9732 H   0  0  0  0  0  0
  -21.1459   -6.0527   25.9093 H   0  0  0  0  0  0
  -22.0619   -2.7613   23.2859 H   0  0  0  0  0  0
  -22.4188  -11.9747   22.4701 H   0  0  0  0  0  0
  -21.1134  -13.1068   22.2711 H   0  0  0  0  0  0
  -24.6948  -15.8650   20.5747 H   0  0  0  0  0  0
  -26.3338  -15.6171   20.2318 H   0  0  0  0  0  0
  -26.7177  -32.5409   23.1077 H   0  0  0  0  0  0
  -25.0008  -33.9721   25.0358 H   0  0  0  0  0  0
  -22.7198  -31.2982   21.3951 H   0  0  0  0  0  0
  -23.3749  -35.9623   23.3305 H   0  0  0  0  0  0
  -24.3560  -36.8922   22.2056 H   0  0  0  0  0  0
  -23.7252  -37.6487   23.6679 H   0  0  0  0  0  0
  -26.1066  -31.5337   20.6107 H   0  0  0  0  0  0
  -26.8487  -30.8218   22.0116 H   0  0  0  0  0  0
  -28.1100  -28.9307   21.2287 H   0  0  0  0  0  0
  -25.9685  -25.9339   18.9594 H   0  0  0  0  0  0
  -23.9849  -27.3149   18.9830 H   0  0  0  0  0  0
  -23.7603  -30.5860   19.4010 H   0  0  0  0  0  0
  -22.7640  -29.2382   19.8576 H   0  0  0  0  0  0
  -25.1301  -36.1903   25.0818 H   0  0  0  0  0  0
  -21.0002  -28.3266   24.1392 H   0  0  0  0  0  0
  -20.5657  -26.2300   23.3633 H   0  0  0  0  0  0
  -21.6640  -26.7401   22.1224 H   0  0  0  0  0  0
  -19.6901  -25.6273   21.1264 H   0  0  0  0  0  0
  -19.6683  -27.3170   20.6747 H   0  0  0  0  0  0
  -17.4202  -26.6679   21.4039 H   0  0  0  0  0  0
  -18.0313  -26.0055   22.9029 H   0  0  0  0  0  0
  -19.7941  -30.7287   24.2223 H   0  0  0  0  0  0
  -17.5015  -31.6256   24.5165 H   0  0  0  0  0  0
  -15.5351  -30.2967   23.7655 H   0  0  0  0  0  0
  -15.8686  -28.0809   22.7048 H   0  0  0  0  0  0
  -24.5853  -30.7100   25.7750 H   0  0  0  0  0  0
  -24.8915  -32.2907   26.4869 H   0  0  0  0  0  0
  -25.8008  -30.8881   27.0215 H   0  0  0  0  0  0
  -26.2953  -29.6744   24.1204 H   0  0  0  0  0  0
  -27.3987  -29.7250   25.4746 H   0  0  0  0  0  0
  -27.8835  -30.4275   23.9497 H   0  0  0  0  0  0
  -27.2565  -33.3631   26.2086 H   0  0  0  0  0  0
  -28.3831  -32.6935   25.0374 H   0  0  0  0  0  0
  -28.0658  -31.8487   26.5467 H   0  0  0  0  0  0
  -28.2580  -38.0120   24.7497 H   0  0  0  0  0  0
  -28.1085  -36.2643   24.6292 H   0  0  0  0  0  0
  -27.2292  -37.1458   25.8869 H   0  0  0  0  0  0
  -20.9357  -29.8761   21.6880 H   0  0  0  0  0  0
  -26.0155  -38.2843   24.1401 H   0  0  0  0  0  0
  -32.1310  -19.9669   20.1296 H   0  0  0  0  0  0
  -28.8700  -20.5650   16.7198 H   0  0  0  0  0  0
  -28.7720  -19.8682   18.3054 H   0  0  0  0  0  0
  -30.3088  -20.4855   17.6975 H   0  0  0  0  0  0
  -28.6317  -23.1164   16.3887 H   0  0  0  0  0  0
  -30.2962  -22.7346   16.7510 H   0  0  0  0  0  0
  -29.5420  -24.0718   17.5479 H   0  0  0  0  0  0
  -26.8961  -21.6797   17.5125 H   0  0  0  0  0  0
  -26.9420  -23.1196   18.4619 H   0  0  0  0  0  0
  -26.9680  -21.5524   19.2535 H   0  0  0  0  0  0
  -31.6584  -22.6737   20.4274 H   0  0  0  0  0  0
  -31.3429  -23.4216   18.8864 H   0  0  0  0  0  0
  -31.5871  -21.7065   18.9707 H   0  0  0  0  0  0
  -28.7308  -23.5347   21.3972 H   0  0  0  0  0  0
  -30.0596  -24.3305   20.7147 H   0  0  0  0  0  0
  -28.3762  -20.9341   20.9207 H   0  0  0  0  0  0
  -29.8290  -21.4095   21.7002 H   0  0  0  0  0  0
  -27.1843  -24.6376   20.1749 H   0  0  0  0  0  0
  -28.1384  -24.9455   18.7632 H   0  0  0  0  0  0
  -31.2610  -16.2430   22.9024 H   0  0  0  0  0  0
  1 25  1  0  0  0
  1 30  2  0  0  0
  1 81  1  0  0  0
  2  3  1  0  0  0
  2 25  1  0  0  0
  2 90  1  0  0  0
  2 91  1  0  0  0
  3  4  1  0  0  0
  3 92  1  0  0  0
  3 93  1  0  0  0
  4  5  1  0  0  0
  4 94  1  0  0  0
  4 95  1  0  0  0
  5  6  1  0  0  0
  5 26  1  0  0  0
  5 96  1  0  0  0
  6 25  1  0  0  0
  6 97  1  0  0  0
  6 98  1  0  0  0
  7  8  2  0  0  0
  7 26  1  0  0  0
  7 29  1  0  0  0
  8  9  1  0  0  0
  8 22  1  0  0  0
  9 10  1  0  0  0
  9 27  2  0  0  0
 10 11  2  0  0  0
 10 15  1  0  0  0
 11 12  1  0  0  0
 11 99  1  0  0  0
 12 13  2  0  0  0
 12100  1  0  0  0
 13 14  1  0  0  0
 13 31  1  0  0  0
 14 15  2  0  0  0
 14101  1  0  0  0
 15102  1  0  0  0
 16 17  2  0  0  0
 16 21  1  0  0  0
 16 31  1  0  0  0
 17 18  1  0  0  0
 17103  1  0  0  0
 18 19  2  0  0  0
 18104  1  0  0  0
 19 20  1  0  0  0
 19 24  1  0  0  0
 20 21  2  0  0  0
 20105  1  0  0  0
 21 23  1  0  0  0
 22 28  1  0  0  0
 22 32  2  0  0  0
 26 27  1  0  0  0
 28106  1  0  0  0
 28107  1  0  0  0
 29108  1  0  0  0
 29109  1  0  0  0
 33 34  1  0  0  0
 33 66  1  0  0  0
 33 70  2  0  0  0
 34 36  1  0  0  0
 34 59  1  0  0  0
 34110  1  0  0  0
 35 44  2  0  0  0
 35 45  1  0  0  0
 35 68  1  0  0  0
 36 56  1  0  0  0
 36111  1  0  0  0
 37 39  1  0  0  0
 37 47  1  0  0  0
 37 66  1  0  0  0
 37112  1  0  0  0
 38 43  2  0  0  0
 38 46  1  0  0  0
 38 47  1  0  0  0
 39 64  1  0  0  0
 39 67  2  0  0  0
 40 52  1  0  0  0
 40 53  2  0  0  0
 40 58  1  0  0  0
 41113  1  0  0  0
 41114  1  0  0  0
 41115  1  0  0  0
 41 48  1  0  0  0
 42 43  1  0  0  0
 42 66  1  0  0  0
 42116  1  0  0  0
 42117  1  0  0  0
 43 44  1  0  0  0
 44118  1  0  0  0
 45 46  2  0  0  0
 45119  1  0  0  0
 46120  1  0  0  0
 47121  1  0  0  0
 47122  1  0  0  0
 48 56  1  0  0  0
 48 65  1  0  0  0
 48123  1  0  0  0
 49 50  1  0  0  0
 49 53  1  0  0  0
 49 64  1  0  0  0
 49124  1  0  0  0
 50 51  1  0  0  0
 50125  1  0  0  0
 50126  1  0  0  0
 51 52  1  0  0  0
 51127  1  0  0  0
 51128  1  0  0  0
 52129  1  0  0  0
 52130  1  0  0  0
 53 54  1  0  0  0
 54 55  2  0  0  0
 54131  1  0  0  0
 55 57  1  0  0  0
 55132  1  0  0  0
 56 69  2  0  0  0
 57 58  2  0  0  0
 57133  1  0  0  0
 58134  1  0  0  0
 59 60  1  0  0  0
 59 61  1  0  0  0
 59 62  1  0  0  0
 60135  1  0  0  0
 60136  1  0  0  0
 60137  1  0  0  0
 61138  1  0  0  0
 61139  1  0  0  0
 61140  1  0  0  0
 62141  1  0  0  0
 62142  1  0  0  0
 62143  1  0  0  0
 63 65  1  0  0  0
 63144  1  0  0  0
 63145  1  0  0  0
 63146  1  0  0  0
 64147  1  0  0  0
 65148  1  0  0  0
 68 79  1  0  0  0
 71 84  2  0  0  0
 71 86  1  0  0  0
 71149  1  0  0  0
 72 81  1  0  0  0
 72 84  1  0  0  0
 72 85  2  0  0  0
 73150  1  0  0  0
 73151  1  0  0  0
 73152  1  0  0  0
 73 82  1  0  0  0
 74 82  1  0  0  0
 74153  1  0  0  0
 74154  1  0  0  0
 74155  1  0  0  0
 75 82  1  0  0  0
 75156  1  0  0  0
 75157  1  0  0  0
 75158  1  0  0  0
 76159  1  0  0  0
 76160  1  0  0  0
 76161  1  0  0  0
 76 83  1  0  0  0
 77 79  1  0  0  0
 77 83  1  0  0  0
 77162  1  0  0  0
 77163  1  0  0  0
 78 83  1  0  0  0
 78 86  1  0  0  0
 78164  1  0  0  0
 78165  1  0  0  0
 79166  1  0  0  0
 79167  1  0  0  0
 80 81  1  0  0  0
 80 87  1  0  0  0
 80 88  1  0  0  0
 80168  1  0  0  0
 81 89  1  0  0  0
 82 83  1  0  0  0
 85 86  1  0  0  0
M  ISO  4   1 100  68 101  79 101  81 100
M  END
> <chiral flag>
0

> <version>
0

> <s_m_source_file>
/data/baiqing/PycharmProjects/Reinvent-master-3.2/result/LINK_invent/BTK/process_docking_weight1_custom_sum_contain_oxygen_bond_distance_aromatic_linkinvent_7_9_3/rearranged_h_0063.sdf

> <i_m_source_file_index>
64

> <r_mmod_Potential_Energy-OPLS-2005>
449.503265380859

> <r_mmod_Stretch_Energy-OPLS-2005>
152.444213867188

> <r_mmod_Bend_Energy-OPLS-2005>
223.572113037109

> <r_mmod_Torsional_Energy-OPLS-2005>
204.101486206055

> <r_mmod_Improper_Torsional_Energy-OPLS-2005>
4.22292613983154

> <r_mmod_Van_der_Waal_Energy-OPLS-2005>
148.987533569336

> <r_mmod_Electrostatic_Energy-OPLS-2005>
-162.797225952148

> <r_mmod_Solvation_Energy-OPLS-2005>
-189.917892456055

> <b_mmod_Minimization_Converged-OPLS-2005>
0

> <r_mmod_RMS_Derivative-OPLS-2005>
3.23784804344177

$$$$
67
                    3D
 Structure written by MMmdl.
163171  0  0  1  0            999 V2000
  -30.7066  -14.6017   20.5434 C   0  0  0  0  0  0
  -30.4150  -12.3758   19.4659 C   0  0  0  0  0  0
  -29.5023  -12.4987   18.2266 C   0  0  0  0  0  0
  -28.0290  -12.3282   18.6420 C   0  0  0  0  0  0
  -27.6486  -13.2217   19.8541 C   0  0  2  0  0  0
  -28.6872  -13.1080   20.9914 C   0  0  0  0  0  0
  -25.2547  -13.8180   20.5703 C   0  0  0  0  0  0
  -24.1821  -13.0449   20.9166 C   0  0  0  0  0  0
  -24.6402  -11.6910   20.8740 C   0  0  0  0  0  0
  -23.9074  -10.4291   21.0409 C   0  0  0  0  0  0
  -24.3598   -9.4211   21.9201 C   0  0  0  0  0  0
  -23.6274   -8.2252   22.0771 C   0  0  0  0  0  0
  -22.4276   -8.0269   21.3541 C   0  0  0  0  0  0
  -21.9902   -9.0260   20.4676 C   0  0  0  0  0  0
  -22.7234  -10.2134   20.3085 C   0  0  0  0  0  0
  -21.6840   -6.0727   22.5278 C   0  0  0  0  0  0
  -21.4030   -6.5646   23.8206 C   0  0  0  0  0  0
  -21.3662   -5.6799   24.9161 C   0  0  0  0  0  0
  -21.6030   -4.3062   24.7227 C   0  0  0  0  0  0
  -21.8810   -3.8154   23.4354 C   0  0  0  0  0  0
  -21.9196   -4.6959   22.3403 C   0  0  0  0  0  0
  -22.7845  -13.5237   21.1819 C   0  0  0  0  0  0
  -22.1660   -4.2135   21.0982 F   0  0  0  0  0  0
  -21.5607   -3.4554   25.7749 F   0  0  0  0  0  0
  -30.0097  -13.4232   20.4313 N   0  0  0  0  0  0
  -26.2973  -12.9389   20.3282 N   0  0  0  0  0  0
  -25.9332  -11.6533   20.5728 N   0  0  0  0  0  0
  -22.0512  -12.8248   22.0389 N   0  0  0  0  0  0
  -25.4295  -15.1916   20.4171 N   0  0  0  0  0  0
  -31.8616  -14.6775   20.1117 O   0  0  0  0  0  0
  -21.6640   -6.8870   21.4239 O   0  0  0  0  0  0
  -22.3523  -14.5550   20.6663 O   0  0  0  0  0  0
  -24.6245  -31.8604   23.2067 C   0  0  0  0  0  0
  -25.9091  -32.4786   23.8368 C   0  0  1  0  0  0
  -27.2116  -27.3203   20.0983 C   0  0  0  0  0  0
  -25.5935  -33.8591   24.2297 N   0  0  0  0  0  0
  -23.4157  -30.4872   21.5522 C   0  0  2  0  0  0
  -24.8544  -28.9469   20.1128 C   0  0  0  0  0  0
  -22.7454  -29.4618   22.4968 C   0  0  0  0  0  0
  -18.0313  -28.1385   22.8438 C   0  0  0  0  0  0
  -24.1509  -36.7282   23.2640 C   0  0  0  0  0  0
  -25.9579  -30.7910   21.3766 C   0  0  0  0  0  0
  -26.0247  -29.4215   20.7122 C   0  0  0  0  0  0
  -27.2029  -28.6197   20.6952 C   0  0  0  0  0  0
  -26.0024  -26.8851   19.5017 C   0  0  0  0  0  0
  -24.8431  -27.6843   19.5042 C   0  0  0  0  0  0
  -23.6277  -29.8345   20.1622 C   0  0  0  0  0  0
  -25.4124  -36.3086   24.0336 C   0  0  1  0  0  0
  -20.5897  -28.3651   23.1297 C   0  0  2  0  0  0
  -20.6803  -26.9410   22.5327 C   0  0  0  0  0  0
  -19.5823  -26.6542   21.5051 C   0  0  0  0  0  0
  -18.1997  -26.7981   22.1476 C   0  0  0  0  0  0
  -19.1556  -28.8819   23.2890 C   0  0  0  0  0  0
  -18.9471  -30.1397   23.8942 C   0  0  0  0  0  0
  -17.6479  -30.6553   24.0614 C   0  0  0  0  0  0
  -25.9044  -34.9453   23.5112 C   0  0  0  0  0  0
  -16.5374  -29.9066   23.6354 C   0  0  0  0  0  0
  -16.7301  -28.6507   23.0329 C   0  0  0  0  0  0
  -26.4509  -31.6580   25.0718 C   0  0  0  0  0  0
  -25.3774  -31.3652   26.1466 C   0  0  0  0  0  0
  -27.0344  -30.3018   24.6129 C   0  0  0  0  0  0
  -27.6100  -32.4283   25.7463 C   0  0  0  0  0  0
  -27.5588  -37.1805   24.8473 C   0  0  0  0  0  0
  -21.4166  -29.3024   22.3698 N   0  0  0  0  0  0
  -26.4304  -37.3758   23.9407 N   0  0  0  0  0  0
  -24.6854  -31.0614   22.1030 N   0  0  0  0  0  0
  -23.4159  -28.8166   23.3062 O   0  0  0  0  0  0
  -28.3619  -26.5199   20.1460 O   0  0  0  0  0  0
  -26.5599  -34.8915   22.4668 O   0  0  0  0  0  0
  -23.5409  -32.1402   23.7403 O   0  0  0  0  0  0
  -28.0475  -20.0358   20.1090 C   0  0  0  0  0  0
  -28.9862  -21.1139   20.0063 C   0  0  0  0  0  0
  -29.7612  -18.4288   20.2376 C   0  0  0  0  0  0
  -30.6977  -19.5125   20.2716 C   0  0  0  0  0  0
  -25.9621  -20.3592   21.5057 C   0  0  0  0  0  0
  -29.6499  -16.1058   22.1863 C   0  0  0  0  0  0
  -26.5364  -20.2374   20.0889 C   0  0  0  0  0  0
  -28.6440  -22.5497   19.4567 C   0  0  0  0  0  0
  -30.1797  -16.9492   19.8930 C   0  0  0  0  0  0
  -28.6652  -23.8664   20.3406 C   0  0  0  0  0  0
  -28.4571  -25.1998   19.4909 C   0  0  0  0  0  0
  -32.2067  -19.2738   20.3785 C   0  0  0  0  0  0
  -28.4314  -18.7235   20.2196 N   0  0  0  0  0  0
  -30.3047  -20.8223   20.1380 N   0  0  0  0  0  0
  -30.0127  -15.7659   20.8095 N   0  0  0  0  0  0
  -32.4695  -18.3689   21.3242 F   0  0  0  0  0  0
  -32.6927  -18.8451   19.2135 F   0  0  0  0  0  0
  -32.8459  -20.3997   20.7044 F   0  0  0  0  0  0
  -31.4644  -12.4513   19.1737 H   0  0  0  0  0  0
  -30.3032  -11.3879   19.9178 H   0  0  0  0  0  0
  -29.7712  -11.7473   17.4821 H   0  0  0  0  0  0
  -29.6446  -13.4704   17.7516 H   0  0  0  0  0  0
  -27.8887  -11.2763   18.8968 H   0  0  0  0  0  0
  -27.3666  -12.5296   17.7992 H   0  0  0  0  0  0
  -27.6602  -14.2538   19.4988 H   0  0  0  0  0  0
  -28.6863  -12.1085   21.4264 H   0  0  0  0  0  0
  -28.4162  -13.7746   21.8076 H   0  0  0  0  0  0
  -25.2733   -9.5665   22.4770 H   0  0  0  0  0  0
  -23.9965   -7.4648   22.7505 H   0  0  0  0  0  0
  -21.0822   -8.8790   19.8999 H   0  0  0  0  0  0
  -22.3700  -10.9660   19.6187 H   0  0  0  0  0  0
  -21.2054   -7.6158   23.9694 H   0  0  0  0  0  0
  -21.1477   -6.0543   25.9044 H   0  0  0  0  0  0
  -22.0597   -2.7623   23.2866 H   0  0  0  0  0  0
  -22.4137  -11.9897   22.4741 H   0  0  0  0  0  0
  -21.1141  -13.1295   22.2633 H   0  0  0  0  0  0
  -24.6673  -15.8461   20.5422 H   0  0  0  0  0  0
  -26.2986  -15.6407   20.1595 H   0  0  0  0  0  0
  -26.7145  -32.5447   23.1088 H   0  0  0  0  0  0
  -25.0158  -33.9768   25.0492 H   0  0  0  0  0  0
  -22.7083  -31.3083   21.4207 H   0  0  0  0  0  0
  -23.3783  -35.9602   23.3310 H   0  0  0  0  0  0
  -24.3599  -36.8875   22.2053 H   0  0  0  0  0  0
  -23.7261  -37.6485   23.6645 H   0  0  0  0  0  0
  -26.0925  -31.5623   20.6175 H   0  0  0  0  0  0
  -26.8363  -30.8263   22.0079 H   0  0  0  0  0  0
  -28.1085  -28.9858   21.1573 H   0  0  0  0  0  0
  -25.8938  -25.9132   19.0475 H   0  0  0  0  0  0
  -23.9346  -27.3149   19.0459 H   0  0  0  0  0  0
  -23.7519  -30.6210   19.4177 H   0  0  0  0  0  0
  -22.7448  -29.2741   19.8529 H   0  0  0  0  0  0
  -25.1313  -36.1941   25.0827 H   0  0  0  0  0  0
  -20.9966  -28.3185   24.1426 H   0  0  0  0  0  0
  -20.5683  -26.2191   23.3423 H   0  0  0  0  0  0
  -21.6691  -26.7477   22.1143 H   0  0  0  0  0  0
  -19.7024  -25.6552   21.0861 H   0  0  0  0  0  0
  -19.6801  -27.3528   20.6734 H   0  0  0  0  0  0
  -17.4262  -26.6733   21.3886 H   0  0  0  0  0  0
  -18.0455  -26.0052   22.8811 H   0  0  0  0  0  0
  -19.7932  -30.7209   24.2348 H   0  0  0  0  0  0
  -17.5036  -31.6221   24.5256 H   0  0  0  0  0  0
  -15.5382  -30.2992   23.7678 H   0  0  0  0  0  0
  -15.8692  -28.0869   22.7015 H   0  0  0  0  0  0
  -24.5988  -30.6965   25.7783 H   0  0  0  0  0  0
  -24.8938  -32.2788   26.4948 H   0  0  0  0  0  0
  -25.8154  -30.8803   27.0208 H   0  0  0  0  0  0
  -26.2888  -29.6768   24.1217 H   0  0  0  0  0  0
  -27.4143  -29.7266   25.4589 H   0  0  0  0  0  0
  -27.8726  -30.4335   23.9272 H   0  0  0  0  0  0
  -27.2772  -33.3587   26.2069 H   0  0  0  0  0  0
  -28.3895  -32.6819   25.0263 H   0  0  0  0  0  0
  -28.0799  -31.8379   26.5342 H   0  0  0  0  0  0
  -28.2612  -38.0098   24.7497 H   0  0  0  0  0  0
  -28.1083  -36.2629   24.6334 H   0  0  0  0  0  0
  -27.2306  -37.1483   25.8876 H   0  0  0  0  0  0
  -20.9361  -29.8575   21.6767 H   0  0  0  0  0  0
  -26.0204  -38.2835   24.1391 H   0  0  0  0  0  0
  -26.2173  -19.4836   22.1055 H   0  0  0  0  0  0
  -24.8746  -20.4392   21.4862 H   0  0  0  0  0  0
  -26.3527  -21.2417   22.0102 H   0  0  0  0  0  0
  -29.7661  -15.2652   22.8713 H   0  0  0  0  0  0
  -30.2689  -16.9184   22.5741 H   0  0  0  0  0  0
  -28.6088  -16.4215   22.2258 H   0  0  0  0  0  0
  -26.2401  -21.0977   19.4930 H   0  0  0  0  0  0
  -26.0773  -19.3780   19.5960 H   0  0  0  0  0  0
  -29.3525  -22.7068   18.6411 H   0  0  0  0  0  0
  -27.6826  -22.5102   18.9527 H   0  0  0  0  0  0
  -29.6307  -16.6842   18.9891 H   0  0  0  0  0  0
  -31.2103  -16.9774   19.5459 H   0  0  0  0  0  0
  -29.6245  -23.9346   20.8587 H   0  0  0  0  0  0
  -27.9030  -23.7945   21.1198 H   0  0  0  0  0  0
  -27.6804  -25.0246   18.7496 H   0  0  0  0  0  0
  -29.3459  -25.2897   18.8638 H   0  0  0  0  0  0
  1 25  1  0  0  0
  1 30  2  0  0  0
  1 85  1  0  0  0
  2  3  1  0  0  0
  2 25  1  0  0  0
  2 89  1  0  0  0
  2 90  1  0  0  0
  3  4  1  0  0  0
  3 91  1  0  0  0
  3 92  1  0  0  0
  4  5  1  0  0  0
  4 93  1  0  0  0
  4 94  1  0  0  0
  5  6  1  0  0  0
  5 26  1  0  0  0
  5 95  1  0  0  0
  6 25  1  0  0  0
  6 96  1  0  0  0
  6 97  1  0  0  0
  7  8  2  0  0  0
  7 26  1  0  0  0
  7 29  1  0  0  0
  8  9  1  0  0  0
  8 22  1  0  0  0
  9 10  1  0  0  0
  9 27  2  0  0  0
 10 11  2  0  0  0
 10 15  1  0  0  0
 11 12  1  0  0  0
 11 98  1  0  0  0
 12 13  2  0  0  0
 12 99  1  0  0  0
 13 14  1  0  0  0
 13 31  1  0  0  0
 14 15  2  0  0  0
 14100  1  0  0  0
 15101  1  0  0  0
 16 17  2  0  0  0
 16 21  1  0  0  0
 16 31  1  0  0  0
 17 18  1  0  0  0
 17102  1  0  0  0
 18 19  2  0  0  0
 18103  1  0  0  0
 19 20  1  0  0  0
 19 24  1  0  0  0
 20 21  2  0  0  0
 20104  1  0  0  0
 21 23  1  0  0  0
 22 28  1  0  0  0
 22 32  2  0  0  0
 26 27  1  0  0  0
 28105  1  0  0  0
 28106  1  0  0  0
 29107  1  0  0  0
 29108  1  0  0  0
 33 34  1  0  0  0
 33 66  1  0  0  0
 33 70  2  0  0  0
 34 36  1  0  0  0
 34 59  1  0  0  0
 34109  1  0  0  0
 35 44  2  0  0  0
 35 45  1  0  0  0
 35 68  1  0  0  0
 36 56  1  0  0  0
 36110  1  0  0  0
 37 39  1  0  0  0
 37 47  1  0  0  0
 37 66  1  0  0  0
 37111  1  0  0  0
 38 43  2  0  0  0
 38 46  1  0  0  0
 38 47  1  0  0  0
 39 64  1  0  0  0
 39 67  2  0  0  0
 40 52  1  0  0  0
 40 53  2  0  0  0
 40 58  1  0  0  0
 41112  1  0  0  0
 41113  1  0  0  0
 41114  1  0  0  0
 41 48  1  0  0  0
 42 43  1  0  0  0
 42 66  1  0  0  0
 42115  1  0  0  0
 42116  1  0  0  0
 43 44  1  0  0  0
 44117  1  0  0  0
 45 46  2  0  0  0
 45118  1  0  0  0
 46119  1  0  0  0
 47120  1  0  0  0
 47121  1  0  0  0
 48 56  1  0  0  0
 48 65  1  0  0  0
 48122  1  0  0  0
 49 50  1  0  0  0
 49 53  1  0  0  0
 49 64  1  0  0  0
 49123  1  0  0  0
 50 51  1  0  0  0
 50124  1  0  0  0
 50125  1  0  0  0
 51 52  1  0  0  0
 51126  1  0  0  0
 51127  1  0  0  0
 52128  1  0  0  0
 52129  1  0  0  0
 53 54  1  0  0  0
 54 55  2  0  0  0
 54130  1  0  0  0
 55 57  1  0  0  0
 55131  1  0  0  0
 56 69  2  0  0  0
 57 58  2  0  0  0
 57132  1  0  0  0
 58133  1  0  0  0
 59 60  1  0  0  0
 59 61  1  0  0  0
 59 62  1  0  0  0
 60134  1  0  0  0
 60135  1  0  0  0
 60136  1  0  0  0
 61137  1  0  0  0
 61138  1  0  0  0
 61139  1  0  0  0
 62140  1  0  0  0
 62141  1  0  0  0
 62142  1  0  0  0
 63 65  1  0  0  0
 63143  1  0  0  0
 63144  1  0  0  0
 63145  1  0  0  0
 64146  1  0  0  0
 65147  1  0  0  0
 68 81  1  0  0  0
 71 72  2  0  0  0
 71 77  1  0  0  0
 71 83  1  0  0  0
 72 78  1  0  0  0
 72 84  1  0  0  0
 73 74  1  0  0  0
 73 79  1  0  0  0
 73 83  2  0  0  0
 74 82  1  0  0  0
 74 84  2  0  0  0
 75 77  1  0  0  0
 75148  1  0  0  0
 75149  1  0  0  0
 75150  1  0  0  0
 76 85  1  0  0  0
 76151  1  0  0  0
 76152  1  0  0  0
 76153  1  0  0  0
 77154  1  0  0  0
 77155  1  0  0  0
 78 80  1  0  0  0
 78156  1  0  0  0
 78157  1  0  0  0
 79 85  1  0  0  0
 79158  1  0  0  0
 79159  1  0  0  0
 80 81  1  0  0  0
 80160  1  0  0  0
 80161  1  0  0  0
 81162  1  0  0  0
 81163  1  0  0  0
 82 86  1  0  0  0
 82 87  1  0  0  0
 82 88  1  0  0  0
M  ISO  4   1 100  68 101  81 101  85 100
M  END
> <chiral flag>
0

> <version>
0

> <s_m_source_file>
/data/baiqing/PycharmProjects/Reinvent-master-3.2/result/LINK_invent/BTK/process_docking_weight1_custom_sum_contain_oxygen_bond_distance_aromatic_linkinvent_7_9_3/rearranged_h_0063.sdf

> <i_m_source_file_index>
65

> <r_mmod_Potential_Energy-OPLS-2005>
311.721557617188

> <r_mmod_Stretch_Energy-OPLS-2005>
84.0640335083008

> <r_mmod_Bend_Energy-OPLS-2005>
167.541046142578

> <r_mmod_Torsional_Energy-OPLS-2005>
269.097961425781

> <r_mmod_Improper_Torsional_Energy-OPLS-2005>
14.0387887954712

> <r_mmod_Van_der_Waal_Energy-OPLS-2005>
150.369384765625

> <r_mmod_Electrostatic_Energy-OPLS-2005>
-225.746337890625

> <r_mmod_Solvation_Energy-OPLS-2005>
-189.168243408203

> <b_mmod_Minimization_Converged-OPLS-2005>
0

> <r_mmod_RMS_Derivative-OPLS-2005>
4.51883697509766

$$$$
68
                    3D
 Structure written by MMmdl.
178186  0  0  1  0            999 V2000
  -30.7542  -14.4195   20.6441 C   0  0  0  0  0  0
  -30.4113  -12.3032   19.4073 C   0  0  0  0  0  0
  -29.4850  -12.5259   18.1968 C   0  0  0  0  0  0
  -28.0078  -12.3842   18.6114 C   0  0  0  0  0  0
  -27.6639  -13.2076   19.8820 C   0  0  2  0  0  0
  -28.7057  -12.9540   20.9933 C   0  0  0  0  0  0
  -25.2596  -13.8166   20.5692 C   0  0  0  0  0  0
  -24.1842  -13.0446   20.9173 C   0  0  0  0  0  0
  -24.6388  -11.6912   20.8726 C   0  0  0  0  0  0
  -23.9056  -10.4298   21.0394 C   0  0  0  0  0  0
  -24.3607   -9.4218   21.9177 C   0  0  0  0  0  0
  -23.6285   -8.2251   22.0753 C   0  0  0  0  0  0
  -22.4271   -8.0281   21.3541 C   0  0  0  0  0  0
  -21.9901   -9.0253   20.4642 C   0  0  0  0  0  0
  -22.7225  -10.2133   20.3049 C   0  0  0  0  0  0
  -21.6855   -6.0734   22.5280 C   0  0  0  0  0  0
  -21.4013   -6.5636   23.8212 C   0  0  0  0  0  0
  -21.3660   -5.6788   24.9173 C   0  0  0  0  0  0
  -21.6045   -4.3053   24.7225 C   0  0  0  0  0  0
  -21.8818   -3.8144   23.4344 C   0  0  0  0  0  0
  -21.9192   -4.6962   22.3403 C   0  0  0  0  0  0
  -22.7864  -13.5239   21.1839 C   0  0  0  0  0  0
  -22.1663   -4.2150   21.0982 F   0  0  0  0  0  0
  -21.5628   -3.4539   25.7739 F   0  0  0  0  0  0
  -30.0347  -13.2760   20.4486 N   0  0  0  0  0  0
  -26.3039  -12.9338   20.3407 N   0  0  0  0  0  0
  -25.9318  -11.6493   20.5767 N   0  0  0  0  0  0
  -22.0505  -12.8232   22.0388 N   0  0  0  0  0  0
  -25.4332  -15.1883   20.4113 N   0  0  0  0  0  0
  -31.8430  -14.5735   20.0783 O   0  0  0  0  0  0
  -21.6638   -6.8878   21.4242 O   0  0  0  0  0  0
  -22.3554  -14.5556   20.6703 O   0  0  0  0  0  0
  -24.6115  -31.8708   23.2139 C   0  0  0  0  0  0
  -25.9023  -32.4831   23.8422 C   0  0  1  0  0  0
  -27.2329  -27.4593   20.0941 C   0  0  0  0  0  0
  -25.5903  -33.8633   24.2351 N   0  0  0  0  0  0
  -23.3987  -30.4946   21.5532 C   0  0  2  0  0  0
  -24.8461  -28.9604   20.1220 C   0  0  0  0  0  0
  -22.7399  -29.4667   22.5011 C   0  0  0  0  0  0
  -18.0269  -28.1380   22.8499 C   0  0  0  0  0  0
  -24.1486  -36.7314   23.2639 C   0  0  0  0  0  0
  -25.9258  -30.8411   21.3664 C   0  0  0  0  0  0
  -26.0035  -29.4750   20.7200 C   0  0  0  0  0  0
  -27.2022  -28.7288   20.7088 C   0  0  0  0  0  0
  -26.0660  -26.9587   19.4821 C   0  0  0  0  0  0
  -24.8690  -27.6982   19.5040 C   0  0  0  0  0  0
  -23.6072  -29.8247   20.1689 C   0  0  0  0  0  0
  -25.4104  -36.3115   24.0347 C   0  0  1  0  0  0
  -20.5855  -28.3662   23.1330 C   0  0  2  0  0  0
  -20.6757  -26.9403   22.5421 C   0  0  0  0  0  0
  -19.5732  -26.6386   21.5219 C   0  0  0  0  0  0
  -18.1909  -26.7932   22.1628 C   0  0  0  0  0  0
  -19.1517  -28.8839   23.2913 C   0  0  0  0  0  0
  -18.9448  -30.1447   23.8920 C   0  0  0  0  0  0
  -17.6451  -30.6590   24.0569 C   0  0  0  0  0  0
  -25.9032  -34.9482   23.5140 C   0  0  0  0  0  0
  -16.5342  -29.9087   23.6340 C   0  0  0  0  0  0
  -16.7262  -28.6507   23.0359 C   0  0  0  0  0  0
  -26.4469  -31.6609   25.0739 C   0  0  0  0  0  0
  -25.3743  -31.3682   26.1492 C   0  0  0  0  0  0
  -27.0328  -30.3071   24.6093 C   0  0  0  0  0  0
  -27.6049  -32.4342   25.7486 C   0  0  0  0  0  0
  -27.5579  -37.1805   24.8469 C   0  0  0  0  0  0
  -21.4132  -29.3031   22.3743 N   0  0  0  0  0  0
  -26.4295  -37.3795   23.9415 N   0  0  0  0  0  0
  -24.6630  -31.0834   22.1024 N   0  0  0  0  0  0
  -23.4183  -28.8202   23.3038 O   0  0  0  0  0  0
  -28.3984  -26.7369   20.0291 O   0  0  0  0  0  0
  -26.5588  -34.8924   22.4695 O   0  0  0  0  0  0
  -23.5314  -32.1439   23.7561 O   0  0  0  0  0  0
  -29.1296  -17.9260   21.2045 C   0  0  0  0  0  0
  -30.0918  -16.9195   20.8919 C   0  0  0  0  0  0
  -29.4443  -18.9946   20.4055 C   0  0  0  0  0  0
  -31.2397  -15.7163   22.7653 C   0  0  0  0  0  0
  -31.3070  -17.5635   16.7448 C   0  0  0  0  0  0
  -29.3269  -19.0910   16.9073 C   0  0  0  0  0  0
  -31.5470  -19.9855   16.1787 C   0  0  0  0  0  0
  -28.2500  -23.4782   23.0165 C   0  0  0  0  0  0
  -28.8359  -20.3663   20.3030 C   0  0  0  0  0  0
  -27.8408  -20.7254   21.4235 C   0  0  0  0  0  0
  -31.2466  -19.3332   18.5901 C   0  0  0  0  0  0
  -27.1863  -22.1172   21.2521 C   0  0  0  0  0  0
  -27.6631  -24.4991   20.8238 C   0  0  0  0  0  0
  -28.5708  -25.7366   21.0373 C   0  0  0  0  0  0
  -30.2644  -15.5663   21.5832 C   0  0  2  0  0  0
  -30.8505  -18.9872   17.1232 C   0  0  0  0  0  0
  -30.9402  -17.3623   19.9711 N   0  0  0  0  0  0
  -30.5199  -18.5987   19.6275 N   0  0  0  0  0  0
  -28.0879  -23.2674   21.5547 N   0  3  1  0  0  0
  -31.4552  -12.3839   19.1003 H   0  0  0  0  0  0
  -30.3012  -11.2858   19.7865 H   0  0  0  0  0  0
  -29.7212  -11.8147   17.4044 H   0  0  0  0  0  0
  -29.6577  -13.5191   17.7793 H   0  0  0  0  0  0
  -27.8162  -11.3260   18.7938 H   0  0  0  0  0  0
  -27.3543  -12.6731   17.7871 H   0  0  0  0  0  0
  -27.7194  -14.2622   19.6105 H   0  0  0  0  0  0
  -28.6848  -11.9028   21.2856 H   0  0  0  0  0  0
  -28.4479  -13.4853   21.9054 H   0  0  0  0  0  0
  -25.2753   -9.5701   22.4752 H   0  0  0  0  0  0
  -24.0003   -7.4648   22.7475 H   0  0  0  0  0  0
  -21.0835   -8.8763   19.8950 H   0  0  0  0  0  0
  -22.3678  -10.9671   19.6157 H   0  0  0  0  0  0
  -21.2005   -7.6146   23.9714 H   0  0  0  0  0  0
  -21.1483   -6.0519   25.9075 H   0  0  0  0  0  0
  -22.0595   -2.7607   23.2844 H   0  0  0  0  0  0
  -22.4115  -11.9886   22.4770 H   0  0  0  0  0  0
  -21.1124  -13.1258   22.2600 H   0  0  0  0  0  0
  -24.6683  -15.8453   20.5191 H   0  0  0  0  0  0
  -26.2924  -15.6280   20.1050 H   0  0  0  0  0  0
  -26.7092  -32.5556   23.1192 H   0  0  0  0  0  0
  -25.0096  -33.9811   25.0521 H   0  0  0  0  0  0
  -22.6852  -31.3095   21.4131 H   0  0  0  0  0  0
  -23.3753  -35.9645   23.3318 H   0  0  0  0  0  0
  -24.3564  -36.8919   22.2046 H   0  0  0  0  0  0
  -23.7240  -37.6517   23.6653 H   0  0  0  0  0  0
  -26.0345  -31.6044   20.5948 H   0  0  0  0  0  0
  -26.8154  -30.8978   21.9821 H   0  0  0  0  0  0
  -28.0999  -29.1259   21.1619 H   0  0  0  0  0  0
  -26.0830  -26.0020   18.9808 H   0  0  0  0  0  0
  -23.9797  -27.2985   19.0378 H   0  0  0  0  0  0
  -23.7148  -30.5961   19.4055 H   0  0  0  0  0  0
  -22.7324  -29.2407   19.8771 H   0  0  0  0  0  0
  -25.1276  -36.1981   25.0845 H   0  0  0  0  0  0
  -20.9947  -28.3233   24.1449 H   0  0  0  0  0  0
  -20.5682  -26.2269   23.3605 H   0  0  0  0  0  0
  -21.6623  -26.7461   22.1191 H   0  0  0  0  0  0
  -19.6893  -25.6302   21.1237 H   0  0  0  0  0  0
  -19.6664  -27.3210   20.6759 H   0  0  0  0  0  0
  -17.4179  -26.6708   21.4023 H   0  0  0  0  0  0
  -18.0287  -26.0063   22.9009 H   0  0  0  0  0  0
  -19.7921  -30.7262   24.2292 H   0  0  0  0  0  0
  -17.5005  -31.6273   24.5163 H   0  0  0  0  0  0
  -15.5344  -30.2989   23.7658 H   0  0  0  0  0  0
  -15.8664  -28.0835   22.7061 H   0  0  0  0  0  0
  -24.5931  -30.7012   25.7825 H   0  0  0  0  0  0
  -24.8913  -32.2813   26.4985 H   0  0  0  0  0  0
  -25.8107  -30.8822   27.0226 H   0  0  0  0  0  0
  -26.2876  -29.6799   24.1191 H   0  0  0  0  0  0
  -27.4164  -29.7330   25.4537 H   0  0  0  0  0  0
  -27.8662  -30.4420   23.9194 H   0  0  0  0  0  0
  -27.2691  -33.3657   26.2059 H   0  0  0  0  0  0
  -28.3850  -32.6897   25.0300 H   0  0  0  0  0  0
  -28.0724  -31.8476   26.5403 H   0  0  0  0  0  0
  -28.2601  -38.0098   24.7539 H   0  0  0  0  0  0
  -28.1071  -36.2633   24.6283 H   0  0  0  0  0  0
  -27.2290  -37.1462   25.8869 H   0  0  0  0  0  0
  -20.9305  -29.8766   21.6968 H   0  0  0  0  0  0
  -26.0184  -38.2874   24.1416 H   0  0  0  0  0  0
  -28.3402  -17.8765   21.9416 H   0  0  0  0  0  0
  -30.8721  -16.4514   23.4816 H   0  0  0  0  0  0
  -32.2224  -16.0491   22.4284 H   0  0  0  0  0  0
  -31.3690  -14.7729   23.2967 H   0  0  0  0  0  0
  -31.1101  -17.3466   15.6943 H   0  0  0  0  0  0
  -30.7908  -16.8022   17.3297 H   0  0  0  0  0  0
  -32.3771  -17.4319   16.9090 H   0  0  0  0  0  0
  -29.0553  -18.8627   15.8758 H   0  0  0  0  0  0
  -28.9629  -20.0957   17.1202 H   0  0  0  0  0  0
  -28.7777  -18.3954   17.5431 H   0  0  0  0  0  0
  -31.3160  -19.7764   15.1335 H   0  0  0  0  0  0
  -32.6320  -19.9477   16.2861 H   0  0  0  0  0  0
  -31.2353  -21.0114   16.3793 H   0  0  0  0  0  0
  -28.5457  -22.5600   23.5229 H   0  0  0  0  0  0
  -27.3205  -23.8219   23.4718 H   0  0  0  0  0  0
  -29.0250  -24.2122   23.2354 H   0  0  0  0  0  0
  -28.3344  -20.4571   19.3399 H   0  0  0  0  0  0
  -29.6334  -21.1085   20.3022 H   0  0  0  0  0  0
  -28.3173  -20.6280   22.3988 H   0  0  0  0  0  0
  -27.0415  -19.9835   21.4168 H   0  0  0  0  0  0
  -31.1052  -20.3992   18.7625 H   0  0  0  0  0  0
  -32.3145  -19.1637   18.7378 H   0  0  0  0  0  0
  -26.3015  -22.1869   21.8877 H   0  0  0  0  0  0
  -26.8111  -22.1918   20.2305 H   0  0  0  0  0  0
  -27.6567  -24.2699   19.7574 H   0  0  0  0  0  0
  -26.6363  -24.7428   21.0982 H   0  0  0  0  0  0
  -29.6184  -25.4355   20.9961 H   0  0  0  0  0  0
  -28.4147  -26.1728   22.0253 H   0  0  0  0  0  0
  -29.2999  -15.3220   22.0124 H   0  0  0  0  0  0
  -29.0012  -23.0257   21.1961 H   0  0  0  0  0  0
  1 25  1  0  0  0
  1 30  2  0  0  0
  1 85  1  0  0  0
  2  3  1  0  0  0
  2 25  1  0  0  0
  2 90  1  0  0  0
  2 91  1  0  0  0
  3  4  1  0  0  0
  3 92  1  0  0  0
  3 93  1  0  0  0
  4  5  1  0  0  0
  4 94  1  0  0  0
  4 95  1  0  0  0
  5  6  1  0  0  0
  5 26  1  0  0  0
  5 96  1  0  0  0
  6 25  1  0  0  0
  6 97  1  0  0  0
  6 98  1  0  0  0
  7  8  2  0  0  0
  7 26  1  0  0  0
  7 29  1  0  0  0
  8  9  1  0  0  0
  8 22  1  0  0  0
  9 10  1  0  0  0
  9 27  2  0  0  0
 10 11  2  0  0  0
 10 15  1  0  0  0
 11 12  1  0  0  0
 11 99  1  0  0  0
 12 13  2  0  0  0
 12100  1  0  0  0
 13 14  1  0  0  0
 13 31  1  0  0  0
 14 15  2  0  0  0
 14101  1  0  0  0
 15102  1  0  0  0
 16 17  2  0  0  0
 16 21  1  0  0  0
 16 31  1  0  0  0
 17 18  1  0  0  0
 17103  1  0  0  0
 18 19  2  0  0  0
 18104  1  0  0  0
 19 20  1  0  0  0
 19 24  1  0  0  0
 20 21  2  0  0  0
 20105  1  0  0  0
 21 23  1  0  0  0
 22 28  1  0  0  0
 22 32  2  0  0  0
 26 27  1  0  0  0
 28106  1  0  0  0
 28107  1  0  0  0
 29108  1  0  0  0
 29109  1  0  0  0
 33 34  1  0  0  0
 33 66  1  0  0  0
 33 70  2  0  0  0
 34 36  1  0  0  0
 34 59  1  0  0  0
 34110  1  0  0  0
 35 44  2  0  0  0
 35 45  1  0  0  0
 35 68  1  0  0  0
 36 56  1  0  0  0
 36111  1  0  0  0
 37 39  1  0  0  0
 37 47  1  0  0  0
 37 66  1  0  0  0
 37112  1  0  0  0
 38 43  2  0  0  0
 38 46  1  0  0  0
 38 47  1  0  0  0
 39 64  1  0  0  0
 39 67  2  0  0  0
 40 52  1  0  0  0
 40 53  2  0  0  0
 40 58  1  0  0  0
 41113  1  0  0  0
 41114  1  0  0  0
 41115  1  0  0  0
 41 48  1  0  0  0
 42 43  1  0  0  0
 42 66  1  0  0  0
 42116  1  0  0  0
 42117  1  0  0  0
 43 44  1  0  0  0
 44118  1  0  0  0
 45 46  2  0  0  0
 45119  1  0  0  0
 46120  1  0  0  0
 47121  1  0  0  0
 47122  1  0  0  0
 48 56  1  0  0  0
 48 65  1  0  0  0
 48123  1  0  0  0
 49 50  1  0  0  0
 49 53  1  0  0  0
 49 64  1  0  0  0
 49124  1  0  0  0
 50 51  1  0  0  0
 50125  1  0  0  0
 50126  1  0  0  0
 51 52  1  0  0  0
 51127  1  0  0  0
 51128  1  0  0  0
 52129  1  0  0  0
 52130  1  0  0  0
 53 54  1  0  0  0
 54 55  2  0  0  0
 54131  1  0  0  0
 55 57  1  0  0  0
 55132  1  0  0  0
 56 69  2  0  0  0
 57 58  2  0  0  0
 57133  1  0  0  0
 58134  1  0  0  0
 59 60  1  0  0  0
 59 61  1  0  0  0
 59 62  1  0  0  0
 60135  1  0  0  0
 60136  1  0  0  0
 60137  1  0  0  0
 61138  1  0  0  0
 61139  1  0  0  0
 61140  1  0  0  0
 62141  1  0  0  0
 62142  1  0  0  0
 62143  1  0  0  0
 63 65  1  0  0  0
 63144  1  0  0  0
 63145  1  0  0  0
 63146  1  0  0  0
 64147  1  0  0  0
 65148  1  0  0  0
 68 84  1  0  0  0
 71 72  1  0  0  0
 71 73  2  0  0  0
 71149  1  0  0  0
 72 85  1  0  0  0
 72 87  2  0  0  0
 73 79  1  0  0  0
 73 88  1  0  0  0
 74150  1  0  0  0
 74151  1  0  0  0
 74152  1  0  0  0
 74 85  1  0  0  0
 75153  1  0  0  0
 75154  1  0  0  0
 75155  1  0  0  0
 75 86  1  0  0  0
 76 86  1  0  0  0
 76156  1  0  0  0
 76157  1  0  0  0
 76158  1  0  0  0
 77 86  1  0  0  0
 77159  1  0  0  0
 77160  1  0  0  0
 77161  1  0  0  0
 78162  1  0  0  0
 78163  1  0  0  0
 78164  1  0  0  0
 78 89  1  0  0  0
 79 80  1  0  0  0
 79165  1  0  0  0
 79166  1  0  0  0
 80 82  1  0  0  0
 80167  1  0  0  0
 80168  1  0  0  0
 81 86  1  0  0  0
 81 88  1  0  0  0
 81169  1  0  0  0
 81170  1  0  0  0
 82 89  1  0  0  0
 82171  1  0  0  0
 82172  1  0  0  0
 83 84  1  0  0  0
 83 89  1  0  0  0
 83173  1  0  0  0
 83174  1  0  0  0
 84175  1  0  0  0
 84176  1  0  0  0
 85177  1  0  0  0
 87 88  1  0  0  0
 89178  1  0  0  0
M  CHG  1  89   1
M  ISO  4   1 100  68 101  84 101  85 100
M  END
> <chiral flag>
0

> <version>
0

> <s_m_source_file>
/data/baiqing/PycharmProjects/Reinvent-master-3.2/result/LINK_invent/BTK/process_docking_weight1_custom_sum_contain_oxygen_bond_distance_aromatic_linkinvent_7_9_3/rearranged_h_0063.sdf

> <i_m_source_file_index>
66

> <r_mmod_Potential_Energy-OPLS-2005>
-52.5008544921875

> <r_mmod_Stretch_Energy-OPLS-2005>
38.7248840332031

> <r_mmod_Bend_Energy-OPLS-2005>
110.562683105469

> <r_mmod_Torsional_Energy-OPLS-2005>
212.898345947266

> <r_mmod_Improper_Torsional_Energy-OPLS-2005>
2.0946946144104

> <r_mmod_Van_der_Waal_Energy-OPLS-2005>
125.779228210449

> <r_mmod_Electrostatic_Energy-OPLS-2005>
-116.135513305664

> <r_mmod_Solvation_Energy-OPLS-2005>
-435.186950683594

> <b_mmod_Minimization_Converged-OPLS-2005>
0

> <r_mmod_RMS_Derivative-OPLS-2005>
1.33110821247101

$$$$
69
                    3D
 Structure written by MMmdl.
172180  0  0  1  0            999 V2000
  -30.7322  -14.4409   20.7721 C   0  0  0  0  0  0
  -30.4028  -12.3487   19.4540 C   0  0  0  0  0  0
  -29.5087  -12.5611   18.2155 C   0  0  0  0  0  0
  -28.0274  -12.3874   18.5952 C   0  0  0  0  0  0
  -27.6533  -13.2042   19.8576 C   0  0  2  0  0  0
  -28.6631  -12.9949   20.9977 C   0  0  0  0  0  0
  -25.2505  -13.8037   20.5378 C   0  0  0  0  0  0
  -24.1812  -13.0369   20.9016 C   0  0  0  0  0  0
  -24.6384  -11.6837   20.8642 C   0  0  0  0  0  0
  -23.9044  -10.4257   21.0363 C   0  0  0  0  0  0
  -24.3608   -9.4194   21.9153 C   0  0  0  0  0  0
  -23.6284   -8.2234   22.0751 C   0  0  0  0  0  0
  -22.4275   -8.0242   21.3542 C   0  0  0  0  0  0
  -21.9880   -9.0214   20.4645 C   0  0  0  0  0  0
  -22.7213  -10.2083   20.3021 C   0  0  0  0  0  0
  -21.6858   -6.0697   22.5280 C   0  0  0  0  0  0
  -21.4032   -6.5614   23.8209 C   0  0  0  0  0  0
  -21.3671   -5.6778   24.9175 C   0  0  0  0  0  0
  -21.6049   -4.3035   24.7235 C   0  0  0  0  0  0
  -21.8819   -3.8109   23.4363 C   0  0  0  0  0  0
  -21.9205   -4.6924   22.3412 C   0  0  0  0  0  0
  -22.7868  -13.5182   21.1790 C   0  0  0  0  0  0
  -22.1659   -4.2109   21.0991 F   0  0  0  0  0  0
  -21.5637   -3.4527   25.7749 F   0  0  0  0  0  0
  -30.0071  -13.3096   20.5060 N   0  0  0  0  0  0
  -26.2966  -12.9225   20.3128 N   0  0  0  0  0  0
  -25.9312  -11.6403   20.5628 N   0  0  0  0  0  0
  -22.0562  -12.8216   22.0381 N   0  0  0  0  0  0
  -25.4222  -15.1702   20.3611 N   0  0  0  0  0  0
  -31.7213  -14.6871   20.0637 O   0  0  0  0  0  0
  -21.6638   -6.8849   21.4250 O   0  0  0  0  0  0
  -22.3556  -14.5528   20.6674 O   0  0  0  0  0  0
  -24.6155  -31.8699   23.2067 C   0  0  0  0  0  0
  -25.9036  -32.4860   23.8391 C   0  0  1  0  0  0
  -27.2349  -27.3997   20.1553 C   0  0  0  0  0  0
  -25.5905  -33.8661   24.2344 N   0  0  0  0  0  0
  -23.4052  -30.4923   21.5417 C   0  0  2  0  0  0
  -24.8619  -28.9486   20.1197 C   0  0  0  0  0  0
  -22.7444  -29.4692   22.4963 C   0  0  0  0  0  0
  -18.0330  -28.1367   22.8521 C   0  0  0  0  0  0
  -24.1480  -36.7320   23.2635 C   0  0  0  0  0  0
  -25.9316  -30.8318   21.3593 C   0  0  0  0  0  0
  -26.0162  -29.4526   20.7334 C   0  0  0  0  0  0
  -27.2074  -28.6854   20.7581 C   0  0  0  0  0  0
  -26.0766  -26.9319   19.5051 C   0  0  0  0  0  0
  -24.8886  -27.6882   19.4955 C   0  0  0  0  0  0
  -23.6216  -29.8159   20.1588 C   0  0  0  0  0  0
  -25.4104  -36.3162   24.0353 C   0  0  1  0  0  0
  -20.5913  -28.3687   23.1360 C   0  0  2  0  0  0
  -20.6832  -26.9429   22.5398 C   0  0  0  0  0  0
  -19.5764  -26.6386   21.5238 C   0  0  0  0  0  0
  -18.1950  -26.7923   22.1632 C   0  0  0  0  0  0
  -19.1578  -28.8844   23.2920 C   0  0  0  0  0  0
  -18.9473  -30.1470   23.8887 C   0  0  0  0  0  0
  -17.6472  -30.6573   24.0590 C   0  0  0  0  0  0
  -25.9026  -34.9523   23.5130 C   0  0  0  0  0  0
  -16.5372  -29.9059   23.6337 C   0  0  0  0  0  0
  -16.7318  -28.6473   23.0364 C   0  0  0  0  0  0
  -26.4435  -31.6637   25.0726 C   0  0  0  0  0  0
  -25.3691  -31.3725   26.1480 C   0  0  0  0  0  0
  -27.0252  -30.3099   24.6052 C   0  0  0  0  0  0
  -27.6045  -32.4304   25.7477 C   0  0  0  0  0  0
  -27.5582  -37.1832   24.8470 C   0  0  0  0  0  0
  -21.4165  -29.3067   22.3761 N   0  0  0  0  0  0
  -26.4293  -37.3859   23.9427 N   0  0  0  0  0  0
  -24.6690  -31.0819   22.0932 N   0  0  0  0  0  0
  -23.4256  -28.8235   23.2975 O   0  0  0  0  0  0
  -28.3475  -26.5773   20.1321 O   0  0  0  0  0  0
  -26.5566  -34.8959   22.4682 O   0  0  0  0  0  0
  -23.5345  -32.1418   23.7495 O   0  0  0  0  0  0
  -29.5661  -17.8654   21.2708 C   0  0  0  0  0  0
  -29.3951  -16.5210   21.7500 C   0  0  0  0  0  0
  -28.3348  -18.4723   21.3473 C   0  0  0  0  0  0
  -30.1910  -14.6858   23.3527 C   0  0  0  0  0  0
  -31.7994  -16.1609   22.2887 C   0  0  0  0  0  0
  -29.1366  -24.2589   23.1276 C   0  0  0  0  0  0
  -26.9038  -24.5970   22.0757 C   0  0  0  0  0  0
  -26.0858  -17.6309   22.2456 C   0  0  0  0  0  0
  -27.8508  -19.8310   20.8537 C   0  0  0  0  0  0
  -28.5397  -21.1401   21.3601 C   0  0  0  0  0  0
  -28.1172  -22.3821   20.5047 C   0  0  0  0  0  0
  -28.8597  -26.0957   21.3937 C   0  0  0  0  0  0
  -30.4605  -15.4206   22.0017 C   0  0  0  0  0  0
  -28.4257  -24.6338   21.8028 C   0  0  0  0  0  0
  -28.1217  -16.3325   22.0905 N   0  0  0  0  0  0
  -27.4900  -17.5142   21.8860 N   0  0  0  0  0  0
  -28.8562  -23.6684   20.7332 N   0  3  0  0  0  0
  -31.4542  -12.4322   19.1816 H   0  0  0  0  0  0
  -30.2726  -11.3299   19.8269 H   0  0  0  0  0  0
  -29.7859  -11.8626   17.4263 H   0  0  0  0  0  0
  -29.6734  -13.5602   17.8071 H   0  0  0  0  0  0
  -27.8538  -11.3267   18.7714 H   0  0  0  0  0  0
  -27.3882  -12.6643   17.7566 H   0  0  0  0  0  0
  -27.7003  -14.2580   19.5807 H   0  0  0  0  0  0
  -28.6287  -11.9720   21.3758 H   0  0  0  0  0  0
  -28.3318  -13.6350   21.8012 H   0  0  0  0  0  0
  -25.2761   -9.5688   22.4704 H   0  0  0  0  0  0
  -23.9994   -7.4642   22.7476 H   0  0  0  0  0  0
  -21.0788   -8.8739   19.8975 H   0  0  0  0  0  0
  -22.3665  -10.9609   19.6108 H   0  0  0  0  0  0
  -21.2019   -7.6124   23.9704 H   0  0  0  0  0  0
  -21.1500   -6.0507   25.9088 H   0  0  0  0  0  0
  -22.0586   -2.7567   23.2880 H   0  0  0  0  0  0
  -22.4158  -11.9846   22.4737 H   0  0  0  0  0  0
  -21.1213  -13.1288   22.2619 H   0  0  0  0  0  0
  -24.6789  -15.8246   20.5712 H   0  0  0  0  0  0
  -26.3434  -15.5938   20.3730 H   0  0  0  0  0  0
  -26.7159  -32.5631   23.1217 H   0  0  0  0  0  0
  -25.0188  -33.9812   25.0579 H   0  0  0  0  0  0
  -22.6875  -31.3053   21.3942 H   0  0  0  0  0  0
  -23.3771  -35.9634   23.3322 H   0  0  0  0  0  0
  -24.3545  -36.8882   22.2034 H   0  0  0  0  0  0
  -23.7170  -37.6516   23.6594 H   0  0  0  0  0  0
  -26.0277  -31.5814   20.5740 H   0  0  0  0  0  0
  -26.8256  -30.9118   21.9648 H   0  0  0  0  0  0
  -28.0929  -29.0726   21.2468 H   0  0  0  0  0  0
  -26.0948  -25.9639   19.0238 H   0  0  0  0  0  0
  -24.0088  -27.2925   19.0072 H   0  0  0  0  0  0
  -23.7393  -30.5871   19.3950 H   0  0  0  0  0  0
  -22.7424  -29.2382   19.8605 H   0  0  0  0  0  0
  -25.1280  -36.2051   25.0847 H   0  0  0  0  0  0
  -21.0017  -28.3238   24.1488 H   0  0  0  0  0  0
  -20.5835  -26.2240   23.3555 H   0  0  0  0  0  0
  -21.6696  -26.7516   22.1120 H   0  0  0  0  0  0
  -19.6901  -25.6306   21.1237 H   0  0  0  0  0  0
  -19.6697  -27.3233   20.6805 H   0  0  0  0  0  0
  -17.4224  -26.6803   21.4004 H   0  0  0  0  0  0
  -18.0255  -26.0038   22.8969 H   0  0  0  0  0  0
  -19.7942  -30.7347   24.2172 H   0  0  0  0  0  0
  -17.5013  -31.6249   24.5205 H   0  0  0  0  0  0
  -15.5358  -30.2950   23.7624 H   0  0  0  0  0  0
  -15.8736  -28.0777   22.7052 H   0  0  0  0  0  0
  -24.5912  -30.7021   25.7812 H   0  0  0  0  0  0
  -24.8820  -32.2862   26.4910 H   0  0  0  0  0  0
  -25.8068  -30.8921   27.0247 H   0  0  0  0  0  0
  -26.2781  -29.6897   24.1096 H   0  0  0  0  0  0
  -27.4022  -29.7324   25.4496 H   0  0  0  0  0  0
  -27.8629  -30.4443   23.9210 H   0  0  0  0  0  0
  -27.2743  -33.3625   26.2084 H   0  0  0  0  0  0
  -28.3876  -32.6807   25.0301 H   0  0  0  0  0  0
  -28.0707  -31.8373   26.5359 H   0  0  0  0  0  0
  -28.2646  -38.0097   24.7552 H   0  0  0  0  0  0
  -28.1038  -36.2631   24.6289 H   0  0  0  0  0  0
  -27.2291  -37.1489   25.8872 H   0  0  0  0  0  0
  -20.9274  -29.8770   21.7014 H   0  0  0  0  0  0
  -26.0203  -38.2955   24.1433 H   0  0  0  0  0  0
  -30.4761  -18.3299   20.9147 H   0  0  0  0  0  0
  -30.3112  -15.3692   24.1931 H   0  0  0  0  0  0
  -30.8701  -13.8503   23.5203 H   0  0  0  0  0  0
  -29.1768  -14.3204   23.4745 H   0  0  0  0  0  0
  -32.1207  -16.7666   21.4420 H   0  0  0  0  0  0
  -32.6088  -15.4617   22.5057 H   0  0  0  0  0  0
  -31.7190  -16.8336   23.1440 H   0  0  0  0  0  0
  -28.9392  -23.2288   23.4263 H   0  0  0  0  0  0
  -28.8070  -24.8829   23.9611 H   0  0  0  0  0  0
  -30.2193  -24.3659   23.0508 H   0  0  0  0  0  0
  -26.6123  -23.6792   22.5892 H   0  0  0  0  0  0
  -26.3170  -24.6738   21.1617 H   0  0  0  0  0  0
  -26.5966  -25.4140   22.7294 H   0  0  0  0  0  0
  -25.5097  -17.9801   21.3890 H   0  0  0  0  0  0
  -25.9736  -18.3446   23.0622 H   0  0  0  0  0  0
  -25.6818  -16.6717   22.5776 H   0  0  0  0  0  0
  -26.7747  -19.9231   21.0069 H   0  0  0  0  0  0
  -27.9612  -19.8044   19.7726 H   0  0  0  0  0  0
  -29.6226  -21.0231   21.3164 H   0  0  0  0  0  0
  -28.2821  -21.2999   22.4061 H   0  0  0  0  0  0
  -27.0365  -22.5213   20.5306 H   0  0  0  0  0  0
  -28.3267  -22.1369   19.4630 H   0  0  0  0  0  0
  -29.9454  -26.1275   21.3163 H   0  0  0  0  0  0
  -28.6217  -26.7909   22.1986 H   0  0  0  0  0  0
  -28.7463  -24.1858   19.8700 H   0  0  0  0  0  0
  -29.8446  -23.4820   20.8013 H   0  0  0  0  0  0
  1 25  1  0  0  0
  1 30  2  0  0  0
  1 83  1  0  0  0
  2  3  1  0  0  0
  2 25  1  0  0  0
  2 88  1  0  0  0
  2 89  1  0  0  0
  3  4  1  0  0  0
  3 90  1  0  0  0
  3 91  1  0  0  0
  4  5  1  0  0  0
  4 92  1  0  0  0
  4 93  1  0  0  0
  5  6  1  0  0  0
  5 26  1  0  0  0
  5 94  1  0  0  0
  6 25  1  0  0  0
  6 95  1  0  0  0
  6 96  1  0  0  0
  7  8  2  0  0  0
  7 26  1  0  0  0
  7 29  1  0  0  0
  8  9  1  0  0  0
  8 22  1  0  0  0
  9 10  1  0  0  0
  9 27  2  0  0  0
 10 11  2  0  0  0
 10 15  1  0  0  0
 11 12  1  0  0  0
 11 97  1  0  0  0
 12 13  2  0  0  0
 12 98  1  0  0  0
 13 14  1  0  0  0
 13 31  1  0  0  0
 14 15  2  0  0  0
 14 99  1  0  0  0
 15100  1  0  0  0
 16 17  2  0  0  0
 16 21  1  0  0  0
 16 31  1  0  0  0
 17 18  1  0  0  0
 17101  1  0  0  0
 18 19  2  0  0  0
 18102  1  0  0  0
 19 20  1  0  0  0
 19 24  1  0  0  0
 20 21  2  0  0  0
 20103  1  0  0  0
 21 23  1  0  0  0
 22 28  1  0  0  0
 22 32  2  0  0  0
 26 27  1  0  0  0
 28104  1  0  0  0
 28105  1  0  0  0
 29106  1  0  0  0
 29107  1  0  0  0
 33 34  1  0  0  0
 33 66  1  0  0  0
 33 70  2  0  0  0
 34 36  1  0  0  0
 34 59  1  0  0  0
 34108  1  0  0  0
 35 44  2  0  0  0
 35 45  1  0  0  0
 35 68  1  0  0  0
 36 56  1  0  0  0
 36109  1  0  0  0
 37 39  1  0  0  0
 37 47  1  0  0  0
 37 66  1  0  0  0
 37110  1  0  0  0
 38 43  2  0  0  0
 38 46  1  0  0  0
 38 47  1  0  0  0
 39 64  1  0  0  0
 39 67  2  0  0  0
 40 52  1  0  0  0
 40 53  2  0  0  0
 40 58  1  0  0  0
 41111  1  0  0  0
 41112  1  0  0  0
 41113  1  0  0  0
 41 48  1  0  0  0
 42 43  1  0  0  0
 42 66  1  0  0  0
 42114  1  0  0  0
 42115  1  0  0  0
 43 44  1  0  0  0
 44116  1  0  0  0
 45 46  2  0  0  0
 45117  1  0  0  0
 46118  1  0  0  0
 47119  1  0  0  0
 47120  1  0  0  0
 48 56  1  0  0  0
 48 65  1  0  0  0
 48121  1  0  0  0
 49 50  1  0  0  0
 49 53  1  0  0  0
 49 64  1  0  0  0
 49122  1  0  0  0
 50 51  1  0  0  0
 50123  1  0  0  0
 50124  1  0  0  0
 51 52  1  0  0  0
 51125  1  0  0  0
 51126  1  0  0  0
 52127  1  0  0  0
 52128  1  0  0  0
 53 54  1  0  0  0
 54 55  2  0  0  0
 54129  1  0  0  0
 55 57  1  0  0  0
 55130  1  0  0  0
 56 69  2  0  0  0
 57 58  2  0  0  0
 57131  1  0  0  0
 58132  1  0  0  0
 59 60  1  0  0  0
 59 61  1  0  0  0
 59 62  1  0  0  0
 60133  1  0  0  0
 60134  1  0  0  0
 60135  1  0  0  0
 61136  1  0  0  0
 61137  1  0  0  0
 61138  1  0  0  0
 62139  1  0  0  0
 62140  1  0  0  0
 62141  1  0  0  0
 63 65  1  0  0  0
 63142  1  0  0  0
 63143  1  0  0  0
 63144  1  0  0  0
 64145  1  0  0  0
 65146  1  0  0  0
 68 82  1  0  0  0
 71 72  1  0  0  0
 71 73  2  0  0  0
 71147  1  0  0  0
 72 83  1  0  0  0
 72 85  2  0  0  0
 73 79  1  0  0  0
 73 86  1  0  0  0
 74148  1  0  0  0
 74149  1  0  0  0
 74150  1  0  0  0
 74 83  1  0  0  0
 75 83  1  0  0  0
 75151  1  0  0  0
 75152  1  0  0  0
 75153  1  0  0  0
 76154  1  0  0  0
 76155  1  0  0  0
 76156  1  0  0  0
 76 84  1  0  0  0
 77 84  1  0  0  0
 77157  1  0  0  0
 77158  1  0  0  0
 77159  1  0  0  0
 78 86  1  0  0  0
 78160  1  0  0  0
 78161  1  0  0  0
 78162  1  0  0  0
 79 80  1  0  0  0
 79163  1  0  0  0
 79164  1  0  0  0
 80 81  1  0  0  0
 80165  1  0  0  0
 80166  1  0  0  0
 81 87  1  0  0  0
 81167  1  0  0  0
 81168  1  0  0  0
 82 84  1  0  0  0
 82169  1  0  0  0
 82170  1  0  0  0
 84 87  1  0  0  0
 85 86  1  0  0  0
 87171  1  0  0  0
 87172  1  0  0  0
M  CHG  1  87   1
M  ISO  4   1 100  68 101  82 101  83 100
M  END
> <chiral flag>
0

> <version>
0

> <s_m_source_file>
/data/baiqing/PycharmProjects/Reinvent-master-3.2/result/LINK_invent/BTK/process_docking_weight1_custom_sum_contain_oxygen_bond_distance_aromatic_linkinvent_7_9_3/rearranged_h_0063.sdf

> <i_m_source_file_index>
67

> <r_mmod_Potential_Energy-OPLS-2005>
-28.5473384857178

> <r_mmod_Stretch_Energy-OPLS-2005>
59.0170516967773

> <r_mmod_Bend_Energy-OPLS-2005>
147.670150756836

> <r_mmod_Torsional_Energy-OPLS-2005>
232.765777587891

> <r_mmod_Improper_Torsional_Energy-OPLS-2005>
3.94125127792358

> <r_mmod_Van_der_Waal_Energy-OPLS-2005>
124.683967590332

> <r_mmod_Electrostatic_Energy-OPLS-2005>
-203.591888427734

> <r_mmod_Solvation_Energy-OPLS-2005>
-412.094848632812

> <b_mmod_Minimization_Converged-OPLS-2005>
0

> <r_mmod_RMS_Derivative-OPLS-2005>
5.92168188095093

$$$$
70
                    3D
 Structure written by MMmdl.
179187  0  0  1  0            999 V2000
  -30.8022  -14.3199   20.7768 C   0  0  0  0  0  0
  -30.4035  -12.3158   19.3725 C   0  0  0  0  0  0
  -29.4643  -12.5322   18.1743 C   0  0  0  0  0  0
  -27.9946  -12.3643   18.5930 C   0  0  0  0  0  0
  -27.6521  -13.1972   19.8525 C   0  0  2  0  0  0
  -28.6811  -12.9434   20.9661 C   0  0  0  0  0  0
  -25.2565  -13.8161   20.5616 C   0  0  0  0  0  0
  -24.1836  -13.0436   20.9189 C   0  0  0  0  0  0
  -24.6386  -11.6906   20.8728 C   0  0  0  0  0  0
  -23.9053  -10.4292   21.0391 C   0  0  0  0  0  0
  -24.3576   -9.4234   21.9202 C   0  0  0  0  0  0
  -23.6259   -8.2267   22.0770 C   0  0  0  0  0  0
  -22.4257   -8.0287   21.3543 C   0  0  0  0  0  0
  -21.9895   -9.0250   20.4632 C   0  0  0  0  0  0
  -22.7227  -10.2125   20.3035 C   0  0  0  0  0  0
  -21.6858   -6.0733   22.5285 C   0  0  0  0  0  0
  -21.4013   -6.5630   23.8219 C   0  0  0  0  0  0
  -21.3653   -5.6775   24.9182 C   0  0  0  0  0  0
  -21.6045   -4.3040   24.7215 C   0  0  0  0  0  0
  -21.8810   -3.8130   23.4341 C   0  0  0  0  0  0
  -21.9185   -4.6961   22.3401 C   0  0  0  0  0  0
  -22.7873  -13.5220   21.1836 C   0  0  0  0  0  0
  -22.1663   -4.2156   21.0982 F   0  0  0  0  0  0
  -21.5627   -3.4511   25.7721 F   0  0  0  0  0  0
  -30.0281  -13.2464   20.4492 N   0  0  0  0  0  0
  -26.2964  -12.9312   20.3226 N   0  0  0  0  0  0
  -25.9294  -11.6484   20.5705 N   0  0  0  0  0  0
  -22.0497  -12.8169   22.0350 N   0  0  0  0  0  0
  -25.4284  -15.1859   20.3983 N   0  0  0  0  0  0
  -31.7798  -14.6281   20.0757 O   0  0  0  0  0  0
  -21.6631   -6.8888   21.4250 O   0  0  0  0  0  0
  -22.3554  -14.5521   20.6687 O   0  0  0  0  0  0
  -24.6092  -31.8719   23.2150 C   0  0  0  0  0  0
  -25.9008  -32.4846   23.8426 C   0  0  1  0  0  0
  -27.2309  -27.4746   20.0837 C   0  0  0  0  0  0
  -25.5888  -33.8643   24.2363 N   0  0  0  0  0  0
  -23.3955  -30.4961   21.5541 C   0  0  2  0  0  0
  -24.8445  -28.9725   20.1097 C   0  0  0  0  0  0
  -22.7387  -29.4663   22.5005 C   0  0  0  0  0  0
  -18.0271  -28.1357   22.8493 C   0  0  0  0  0  0
  -24.1486  -36.7322   23.2633 C   0  0  0  0  0  0
  -25.9212  -30.8457   21.3666 C   0  0  0  0  0  0
  -26.0000  -29.4835   20.7151 C   0  0  0  0  0  0
  -27.1969  -28.7368   20.7104 C   0  0  0  0  0  0
  -26.0755  -26.9916   19.4373 C   0  0  0  0  0  0
  -24.8752  -27.7228   19.4678 C   0  0  0  0  0  0
  -23.6028  -29.8324   20.1661 C   0  0  0  0  0  0
  -25.4100  -36.3127   24.0345 C   0  0  1  0  0  0
  -20.5852  -28.3637   23.1333 C   0  0  2  0  0  0
  -20.6760  -26.9381   22.5419 C   0  0  0  0  0  0
  -19.5744  -26.6373   21.5209 C   0  0  0  0  0  0
  -18.1920  -26.7906   22.1621 C   0  0  0  0  0  0
  -19.1515  -28.8815   23.2909 C   0  0  0  0  0  0
  -18.9447  -30.1423   23.8916 C   0  0  0  0  0  0
  -17.6450  -30.6571   24.0560 C   0  0  0  0  0  0
  -25.9023  -34.9488   23.5147 C   0  0  0  0  0  0
  -16.5342  -29.9073   23.6318 C   0  0  0  0  0  0
  -16.7260  -28.6486   23.0346 C   0  0  0  0  0  0
  -26.4463  -31.6595   25.0724 C   0  0  0  0  0  0
  -25.3753  -31.3679   26.1489 C   0  0  0  0  0  0
  -27.0269  -30.3039   24.6049 C   0  0  0  0  0  0
  -27.6055  -32.4293   25.7482 C   0  0  0  0  0  0
  -27.5582  -37.1816   24.8464 C   0  0  0  0  0  0
  -21.4121  -29.3020   22.3750 N   0  0  0  0  0  0
  -26.4292  -37.3803   23.9412 N   0  0  0  0  0  0
  -24.6597  -31.0840   22.1045 N   0  0  0  0  0  0
  -23.4185  -28.8192   23.3014 O   0  0  0  0  0  0
  -28.3755  -26.7201   20.1082 O   0  0  0  0  0  0
  -26.5580  -34.8927   22.4705 O   0  0  0  0  0  0
  -23.5297  -32.1470   23.7559 O   0  0  0  0  0  0
  -28.1971  -17.7045   20.9889 C   0  0  0  0  0  0
  -27.4400  -17.9653   22.1404 C   0  0  0  0  0  0
  -27.5978  -17.0443   23.1952 C   0  0  0  0  0  0
  -29.2397  -15.9342   22.0162 C   0  0  0  0  0  0
  -27.4807  -18.1561   25.4692 C   0  0  0  0  0  0
  -31.6912  -16.1393   22.3451 C   0  0  0  0  0  0
  -25.4834  -24.1868   20.9495 C   0  0  0  0  0  0
  -26.6427  -19.2613   22.2900 C   0  0  0  0  0  0
  -26.8458  -17.1424   24.5115 C   0  0  0  0  0  0
  -25.8588  -19.7504   21.0566 C   0  0  0  0  0  0
  -25.6105  -21.2694   21.1194 C   0  0  0  0  0  0
  -26.8269  -22.1082   20.6460 C   0  0  0  0  0  0
  -27.8962  -24.3037   20.3500 C   0  0  0  0  0  0
  -30.6321  -14.0717   23.2989 C   0  0  0  0  0  0
  -28.3139  -25.6294   21.0359 C   0  0  0  0  0  0
  -30.5525  -15.1101   22.1111 C   0  0  1  0  0  0
  -29.0691  -16.6871   20.9312 N   0  0  0  0  0  0
  -28.5397  -16.0802   23.1443 N   0  0  0  0  0  0
  -30.4013  -14.6325   24.6483 N   0  3  0  0  0  0
  -26.8196  -23.5428   21.0560 N   0  3  1  0  0  0
  -31.4417  -12.4287   19.0547 H   0  0  0  0  0  0
  -30.3205  -11.2905   19.7348 H   0  0  0  0  0  0
  -29.7033  -11.8298   17.3743 H   0  0  0  0  0  0
  -29.6148  -13.5322   17.7666 H   0  0  0  0  0  0
  -27.8140  -11.3046   18.7820 H   0  0  0  0  0  0
  -27.3350  -12.6408   17.7697 H   0  0  0  0  0  0
  -27.7102  -14.2498   19.5720 H   0  0  0  0  0  0
  -28.6442  -11.9013   21.2894 H   0  0  0  0  0  0
  -28.3705  -13.5276   21.8266 H   0  0  0  0  0  0
  -25.2664   -9.5744   22.4855 H   0  0  0  0  0  0
  -23.9934   -7.4678   22.7516 H   0  0  0  0  0  0
  -21.0830   -8.8774   19.8931 H   0  0  0  0  0  0
  -22.3684  -10.9666   19.6147 H   0  0  0  0  0  0
  -21.2007   -7.6139   23.9738 H   0  0  0  0  0  0
  -21.1477   -6.0487   25.9096 H   0  0  0  0  0  0
  -22.0568   -2.7589   23.2827 H   0  0  0  0  0  0
  -21.1018  -13.1007   22.2368 H   0  0  0  0  0  0
  -22.4163  -11.9894   22.4815 H   0  0  0  0  0  0
  -24.6465  -15.8282   20.4602 H   0  0  0  0  0  0
  -26.2767  -15.6213   20.0606 H   0  0  0  0  0  0
  -26.7076  -32.5583   23.1195 H   0  0  0  0  0  0
  -25.0076  -33.9824   25.0531 H   0  0  0  0  0  0
  -22.6815  -31.3108   21.4190 H   0  0  0  0  0  0
  -23.3745  -35.9657   23.3311 H   0  0  0  0  0  0
  -24.3587  -36.8912   22.2044 H   0  0  0  0  0  0
  -23.7237  -37.6535   23.6628 H   0  0  0  0  0  0
  -26.0276  -31.6116   20.5973 H   0  0  0  0  0  0
  -26.8115  -30.9016   21.9807 H   0  0  0  0  0  0
  -28.0866  -29.1216   21.1896 H   0  0  0  0  0  0
  -26.0973  -26.0538   18.9048 H   0  0  0  0  0  0
  -23.9939  -27.3343   18.9763 H   0  0  0  0  0  0
  -23.7038  -30.6100   19.4078 H   0  0  0  0  0  0
  -22.7291  -29.2474   19.8729 H   0  0  0  0  0  0
  -25.1271  -36.2009   25.0838 H   0  0  0  0  0  0
  -20.9946  -28.3197   24.1450 H   0  0  0  0  0  0
  -20.5647  -26.2249   23.3596 H   0  0  0  0  0  0
  -21.6636  -26.7421   22.1224 H   0  0  0  0  0  0
  -19.6905  -25.6290   21.1222 H   0  0  0  0  0  0
  -19.6682  -27.3196   20.6747 H   0  0  0  0  0  0
  -17.4190  -26.6654   21.4021 H   0  0  0  0  0  0
  -18.0325  -26.0037   22.9007 H   0  0  0  0  0  0
  -19.7924  -30.7230   24.2295 H   0  0  0  0  0  0
  -17.5008  -31.6256   24.5154 H   0  0  0  0  0  0
  -15.5341  -30.2983   23.7622 H   0  0  0  0  0  0
  -15.8661  -28.0809   22.7050 H   0  0  0  0  0  0
  -24.5930  -30.7016   25.7838 H   0  0  0  0  0  0
  -24.8942  -32.2823   26.4963 H   0  0  0  0  0  0
  -25.8136  -30.8843   27.0225 H   0  0  0  0  0  0
  -26.2788  -29.6830   24.1105 H   0  0  0  0  0  0
  -27.4053  -29.7240   25.4475 H   0  0  0  0  0  0
  -27.8625  -30.4365   23.9174 H   0  0  0  0  0  0
  -27.2686  -33.3570   26.2115 H   0  0  0  0  0  0
  -28.3841  -32.6878   25.0296 H   0  0  0  0  0  0
  -28.0746  -31.8376   26.5353 H   0  0  0  0  0  0
  -28.2605  -38.0111   24.7518 H   0  0  0  0  0  0
  -28.1075  -36.2643   24.6281 H   0  0  0  0  0  0
  -27.2306  -37.1457   25.8870 H   0  0  0  0  0  0
  -20.9257  -29.8778   21.7020 H   0  0  0  0  0  0
  -26.0192  -38.2885   24.1410 H   0  0  0  0  0  0
  -28.1761  -18.3506   20.1248 H   0  0  0  0  0  0
  -26.9540  -18.1707   26.4228 H   0  0  0  0  0  0
  -27.4482  -19.1639   25.0559 H   0  0  0  0  0  0
  -28.5243  -17.9080   25.6615 H   0  0  0  0  0  0
  -31.7803  -16.8358   21.5105 H   0  0  0  0  0  0
  -31.5028  -16.7449   23.2317 H   0  0  0  0  0  0
  -32.6581  -15.6556   22.4710 H   0  0  0  0  0  0
  -24.7321  -23.6887   21.5596 H   0  0  0  0  0  0
  -25.1266  -24.1866   19.9189 H   0  0  0  0  0  0
  -25.5058  -25.2139   21.3107 H   0  0  0  0  0  0
  -27.3745  -20.0153   22.5831 H   0  0  0  0  0  0
  -25.9449  -19.2096   23.1246 H   0  0  0  0  0  0
  -26.8362  -16.1601   24.9851 H   0  0  0  0  0  0
  -25.7981  -17.3786   24.3264 H   0  0  0  0  0  0
  -24.9082  -19.2162   21.0128 H   0  0  0  0  0  0
  -26.3654  -19.5315   20.1186 H   0  0  0  0  0  0
  -25.3165  -21.5368   22.1356 H   0  0  0  0  0  0
  -24.7562  -21.5038   20.4822 H   0  0  0  0  0  0
  -26.8875  -22.0465   19.5583 H   0  0  0  0  0  0
  -27.7522  -21.6671   21.0221 H   0  0  0  0  0  0
  -28.7910  -23.6812   20.2925 H   0  0  0  0  0  0
  -27.6075  -24.4764   19.3143 H   0  0  0  0  0  0
  -31.6084  -13.5846   23.2981 H   0  0  0  0  0  0
  -29.9234  -13.2570   23.2013 H   0  0  0  0  0  0
  -29.3077  -25.5115   21.4690 H   0  0  0  0  0  0
  -27.6675  -25.8723   21.8830 H   0  0  0  0  0  0
  -31.1523  -15.2307   24.9405 H   0  0  0  0  0  0
  -30.2923  -13.9007   25.3293 H   0  0  0  0  0  0
  -29.5467  -15.1753   24.6043 H   0  0  0  0  0  0
  -27.0532  -23.5453   22.0397 H   0  0  0  0  0  0
  1 25  1  0  0  0
  1 30  2  0  0  0
  1 86  1  0  0  0
  2  3  1  0  0  0
  2 25  1  0  0  0
  2 91  1  0  0  0
  2 92  1  0  0  0
  3  4  1  0  0  0
  3 93  1  0  0  0
  3 94  1  0  0  0
  4  5  1  0  0  0
  4 95  1  0  0  0
  4 96  1  0  0  0
  5  6  1  0  0  0
  5 26  1  0  0  0
  5 97  1  0  0  0
  6 25  1  0  0  0
  6 98  1  0  0  0
  6 99  1  0  0  0
  7  8  2  0  0  0
  7 26  1  0  0  0
  7 29  1  0  0  0
  8  9  1  0  0  0
  8 22  1  0  0  0
  9 10  1  0  0  0
  9 27  2  0  0  0
 10 11  2  0  0  0
 10 15  1  0  0  0
 11 12  1  0  0  0
 11100  1  0  0  0
 12 13  2  0  0  0
 12101  1  0  0  0
 13 14  1  0  0  0
 13 31  1  0  0  0
 14 15  2  0  0  0
 14102  1  0  0  0
 15103  1  0  0  0
 16 17  2  0  0  0
 16 21  1  0  0  0
 16 31  1  0  0  0
 17 18  1  0  0  0
 17104  1  0  0  0
 18 19  2  0  0  0
 18105  1  0  0  0
 19 20  1  0  0  0
 19 24  1  0  0  0
 20 21  2  0  0  0
 20106  1  0  0  0
 21 23  1  0  0  0
 22 28  1  0  0  0
 22 32  2  0  0  0
 26 27  1  0  0  0
 28107  1  0  0  0
 28108  1  0  0  0
 29109  1  0  0  0
 29110  1  0  0  0
 33 34  1  0  0  0
 33 66  1  0  0  0
 33 70  2  0  0  0
 34 36  1  0  0  0
 34 59  1  0  0  0
 34111  1  0  0  0
 35 44  2  0  0  0
 35 45  1  0  0  0
 35 68  1  0  0  0
 36 56  1  0  0  0
 36112  1  0  0  0
 37 39  1  0  0  0
 37 47  1  0  0  0
 37 66  1  0  0  0
 37113  1  0  0  0
 38 43  2  0  0  0
 38 46  1  0  0  0
 38 47  1  0  0  0
 39 64  1  0  0  0
 39 67  2  0  0  0
 40 52  1  0  0  0
 40 53  2  0  0  0
 40 58  1  0  0  0
 41114  1  0  0  0
 41115  1  0  0  0
 41116  1  0  0  0
 41 48  1  0  0  0
 42 43  1  0  0  0
 42 66  1  0  0  0
 42117  1  0  0  0
 42118  1  0  0  0
 43 44  1  0  0  0
 44119  1  0  0  0
 45 46  2  0  0  0
 45120  1  0  0  0
 46121  1  0  0  0
 47122  1  0  0  0
 47123  1  0  0  0
 48 56  1  0  0  0
 48 65  1  0  0  0
 48124  1  0  0  0
 49 50  1  0  0  0
 49 53  1  0  0  0
 49 64  1  0  0  0
 49125  1  0  0  0
 50 51  1  0  0  0
 50126  1  0  0  0
 50127  1  0  0  0
 51 52  1  0  0  0
 51128  1  0  0  0
 51129  1  0  0  0
 52130  1  0  0  0
 52131  1  0  0  0
 53 54  1  0  0  0
 54 55  2  0  0  0
 54132  1  0  0  0
 55 57  1  0  0  0
 55133  1  0  0  0
 56 69  2  0  0  0
 57 58  2  0  0  0
 57134  1  0  0  0
 58135  1  0  0  0
 59 60  1  0  0  0
 59 61  1  0  0  0
 59 62  1  0  0  0
 60136  1  0  0  0
 60137  1  0  0  0
 60138  1  0  0  0
 61139  1  0  0  0
 61140  1  0  0  0
 61141  1  0  0  0
 62142  1  0  0  0
 62143  1  0  0  0
 62144  1  0  0  0
 63 65  1  0  0  0
 63145  1  0  0  0
 63146  1  0  0  0
 63147  1  0  0  0
 64148  1  0  0  0
 65149  1  0  0  0
 68 85  1  0  0  0
 71 72  2  0  0  0
 71 87  1  0  0  0
 71150  1  0  0  0
 72 73  1  0  0  0
 72 78  1  0  0  0
 73 79  1  0  0  0
 73 88  2  0  0  0
 74 86  1  0  0  0
 74 87  2  0  0  0
 74 88  1  0  0  0
 75 79  1  0  0  0
 75151  1  0  0  0
 75152  1  0  0  0
 75153  1  0  0  0
 76154  1  0  0  0
 76155  1  0  0  0
 76156  1  0  0  0
 76 86  1  0  0  0
 77157  1  0  0  0
 77158  1  0  0  0
 77159  1  0  0  0
 77 90  1  0  0  0
 78 80  1  0  0  0
 78160  1  0  0  0
 78161  1  0  0  0
 79162  1  0  0  0
 79163  1  0  0  0
 80 81  1  0  0  0
 80164  1  0  0  0
 80165  1  0  0  0
 81 82  1  0  0  0
 81166  1  0  0  0
 81167  1  0  0  0
 82 90  1  0  0  0
 82168  1  0  0  0
 82169  1  0  0  0
 83 85  1  0  0  0
 83 90  1  0  0  0
 83170  1  0  0  0
 83171  1  0  0  0
 84 86  1  0  0  0
 84 89  1  0  0  0
 84172  1  0  0  0
 84173  1  0  0  0
 85174  1  0  0  0
 85175  1  0  0  0
 89176  1  0  0  0
 89177  1  0  0  0
 89178  1  0  0  0
 90179  1  0  0  0
M  CHG  2  89   1  90   1
M  ISO  4   1 100  68 101  85 101  86 100
M  END
> <chiral flag>
0

> <version>
0

> <s_m_source_file>
/data/baiqing/PycharmProjects/Reinvent-master-3.2/result/LINK_invent/BTK/process_docking_weight1_custom_sum_contain_oxygen_bond_distance_aromatic_linkinvent_7_9_3/rearranged_h_0063.sdf

> <i_m_source_file_index>
68

> <r_mmod_Potential_Energy-OPLS-2005>
-576.871643066406

> <r_mmod_Stretch_Energy-OPLS-2005>
43.0446701049805

> <r_mmod_Bend_Energy-OPLS-2005>
113.921714782715

> <r_mmod_Torsional_Energy-OPLS-2005>
253.31526184082

> <r_mmod_Improper_Torsional_Energy-OPLS-2005>
6.19992589950562

> <r_mmod_Van_der_Waal_Energy-OPLS-2005>
177.345062255859

> <r_mmod_Electrostatic_Energy-OPLS-2005>
-370.75341796875

> <r_mmod_Solvation_Energy-OPLS-2005>
-810.532104492188

> <b_mmod_Minimization_Converged-OPLS-2005>
0

> <r_mmod_RMS_Derivative-OPLS-2005>
2.31475925445557

$$$$
71
                    3D
 Structure written by MMmdl.
163171  0  0  1  0            999 V2000
  -30.6870  -14.6285   20.5146 C   0  0  0  0  0  0
  -30.4105  -12.3932   19.4607 C   0  0  0  0  0  0
  -29.4975  -12.5007   18.2221 C   0  0  0  0  0  0
  -28.0201  -12.3427   18.6293 C   0  0  0  0  0  0
  -27.6423  -13.2211   19.8522 C   0  0  2  0  0  0
  -28.6814  -13.0926   20.9829 C   0  0  0  0  0  0
  -25.2527  -13.8182   20.5674 C   0  0  0  0  0  0
  -24.1806  -13.0443   20.9175 C   0  0  0  0  0  0
  -24.6378  -11.6913   20.8723 C   0  0  0  0  0  0
  -23.9061  -10.4293   21.0390 C   0  0  0  0  0  0
  -24.3615   -9.4211   21.9168 C   0  0  0  0  0  0
  -23.6294   -8.2244   22.0753 C   0  0  0  0  0  0
  -22.4278   -8.0278   21.3545 C   0  0  0  0  0  0
  -21.9897   -9.0250   20.4650 C   0  0  0  0  0  0
  -22.7226  -10.2131   20.3054 C   0  0  0  0  0  0
  -21.6860   -6.0725   22.5277 C   0  0  0  0  0  0
  -21.4015   -6.5636   23.8210 C   0  0  0  0  0  0
  -21.3667   -5.6790   24.9175 C   0  0  0  0  0  0
  -21.6048   -4.3050   24.7225 C   0  0  0  0  0  0
  -21.8823   -3.8138   23.4350 C   0  0  0  0  0  0
  -21.9194   -4.6951   22.3401 C   0  0  0  0  0  0
  -22.7840  -13.5240   21.1848 C   0  0  0  0  0  0
  -22.1664   -4.2135   21.0976 F   0  0  0  0  0  0
  -21.5634   -3.4542   25.7738 F   0  0  0  0  0  0
  -29.9884  -13.4469   20.4135 N   0  0  0  0  0  0
  -26.2935  -12.9369   20.3267 N   0  0  0  0  0  0
  -25.9301  -11.6524   20.5724 N   0  0  0  0  0  0
  -22.0496  -12.8231   22.0414 N   0  0  0  0  0  0
  -25.4257  -15.1901   20.4104 N   0  0  0  0  0  0
  -31.8675  -14.6305   20.1639 O   0  0  0  0  0  0
  -21.6652   -6.8870   21.4240 O   0  0  0  0  0  0
  -22.3520  -14.5552   20.6705 O   0  0  0  0  0  0
  -24.6243  -31.8616   23.2029 C   0  0  0  0  0  0
  -25.9097  -32.4781   23.8350 C   0  0  1  0  0  0
  -27.2185  -27.3447   20.1056 C   0  0  0  0  0  0
  -25.5940  -33.8584   24.2290 N   0  0  0  0  0  0
  -23.4138  -30.4863   21.5447 C   0  0  2  0  0  0
  -24.8544  -28.9399   20.1111 C   0  0  0  0  0  0
  -22.7452  -29.4636   22.4940 C   0  0  0  0  0  0
  -18.0283  -28.1381   22.8476 C   0  0  0  0  0  0
  -24.1491  -36.7295   23.2648 C   0  0  0  0  0  0
  -25.9500  -30.8004   21.3645 C   0  0  0  0  0  0
  -26.0209  -29.4288   20.7105 C   0  0  0  0  0  0
  -27.2015  -28.6394   20.7025 C   0  0  0  0  0  0
  -26.0235  -26.8860   19.5072 C   0  0  0  0  0  0
  -24.8540  -27.6715   19.5076 C   0  0  0  0  0  0
  -23.6241  -29.8206   20.1599 C   0  0  0  0  0  0
  -25.4118  -36.3095   24.0337 C   0  0  1  0  0  0
  -20.5885  -28.3675   23.1289 C   0  0  2  0  0  0
  -20.6771  -26.9395   22.5422 C   0  0  0  0  0  0
  -19.5751  -26.6378   21.5212 C   0  0  0  0  0  0
  -18.1920  -26.7935   22.1602 C   0  0  0  0  0  0
  -19.1538  -28.8842   23.2879 C   0  0  0  0  0  0
  -18.9468  -30.1449   23.8881 C   0  0  0  0  0  0
  -17.6470  -30.6578   24.0562 C   0  0  0  0  0  0
  -25.9048  -34.9461   23.5109 C   0  0  0  0  0  0
  -16.5353  -29.9081   23.6338 C   0  0  0  0  0  0
  -16.7275  -28.6508   23.0334 C   0  0  0  0  0  0
  -26.4510  -31.6595   25.0714 C   0  0  0  0  0  0
  -25.3777  -31.3728   26.1466 C   0  0  0  0  0  0
  -27.0371  -30.3048   24.6125 C   0  0  0  0  0  0
  -27.6071  -32.4351   25.7465 C   0  0  0  0  0  0
  -27.5580  -37.1791   24.8474 C   0  0  0  0  0  0
  -21.4176  -29.3039   22.3683 N   0  0  0  0  0  0
  -26.4298  -37.3782   23.9415 N   0  0  0  0  0  0
  -24.6813  -31.0668   22.0943 N   0  0  0  0  0  0
  -23.4209  -28.8175   23.2982 O   0  0  0  0  0  0
  -28.3741  -26.5646   20.1573 O   0  0  0  0  0  0
  -26.5609  -34.8930   22.4667 O   0  0  0  0  0  0
  -23.5419  -32.1388   23.7390 O   0  0  0  0  0  0
  -28.6423  -20.2740   18.8440 C   0  0  0  0  0  0
  -29.0366  -21.1948   19.8367 C   0  0  0  0  0  0
  -29.5481  -20.5660   20.9977 C   0  0  0  0  0  0
  -29.4863  -18.4390   20.0065 C   0  0  0  0  0  0
  -30.0067  -21.3576   22.2045 C   0  0  0  0  0  0
  -31.8010  -17.5384   19.9937 C   0  0  0  0  0  0
  -30.2024  -16.6481   18.3185 C   0  0  0  0  0  0
  -29.3299  -16.0915   21.9265 C   0  0  0  0  0  0
  -29.1351  -22.7254   19.4769 C   0  0  0  0  0  0
  -28.4063  -23.9128   20.2349 C   0  0  0  0  0  0
  -28.5066  -25.2900   19.4481 C   0  0  0  0  0  0
  -30.3208  -17.0875   19.8103 C   0  0  0  0  0  0
  -28.8665  -18.9420   18.9339 N   0  0  0  0  0  0
  -29.7585  -19.2189   21.0638 N   0  0  0  0  0  0
  -30.0038  -15.8338   20.6475 N   0  0  0  0  0  0
  -31.4553  -12.4781   19.1571 H   0  0  0  0  0  0
  -30.3204  -11.4056   19.9188 H   0  0  0  0  0  0
  -29.7639  -11.7377   17.4897 H   0  0  0  0  0  0
  -29.6464  -13.4633   17.7321 H   0  0  0  0  0  0
  -27.8580  -11.2905   18.8657 H   0  0  0  0  0  0
  -27.3680  -12.5666   17.7847 H   0  0  0  0  0  0
  -27.6583  -14.2565   19.5089 H   0  0  0  0  0  0
  -28.7017  -12.0715   21.3679 H   0  0  0  0  0  0
  -28.3982  -13.7083   21.8318 H   0  0  0  0  0  0
  -25.2765   -9.5694   22.4747 H   0  0  0  0  0  0
  -24.0008   -7.4639   22.7479 H   0  0  0  0  0  0
  -21.0824   -8.8770   19.8966 H   0  0  0  0  0  0
  -22.3671  -10.9670   19.6175 H   0  0  0  0  0  0
  -21.2009   -7.6146   23.9709 H   0  0  0  0  0  0
  -21.1491   -6.0520   25.9074 H   0  0  0  0  0  0
  -22.0593   -2.7599   23.2857 H   0  0  0  0  0  0
  -22.4135  -11.9896   22.4783 H   0  0  0  0  0  0
  -21.1131  -13.1271   22.2665 H   0  0  0  0  0  0
  -24.6594  -15.8455   20.5227 H   0  0  0  0  0  0
  -26.2815  -15.6284   20.0970 H   0  0  0  0  0  0
  -26.7139  -32.5458   23.1078 H   0  0  0  0  0  0
  -25.0164  -33.9735   25.0480 H   0  0  0  0  0  0
  -22.7062  -31.3067   21.4048 H   0  0  0  0  0  0
  -23.3763  -35.9616   23.3326 H   0  0  0  0  0  0
  -24.3590  -36.8901   22.2062 H   0  0  0  0  0  0
  -23.7234  -37.6499   23.6648 H   0  0  0  0  0  0
  -26.0777  -31.5638   20.5951 H   0  0  0  0  0  0
  -26.8332  -30.8504   21.9897 H   0  0  0  0  0  0
  -28.1010  -29.0124   21.1727 H   0  0  0  0  0  0
  -25.9527  -25.9062   19.0599 H   0  0  0  0  0  0
  -23.9523  -27.2834   19.0543 H   0  0  0  0  0  0
  -23.7445  -30.5977   19.4045 H   0  0  0  0  0  0
  -22.7422  -29.2541   19.8582 H   0  0  0  0  0  0
  -25.1289  -36.1942   25.0829 H   0  0  0  0  0  0
  -20.9965  -28.3247   24.1412 H   0  0  0  0  0  0
  -20.5657  -26.2275   23.3617 H   0  0  0  0  0  0
  -21.6635  -26.7405   22.1208 H   0  0  0  0  0  0
  -19.6913  -25.6292   21.1236 H   0  0  0  0  0  0
  -19.6710  -27.3189   20.6747 H   0  0  0  0  0  0
  -17.4200  -26.6704   21.3997 H   0  0  0  0  0  0
  -18.0279  -26.0072   22.8987 H   0  0  0  0  0  0
  -19.7949  -30.7269   24.2225 H   0  0  0  0  0  0
  -17.5029  -31.6251   24.5179 H   0  0  0  0  0  0
  -15.5356  -30.2969   23.7684 H   0  0  0  0  0  0
  -15.8678  -28.0841   22.7028 H   0  0  0  0  0  0
  -24.5924  -30.7104   25.7821 H   0  0  0  0  0  0
  -24.9009  -32.2903   26.4937 H   0  0  0  0  0  0
  -25.8135  -30.8889   27.0220 H   0  0  0  0  0  0
  -26.2933  -29.6749   24.1237 H   0  0  0  0  0  0
  -27.4232  -29.7340   25.4581 H   0  0  0  0  0  0
  -27.8713  -30.4398   23.9233 H   0  0  0  0  0  0
  -27.2674  -33.3640   26.2064 H   0  0  0  0  0  0
  -28.3842  -32.6949   25.0265 H   0  0  0  0  0  0
  -28.0776  -31.8488   26.5361 H   0  0  0  0  0  0
  -28.2610  -38.0077   24.7507 H   0  0  0  0  0  0
  -28.1057  -36.2610   24.6299 H   0  0  0  0  0  0
  -27.2308  -37.1448   25.8883 H   0  0  0  0  0  0
  -20.9327  -29.8784   21.6933 H   0  0  0  0  0  0
  -26.0188  -38.2864   24.1418 H   0  0  0  0  0  0
  -28.2586  -20.6206   17.8953 H   0  0  0  0  0  0
  -29.2959  -22.1467   22.4429 H   0  0  0  0  0  0
  -30.9796  -21.8103   22.0165 H   0  0  0  0  0  0
  -30.0920  -20.7149   23.0820 H   0  0  0  0  0  0
  -31.9955  -18.4563   19.4363 H   0  0  0  0  0  0
  -32.5404  -16.8290   19.6336 H   0  0  0  0  0  0
  -32.0224  -17.7467   21.0412 H   0  0  0  0  0  0
  -30.5046  -17.4447   17.6379 H   0  0  0  0  0  0
  -29.1751  -16.3788   18.0719 H   0  0  0  0  0  0
  -30.8313  -15.7964   18.0607 H   0  0  0  0  0  0
  -28.2475  -16.1006   21.7939 H   0  0  0  0  0  0
  -29.6268  -17.0412   22.3641 H   0  0  0  0  0  0
  -29.5752  -15.3496   22.6893 H   0  0  0  0  0  0
  -28.8403  -22.8077   18.4293 H   0  0  0  0  0  0
  -30.2017  -22.9560   19.4689 H   0  0  0  0  0  0
  -28.8523  -24.0426   21.2204 H   0  0  0  0  0  0
  -27.3544  -23.6779   20.3995 H   0  0  0  0  0  0
  -27.8869  -25.2559   18.5518 H   0  0  0  0  0  0
  -29.5173  -25.3367   19.0421 H   0  0  0  0  0  0
  1 25  1  0  0  0
  1 30  2  0  0  0
  1 85  1  0  0  0
  2  3  1  0  0  0
  2 25  1  0  0  0
  2 86  1  0  0  0
  2 87  1  0  0  0
  3  4  1  0  0  0
  3 88  1  0  0  0
  3 89  1  0  0  0
  4  5  1  0  0  0
  4 90  1  0  0  0
  4 91  1  0  0  0
  5  6  1  0  0  0
  5 26  1  0  0  0
  5 92  1  0  0  0
  6 25  1  0  0  0
  6 93  1  0  0  0
  6 94  1  0  0  0
  7  8  2  0  0  0
  7 26  1  0  0  0
  7 29  1  0  0  0
  8  9  1  0  0  0
  8 22  1  0  0  0
  9 10  1  0  0  0
  9 27  2  0  0  0
 10 11  2  0  0  0
 10 15  1  0  0  0
 11 12  1  0  0  0
 11 95  1  0  0  0
 12 13  2  0  0  0
 12 96  1  0  0  0
 13 14  1  0  0  0
 13 31  1  0  0  0
 14 15  2  0  0  0
 14 97  1  0  0  0
 15 98  1  0  0  0
 16 17  2  0  0  0
 16 21  1  0  0  0
 16 31  1  0  0  0
 17 18  1  0  0  0
 17 99  1  0  0  0
 18 19  2  0  0  0
 18100  1  0  0  0
 19 20  1  0  0  0
 19 24  1  0  0  0
 20 21  2  0  0  0
 20101  1  0  0  0
 21 23  1  0  0  0
 22 28  1  0  0  0
 22 32  2  0  0  0
 26 27  1  0  0  0
 28102  1  0  0  0
 28103  1  0  0  0
 29104  1  0  0  0
 29105  1  0  0  0
 33 34  1  0  0  0
 33 66  1  0  0  0
 33 70  2  0  0  0
 34 36  1  0  0  0
 34 59  1  0  0  0
 34106  1  0  0  0
 35 44  2  0  0  0
 35 45  1  0  0  0
 35 68  1  0  0  0
 36 56  1  0  0  0
 36107  1  0  0  0
 37 39  1  0  0  0
 37 47  1  0  0  0
 37 66  1  0  0  0
 37108  1  0  0  0
 38 43  2  0  0  0
 38 46  1  0  0  0
 38 47  1  0  0  0
 39 64  1  0  0  0
 39 67  2  0  0  0
 40 52  1  0  0  0
 40 53  2  0  0  0
 40 58  1  0  0  0
 41109  1  0  0  0
 41110  1  0  0  0
 41111  1  0  0  0
 41 48  1  0  0  0
 42 43  1  0  0  0
 42 66  1  0  0  0
 42112  1  0  0  0
 42113  1  0  0  0
 43 44  1  0  0  0
 44114  1  0  0  0
 45 46  2  0  0  0
 45115  1  0  0  0
 46116  1  0  0  0
 47117  1  0  0  0
 47118  1  0  0  0
 48 56  1  0  0  0
 48 65  1  0  0  0
 48119  1  0  0  0
 49 50  1  0  0  0
 49 53  1  0  0  0
 49 64  1  0  0  0
 49120  1  0  0  0
 50 51  1  0  0  0
 50121  1  0  0  0
 50122  1  0  0  0
 51 52  1  0  0  0
 51123  1  0  0  0
 51124  1  0  0  0
 52125  1  0  0  0
 52126  1  0  0  0
 53 54  1  0  0  0
 54 55  2  0  0  0
 54127  1  0  0  0
 55 57  1  0  0  0
 55128  1  0  0  0
 56 69  2  0  0  0
 57 58  2  0  0  0
 57129  1  0  0  0
 58130  1  0  0  0
 59 60  1  0  0  0
 59 61  1  0  0  0
 59 62  1  0  0  0
 60131  1  0  0  0
 60132  1  0  0  0
 60133  1  0  0  0
 61134  1  0  0  0
 61135  1  0  0  0
 61136  1  0  0  0
 62137  1  0  0  0
 62138  1  0  0  0
 62139  1  0  0  0
 63 65  1  0  0  0
 63140  1  0  0  0
 63141  1  0  0  0
 63142  1  0  0  0
 64143  1  0  0  0
 65144  1  0  0  0
 68 81  1  0  0  0
 71 72  2  0  0  0
 71 83  1  0  0  0
 71145  1  0  0  0
 72 73  1  0  0  0
 72 79  1  0  0  0
 73 75  1  0  0  0
 73 84  2  0  0  0
 74 82  1  0  0  0
 74 83  2  0  0  0
 74 84  1  0  0  0
 75146  1  0  0  0
 75147  1  0  0  0
 75148  1  0  0  0
 76149  1  0  0  0
 76150  1  0  0  0
 76151  1  0  0  0
 76 82  1  0  0  0
 77 82  1  0  0  0
 77152  1  0  0  0
 77153  1  0  0  0
 77154  1  0  0  0
 78 85  1  0  0  0
 78155  1  0  0  0
 78156  1  0  0  0
 78157  1  0  0  0
 79 80  1  0  0  0
 79158  1  0  0  0
 79159  1  0  0  0
 80 81  1  0  0  0
 80160  1  0  0  0
 80161  1  0  0  0
 81162  1  0  0  0
 81163  1  0  0  0
 82 85  1  0  0  0
M  ISO  4   1 100  68 101  81 101  85 100
M  END
> <chiral flag>
0

> <version>
0

> <s_m_source_file>
/data/baiqing/PycharmProjects/Reinvent-master-3.2/result/LINK_invent/BTK/process_docking_weight1_custom_sum_contain_oxygen_bond_distance_aromatic_linkinvent_7_9_3/rearranged_h_0063.sdf

> <i_m_source_file_index>
69

> <r_mmod_Potential_Energy-OPLS-2005>
-168.390411376953

> <r_mmod_Stretch_Energy-OPLS-2005>
88.3850936889648

> <r_mmod_Bend_Energy-OPLS-2005>
183.37336730957

> <r_mmod_Torsional_Energy-OPLS-2005>
287.671966552734

> <r_mmod_Improper_Torsional_Energy-OPLS-2005>
17.3284950256348

> <r_mmod_Van_der_Waal_Energy-OPLS-2005>
176.746398925781

> <r_mmod_Electrostatic_Energy-OPLS-2005>
-762.788940429688

> <r_mmod_Solvation_Energy-OPLS-2005>
-201.212173461914

> <b_mmod_Minimization_Converged-OPLS-2005>
0

> <r_mmod_RMS_Derivative-OPLS-2005>
2.0529842376709

$$$$
72
                    3D
 Structure written by MMmdl.
169177  0  0  1  0            999 V2000
  -30.7136  -14.5181   20.5682 C   0  0  0  0  0  0
  -30.4146  -12.3391   19.4378 C   0  0  0  0  0  0
  -29.4934  -12.5057   18.2118 C   0  0  0  0  0  0
  -28.0152  -12.3600   18.6217 C   0  0  0  0  0  0
  -27.6524  -13.2148   19.8650 C   0  0  2  0  0  0
  -28.6916  -13.0335   20.9902 C   0  0  0  0  0  0
  -25.2556  -13.8177   20.5694 C   0  0  0  0  0  0
  -24.1828  -13.0447   20.9205 C   0  0  0  0  0  0
  -24.6384  -11.6915   20.8749 C   0  0  0  0  0  0
  -23.9054  -10.4298   21.0414 C   0  0  0  0  0  0
  -24.3611   -9.4210   21.9186 C   0  0  0  0  0  0
  -23.6288   -8.2244   22.0754 C   0  0  0  0  0  0
  -22.4269   -8.0282   21.3546 C   0  0  0  0  0  0
  -21.9907   -9.0254   20.4646 C   0  0  0  0  0  0
  -22.7232  -10.2136   20.3058 C   0  0  0  0  0  0
  -21.6852   -6.0736   22.5280 C   0  0  0  0  0  0
  -21.4012   -6.5640   23.8214 C   0  0  0  0  0  0
  -21.3662   -5.6792   24.9177 C   0  0  0  0  0  0
  -21.6042   -4.3054   24.7226 C   0  0  0  0  0  0
  -21.8818   -3.8148   23.4348 C   0  0  0  0  0  0
  -21.9199   -4.6965   22.3404 C   0  0  0  0  0  0
  -22.7854  -13.5242   21.1867 C   0  0  0  0  0  0
  -22.1668   -4.2149   21.0981 F   0  0  0  0  0  0
  -21.5626   -3.4537   25.7737 F   0  0  0  0  0  0
  -30.0154  -13.3513   20.4343 N   0  0  0  0  0  0
  -26.2976  -12.9356   20.3321 N   0  0  0  0  0  0
  -25.9308  -11.6510   20.5756 N   0  0  0  0  0  0
  -22.0500  -12.8226   22.0414 N   0  0  0  0  0  0
  -25.4280  -15.1892   20.4084 N   0  0  0  0  0  0
  -31.8543  -14.6378   20.1101 O   0  0  0  0  0  0
  -21.6638   -6.8879   21.4242 O   0  0  0  0  0  0
  -22.3546  -14.5555   20.6720 O   0  0  0  0  0  0
  -24.6183  -31.8651   23.2069 C   0  0  0  0  0  0
  -25.9064  -32.4804   23.8376 C   0  0  1  0  0  0
  -27.2323  -27.3973   20.0868 C   0  0  0  0  0  0
  -25.5908  -33.8605   24.2305 N   0  0  0  0  0  0
  -23.4069  -30.4890   21.5486 C   0  0  2  0  0  0
  -24.8500  -28.9476   20.1155 C   0  0  0  0  0  0
  -22.7421  -29.4654   22.4978 C   0  0  0  0  0  0
  -18.0272  -28.1382   22.8490 C   0  0  0  0  0  0
  -24.1487  -36.7309   23.2640 C   0  0  0  0  0  0
  -25.9398  -30.8175   21.3650 C   0  0  0  0  0  0
  -26.0131  -29.4490   20.7107 C   0  0  0  0  0  0
  -27.2031  -28.6801   20.6939 C   0  0  0  0  0  0
  -26.0384  -26.9114   19.5043 C   0  0  0  0  0  0
  -24.8584  -27.6789   19.5131 C   0  0  0  0  0  0
  -23.6163  -29.8209   20.1639 C   0  0  0  0  0  0
  -25.4111  -36.3101   24.0334 C   0  0  1  0  0  0
  -20.5865  -28.3674   23.1314 C   0  0  2  0  0  0
  -20.6763  -26.9408   22.5419 C   0  0  0  0  0  0
  -19.5746  -26.6389   21.5211 C   0  0  0  0  0  0
  -18.1923  -26.7928   22.1620 C   0  0  0  0  0  0
  -19.1522  -28.8844   23.2899 C   0  0  0  0  0  0
  -18.9450  -30.1449   23.8910 C   0  0  0  0  0  0
  -17.6455  -30.6588   24.0568 C   0  0  0  0  0  0
  -25.9043  -34.9469   23.5118 C   0  0  0  0  0  0
  -16.5343  -29.9094   23.6326 C   0  0  0  0  0  0
  -16.7261  -28.6509   23.0347 C   0  0  0  0  0  0
  -26.4477  -31.6595   25.0719 C   0  0  0  0  0  0
  -25.3733  -31.3705   26.1460 C   0  0  0  0  0  0
  -27.0317  -30.3034   24.6123 C   0  0  0  0  0  0
  -27.6048  -32.4316   25.7486 C   0  0  0  0  0  0
  -27.5581  -37.1809   24.8464 C   0  0  0  0  0  0
  -21.4144  -29.3037   22.3714 N   0  0  0  0  0  0
  -26.4294  -37.3790   23.9408 N   0  0  0  0  0  0
  -24.6736  -31.0727   22.0981 N   0  0  0  0  0  0
  -23.4179  -28.8199   23.3037 O   0  0  0  0  0  0
  -28.4153  -26.6704   20.1044 O   0  0  0  0  0  0
  -26.5607  -34.8925   22.4680 O   0  0  0  0  0  0
  -23.5365  -32.1419   23.7445 O   0  0  0  0  0  0
  -30.7742  -18.3686   18.7746 C   0  0  0  0  0  0
  -29.6368  -18.9048   19.3467 C   0  0  0  0  0  0
  -30.0918  -16.8804   20.2620 C   0  0  0  0  0  0
  -30.2739  -21.4278   20.7659 C   0  0  0  0  0  0
  -29.5545  -20.6474   17.5713 C   0  0  0  0  0  0
  -27.4366  -19.8836   18.5572 C   0  0  0  0  0  0
  -28.1863  -18.0866   21.3085 C   0  0  0  0  0  0
  -29.8613  -15.7052   22.4737 C   0  0  0  0  0  0
  -28.4941  -24.1135   20.1592 C   0  0  0  0  0  0
  -28.7558  -22.8516   19.2720 C   0  0  0  0  0  0
  -28.5677  -25.4466   19.3454 C   0  0  0  0  0  0
  -28.9736  -21.4328   19.9374 C   0  0  1  0  0  0
  -28.9063  -20.2087   18.9146 C   0  0  0  0  0  0
  -29.2799  -17.9737   20.3359 N   0  0  0  0  0  0
  -31.0072  -17.1474   19.3319 N   0  3  0  0  0  0
  -30.0558  -15.6285   21.0194 N   0  0  0  0  0  0
  -31.4599  -12.4284   19.1364 H   0  0  0  0  0  0
  -30.3164  -11.3375   19.8596 H   0  0  0  0  0  0
  -29.7425  -11.7673   17.4484 H   0  0  0  0  0  0
  -29.6556  -13.4840   17.7571 H   0  0  0  0  0  0
  -27.8357  -11.3054   18.8330 H   0  0  0  0  0  0
  -27.3629  -12.6152   17.7857 H   0  0  0  0  0  0
  -27.6851  -14.2580   19.5512 H   0  0  0  0  0  0
  -28.6823  -12.0062   21.3579 H   0  0  0  0  0  0
  -28.4271  -13.6487   21.8468 H   0  0  0  0  0  0
  -25.2756   -9.5682   22.4759 H   0  0  0  0  0  0
  -24.0003   -7.4627   22.7465 H   0  0  0  0  0  0
  -21.0845   -8.8764   19.8945 H   0  0  0  0  0  0
  -22.3688  -10.9674   19.6162 H   0  0  0  0  0  0
  -21.2001   -7.6147   23.9715 H   0  0  0  0  0  0
  -21.1487   -6.0525   25.9080 H   0  0  0  0  0  0
  -22.0598   -2.7610   23.2845 H   0  0  0  0  0  0
  -22.4127  -11.9871   22.4766 H   0  0  0  0  0  0
  -21.1117  -13.1237   22.2635 H   0  0  0  0  0  0
  -24.6553  -15.8395   20.4989 H   0  0  0  0  0  0
  -26.2648  -15.6154   20.0356 H   0  0  0  0  0  0
  -26.7130  -32.5501   23.1134 H   0  0  0  0  0  0
  -25.0055  -33.9759   25.0447 H   0  0  0  0  0  0
  -22.6976  -31.3072   21.4081 H   0  0  0  0  0  0
  -23.3750  -35.9641   23.3301 H   0  0  0  0  0  0
  -24.3577  -36.8928   22.2054 H   0  0  0  0  0  0
  -23.7241  -37.6513   23.6658 H   0  0  0  0  0  0
  -26.0587  -31.5826   20.5965 H   0  0  0  0  0  0
  -26.8255  -30.8683   21.9870 H   0  0  0  0  0  0
  -28.1034  -29.0673   21.1507 H   0  0  0  0  0  0
  -25.9832  -25.9333   19.0520 H   0  0  0  0  0  0
  -23.9593  -27.2818   19.0625 H   0  0  0  0  0  0
  -23.7314  -30.5957   19.4051 H   0  0  0  0  0  0
  -22.7378  -29.2460   19.8657 H   0  0  0  0  0  0
  -25.1289  -36.1960   25.0828 H   0  0  0  0  0  0
  -20.9952  -28.3242   24.1437 H   0  0  0  0  0  0
  -20.5666  -26.2281   23.3605 H   0  0  0  0  0  0
  -21.6636  -26.7453   22.1215 H   0  0  0  0  0  0
  -19.6912  -25.6304   21.1236 H   0  0  0  0  0  0
  -19.6692  -27.3202   20.6744 H   0  0  0  0  0  0
  -17.4196  -26.6678   21.4020 H   0  0  0  0  0  0
  -18.0325  -26.0067   22.9012 H   0  0  0  0  0  0
  -19.7928  -30.7258   24.2288 H   0  0  0  0  0  0
  -17.5014  -31.6270   24.5172 H   0  0  0  0  0  0
  -15.5348  -30.3005   23.7646 H   0  0  0  0  0  0
  -15.8659  -28.0840   22.7053 H   0  0  0  0  0  0
  -24.5913  -30.7047   25.7795 H   0  0  0  0  0  0
  -24.8918  -32.2859   26.4906 H   0  0  0  0  0  0
  -25.8083  -30.8878   27.0220 H   0  0  0  0  0  0
  -26.2872  -29.6788   24.1170 H   0  0  0  0  0  0
  -27.4070  -29.7283   25.4599 H   0  0  0  0  0  0
  -27.8714  -30.4348   23.9292 H   0  0  0  0  0  0
  -27.2666  -33.3609   26.2086 H   0  0  0  0  0  0
  -28.3848  -32.6887   25.0306 H   0  0  0  0  0  0
  -28.0726  -31.8424   26.5384 H   0  0  0  0  0  0
  -28.2601  -38.0104   24.7510 H   0  0  0  0  0  0
  -28.1073  -36.2636   24.6293 H   0  0  0  0  0  0
  -27.2297  -37.1464   25.8866 H   0  0  0  0  0  0
  -20.9305  -29.8763   21.6938 H   0  0  0  0  0  0
  -26.0181  -38.2868   24.1407 H   0  0  0  0  0  0
  -31.4078  -18.7416   17.9824 H   0  0  0  0  0  0
  -30.2905  -22.2383   21.4933 H   0  0  0  0  0  0
  -31.1518  -21.5399   20.1291 H   0  0  0  0  0  0
  -30.3904  -20.5069   21.3364 H   0  0  0  0  0  0
  -29.5571  -19.8371   16.8409 H   0  0  0  0  0  0
  -30.5850  -20.9778   17.7067 H   0  0  0  0  0  0
  -29.0171  -21.4615   17.0859 H   0  0  0  0  0  0
  -27.3792  -19.0833   17.8184 H   0  0  0  0  0  0
  -26.9312  -20.7476   18.1260 H   0  0  0  0  0  0
  -26.8324  -19.5767   19.4058 H   0  0  0  0  0  0
  -27.7156  -19.0623   21.2465 H   0  0  0  0  0  0
  -28.5848  -18.0085   22.3172 H   0  0  0  0  0  0
  -27.4509  -17.3031   21.1276 H   0  0  0  0  0  0
  -28.8024  -15.7624   22.7255 H   0  0  0  0  0  0
  -30.3602  -16.5826   22.8868 H   0  0  0  0  0  0
  -30.2672  -14.8426   23.0080 H   0  0  0  0  0  0
  -29.2294  -24.1643   20.9607 H   0  0  0  0  0  0
  -27.5200  -24.0262   20.6408 H   0  0  0  0  0  0
  -29.6269  -23.0750   18.6548 H   0  0  0  0  0  0
  -27.9157  -22.7897   18.5806 H   0  0  0  0  0  0
  -27.9222  -25.4075   18.4694 H   0  0  0  0  0  0
  -29.5694  -25.5066   18.9191 H   0  0  0  0  0  0
  -28.1664  -21.2950   20.6576 H   0  0  0  0  0  0
  -31.7716  -16.5248   19.0898 H   0  0  0  0  0  0
  1 25  1  0  0  0
  1 30  2  0  0  0
  1 86  1  0  0  0
  2  3  1  0  0  0
  2 25  1  0  0  0
  2 87  1  0  0  0
  2 88  1  0  0  0
  3  4  1  0  0  0
  3 89  1  0  0  0
  3 90  1  0  0  0
  4  5  1  0  0  0
  4 91  1  0  0  0
  4 92  1  0  0  0
  5  6  1  0  0  0
  5 26  1  0  0  0
  5 93  1  0  0  0
  6 25  1  0  0  0
  6 94  1  0  0  0
  6 95  1  0  0  0
  7  8  2  0  0  0
  7 26  1  0  0  0
  7 29  1  0  0  0
  8  9  1  0  0  0
  8 22  1  0  0  0
  9 10  1  0  0  0
  9 27  2  0  0  0
 10 11  2  0  0  0
 10 15  1  0  0  0
 11 12  1  0  0  0
 11 96  1  0  0  0
 12 13  2  0  0  0
 12 97  1  0  0  0
 13 14  1  0  0  0
 13 31  1  0  0  0
 14 15  2  0  0  0
 14 98  1  0  0  0
 15 99  1  0  0  0
 16 17  2  0  0  0
 16 21  1  0  0  0
 16 31  1  0  0  0
 17 18  1  0  0  0
 17100  1  0  0  0
 18 19  2  0  0  0
 18101  1  0  0  0
 19 20  1  0  0  0
 19 24  1  0  0  0
 20 21  2  0  0  0
 20102  1  0  0  0
 21 23  1  0  0  0
 22 28  1  0  0  0
 22 32  2  0  0  0
 26 27  1  0  0  0
 28103  1  0  0  0
 28104  1  0  0  0
 29105  1  0  0  0
 29106  1  0  0  0
 33 34  1  0  0  0
 33 66  1  0  0  0
 33 70  2  0  0  0
 34 36  1  0  0  0
 34 59  1  0  0  0
 34107  1  0  0  0
 35 44  2  0  0  0
 35 45  1  0  0  0
 35 68  1  0  0  0
 36 56  1  0  0  0
 36108  1  0  0  0
 37 39  1  0  0  0
 37 47  1  0  0  0
 37 66  1  0  0  0
 37109  1  0  0  0
 38 43  2  0  0  0
 38 46  1  0  0  0
 38 47  1  0  0  0
 39 64  1  0  0  0
 39 67  2  0  0  0
 40 52  1  0  0  0
 40 53  2  0  0  0
 40 58  1  0  0  0
 41110  1  0  0  0
 41111  1  0  0  0
 41112  1  0  0  0
 41 48  1  0  0  0
 42 43  1  0  0  0
 42 66  1  0  0  0
 42113  1  0  0  0
 42114  1  0  0  0
 43 44  1  0  0  0
 44115  1  0  0  0
 45 46  2  0  0  0
 45116  1  0  0  0
 46117  1  0  0  0
 47118  1  0  0  0
 47119  1  0  0  0
 48 56  1  0  0  0
 48 65  1  0  0  0
 48120  1  0  0  0
 49 50  1  0  0  0
 49 53  1  0  0  0
 49 64  1  0  0  0
 49121  1  0  0  0
 50 51  1  0  0  0
 50122  1  0  0  0
 50123  1  0  0  0
 51 52  1  0  0  0
 51124  1  0  0  0
 51125  1  0  0  0
 52126  1  0  0  0
 52127  1  0  0  0
 53 54  1  0  0  0
 54 55  2  0  0  0
 54128  1  0  0  0
 55 57  1  0  0  0
 55129  1  0  0  0
 56 69  2  0  0  0
 57 58  2  0  0  0
 57130  1  0  0  0
 58131  1  0  0  0
 59 60  1  0  0  0
 59 61  1  0  0  0
 59 62  1  0  0  0
 60132  1  0  0  0
 60133  1  0  0  0
 60134  1  0  0  0
 61135  1  0  0  0
 61136  1  0  0  0
 61137  1  0  0  0
 62138  1  0  0  0
 62139  1  0  0  0
 62140  1  0  0  0
 63 65  1  0  0  0
 63141  1  0  0  0
 63142  1  0  0  0
 63143  1  0  0  0
 64144  1  0  0  0
 65145  1  0  0  0
 68 81  1  0  0  0
 71 72  2  0  0  0
 71 85  1  0  0  0
 71146  1  0  0  0
 72 83  1  0  0  0
 72 84  1  0  0  0
 73 84  1  0  0  0
 73 85  2  0  0  0
 73 86  1  0  0  0
 74147  1  0  0  0
 74148  1  0  0  0
 74149  1  0  0  0
 74 82  1  0  0  0
 75150  1  0  0  0
 75151  1  0  0  0
 75152  1  0  0  0
 75 83  1  0  0  0
 76 83  1  0  0  0
 76153  1  0  0  0
 76154  1  0  0  0
 76155  1  0  0  0
 77 84  1  0  0  0
 77156  1  0  0  0
 77157  1  0  0  0
 77158  1  0  0  0
 78 86  1  0  0  0
 78159  1  0  0  0
 78160  1  0  0  0
 78161  1  0  0  0
 79 80  1  0  0  0
 79 81  1  0  0  0
 79162  1  0  0  0
 79163  1  0  0  0
 80 82  1  0  0  0
 80164  1  0  0  0
 80165  1  0  0  0
 81166  1  0  0  0
 81167  1  0  0  0
 82 83  1  0  0  0
 82168  1  0  0  0
 85169  1  0  0  0
M  CHG  1  85   1
M  ISO  4   1 100  68 101  81 101  86 100
M  END
> <chiral flag>
0

> <version>
0

> <s_m_source_file>
/data/baiqing/PycharmProjects/Reinvent-master-3.2/result/LINK_invent/BTK/process_docking_weight1_custom_sum_contain_oxygen_bond_distance_aromatic_linkinvent_7_9_3/rearranged_h_0063.sdf

> <i_m_source_file_index>
70

> <r_mmod_Potential_Energy-OPLS-2005>
4.05010509490967

> <r_mmod_Stretch_Energy-OPLS-2005>
64.5264129638672

> <r_mmod_Bend_Energy-OPLS-2005>
154.636306762695

> <r_mmod_Torsional_Energy-OPLS-2005>
279.820892333984

> <r_mmod_Improper_Torsional_Energy-OPLS-2005>
6.68253040313721

> <r_mmod_Van_der_Waal_Energy-OPLS-2005>
152.245666503906

> <r_mmod_Electrostatic_Energy-OPLS-2005>
-300.393737792969

> <r_mmod_Solvation_Energy-OPLS-2005>
-372.911590576172

> <b_mmod_Minimization_Converged-OPLS-2005>
0

> <r_mmod_RMS_Derivative-OPLS-2005>
0.789852678775787

$$$$
73
                    3D
 Structure written by MMmdl.
155163  0  0  1  0            999 V2000
  -30.6343  -14.8094   20.4321 C   0  0  0  0  0  0
  -30.4169  -12.4915   19.5004 C   0  0  0  0  0  0
  -29.5120  -12.5064   18.2494 C   0  0  0  0  0  0
  -28.0390  -12.3243   18.6574 C   0  0  0  0  0  0
  -27.6284  -13.2505   19.8332 C   0  0  2  0  0  0
  -28.6665  -13.2603   20.9736 C   0  0  0  0  0  0
  -25.2451  -13.8237   20.5705 C   0  0  0  0  0  0
  -24.1766  -13.0453   20.9210 C   0  0  0  0  0  0
  -24.6385  -11.6939   20.8738 C   0  0  0  0  0  0
  -23.9075  -10.4303   21.0398 C   0  0  0  0  0  0
  -24.3624   -9.4222   21.9180 C   0  0  0  0  0  0
  -23.6297   -8.2256   22.0757 C   0  0  0  0  0  0
  -22.4279   -8.0288   21.3547 C   0  0  0  0  0  0
  -21.9911   -9.0262   20.4650 C   0  0  0  0  0  0
  -22.7241  -10.2140   20.3054 C   0  0  0  0  0  0
  -21.6858   -6.0737   22.5279 C   0  0  0  0  0  0
  -21.4022   -6.5640   23.8213 C   0  0  0  0  0  0
  -21.3659   -5.6791   24.9175 C   0  0  0  0  0  0
  -21.6041   -4.3055   24.7225 C   0  0  0  0  0  0
  -21.8818   -3.8146   23.4346 C   0  0  0  0  0  0
  -21.9195   -4.6963   22.3403 C   0  0  0  0  0  0
  -22.7788  -13.5221   21.1873 C   0  0  0  0  0  0
  -22.1663   -4.2150   21.0980 F   0  0  0  0  0  0
  -21.5625   -3.4536   25.7736 F   0  0  0  0  0  0
  -29.9676  -13.5961   20.3899 N   0  0  0  0  0  0
  -26.2873  -12.9480   20.3213 N   0  0  0  0  0  0
  -25.9317  -11.6605   20.5715 N   0  0  0  0  0  0
  -22.0440  -12.8213   22.0432 N   0  0  0  0  0  0
  -25.4126  -15.1966   20.4177 N   0  0  0  0  0  0
  -31.8363  -14.8054   20.1453 O   0  0  0  0  0  0
  -21.6646   -6.8880   21.4241 O   0  0  0  0  0  0
  -22.3470  -14.5527   20.6725 O   0  0  0  0  0  0
  -24.6367  -31.8512   23.1940 C   0  0  0  0  0  0
  -25.9172  -32.4730   23.8302 C   0  0  1  0  0  0
  -27.2099  -27.2090   20.1357 C   0  0  0  0  0  0
  -25.5943  -33.8532   24.2222 N   0  0  0  0  0  0
  -23.4353  -30.4741   21.5386 C   0  0  2  0  0  0
  -24.8810  -28.9148   20.1091 C   0  0  0  0  0  0
  -22.7529  -29.4591   22.4887 C   0  0  0  0  0  0
  -18.0298  -28.1398   22.8481 C   0  0  0  0  0  0
  -24.1490  -36.7274   23.2640 C   0  0  0  0  0  0
  -25.9862  -30.7486   21.3812 C   0  0  0  0  0  0
  -26.0568  -29.3675   20.7210 C   0  0  0  0  0  0
  -27.2250  -28.5292   20.7188 C   0  0  0  0  0  0
  -26.0089  -26.8404   19.4896 C   0  0  0  0  0  0
  -24.8657  -27.6623   19.4801 C   0  0  0  0  0  0
  -23.6556  -29.8085   20.1555 C   0  0  0  0  0  0
  -25.4118  -36.3051   24.0319 C   0  0  1  0  0  0
  -20.5906  -28.3717   23.1253 C   0  0  2  0  0  0
  -20.6788  -26.9430   22.5404 C   0  0  0  0  0  0
  -19.5761  -26.6389   21.5213 C   0  0  0  0  0  0
  -18.1941  -26.7937   22.1626 C   0  0  0  0  0  0
  -19.1553  -28.8874   23.2860 C   0  0  0  0  0  0
  -18.9471  -30.1470   23.8887 C   0  0  0  0  0  0
  -17.6469  -30.6595   24.0564 C   0  0  0  0  0  0
  -25.9065  -34.9426   23.5076 C   0  0  0  0  0  0
  -16.5360  -29.9092   23.6332 C   0  0  0  0  0  0
  -16.7283  -28.6510   23.0354 C   0  0  0  0  0  0
  -26.4515  -31.6573   25.0716 C   0  0  0  0  0  0
  -25.3714  -31.3752   26.1421 C   0  0  0  0  0  0
  -27.0373  -30.2976   24.6256 C   0  0  0  0  0  0
  -27.6048  -32.4334   25.7501 C   0  0  0  0  0  0
  -27.5578  -37.1791   24.8464 C   0  0  0  0  0  0
  -21.4230  -29.3055   22.3633 N   0  0  0  0  0  0
  -26.4288  -37.3756   23.9407 N   0  0  0  0  0  0
  -24.7055  -31.0437   22.0937 N   0  0  0  0  0  0
  -23.4207  -28.8135   23.3008 O   0  0  0  0  0  0
  -28.2798  -26.2689   20.2017 O   0  0  0  0  0  0
  -26.5645  -34.8913   22.4652 O   0  0  0  0  0  0
  -23.5505  -32.1356   23.7207 O   0  0  0  0  0  0
  -29.5300  -17.0288   19.4824 C   0  0  0  0  0  0
  -30.0136  -18.3481   21.7505 C   0  0  0  0  0  0
  -29.9911  -16.2489   20.5988 C   0  0  0  0  0  0
  -29.6550  -19.1494   20.6079 C   0  0  0  0  0  0
  -30.7583  -21.1754   21.7566 C   0  0  0  0  0  0
  -30.9217  -20.9089   19.3174 C   0  0  0  0  0  0
  -27.9955  -24.7684   20.0820 C   0  0  0  0  0  0
  -28.7723  -21.9394   20.3217 C   0  0  2  0  0  0
  -29.9426  -20.7676   20.5063 C   0  0  0  0  0  0
  -29.0889  -23.5826   20.4021 C   0  0  0  0  0  0
  -30.1915  -16.9739   21.7467 N   0  0  0  0  0  0
  -29.3607  -18.4126   19.4829 N   0  0  0  0  0  0
  -27.8149  -21.6904   21.2181 F   0  0  0  0  0  0
  -29.5228  -23.8522   21.6333 F   0  0  0  0  0  0
  -30.0837  -23.8358   19.5541 F   0  0  0  0  0  0
  -31.4624  -12.5857   19.2027 H   0  0  0  0  0  0
  -30.3439  -11.5333   20.0173 H   0  0  0  0  0  0
  -29.8090  -11.7175   17.5573 H   0  0  0  0  0  0
  -29.6348  -13.4487   17.7131 H   0  0  0  0  0  0
  -27.9065  -11.2808   18.9458 H   0  0  0  0  0  0
  -27.3846  -12.4870   17.8003 H   0  0  0  0  0  0
  -27.6013  -14.2581   19.4177 H   0  0  0  0  0  0
  -28.7069  -12.2932   21.4767 H   0  0  0  0  0  0
  -28.3905  -13.9950   21.7317 H   0  0  0  0  0  0
  -25.2768   -9.5703   22.4758 H   0  0  0  0  0  0
  -24.0007   -7.4650   22.7482 H   0  0  0  0  0  0
  -21.0840   -8.8780   19.8959 H   0  0  0  0  0  0
  -22.3694  -10.9678   19.6166 H   0  0  0  0  0  0
  -21.2020   -7.6149   23.9717 H   0  0  0  0  0  0
  -21.1479   -6.0522   25.9077 H   0  0  0  0  0  0
  -22.0596   -2.7609   23.2846 H   0  0  0  0  0  0
  -22.4060  -11.9880   22.4826 H   0  0  0  0  0  0
  -21.1060  -13.1245   22.2645 H   0  0  0  0  0  0
  -24.6455  -15.8483   20.5431 H   0  0  0  0  0  0
  -26.2679  -15.6460   20.1171 H   0  0  0  0  0  0
  -26.7239  -32.5359   23.1037 H   0  0  0  0  0  0
  -25.0064  -33.9657   25.0351 H   0  0  0  0  0  0
  -22.7340  -31.2980   21.3902 H   0  0  0  0  0  0
  -23.3752  -35.9607   23.3293 H   0  0  0  0  0  0
  -24.3575  -36.8912   22.2056 H   0  0  0  0  0  0
  -23.7248  -37.6471   23.6678 H   0  0  0  0  0  0
  -26.1337  -31.5084   20.6123 H   0  0  0  0  0  0
  -26.8603  -30.7950   22.0194 H   0  0  0  0  0  0
  -28.1233  -28.8696   21.2148 H   0  0  0  0  0  0
  -25.9156  -25.8845   18.9979 H   0  0  0  0  0  0
  -23.9664  -27.3118   18.9924 H   0  0  0  0  0  0
  -23.7857  -30.5845   19.4002 H   0  0  0  0  0  0
  -22.7719  -29.2467   19.8475 H   0  0  0  0  0  0
  -25.1303  -36.1886   25.0811 H   0  0  0  0  0  0
  -20.9996  -28.3304   24.1374 H   0  0  0  0  0  0
  -20.5693  -26.2330   23.3615 H   0  0  0  0  0  0
  -21.6655  -26.7455   22.1195 H   0  0  0  0  0  0
  -19.6925  -25.6295   21.1256 H   0  0  0  0  0  0
  -19.6696  -27.3188   20.6733 H   0  0  0  0  0  0
  -17.4209  -26.6677   21.4031 H   0  0  0  0  0  0
  -18.0347  -26.0085   22.9029 H   0  0  0  0  0  0
  -19.7945  -30.7290   24.2254 H   0  0  0  0  0  0
  -17.5022  -31.6272   24.5172 H   0  0  0  0  0  0
  -15.5361  -30.2994   23.7661 H   0  0  0  0  0  0
  -15.8681  -28.0826   22.7079 H   0  0  0  0  0  0
  -24.5887  -30.7105   25.7744 H   0  0  0  0  0  0
  -24.8909  -32.2935   26.4806 H   0  0  0  0  0  0
  -25.8005  -30.8948   27.0223 H   0  0  0  0  0  0
  -26.2978  -29.6707   24.1259 H   0  0  0  0  0  0
  -27.4002  -29.7260   25.4810 H   0  0  0  0  0  0
  -27.8877  -30.4223   23.9549 H   0  0  0  0  0  0
  -27.2633  -33.3639   26.2046 H   0  0  0  0  0  0
  -28.3875  -32.6891   25.0345 H   0  0  0  0  0  0
  -28.0699  -31.8485   26.5446 H   0  0  0  0  0  0
  -28.2586  -38.0096   24.7510 H   0  0  0  0  0  0
  -28.1083  -36.2626   24.6288 H   0  0  0  0  0  0
  -27.2296  -37.1436   25.8866 H   0  0  0  0  0  0
  -20.9427  -29.8766   21.6820 H   0  0  0  0  0  0
  -26.0160  -38.2828   24.1405 H   0  0  0  0  0  0
  -29.4000  -16.5504   18.5221 H   0  0  0  0  0  0
  -30.2840  -18.8143   22.6855 H   0  0  0  0  0  0
  -31.6240  -20.5295   21.9084 H   0  0  0  0  0  0
  -30.1485  -21.1436   22.6600 H   0  0  0  0  0  0
  -31.1662  -22.1809   21.6714 H   0  0  0  0  0  0
  -31.7514  -20.2057   19.4020 H   0  0  0  0  0  0
  -31.3653  -21.8992   19.2463 H   0  0  0  0  0  0
  -30.4225  -20.7055   18.3696 H   0  0  0  0  0  0
  -27.1263  -24.5636   20.7083 H   0  0  0  0  0  0
  -27.6684  -24.5934   19.0570 H   0  0  0  0  0  0
  -28.2923  -21.7557   19.3600 H   0  0  0  0  0  0
  1 25  1  0  0  0
  1 30  2  0  0  0
  1 73  1  0  0  0
  2  3  1  0  0  0
  2 25  1  0  0  0
  2 86  1  0  0  0
  2 87  1  0  0  0
  3  4  1  0  0  0
  3 88  1  0  0  0
  3 89  1  0  0  0
  4  5  1  0  0  0
  4 90  1  0  0  0
  4 91  1  0  0  0
  5  6  1  0  0  0
  5 26  1  0  0  0
  5 92  1  0  0  0
  6 25  1  0  0  0
  6 93  1  0  0  0
  6 94  1  0  0  0
  7  8  2  0  0  0
  7 26  1  0  0  0
  7 29  1  0  0  0
  8  9  1  0  0  0
  8 22  1  0  0  0
  9 10  1  0  0  0
  9 27  2  0  0  0
 10 11  2  0  0  0
 10 15  1  0  0  0
 11 12  1  0  0  0
 11 95  1  0  0  0
 12 13  2  0  0  0
 12 96  1  0  0  0
 13 14  1  0  0  0
 13 31  1  0  0  0
 14 15  2  0  0  0
 14 97  1  0  0  0
 15 98  1  0  0  0
 16 17  2  0  0  0
 16 21  1  0  0  0
 16 31  1  0  0  0
 17 18  1  0  0  0
 17 99  1  0  0  0
 18 19  2  0  0  0
 18100  1  0  0  0
 19 20  1  0  0  0
 19 24  1  0  0  0
 20 21  2  0  0  0
 20101  1  0  0  0
 21 23  1  0  0  0
 22 28  1  0  0  0
 22 32  2  0  0  0
 26 27  1  0  0  0
 28102  1  0  0  0
 28103  1  0  0  0
 29104  1  0  0  0
 29105  1  0  0  0
 33 34  1  0  0  0
 33 66  1  0  0  0
 33 70  2  0  0  0
 34 36  1  0  0  0
 34 59  1  0  0  0
 34106  1  0  0  0
 35 44  2  0  0  0
 35 45  1  0  0  0
 35 68  1  0  0  0
 36 56  1  0  0  0
 36107  1  0  0  0
 37 39  1  0  0  0
 37 47  1  0  0  0
 37 66  1  0  0  0
 37108  1  0  0  0
 38 43  2  0  0  0
 38 46  1  0  0  0
 38 47  1  0  0  0
 39 64  1  0  0  0
 39 67  2  0  0  0
 40 52  1  0  0  0
 40 53  2  0  0  0
 40 58  1  0  0  0
 41109  1  0  0  0
 41110  1  0  0  0
 41111  1  0  0  0
 41 48  1  0  0  0
 42 43  1  0  0  0
 42 66  1  0  0  0
 42112  1  0  0  0
 42113  1  0  0  0
 43 44  1  0  0  0
 44114  1  0  0  0
 45 46  2  0  0  0
 45115  1  0  0  0
 46116  1  0  0  0
 47117  1  0  0  0
 47118  1  0  0  0
 48 56  1  0  0  0
 48 65  1  0  0  0
 48119  1  0  0  0
 49 50  1  0  0  0
 49 53  1  0  0  0
 49 64  1  0  0  0
 49120  1  0  0  0
 50 51  1  0  0  0
 50121  1  0  0  0
 50122  1  0  0  0
 51 52  1  0  0  0
 51123  1  0  0  0
 51124  1  0  0  0
 52125  1  0  0  0
 52126  1  0  0  0
 53 54  1  0  0  0
 54 55  2  0  0  0
 54127  1  0  0  0
 55 57  1  0  0  0
 55128  1  0  0  0
 56 69  2  0  0  0
 57 58  2  0  0  0
 57129  1  0  0  0
 58130  1  0  0  0
 59 60  1  0  0  0
 59 61  1  0  0  0
 59 62  1  0  0  0
 60131  1  0  0  0
 60132  1  0  0  0
 60133  1  0  0  0
 61134  1  0  0  0
 61135  1  0  0  0
 61136  1  0  0  0
 62137  1  0  0  0
 62138  1  0  0  0
 62139  1  0  0  0
 63 65  1  0  0  0
 63140  1  0  0  0
 63141  1  0  0  0
 63142  1  0  0  0
 64143  1  0  0  0
 65144  1  0  0  0
 68 77  1  0  0  0
 71 73  2  0  0  0
 71 82  1  0  0  0
 71145  1  0  0  0
 72 74  1  0  0  0
 72 81  2  0  0  0
 72146  1  0  0  0
 73 81  1  0  0  0
 74 79  1  0  0  0
 74 82  2  0  0  0
 75147  1  0  0  0
 75148  1  0  0  0
 75149  1  0  0  0
 75 79  1  0  0  0
 76 79  1  0  0  0
 76150  1  0  0  0
 76151  1  0  0  0
 76152  1  0  0  0
 77 80  1  0  0  0
 77153  1  0  0  0
 77154  1  0  0  0
 78 79  1  0  0  0
 78 80  1  0  0  0
 78 83  1  0  0  0
 78155  1  0  0  0
 80 84  1  0  0  0
 80 85  1  0  0  0
M  ISO  4   1 100  68 101  73 100  77 101
M  END
> <chiral flag>
0

> <version>
0

> <s_m_source_file>
/data/baiqing/PycharmProjects/Reinvent-master-3.2/result/LINK_invent/BTK/process_docking_weight1_custom_sum_contain_oxygen_bond_distance_aromatic_linkinvent_7_9_3/rearranged_h_0063.sdf

> <i_m_source_file_index>
71

> <r_mmod_Potential_Energy-OPLS-2005>
571.103576660156

> <r_mmod_Stretch_Energy-OPLS-2005>
192.014587402344

> <r_mmod_Bend_Energy-OPLS-2005>
218.624359130859

> <r_mmod_Torsional_Energy-OPLS-2005>
228.038909912109

> <r_mmod_Improper_Torsional_Energy-OPLS-2005>
9.46518039703369

> <r_mmod_Van_der_Waal_Energy-OPLS-2005>
147.733520507812

> <r_mmod_Electrostatic_Energy-OPLS-2005>
-148.076080322266

> <r_mmod_Solvation_Energy-OPLS-2005>
-198.583999633789

> <b_mmod_Minimization_Converged-OPLS-2005>
0

> <r_mmod_RMS_Derivative-OPLS-2005>
0.543939054012299

$$$$
74
                    3D
 Structure written by MMmdl.
165174  0  0  1  0            999 V2000
  -30.6484  -14.4753   20.7278 C   0  0  0  0  0  0
  -30.4249  -12.3609   19.3954 C   0  0  0  0  0  0
  -29.4791  -12.5350   18.1856 C   0  0  0  0  0  0
  -28.0055  -12.3451   18.6026 C   0  0  0  0  0  0
  -27.6508  -13.1794   19.8639 C   0  0  2  0  0  0
  -28.6859  -12.8792   20.9673 C   0  0  0  0  0  0
  -25.2580  -13.8090   20.5578 C   0  0  0  0  0  0
  -24.1802  -13.0396   20.9144 C   0  0  0  0  0  0
  -24.6305  -11.6862   20.8724 C   0  0  0  0  0  0
  -23.8957  -10.4262   21.0439 C   0  0  0  0  0  0
  -24.3542   -9.4185   21.9185 C   0  0  0  0  0  0
  -23.6238   -8.2197   22.0753 C   0  0  0  0  0  0
  -22.4223   -8.0230   21.3562 C   0  0  0  0  0  0
  -21.9818   -9.0199   20.4685 C   0  0  0  0  0  0
  -22.7129  -10.2083   20.3077 C   0  0  0  0  0  0
  -21.6813   -6.0681   22.5273 C   0  0  0  0  0  0
  -21.3997   -6.5617   23.8201 C   0  0  0  0  0  0
  -21.3657   -5.6791   24.9177 C   0  0  0  0  0  0
  -21.6012   -4.3045   24.7254 C   0  0  0  0  0  0
  -21.8814   -3.8108   23.4385 C   0  0  0  0  0  0
  -21.9182   -4.6913   22.3432 C   0  0  0  0  0  0
  -22.7846  -13.5223   21.1825 C   0  0  0  0  0  0
  -22.1664   -4.2086   21.1017 F   0  0  0  0  0  0
  -21.5641   -3.4544   25.7779 F   0  0  0  0  0  0
  -30.0019  -13.2956   20.4600 N   0  0  0  0  0  0
  -26.2922  -12.9178   20.3237 N   0  0  0  0  0  0
  -25.9209  -11.6358   20.5704 N   0  0  0  0  0  0
  -22.0484  -12.8243   22.0435 N   0  0  0  0  0  0
  -25.4374  -15.1783   20.3967 N   0  0  0  0  0  0
  -31.7015  -14.7601   20.1395 O   0  0  0  0  0  0
  -21.6608   -6.8811   21.4230 O   0  0  0  0  0  0
  -22.3537  -14.5512   20.6655 O   0  0  0  0  0  0
  -24.6221  -31.8639   23.2064 C   0  0  0  0  0  0
  -25.9106  -32.4800   23.8359 C   0  0  1  0  0  0
  -27.2430  -27.3931   20.1067 C   0  0  0  0  0  0
  -25.5954  -33.8595   24.2321 N   0  0  0  0  0  0
  -23.4117  -30.4881   21.5445 C   0  0  2  0  0  0
  -24.8634  -28.9378   20.1243 C   0  0  0  0  0  0
  -22.7441  -29.4663   22.4939 C   0  0  0  0  0  0
  -18.0285  -28.1416   22.8484 C   0  0  0  0  0  0
  -24.1480  -36.7299   23.2636 C   0  0  0  0  0  0
  -25.9455  -30.8134   21.3685 C   0  0  0  0  0  0
  -26.0251  -29.4390   20.7270 C   0  0  0  0  0  0
  -27.2206  -28.6741   20.7142 C   0  0  0  0  0  0
  -26.0620  -26.9082   19.5099 C   0  0  0  0  0  0
  -24.8756  -27.6678   19.5172 C   0  0  0  0  0  0
  -23.6331  -29.8212   20.1600 C   0  0  0  0  0  0
  -25.4090  -36.3077   24.0344 C   0  0  1  0  0  0
  -20.5866  -28.3724   23.1274 C   0  0  2  0  0  0
  -20.6781  -26.9459   22.5399 C   0  0  0  0  0  0
  -19.5774  -26.6422   21.5189 C   0  0  0  0  0  0
  -18.1955  -26.7954   22.1603 C   0  0  0  0  0  0
  -19.1532  -28.8877   23.2892 C   0  0  0  0  0  0
  -18.9459  -30.1474   23.8918 C   0  0  0  0  0  0
  -17.6466  -30.6617   24.0581 C   0  0  0  0  0  0
  -25.9032  -34.9463   23.5115 C   0  0  0  0  0  0
  -16.5356  -29.9133   23.6336 C   0  0  0  0  0  0
  -16.7275  -28.6555   23.0346 C   0  0  0  0  0  0
  -26.4519  -31.6559   25.0689 C   0  0  0  0  0  0
  -25.3812  -31.3702   26.1463 C   0  0  0  0  0  0
  -27.0349  -30.2988   24.6073 C   0  0  0  0  0  0
  -27.6078  -32.4262   25.7493 C   0  0  0  0  0  0
  -27.5567  -37.1809   24.8475 C   0  0  0  0  0  0
  -21.4157  -29.3078   22.3668 N   0  0  0  0  0  0
  -26.4282  -37.3769   23.9413 N   0  0  0  0  0  0
  -24.6776  -31.0698   22.0982 N   0  0  0  0  0  0
  -23.4194  -28.8201   23.3009 O   0  0  0  0  0  0
  -28.3988  -26.6444   19.9613 O   0  0  0  0  0  0
  -26.5568  -34.8930   22.4664 O   0  0  0  0  0  0
  -23.5396  -32.1428   23.7401 O   0  0  0  0  0  0
  -27.1493  -22.4405   21.2994 C   0  0  0  0  0  0
  -27.3381  -23.8208   21.1240 C   0  0  0  0  0  0
  -29.5192  -22.1284   21.1245 C   0  0  0  0  0  0
  -28.8538  -17.6553   22.1001 C   0  0  0  0  0  0
  -28.2494  -21.5432   21.3418 C   0  0  0  0  0  0
  -28.6368  -24.3245   21.0023 C   0  0  0  0  0  0
  -29.0212  -18.9350   21.6293 C   0  0  0  0  0  0
  -26.1740  -19.4737   23.6349 C   0  0  0  0  0  0
  -30.9971  -15.2586   23.1197 C   0  0  0  0  0  0
  -26.8341  -19.5467   20.8049 C   0  0  0  0  0  0
  -28.8770  -25.8547   21.0712 C   0  0  0  0  0  0
  -27.5073  -20.1390   23.2573 C   0  0  0  0  0  0
  -30.1190  -15.4353   21.8653 C   0  0  1  0  0  0
  -27.9558  -20.0581   21.7514 C   0  0  2  0  0  0
  -29.7058  -23.4763   20.9687 N   0  0  0  0  0  0
  -30.1926  -18.9080   20.8596 N   0  0  0  0  0  0
  -30.7165  -17.6973   20.8724 N   0  0  0  0  0  0
  -29.8834  -16.8841   21.5782 N   0  0  0  0  0  0
  -31.4651  -12.5059   19.0998 H   0  0  0  0  0  0
  -30.3726  -11.3327   19.7642 H   0  0  0  0  0  0
  -29.7352  -11.8234   17.3991 H   0  0  0  0  0  0
  -29.6056  -13.5301   17.7556 H   0  0  0  0  0  0
  -27.8635  -11.2825   18.8140 H   0  0  0  0  0  0
  -27.3355  -12.5761   17.7714 H   0  0  0  0  0  0
  -27.7111  -14.2322   19.5913 H   0  0  0  0  0  0
  -28.6878  -11.8030   21.1401 H   0  0  0  0  0  0
  -28.3989  -13.2642   21.9414 H   0  0  0  0  0  0
  -25.2711   -9.5641   22.4725 H   0  0  0  0  0  0
  -23.9936   -7.4586   22.7461 H   0  0  0  0  0  0
  -21.0714   -8.8690   19.9056 H   0  0  0  0  0  0
  -22.3554  -10.9586   19.6163 H   0  0  0  0  0  0
  -21.1989   -7.6118   23.9695 H   0  0  0  0  0  0
  -21.1486   -6.0523   25.9079 H   0  0  0  0  0  0
  -22.0604   -2.7563   23.2898 H   0  0  0  0  0  0
  -22.4085  -11.9870   22.4768 H   0  0  0  0  0  0
  -21.1141  -13.1295   22.2745 H   0  0  0  0  0  0
  -24.6793  -15.8409   20.5030 H   0  0  0  0  0  0
  -26.2863  -15.6053   20.0428 H   0  0  0  0  0  0
  -26.7180  -32.5513   23.1120 H   0  0  0  0  0  0
  -25.0178  -33.9736   25.0509 H   0  0  0  0  0  0
  -22.7009  -31.3045   21.4005 H   0  0  0  0  0  0
  -23.3723  -35.9656   23.3328 H   0  0  0  0  0  0
  -24.3553  -36.8876   22.2038 H   0  0  0  0  0  0
  -23.7262  -37.6532   23.6624 H   0  0  0  0  0  0
  -26.0593  -31.5704   20.5893 H   0  0  0  0  0  0
  -26.8310  -30.8705   21.9890 H   0  0  0  0  0  0
  -28.1258  -29.0770   21.1440 H   0  0  0  0  0  0
  -26.0609  -25.9414   19.0261 H   0  0  0  0  0  0
  -23.9834  -27.2714   19.0514 H   0  0  0  0  0  0
  -23.7676  -30.6001   19.4079 H   0  0  0  0  0  0
  -22.7517  -29.2636   19.8431 H   0  0  0  0  0  0
  -25.1266  -36.1945   25.0842 H   0  0  0  0  0  0
  -20.9972  -28.3300   24.1384 H   0  0  0  0  0  0
  -20.5645  -26.2352   23.3588 H   0  0  0  0  0  0
  -21.6663  -26.7498   22.1219 H   0  0  0  0  0  0
  -19.6940  -25.6327   21.1237 H   0  0  0  0  0  0
  -19.6689  -27.3202   20.6682 H   0  0  0  0  0  0
  -17.4215  -26.6690   21.4022 H   0  0  0  0  0  0
  -18.0402  -26.0070   22.8968 H   0  0  0  0  0  0
  -19.7942  -30.7301   24.2272 H   0  0  0  0  0  0
  -17.5037  -31.6281   24.5219 H   0  0  0  0  0  0
  -15.5374  -30.3076   23.7634 H   0  0  0  0  0  0
  -15.8664  -28.0913   22.7021 H   0  0  0  0  0  0
  -24.5999  -30.7005   25.7860 H   0  0  0  0  0  0
  -24.9009  -32.2873   26.4881 H   0  0  0  0  0  0
  -25.8211  -30.8941   27.0232 H   0  0  0  0  0  0
  -26.2907  -29.6742   24.1121 H   0  0  0  0  0  0
  -27.4115  -29.7224   25.4530 H   0  0  0  0  0  0
  -27.8739  -30.4284   23.9238 H   0  0  0  0  0  0
  -27.2683  -33.3545   26.2097 H   0  0  0  0  0  0
  -28.3907  -32.6831   25.0353 H   0  0  0  0  0  0
  -28.0718  -31.8358   26.5404 H   0  0  0  0  0  0
  -28.2613  -38.0078   24.7453 H   0  0  0  0  0  0
  -28.1041  -36.2598   24.6380 H   0  0  0  0  0  0
  -27.2283  -37.1566   25.8886 H   0  0  0  0  0  0
  -20.9341  -29.8786   21.6849 H   0  0  0  0  0  0
  -26.0170  -38.2855   24.1396 H   0  0  0  0  0  0
  -26.1398  -22.0991   21.4828 H   0  0  0  0  0  0
  -26.4925  -24.4932   21.1687 H   0  0  0  0  0  0
  -30.4210  -21.5358   21.1297 H   0  0  0  0  0  0
  -28.0637  -17.2290   22.7046 H   0  0  0  0  0  0
  -25.9899  -19.5621   24.7053 H   0  0  0  0  0  0
  -26.1666  -18.4150   23.3855 H   0  0  0  0  0  0
  -25.3326  -19.9515   23.1297 H   0  0  0  0  0  0
  -30.9204  -16.1069   23.7990 H   0  0  0  0  0  0
  -32.0485  -15.1432   22.8603 H   0  0  0  0  0  0
  -30.7025  -14.3626   23.6750 H   0  0  0  0  0  0
  -27.1866  -19.5487   19.7734 H   0  0  0  0  0  0
  -25.9126  -20.1245   20.8282 H   0  0  0  0  0  0
  -26.5481  -18.5188   21.0336 H   0  0  0  0  0  0
  -29.9476  -26.0351   21.1504 H   0  0  0  0  0  0
  -28.4551  -26.2204   22.0058 H   0  0  0  0  0  0
  -28.3042  -19.7763   23.9077 H   0  0  0  0  0  0
  -27.3969  -21.1774   23.5760 H   0  0  0  0  0  0
  -29.1287  -15.1101   22.1607 H   0  0  0  0  0  0
  1 25  1  0  0  0
  1 30  2  0  0  0
  1 83  1  0  0  0
  2  3  1  0  0  0
  2 25  1  0  0  0
  2 89  1  0  0  0
  2 90  1  0  0  0
  3  4  1  0  0  0
  3 91  1  0  0  0
  3 92  1  0  0  0
  4  5  1  0  0  0
  4 93  1  0  0  0
  4 94  1  0  0  0
  5  6  1  0  0  0
  5 26  1  0  0  0
  5 95  1  0  0  0
  6 25  1  0  0  0
  6 96  1  0  0  0
  6 97  1  0  0  0
  7  8  2  0  0  0
  7 26  1  0  0  0
  7 29  1  0  0  0
  8  9  1  0  0  0
  8 22  1  0  0  0
  9 10  1  0  0  0
  9 27  2  0  0  0
 10 11  2  0  0  0
 10 15  1  0  0  0
 11 12  1  0  0  0
 11 98  1  0  0  0
 12 13  2  0  0  0
 12 99  1  0  0  0
 13 14  1  0  0  0
 13 31  1  0  0  0
 14 15  2  0  0  0
 14100  1  0  0  0
 15101  1  0  0  0
 16 17  2  0  0  0
 16 21  1  0  0  0
 16 31  1  0  0  0
 17 18  1  0  0  0
 17102  1  0  0  0
 18 19  2  0  0  0
 18103  1  0  0  0
 19 20  1  0  0  0
 19 24  1  0  0  0
 20 21  2  0  0  0
 20104  1  0  0  0
 21 23  1  0  0  0
 22 28  1  0  0  0
 22 32  2  0  0  0
 26 27  1  0  0  0
 28105  1  0  0  0
 28106  1  0  0  0
 29107  1  0  0  0
 29108  1  0  0  0
 33 34  1  0  0  0
 33 66  1  0  0  0
 33 70  2  0  0  0
 34 36  1  0  0  0
 34 59  1  0  0  0
 34109  1  0  0  0
 35 44  2  0  0  0
 35 45  1  0  0  0
 35 68  1  0  0  0
 36 56  1  0  0  0
 36110  1  0  0  0
 37 39  1  0  0  0
 37 47  1  0  0  0
 37 66  1  0  0  0
 37111  1  0  0  0
 38 43  2  0  0  0
 38 46  1  0  0  0
 38 47  1  0  0  0
 39 64  1  0  0  0
 39 67  2  0  0  0
 40 52  1  0  0  0
 40 53  2  0  0  0
 40 58  1  0  0  0
 41112  1  0  0  0
 41113  1  0  0  0
 41114  1  0  0  0
 41 48  1  0  0  0
 42 43  1  0  0  0
 42 66  1  0  0  0
 42115  1  0  0  0
 42116  1  0  0  0
 43 44  1  0  0  0
 44117  1  0  0  0
 45 46  2  0  0  0
 45118  1  0  0  0
 46119  1  0  0  0
 47120  1  0  0  0
 47121  1  0  0  0
 48 56  1  0  0  0
 48 65  1  0  0  0
 48122  1  0  0  0
 49 50  1  0  0  0
 49 53  1  0  0  0
 49 64  1  0  0  0
 49123  1  0  0  0
 50 51  1  0  0  0
 50124  1  0  0  0
 50125  1  0  0  0
 51 52  1  0  0  0
 51126  1  0  0  0
 51127  1  0  0  0
 52128  1  0  0  0
 52129  1  0  0  0
 53 54  1  0  0  0
 54 55  2  0  0  0
 54130  1  0  0  0
 55 57  1  0  0  0
 55131  1  0  0  0
 56 69  2  0  0  0
 57 58  2  0  0  0
 57132  1  0  0  0
 58133  1  0  0  0
 59 60  1  0  0  0
 59 61  1  0  0  0
 59 62  1  0  0  0
 60134  1  0  0  0
 60135  1  0  0  0
 60136  1  0  0  0
 61137  1  0  0  0
 61138  1  0  0  0
 61139  1  0  0  0
 62140  1  0  0  0
 62141  1  0  0  0
 62142  1  0  0  0
 63 65  1  0  0  0
 63143  1  0  0  0
 63144  1  0  0  0
 63145  1  0  0  0
 64146  1  0  0  0
 65147  1  0  0  0
 68 81  1  0  0  0
 71 72  2  0  0  0
 71 75  1  0  0  0
 71148  1  0  0  0
 72 76  1  0  0  0
 72149  1  0  0  0
 73 75  2  0  0  0
 73 85  1  0  0  0
 73150  1  0  0  0
 74 77  2  0  0  0
 74 88  1  0  0  0
 74151  1  0  0  0
 75 84  1  0  0  0
 76 81  1  0  0  0
 76 85  2  0  0  0
 77 84  1  0  0  0
 77 86  1  0  0  0
 78 82  1  0  0  0
 78152  1  0  0  0
 78153  1  0  0  0
 78154  1  0  0  0
 79155  1  0  0  0
 79156  1  0  0  0
 79157  1  0  0  0
 79 83  1  0  0  0
 80158  1  0  0  0
 80159  1  0  0  0
 80160  1  0  0  0
 80 84  1  0  0  0
 81161  1  0  0  0
 81162  1  0  0  0
 82 84  1  0  0  0
 82163  1  0  0  0
 82164  1  0  0  0
 83 88  1  0  0  0
 83165  1  0  0  0
 86 87  2  0  0  0
 87 88  1  0  0  0
M  ISO  4   1 100  68 101  81 101  83 100
M  END
> <chiral flag>
0

> <version>
0

> <s_m_source_file>
/data/baiqing/PycharmProjects/Reinvent-master-3.2/result/LINK_invent/BTK/process_docking_weight1_custom_sum_contain_oxygen_bond_distance_aromatic_linkinvent_7_9_3/rearranged_h_0063.sdf

> <i_m_source_file_index>
72

> <r_mmod_Potential_Energy-OPLS-2005>
-31.2213668823242

> <r_mmod_Stretch_Energy-OPLS-2005>
63.2487030029297

> <r_mmod_Bend_Energy-OPLS-2005>
171.932250976562

> <r_mmod_Torsional_Energy-OPLS-2005>
247.975540161133

> <r_mmod_Improper_Torsional_Energy-OPLS-2005>
5.21105718612671

> <r_mmod_Van_der_Waal_Energy-OPLS-2005>
151.777954101562

> <r_mmod_Electrostatic_Energy-OPLS-2005>
-469.189819335938

> <r_mmod_Solvation_Energy-OPLS-2005>
-221.928237915039

> <b_mmod_Minimization_Converged-OPLS-2005>
0

> <r_mmod_RMS_Derivative-OPLS-2005>
5.67494869232178

$$$$
75
                    3D
 Structure written by MMmdl.
179187  0  0  1  0            999 V2000
  -30.7622  -14.3791   20.6932 C   0  0  0  0  0  0
  -30.4163  -12.2987   19.4032 C   0  0  0  0  0  0
  -29.4864  -12.5256   18.1962 C   0  0  0  0  0  0
  -28.0104  -12.3772   18.6100 C   0  0  0  0  0  0
  -27.6636  -13.2019   19.8772 C   0  0  2  0  0  0
  -28.7000  -12.9491   20.9954 C   0  0  0  0  0  0
  -25.2542  -13.8109   20.5575 C   0  0  0  0  0  0
  -24.1834  -13.0415   20.9215 C   0  0  0  0  0  0
  -24.6385  -11.6891   20.8768 C   0  0  0  0  0  0
  -23.9047  -10.4282   21.0424 C   0  0  0  0  0  0
  -24.3601   -9.4201   21.9199 C   0  0  0  0  0  0
  -23.6283   -8.2233   22.0758 C   0  0  0  0  0  0
  -22.4264   -8.0272   21.3547 C   0  0  0  0  0  0
  -21.9900   -9.0248   20.4648 C   0  0  0  0  0  0
  -22.7222  -10.2129   20.3069 C   0  0  0  0  0  0
  -21.6846   -6.0727   22.5273 C   0  0  0  0  0  0
  -21.4011   -6.5633   23.8206 C   0  0  0  0  0  0
  -21.3660   -5.6788   24.9172 C   0  0  0  0  0  0
  -21.6043   -4.3050   24.7224 C   0  0  0  0  0  0
  -21.8821   -3.8140   23.4347 C   0  0  0  0  0  0
  -21.9192   -4.6956   22.3403 C   0  0  0  0  0  0
  -22.7860  -13.5232   21.1853 C   0  0  0  0  0  0
  -22.1662   -4.2141   21.0981 F   0  0  0  0  0  0
  -21.5629   -3.4538   25.7741 F   0  0  0  0  0  0
  -30.0425  -13.2492   20.4630 N   0  0  0  0  0  0
  -26.3013  -12.9305   20.3323 N   0  0  0  0  0  0
  -25.9308  -11.6473   20.5780 N   0  0  0  0  0  0
  -22.0470  -12.8253   22.0399 N   0  0  0  0  0  0
  -25.4148  -15.1796   20.3679 N   0  0  0  0  0  0
  -31.7961  -14.6423   20.0743 O   0  0  0  0  0  0
  -21.6631   -6.8869   21.4236 O   0  0  0  0  0  0
  -22.3590  -14.5553   20.6684 O   0  0  0  0  0  0
  -24.6102  -31.8682   23.2131 C   0  0  0  0  0  0
  -25.9011  -32.4827   23.8410 C   0  0  1  0  0  0
  -27.2470  -27.4708   20.0847 C   0  0  0  0  0  0
  -25.5882  -33.8630   24.2334 N   0  0  0  0  0  0
  -23.3953  -30.4919   21.5514 C   0  0  2  0  0  0
  -24.8431  -28.9600   20.1164 C   0  0  0  0  0  0
  -22.7378  -29.4652   22.5007 C   0  0  0  0  0  0
  -18.0253  -28.1348   22.8494 C   0  0  0  0  0  0
  -24.1482  -36.7330   23.2638 C   0  0  0  0  0  0
  -25.9191  -30.8465   21.3584 C   0  0  0  0  0  0
  -25.9989  -29.4822   20.7081 C   0  0  0  0  0  0
  -27.1998  -28.7441   20.6893 C   0  0  0  0  0  0
  -26.0703  -26.9508   19.4960 C   0  0  0  0  0  0
  -24.8721  -27.6917   19.5096 C   0  0  0  0  0  0
  -23.6015  -29.8214   20.1657 C   0  0  0  0  0  0
  -25.4093  -36.3118   24.0341 C   0  0  1  0  0  0
  -20.5834  -28.3636   23.1334 C   0  0  2  0  0  0
  -20.6736  -26.9380   22.5419 C   0  0  0  0  0  0
  -19.5725  -26.6372   21.5203 C   0  0  0  0  0  0
  -18.1900  -26.7898   22.1612 C   0  0  0  0  0  0
  -19.1497  -28.8808   23.2912 C   0  0  0  0  0  0
  -18.9436  -30.1416   23.8927 C   0  0  0  0  0  0
  -17.6440  -30.6571   24.0553 C   0  0  0  0  0  0
  -25.9018  -34.9481   23.5131 C   0  0  0  0  0  0
  -16.5329  -29.9072   23.6317 C   0  0  0  0  0  0
  -16.7244  -28.6480   23.0354 C   0  0  0  0  0  0
  -26.4460  -31.6595   25.0727 C   0  0  0  0  0  0
  -25.3759  -31.3658   26.1495 C   0  0  0  0  0  0
  -27.0283  -30.3057   24.6058 C   0  0  0  0  0  0
  -27.6048  -32.4298   25.7476 C   0  0  0  0  0  0
  -27.5579  -37.1798   24.8455 C   0  0  0  0  0  0
  -21.4107  -29.3018   22.3760 N   0  0  0  0  0  0
  -26.4275  -37.3810   23.9430 N   0  0  0  0  0  0
  -24.6593  -31.0824   22.1004 N   0  0  0  0  0  0
  -23.4178  -28.8193   23.3021 O   0  0  0  0  0  0
  -28.4571  -26.8130   20.0915 O   0  0  0  0  0  0
  -26.5586  -34.8934   22.4697 O   0  0  0  0  0  0
  -23.5311  -32.1400   23.7575 O   0  0  0  0  0  0
  -29.0575  -21.1860   19.7950 C   0  0  0  0  0  0
  -27.9205  -21.9576   19.4834 C   0  0  0  0  0  0
  -26.7731  -21.6944   20.2715 C   0  0  0  0  0  0
  -27.9439  -20.1344   21.4845 C   0  0  0  0  0  0
  -31.5161  -17.3383   21.2882 C   0  0  0  0  0  0
  -31.9304  -15.8667   23.2669 C   0  0  0  0  0  0
  -28.7972  -16.2304   23.9342 C   0  0  0  0  0  0
  -30.3097  -18.1833   24.0975 C   0  0  0  0  0  0
  -28.0037  -17.1113   21.1308 C   0  0  0  0  0  0
  -27.9651  -19.0757   22.5757 C   0  0  0  0  0  0
  -28.7637  -25.1006   18.3720 C   0  0  0  0  0  0
  -28.5048  -25.4115   19.8544 C   0  0  0  0  0  0
  -29.0544  -23.6139   18.1295 C   0  0  0  0  0  0
  -25.4181  -22.3842   20.0468 C   0  0  0  0  0  0
  -30.8260  -16.3903   22.3110 C   0  0  0  0  0  0
  -29.6681  -17.1898   23.0769 C   0  0  0  0  0  0
  -29.0652  -20.2752   20.7867 N   0  0  0  0  0  0
  -26.8076  -20.7724   21.2635 N   0  0  0  0  0  0
  -30.2712  -15.1754   21.6656 N   0  0  0  0  0  0
  -28.7922  -17.9383   22.0865 N   0  3  1  0  0  0
  -27.8778  -22.8651   18.4440 O   0  0  0  0  0  0
  -25.5057  -23.5097   19.3374 F   0  0  0  0  0  0
  -24.5993  -21.5466   19.4078 F   0  0  0  0  0  0
  -24.8622  -22.6957   21.2212 F   0  0  0  0  0  0
  -31.4601  -12.3968   19.1000 H   0  0  0  0  0  0
  -30.3147  -11.2769   19.7725 H   0  0  0  0  0  0
  -29.7233  -11.8182   17.4003 H   0  0  0  0  0  0
  -29.6561  -13.5204   17.7824 H   0  0  0  0  0  0
  -27.8212  -11.3190   18.7941 H   0  0  0  0  0  0
  -27.3569  -12.6629   17.7847 H   0  0  0  0  0  0
  -27.7189  -14.2552   19.6018 H   0  0  0  0  0  0
  -28.6669  -11.9041   21.3067 H   0  0  0  0  0  0
  -28.4393  -13.5164   21.8879 H   0  0  0  0  0  0
  -25.2747   -9.5671   22.4773 H   0  0  0  0  0  0
  -23.9987   -7.4623   22.7478 H   0  0  0  0  0  0
  -21.0830   -8.8765   19.8957 H   0  0  0  0  0  0
  -22.3681  -10.9672   19.6179 H   0  0  0  0  0  0
  -21.2001   -7.6141   23.9707 H   0  0  0  0  0  0
  -21.1480   -6.0521   25.9074 H   0  0  0  0  0  0
  -22.0598   -2.7602   23.2850 H   0  0  0  0  0  0
  -22.4050  -11.9910   22.4814 H   0  0  0  0  0  0
  -21.1096  -13.1321   22.2577 H   0  0  0  0  0  0
  -24.5707  -15.7415   20.3405 H   0  0  0  0  0  0
  -26.1024  -15.4930   19.6966 H   0  0  0  0  0  0
  -26.7088  -32.5550   23.1183 H   0  0  0  0  0  0
  -25.0039  -33.9805   25.0486 H   0  0  0  0  0  0
  -22.6824  -31.3079   21.4143 H   0  0  0  0  0  0
  -23.3750  -35.9653   23.3263 H   0  0  0  0  0  0
  -24.3595  -36.8991   22.2063 H   0  0  0  0  0  0
  -23.7227  -37.6521   23.6682 H   0  0  0  0  0  0
  -26.0221  -31.6133   20.5897 H   0  0  0  0  0  0
  -26.8102  -30.9041   21.9718 H   0  0  0  0  0  0
  -28.0952  -29.1512   21.1393 H   0  0  0  0  0  0
  -26.0628  -25.9880   19.0082 H   0  0  0  0  0  0
  -23.9843  -27.2852   19.0457 H   0  0  0  0  0  0
  -23.7028  -30.5942   19.4025 H   0  0  0  0  0  0
  -22.7280  -29.2356   19.8744 H   0  0  0  0  0  0
  -25.1255  -36.1975   25.0831 H   0  0  0  0  0  0
  -20.9924  -28.3193   24.1454 H   0  0  0  0  0  0
  -20.5606  -26.2251   23.3593 H   0  0  0  0  0  0
  -21.6611  -26.7394   22.1240 H   0  0  0  0  0  0
  -19.6882  -25.6292   21.1209 H   0  0  0  0  0  0
  -19.6662  -27.3198   20.6743 H   0  0  0  0  0  0
  -17.4162  -26.6654   21.4017 H   0  0  0  0  0  0
  -18.0303  -26.0020   22.8989 H   0  0  0  0  0  0
  -19.7915  -30.7212   24.2331 H   0  0  0  0  0  0
  -17.4994  -31.6263   24.5136 H   0  0  0  0  0  0
  -15.5329  -30.2977   23.7630 H   0  0  0  0  0  0
  -15.8638  -28.0805   22.7064 H   0  0  0  0  0  0
  -24.5968  -30.6948   25.7853 H   0  0  0  0  0  0
  -24.8898  -32.2780   26.4962 H   0  0  0  0  0  0
  -25.8158  -30.8848   27.0245 H   0  0  0  0  0  0
  -26.2801  -29.6827   24.1145 H   0  0  0  0  0  0
  -27.4111  -29.7285   25.4484 H   0  0  0  0  0  0
  -27.8610  -30.4390   23.9149 H   0  0  0  0  0  0
  -27.2695  -33.3602   26.2067 H   0  0  0  0  0  0
  -28.3856  -32.6836   25.0297 H   0  0  0  0  0  0
  -28.0715  -31.8404   26.5381 H   0  0  0  0  0  0
  -28.2545  -38.0145   24.7578 H   0  0  0  0  0  0
  -28.1120  -36.2682   24.6165 H   0  0  0  0  0  0
  -27.2317  -37.1319   25.8861 H   0  0  0  0  0  0
  -20.9252  -29.8804   21.7048 H   0  0  0  0  0  0
  -26.0157  -38.2873   24.1496 H   0  0  0  0  0  0
  -29.9728  -21.2574   19.2277 H   0  0  0  0  0  0
  -31.8226  -18.2804   21.7424 H   0  0  0  0  0  0
  -30.8824  -17.5772   20.4341 H   0  0  0  0  0  0
  -32.4334  -16.9072   20.8881 H   0  0  0  0  0  0
  -32.5431  -16.6695   23.6773 H   0  0  0  0  0  0
  -32.6296  -15.2096   22.7490 H   0  0  0  0  0  0
  -31.5224  -15.2950   24.1003 H   0  0  0  0  0  0
  -29.3812  -15.7564   24.7225 H   0  0  0  0  0  0
  -28.3323  -15.4253   23.3699 H   0  0  0  0  0  0
  -27.9907  -16.7693   24.4323 H   0  0  0  0  0  0
  -31.0072  -17.7022   24.7794 H   0  0  0  0  0  0
  -29.5797  -18.6136   24.7820 H   0  0  0  0  0  0
  -30.8400  -19.0048   23.6173 H   0  0  0  0  0  0
  -27.3383  -17.7191   20.5171 H   0  0  0  0  0  0
  -27.3723  -16.3936   21.6494 H   0  0  0  0  0  0
  -28.6323  -16.5829   20.4183 H   0  0  0  0  0  0
  -26.9574  -18.7469   22.8330 H   0  0  0  0  0  0
  -28.3503  -19.5981   23.4445 H   0  0  0  0  0  0
  -29.6228  -25.6829   18.0363 H   0  0  0  0  0  0
  -27.9235  -25.4190   17.7565 H   0  0  0  0  0  0
  -29.3366  -25.0252   20.4437 H   0  0  0  0  0  0
  -27.6194  -24.9006   20.2342 H   0  0  0  0  0  0
  -29.9422  -23.3388   18.6988 H   0  0  0  0  0  0
  -29.2994  -23.4506   17.0788 H   0  0  0  0  0  0
  -29.4432  -14.7984   22.1029 H   0  0  0  0  0  0
  -29.4222  -18.4821   21.5005 H   0  0  0  0  0  0
  1 25  1  0  0  0
  1 30  2  0  0  0
  1 89  1  0  0  0
  2  3  1  0  0  0
  2 25  1  0  0  0
  2 95  1  0  0  0
  2 96  1  0  0  0
  3  4  1  0  0  0
  3 97  1  0  0  0
  3 98  1  0  0  0
  4  5  1  0  0  0
  4 99  1  0  0  0
  4100  1  0  0  0
  5  6  1  0  0  0
  5 26  1  0  0  0
  5101  1  0  0  0
  6 25  1  0  0  0
  6102  1  0  0  0
  6103  1  0  0  0
  7  8  2  0  0  0
  7 26  1  0  0  0
  7 29  1  0  0  0
  8  9  1  0  0  0
  8 22  1  0  0  0
  9 10  1  0  0  0
  9 27  2  0  0  0
 10 11  2  0  0  0
 10 15  1  0  0  0
 11 12  1  0  0  0
 11104  1  0  0  0
 12 13  2  0  0  0
 12105  1  0  0  0
 13 14  1  0  0  0
 13 31  1  0  0  0
 14 15  2  0  0  0
 14106  1  0  0  0
 15107  1  0  0  0
 16 17  2  0  0  0
 16 21  1  0  0  0
 16 31  1  0  0  0
 17 18  1  0  0  0
 17108  1  0  0  0
 18 19  2  0  0  0
 18109  1  0  0  0
 19 20  1  0  0  0
 19 24  1  0  0  0
 20 21  2  0  0  0
 20110  1  0  0  0
 21 23  1  0  0  0
 22 28  1  0  0  0
 22 32  2  0  0  0
 26 27  1  0  0  0
 28111  1  0  0  0
 28112  1  0  0  0
 29113  1  0  0  0
 29114  1  0  0  0
 33 34  1  0  0  0
 33 66  1  0  0  0
 33 70  2  0  0  0
 34 36  1  0  0  0
 34 59  1  0  0  0
 34115  1  0  0  0
 35 44  2  0  0  0
 35 45  1  0  0  0
 35 68  1  0  0  0
 36 56  1  0  0  0
 36116  1  0  0  0
 37 39  1  0  0  0
 37 47  1  0  0  0
 37 66  1  0  0  0
 37117  1  0  0  0
 38 43  2  0  0  0
 38 46  1  0  0  0
 38 47  1  0  0  0
 39 64  1  0  0  0
 39 67  2  0  0  0
 40 52  1  0  0  0
 40 53  2  0  0  0
 40 58  1  0  0  0
 41118  1  0  0  0
 41119  1  0  0  0
 41120  1  0  0  0
 41 48  1  0  0  0
 42 43  1  0  0  0
 42 66  1  0  0  0
 42121  1  0  0  0
 42122  1  0  0  0
 43 44  1  0  0  0
 44123  1  0  0  0
 45 46  2  0  0  0
 45124  1  0  0  0
 46125  1  0  0  0
 47126  1  0  0  0
 47127  1  0  0  0
 48 56  1  0  0  0
 48 65  1  0  0  0
 48128  1  0  0  0
 49 50  1  0  0  0
 49 53  1  0  0  0
 49 64  1  0  0  0
 49129  1  0  0  0
 50 51  1  0  0  0
 50130  1  0  0  0
 50131  1  0  0  0
 51 52  1  0  0  0
 51132  1  0  0  0
 51133  1  0  0  0
 52134  1  0  0  0
 52135  1  0  0  0
 53 54  1  0  0  0
 54 55  2  0  0  0
 54136  1  0  0  0
 55 57  1  0  0  0
 55137  1  0  0  0
 56 69  2  0  0  0
 57 58  2  0  0  0
 57138  1  0  0  0
 58139  1  0  0  0
 59 60  1  0  0  0
 59 61  1  0  0  0
 59 62  1  0  0  0
 60140  1  0  0  0
 60141  1  0  0  0
 60142  1  0  0  0
 61143  1  0  0  0
 61144  1  0  0  0
 61145  1  0  0  0
 62146  1  0  0  0
 62147  1  0  0  0
 62148  1  0  0  0
 63 65  1  0  0  0
 63149  1  0  0  0
 63150  1  0  0  0
 63151  1  0  0  0
 64152  1  0  0  0
 65153  1  0  0  0
 68 82  1  0  0  0
 71 72  2  0  0  0
 71 87  1  0  0  0
 71154  1  0  0  0
 72 73  1  0  0  0
 72 91  1  0  0  0
 73 84  1  0  0  0
 73 88  2  0  0  0
 74 80  1  0  0  0
 74 87  2  0  0  0
 74 88  1  0  0  0
 75155  1  0  0  0
 75156  1  0  0  0
 75157  1  0  0  0
 75 85  1  0  0  0
 76 85  1  0  0  0
 76158  1  0  0  0
 76159  1  0  0  0
 76160  1  0  0  0
 77161  1  0  0  0
 77162  1  0  0  0
 77163  1  0  0  0
 77 86  1  0  0  0
 78 86  1  0  0  0
 78164  1  0  0  0
 78165  1  0  0  0
 78166  1  0  0  0
 79167  1  0  0  0
 79168  1  0  0  0
 79169  1  0  0  0
 79 90  1  0  0  0
 80 90  1  0  0  0
 80170  1  0  0  0
 80171  1  0  0  0
 81 82  1  0  0  0
 81 83  1  0  0  0
 81172  1  0  0  0
 81173  1  0  0  0
 82174  1  0  0  0
 82175  1  0  0  0
 83 91  1  0  0  0
 83176  1  0  0  0
 83177  1  0  0  0
 84 92  1  0  0  0
 84 93  1  0  0  0
 84 94  1  0  0  0
 85 86  1  0  0  0
 85 89  1  0  0  0
 86 90  1  0  0  0
 89178  1  0  0  0
 90179  1  0  0  0
M  CHG  1  90   1
M  ISO  4   1 100  68 101  82 101  89 100
M  END
> <chiral flag>
0

> <version>
0

> <s_m_source_file>
/data/baiqing/PycharmProjects/Reinvent-master-3.2/result/LINK_invent/BTK/process_docking_weight1_custom_sum_contain_oxygen_bond_distance_aromatic_linkinvent_7_9_3/rearranged_h_0063.sdf

> <i_m_source_file_index>
73

> <r_mmod_Potential_Energy-OPLS-2005>
-466.669830322266

> <r_mmod_Stretch_Energy-OPLS-2005>
48.9637260437012

> <r_mmod_Bend_Energy-OPLS-2005>
143.222549438477

> <r_mmod_Torsional_Energy-OPLS-2005>
278.913360595703

> <r_mmod_Improper_Torsional_Energy-OPLS-2005>
5.89921712875366

> <r_mmod_Van_der_Waal_Energy-OPLS-2005>
195.46028137207

> <r_mmod_Electrostatic_Energy-OPLS-2005>
-733.104797363281

> <r_mmod_Solvation_Energy-OPLS-2005>
-414.30029296875

> <b_mmod_Minimization_Converged-OPLS-2005>
0

> <r_mmod_RMS_Derivative-OPLS-2005>
1.43077993392944

$$$$
76
                    3D
 Structure written by MMmdl.
157165  0  0  1  0            999 V2000
  -30.4922  -15.0610   20.3872 C   0  0  0  0  0  0
  -30.4456  -12.6645   19.4868 C   0  0  0  0  0  0
  -29.5239  -12.5401   18.2502 C   0  0  0  0  0  0
  -28.0610  -12.3083   18.6780 C   0  0  0  0  0  0
  -27.6228  -13.2536   19.8261 C   0  0  2  0  0  0
  -28.6712  -13.3285   20.9550 C   0  0  0  0  0  0
  -25.2443  -13.8201   20.5719 C   0  0  0  0  0  0
  -24.1770  -13.0418   20.9239 C   0  0  0  0  0  0
  -24.6396  -11.6909   20.8749 C   0  0  0  0  0  0
  -23.9075  -10.4281   21.0390 C   0  0  0  0  0  0
  -24.3615   -9.4196   21.9168 C   0  0  0  0  0  0
  -23.6292   -8.2233   22.0736 C   0  0  0  0  0  0
  -22.4276   -8.0260   21.3530 C   0  0  0  0  0  0
  -21.9907   -9.0235   20.4635 C   0  0  0  0  0  0
  -22.7238  -10.2119   20.3047 C   0  0  0  0  0  0
  -21.6863   -6.0718   22.5270 C   0  0  0  0  0  0
  -21.4021   -6.5623   23.8200 C   0  0  0  0  0  0
  -21.3679   -5.6773   24.9167 C   0  0  0  0  0  0
  -21.6048   -4.3033   24.7215 C   0  0  0  0  0  0
  -21.8821   -3.8129   23.4336 C   0  0  0  0  0  0
  -21.9194   -4.6947   22.3398 C   0  0  0  0  0  0
  -22.7786  -13.5180   21.1899 C   0  0  0  0  0  0
  -22.1662   -4.2126   21.0976 F   0  0  0  0  0  0
  -21.5636   -3.4531   25.7737 F   0  0  0  0  0  0
  -29.9250  -13.7792   20.3321 N   0  0  0  0  0  0
  -26.2867  -12.9448   20.3208 N   0  0  0  0  0  0
  -25.9331  -11.6573   20.5710 N   0  0  0  0  0  0
  -22.0454  -12.8168   22.0464 N   0  0  0  0  0  0
  -25.4078  -15.1935   20.4139 N   0  0  0  0  0  0
  -31.7156  -15.1261   20.2316 O   0  0  0  0  0  0
  -21.6645   -6.8855   21.4229 O   0  0  0  0  0  0
  -22.3474  -14.5495   20.6755 O   0  0  0  0  0  0
  -24.6511  -31.8366   23.1812 C   0  0  0  0  0  0
  -25.9252  -32.4655   23.8226 C   0  0  1  0  0  0
  -27.2309  -27.0676   20.1622 C   0  0  0  0  0  0
  -25.5976  -33.8460   24.2147 N   0  0  0  0  0  0
  -23.4592  -30.4526   21.5283 C   0  0  2  0  0  0
  -24.9129  -28.8633   20.1152 C   0  0  0  0  0  0
  -22.7609  -29.4508   22.4829 C   0  0  0  0  0  0
  -18.0316  -28.1398   22.8478 C   0  0  0  0  0  0
  -24.1494  -36.7230   23.2645 C   0  0  0  0  0  0
  -26.0210  -30.6875   21.3929 C   0  0  0  0  0  0
  -26.0938  -29.2908   20.7361 C   0  0  0  0  0  0
  -27.2535  -28.4138   20.7346 C   0  0  0  0  0  0
  -26.0199  -26.7587   19.5035 C   0  0  0  0  0  0
  -24.8929  -27.6121   19.4814 C   0  0  0  0  0  0
  -23.6922  -29.7749   20.1512 C   0  0  0  0  0  0
  -25.4130  -36.3004   24.0313 C   0  0  1  0  0  0
  -20.5935  -28.3729   23.1222 C   0  0  2  0  0  0
  -20.6797  -26.9425   22.5403 C   0  0  0  0  0  0
  -19.5768  -26.6379   21.5219 C   0  0  0  0  0  0
  -18.1951  -26.7936   22.1630 C   0  0  0  0  0  0
  -19.1576  -28.8883   23.2839 C   0  0  0  0  0  0
  -18.9490  -30.1482   23.8859 C   0  0  0  0  0  0
  -17.6485  -30.6590   24.0559 C   0  0  0  0  0  0
  -25.9087  -34.9382   23.5039 C   0  0  0  0  0  0
  -16.5376  -29.9080   23.6341 C   0  0  0  0  0  0
  -16.7303  -28.6503   23.0357 C   0  0  0  0  0  0
  -26.4543  -31.6545   25.0693 C   0  0  0  0  0  0
  -25.3712  -31.3771   26.1378 C   0  0  0  0  0  0
  -27.0436  -30.2930   24.6350 C   0  0  0  0  0  0
  -27.6052  -32.4332   25.7494 C   0  0  0  0  0  0
  -27.5567  -37.1782   24.8473 C   0  0  0  0  0  0
  -21.4293  -29.3043   22.3583 N   0  0  0  0  0  0
  -26.4287  -37.3723   23.9402 N   0  0  0  0  0  0
  -24.7304  -31.0151   22.0890 N   0  0  0  0  0  0
  -23.4218  -28.8059   23.3013 O   0  0  0  0  0  0
  -28.2795  -26.0498   20.1660 O   0  0  0  0  0  0
  -26.5669  -34.8897   22.4620 O   0  0  0  0  0  0
  -23.5615  -32.1266   23.6997 O   0  0  0  0  0  0
  -29.5943  -23.0197   18.8350 C   0  0  0  0  0  0
  -28.8397  -23.1536   19.9641 C   0  0  0  0  0  0
  -29.5859  -20.8272   19.6410 C   0  0  0  0  0  0
  -29.4669  -18.5697   18.2691 C   0  0  0  0  0  0
  -31.5081  -19.0162   19.7064 C   0  0  0  0  0  0
  -30.6342  -21.3557   17.3599 C   0  0  0  0  0  0
  -28.0048  -24.5118   20.4729 C   0  0  0  0  0  0
  -29.6283  -17.8348   20.6925 C   0  0  0  0  0  0
  -29.9635  -19.1309   19.6235 C   0  0  0  0  0  0
  -29.9656  -21.6915   18.6346 N   0  0  0  0  0  0
  -28.8820  -21.7630   20.4359 N   0  3  0  0  0  0
  -29.6510  -16.2323   20.4043 N   0  0  0  0  0  0
  -31.4745  -12.8436   19.1725 H   0  0  0  0  0  0
  -30.4607  -11.7303   20.0497 H   0  0  0  0  0  0
  -29.8591  -11.7223   17.6111 H   0  0  0  0  0  0
  -29.5919  -13.4473   17.6471 H   0  0  0  0  0  0
  -27.9776  -11.2719   19.0066 H   0  0  0  0  0  0
  -27.3913  -12.4105   17.8225 H   0  0  0  0  0  0
  -27.5666  -14.2457   19.3779 H   0  0  0  0  0  0
  -28.7947  -12.3645   21.4502 H   0  0  0  0  0  0
  -28.3548  -14.0327   21.7264 H   0  0  0  0  0  0
  -25.2754   -9.5680   22.4745 H   0  0  0  0  0  0
  -24.0008   -7.4621   22.7451 H   0  0  0  0  0  0
  -21.0836   -8.8747   19.8939 H   0  0  0  0  0  0
  -22.3677  -10.9653   19.6158 H   0  0  0  0  0  0
  -21.2019   -7.6130   23.9700 H   0  0  0  0  0  0
  -21.1504   -6.0508   25.9070 H   0  0  0  0  0  0
  -22.0588   -2.7590   23.2844 H   0  0  0  0  0  0
  -22.4106  -11.9848   22.4863 H   0  0  0  0  0  0
  -21.1057  -13.1160   22.2663 H   0  0  0  0  0  0
  -24.6296  -15.8355   20.5199 H   0  0  0  0  0  0
  -26.2374  -15.6382   20.0466 H   0  0  0  0  0  0
  -26.7314  -32.5235   23.0945 H   0  0  0  0  0  0
  -25.0105  -33.9555   25.0286 H   0  0  0  0  0  0
  -22.7659  -31.2800   21.3662 H   0  0  0  0  0  0
  -23.3756  -35.9563   23.3316 H   0  0  0  0  0  0
  -24.3565  -36.8850   22.2055 H   0  0  0  0  0  0
  -23.7256  -37.6434   23.6678 H   0  0  0  0  0  0
  -26.1888  -31.4392   20.6200 H   0  0  0  0  0  0
  -26.8855  -30.7365   22.0427 H   0  0  0  0  0  0
  -28.1550  -28.7460   21.2294 H   0  0  0  0  0  0
  -25.9221  -25.8085   18.9997 H   0  0  0  0  0  0
  -23.9968  -27.2802   18.9754 H   0  0  0  0  0  0
  -23.8390  -30.5458   19.3944 H   0  0  0  0  0  0
  -22.8058  -29.2210   19.8363 H   0  0  0  0  0  0
  -25.1329  -36.1816   25.0807 H   0  0  0  0  0  0
  -21.0035  -28.3325   24.1343 H   0  0  0  0  0  0
  -20.5695  -26.2345   23.3631 H   0  0  0  0  0  0
  -21.6659  -26.7419   22.1199 H   0  0  0  0  0  0
  -19.6923  -25.6284   21.1260 H   0  0  0  0  0  0
  -19.6698  -27.3178   20.6744 H   0  0  0  0  0  0
  -17.4219  -26.6690   21.4031 H   0  0  0  0  0  0
  -18.0339  -26.0084   22.9033 H   0  0  0  0  0  0
  -19.7970  -30.7314   24.2202 H   0  0  0  0  0  0
  -17.5039  -31.6267   24.5170 H   0  0  0  0  0  0
  -15.5374  -30.2967   23.7689 H   0  0  0  0  0  0
  -15.8708  -28.0812   22.7081 H   0  0  0  0  0  0
  -24.5898  -30.7108   25.7700 H   0  0  0  0  0  0
  -24.8896  -32.2970   26.4704 H   0  0  0  0  0  0
  -25.7975  -30.9006   27.0216 H   0  0  0  0  0  0
  -26.3088  -29.6619   24.1342 H   0  0  0  0  0  0
  -27.4002  -29.7263   25.4960 H   0  0  0  0  0  0
  -27.9007  -30.4136   23.9722 H   0  0  0  0  0  0
  -27.2625  -33.3662   26.1983 H   0  0  0  0  0  0
  -28.3915  -32.6851   25.0365 H   0  0  0  0  0  0
  -28.0666  -31.8519   26.5488 H   0  0  0  0  0  0
  -28.2602  -38.0059   24.7483 H   0  0  0  0  0  0
  -28.1047  -36.2588   24.6356 H   0  0  0  0  0  0
  -27.2275  -37.1492   25.8874 H   0  0  0  0  0  0
  -20.9521  -29.8752   21.6742 H   0  0  0  0  0  0
  -26.0147  -38.2795   24.1382 H   0  0  0  0  0  0
  -29.8322  -23.7896   18.1134 H   0  0  0  0  0  0
  -29.5342  -17.4857   18.2000 H   0  0  0  0  0  0
  -30.0526  -18.9106   17.4238 H   0  0  0  0  0  0
  -28.4257  -18.8415   18.0939 H   0  0  0  0  0  0
  -31.8356  -17.9803   19.6158 H   0  0  0  0  0  0
  -31.8633  -19.3754   20.6718 H   0  0  0  0  0  0
  -32.0781  -19.5582   18.9672 H   0  0  0  0  0  0
  -29.9037  -20.9343   16.6714 H   0  0  0  0  0  0
  -31.4772  -20.6904   17.4674 H   0  0  0  0  0  0
  -31.0260  -22.2623   16.8993 H   0  0  0  0  0  0
  -27.9837  -24.4534   21.5609 H   0  0  0  0  0  0
  -26.9736  -24.3143   20.1890 H   0  0  0  0  0  0
  -28.6054  -18.0119   21.0254 H   0  0  0  0  0  0
  -30.2077  -17.9786   21.6056 H   0  0  0  0  0  0
  -28.3922  -21.4784   21.2752 H   0  0  0  0  0  0
  -28.6985  -15.9124   20.3170 H   0  0  0  0  0  0
  1 25  1  0  0  0
  1 30  2  0  0  0
  1 82  1  0  0  0
  2  3  1  0  0  0
  2 25  1  0  0  0
  2 83  1  0  0  0
  2 84  1  0  0  0
  3  4  1  0  0  0
  3 85  1  0  0  0
  3 86  1  0  0  0
  4  5  1  0  0  0
  4 87  1  0  0  0
  4 88  1  0  0  0
  5  6  1  0  0  0
  5 26  1  0  0  0
  5 89  1  0  0  0
  6 25  1  0  0  0
  6 90  1  0  0  0
  6 91  1  0  0  0
  7  8  2  0  0  0
  7 26  1  0  0  0
  7 29  1  0  0  0
  8  9  1  0  0  0
  8 22  1  0  0  0
  9 10  1  0  0  0
  9 27  2  0  0  0
 10 11  2  0  0  0
 10 15  1  0  0  0
 11 12  1  0  0  0
 11 92  1  0  0  0
 12 13  2  0  0  0
 12 93  1  0  0  0
 13 14  1  0  0  0
 13 31  1  0  0  0
 14 15  2  0  0  0
 14 94  1  0  0  0
 15 95  1  0  0  0
 16 17  2  0  0  0
 16 21  1  0  0  0
 16 31  1  0  0  0
 17 18  1  0  0  0
 17 96  1  0  0  0
 18 19  2  0  0  0
 18 97  1  0  0  0
 19 20  1  0  0  0
 19 24  1  0  0  0
 20 21  2  0  0  0
 20 98  1  0  0  0
 21 23  1  0  0  0
 22 28  1  0  0  0
 22 32  2  0  0  0
 26 27  1  0  0  0
 28 99  1  0  0  0
 28100  1  0  0  0
 29101  1  0  0  0
 29102  1  0  0  0
 33 34  1  0  0  0
 33 66  1  0  0  0
 33 70  2  0  0  0
 34 36  1  0  0  0
 34 59  1  0  0  0
 34103  1  0  0  0
 35 44  2  0  0  0
 35 45  1  0  0  0
 35 68  1  0  0  0
 36 56  1  0  0  0
 36104  1  0  0  0
 37 39  1  0  0  0
 37 47  1  0  0  0
 37 66  1  0  0  0
 37105  1  0  0  0
 38 43  2  0  0  0
 38 46  1  0  0  0
 38 47  1  0  0  0
 39 64  1  0  0  0
 39 67  2  0  0  0
 40 52  1  0  0  0
 40 53  2  0  0  0
 40 58  1  0  0  0
 41106  1  0  0  0
 41107  1  0  0  0
 41108  1  0  0  0
 41 48  1  0  0  0
 42 43  1  0  0  0
 42 66  1  0  0  0
 42109  1  0  0  0
 42110  1  0  0  0
 43 44  1  0  0  0
 44111  1  0  0  0
 45 46  2  0  0  0
 45112  1  0  0  0
 46113  1  0  0  0
 47114  1  0  0  0
 47115  1  0  0  0
 48 56  1  0  0  0
 48 65  1  0  0  0
 48116  1  0  0  0
 49 50  1  0  0  0
 49 53  1  0  0  0
 49 64  1  0  0  0
 49117  1  0  0  0
 50 51  1  0  0  0
 50118  1  0  0  0
 50119  1  0  0  0
 51 52  1  0  0  0
 51120  1  0  0  0
 51121  1  0  0  0
 52122  1  0  0  0
 52123  1  0  0  0
 53 54  1  0  0  0
 54 55  2  0  0  0
 54124  1  0  0  0
 55 57  1  0  0  0
 55125  1  0  0  0
 56 69  2  0  0  0
 57 58  2  0  0  0
 57126  1  0  0  0
 58127  1  0  0  0
 59 60  1  0  0  0
 59 61  1  0  0  0
 59 62  1  0  0  0
 60128  1  0  0  0
 60129  1  0  0  0
 60130  1  0  0  0
 61131  1  0  0  0
 61132  1  0  0  0
 61133  1  0  0  0
 62134  1  0  0  0
 62135  1  0  0  0
 62136  1  0  0  0
 63 65  1  0  0  0
 63137  1  0  0  0
 63138  1  0  0  0
 63139  1  0  0  0
 64140  1  0  0  0
 65141  1  0  0  0
 68 77  1  0  0  0
 71 72  2  0  0  0
 71 80  1  0  0  0
 71142  1  0  0  0
 72 77  1  0  0  0
 72 81  1  0  0  0
 73 79  1  0  0  0
 73 80  1  0  0  0
 73 81  2  0  0  0
 74143  1  0  0  0
 74144  1  0  0  0
 74145  1  0  0  0
 74 79  1  0  0  0
 75 79  1  0  0  0
 75146  1  0  0  0
 75147  1  0  0  0
 75148  1  0  0  0
 76 80  1  0  0  0
 76149  1  0  0  0
 76150  1  0  0  0
 76151  1  0  0  0
 77152  1  0  0  0
 77153  1  0  0  0
 78 79  1  0  0  0
 78 82  1  0  0  0
 78154  1  0  0  0
 78155  1  0  0  0
 81156  1  0  0  0
 82157  1  0  0  0
M  CHG  1  81   1
M  ISO  4   1 100  68 101  77 101  82 100
M  END
> <chiral flag>
0

> <version>
0

> <s_m_source_file>
/data/baiqing/PycharmProjects/Reinvent-master-3.2/result/LINK_invent/BTK/process_docking_weight1_custom_sum_contain_oxygen_bond_distance_aromatic_linkinvent_7_9_3/rearranged_h_0063.sdf

> <i_m_source_file_index>
74

> <r_mmod_Potential_Energy-OPLS-2005>
739.7900390625

> <r_mmod_Stretch_Energy-OPLS-2005>
384.318634033203

> <r_mmod_Bend_Energy-OPLS-2005>
389.197814941406

> <r_mmod_Torsional_Energy-OPLS-2005>
268.082336425781

> <r_mmod_Improper_Torsional_Energy-OPLS-2005>
5.52747440338135

> <r_mmod_Van_der_Waal_Energy-OPLS-2005>
125.305961608887

> <r_mmod_Electrostatic_Energy-OPLS-2005>
-275.056518554688

> <r_mmod_Solvation_Energy-OPLS-2005>
-428.720336914062

> <b_mmod_Minimization_Converged-OPLS-2005>
0

> <r_mmod_RMS_Derivative-OPLS-2005>
2.19452381134033

$$$$
77
                    3D
 Structure written by MMmdl.
170178  0  0  1  0            999 V2000
  -30.7635  -14.3837   20.7530 C   0  0  0  0  0  0
  -30.4264  -12.3178   19.4091 C   0  0  0  0  0  0
  -29.4942  -12.5296   18.1987 C   0  0  0  0  0  0
  -28.0162  -12.3626   18.6019 C   0  0  0  0  0  0
  -27.6663  -13.1854   19.8644 C   0  0  2  0  0  0
  -28.6949  -12.9068   20.9809 C   0  0  0  0  0  0
  -25.2638  -13.8130   20.5574 C   0  0  0  0  0  0
  -24.1866  -13.0430   20.9110 C   0  0  0  0  0  0
  -24.6395  -11.6887   20.8683 C   0  0  0  0  0  0
  -23.9065  -10.4289   21.0385 C   0  0  0  0  0  0
  -24.3632   -9.4218   21.9166 C   0  0  0  0  0  0
  -23.6296   -8.2268   22.0769 C   0  0  0  0  0  0
  -22.4274   -8.0304   21.3565 C   0  0  0  0  0  0
  -21.9904   -9.0267   20.4661 C   0  0  0  0  0  0
  -22.7241  -10.2136   20.3039 C   0  0  0  0  0  0
  -21.6854   -6.0754   22.5304 C   0  0  0  0  0  0
  -21.4015   -6.5648   23.8240 C   0  0  0  0  0  0
  -21.3645   -5.6795   24.9196 C   0  0  0  0  0  0
  -21.6034   -4.3056   24.7244 C   0  0  0  0  0  0
  -21.8818   -3.8157   23.4360 C   0  0  0  0  0  0
  -21.9193   -4.6982   22.3420 C   0  0  0  0  0  0
  -22.7903  -13.5263   21.1789 C   0  0  0  0  0  0
  -22.1657   -4.2167   21.0997 F   0  0  0  0  0  0
  -21.5624   -3.4534   25.7754 F   0  0  0  0  0  0
  -30.0382  -13.2534   20.4856 N   0  0  0  0  0  0
  -26.3038  -12.9246   20.3228 N   0  0  0  0  0  0
  -25.9309  -11.6425   20.5672 N   0  0  0  0  0  0
  -22.0526  -12.8280   22.0359 N   0  0  0  0  0  0
  -25.4368  -15.1848   20.4023 N   0  0  0  0  0  0
  -31.7434  -14.6495   20.0428 O   0  0  0  0  0  0
  -21.6629   -6.8903   21.4269 O   0  0  0  0  0  0
  -22.3605  -14.5562   20.6641 O   0  0  0  0  0  0
  -24.6126  -31.8750   23.2124 C   0  0  0  0  0  0
  -25.9042  -32.4870   23.8405 C   0  0  1  0  0  0
  -27.2331  -27.4655   20.0795 C   0  0  0  0  0  0
  -25.5927  -33.8660   24.2355 N   0  0  0  0  0  0
  -23.3956  -30.5031   21.5514 C   0  0  2  0  0  0
  -24.8380  -28.9713   20.1182 C   0  0  0  0  0  0
  -22.7396  -29.4708   22.4969 C   0  0  0  0  0  0
  -18.0279  -28.1370   22.8505 C   0  0  0  0  0  0
  -24.1486  -36.7319   23.2633 C   0  0  0  0  0  0
  -25.9214  -30.8481   21.3612 C   0  0  0  0  0  0
  -25.9960  -29.4824   20.7141 C   0  0  0  0  0  0
  -27.1913  -28.7311   20.7035 C   0  0  0  0  0  0
  -26.0459  -26.9554   19.5001 C   0  0  0  0  0  0
  -24.8555  -27.7040   19.5140 C   0  0  0  0  0  0
  -23.6022  -29.8385   20.1645 C   0  0  0  0  0  0
  -25.4105  -36.3125   24.0334 C   0  0  1  0  0  0
  -20.5873  -28.3658   23.1315 C   0  0  2  0  0  0
  -20.6761  -26.9396   22.5402 C   0  0  0  0  0  0
  -19.5746  -26.6367   21.5204 C   0  0  0  0  0  0
  -18.1924  -26.7914   22.1615 C   0  0  0  0  0  0
  -19.1531  -28.8834   23.2913 C   0  0  0  0  0  0
  -18.9450  -30.1441   23.8922 C   0  0  0  0  0  0
  -17.6453  -30.6577   24.0582 C   0  0  0  0  0  0
  -25.9050  -34.9495   23.5132 C   0  0  0  0  0  0
  -16.5350  -29.9074   23.6340 C   0  0  0  0  0  0
  -16.7263  -28.6496   23.0350 C   0  0  0  0  0  0
  -26.4468  -31.6645   25.0730 C   0  0  0  0  0  0
  -25.3730  -31.3740   26.1484 C   0  0  0  0  0  0
  -27.0288  -30.3084   24.6091 C   0  0  0  0  0  0
  -27.6050  -32.4344   25.7505 C   0  0  0  0  0  0
  -27.5581  -37.1807   24.8469 C   0  0  0  0  0  0
  -21.4137  -29.3037   22.3723 N   0  0  0  0  0  0
  -26.4299  -37.3817   23.9421 N   0  0  0  0  0  0
  -24.6609  -31.0892   22.1012 N   0  0  0  0  0  0
  -23.4206  -28.8234   23.2969 O   0  0  0  0  0  0
  -28.4392  -26.7961   20.0633 O   0  0  0  0  0  0
  -26.5588  -34.8927   22.4682 O   0  0  0  0  0  0
  -23.5331  -32.1470   23.7552 O   0  0  0  0  0  0
  -33.6089  -16.9496   22.8107 C   0  0  0  0  0  0
  -31.5502  -16.4198   22.1303 C   0  0  0  0  0  0
  -32.2306  -18.5459   22.1945 C   0  0  0  0  0  0
  -27.6759  -23.3795   18.7357 C   0  0  0  0  0  0
  -29.0686  -16.1070   21.6168 C   0  0  0  0  0  0
  -30.2801  -14.6693   23.3179 C   0  0  0  0  0  0
  -29.1489  -24.4510   22.1028 C   0  0  0  0  0  0
  -30.6792  -21.8359   21.4592 C   0  0  0  0  0  0
  -29.3479  -22.3272   20.8481 C   0  0  0  0  0  0
  -30.7659  -20.2994   21.4760 C   0  0  0  0  0  0
  -28.6019  -25.6815   19.1879 C   0  0  0  0  0  0
  -28.1538  -24.3480   19.8451 C   0  0  2  0  0  0
  -30.4084  -15.3709   21.9351 C   0  0  0  0  0  0
  -32.7235  -15.9858   22.5957 N   0  0  0  0  0  0
  -33.4383  -18.2525   22.6376 N   0  0  0  0  0  0
  -31.2441  -17.7021   21.9322 N   0  0  0  0  0  0
  -29.2304  -23.8173   20.7566 N   0  3  1  0  0  0
  -32.0159  -19.8728   22.0253 O   0  0  0  0  0  0
  -31.4667  -12.4351   19.0992 H   0  0  0  0  0  0
  -30.3523  -11.2902   19.7683 H   0  0  0  0  0  0
  -29.7445  -11.8258   17.4044 H   0  0  0  0  0  0
  -29.6535  -13.5280   17.7866 H   0  0  0  0  0  0
  -27.8341  -11.3031   18.7889 H   0  0  0  0  0  0
  -27.3658  -12.6436   17.7733 H   0  0  0  0  0  0
  -27.7270  -14.2359   19.5818 H   0  0  0  0  0  0
  -28.6757  -11.8517   21.2564 H   0  0  0  0  0  0
  -28.3737  -13.4181   21.8742 H   0  0  0  0  0  0
  -25.2796   -9.5691   22.4701 H   0  0  0  0  0  0
  -24.0004   -7.4669   22.7504 H   0  0  0  0  0  0
  -21.0826   -8.8796   19.8971 H   0  0  0  0  0  0
  -22.3719  -10.9667   19.6128 H   0  0  0  0  0  0
  -21.1997   -7.6156   23.9759 H   0  0  0  0  0  0
  -21.1451   -6.0514   25.9101 H   0  0  0  0  0  0
  -22.0595   -2.7621   23.2862 H   0  0  0  0  0  0
  -22.4127  -11.9942   22.4742 H   0  0  0  0  0  0
  -21.1165  -13.1358   22.2551 H   0  0  0  0  0  0
  -24.6709  -15.8390   20.5207 H   0  0  0  0  0  0
  -26.2920  -15.6295   20.0926 H   0  0  0  0  0  0
  -26.7122  -32.5605   23.1179 H   0  0  0  0  0  0
  -25.0179  -33.9849   25.0565 H   0  0  0  0  0  0
  -22.6835  -31.3208   21.4152 H   0  0  0  0  0  0
  -23.3758  -35.9657   23.3326 H   0  0  0  0  0  0
  -24.3582  -36.8907   22.2050 H   0  0  0  0  0  0
  -23.7213  -37.6510   23.6643 H   0  0  0  0  0  0
  -26.0214  -31.6120   20.5889 H   0  0  0  0  0  0
  -26.8143  -30.9036   21.9734 H   0  0  0  0  0  0
  -28.0869  -29.1315   21.1559 H   0  0  0  0  0  0
  -26.0098  -25.9847   19.0300 H   0  0  0  0  0  0
  -23.9612  -27.3030   19.0593 H   0  0  0  0  0  0
  -23.7088  -30.6163   19.4061 H   0  0  0  0  0  0
  -22.7263  -29.2601   19.8658 H   0  0  0  0  0  0
  -25.1256  -36.2002   25.0822 H   0  0  0  0  0  0
  -20.9985  -28.3192   24.1431 H   0  0  0  0  0  0
  -20.5667  -26.2261   23.3583 H   0  0  0  0  0  0
  -21.6622  -26.7417   22.1196 H   0  0  0  0  0  0
  -19.6910  -25.6274   21.1240 H   0  0  0  0  0  0
  -19.6688  -27.3201   20.6765 H   0  0  0  0  0  0
  -17.4186  -26.6715   21.4014 H   0  0  0  0  0  0
  -18.0308  -26.0019   22.8978 H   0  0  0  0  0  0
  -19.7931  -30.7266   24.2279 H   0  0  0  0  0  0
  -17.5005  -31.6268   24.5170 H   0  0  0  0  0  0
  -15.5358  -30.2995   23.7627 H   0  0  0  0  0  0
  -15.8662  -28.0834   22.7037 H   0  0  0  0  0  0
  -24.5928  -30.7062   25.7794 H   0  0  0  0  0  0
  -24.8910  -32.2910   26.4894 H   0  0  0  0  0  0
  -25.8063  -30.8921   27.0262 H   0  0  0  0  0  0
  -26.2818  -29.6884   24.1129 H   0  0  0  0  0  0
  -27.4035  -29.7277   25.4531 H   0  0  0  0  0  0
  -27.8663  -30.4381   23.9232 H   0  0  0  0  0  0
  -27.2683  -33.3644   26.2078 H   0  0  0  0  0  0
  -28.3864  -32.6903   25.0346 H   0  0  0  0  0  0
  -28.0726  -31.8481   26.5422 H   0  0  0  0  0  0
  -28.2574  -38.0125   24.7517 H   0  0  0  0  0  0
  -28.1069  -36.2641   24.6263 H   0  0  0  0  0  0
  -27.2301  -37.1402   25.8872 H   0  0  0  0  0  0
  -20.9289  -29.8827   21.7013 H   0  0  0  0  0  0
  -26.0188  -38.2895   24.1427 H   0  0  0  0  0  0
  -34.5778  -16.6368   23.1711 H   0  0  0  0  0  0
  -26.8851  -23.8408   18.1423 H   0  0  0  0  0  0
  -27.2439  -22.4653   19.1446 H   0  0  0  0  0  0
  -28.4797  -23.1133   18.0470 H   0  0  0  0  0  0
  -28.7795  -16.7620   22.4386 H   0  0  0  0  0  0
  -28.2179  -15.4592   21.4536 H   0  0  0  0  0  0
  -29.1543  -16.7259   20.7218 H   0  0  0  0  0  0
  -30.2039  -15.4168   24.1062 H   0  0  0  0  0  0
  -31.1585  -14.0617   23.5371 H   0  0  0  0  0  0
  -29.4168  -14.0326   23.4567 H   0  0  0  0  0  0
  -30.0099  -24.2122   22.7256 H   0  0  0  0  0  0
  -28.2506  -24.1355   22.6357 H   0  0  0  0  0  0
  -29.1281  -25.5369   22.0383 H   0  0  0  0  0  0
  -30.7946  -22.1884   22.4835 H   0  0  0  0  0  0
  -31.5169  -22.2406   20.8892 H   0  0  0  0  0  0
  -28.5013  -21.9246   21.4051 H   0  0  0  0  0  0
  -29.3067  -21.8745   19.8589 H   0  0  0  0  0  0
  -30.6652  -19.8991   20.4643 H   0  0  0  0  0  0
  -29.9379  -19.9090   22.0710 H   0  0  0  0  0  0
  -28.0841  -25.8655   18.2453 H   0  0  0  0  0  0
  -29.6546  -25.6276   18.9079 H   0  0  0  0  0  0
  -27.2679  -24.5322   20.4530 H   0  0  0  0  0  0
  -30.1047  -24.1363   20.3607 H   0  0  0  0  0  0
  1 25  1  0  0  0
  1 30  2  0  0  0
  1 83  1  0  0  0
  2  3  1  0  0  0
  2 25  1  0  0  0
  2 89  1  0  0  0
  2 90  1  0  0  0
  3  4  1  0  0  0
  3 91  1  0  0  0
  3 92  1  0  0  0
  4  5  1  0  0  0
  4 93  1  0  0  0
  4 94  1  0  0  0
  5  6  1  0  0  0
  5 26  1  0  0  0
  5 95  1  0  0  0
  6 25  1  0  0  0
  6 96  1  0  0  0
  6 97  1  0  0  0
  7  8  2  0  0  0
  7 26  1  0  0  0
  7 29  1  0  0  0
  8  9  1  0  0  0
  8 22  1  0  0  0
  9 10  1  0  0  0
  9 27  2  0  0  0
 10 11  2  0  0  0
 10 15  1  0  0  0
 11 12  1  0  0  0
 11 98  1  0  0  0
 12 13  2  0  0  0
 12 99  1  0  0  0
 13 14  1  0  0  0
 13 31  1  0  0  0
 14 15  2  0  0  0
 14100  1  0  0  0
 15101  1  0  0  0
 16 17  2  0  0  0
 16 21  1  0  0  0
 16 31  1  0  0  0
 17 18  1  0  0  0
 17102  1  0  0  0
 18 19  2  0  0  0
 18103  1  0  0  0
 19 20  1  0  0  0
 19 24  1  0  0  0
 20 21  2  0  0  0
 20104  1  0  0  0
 21 23  1  0  0  0
 22 28  1  0  0  0
 22 32  2  0  0  0
 26 27  1  0  0  0
 28105  1  0  0  0
 28106  1  0  0  0
 29107  1  0  0  0
 29108  1  0  0  0
 33 34  1  0  0  0
 33 66  1  0  0  0
 33 70  2  0  0  0
 34 36  1  0  0  0
 34 59  1  0  0  0
 34109  1  0  0  0
 35 44  2  0  0  0
 35 45  1  0  0  0
 35 68  1  0  0  0
 36 56  1  0  0  0
 36110  1  0  0  0
 37 39  1  0  0  0
 37 47  1  0  0  0
 37 66  1  0  0  0
 37111  1  0  0  0
 38 43  2  0  0  0
 38 46  1  0  0  0
 38 47  1  0  0  0
 39 64  1  0  0  0
 39 67  2  0  0  0
 40 52  1  0  0  0
 40 53  2  0  0  0
 40 58  1  0  0  0
 41112  1  0  0  0
 41113  1  0  0  0
 41114  1  0  0  0
 41 48  1  0  0  0
 42 43  1  0  0  0
 42 66  1  0  0  0
 42115  1  0  0  0
 42116  1  0  0  0
 43 44  1  0  0  0
 44117  1  0  0  0
 45 46  2  0  0  0
 45118  1  0  0  0
 46119  1  0  0  0
 47120  1  0  0  0
 47121  1  0  0  0
 48 56  1  0  0  0
 48 65  1  0  0  0
 48122  1  0  0  0
 49 50  1  0  0  0
 49 53  1  0  0  0
 49 64  1  0  0  0
 49123  1  0  0  0
 50 51  1  0  0  0
 50124  1  0  0  0
 50125  1  0  0  0
 51 52  1  0  0  0
 51126  1  0  0  0
 51127  1  0  0  0
 52128  1  0  0  0
 52129  1  0  0  0
 53 54  1  0  0  0
 54 55  2  0  0  0
 54130  1  0  0  0
 55 57  1  0  0  0
 55131  1  0  0  0
 56 69  2  0  0  0
 57 58  2  0  0  0
 57132  1  0  0  0
 58133  1  0  0  0
 59 60  1  0  0  0
 59 61  1  0  0  0
 59 62  1  0  0  0
 60134  1  0  0  0
 60135  1  0  0  0
 60136  1  0  0  0
 61137  1  0  0  0
 61138  1  0  0  0
 61139  1  0  0  0
 62140  1  0  0  0
 62141  1  0  0  0
 62142  1  0  0  0
 63 65  1  0  0  0
 63143  1  0  0  0
 63144  1  0  0  0
 63145  1  0  0  0
 64146  1  0  0  0
 65147  1  0  0  0
 68 81  1  0  0  0
 71 84  2  0  0  0
 71 85  1  0  0  0
 71148  1  0  0  0
 72 83  1  0  0  0
 72 84  1  0  0  0
 72 86  2  0  0  0
 73 85  2  0  0  0
 73 86  1  0  0  0
 73 88  1  0  0  0
 74149  1  0  0  0
 74150  1  0  0  0
 74151  1  0  0  0
 74 82  1  0  0  0
 75152  1  0  0  0
 75153  1  0  0  0
 75154  1  0  0  0
 75 83  1  0  0  0
 76 83  1  0  0  0
 76155  1  0  0  0
 76156  1  0  0  0
 76157  1  0  0  0
 77158  1  0  0  0
 77159  1  0  0  0
 77160  1  0  0  0
 77 87  1  0  0  0
 78 79  1  0  0  0
 78 80  1  0  0  0
 78161  1  0  0  0
 78162  1  0  0  0
 79 87  1  0  0  0
 79163  1  0  0  0
 79164  1  0  0  0
 80 88  1  0  0  0
 80165  1  0  0  0
 80166  1  0  0  0
 81 82  1  0  0  0
 81167  1  0  0  0
 81168  1  0  0  0
 82 87  1  0  0  0
 82169  1  0  0  0
 87170  1  0  0  0
M  CHG  1  87   1
M  ISO  4   1 100  68 101  81 101  83 100
M  END
> <chiral flag>
0

> <version>
0

> <s_m_source_file>
/data/baiqing/PycharmProjects/Reinvent-master-3.2/result/LINK_invent/BTK/process_docking_weight1_custom_sum_contain_oxygen_bond_distance_aromatic_linkinvent_7_9_3/rearranged_h_0063.sdf

> <i_m_source_file_index>
75

> <r_mmod_Potential_Energy-OPLS-2005>
-608.624389648438

> <r_mmod_Stretch_Energy-OPLS-2005>
48.3354911804199

> <r_mmod_Bend_Energy-OPLS-2005>
128.615432739258

> <r_mmod_Torsional_Energy-OPLS-2005>
202.49169921875

> <r_mmod_Improper_Torsional_Energy-OPLS-2005>
1.9305225610733

> <r_mmod_Van_der_Waal_Energy-OPLS-2005>
219.516738891602

> <r_mmod_Electrostatic_Energy-OPLS-2005>
-803.661254882812

> <r_mmod_Solvation_Energy-OPLS-2005>
-415.727447509766

> <b_mmod_Minimization_Converged-OPLS-2005>
0

> <r_mmod_RMS_Derivative-OPLS-2005>
3.58737277984619

$$$$
78
                    3D
 Structure written by MMmdl.
157165  0  0  1  0            999 V2000
  -30.4267  -15.3351   20.2954 C   0  0  0  0  0  0
  -30.4426  -12.8465   19.5195 C   0  0  0  0  0  0
  -29.5389  -12.5626   18.2933 C   0  0  0  0  0  0
  -28.0964  -12.2478   18.7311 C   0  0  0  0  0  0
  -27.6017  -13.2337   19.8133 C   0  0  2  0  0  0
  -28.6396  -13.4970   20.9264 C   0  0  0  0  0  0
  -25.2374  -13.8057   20.5754 C   0  0  0  0  0  0
  -24.1715  -13.0307   20.9290 C   0  0  0  0  0  0
  -24.6345  -11.6806   20.8805 C   0  0  0  0  0  0
  -23.9023  -10.4218   21.0439 C   0  0  0  0  0  0
  -24.3589   -9.4148   21.9209 C   0  0  0  0  0  0
  -23.6271   -8.2185   22.0768 C   0  0  0  0  0  0
  -22.4256   -8.0242   21.3545 C   0  0  0  0  0  0
  -21.9891   -9.0213   20.4642 C   0  0  0  0  0  0
  -22.7213  -10.2090   20.3071 C   0  0  0  0  0  0
  -21.6832   -6.0707   22.5277 C   0  0  0  0  0  0
  -21.3996   -6.5617   23.8210 C   0  0  0  0  0  0
  -21.3659   -5.6779   24.9178 C   0  0  0  0  0  0
  -21.6053   -4.3044   24.7232 C   0  0  0  0  0  0
  -21.8819   -3.8126   23.4356 C   0  0  0  0  0  0
  -21.9198   -4.6939   22.3409 C   0  0  0  0  0  0
  -22.7755  -13.5126   21.1898 C   0  0  0  0  0  0
  -22.1681   -4.2126   21.0989 F   0  0  0  0  0  0
  -21.5637   -3.4537   25.7738 F   0  0  0  0  0  0
  -29.8669  -14.0143   20.2875 N   0  0  0  0  0  0
  -26.2784  -12.9264   20.3256 N   0  0  0  0  0  0
  -25.9275  -11.6419   20.5779 N   0  0  0  0  0  0
  -22.0396  -12.8155   22.0467 N   0  0  0  0  0  0
  -25.3923  -15.1764   20.4115 N   0  0  0  0  0  0
  -31.6657  -15.2655   20.2906 O   0  0  0  0  0  0
  -21.6625   -6.8837   21.4232 O   0  0  0  0  0  0
  -22.3465  -14.5435   20.6718 O   0  0  0  0  0  0
  -24.6624  -31.8243   23.1675 C   0  0  0  0  0  0
  -25.9309  -32.4595   23.8161 C   0  0  1  0  0  0
  -27.2357  -26.9267   20.1892 C   0  0  0  0  0  0
  -25.5969  -33.8404   24.2074 N   0  0  0  0  0  0
  -23.4807  -30.4299   21.5192 C   0  0  2  0  0  0
  -24.9364  -28.8118   20.1182 C   0  0  0  0  0  0
  -22.7674  -29.4418   22.4793 C   0  0  0  0  0  0
  -18.0321  -28.1411   22.8470 C   0  0  0  0  0  0
  -24.1496  -36.7202   23.2646 C   0  0  0  0  0  0
  -26.0466  -30.6302   21.3995 C   0  0  0  0  0  0
  -26.1209  -29.2180   20.7462 C   0  0  0  0  0  0
  -27.2650  -28.2981   20.7525 C   0  0  0  0  0  0
  -26.0186  -26.6711   19.5190 C   0  0  0  0  0  0
  -24.9091  -27.5583   19.4862 C   0  0  0  0  0  0
  -23.7232  -29.7410   20.1470 C   0  0  0  0  0  0
  -25.4144  -36.2976   24.0297 C   0  0  1  0  0  0
  -20.5948  -28.3756   23.1188 C   0  0  2  0  0  0
  -20.6802  -26.9439   22.5403 C   0  0  0  0  0  0
  -19.5780  -26.6377   21.5216 C   0  0  0  0  0  0
  -18.1958  -26.7950   22.1621 C   0  0  0  0  0  0
  -19.1585  -28.8904   23.2807 C   0  0  0  0  0  0
  -18.9497  -30.1489   23.8842 C   0  0  0  0  0  0
  -17.6497  -30.6604   24.0551 C   0  0  0  0  0  0
  -25.9108  -34.9356   23.5014 C   0  0  0  0  0  0
  -16.5381  -29.9096   23.6340 C   0  0  0  0  0  0
  -16.7299  -28.6512   23.0362 C   0  0  0  0  0  0
  -26.4559  -31.6534   25.0683 C   0  0  0  0  0  0
  -25.3677  -31.3777   26.1332 C   0  0  0  0  0  0
  -27.0467  -30.2900   24.6422 C   0  0  0  0  0  0
  -27.6064  -32.4333   25.7482 C   0  0  0  0  0  0
  -27.5579  -37.1761   24.8469 C   0  0  0  0  0  0
  -21.4341  -29.3041   22.3542 N   0  0  0  0  0  0
  -26.4293  -37.3710   23.9406 N   0  0  0  0  0  0
  -24.7502  -30.9888   22.0824 N   0  0  0  0  0  0
  -23.4208  -28.8010   23.3061 O   0  0  0  0  0  0
  -28.2637  -25.8434   20.2437 O   0  0  0  0  0  0
  -26.5720  -34.8891   22.4606 O   0  0  0  0  0  0
  -23.5691  -32.1215   23.6759 O   0  0  0  0  0  0
  -28.5718  -20.2210   21.4546 C   0  0  0  0  0  0
  -29.6955  -19.8691   19.7399 C   0  0  0  0  0  0
  -29.1269  -21.0429   20.4001 C   0  0  0  0  0  0
  -30.0465  -23.0361   18.9558 C   0  0  0  0  0  0
  -30.1314  -23.1912   21.4298 C   0  0  0  0  0  0
  -30.4755  -17.1164   18.4480 C   0  0  0  0  0  0
  -28.2678  -16.5958   19.3707 C   0  0  0  0  0  0
  -28.0619  -24.1977   20.2293 C   0  0  0  0  0  0
  -29.2302  -22.8159   20.2418 C   0  0  0  0  0  0
  -29.7080  -16.9023   19.7756 C   0  0  0  0  0  0
  -28.7915  -18.8580   21.4178 N   0  0  0  0  0  0
  -29.5641  -18.4955   20.3409 N   0  0  0  0  0  0
  -31.4550  -13.0631   19.1760 H   0  0  0  0  0  0
  -30.5310  -11.9627   20.1540 H   0  0  0  0  0  0
  -29.9395  -11.7330   17.7086 H   0  0  0  0  0  0
  -29.5436  -13.4337   17.6358 H   0  0  0  0  0  0
  -28.0834  -11.2328   19.1298 H   0  0  0  0  0  0
  -27.4249  -12.2481   17.8720 H   0  0  0  0  0  0
  -27.4590  -14.1433   19.2552 H   0  0  0  0  0  0
  -28.8377  -12.5924   21.5035 H   0  0  0  0  0  0
  -28.2590  -14.2364   21.6326 H   0  0  0  0  0  0
  -25.2727   -9.5622   22.4784 H   0  0  0  0  0  0
  -23.9976   -7.4557   22.7467 H   0  0  0  0  0  0
  -21.0831   -8.8715   19.8923 H   0  0  0  0  0  0
  -22.3675  -10.9638   19.6180 H   0  0  0  0  0  0
  -21.1973   -7.6115   23.9699 H   0  0  0  0  0  0
  -21.1496   -6.0512   25.9074 H   0  0  0  0  0  0
  -22.0607   -2.7583   23.2862 H   0  0  0  0  0  0
  -22.4039  -11.9841   22.4876 H   0  0  0  0  0  0
  -21.1016  -13.1190   22.2643 H   0  0  0  0  0  0
  -24.6190  -15.8247   20.5108 H   0  0  0  0  0  0
  -26.2359  -15.6147   20.0657 H   0  0  0  0  0  0
  -26.7372  -32.5146   23.0883 H   0  0  0  0  0  0
  -25.0046  -33.9494   25.0175 H   0  0  0  0  0  0
  -22.7930  -31.2596   21.3440 H   0  0  0  0  0  0
  -23.3783  -35.9504   23.3288 H   0  0  0  0  0  0
  -24.3563  -36.8872   22.2060 H   0  0  0  0  0  0
  -23.7232  -37.6369   23.6722 H   0  0  0  0  0  0
  -26.2284  -31.3763   20.6251 H   0  0  0  0  0  0
  -26.9046  -30.6877   22.0580 H   0  0  0  0  0  0
  -28.1635  -28.6114   21.2661 H   0  0  0  0  0  0
  -25.8969  -25.7153   19.0301 H   0  0  0  0  0  0
  -24.0099  -27.2379   18.9783 H   0  0  0  0  0  0
  -23.8801  -30.5083   19.3877 H   0  0  0  0  0  0
  -22.8344  -29.1937   19.8289 H   0  0  0  0  0  0
  -25.1349  -36.1768   25.0787 H   0  0  0  0  0  0
  -21.0011  -28.3362   24.1323 H   0  0  0  0  0  0
  -20.5693  -26.2376   23.3647 H   0  0  0  0  0  0
  -21.6668  -26.7432   22.1208 H   0  0  0  0  0  0
  -19.6945  -25.6270   21.1290 H   0  0  0  0  0  0
  -19.6719  -27.3151   20.6716 H   0  0  0  0  0  0
  -17.4229  -26.6672   21.4019 H   0  0  0  0  0  0
  -18.0345  -26.0104   22.9027 H   0  0  0  0  0  0
  -19.7972  -30.7306   24.2201 H   0  0  0  0  0  0
  -17.5053  -31.6285   24.5160 H   0  0  0  0  0  0
  -15.5383  -30.2985   23.7699 H   0  0  0  0  0  0
  -15.8698  -28.0813   22.7119 H   0  0  0  0  0  0
  -24.5854  -30.7159   25.7603 H   0  0  0  0  0  0
  -24.8876  -32.2978   26.4668 H   0  0  0  0  0  0
  -25.7879  -30.8962   27.0177 H   0  0  0  0  0  0
  -26.3135  -29.6559   24.1424 H   0  0  0  0  0  0
  -27.4000  -29.7279   25.5083 H   0  0  0  0  0  0
  -27.9081  -30.4088   23.9845 H   0  0  0  0  0  0
  -27.2652  -33.3678   26.1958 H   0  0  0  0  0  0
  -28.3925  -32.6828   25.0342 H   0  0  0  0  0  0
  -28.0691  -31.8527   26.5482 H   0  0  0  0  0  0
  -28.2587  -38.0067   24.7525 H   0  0  0  0  0  0
  -28.1090  -36.2598   24.6302 H   0  0  0  0  0  0
  -27.2291  -37.1400   25.8869 H   0  0  0  0  0  0
  -20.9605  -29.8715   21.6652 H   0  0  0  0  0  0
  -26.0146  -38.2766   24.1416 H   0  0  0  0  0  0
  -28.0163  -20.5930   22.3058 H   0  0  0  0  0  0
  -30.2435  -19.9091   18.8096 H   0  0  0  0  0  0
  -30.9654  -22.4494   18.9535 H   0  0  0  0  0  0
  -30.3351  -24.0817   18.8403 H   0  0  0  0  0  0
  -29.4739  -22.7584   18.0710 H   0  0  0  0  0  0
  -31.0534  -22.6083   21.4391 H   0  0  0  0  0  0
  -29.6225  -23.0107   22.3769 H   0  0  0  0  0  0
  -30.4103  -24.2452   21.4063 H   0  0  0  0  0  0
  -29.9539  -17.7998   17.7784 H   0  0  0  0  0  0
  -30.6057  -16.1869   17.8876 H   0  0  0  0  0  0
  -31.4687  -17.5266   18.6351 H   0  0  0  0  0  0
  -27.7420  -17.4822   19.0131 H   0  0  0  0  0  0
  -27.7268  -16.2283   20.2355 H   0  0  0  0  0  0
  -28.2341  -15.8819   18.5518 H   0  0  0  0  0  0
  -27.4131  -24.0231   21.0888 H   0  0  0  0  0  0
  -27.4208  -24.0103   19.3686 H   0  0  0  0  0  0
  1 25  1  0  0  0
  1 30  2  0  0  0
  1 80  1  0  0  0
  2  3  1  0  0  0
  2 25  1  0  0  0
  2 83  1  0  0  0
  2 84  1  0  0  0
  3  4  1  0  0  0
  3 85  1  0  0  0
  3 86  1  0  0  0
  4  5  1  0  0  0
  4 87  1  0  0  0
  4 88  1  0  0  0
  5  6  1  0  0  0
  5 26  1  0  0  0
  5 89  1  0  0  0
  6 25  1  0  0  0
  6 90  1  0  0  0
  6 91  1  0  0  0
  7  8  2  0  0  0
  7 26  1  0  0  0
  7 29  1  0  0  0
  8  9  1  0  0  0
  8 22  1  0  0  0
  9 10  1  0  0  0
  9 27  2  0  0  0
 10 11  2  0  0  0
 10 15  1  0  0  0
 11 12  1  0  0  0
 11 92  1  0  0  0
 12 13  2  0  0  0
 12 93  1  0  0  0
 13 14  1  0  0  0
 13 31  1  0  0  0
 14 15  2  0  0  0
 14 94  1  0  0  0
 15 95  1  0  0  0
 16 17  2  0  0  0
 16 21  1  0  0  0
 16 31  1  0  0  0
 17 18  1  0  0  0
 17 96  1  0  0  0
 18 19  2  0  0  0
 18 97  1  0  0  0
 19 20  1  0  0  0
 19 24  1  0  0  0
 20 21  2  0  0  0
 20 98  1  0  0  0
 21 23  1  0  0  0
 22 28  1  0  0  0
 22 32  2  0  0  0
 26 27  1  0  0  0
 28 99  1  0  0  0
 28100  1  0  0  0
 29101  1  0  0  0
 29102  1  0  0  0
 33 34  1  0  0  0
 33 66  1  0  0  0
 33 70  2  0  0  0
 34 36  1  0  0  0
 34 59  1  0  0  0
 34103  1  0  0  0
 35 44  2  0  0  0
 35 45  1  0  0  0
 35 68  1  0  0  0
 36 56  1  0  0  0
 36104  1  0  0  0
 37 39  1  0  0  0
 37 47  1  0  0  0
 37 66  1  0  0  0
 37105  1  0  0  0
 38 43  2  0  0  0
 38 46  1  0  0  0
 38 47  1  0  0  0
 39 64  1  0  0  0
 39 67  2  0  0  0
 40 52  1  0  0  0
 40 53  2  0  0  0
 40 58  1  0  0  0
 41106  1  0  0  0
 41107  1  0  0  0
 41108  1  0  0  0
 41 48  1  0  0  0
 42 43  1  0  0  0
 42 66  1  0  0  0
 42109  1  0  0  0
 42110  1  0  0  0
 43 44  1  0  0  0
 44111  1  0  0  0
 45 46  2  0  0  0
 45112  1  0  0  0
 46113  1  0  0  0
 47114  1  0  0  0
 47115  1  0  0  0
 48 56  1  0  0  0
 48 65  1  0  0  0
 48116  1  0  0  0
 49 50  1  0  0  0
 49 53  1  0  0  0
 49 64  1  0  0  0
 49117  1  0  0  0
 50 51  1  0  0  0
 50118  1  0  0  0
 50119  1  0  0  0
 51 52  1  0  0  0
 51120  1  0  0  0
 51121  1  0  0  0
 52122  1  0  0  0
 52123  1  0  0  0
 53 54  1  0  0  0
 54 55  2  0  0  0
 54124  1  0  0  0
 55 57  1  0  0  0
 55125  1  0  0  0
 56 69  2  0  0  0
 57 58  2  0  0  0
 57126  1  0  0  0
 58127  1  0  0  0
 59 60  1  0  0  0
 59 61  1  0  0  0
 59 62  1  0  0  0
 60128  1  0  0  0
 60129  1  0  0  0
 60130  1  0  0  0
 61131  1  0  0  0
 61132  1  0  0  0
 61133  1  0  0  0
 62134  1  0  0  0
 62135  1  0  0  0
 62136  1  0  0  0
 63 65  1  0  0  0
 63137  1  0  0  0
 63138  1  0  0  0
 63139  1  0  0  0
 64140  1  0  0  0
 65141  1  0  0  0
 68 78  1  0  0  0
 71 73  1  0  0  0
 71 81  2  0  0  0
 71142  1  0  0  0
 72 73  2  0  0  0
 72 82  1  0  0  0
 72143  1  0  0  0
 73 79  1  0  0  0
 74144  1  0  0  0
 74145  1  0  0  0
 74146  1  0  0  0
 74 79  1  0  0  0
 75 79  1  0  0  0
 75147  1  0  0  0
 75148  1  0  0  0
 75149  1  0  0  0
 76150  1  0  0  0
 76151  1  0  0  0
 76152  1  0  0  0
 76 80  1  0  0  0
 77 80  1  0  0  0
 77153  1  0  0  0
 77154  1  0  0  0
 77155  1  0  0  0
 78 79  1  0  0  0
 78156  1  0  0  0
 78157  1  0  0  0
 80 82  1  0  0  0
 81 82  1  0  0  0
M  ISO  4   1 100  68 101  78 101  80 100
M  END
> <chiral flag>
0

> <version>
0

> <s_m_source_file>
/data/baiqing/PycharmProjects/Reinvent-master-3.2/result/LINK_invent/BTK/process_docking_weight1_custom_sum_contain_oxygen_bond_distance_aromatic_linkinvent_7_9_3/rearranged_h_0063.sdf

> <i_m_source_file_index>
76

> <r_mmod_Potential_Energy-OPLS-2005>
1547.06909179688

> <r_mmod_Stretch_Energy-OPLS-2005>
629.879028320312

> <r_mmod_Bend_Energy-OPLS-2005>
499.236511230469

> <r_mmod_Torsional_Energy-OPLS-2005>
272.314361572266

> <r_mmod_Improper_Torsional_Energy-OPLS-2005>
20.8635902404785

> <r_mmod_Van_der_Waal_Energy-OPLS-2005>
114.709632873535

> <r_mmod_Electrostatic_Energy-OPLS-2005>
-291.628936767578

> <r_mmod_Solvation_Energy-OPLS-2005>
-197.516387939453

> <b_mmod_Minimization_Converged-OPLS-2005>
0

> <r_mmod_RMS_Derivative-OPLS-2005>
2.66827750205994

$$$$
79
                    3D
 Structure written by MMmdl.
161169  0  0  1  0            999 V2000
  -30.5910  -14.7476   20.4760 C   0  0  0  0  0  0
  -30.4357  -12.4543   19.4910 C   0  0  0  0  0  0
  -29.5165  -12.5292   18.2495 C   0  0  0  0  0  0
  -28.0384  -12.3551   18.6500 C   0  0  0  0  0  0
  -27.6485  -13.2306   19.8684 C   0  0  2  0  0  0
  -28.6870  -13.1358   21.0084 C   0  0  0  0  0  0
  -25.2523  -13.8183   20.5680 C   0  0  0  0  0  0
  -24.1807  -13.0430   20.9176 C   0  0  0  0  0  0
  -24.6381  -11.6912   20.8699 C   0  0  0  0  0  0
  -23.9038  -10.4290   21.0349 C   0  0  0  0  0  0
  -24.3606   -9.4216   21.9135 C   0  0  0  0  0  0
  -23.6316   -8.2235   22.0709 C   0  0  0  0  0  0
  -22.4285   -8.0265   21.3520 C   0  0  0  0  0  0
  -21.9901   -9.0219   20.4595 C   0  0  0  0  0  0
  -22.7195  -10.2126   20.3002 C   0  0  0  0  0  0
  -21.6857   -6.0717   22.5276 C   0  0  0  0  0  0
  -21.4004   -6.5623   23.8208 C   0  0  0  0  0  0
  -21.3670   -5.6786   24.9186 C   0  0  0  0  0  0
  -21.6065   -4.3052   24.7230 C   0  0  0  0  0  0
  -21.8817   -3.8123   23.4355 C   0  0  0  0  0  0
  -21.9197   -4.6942   22.3410 C   0  0  0  0  0  0
  -22.7827  -13.5195   21.1876 C   0  0  0  0  0  0
  -22.1656   -4.2116   21.0992 F   0  0  0  0  0  0
  -21.5659   -3.4540   25.7742 F   0  0  0  0  0  0
  -29.9999  -13.4978   20.4523 N   0  0  0  0  0  0
  -26.2957  -12.9384   20.3334 N   0  0  0  0  0  0
  -25.9312  -11.6521   20.5728 N   0  0  0  0  0  0
  -22.0510  -12.8158   22.0457 N   0  0  0  0  0  0
  -25.4257  -15.1907   20.4084 N   0  0  0  0  0  0
  -31.7254  -14.8973   20.0175 O   0  0  0  0  0  0
  -21.6657   -6.8856   21.4233 O   0  0  0  0  0  0
  -22.3497  -14.5491   20.6730 O   0  0  0  0  0  0
  -24.6332  -31.8527   23.1980 C   0  0  0  0  0  0
  -25.9144  -32.4724   23.8349 C   0  0  1  0  0  0
  -27.2210  -27.2479   20.1306 C   0  0  0  0  0  0
  -25.5938  -33.8537   24.2263 N   0  0  0  0  0  0
  -23.4321  -30.4745   21.5381 C   0  0  2  0  0  0
  -24.8805  -28.9219   20.1090 C   0  0  0  0  0  0
  -22.7524  -29.4588   22.4896 C   0  0  0  0  0  0
  -18.0275  -28.1399   22.8457 C   0  0  0  0  0  0
  -24.1494  -36.7274   23.2638 C   0  0  0  0  0  0
  -25.9800  -30.7603   21.3827 C   0  0  0  0  0  0
  -26.0502  -29.3816   20.7243 C   0  0  0  0  0  0
  -27.2211  -28.5569   20.7272 C   0  0  0  0  0  0
  -26.0309  -26.8700   19.4630 C   0  0  0  0  0  0
  -24.8776  -27.6753   19.4677 C   0  0  0  0  0  0
  -23.6528  -29.8091   20.1545 C   0  0  0  0  0  0
  -25.4113  -36.3050   24.0332 C   0  0  1  0  0  0
  -20.5885  -28.3710   23.1254 C   0  0  2  0  0  0
  -20.6770  -26.9430   22.5395 C   0  0  0  0  0  0
  -19.5757  -26.6385   21.5194 C   0  0  0  0  0  0
  -18.1934  -26.7936   22.1604 C   0  0  0  0  0  0
  -19.1535  -28.8873   23.2844 C   0  0  0  0  0  0
  -18.9458  -30.1469   23.8871 C   0  0  0  0  0  0
  -17.6459  -30.6594   24.0556 C   0  0  0  0  0  0
  -25.9061  -34.9420   23.5100 C   0  0  0  0  0  0
  -16.5346  -29.9096   23.6335 C   0  0  0  0  0  0
  -16.7262  -28.6517   23.0348 C   0  0  0  0  0  0
  -26.4515  -31.6561   25.0749 C   0  0  0  0  0  0
  -25.3760  -31.3705   26.1483 C   0  0  0  0  0  0
  -27.0357  -30.2958   24.6281 C   0  0  0  0  0  0
  -27.6071  -32.4320   25.7508 C   0  0  0  0  0  0
  -27.5582  -37.1788   24.8460 C   0  0  0  0  0  0
  -21.4227  -29.3049   22.3652 N   0  0  0  0  0  0
  -26.4274  -37.3756   23.9429 N   0  0  0  0  0  0
  -24.6996  -31.0499   22.0938 N   0  0  0  0  0  0
  -23.4222  -28.8121   23.2992 O   0  0  0  0  0  0
  -28.3159  -26.3496   20.2247 O   0  0  0  0  0  0
  -26.5638  -34.8894   22.4673 O   0  0  0  0  0  0
  -23.5476  -32.1331   23.7277 O   0  0  0  0  0  0
  -28.5378  -20.1170   23.1298 C   0  0  0  0  0  0
  -28.9603  -20.9775   21.2592 C   0  0  0  0  0  0
  -28.1837  -19.9877   24.5694 C   0  0  0  0  0  0
  -30.3915  -19.3106   19.0125 C   0  0  0  0  0  0
  -31.5560  -18.4380   21.0384 C   0  0  0  0  0  0
  -28.9304  -22.1467   20.1989 C   0  0  0  0  0  0
  -28.9572  -23.7106   20.6957 C   0  0  0  0  0  0
  -29.5360  -17.1552   20.0987 C   0  0  0  0  0  0
  -28.1661  -24.8803   19.8987 C   0  0  0  0  0  0
  -30.1752  -18.6385   20.3816 C   0  0  0  0  0  0
  -28.3844  -21.2675   22.4298 N   0  0  0  0  0  0
  -29.0743  -19.1069   22.4645 N   0  0  0  0  0  0
  -29.3722  -19.6225   21.2404 N   0  0  0  0  0  0
  -29.8187  -15.8383   20.8450 N   0  0  0  0  0  0
  -31.4750  -12.5817   19.1895 H   0  0  0  0  0  0
  -30.3820  -11.4661   19.9523 H   0  0  0  0  0  0
  -29.8042  -11.7705   17.5222 H   0  0  0  0  0  0
  -29.6463  -13.4946   17.7572 H   0  0  0  0  0  0
  -27.8815  -11.3032   18.8853 H   0  0  0  0  0  0
  -27.3847  -12.5832   17.8047 H   0  0  0  0  0  0
  -27.6565  -14.2612   19.5185 H   0  0  0  0  0  0
  -28.7103  -12.1262   21.4224 H   0  0  0  0  0  0
  -28.4061  -13.7968   21.8291 H   0  0  0  0  0  0
  -25.2730   -9.5732   22.4726 H   0  0  0  0  0  0
  -24.0054   -7.4623   22.7414 H   0  0  0  0  0  0
  -21.0840   -8.8687   19.8894 H   0  0  0  0  0  0
  -22.3591  -10.9670   19.6134 H   0  0  0  0  0  0
  -21.1959   -7.6123   23.9696 H   0  0  0  0  0  0
  -21.1512   -6.0520   25.9106 H   0  0  0  0  0  0
  -22.0579   -2.7572   23.2853 H   0  0  0  0  0  0
  -22.4155  -11.9840   22.4858 H   0  0  0  0  0  0
  -21.1091  -13.1102   22.2617 H   0  0  0  0  0  0
  -24.6654  -15.8526   20.5206 H   0  0  0  0  0  0
  -26.2870  -15.6241   20.0993 H   0  0  0  0  0  0
  -26.7215  -32.5371   23.1095 H   0  0  0  0  0  0
  -25.0111  -33.9677   25.0426 H   0  0  0  0  0  0
  -22.7286  -31.2967   21.3908 H   0  0  0  0  0  0
  -23.3750  -35.9612   23.3259 H   0  0  0  0  0  0
  -24.3595  -36.8937   22.2061 H   0  0  0  0  0  0
  -23.7251  -37.6466   23.6686 H   0  0  0  0  0  0
  -26.1291  -31.5189   20.6130 H   0  0  0  0  0  0
  -26.8537  -30.8056   22.0212 H   0  0  0  0  0  0
  -28.1157  -28.9039   21.2252 H   0  0  0  0  0  0
  -25.9527  -25.9326   18.9335 H   0  0  0  0  0  0
  -23.9861  -27.3278   18.9642 H   0  0  0  0  0  0
  -23.7822  -30.5832   19.3970 H   0  0  0  0  0  0
  -22.7743  -29.2411   19.8460 H   0  0  0  0  0  0
  -25.1290  -36.1886   25.0821 H   0  0  0  0  0  0
  -20.9956  -28.3278   24.1382 H   0  0  0  0  0  0
  -20.5647  -26.2330   23.3602 H   0  0  0  0  0  0
  -21.6642  -26.7441   22.1211 H   0  0  0  0  0  0
  -19.6921  -25.6288   21.1253 H   0  0  0  0  0  0
  -19.6703  -27.3168   20.6705 H   0  0  0  0  0  0
  -17.4203  -26.6646   21.4009 H   0  0  0  0  0  0
  -18.0345  -26.0092   22.9017 H   0  0  0  0  0  0
  -19.7937  -30.7281   24.2238 H   0  0  0  0  0  0
  -17.5014  -31.6268   24.5175 H   0  0  0  0  0  0
  -15.5346  -30.3002   23.7670 H   0  0  0  0  0  0
  -15.8655  -28.0832   22.7091 H   0  0  0  0  0  0
  -24.5966  -30.6997   25.7839 H   0  0  0  0  0  0
  -24.8903  -32.2855   26.4888 H   0  0  0  0  0  0
  -25.8106  -30.8933   27.0272 H   0  0  0  0  0  0
  -26.2935  -29.6702   24.1296 H   0  0  0  0  0  0
  -27.3972  -29.7244   25.4837 H   0  0  0  0  0  0
  -27.8857  -30.4177   23.9564 H   0  0  0  0  0  0
  -27.2667  -33.3632   26.2049 H   0  0  0  0  0  0
  -28.3879  -32.6861   25.0329 H   0  0  0  0  0  0
  -28.0734  -31.8477   26.5445 H   0  0  0  0  0  0
  -28.2561  -38.0120   24.7538 H   0  0  0  0  0  0
  -28.1115  -36.2651   24.6226 H   0  0  0  0  0  0
  -27.2320  -37.1368   25.8866 H   0  0  0  0  0  0
  -20.9439  -29.8788   21.6857 H   0  0  0  0  0  0
  -26.0141  -38.2824   24.1437 H   0  0  0  0  0  0
  -27.8073  -20.9329   24.9619 H   0  0  0  0  0  0
  -29.0680  -19.7172   25.1493 H   0  0  0  0  0  0
  -27.4197  -19.2228   24.7150 H   0  0  0  0  0  0
  -30.9210  -18.6687   18.3078 H   0  0  0  0  0  0
  -30.9889  -20.2168   19.1095 H   0  0  0  0  0  0
  -29.4392  -19.5795   18.5547 H   0  0  0  0  0  0
  -32.0637  -19.3866   21.2087 H   0  0  0  0  0  0
  -32.2015  -17.8198   20.4142 H   0  0  0  0  0  0
  -31.4685  -17.9390   22.0052 H   0  0  0  0  0  0
  -28.0235  -21.9995   19.6114 H   0  0  0  0  0  0
  -29.7479  -22.0097   19.4958 H   0  0  0  0  0  0
  -30.0011  -24.0005   20.8043 H   0  0  0  0  0  0
  -28.5538  -23.7478   21.7065 H   0  0  0  0  0  0
  -29.7430  -16.8981   19.0578 H   0  0  0  0  0  0
  -28.4542  -17.2848   20.1101 H   0  0  0  0  0  0
  -27.1238  -24.5912   20.0032 H   0  0  0  0  0  0
  -28.3956  -24.7792   18.8378 H   0  0  0  0  0  0
  -29.0365  -15.5559   21.4168 H   0  0  0  0  0  0
  1 25  1  0  0  0
  1 30  2  0  0  0
  1 84  1  0  0  0
  2  3  1  0  0  0
  2 25  1  0  0  0
  2 85  1  0  0  0
  2 86  1  0  0  0
  3  4  1  0  0  0
  3 87  1  0  0  0
  3 88  1  0  0  0
  4  5  1  0  0  0
  4 89  1  0  0  0
  4 90  1  0  0  0
  5  6  1  0  0  0
  5 26  1  0  0  0
  5 91  1  0  0  0
  6 25  1  0  0  0
  6 92  1  0  0  0
  6 93  1  0  0  0
  7  8  2  0  0  0
  7 26  1  0  0  0
  7 29  1  0  0  0
  8  9  1  0  0  0
  8 22  1  0  0  0
  9 10  1  0  0  0
  9 27  2  0  0  0
 10 11  2  0  0  0
 10 15  1  0  0  0
 11 12  1  0  0  0
 11 94  1  0  0  0
 12 13  2  0  0  0
 12 95  1  0  0  0
 13 14  1  0  0  0
 13 31  1  0  0  0
 14 15  2  0  0  0
 14 96  1  0  0  0
 15 97  1  0  0  0
 16 17  2  0  0  0
 16 21  1  0  0  0
 16 31  1  0  0  0
 17 18  1  0  0  0
 17 98  1  0  0  0
 18 19  2  0  0  0
 18 99  1  0  0  0
 19 20  1  0  0  0
 19 24  1  0  0  0
 20 21  2  0  0  0
 20100  1  0  0  0
 21 23  1  0  0  0
 22 28  1  0  0  0
 22 32  2  0  0  0
 26 27  1  0  0  0
 28101  1  0  0  0
 28102  1  0  0  0
 29103  1  0  0  0
 29104  1  0  0  0
 33 34  1  0  0  0
 33 66  1  0  0  0
 33 70  2  0  0  0
 34 36  1  0  0  0
 34 59  1  0  0  0
 34105  1  0  0  0
 35 44  2  0  0  0
 35 45  1  0  0  0
 35 68  1  0  0  0
 36 56  1  0  0  0
 36106  1  0  0  0
 37 39  1  0  0  0
 37 47  1  0  0  0
 37 66  1  0  0  0
 37107  1  0  0  0
 38 43  2  0  0  0
 38 46  1  0  0  0
 38 47  1  0  0  0
 39 64  1  0  0  0
 39 67  2  0  0  0
 40 52  1  0  0  0
 40 53  2  0  0  0
 40 58  1  0  0  0
 41108  1  0  0  0
 41109  1  0  0  0
 41110  1  0  0  0
 41 48  1  0  0  0
 42 43  1  0  0  0
 42 66  1  0  0  0
 42111  1  0  0  0
 42112  1  0  0  0
 43 44  1  0  0  0
 44113  1  0  0  0
 45 46  2  0  0  0
 45114  1  0  0  0
 46115  1  0  0  0
 47116  1  0  0  0
 47117  1  0  0  0
 48 56  1  0  0  0
 48 65  1  0  0  0
 48118  1  0  0  0
 49 50  1  0  0  0
 49 53  1  0  0  0
 49 64  1  0  0  0
 49119  1  0  0  0
 50 51  1  0  0  0
 50120  1  0  0  0
 50121  1  0  0  0
 51 52  1  0  0  0
 51122  1  0  0  0
 51123  1  0  0  0
 52124  1  0  0  0
 52125  1  0  0  0
 53 54  1  0  0  0
 54 55  2  0  0  0
 54126  1  0  0  0
 55 57  1  0  0  0
 55127  1  0  0  0
 56 69  2  0  0  0
 57 58  2  0  0  0
 57128  1  0  0  0
 58129  1  0  0  0
 59 60  1  0  0  0
 59 61  1  0  0  0
 59 62  1  0  0  0
 60130  1  0  0  0
 60131  1  0  0  0
 60132  1  0  0  0
 61133  1  0  0  0
 61134  1  0  0  0
 61135  1  0  0  0
 62136  1  0  0  0
 62137  1  0  0  0
 62138  1  0  0  0
 63 65  1  0  0  0
 63139  1  0  0  0
 63140  1  0  0  0
 63141  1  0  0  0
 64142  1  0  0  0
 65143  1  0  0  0
 68 79  1  0  0  0
 71 73  1  0  0  0
 71 81  1  0  0  0
 71 82  2  0  0  0
 72 76  1  0  0  0
 72 81  2  0  0  0
 72 83  1  0  0  0
 73144  1  0  0  0
 73145  1  0  0  0
 73146  1  0  0  0
 74147  1  0  0  0
 74148  1  0  0  0
 74149  1  0  0  0
 74 80  1  0  0  0
 75 80  1  0  0  0
 75150  1  0  0  0
 75151  1  0  0  0
 75152  1  0  0  0
 76 77  1  0  0  0
 76153  1  0  0  0
 76154  1  0  0  0
 77 79  1  0  0  0
 77155  1  0  0  0
 77156  1  0  0  0
 78 80  1  0  0  0
 78 84  1  0  0  0
 78157  1  0  0  0
 78158  1  0  0  0
 79159  1  0  0  0
 79160  1  0  0  0
 80 83  1  0  0  0
 82 83  1  0  0  0
 84161  1  0  0  0
M  ISO  4   1 100  68 101  79 101  84 100
M  END
> <chiral flag>
0

> <version>
0

> <s_m_source_file>
/data/baiqing/PycharmProjects/Reinvent-master-3.2/result/LINK_invent/BTK/process_docking_weight1_custom_sum_contain_oxygen_bond_distance_aromatic_linkinvent_7_9_3/rearranged_h_0063.sdf

> <i_m_source_file_index>
77

> <r_mmod_Potential_Energy-OPLS-2005>
195.541961669922

> <r_mmod_Stretch_Energy-OPLS-2005>
147.082611083984

> <r_mmod_Bend_Energy-OPLS-2005>
236.051086425781

> <r_mmod_Torsional_Energy-OPLS-2005>
281.793975830078

> <r_mmod_Improper_Torsional_Energy-OPLS-2005>
7.45727443695068

> <r_mmod_Van_der_Waal_Energy-OPLS-2005>
118.75887298584

> <r_mmod_Electrostatic_Energy-OPLS-2005>
-460.338256835938

> <r_mmod_Solvation_Energy-OPLS-2005>
-225.230712890625

> <b_mmod_Minimization_Converged-OPLS-2005>
0

> <r_mmod_RMS_Derivative-OPLS-2005>
3.42704010009766

$$$$
80
                    3D
 Structure written by MMmdl.
175183  0  0  1  0            999 V2000
  -30.7084  -14.4863   20.5493 C   0  0  0  0  0  0
  -30.4089  -12.3189   19.4004 C   0  0  0  0  0  0
  -29.4828  -12.5305   18.1845 C   0  0  0  0  0  0
  -27.9980  -12.3980   18.5890 C   0  0  0  0  0  0
  -27.6554  -13.2098   19.8688 C   0  0  2  0  0  0
  -28.7026  -12.9521   20.9713 C   0  0  0  0  0  0
  -25.2575  -13.8229   20.5750 C   0  0  0  0  0  0
  -24.1836  -13.0481   20.9260 C   0  0  0  0  0  0
  -24.6389  -11.6942   20.8749 C   0  0  0  0  0  0
  -23.9043  -10.4335   21.0410 C   0  0  0  0  0  0
  -24.3616   -9.4266   21.9191 C   0  0  0  0  0  0
  -23.6320   -8.2277   22.0716 C   0  0  0  0  0  0
  -22.4283   -8.0306   21.3540 C   0  0  0  0  0  0
  -21.9918   -9.0276   20.4628 C   0  0  0  0  0  0
  -22.7214  -10.2183   20.3061 C   0  0  0  0  0  0
  -21.6850   -6.0778   22.5294 C   0  0  0  0  0  0
  -21.3997   -6.5666   23.8231 C   0  0  0  0  0  0
  -21.3655   -5.6813   24.9188 C   0  0  0  0  0  0
  -21.6059   -4.3078   24.7234 C   0  0  0  0  0  0
  -21.8824   -3.8180   23.4343 C   0  0  0  0  0  0
  -21.9202   -4.7005   22.3398 C   0  0  0  0  0  0
  -22.7836  -13.5213   21.1974 C   0  0  0  0  0  0
  -22.1664   -4.2204   21.0974 F   0  0  0  0  0  0
  -21.5651   -3.4558   25.7745 F   0  0  0  0  0  0
  -30.0204  -13.3116   20.4229 N   0  0  0  0  0  0
  -26.2988  -12.9370   20.3365 N   0  0  0  0  0  0
  -25.9303  -11.6523   20.5750 N   0  0  0  0  0  0
  -22.0492  -12.8125   22.0480 N   0  0  0  0  0  0
  -25.4365  -15.1962   20.4198 N   0  0  0  0  0  0
  -31.8389  -14.6053   20.0626 O   0  0  0  0  0  0
  -21.6632   -6.8918   21.4253 O   0  0  0  0  0  0
  -22.3507  -14.5542   20.6901 O   0  0  0  0  0  0
  -24.6332  -31.8749   23.2194 C   0  0  0  0  0  0
  -25.9180  -32.4864   23.8478 C   0  0  1  0  0  0
  -27.2051  -27.4200   20.0319 C   0  0  0  0  0  0
  -25.5975  -33.8667   24.2365 N   0  0  0  0  0  0
  -23.4349  -30.5030   21.5792 C   0  0  2  0  0  0
  -24.8407  -28.9674   20.1296 C   0  0  0  0  0  0
  -22.7784  -29.4806   22.5304 C   0  0  0  0  0  0
  -17.9909  -28.1232   22.8772 C   0  0  0  0  0  0
  -24.1490  -36.7320   23.2623 C   0  0  0  0  0  0
  -25.9607  -30.8205   21.3777 C   0  0  0  0  0  0
  -26.0174  -29.4577   20.7138 C   0  0  0  0  0  0
  -27.2025  -28.6852   20.6750 C   0  0  0  0  0  0
  -25.9875  -26.9236   19.5219 C   0  0  0  0  0  0
  -24.8180  -27.6936   19.5428 C   0  0  0  0  0  0
  -23.6134  -29.8436   20.1881 C   0  0  0  0  0  0
  -25.4111  -36.3135   24.0317 C   0  0  1  0  0  0
  -20.4800  -28.4486   22.7911 C   0  0  2  0  0  0
  -20.6780  -26.9491   22.5428 C   0  0  0  0  0  0
  -19.5399  -26.4570   21.6223 C   0  0  0  0  0  0
  -18.1473  -26.7530   22.2180 C   0  0  0  0  0  0
  -19.1140  -28.8988   23.2549 C   0  0  0  0  0  0
  -18.9370  -30.1495   23.8783 C   0  0  0  0  0  0
  -17.6382  -30.6521   24.0861 C   0  0  0  0  0  0
  -25.9061  -34.9497   23.5123 C   0  0  0  0  0  0
  -16.5202  -29.9023   23.6799 C   0  0  0  0  0  0
  -16.6965  -28.6380   23.0878 C   0  0  0  0  0  0
  -26.4484  -31.6613   25.0818 C   0  0  0  0  0  0
  -25.3677  -31.3765   26.1518 C   0  0  0  0  0  0
  -27.0282  -30.3036   24.6231 C   0  0  0  0  0  0
  -27.6051  -32.4313   25.7582 C   0  0  0  0  0  0
  -27.5589  -37.1830   24.8464 C   0  0  0  0  0  0
  -21.4582  -29.4301   22.3950 N   0  0  0  0  0  0
  -26.4310  -37.3801   23.9402 N   0  0  0  0  0  0
  -24.6989  -31.0784   22.1162 N   0  0  0  0  0  0
  -23.4275  -28.7678   23.2965 O   0  0  0  0  0  0
  -28.3565  -26.6700   19.8969 O   0  0  0  0  0  0
  -26.5615  -34.8927   22.4693 O   0  0  0  0  0  0
  -23.5475  -32.1536   23.7511 O   0  0  0  0  0  0
  -27.7306  -19.1073   19.1267 C   0  0  0  0  0  0
  -27.8732  -20.2848   19.8916 C   0  0  0  0  0  0
  -29.4783  -18.0989   20.2810 C   0  0  0  0  0  0
  -29.6019  -19.2737   21.0934 C   0  0  0  0  0  0
  -29.2239  -22.2326   17.7749 C   0  0  0  0  0  0
  -26.2832  -22.4621   16.5965 C   0  0  0  0  0  0
  -27.9277  -24.1144   15.6942 C   0  0  0  0  0  0
  -29.3643  -15.7547   22.2022 C   0  0  0  0  0  0
  -26.9070  -21.4667   19.7081 C   0  0  0  0  0  0
  -30.4475  -16.8999   20.2704 C   0  0  0  0  0  0
  -27.4942  -22.9067   19.5164 C   0  0  0  0  0  0
  -29.1216  -24.6174   18.5503 C   0  0  0  0  0  0
  -28.5701  -26.0823   18.5882 C   0  0  0  0  0  0
  -30.6521  -19.4867   22.2017 C   0  0  0  0  0  0
  -28.2224  -23.3519   18.1931 C   0  0  1  0  0  0
  -27.2307  -23.6175   16.9798 C   0  0  0  0  0  0
  -28.5281  -18.0231   19.3142 N   0  0  0  0  0  0
  -28.7870  -20.3517   20.8891 N   0  0  0  0  0  0
  -30.0195  -15.6150   20.8957 N   0  0  0  0  0  0
  -31.2920  -18.3824   22.5757 F   0  0  0  0  0  0
  -31.5578  -20.3717   21.7833 F   0  0  0  0  0  0
  -30.0647  -19.9892   23.2898 F   0  0  0  0  0  0
  -26.3610  -24.5658   17.3104 F   0  0  0  0  0  0
  -31.4544  -12.3947   19.0950 H   0  0  0  0  0  0
  -30.3019  -11.3049   19.7898 H   0  0  0  0  0  0
  -29.7192  -11.8141   17.4002 H   0  0  0  0  0  0
  -29.6558  -13.5185   17.7530 H   0  0  0  0  0  0
  -27.7840  -11.3410   18.7388 H   0  0  0  0  0  0
  -27.3586  -12.7244   17.7662 H   0  0  0  0  0  0
  -27.7105  -14.2647   19.6015 H   0  0  0  0  0  0
  -28.7057  -11.8942   21.2353 H   0  0  0  0  0  0
  -28.4467  -13.4509   21.8986 H   0  0  0  0  0  0
  -25.2802   -9.5760   22.4722 H   0  0  0  0  0  0
  -24.0113   -7.4657   22.7358 H   0  0  0  0  0  0
  -21.0883   -8.8743   19.8896 H   0  0  0  0  0  0
  -22.3666  -10.9712   19.6135 H   0  0  0  0  0  0
  -21.1937   -7.6175   23.9750 H   0  0  0  0  0  0
  -21.1458   -6.0538   25.9099 H   0  0  0  0  0  0
  -22.0593   -2.7649   23.2826 H   0  0  0  0  0  0
  -22.4095  -11.9753   22.4849 H   0  0  0  0  0  0
  -21.1091  -13.1075   22.2691 H   0  0  0  0  0  0
  -24.6788  -15.8597   20.5276 H   0  0  0  0  0  0
  -26.3046  -15.6264   20.1175 H   0  0  0  0  0  0
  -26.7249  -32.5488   23.1227 H   0  0  0  0  0  0
  -25.0110  -33.9845   25.0487 H   0  0  0  0  0  0
  -22.7318  -31.3292   21.4447 H   0  0  0  0  0  0
  -23.3763  -35.9648   23.3302 H   0  0  0  0  0  0
  -24.3578  -36.8926   22.2041 H   0  0  0  0  0  0
  -23.7244  -37.6516   23.6638 H   0  0  0  0  0  0
  -26.0938  -31.5922   20.6186 H   0  0  0  0  0  0
  -26.8442  -30.8505   22.0058 H   0  0  0  0  0  0
  -28.1158  -29.0651   21.1130 H   0  0  0  0  0  0
  -25.9281  -25.9304   19.1039 H   0  0  0  0  0  0
  -23.9018  -27.2963   19.1257 H   0  0  0  0  0  0
  -23.7027  -30.6170   19.4259 H   0  0  0  0  0  0
  -22.7271  -29.2682   19.9145 H   0  0  0  0  0  0
  -25.1295  -36.1991   25.0807 H   0  0  0  0  0  0
  -20.1649  -28.6728   21.7711 H   0  0  0  0  0  0
  -21.6472  -26.7372   22.0909 H   0  0  0  0  0  0
  -20.6464  -26.4119   23.4937 H   0  0  0  0  0  0
  -19.6355  -25.3875   21.4300 H   0  0  0  0  0  0
  -19.6206  -26.9360   20.6448 H   0  0  0  0  0  0
  -17.3892  -26.6354   21.4415 H   0  0  0  0  0  0
  -17.9204  -26.0052   22.9801 H   0  0  0  0  0  0
  -19.7899  -30.7569   24.1524 H   0  0  0  0  0  0
  -17.4990  -31.6216   24.5482 H   0  0  0  0  0  0
  -15.5219  -30.2933   23.8363 H   0  0  0  0  0  0
  -15.8297  -28.0663   22.7830 H   0  0  0  0  0  0
  -24.5864  -30.7097   25.7846 H   0  0  0  0  0  0
  -24.8834  -32.2935   26.4912 H   0  0  0  0  0  0
  -25.7957  -30.8968   27.0331 H   0  0  0  0  0  0
  -26.2856  -29.6883   24.1153 H   0  0  0  0  0  0
  -27.3867  -29.7206   25.4714 H   0  0  0  0  0  0
  -27.8771  -30.4339   23.9528 H   0  0  0  0  0  0
  -27.2689  -33.3641   26.2154 H   0  0  0  0  0  0
  -28.3872  -32.6844   25.0403 H   0  0  0  0  0  0
  -28.0712  -31.8432   26.5510 H   0  0  0  0  0  0
  -28.2619  -38.0116   24.7515 H   0  0  0  0  0  0
  -28.1075  -36.2654   24.6290 H   0  0  0  0  0  0
  -27.2310  -37.1482   25.8865 H   0  0  0  0  0  0
  -21.0858  -30.1269   21.7664 H   0  0  0  0  0  0
  -26.0197  -38.2878   24.1377 H   0  0  0  0  0  0
  -26.9747  -19.0362   18.3577 H   0  0  0  0  0  0
  -29.8185  -21.8825   18.6171 H   0  0  0  0  0  0
  -29.9317  -22.5586   17.0112 H   0  0  0  0  0  0
  -28.7281  -21.3521   17.3735 H   0  0  0  0  0  0
  -26.7634  -21.4906   16.5656 H   0  0  0  0  0  0
  -25.8393  -22.6196   15.6111 H   0  0  0  0  0  0
  -25.4424  -22.4044   17.2860 H   0  0  0  0  0  0
  -28.5560  -23.3443   15.2440 H   0  0  0  0  0  0
  -28.5370  -25.0013   15.8567 H   0  0  0  0  0  0
  -27.1827  -24.3927   14.9477 H   0  0  0  0  0  0
  -29.6184  -16.6883   22.6931 H   0  0  0  0  0  0
  -29.6704  -14.9682   22.8946 H   0  0  0  0  0  0
  -28.2776  -15.7322   22.0991 H   0  0  0  0  0  0
  -26.2976  -21.4983   20.6101 H   0  0  0  0  0  0
  -26.2053  -21.2180   18.9158 H   0  0  0  0  0  0
  -30.6216  -16.6992   19.2095 H   0  0  0  0  0  0
  -31.4348  -17.1889   20.6268 H   0  0  0  0  0  0
  -28.1575  -23.0663   20.3678 H   0  0  0  0  0  0
  -26.6726  -23.6055   19.6792 H   0  0  0  0  0  0
  -29.6458  -24.4412   19.4894 H   0  0  0  0  0  0
  -29.9366  -24.6499   17.8243 H   0  0  0  0  0  0
  -27.7670  -26.2484   17.8789 H   0  0  0  0  0  0
  -29.3484  -26.7085   18.1483 H   0  0  0  0  0  0
  1 25  1  0  0  0
  1 30  2  0  0  0
  1 89  1  0  0  0
  2  3  1  0  0  0
  2 25  1  0  0  0
  2 94  1  0  0  0
  2 95  1  0  0  0
  3  4  1  0  0  0
  3 96  1  0  0  0
  3 97  1  0  0  0
  4  5  1  0  0  0
  4 98  1  0  0  0
  4 99  1  0  0  0
  5  6  1  0  0  0
  5 26  1  0  0  0
  5100  1  0  0  0
  6 25  1  0  0  0
  6101  1  0  0  0
  6102  1  0  0  0
  7  8  2  0  0  0
  7 26  1  0  0  0
  7 29  1  0  0  0
  8  9  1  0  0  0
  8 22  1  0  0  0
  9 10  1  0  0  0
  9 27  2  0  0  0
 10 11  2  0  0  0
 10 15  1  0  0  0
 11 12  1  0  0  0
 11103  1  0  0  0
 12 13  2  0  0  0
 12104  1  0  0  0
 13 14  1  0  0  0
 13 31  1  0  0  0
 14 15  2  0  0  0
 14105  1  0  0  0
 15106  1  0  0  0
 16 17  2  0  0  0
 16 21  1  0  0  0
 16 31  1  0  0  0
 17 18  1  0  0  0
 17107  1  0  0  0
 18 19  2  0  0  0
 18108  1  0  0  0
 19 20  1  0  0  0
 19 24  1  0  0  0
 20 21  2  0  0  0
 20109  1  0  0  0
 21 23  1  0  0  0
 22 28  1  0  0  0
 22 32  2  0  0  0
 26 27  1  0  0  0
 28110  1  0  0  0
 28111  1  0  0  0
 29112  1  0  0  0
 29113  1  0  0  0
 33 34  1  0  0  0
 33 66  1  0  0  0
 33 70  2  0  0  0
 34 36  1  0  0  0
 34 59  1  0  0  0
 34114  1  0  0  0
 35 44  2  0  0  0
 35 45  1  0  0  0
 35 68  1  0  0  0
 36 56  1  0  0  0
 36115  1  0  0  0
 37 39  1  0  0  0
 37 47  1  0  0  0
 37 66  1  0  0  0
 37116  1  0  0  0
 38 43  2  0  0  0
 38 46  1  0  0  0
 38 47  1  0  0  0
 39 64  1  0  0  0
 39 67  2  0  0  0
 40 52  1  0  0  0
 40 53  2  0  0  0
 40 58  1  0  0  0
 41117  1  0  0  0
 41118  1  0  0  0
 41119  1  0  0  0
 41 48  1  0  0  0
 42 43  1  0  0  0
 42 66  1  0  0  0
 42120  1  0  0  0
 42121  1  0  0  0
 43 44  1  0  0  0
 44122  1  0  0  0
 45 46  2  0  0  0
 45123  1  0  0  0
 46124  1  0  0  0
 47125  1  0  0  0
 47126  1  0  0  0
 48 56  1  0  0  0
 48 65  1  0  0  0
 48127  1  0  0  0
 49 50  1  0  0  0
 49 53  1  0  0  0
 49 64  1  0  0  0
 49128  1  0  0  0
 50 51  1  0  0  0
 50129  1  0  0  0
 50130  1  0  0  0
 51 52  1  0  0  0
 51131  1  0  0  0
 51132  1  0  0  0
 52133  1  0  0  0
 52134  1  0  0  0
 53 54  1  0  0  0
 54 55  2  0  0  0
 54135  1  0  0  0
 55 57  1  0  0  0
 55136  1  0  0  0
 56 69  2  0  0  0
 57 58  2  0  0  0
 57137  1  0  0  0
 58138  1  0  0  0
 59 60  1  0  0  0
 59 61  1  0  0  0
 59 62  1  0  0  0
 60139  1  0  0  0
 60140  1  0  0  0
 60141  1  0  0  0
 61142  1  0  0  0
 61143  1  0  0  0
 61144  1  0  0  0
 62145  1  0  0  0
 62146  1  0  0  0
 62147  1  0  0  0
 63 65  1  0  0  0
 63148  1  0  0  0
 63149  1  0  0  0
 63150  1  0  0  0
 64151  1  0  0  0
 65152  1  0  0  0
 68 83  1  0  0  0
 71 72  2  0  0  0
 71 87  1  0  0  0
 71153  1  0  0  0
 72 79  1  0  0  0
 72 88  1  0  0  0
 73 74  1  0  0  0
 73 80  1  0  0  0
 73 87  2  0  0  0
 74 84  1  0  0  0
 74 88  2  0  0  0
 75154  1  0  0  0
 75155  1  0  0  0
 75156  1  0  0  0
 75 85  1  0  0  0
 76157  1  0  0  0
 76158  1  0  0  0
 76159  1  0  0  0
 76 86  1  0  0  0
 77 86  1  0  0  0
 77160  1  0  0  0
 77161  1  0  0  0
 77162  1  0  0  0
 78 89  1  0  0  0
 78163  1  0  0  0
 78164  1  0  0  0
 78165  1  0  0  0
 79 81  1  0  0  0
 79166  1  0  0  0
 79167  1  0  0  0
 80 89  1  0  0  0
 80168  1  0  0  0
 80169  1  0  0  0
 81 85  1  0  0  0
 81170  1  0  0  0
 81171  1  0  0  0
 82 83  1  0  0  0
 82 85  1  0  0  0
 82172  1  0  0  0
 82173  1  0  0  0
 83174  1  0  0  0
 83175  1  0  0  0
 84 90  1  0  0  0
 84 91  1  0  0  0
 84 92  1  0  0  0
 85 86  1  0  0  0
 86 93  1  0  0  0
M  ISO  4   1 100  68 101  83 101  89 100
M  END
> <chiral flag>
0

> <version>
0

> <s_m_source_file>
/data/baiqing/PycharmProjects/Reinvent-master-3.2/result/LINK_invent/BTK/process_docking_weight1_custom_sum_contain_oxygen_bond_distance_aromatic_linkinvent_7_9_3/rearranged_h_0063.sdf

> <i_m_source_file_index>
78

> <r_mmod_Potential_Energy-OPLS-2005>
463.201324462891

> <r_mmod_Stretch_Energy-OPLS-2005>
61.3014068603516

> <r_mmod_Bend_Energy-OPLS-2005>
278.032196044922

> <r_mmod_Torsional_Energy-OPLS-2005>
313.658508300781

> <r_mmod_Improper_Torsional_Energy-OPLS-2005>
13.1043844223022

> <r_mmod_Van_der_Waal_Energy-OPLS-2005>
187.746490478516

> <r_mmod_Electrostatic_Energy-OPLS-2005>
-241.209854125977

> <r_mmod_Solvation_Energy-OPLS-2005>
-187.690902709961

> <b_mmod_Minimization_Converged-OPLS-2005>
0

> <r_mmod_RMS_Derivative-OPLS-2005>
7.05543756484985

$$$$
81
                    3D
 Structure written by MMmdl.
165173  0  0  1  0            999 V2000
  -30.6277  -14.7406   20.5608 C   0  0  0  0  0  0
  -30.4379  -12.4808   19.4658 C   0  0  0  0  0  0
  -29.5093  -12.5417   18.2304 C   0  0  0  0  0  0
  -28.0318  -12.3579   18.6315 C   0  0  0  0  0  0
  -27.6464  -13.2232   19.8591 C   0  0  2  0  0  0
  -28.6903  -13.0538   20.9779 C   0  0  0  0  0  0
  -25.2520  -13.8173   20.5666 C   0  0  0  0  0  0
  -24.1806  -13.0429   20.9182 C   0  0  0  0  0  0
  -24.6389  -11.6904   20.8729 C   0  0  0  0  0  0
  -23.9067  -10.4287   21.0401 C   0  0  0  0  0  0
  -24.3619   -9.4203   21.9182 C   0  0  0  0  0  0
  -23.6290   -8.2243   22.0756 C   0  0  0  0  0  0
  -22.4272   -8.0281   21.3547 C   0  0  0  0  0  0
  -21.9908   -9.0252   20.4647 C   0  0  0  0  0  0
  -22.7239  -10.2130   20.3052 C   0  0  0  0  0  0
  -21.6852   -6.0735   22.5281 C   0  0  0  0  0  0
  -21.4014   -6.5638   23.8214 C   0  0  0  0  0  0
  -21.3658   -5.6790   24.9177 C   0  0  0  0  0  0
  -21.6045   -4.3054   24.7225 C   0  0  0  0  0  0
  -21.8821   -3.8146   23.4346 C   0  0  0  0  0  0
  -21.9193   -4.6963   22.3403 C   0  0  0  0  0  0
  -22.7830  -13.5217   21.1852 C   0  0  0  0  0  0
  -22.1661   -4.2147   21.0979 F   0  0  0  0  0  0
  -21.5627   -3.4539   25.7739 F   0  0  0  0  0  0
  -29.9846  -13.5116   20.4435 N   0  0  0  0  0  0
  -26.2947  -12.9368   20.3279 N   0  0  0  0  0  0
  -25.9314  -11.6516   20.5722 N   0  0  0  0  0  0
  -22.0480  -12.8212   22.0414 N   0  0  0  0  0  0
  -25.4206  -15.1898   20.4087 N   0  0  0  0  0  0
  -31.7645  -14.7963   20.0790 O   0  0  0  0  0  0
  -21.6638   -6.8877   21.4243 O   0  0  0  0  0  0
  -22.3511  -14.5522   20.6700 O   0  0  0  0  0  0
  -24.6294  -31.8562   23.1998 C   0  0  0  0  0  0
  -25.9127  -32.4756   23.8336 C   0  0  1  0  0  0
  -27.2172  -27.2702   20.1341 C   0  0  0  0  0  0
  -25.5922  -33.8559   24.2258 N   0  0  0  0  0  0
  -23.4255  -30.4779   21.5436 C   0  0  2  0  0  0
  -24.8702  -28.9179   20.1198 C   0  0  0  0  0  0
  -22.7492  -29.4606   22.4936 C   0  0  0  0  0  0
  -18.0290  -28.1393   22.8487 C   0  0  0  0  0  0
  -24.1486  -36.7288   23.2645 C   0  0  0  0  0  0
  -25.9695  -30.7693   21.3794 C   0  0  0  0  0  0
  -26.0403  -29.3884   20.7305 C   0  0  0  0  0  0
  -27.2177  -28.5764   20.7263 C   0  0  0  0  0  0
  -26.0337  -26.8692   19.4862 C   0  0  0  0  0  0
  -24.8696  -27.6632   19.4896 C   0  0  0  0  0  0
  -23.6436  -29.8082   20.1616 C   0  0  0  0  0  0
  -25.4110  -36.3065   24.0330 C   0  0  1  0  0  0
  -20.5890  -28.3700   23.1281 C   0  0  2  0  0  0
  -20.6777  -26.9421   22.5411 C   0  0  0  0  0  0
  -19.5752  -26.6394   21.5213 C   0  0  0  0  0  0
  -18.1933  -26.7937   22.1623 C   0  0  0  0  0  0
  -19.1542  -28.8863   23.2879 C   0  0  0  0  0  0
  -18.9463  -30.1462   23.8903 C   0  0  0  0  0  0
  -17.6460  -30.6593   24.0565 C   0  0  0  0  0  0
  -25.9053  -34.9439   23.5101 C   0  0  0  0  0  0
  -16.5350  -29.9090   23.6332 C   0  0  0  0  0  0
  -16.7274  -28.6507   23.0355 C   0  0  0  0  0  0
  -26.4494  -31.6581   25.0724 C   0  0  0  0  0  0
  -25.3710  -31.3723   26.1442 C   0  0  0  0  0  0
  -27.0349  -30.2997   24.6213 C   0  0  0  0  0  0
  -27.6049  -32.4325   25.7494 C   0  0  0  0  0  0
  -27.5575  -37.1794   24.8468 C   0  0  0  0  0  0
  -21.4203  -29.3041   22.3669 N   0  0  0  0  0  0
  -26.4285  -37.3762   23.9413 N   0  0  0  0  0  0
  -24.6939  -31.0531   22.0969 N   0  0  0  0  0  0
  -23.4194  -28.8158   23.3041 O   0  0  0  0  0  0
  -28.3430  -26.4292   20.0720 O   0  0  0  0  0  0
  -26.5633  -34.8918   22.4675 O   0  0  0  0  0  0
  -23.5449  -32.1388   23.7296 O   0  0  0  0  0  0
  -29.2292  -19.5251   20.0872 C   0  0  0  0  0  0
  -30.2907  -17.8852   19.2487 C   0  0  0  0  0  0
  -31.1033  -17.0894   18.2816 C   0  0  0  0  0  0
  -28.8936  -15.9172   22.2029 C   0  0  0  0  0  0
  -31.2638  -16.5312   22.2203 C   0  0  0  0  0  0
  -26.5857  -23.3217   20.2376 C   0  0  0  0  0  0
  -28.3022  -23.8409   18.4634 C   0  0  0  0  0  0
  -28.3690  -20.8446   20.1240 C   0  0  0  0  0  0
  -28.9329  -22.3342   20.4333 C   0  0  0  0  0  0
  -28.3888  -25.0694   20.7071 C   0  0  0  0  0  0
  -30.1062  -16.1325   21.2678 C   0  0  0  0  0  0
  -28.0719  -23.6495   19.9736 C   0  0  0  0  0  0
  -29.9430  -19.1586   18.9807 N   0  0  0  0  0  0
  -29.1753  -18.5254   21.0000 N   0  0  0  0  0  0
  -29.8433  -17.4200   20.4395 N   0  0  0  0  0  0
  -31.4727  -12.6156   19.1484 H   0  0  0  0  0  0
  -30.4143  -11.4860   19.9135 H   0  0  0  0  0  0
  -29.7964  -11.7798   17.5043 H   0  0  0  0  0  0
  -29.6341  -13.5037   17.7309 H   0  0  0  0  0  0
  -27.8801  -11.3029   18.8635 H   0  0  0  0  0  0
  -27.3775  -12.5803   17.7880 H   0  0  0  0  0  0
  -27.6675  -14.2635   19.5338 H   0  0  0  0  0  0
  -28.7521  -12.0005   21.2561 H   0  0  0  0  0  0
  -28.3722  -13.5203   21.8983 H   0  0  0  0  0  0
  -25.2766   -9.5680   22.4753 H   0  0  0  0  0  0
  -23.9997   -7.4639   22.7480 H   0  0  0  0  0  0
  -21.0839   -8.8774   19.8954 H   0  0  0  0  0  0
  -22.3699  -10.9668   19.6159 H   0  0  0  0  0  0
  -21.2010   -7.6148   23.9716 H   0  0  0  0  0  0
  -21.1476   -6.0522   25.9079 H   0  0  0  0  0  0
  -22.0603   -2.7607   23.2849 H   0  0  0  0  0  0
  -22.4101  -11.9875   22.4802 H   0  0  0  0  0  0
  -21.1100  -13.1242   22.2624 H   0  0  0  0  0  0
  -24.6562  -15.8443   20.5339 H   0  0  0  0  0  0
  -26.2753  -15.6348   20.1007 H   0  0  0  0  0  0
  -26.7193  -32.5409   23.1081 H   0  0  0  0  0  0
  -25.0024  -33.9691   25.0370 H   0  0  0  0  0  0
  -22.7202  -31.2987   21.3969 H   0  0  0  0  0  0
  -23.3742  -35.9625   23.3299 H   0  0  0  0  0  0
  -24.3575  -36.8926   22.2061 H   0  0  0  0  0  0
  -23.7248  -37.6491   23.6677 H   0  0  0  0  0  0
  -26.1069  -31.5254   20.6048 H   0  0  0  0  0  0
  -26.8483  -30.8214   22.0107 H   0  0  0  0  0  0
  -28.1215  -28.9386   21.1967 H   0  0  0  0  0  0
  -26.0089  -25.9382   18.9446 H   0  0  0  0  0  0
  -23.9791  -27.3042   18.9917 H   0  0  0  0  0  0
  -23.7711  -30.5826   19.4040 H   0  0  0  0  0  0
  -22.7606  -29.2427   19.8580 H   0  0  0  0  0  0
  -25.1287  -36.1913   25.0820 H   0  0  0  0  0  0
  -20.9973  -28.3281   24.1405 H   0  0  0  0  0  0
  -20.5681  -26.2307   23.3608 H   0  0  0  0  0  0
  -21.6648  -26.7453   22.1203 H   0  0  0  0  0  0
  -19.6914  -25.6304   21.1250 H   0  0  0  0  0  0
  -19.6698  -27.3197   20.6736 H   0  0  0  0  0  0
  -17.4202  -26.6684   21.4026 H   0  0  0  0  0  0
  -18.0329  -26.0082   22.9018 H   0  0  0  0  0  0
  -19.7938  -30.7276   24.2279 H   0  0  0  0  0  0
  -17.5016  -31.6274   24.5167 H   0  0  0  0  0  0
  -15.5350  -30.2991   23.7661 H   0  0  0  0  0  0
  -15.8673  -28.0827   22.7073 H   0  0  0  0  0  0
  -24.5918  -30.7033   25.7774 H   0  0  0  0  0  0
  -24.8851  -32.2878   26.4822 H   0  0  0  0  0  0
  -25.8025  -30.8946   27.0249 H   0  0  0  0  0  0
  -26.2935  -29.6731   24.1238 H   0  0  0  0  0  0
  -27.4034  -29.7275   25.4740 H   0  0  0  0  0  0
  -27.8811  -30.4276   23.9459 H   0  0  0  0  0  0
  -27.2674  -33.3658   26.2018 H   0  0  0  0  0  0
  -28.3878  -32.6835   25.0323 H   0  0  0  0  0  0
  -28.0689  -31.8479   26.5449 H   0  0  0  0  0  0
  -28.2587  -38.0095   24.7510 H   0  0  0  0  0  0
  -28.1076  -36.2623   24.6292 H   0  0  0  0  0  0
  -27.2295  -37.1447   25.8873 H   0  0  0  0  0  0
  -20.9390  -29.8750   21.6862 H   0  0  0  0  0  0
  -26.0166  -38.2840   24.1401 H   0  0  0  0  0  0
  -31.1975  -17.6221   17.3353 H   0  0  0  0  0  0
  -30.6248  -16.1334   18.0727 H   0  0  0  0  0  0
  -32.1058  -16.9243   18.6750 H   0  0  0  0  0  0
  -28.6649  -16.8029   22.7950 H   0  0  0  0  0  0
  -29.0935  -15.1460   22.9456 H   0  0  0  0  0  0
  -27.9884  -15.6808   21.6459 H   0  0  0  0  0  0
  -30.9925  -17.3725   22.8588 H   0  0  0  0  0  0
  -32.1540  -16.8322   21.6663 H   0  0  0  0  0  0
  -31.5511  -15.7088   22.8771 H   0  0  0  0  0  0
  -26.2288  -22.4918   19.6277 H   0  0  0  0  0  0
  -25.9246  -24.1576   20.0333 H   0  0  0  0  0  0
  -26.4268  -23.0529   21.2820 H   0  0  0  0  0  0
  -28.0640  -22.9384   17.9000 H   0  0  0  0  0  0
  -29.3427  -24.0932   18.2557 H   0  0  0  0  0  0
  -27.6913  -24.6467   18.0576 H   0  0  0  0  0  0
  -27.5454  -20.6605   20.8144 H   0  0  0  0  0  0
  -27.8879  -20.8915   19.1476 H   0  0  0  0  0  0
  -29.9210  -22.4129   19.9792 H   0  0  0  0  0  0
  -29.1179  -22.3952   21.5060 H   0  0  0  0  0  0
  -29.4237  -24.9945   21.0415 H   0  0  0  0  0  0
  -27.8218  -25.1204   21.6382 H   0  0  0  0  0  0
  1 25  1  0  0  0
  1 30  2  0  0  0
  1 81  1  0  0  0
  2  3  1  0  0  0
  2 25  1  0  0  0
  2 86  1  0  0  0
  2 87  1  0  0  0
  3  4  1  0  0  0
  3 88  1  0  0  0
  3 89  1  0  0  0
  4  5  1  0  0  0
  4 90  1  0  0  0
  4 91  1  0  0  0
  5  6  1  0  0  0
  5 26  1  0  0  0
  5 92  1  0  0  0
  6 25  1  0  0  0
  6 93  1  0  0  0
  6 94  1  0  0  0
  7  8  2  0  0  0
  7 26  1  0  0  0
  7 29  1  0  0  0
  8  9  1  0  0  0
  8 22  1  0  0  0
  9 10  1  0  0  0
  9 27  2  0  0  0
 10 11  2  0  0  0
 10 15  1  0  0  0
 11 12  1  0  0  0
 11 95  1  0  0  0
 12 13  2  0  0  0
 12 96  1  0  0  0
 13 14  1  0  0  0
 13 31  1  0  0  0
 14 15  2  0  0  0
 14 97  1  0  0  0
 15 98  1  0  0  0
 16 17  2  0  0  0
 16 21  1  0  0  0
 16 31  1  0  0  0
 17 18  1  0  0  0
 17 99  1  0  0  0
 18 19  2  0  0  0
 18100  1  0  0  0
 19 20  1  0  0  0
 19 24  1  0  0  0
 20 21  2  0  0  0
 20101  1  0  0  0
 21 23  1  0  0  0
 22 28  1  0  0  0
 22 32  2  0  0  0
 26 27  1  0  0  0
 28102  1  0  0  0
 28103  1  0  0  0
 29104  1  0  0  0
 29105  1  0  0  0
 33 34  1  0  0  0
 33 66  1  0  0  0
 33 70  2  0  0  0
 34 36  1  0  0  0
 34 59  1  0  0  0
 34106  1  0  0  0
 35 44  2  0  0  0
 35 45  1  0  0  0
 35 68  1  0  0  0
 36 56  1  0  0  0
 36107  1  0  0  0
 37 39  1  0  0  0
 37 47  1  0  0  0
 37 66  1  0  0  0
 37108  1  0  0  0
 38 43  2  0  0  0
 38 46  1  0  0  0
 38 47  1  0  0  0
 39 64  1  0  0  0
 39 67  2  0  0  0
 40 52  1  0  0  0
 40 53  2  0  0  0
 40 58  1  0  0  0
 41109  1  0  0  0
 41110  1  0  0  0
 41111  1  0  0  0
 41 48  1  0  0  0
 42 43  1  0  0  0
 42 66  1  0  0  0
 42112  1  0  0  0
 42113  1  0  0  0
 43 44  1  0  0  0
 44114  1  0  0  0
 45 46  2  0  0  0
 45115  1  0  0  0
 46116  1  0  0  0
 47117  1  0  0  0
 47118  1  0  0  0
 48 56  1  0  0  0
 48 65  1  0  0  0
 48119  1  0  0  0
 49 50  1  0  0  0
 49 53  1  0  0  0
 49 64  1  0  0  0
 49120  1  0  0  0
 50 51  1  0  0  0
 50121  1  0  0  0
 50122  1  0  0  0
 51 52  1  0  0  0
 51123  1  0  0  0
 51124  1  0  0  0
 52125  1  0  0  0
 52126  1  0  0  0
 53 54  1  0  0  0
 54 55  2  0  0  0
 54127  1  0  0  0
 55 57  1  0  0  0
 55128  1  0  0  0
 56 69  2  0  0  0
 57 58  2  0  0  0
 57129  1  0  0  0
 58130  1  0  0  0
 59 60  1  0  0  0
 59 61  1  0  0  0
 59 62  1  0  0  0
 60131  1  0  0  0
 60132  1  0  0  0
 60133  1  0  0  0
 61134  1  0  0  0
 61135  1  0  0  0
 61136  1  0  0  0
 62137  1  0  0  0
 62138  1  0  0  0
 62139  1  0  0  0
 63 65  1  0  0  0
 63140  1  0  0  0
 63141  1  0  0  0
 63142  1  0  0  0
 64143  1  0  0  0
 65144  1  0  0  0
 68 80  1  0  0  0
 71 78  1  0  0  0
 71 83  1  0  0  0
 71 84  2  0  0  0
 72 73  1  0  0  0
 72 83  2  0  0  0
 72 85  1  0  0  0
 73145  1  0  0  0
 73146  1  0  0  0
 73147  1  0  0  0
 74148  1  0  0  0
 74149  1  0  0  0
 74150  1  0  0  0
 74 81  1  0  0  0
 75 81  1  0  0  0
 75151  1  0  0  0
 75152  1  0  0  0
 75153  1  0  0  0
 76154  1  0  0  0
 76155  1  0  0  0
 76156  1  0  0  0
 76 82  1  0  0  0
 77 82  1  0  0  0
 77157  1  0  0  0
 77158  1  0  0  0
 77159  1  0  0  0
 78 79  1  0  0  0
 78160  1  0  0  0
 78161  1  0  0  0
 79 82  1  0  0  0
 79162  1  0  0  0
 79163  1  0  0  0
 80 82  1  0  0  0
 80164  1  0  0  0
 80165  1  0  0  0
 81 85  1  0  0  0
 84 85  1  0  0  0
M  ISO  4   1 100  68 101  80 101  81 100
M  END
> <chiral flag>
0

> <version>
0

> <s_m_source_file>
/data/baiqing/PycharmProjects/Reinvent-master-3.2/result/LINK_invent/BTK/process_docking_weight1_custom_sum_contain_oxygen_bond_distance_aromatic_linkinvent_7_9_3/rearranged_h_0063.sdf

> <i_m_source_file_index>
79

> <r_mmod_Potential_Energy-OPLS-2005>
286.221252441406

> <r_mmod_Stretch_Energy-OPLS-2005>
146.845031738281

> <r_mmod_Bend_Energy-OPLS-2005>
240.210693359375

> <r_mmod_Torsional_Energy-OPLS-2005>
242.999740600586

> <r_mmod_Improper_Torsional_Energy-OPLS-2005>
3.93152117729187

> <r_mmod_Van_der_Waal_Energy-OPLS-2005>
130.146224975586

> <r_mmod_Electrostatic_Energy-OPLS-2005>
-356.766174316406

> <r_mmod_Solvation_Energy-OPLS-2005>
-188.743743896484

> <b_mmod_Minimization_Converged-OPLS-2005>
0

> <r_mmod_RMS_Derivative-OPLS-2005>
0.889138400554657

$$$$
83
                    3D
 Structure written by MMmdl.
176184  0  0  1  0            999 V2000
  -30.6347  -14.6068   20.4525 C   0  0  0  0  0  0
  -30.4378  -12.3803   19.4030 C   0  0  0  0  0  0
  -29.4678  -12.4311   18.2020 C   0  0  0  0  0  0
  -28.0065  -12.2846   18.6587 C   0  0  0  0  0  0
  -27.6487  -13.1687   19.8852 C   0  0  2  0  0  0
  -28.7146  -13.0471   20.9874 C   0  0  0  0  0  0
  -25.2629  -13.8023   20.5788 C   0  0  0  0  0  0
  -24.1821  -13.0328   20.9200 C   0  0  0  0  0  0
  -24.6339  -11.6805   20.8813 C   0  0  0  0  0  0
  -23.9016  -10.4221   21.0456 C   0  0  0  0  0  0
  -24.3588   -9.4133   21.9217 C   0  0  0  0  0  0
  -23.6247   -8.2186   22.0784 C   0  0  0  0  0  0
  -22.4239   -8.0265   21.3551 C   0  0  0  0  0  0
  -21.9873   -9.0242   20.4649 C   0  0  0  0  0  0
  -22.7214  -10.2106   20.3058 C   0  0  0  0  0  0
  -21.6825   -6.0719   22.5278 C   0  0  0  0  0  0
  -21.3993   -6.5630   23.8207 C   0  0  0  0  0  0
  -21.3660   -5.6793   24.9183 C   0  0  0  0  0  0
  -21.6048   -4.3057   24.7222 C   0  0  0  0  0  0
  -21.8817   -3.8129   23.4349 C   0  0  0  0  0  0
  -21.9174   -4.6950   22.3394 C   0  0  0  0  0  0
  -22.7869  -13.5207   21.1818 C   0  0  0  0  0  0
  -22.1654   -4.2151   21.0973 F   0  0  0  0  0  0
  -21.5636   -3.4526   25.7727 F   0  0  0  0  0  0
  -30.0000  -13.3998   20.3736 N   0  0  0  0  0  0
  -26.3008  -12.9085   20.3582 N   0  0  0  0  0  0
  -25.9273  -11.6302   20.5953 N   0  0  0  0  0  0
  -22.0501  -12.8216   22.0403 N   0  0  0  0  0  0
  -25.4365  -15.1715   20.4226 N   0  0  0  0  0  0
  -31.8477  -14.6963   20.2401 O   0  0  0  0  0  0
  -21.6597   -6.8866   21.4243 O   0  0  0  0  0  0
  -22.3604  -14.5546   20.6712 O   0  0  0  0  0  0
  -24.6149  -31.8730   23.2117 C   0  0  0  0  0  0
  -25.9042  -32.4878   23.8419 C   0  0  1  0  0  0
  -27.2057  -27.4069   20.1381 C   0  0  0  0  0  0
  -25.5910  -33.8670   24.2353 N   0  0  0  0  0  0
  -23.4015  -30.4976   21.5538 C   0  0  2  0  0  0
  -24.8495  -28.9738   20.1081 C   0  0  0  0  0  0
  -22.7419  -29.4681   22.5001 C   0  0  0  0  0  0
  -18.0259  -28.1395   22.8452 C   0  0  0  0  0  0
  -24.1479  -36.7303   23.2624 C   0  0  0  0  0  0
  -25.9332  -30.8367   21.3678 C   0  0  0  0  0  0
  -26.0123  -29.4717   20.7100 C   0  0  0  0  0  0
  -27.1998  -28.7006   20.7154 C   0  0  0  0  0  0
  -26.0349  -26.9451   19.4997 C   0  0  0  0  0  0
  -24.8582  -27.7134   19.4890 C   0  0  0  0  0  0
  -23.6111  -29.8401   20.1643 C   0  0  0  0  0  0
  -25.4120  -36.3144   24.0330 C   0  0  1  0  0  0
  -20.5846  -28.3702   23.1299 C   0  0  2  0  0  0
  -20.6767  -26.9444   22.5406 C   0  0  0  0  0  0
  -19.5771  -26.6395   21.5186 C   0  0  0  0  0  0
  -18.1917  -26.7937   22.1560 C   0  0  0  0  0  0
  -19.1506  -28.8864   23.2853 C   0  0  0  0  0  0
  -18.9450  -30.1448   23.8903 C   0  0  0  0  0  0
  -17.6461  -30.6598   24.0563 C   0  0  0  0  0  0
  -25.9063  -34.9507   23.5149 C   0  0  0  0  0  0
  -16.5347  -29.9114   23.6319 C   0  0  0  0  0  0
  -16.7249  -28.6523   23.0351 C   0  0  0  0  0  0
  -26.4469  -31.6658   25.0735 C   0  0  0  0  0  0
  -25.3697  -31.3750   26.1448 C   0  0  0  0  0  0
  -27.0309  -30.3094   24.6128 C   0  0  0  0  0  0
  -27.6069  -32.4367   25.7482 C   0  0  0  0  0  0
  -27.5600  -37.1788   24.8457 C   0  0  0  0  0  0
  -21.4155  -29.3049   22.3729 N   0  0  0  0  0  0
  -26.4312  -37.3830   23.9411 N   0  0  0  0  0  0
  -24.6682  -31.0819   22.1027 N   0  0  0  0  0  0
  -23.4178  -28.8221   23.3037 O   0  0  0  0  0  0
  -28.3115  -26.5838   20.2168 O   0  0  0  0  0  0
  -26.5616  -34.8948   22.4699 O   0  0  0  0  0  0
  -23.5351  -32.1484   23.7528 O   0  0  0  0  0  0
  -27.6090  -19.3810   21.1268 C   0  0  0  0  0  0
  -29.1104  -17.9930   21.4719 C   0  0  0  0  0  0
  -29.4538  -15.9955   22.9434 C   0  0  0  0  0  0
  -30.6650  -16.1839   17.9489 C   0  0  0  0  0  0
  -28.2609  -16.4683   18.5231 C   0  0  0  0  0  0
  -26.9597  -22.4712   21.7206 C   0  0  0  0  0  0
  -29.2445  -22.8426   22.6308 C   0  0  0  0  0  0
  -29.9887  -24.1971   19.8684 C   0  0  0  0  0  0
  -27.6354  -23.8803   19.1281 C   0  0  0  0  0  0
  -29.0436  -21.4298   20.5906 C   0  0  0  0  0  0
  -28.1380  -25.3999   21.0582 C   0  0  0  0  0  0
  -29.8572  -16.6621   21.6078 C   0  0  2  0  0  0
  -29.6900  -16.4908   19.1049 C   0  0  0  0  0  0
  -28.4359  -22.7087   21.3118 C   0  0  0  0  0  0
  -28.5415  -24.0286   20.3791 C   0  0  0  0  0  0
  -27.7477  -18.0841   21.3988 N   0  0  0  0  0  0
  -29.7564  -19.1653   21.3481 N   0  0  0  0  0  0
  -28.7556  -20.0662   21.0903 N   0  0  0  0  0  0
  -29.8389  -15.7339   20.4117 N   0  0  0  0  0  0
  -31.4588  -12.5484   19.0549 H   0  0  0  0  0  0
  -30.4342  -11.3919   19.8639 H   0  0  0  0  0  0
  -29.7144  -11.6387   17.4921 H   0  0  0  0  0  0
  -29.5634  -13.3582   17.6460 H   0  0  0  0  0  0
  -27.8577  -11.2317   18.9119 H   0  0  0  0  0  0
  -27.3298  -12.4910   17.8291 H   0  0  0  0  0  0
  -27.6557  -14.1979   19.5748 H   0  0  0  0  0  0
  -28.7483  -12.0313   21.3857 H   0  0  0  0  0  0
  -28.4817  -13.6964   21.8281 H   0  0  0  0  0  0
  -25.2758   -9.5577   22.4777 H   0  0  0  0  0  0
  -23.9938   -7.4569   22.7521 H   0  0  0  0  0  0
  -21.0794   -8.8791   19.8944 H   0  0  0  0  0  0
  -22.3738  -10.9666   19.6152 H   0  0  0  0  0  0
  -21.1998   -7.6143   23.9707 H   0  0  0  0  0  0
  -21.1491   -6.0529   25.9090 H   0  0  0  0  0  0
  -22.0593   -2.7593   23.2838 H   0  0  0  0  0  0
  -22.4094  -11.9821   22.4692 H   0  0  0  0  0  0
  -21.1166  -13.1313   22.2684 H   0  0  0  0  0  0
  -24.6787  -15.8281   20.5677 H   0  0  0  0  0  0
  -26.3168  -15.6272   20.2104 H   0  0  0  0  0  0
  -26.7099  -32.5597   23.1187 H   0  0  0  0  0  0
  -25.0079  -33.9865   25.0514 H   0  0  0  0  0  0
  -22.6883  -31.3142   21.4205 H   0  0  0  0  0  0
  -23.3794  -35.9576   23.3303 H   0  0  0  0  0  0
  -24.3563  -36.8927   22.2030 H   0  0  0  0  0  0
  -23.7181  -37.6474   23.6678 H   0  0  0  0  0  0
  -26.0463  -31.6103   20.6072 H   0  0  0  0  0  0
  -26.8167  -30.8876   21.9920 H   0  0  0  0  0  0
  -28.0927  -29.0754   21.1968 H   0  0  0  0  0  0
  -26.0062  -25.9779   19.0262 H   0  0  0  0  0  0
  -23.9679  -27.3311   19.0083 H   0  0  0  0  0  0
  -23.7188  -30.6219   19.4118 H   0  0  0  0  0  0
  -22.7332  -29.2646   19.8661 H   0  0  0  0  0  0
  -25.1284  -36.2008   25.0824 H   0  0  0  0  0  0
  -20.9877  -28.3286   24.1452 H   0  0  0  0  0  0
  -20.5673  -26.2316   23.3600 H   0  0  0  0  0  0
  -21.6649  -26.7515   22.1217 H   0  0  0  0  0  0
  -19.6971  -25.6299   21.1249 H   0  0  0  0  0  0
  -19.6752  -27.3172   20.6693 H   0  0  0  0  0  0
  -17.4206  -26.6676   21.3936 H   0  0  0  0  0  0
  -18.0312  -26.0067   22.8942 H   0  0  0  0  0  0
  -19.7943  -30.7204   24.2329 H   0  0  0  0  0  0
  -17.5055  -31.6296   24.5146 H   0  0  0  0  0  0
  -15.5364  -30.3043   23.7694 H   0  0  0  0  0  0
  -15.8617  -28.0873   22.7120 H   0  0  0  0  0  0
  -24.5965  -30.7004   25.7755 H   0  0  0  0  0  0
  -24.8742  -32.2875   26.4786 H   0  0  0  0  0  0
  -25.7972  -30.9012   27.0294 H   0  0  0  0  0  0
  -26.2849  -29.6835   24.1191 H   0  0  0  0  0  0
  -27.4093  -29.7369   25.4614 H   0  0  0  0  0  0
  -27.8698  -30.4426   23.9275 H   0  0  0  0  0  0
  -27.2760  -33.3723   26.2025 H   0  0  0  0  0  0
  -28.3876  -32.6841   25.0265 H   0  0  0  0  0  0
  -28.0746  -31.8493   26.5412 H   0  0  0  0  0  0
  -28.2599  -38.0101   24.7574 H   0  0  0  0  0  0
  -28.1115  -36.2642   24.6215 H   0  0  0  0  0  0
  -27.2317  -37.1337   25.8854 H   0  0  0  0  0  0
  -20.9368  -29.8774   21.6922 H   0  0  0  0  0  0
  -26.0213  -38.2900   24.1476 H   0  0  0  0  0  0
  -26.6580  -19.8307   20.8790 H   0  0  0  0  0  0
  -28.4081  -15.6822   22.9482 H   0  0  0  0  0  0
  -29.5725  -16.7144   23.7573 H   0  0  0  0  0  0
  -30.0815  -15.1379   23.1851 H   0  0  0  0  0  0
  -30.4588  -16.8581   17.1143 H   0  0  0  0  0  0
  -30.5791  -15.1760   17.5566 H   0  0  0  0  0  0
  -31.7009  -16.3546   18.2406 H   0  0  0  0  0  0
  -28.0259  -15.5208   18.0437 H   0  0  0  0  0  0
  -28.1613  -17.2046   17.7262 H   0  0  0  0  0  0
  -27.4891  -16.7001   19.2540 H   0  0  0  0  0  0
  -26.8587  -21.6416   22.4177 H   0  0  0  0  0  0
  -26.3285  -22.2337   20.8649 H   0  0  0  0  0  0
  -26.5217  -23.3355   22.2214 H   0  0  0  0  0  0
  -29.0622  -21.9910   23.2900 H   0  0  0  0  0  0
  -29.0008  -23.7364   23.2009 H   0  0  0  0  0  0
  -30.3201  -22.8512   22.4547 H   0  0  0  0  0  0
  -30.0913  -25.0951   19.2596 H   0  0  0  0  0  0
  -30.2868  -23.3672   19.2297 H   0  0  0  0  0  0
  -30.7101  -24.2842   20.6810 H   0  0  0  0  0  0
  -27.7456  -24.7299   18.4569 H   0  0  0  0  0  0
  -26.5748  -23.8144   19.3759 H   0  0  0  0  0  0
  -27.8773  -23.0127   18.5216 H   0  0  0  0  0  0
  -30.1271  -21.5365   20.5555 H   0  0  0  0  0  0
  -28.7321  -21.4126   19.5513 H   0  0  0  0  0  0
  -28.7415  -25.5697   21.9507 H   0  0  0  0  0  0
  -27.1139  -25.3450   21.4312 H   0  0  0  0  0  0
  -30.9068  -16.9296   21.7455 H   0  0  0  0  0  0
  -29.9369  -17.5358   19.2594 H   0  0  0  0  0  0
  1 25  1  0  0  0
  1 30  2  0  0  0
  1 89  1  0  0  0
  2  3  1  0  0  0
  2 25  1  0  0  0
  2 90  1  0  0  0
  2 91  1  0  0  0
  3  4  1  0  0  0
  3 92  1  0  0  0
  3 93  1  0  0  0
  4  5  1  0  0  0
  4 94  1  0  0  0
  4 95  1  0  0  0
  5  6  1  0  0  0
  5 26  1  0  0  0
  5 96  1  0  0  0
  6 25  1  0  0  0
  6 97  1  0  0  0
  6 98  1  0  0  0
  7  8  2  0  0  0
  7 26  1  0  0  0
  7 29  1  0  0  0
  8  9  1  0  0  0
  8 22  1  0  0  0
  9 10  1  0  0  0
  9 27  2  0  0  0
 10 11  2  0  0  0
 10 15  1  0  0  0
 11 12  1  0  0  0
 11 99  1  0  0  0
 12 13  2  0  0  0
 12100  1  0  0  0
 13 14  1  0  0  0
 13 31  1  0  0  0
 14 15  2  0  0  0
 14101  1  0  0  0
 15102  1  0  0  0
 16 17  2  0  0  0
 16 21  1  0  0  0
 16 31  1  0  0  0
 17 18  1  0  0  0
 17103  1  0  0  0
 18 19  2  0  0  0
 18104  1  0  0  0
 19 20  1  0  0  0
 19 24  1  0  0  0
 20 21  2  0  0  0
 20105  1  0  0  0
 21 23  1  0  0  0
 22 28  1  0  0  0
 22 32  2  0  0  0
 26 27  1  0  0  0
 28106  1  0  0  0
 28107  1  0  0  0
 29108  1  0  0  0
 29109  1  0  0  0
 33 34  1  0  0  0
 33 66  1  0  0  0
 33 70  2  0  0  0
 34 36  1  0  0  0
 34 59  1  0  0  0
 34110  1  0  0  0
 35 44  2  0  0  0
 35 45  1  0  0  0
 35 68  1  0  0  0
 36 56  1  0  0  0
 36111  1  0  0  0
 37 39  1  0  0  0
 37 47  1  0  0  0
 37 66  1  0  0  0
 37112  1  0  0  0
 38 43  2  0  0  0
 38 46  1  0  0  0
 38 47  1  0  0  0
 39 64  1  0  0  0
 39 67  2  0  0  0
 40 52  1  0  0  0
 40 53  2  0  0  0
 40 58  1  0  0  0
 41113  1  0  0  0
 41114  1  0  0  0
 41115  1  0  0  0
 41 48  1  0  0  0
 42 43  1  0  0  0
 42 66  1  0  0  0
 42116  1  0  0  0
 42117  1  0  0  0
 43 44  1  0  0  0
 44118  1  0  0  0
 45 46  2  0  0  0
 45119  1  0  0  0
 46120  1  0  0  0
 47121  1  0  0  0
 47122  1  0  0  0
 48 56  1  0  0  0
 48 65  1  0  0  0
 48123  1  0  0  0
 49 50  1  0  0  0
 49 53  1  0  0  0
 49 64  1  0  0  0
 49124  1  0  0  0
 50 51  1  0  0  0
 50125  1  0  0  0
 50126  1  0  0  0
 51 52  1  0  0  0
 51127  1  0  0  0
 51128  1  0  0  0
 52129  1  0  0  0
 52130  1  0  0  0
 53 54  1  0  0  0
 54 55  2  0  0  0
 54131  1  0  0  0
 55 57  1  0  0  0
 55132  1  0  0  0
 56 69  2  0  0  0
 57 58  2  0  0  0
 57133  1  0  0  0
 58134  1  0  0  0
 59 60  1  0  0  0
 59 61  1  0  0  0
 59 62  1  0  0  0
 60135  1  0  0  0
 60136  1  0  0  0
 60137  1  0  0  0
 61138  1  0  0  0
 61139  1  0  0  0
 61140  1  0  0  0
 62141  1  0  0  0
 62142  1  0  0  0
 62143  1  0  0  0
 63 65  1  0  0  0
 63144  1  0  0  0
 63145  1  0  0  0
 63146  1  0  0  0
 64147  1  0  0  0
 65148  1  0  0  0
 68 81  1  0  0  0
 71 86  2  0  0  0
 71 88  1  0  0  0
 71149  1  0  0  0
 72 82  1  0  0  0
 72 86  1  0  0  0
 72 87  2  0  0  0
 73150  1  0  0  0
 73151  1  0  0  0
 73152  1  0  0  0
 73 82  1  0  0  0
 74153  1  0  0  0
 74154  1  0  0  0
 74155  1  0  0  0
 74 83  1  0  0  0
 75 83  1  0  0  0
 75156  1  0  0  0
 75157  1  0  0  0
 75158  1  0  0  0
 76159  1  0  0  0
 76160  1  0  0  0
 76161  1  0  0  0
 76 84  1  0  0  0
 77 84  1  0  0  0
 77162  1  0  0  0
 77163  1  0  0  0
 77164  1  0  0  0
 78165  1  0  0  0
 78166  1  0  0  0
 78167  1  0  0  0
 78 85  1  0  0  0
 79 85  1  0  0  0
 79168  1  0  0  0
 79169  1  0  0  0
 79170  1  0  0  0
 80 84  1  0  0  0
 80 88  1  0  0  0
 80171  1  0  0  0
 80172  1  0  0  0
 81 85  1  0  0  0
 81173  1  0  0  0
 81174  1  0  0  0
 82 89  1  0  0  0
 82175  1  0  0  0
 83 89  1  0  0  0
 83176  1  0  0  0
 84 85  1  0  0  0
 87 88  1  0  0  0
M  ISO  4   1 100  68 101  81 101  89 100
M  END
> <chiral flag>
0

> <version>
0

> <s_m_source_file>
/data/baiqing/PycharmProjects/Reinvent-master-3.2/result/LINK_invent/BTK/process_docking_weight1_custom_sum_contain_oxygen_bond_distance_aromatic_linkinvent_7_9_3/rearranged_h_0063.sdf

> <i_m_source_file_index>
80

> <r_mmod_Potential_Energy-OPLS-2005>
262.665100097656

> <r_mmod_Stretch_Energy-OPLS-2005>
76.2707595825195

> <r_mmod_Bend_Energy-OPLS-2005>
156.06071472168

> <r_mmod_Torsional_Energy-OPLS-2005>
348.958404541016

> <r_mmod_Improper_Torsional_Energy-OPLS-2005>
13.8885650634766

> <r_mmod_Van_der_Waal_Energy-OPLS-2005>
148.248764038086

> <r_mmod_Electrostatic_Energy-OPLS-2005>
-339.710845947266

> <r_mmod_Solvation_Energy-OPLS-2005>
-183.141540527344

> <b_mmod_Minimization_Converged-OPLS-2005>
0

> <r_mmod_RMS_Derivative-OPLS-2005>
6.01746606826782

$$$$
84
                    3D
 Structure written by MMmdl.
181189  0  0  1  0            999 V2000
  -30.7672  -14.4298   20.6999 C   0  0  0  0  0  0
  -30.4103  -12.3344   19.4134 C   0  0  0  0  0  0
  -29.4757  -12.5490   18.2086 C   0  0  0  0  0  0
  -28.0043  -12.3818   18.6243 C   0  0  0  0  0  0
  -27.6567  -13.2137   19.8813 C   0  0  2  0  0  0
  -28.6967  -12.9944   21.0023 C   0  0  0  0  0  0
  -25.2501  -13.8191   20.5693 C   0  0  0  0  0  0
  -24.1776  -13.0439   20.9208 C   0  0  0  0  0  0
  -24.6389  -11.6922   20.8765 C   0  0  0  0  0  0
  -23.9075  -10.4291   21.0430 C   0  0  0  0  0  0
  -24.3627   -9.4197   21.9201 C   0  0  0  0  0  0
  -23.6264   -8.2250   22.0775 C   0  0  0  0  0  0
  -22.4260   -8.0296   21.3559 C   0  0  0  0  0  0
  -21.9904   -9.0288   20.4654 C   0  0  0  0  0  0
  -22.7260  -10.2143   20.3065 C   0  0  0  0  0  0
  -21.6875   -6.0738   22.5289 C   0  0  0  0  0  0
  -21.4033   -6.5645   23.8216 C   0  0  0  0  0  0
  -21.3637   -5.6805   24.9178 C   0  0  0  0  0  0
  -21.6030   -4.3065   24.7231 C   0  0  0  0  0  0
  -21.8824   -3.8144   23.4361 C   0  0  0  0  0  0
  -21.9203   -4.6953   22.3408 C   0  0  0  0  0  0
  -22.7781  -13.5192   21.1888 C   0  0  0  0  0  0
  -22.1665   -4.2130   21.0982 F   0  0  0  0  0  0
  -21.5612   -3.4548   25.7736 F   0  0  0  0  0  0
  -30.0413  -13.2911   20.4729 N   0  0  0  0  0  0
  -26.2978  -12.9384   20.3421 N   0  0  0  0  0  0
  -25.9314  -11.6534   20.5811 N   0  0  0  0  0  0
  -22.0473  -12.8143   22.0453 N   0  0  0  0  0  0
  -25.4150  -15.1912   20.4044 N   0  0  0  0  0  0
  -31.7444  -14.7174   20.0005 O   0  0  0  0  0  0
  -21.6630   -6.8890   21.4253 O   0  0  0  0  0  0
  -22.3413  -14.5500   20.6759 O   0  0  0  0  0  0
  -24.6141  -31.8666   23.2111 C   0  0  0  0  0  0
  -25.9032  -32.4820   23.8402 C   0  0  1  0  0  0
  -27.2371  -27.4303   20.0910 C   0  0  0  0  0  0
  -25.5875  -33.8620   24.2328 N   0  0  0  0  0  0
  -23.4027  -30.4878   21.5531 C   0  0  2  0  0  0
  -24.8497  -28.9493   20.1199 C   0  0  0  0  0  0
  -22.7400  -29.4633   22.5010 C   0  0  0  0  0  0
  -18.0268  -28.1365   22.8486 C   0  0  0  0  0  0
  -24.1489  -36.7324   23.2645 C   0  0  0  0  0  0
  -25.9312  -30.8289   21.3648 C   0  0  0  0  0  0
  -26.0106  -29.4608   20.7143 C   0  0  0  0  0  0
  -27.2090  -28.7098   20.6943 C   0  0  0  0  0  0
  -26.0613  -26.9298   19.4950 C   0  0  0  0  0  0
  -24.8695  -27.6815   19.5105 C   0  0  0  0  0  0
  -23.6125  -29.8173   20.1686 C   0  0  0  0  0  0
  -25.4106  -36.3121   24.0343 C   0  0  1  0  0  0
  -20.5857  -28.3635   23.1337 C   0  0  2  0  0  0
  -20.6749  -26.9372   22.5435 C   0  0  0  0  0  0
  -19.5743  -26.6367   21.5210 C   0  0  0  0  0  0
  -18.1920  -26.7910   22.1611 C   0  0  0  0  0  0
  -19.1520  -28.8822   23.2904 C   0  0  0  0  0  0
  -18.9439  -30.1422   23.8929 C   0  0  0  0  0  0
  -17.6444  -30.6570   24.0572 C   0  0  0  0  0  0
  -25.9020  -34.9477   23.5136 C   0  0  0  0  0  0
  -16.5329  -29.9088   23.6311 C   0  0  0  0  0  0
  -16.7250  -28.6493   23.0338 C   0  0  0  0  0  0
  -26.4478  -31.6604   25.0724 C   0  0  0  0  0  0
  -25.3753  -31.3640   26.1464 C   0  0  0  0  0  0
  -27.0366  -30.3078   24.6077 C   0  0  0  0  0  0
  -27.6029  -32.4349   25.7494 C   0  0  0  0  0  0
  -27.5581  -37.1831   24.8466 C   0  0  0  0  0  0
  -21.4131  -29.3013   22.3750 N   0  0  0  0  0  0
  -26.4298  -37.3793   23.9399 N   0  0  0  0  0  0
  -24.6681  -31.0754   22.1019 N   0  0  0  0  0  0
  -23.4185  -28.8173   23.3041 O   0  0  0  0  0  0
  -28.3964  -26.6876   20.0234 O   0  0  0  0  0  0
  -26.5594  -34.8924   22.4710 O   0  0  0  0  0  0
  -23.5336  -32.1413   23.7501 O   0  0  0  0  0  0
  -30.8357  -20.2489   20.7839 C   0  0  0  0  0  0
  -29.2383  -19.2900   19.5971 C   0  0  0  0  0  0
  -30.2834  -18.9783   20.4225 C   0  0  0  0  0  0
  -30.2223  -21.2719   20.0938 C   0  0  0  0  0  0
  -32.1632  -14.8115   23.5494 C   0  0  0  0  0  0
  -32.2753  -17.6694   21.2704 C   0  0  0  0  0  0
  -31.4372  -23.1789   21.2417 C   0  0  0  0  0  0
  -31.7771  -22.6994   18.8339 C   0  0  0  0  0  0
  -28.4738  -16.5851   21.1232 C   0  0  0  0  0  0
  -29.7860  -17.3255   23.0645 C   0  0  0  0  0  0
  -28.2798  -21.2609   18.4161 C   0  0  0  0  0  0
  -28.5779  -24.2408   20.6038 C   0  0  0  0  0  0
  -29.6884  -23.8597   19.5862 C   0  0  0  0  0  0
  -30.7037  -14.6135   23.0980 C   0  0  0  0  0  0
  -28.5858  -25.7240   21.0720 C   0  0  0  0  0  0
  -30.8209  -17.5711   20.7664 C   0  0  1  0  0  0
  -30.7133  -22.7243   19.9539 C   0  0  0  0  0  0
  -29.9160  -16.6407   21.6755 C   0  0  0  0  0  0
  -29.2076  -20.6568   19.3550 N   0  0  0  0  0  0
  -30.4062  -15.2038   21.7689 N   0  0  0  0  0  0
  -31.4527  -12.4375   19.1077 H   0  0  0  0  0  0
  -30.3149  -11.3148   19.7895 H   0  0  0  0  0  0
  -29.7165  -11.8445   17.4112 H   0  0  0  0  0  0
  -29.6256  -13.5477   17.7981 H   0  0  0  0  0  0
  -27.8253  -11.3244   18.8257 H   0  0  0  0  0  0
  -27.3432  -12.6567   17.8011 H   0  0  0  0  0  0
  -27.7001  -14.2576   19.5746 H   0  0  0  0  0  0
  -28.6685  -11.9616   21.3539 H   0  0  0  0  0  0
  -28.4345  -13.6001   21.8679 H   0  0  0  0  0  0
  -25.2785   -9.5651   22.4749 H   0  0  0  0  0  0
  -23.9989   -7.4620   22.7481 H   0  0  0  0  0  0
  -21.0886   -8.8815   19.8910 H   0  0  0  0  0  0
  -22.3774  -10.9694   19.6156 H   0  0  0  0  0  0
  -21.2055   -7.6160   23.9710 H   0  0  0  0  0  0
  -21.1449   -6.0539   25.9087 H   0  0  0  0  0  0
  -22.0622   -2.7597   23.2864 H   0  0  0  0  0  0
  -22.4106  -11.9762   22.4740 H   0  0  0  0  0  0
  -21.1095  -13.1093   22.2758 H   0  0  0  0  0  0
  -24.6531  -15.8510   20.5255 H   0  0  0  0  0  0
  -26.2827  -15.6297   20.1244 H   0  0  0  0  0  0
  -26.7089  -32.5525   23.1148 H   0  0  0  0  0  0
  -25.0061  -33.9786   25.0498 H   0  0  0  0  0  0
  -22.6887  -31.3032   21.4150 H   0  0  0  0  0  0
  -23.3758  -35.9650   23.3317 H   0  0  0  0  0  0
  -24.3577  -36.8947   22.2052 H   0  0  0  0  0  0
  -23.7251  -37.6528   23.6675 H   0  0  0  0  0  0
  -26.0412  -31.5937   20.5955 H   0  0  0  0  0  0
  -26.8201  -30.8854   21.9822 H   0  0  0  0  0  0
  -28.1129  -29.1042   21.1379 H   0  0  0  0  0  0
  -26.0724  -25.9638   19.0097 H   0  0  0  0  0  0
  -23.9762  -27.2871   19.0444 H   0  0  0  0  0  0
  -23.7188  -30.5907   19.4070 H   0  0  0  0  0  0
  -22.7368  -29.2366   19.8765 H   0  0  0  0  0  0
  -25.1295  -36.1982   25.0834 H   0  0  0  0  0  0
  -20.9932  -28.3216   24.1464 H   0  0  0  0  0  0
  -20.5614  -26.2253   23.3630 H   0  0  0  0  0  0
  -21.6637  -26.7409   22.1267 H   0  0  0  0  0  0
  -19.6908  -25.6285   21.1239 H   0  0  0  0  0  0
  -19.6693  -27.3173   20.6743 H   0  0  0  0  0  0
  -17.4194  -26.6664   21.4002 H   0  0  0  0  0  0
  -18.0299  -26.0039   22.8993 H   0  0  0  0  0  0
  -19.7915  -30.7213   24.2326 H   0  0  0  0  0  0
  -17.5005  -31.6253   24.5184 H   0  0  0  0  0  0
  -15.5334  -30.3001   23.7610 H   0  0  0  0  0  0
  -15.8646  -28.0803   22.7069 H   0  0  0  0  0  0
  -24.5960  -30.6954   25.7775 H   0  0  0  0  0  0
  -24.8891  -32.2761   26.4933 H   0  0  0  0  0  0
  -25.8127  -30.8798   27.0204 H   0  0  0  0  0  0
  -26.2920  -29.6785   24.1183 H   0  0  0  0  0  0
  -27.4249  -29.7341   25.4502 H   0  0  0  0  0  0
  -27.8689  -30.4446   23.9169 H   0  0  0  0  0  0
  -27.2609  -33.3598   26.2143 H   0  0  0  0  0  0
  -28.3799  -32.7004   25.0317 H   0  0  0  0  0  0
  -28.0767  -31.8459   26.5360 H   0  0  0  0  0  0
  -28.2619  -38.0108   24.7516 H   0  0  0  0  0  0
  -28.1079  -36.2657   24.6328 H   0  0  0  0  0  0
  -27.2302  -37.1498   25.8868 H   0  0  0  0  0  0
  -20.9286  -29.8760   21.6996 H   0  0  0  0  0  0
  -26.0209  -38.2872   24.1408 H   0  0  0  0  0  0
  -31.7065  -20.3913   21.4074 H   0  0  0  0  0  0
  -28.5445  -18.6341   19.0872 H   0  0  0  0  0  0
  -32.3422  -14.2917   24.4910 H   0  0  0  0  0  0
  -32.4052  -15.8598   23.7105 H   0  0  0  0  0  0
  -32.8744  -14.4161   22.8223 H   0  0  0  0  0  0
  -32.9013  -18.1752   20.5362 H   0  0  0  0  0  0
  -32.7177  -16.6885   21.4373 H   0  0  0  0  0  0
  -32.3503  -18.2301   22.2026 H   0  0  0  0  0  0
  -32.3251  -22.5845   21.4519 H   0  0  0  0  0  0
  -30.7885  -23.1071   22.1142 H   0  0  0  0  0  0
  -31.7699  -24.2161   21.1733 H   0  0  0  0  0  0
  -32.5665  -21.9776   19.0514 H   0  0  0  0  0  0
  -32.2579  -23.6682   18.6942 H   0  0  0  0  0  0
  -31.3425  -22.4090   17.8761 H   0  0  0  0  0  0
  -27.9554  -17.5387   21.2338 H   0  0  0  0  0  0
  -27.8725  -15.8562   21.6649 H   0  0  0  0  0  0
  -28.4535  -16.3249   20.0658 H   0  0  0  0  0  0
  -29.4933  -18.3702   22.9626 H   0  0  0  0  0  0
  -30.7174  -17.3222   23.6270 H   0  0  0  0  0  0
  -29.0173  -16.8617   23.6824 H   0  0  0  0  0  0
  -27.6083  -20.5044   18.0101 H   0  0  0  0  0  0
  -28.8240  -21.7050   17.5835 H   0  0  0  0  0  0
  -27.6706  -22.0130   18.9137 H   0  0  0  0  0  0
  -28.6568  -23.6040   21.4838 H   0  0  0  0  0  0
  -27.6036  -24.0109   20.1754 H   0  0  0  0  0  0
  -30.2673  -24.7667   19.4064 H   0  0  0  0  0  0
  -29.2367  -23.6759   18.6149 H   0  0  0  0  0  0
  -30.0171  -14.9528   23.8683 H   0  0  0  0  0  0
  -30.5271  -13.5371   23.0752 H   0  0  0  0  0  0
  -29.5405  -25.9426   21.5512 H   0  0  0  0  0  0
  -27.8327  -25.8532   21.8527 H   0  0  0  0  0  0
  -30.8775  -17.1014   19.7845 H   0  0  0  0  0  0
  1 25  1  0  0  0
  1 30  2  0  0  0
  1 90  1  0  0  0
  2  3  1  0  0  0
  2 25  1  0  0  0
  2 91  1  0  0  0
  2 92  1  0  0  0
  3  4  1  0  0  0
  3 93  1  0  0  0
  3 94  1  0  0  0
  4  5  1  0  0  0
  4 95  1  0  0  0
  4 96  1  0  0  0
  5  6  1  0  0  0
  5 26  1  0  0  0
  5 97  1  0  0  0
  6 25  1  0  0  0
  6 98  1  0  0  0
  6 99  1  0  0  0
  7  8  2  0  0  0
  7 26  1  0  0  0
  7 29  1  0  0  0
  8  9  1  0  0  0
  8 22  1  0  0  0
  9 10  1  0  0  0
  9 27  2  0  0  0
 10 11  2  0  0  0
 10 15  1  0  0  0
 11 12  1  0  0  0
 11100  1  0  0  0
 12 13  2  0  0  0
 12101  1  0  0  0
 13 14  1  0  0  0
 13 31  1  0  0  0
 14 15  2  0  0  0
 14102  1  0  0  0
 15103  1  0  0  0
 16 17  2  0  0  0
 16 21  1  0  0  0
 16 31  1  0  0  0
 17 18  1  0  0  0
 17104  1  0  0  0
 18 19  2  0  0  0
 18105  1  0  0  0
 19 20  1  0  0  0
 19 24  1  0  0  0
 20 21  2  0  0  0
 20106  1  0  0  0
 21 23  1  0  0  0
 22 28  1  0  0  0
 22 32  2  0  0  0
 26 27  1  0  0  0
 28107  1  0  0  0
 28108  1  0  0  0
 29109  1  0  0  0
 29110  1  0  0  0
 33 34  1  0  0  0
 33 66  1  0  0  0
 33 70  2  0  0  0
 34 36  1  0  0  0
 34 59  1  0  0  0
 34111  1  0  0  0
 35 44  2  0  0  0
 35 45  1  0  0  0
 35 68  1  0  0  0
 36 56  1  0  0  0
 36112  1  0  0  0
 37 39  1  0  0  0
 37 47  1  0  0  0
 37 66  1  0  0  0
 37113  1  0  0  0
 38 43  2  0  0  0
 38 46  1  0  0  0
 38 47  1  0  0  0
 39 64  1  0  0  0
 39 67  2  0  0  0
 40 52  1  0  0  0
 40 53  2  0  0  0
 40 58  1  0  0  0
 41114  1  0  0  0
 41115  1  0  0  0
 41116  1  0  0  0
 41 48  1  0  0  0
 42 43  1  0  0  0
 42 66  1  0  0  0
 42117  1  0  0  0
 42118  1  0  0  0
 43 44  1  0  0  0
 44119  1  0  0  0
 45 46  2  0  0  0
 45120  1  0  0  0
 46121  1  0  0  0
 47122  1  0  0  0
 47123  1  0  0  0
 48 56  1  0  0  0
 48 65  1  0  0  0
 48124  1  0  0  0
 49 50  1  0  0  0
 49 53  1  0  0  0
 49 64  1  0  0  0
 49125  1  0  0  0
 50 51  1  0  0  0
 50126  1  0  0  0
 50127  1  0  0  0
 51 52  1  0  0  0
 51128  1  0  0  0
 51129  1  0  0  0
 52130  1  0  0  0
 52131  1  0  0  0
 53 54  1  0  0  0
 54 55  2  0  0  0
 54132  1  0  0  0
 55 57  1  0  0  0
 55133  1  0  0  0
 56 69  2  0  0  0
 57 58  2  0  0  0
 57134  1  0  0  0
 58135  1  0  0  0
 59 60  1  0  0  0
 59 61  1  0  0  0
 59 62  1  0  0  0
 60136  1  0  0  0
 60137  1  0  0  0
 60138  1  0  0  0
 61139  1  0  0  0
 61140  1  0  0  0
 61141  1  0  0  0
 62142  1  0  0  0
 62143  1  0  0  0
 62144  1  0  0  0
 63 65  1  0  0  0
 63145  1  0  0  0
 63146  1  0  0  0
 63147  1  0  0  0
 64148  1  0  0  0
 65149  1  0  0  0
 68 85  1  0  0  0
 71 73  1  0  0  0
 71 74  2  0  0  0
 71150  1  0  0  0
 72 73  2  0  0  0
 72 89  1  0  0  0
 72151  1  0  0  0
 73 86  1  0  0  0
 74 87  1  0  0  0
 74 89  1  0  0  0
 75 84  1  0  0  0
 75152  1  0  0  0
 75153  1  0  0  0
 75154  1  0  0  0
 76155  1  0  0  0
 76156  1  0  0  0
 76157  1  0  0  0
 76 86  1  0  0  0
 77158  1  0  0  0
 77159  1  0  0  0
 77160  1  0  0  0
 77 87  1  0  0  0
 78 87  1  0  0  0
 78161  1  0  0  0
 78162  1  0  0  0
 78163  1  0  0  0
 79164  1  0  0  0
 79165  1  0  0  0
 79166  1  0  0  0
 79 88  1  0  0  0
 80 88  1  0  0  0
 80167  1  0  0  0
 80168  1  0  0  0
 80169  1  0  0  0
 81 89  1  0  0  0
 81170  1  0  0  0
 81171  1  0  0  0
 81172  1  0  0  0
 82 83  1  0  0  0
 82 85  1  0  0  0
 82173  1  0  0  0
 82174  1  0  0  0
 83 87  1  0  0  0
 83175  1  0  0  0
 83176  1  0  0  0
 84 90  1  0  0  0
 84177  1  0  0  0
 84178  1  0  0  0
 85179  1  0  0  0
 85180  1  0  0  0
 86 88  1  0  0  0
 86181  1  0  0  0
 88 90  1  0  0  0
M  ISO  4   1 100  68 101  85 101  90 100
M  END
> <chiral flag>
0

> <version>
0

> <s_m_source_file>
/data/baiqing/PycharmProjects/Reinvent-master-3.2/result/LINK_invent/BTK/process_docking_weight1_custom_sum_contain_oxygen_bond_distance_aromatic_linkinvent_7_9_3/rearranged_h_0063.sdf

> <i_m_source_file_index>
81

> <r_mmod_Potential_Energy-OPLS-2005>
234.525466918945

> <r_mmod_Stretch_Energy-OPLS-2005>
58.7702980041504

> <r_mmod_Bend_Energy-OPLS-2005>
145.820556640625

> <r_mmod_Torsional_Energy-OPLS-2005>
385.266021728516

> <r_mmod_Improper_Torsional_Energy-OPLS-2005>
4.06468820571899

> <r_mmod_Van_der_Waal_Energy-OPLS-2005>
135.798904418945

> <r_mmod_Electrostatic_Energy-OPLS-2005>
-336.176849365234

> <r_mmod_Solvation_Energy-OPLS-2005>
-169.556442260742

> <b_mmod_Minimization_Converged-OPLS-2005>
0

> <r_mmod_RMS_Derivative-OPLS-2005>
3.49037051200867

$$$$
85
                    3D
 Structure written by MMmdl.
149157  0  0  1  0            999 V2000
  -30.5238  -14.9818   20.4169 C   0  0  0  0  0  0
  -30.4383  -12.6119   19.5028 C   0  0  0  0  0  0
  -29.5222  -12.5297   18.2604 C   0  0  0  0  0  0
  -28.0560  -12.3115   18.6788 C   0  0  0  0  0  0
  -27.6247  -13.2506   19.8363 C   0  0  2  0  0  0
  -28.6656  -13.2984   20.9738 C   0  0  0  0  0  0
  -25.2437  -13.8213   20.5725 C   0  0  0  0  0  0
  -24.1764  -13.0431   20.9248 C   0  0  0  0  0  0
  -24.6383  -11.6916   20.8776 C   0  0  0  0  0  0
  -23.9066  -10.4290   21.0421 C   0  0  0  0  0  0
  -24.3617   -9.4206   21.9189 C   0  0  0  0  0  0
  -23.6301   -8.2243   22.0740 C   0  0  0  0  0  0
  -22.4282   -8.0285   21.3533 C   0  0  0  0  0  0
  -21.9915   -9.0253   20.4636 C   0  0  0  0  0  0
  -22.7242  -10.2136   20.3068 C   0  0  0  0  0  0
  -21.6850   -6.0748   22.5286 C   0  0  0  0  0  0
  -21.4017   -6.5651   23.8217 C   0  0  0  0  0  0
  -21.3661   -5.6800   24.9181 C   0  0  0  0  0  0
  -21.6041   -4.3066   24.7230 C   0  0  0  0  0  0
  -21.8806   -3.8152   23.4348 C   0  0  0  0  0  0
  -21.9185   -4.6968   22.3407 C   0  0  0  0  0  0
  -22.7788  -13.5201   21.1916 C   0  0  0  0  0  0
  -22.1654   -4.2162   21.0982 F   0  0  0  0  0  0
  -21.5630   -3.4542   25.7735 F   0  0  0  0  0  0
  -29.9334  -13.7180   20.3658 N   0  0  0  0  0  0
  -26.2852  -12.9448   20.3241 N   0  0  0  0  0  0
  -25.9312  -11.6575   20.5742 N   0  0  0  0  0  0
  -22.0440  -12.8185   22.0474 N   0  0  0  0  0  0
  -25.4085  -15.1945   20.4160 N   0  0  0  0  0  0
  -31.7358  -15.0411   20.1847 O   0  0  0  0  0  0
  -21.6639   -6.8889   21.4249 O   0  0  0  0  0  0
  -22.3470  -14.5509   20.6767 O   0  0  0  0  0  0
  -24.6443  -31.8409   23.1850 C   0  0  0  0  0  0
  -25.9209  -32.4677   23.8242 C   0  0  1  0  0  0
  -27.2209  -27.1136   20.1633 C   0  0  0  0  0  0
  -25.5951  -33.8484   24.2159 N   0  0  0  0  0  0
  -23.4493  -30.4569   21.5302 C   0  0  2  0  0  0
  -24.8982  -28.8672   20.1175 C   0  0  0  0  0  0
  -22.7565  -29.4529   22.4856 C   0  0  0  0  0  0
  -18.0303  -28.1402   22.8474 C   0  0  0  0  0  0
  -24.1488  -36.7253   23.2646 C   0  0  0  0  0  0
  -26.0038  -30.7060   21.3865 C   0  0  0  0  0  0
  -26.0737  -29.3108   20.7371 C   0  0  0  0  0  0
  -27.2332  -28.4474   20.7435 C   0  0  0  0  0  0
  -26.0212  -26.7655   19.5109 C   0  0  0  0  0  0
  -24.8846  -27.6085   19.4913 C   0  0  0  0  0  0
  -23.6790  -29.7778   20.1527 C   0  0  0  0  0  0
  -25.4124  -36.3021   24.0311 C   0  0  1  0  0  0
  -20.5911  -28.3729   23.1235 C   0  0  2  0  0  0
  -20.6789  -26.9433   22.5410 C   0  0  0  0  0  0
  -19.5765  -26.6383   21.5214 C   0  0  0  0  0  0
  -18.1943  -26.7939   22.1621 C   0  0  0  0  0  0
  -19.1557  -28.8880   23.2847 C   0  0  0  0  0  0
  -18.9478  -30.1477   23.8876 C   0  0  0  0  0  0
  -17.6476  -30.6597   24.0560 C   0  0  0  0  0  0
  -25.9077  -34.9400   23.5040 C   0  0  0  0  0  0
  -16.5366  -29.9093   23.6338 C   0  0  0  0  0  0
  -16.7287  -28.6512   23.0354 C   0  0  0  0  0  0
  -26.4530  -31.6555   25.0691 C   0  0  0  0  0  0
  -25.3716  -31.3762   26.1389 C   0  0  0  0  0  0
  -27.0406  -30.2948   24.6291 C   0  0  0  0  0  0
  -27.6043  -32.4336   25.7484 C   0  0  0  0  0  0
  -27.5568  -37.1789   24.8469 C   0  0  0  0  0  0
  -21.4256  -29.3051   22.3600 N   0  0  0  0  0  0
  -26.4284  -37.3738   23.9405 N   0  0  0  0  0  0
  -24.7189  -31.0238   22.0893 N   0  0  0  0  0  0
  -23.4195  -28.8100   23.3033 O   0  0  0  0  0  0
  -28.3188  -26.1769   20.1536 O   0  0  0  0  0  0
  -26.5663  -34.8905   22.4622 O   0  0  0  0  0  0
  -23.5559  -32.1300   23.7051 O   0  0  0  0  0  0
  -28.3808  -23.7139   19.2571 C   0  0  0  0  0  0
  -28.3323  -24.7018   20.3112 C   0  0  0  0  0  0
  -28.6007  -23.9948   21.5383 C   0  0  0  0  0  0
  -28.9042  -21.8010   20.5848 C   0  0  0  0  0  0
  -30.1189  -17.7228   20.6123 C   0  0  0  0  0  0
  -29.1613  -19.0915   20.2460 C   0  0  0  0  0  0
  -28.6555  -24.7253   22.8839 C   0  0  0  0  0  0
  -28.6493  -22.3394   19.3767 N   0  0  0  0  0  0
  -28.8848  -22.6324   21.6369 N   0  0  0  0  0  0
  -29.7439  -16.1747   20.5246 N   0  0  0  0  0  0
  -29.4692  -20.4963   20.8236 O   0  0  0  0  0  0
  -28.4021  -26.0315   22.8027 F   0  0  0  0  0  0
  -27.7580  -24.1892   23.7145 F   0  0  0  0  0  0
  -29.8666  -24.5748   23.4253 F   0  0  0  0  0  0
  -31.4712  -12.7796   19.1934 H   0  0  0  0  0  0
  -30.4396  -11.6671   20.0487 H   0  0  0  0  0  0
  -29.8486  -11.7245   17.6009 H   0  0  0  0  0  0
  -29.6063  -13.4539   17.6875 H   0  0  0  0  0  0
  -27.9598  -11.2715   18.9941 H   0  0  0  0  0  0
  -27.3904  -12.4316   17.8232 H   0  0  0  0  0  0
  -27.5809  -14.2499   19.4014 H   0  0  0  0  0  0
  -28.7629  -12.3293   21.4661 H   0  0  0  0  0  0
  -28.3625  -14.0097   21.7441 H   0  0  0  0  0  0
  -25.2755   -9.5693   22.4768 H   0  0  0  0  0  0
  -24.0009   -7.4630   22.7451 H   0  0  0  0  0  0
  -21.0841   -8.8768   19.8943 H   0  0  0  0  0  0
  -22.3681  -10.9680   19.6189 H   0  0  0  0  0  0
  -21.2020   -7.6156   23.9733 H   0  0  0  0  0  0
  -21.1499   -6.0531   25.9086 H   0  0  0  0  0  0
  -22.0582   -2.7618   23.2844 H   0  0  0  0  0  0
  -22.4060  -11.9855   22.4877 H   0  0  0  0  0  0
  -21.1048  -13.1201   22.2668 H   0  0  0  0  0  0
  -24.6351  -15.8419   20.5279 H   0  0  0  0  0  0
  -26.2443  -15.6386   20.0596 H   0  0  0  0  0  0
  -26.7270  -32.5278   23.0966 H   0  0  0  0  0  0
  -25.0077  -33.9592   25.0291 H   0  0  0  0  0  0
  -22.7531  -31.2827   21.3702 H   0  0  0  0  0  0
  -23.3744  -35.9592   23.3313 H   0  0  0  0  0  0
  -24.3565  -36.8885   22.2060 H   0  0  0  0  0  0
  -23.7261  -37.6456   23.6687 H   0  0  0  0  0  0
  -26.1574  -31.4546   20.6079 H   0  0  0  0  0  0
  -26.8746  -30.7623   22.0288 H   0  0  0  0  0  0
  -28.1374  -28.7860   21.2314 H   0  0  0  0  0  0
  -25.9564  -25.8032   19.0241 H   0  0  0  0  0  0
  -23.9873  -27.2638   18.9962 H   0  0  0  0  0  0
  -23.8258  -30.5488   19.3950 H   0  0  0  0  0  0
  -22.7920  -29.2251   19.8387 H   0  0  0  0  0  0
  -25.1318  -36.1840   25.0805 H   0  0  0  0  0  0
  -20.9996  -28.3331   24.1357 H   0  0  0  0  0  0
  -20.5679  -26.2351   23.3634 H   0  0  0  0  0  0
  -21.6658  -26.7446   22.1210 H   0  0  0  0  0  0
  -19.6934  -25.6284   21.1266 H   0  0  0  0  0  0
  -19.6703  -27.3175   20.6727 H   0  0  0  0  0  0
  -17.4214  -26.6677   21.4025 H   0  0  0  0  0  0
  -18.0348  -26.0088   22.9024 H   0  0  0  0  0  0
  -19.7956  -30.7292   24.2242 H   0  0  0  0  0  0
  -17.5033  -31.6275   24.5169 H   0  0  0  0  0  0
  -15.5366  -30.2991   23.7674 H   0  0  0  0  0  0
  -15.8687  -28.0826   22.7081 H   0  0  0  0  0  0
  -24.5887  -30.7118   25.7716 H   0  0  0  0  0  0
  -24.8920  -32.2956   26.4758 H   0  0  0  0  0  0
  -25.7994  -30.8971   27.0204 H   0  0  0  0  0  0
  -26.3034  -29.6655   24.1293 H   0  0  0  0  0  0
  -27.4009  -29.7264   25.4876 H   0  0  0  0  0  0
  -27.8940  -30.4177   23.9619 H   0  0  0  0  0  0
  -27.2613  -33.3651   26.2003 H   0  0  0  0  0  0
  -28.3888  -32.6882   25.0344 H   0  0  0  0  0  0
  -28.0678  -31.8509   26.5459 H   0  0  0  0  0  0
  -28.2593  -38.0075   24.7474 H   0  0  0  0  0  0
  -28.1047  -36.2597   24.6336 H   0  0  0  0  0  0
  -27.2274  -37.1486   25.8870 H   0  0  0  0  0  0
  -20.9470  -29.8749   21.6761 H   0  0  0  0  0  0
  -26.0142  -38.2805   24.1393 H   0  0  0  0  0  0
  -28.2596  -24.0530   18.2384 H   0  0  0  0  0  0
  -30.4180  -17.8535   21.6522 H   0  0  0  0  0  0
  -31.0490  -17.8396   20.0563 H   0  0  0  0  0  0
  -28.1457  -18.8684   20.5703 H   0  0  0  0  0  0
  -29.0994  -19.1913   19.1621 H   0  0  0  0  0  0
  -28.7579  -15.9880   20.6329 H   0  0  0  0  0  0
  1 25  1  0  0  0
  1 30  2  0  0  0
  1 80  1  0  0  0
  2  3  1  0  0  0
  2 25  1  0  0  0
  2 85  1  0  0  0
  2 86  1  0  0  0
  3  4  1  0  0  0
  3 87  1  0  0  0
  3 88  1  0  0  0
  4  5  1  0  0  0
  4 89  1  0  0  0
  4 90  1  0  0  0
  5  6  1  0  0  0
  5 26  1  0  0  0
  5 91  1  0  0  0
  6 25  1  0  0  0
  6 92  1  0  0  0
  6 93  1  0  0  0
  7  8  2  0  0  0
  7 26  1  0  0  0
  7 29  1  0  0  0
  8  9  1  0  0  0
  8 22  1  0  0  0
  9 10  1  0  0  0
  9 27  2  0  0  0
 10 11  2  0  0  0
 10 15  1  0  0  0
 11 12  1  0  0  0
 11 94  1  0  0  0
 12 13  2  0  0  0
 12 95  1  0  0  0
 13 14  1  0  0  0
 13 31  1  0  0  0
 14 15  2  0  0  0
 14 96  1  0  0  0
 15 97  1  0  0  0
 16 17  2  0  0  0
 16 21  1  0  0  0
 16 31  1  0  0  0
 17 18  1  0  0  0
 17 98  1  0  0  0
 18 19  2  0  0  0
 18 99  1  0  0  0
 19 20  1  0  0  0
 19 24  1  0  0  0
 20 21  2  0  0  0
 20100  1  0  0  0
 21 23  1  0  0  0
 22 28  1  0  0  0
 22 32  2  0  0  0
 26 27  1  0  0  0
 28101  1  0  0  0
 28102  1  0  0  0
 29103  1  0  0  0
 29104  1  0  0  0
 33 34  1  0  0  0
 33 66  1  0  0  0
 33 70  2  0  0  0
 34 36  1  0  0  0
 34 59  1  0  0  0
 34105  1  0  0  0
 35 44  2  0  0  0
 35 45  1  0  0  0
 35 68  1  0  0  0
 36 56  1  0  0  0
 36106  1  0  0  0
 37 39  1  0  0  0
 37 47  1  0  0  0
 37 66  1  0  0  0
 37107  1  0  0  0
 38 43  2  0  0  0
 38 46  1  0  0  0
 38 47  1  0  0  0
 39 64  1  0  0  0
 39 67  2  0  0  0
 40 52  1  0  0  0
 40 53  2  0  0  0
 40 58  1  0  0  0
 41108  1  0  0  0
 41109  1  0  0  0
 41110  1  0  0  0
 41 48  1  0  0  0
 42 43  1  0  0  0
 42 66  1  0  0  0
 42111  1  0  0  0
 42112  1  0  0  0
 43 44  1  0  0  0
 44113  1  0  0  0
 45 46  2  0  0  0
 45114  1  0  0  0
 46115  1  0  0  0
 47116  1  0  0  0
 47117  1  0  0  0
 48 56  1  0  0  0
 48 65  1  0  0  0
 48118  1  0  0  0
 49 50  1  0  0  0
 49 53  1  0  0  0
 49 64  1  0  0  0
 49119  1  0  0  0
 50 51  1  0  0  0
 50120  1  0  0  0
 50121  1  0  0  0
 51 52  1  0  0  0
 51122  1  0  0  0
 51123  1  0  0  0
 52124  1  0  0  0
 52125  1  0  0  0
 53 54  1  0  0  0
 54 55  2  0  0  0
 54126  1  0  0  0
 55 57  1  0  0  0
 55127  1  0  0  0
 56 69  2  0  0  0
 57 58  2  0  0  0
 57128  1  0  0  0
 58129  1  0  0  0
 59 60  1  0  0  0
 59 61  1  0  0  0
 59 62  1  0  0  0
 60130  1  0  0  0
 60131  1  0  0  0
 60132  1  0  0  0
 61133  1  0  0  0
 61134  1  0  0  0
 61135  1  0  0  0
 62136  1  0  0  0
 62137  1  0  0  0
 62138  1  0  0  0
 63 65  1  0  0  0
 63139  1  0  0  0
 63140  1  0  0  0
 63141  1  0  0  0
 64142  1  0  0  0
 65143  1  0  0  0
 68 72  1  0  0  0
 71 72  2  0  0  0
 71 78  1  0  0  0
 71144  1  0  0  0
 72 73  1  0  0  0
 73 77  1  0  0  0
 73 79  2  0  0  0
 74 78  2  0  0  0
 74 79  1  0  0  0
 74 81  1  0  0  0
 75 76  1  0  0  0
 75 80  1  0  0  0
 75145  1  0  0  0
 75146  1  0  0  0
 76 81  1  0  0  0
 76147  1  0  0  0
 76148  1  0  0  0
 77 82  1  0  0  0
 77 83  1  0  0  0
 77 84  1  0  0  0
 80149  1  0  0  0
M  ISO  4   1 100  68 101  72 101  80 100
M  END
> <chiral flag>
0

> <version>
0

> <s_m_source_file>
/data/baiqing/PycharmProjects/Reinvent-master-3.2/result/LINK_invent/BTK/process_docking_weight1_custom_sum_contain_oxygen_bond_distance_aromatic_linkinvent_7_9_3/rearranged_h_0063.sdf

> <i_m_source_file_index>
82

> <r_mmod_Potential_Energy-OPLS-2005>
123.991508483887

> <r_mmod_Stretch_Energy-OPLS-2005>
247.501739501953

> <r_mmod_Bend_Energy-OPLS-2005>
298.162078857422

> <r_mmod_Torsional_Energy-OPLS-2005>
234.299499511719

> <r_mmod_Improper_Torsional_Energy-OPLS-2005>
7.77577304840088

> <r_mmod_Van_der_Waal_Energy-OPLS-2005>
133.254898071289

> <r_mmod_Electrostatic_Energy-OPLS-2005>
-783.730773925781

> <r_mmod_Solvation_Energy-OPLS-2005>
-221.053314208984

> <b_mmod_Minimization_Converged-OPLS-2005>
0

> <r_mmod_RMS_Derivative-OPLS-2005>
2.04653525352478

$$$$
86
                    3D
 Structure written by MMmdl.
168176  0  0  1  0            999 V2000
  -30.7667  -14.4992   20.6151 C   0  0  0  0  0  0
  -30.4219  -12.3365   19.4392 C   0  0  0  0  0  0
  -29.4914  -12.4906   18.2166 C   0  0  0  0  0  0
  -28.0104  -12.3657   18.6194 C   0  0  0  0  0  0
  -27.6599  -13.2118   19.8688 C   0  0  2  0  0  0
  -28.7015  -13.0250   20.9924 C   0  0  0  0  0  0
  -25.2599  -13.8165   20.5654 C   0  0  0  0  0  0
  -24.1859  -13.0439   20.9174 C   0  0  0  0  0  0
  -24.6405  -11.6921   20.8681 C   0  0  0  0  0  0
  -23.9089  -10.4308   21.0333 C   0  0  0  0  0  0
  -24.3657   -9.4232   21.9098 C   0  0  0  0  0  0
  -23.6325   -8.2271   22.0713 C   0  0  0  0  0  0
  -22.4312   -8.0311   21.3519 C   0  0  0  0  0  0
  -21.9933   -9.0267   20.4618 C   0  0  0  0  0  0
  -22.7261  -10.2155   20.2989 C   0  0  0  0  0  0
  -21.6851   -6.0779   22.5291 C   0  0  0  0  0  0
  -21.4029   -6.5661   23.8253 C   0  0  0  0  0  0
  -21.3653   -5.6796   24.9198 C   0  0  0  0  0  0
  -21.6031   -4.3058   24.7229 C   0  0  0  0  0  0
  -21.8818   -3.8183   23.4338 C   0  0  0  0  0  0
  -21.9206   -4.7003   22.3423 C   0  0  0  0  0  0
  -22.7911  -13.5290   21.1866 C   0  0  0  0  0  0
  -22.1677   -4.2194   21.0987 F   0  0  0  0  0  0
  -21.5600   -3.4543   25.7734 F   0  0  0  0  0  0
  -30.0404  -13.3421   20.4537 N   0  0  0  0  0  0
  -26.3018  -12.9321   20.3309 N   0  0  0  0  0  0
  -25.9308  -11.6491   20.5717 N   0  0  0  0  0  0
  -22.0557  -12.8235   22.0412 N   0  0  0  0  0  0
  -25.4261  -15.1873   20.4138 N   0  0  0  0  0  0
  -31.8359  -14.6713   20.0212 O   0  0  0  0  0  0
  -21.6638   -6.8920   21.4267 O   0  0  0  0  0  0
  -22.3611  -14.5630   20.6809 O   0  0  0  0  0  0
  -24.6253  -31.8646   23.2111 C   0  0  0  0  0  0
  -25.9149  -32.4761   23.8364 C   0  0  1  0  0  0
  -27.2238  -27.3354   20.0553 C   0  0  0  0  0  0
  -25.6006  -33.8559   24.2274 N   0  0  0  0  0  0
  -23.4142  -30.5038   21.5492 C   0  0  2  0  0  0
  -24.8600  -28.9755   20.1183 C   0  0  0  0  0  0
  -22.7456  -29.4701   22.4865 C   0  0  0  0  0  0
  -18.0298  -28.1434   22.8447 C   0  0  0  0  0  0
  -24.1510  -36.7307   23.2612 C   0  0  0  0  0  0
  -25.9659  -30.7907   21.3955 C   0  0  0  0  0  0
  -26.0311  -29.4217   20.7366 C   0  0  0  0  0  0
  -27.2069  -28.6053   20.7197 C   0  0  0  0  0  0
  -26.0235  -27.0004   19.3751 C   0  0  0  0  0  0
  -24.8538  -27.7615   19.4405 C   0  0  0  0  0  0
  -23.6372  -29.8580   20.1619 C   0  0  0  0  0  0
  -25.4121  -36.3028   24.0275 C   0  0  1  0  0  0
  -20.5893  -28.3736   23.1221 C   0  0  2  0  0  0
  -20.6792  -26.9447   22.5382 C   0  0  0  0  0  0
  -19.5792  -26.6409   21.5182 C   0  0  0  0  0  0
  -18.1959  -26.7957   22.1588 C   0  0  0  0  0  0
  -19.1541  -28.8894   23.2840 C   0  0  0  0  0  0
  -18.9464  -30.1487   23.8884 C   0  0  0  0  0  0
  -17.6467  -30.6609   24.0582 C   0  0  0  0  0  0
  -25.9057  -34.9408   23.5040 C   0  0  0  0  0  0
  -16.5369  -29.9130   23.6337 C   0  0  0  0  0  0
  -16.7275  -28.6565   23.0313 C   0  0  0  0  0  0
  -26.4556  -31.6559   25.0714 C   0  0  0  0  0  0
  -25.3817  -31.3739   26.1456 C   0  0  0  0  0  0
  -27.0406  -30.2949   24.6224 C   0  0  0  0  0  0
  -27.6071  -32.4317   25.7528 C   0  0  0  0  0  0
  -27.5567  -37.1802   24.8433 C   0  0  0  0  0  0
  -21.4154  -29.3104   22.3611 N   0  0  0  0  0  0
  -26.4282  -37.3722   23.9371 N   0  0  0  0  0  0
  -24.6858  -31.0700   22.1070 N   0  0  0  0  0  0
  -23.4190  -28.8182   23.2889 O   0  0  0  0  0  0
  -28.3599  -26.4811   20.0962 O   0  0  0  0  0  0
  -26.5568  -34.8867   22.4583 O   0  0  0  0  0  0
  -23.5432  -32.1451   23.7451 O   0  0  0  0  0  0
  -30.4153  -19.4526   23.3681 C   0  0  0  0  0  0
  -30.5371  -20.5397   21.4375 C   0  0  0  0  0  0
  -30.3057  -18.2720   21.4763 C   0  0  0  0  0  0
  -30.4804  -23.7447   18.3530 C   0  0  0  0  0  0
  -30.8950  -25.1773   20.3293 C   0  0  0  0  0  0
  -28.4141  -25.5516   17.9083 C   0  0  0  0  0  0
  -27.2542  -24.2117   19.7971 C   0  0  0  0  0  0
  -30.0708  -15.3575   22.7522 C   0  0  0  0  0  0
  -30.8275  -21.8626   20.6726 C   0  0  0  0  0  0
  -30.2238  -16.9204   20.6858 C   0  0  0  0  0  0
  -29.6696  -22.9403   20.5901 C   0  0  0  0  0  0
  -29.8286  -24.2659   19.6824 C   0  0  0  0  0  0
  -28.4493  -25.1476   19.4121 C   0  0  0  0  0  0
  -30.5425  -20.6271   22.7590 N   0  0  0  0  0  0
  -30.3073  -18.2544   22.8030 N   0  0  0  0  0  0
  -30.4010  -19.3962   20.7409 N   0  0  0  0  0  0
  -30.2033  -15.5347   21.3009 N   0  0  0  0  0  0
  -31.4579  -12.4495   19.1186 H   0  0  0  0  0  0
  -30.3476  -11.3297   19.8563 H   0  0  0  0  0  0
  -29.7379  -11.7375   17.4645 H   0  0  0  0  0  0
  -29.6634  -13.4565   17.7418 H   0  0  0  0  0  0
  -27.7970  -11.3134   18.8057 H   0  0  0  0  0  0
  -27.3661  -12.6598   17.7877 H   0  0  0  0  0  0
  -27.6913  -14.2595   19.5664 H   0  0  0  0  0  0
  -28.6888  -12.0014   21.3699 H   0  0  0  0  0  0
  -28.4051  -13.6396   21.8395 H   0  0  0  0  0  0
  -25.2771   -9.5741   22.4701 H   0  0  0  0  0  0
  -24.0034   -7.4688   22.7422 H   0  0  0  0  0  0
  -21.0858   -8.8816   19.8939 H   0  0  0  0  0  0
  -22.3657  -10.9723   19.6182 H   0  0  0  0  0  0
  -21.2032   -7.6172   23.9781 H   0  0  0  0  0  0
  -21.1447   -6.0506   25.9102 H   0  0  0  0  0  0
  -22.0582   -2.7630   23.2822 H   0  0  0  0  0  0
  -22.4264  -11.9947   22.4803 H   0  0  0  0  0  0
  -21.1189  -13.1268   22.2669 H   0  0  0  0  0  0
  -24.6544  -15.8364   20.5352 H   0  0  0  0  0  0
  -26.2767  -15.6304   20.0846 H   0  0  0  0  0  0
  -26.7184  -32.5411   23.1078 H   0  0  0  0  0  0
  -25.0255  -33.9698   25.0482 H   0  0  0  0  0  0
  -22.7039  -31.3222   21.4098 H   0  0  0  0  0  0
  -23.3701  -35.9712   23.3285 H   0  0  0  0  0  0
  -24.3598  -36.8950   22.2028 H   0  0  0  0  0  0
  -23.7379  -37.6549   23.6667 H   0  0  0  0  0  0
  -26.1050  -31.5524   20.6275 H   0  0  0  0  0  0
  -26.8460  -30.8238   22.0267 H   0  0  0  0  0  0
  -28.0995  -28.9475   21.2235 H   0  0  0  0  0  0
  -25.9022  -26.1636   18.7192 H   0  0  0  0  0  0
  -23.9627  -27.4366   18.9239 H   0  0  0  0  0  0
  -23.7776  -30.6424   19.4171 H   0  0  0  0  0  0
  -22.7568  -29.3014   19.8379 H   0  0  0  0  0  0
  -25.1322  -36.1824   25.0759 H   0  0  0  0  0  0
  -20.9984  -28.3348   24.1336 H   0  0  0  0  0  0
  -20.5680  -26.2359   23.3593 H   0  0  0  0  0  0
  -21.6663  -26.7474   22.1198 H   0  0  0  0  0  0
  -19.6969  -25.6311   21.1246 H   0  0  0  0  0  0
  -19.6755  -27.3191   20.6692 H   0  0  0  0  0  0
  -17.4217  -26.6669   21.4015 H   0  0  0  0  0  0
  -18.0386  -26.0124   22.9014 H   0  0  0  0  0  0
  -19.7937  -30.7308   24.2246 H   0  0  0  0  0  0
  -17.5022  -31.6263   24.5225 H   0  0  0  0  0  0
  -15.5362  -30.3046   23.7641 H   0  0  0  0  0  0
  -15.8671  -28.0903   22.7000 H   0  0  0  0  0  0
  -24.5937  -30.7138   25.7823 H   0  0  0  0  0  0
  -24.9106  -32.2950   26.4892 H   0  0  0  0  0  0
  -25.8171  -30.8917   27.0214 H   0  0  0  0  0  0
  -26.3000  -29.6661   24.1261 H   0  0  0  0  0  0
  -27.4082  -29.7229   25.4757 H   0  0  0  0  0  0
  -27.8885  -30.4160   23.9467 H   0  0  0  0  0  0
  -27.2592  -33.3547   26.2171 H   0  0  0  0  0  0
  -28.3899  -32.7002   25.0424 H   0  0  0  0  0  0
  -28.0731  -31.8427   26.5441 H   0  0  0  0  0  0
  -28.2531  -38.0134   24.7433 H   0  0  0  0  0  0
  -28.1115  -36.2654   24.6313 H   0  0  0  0  0  0
  -27.2271  -37.1506   25.8828 H   0  0  0  0  0  0
  -20.9297  -29.8865   21.6870 H   0  0  0  0  0  0
  -26.0128  -38.2765   24.1427 H   0  0  0  0  0  0
  -30.3755  -19.4706   24.4486 H   0  0  0  0  0  0
  -30.7235  -24.5354   17.6471 H   0  0  0  0  0  0
  -31.4435  -23.2611   18.5060 H   0  0  0  0  0  0
  -29.8574  -23.0165   17.8303 H   0  0  0  0  0  0
  -30.7762  -25.2248   21.4104 H   0  0  0  0  0  0
  -30.8371  -26.2030   19.9577 H   0  0  0  0  0  0
  -31.9075  -24.8127   20.1321 H   0  0  0  0  0  0
  -28.4834  -24.6972   17.2403 H   0  0  0  0  0  0
  -29.2480  -26.2274   17.7039 H   0  0  0  0  0  0
  -27.5213  -26.0498   17.5509 H   0  0  0  0  0  0
  -27.3000  -23.9364   20.8482 H   0  0  0  0  0  0
  -27.2843  -23.3041   19.2010 H   0  0  0  0  0  0
  -26.2328  -24.5390   19.6788 H   0  0  0  0  0  0
  -29.1318  -15.7857   23.1016 H   0  0  0  0  0  0
  -30.9016  -15.8219   23.2814 H   0  0  0  0  0  0
  -30.0901  -14.3120   23.0613 H   0  0  0  0  0  0
  -31.1180  -21.5346   19.6754 H   0  0  0  0  0  0
  -31.7226  -22.3221   21.0942 H   0  0  0  0  0  0
  -31.0761  -16.9886   20.0096 H   0  0  0  0  0  0
  -29.3525  -16.9661   20.0278 H   0  0  0  0  0  0
  -29.3732  -23.2300   21.6031 H   0  0  0  0  0  0
  -28.8585  -22.3306   20.2085 H   0  0  0  0  0  0
  1 25  1  0  0  0
  1 30  2  0  0  0
  1 87  1  0  0  0
  2  3  1  0  0  0
  2 25  1  0  0  0
  2 88  1  0  0  0
  2 89  1  0  0  0
  3  4  1  0  0  0
  3 90  1  0  0  0
  3 91  1  0  0  0
  4  5  1  0  0  0
  4 92  1  0  0  0
  4 93  1  0  0  0
  5  6  1  0  0  0
  5 26  1  0  0  0
  5 94  1  0  0  0
  6 25  1  0  0  0
  6 95  1  0  0  0
  6 96  1  0  0  0
  7  8  2  0  0  0
  7 26  1  0  0  0
  7 29  1  0  0  0
  8  9  1  0  0  0
  8 22  1  0  0  0
  9 10  1  0  0  0
  9 27  2  0  0  0
 10 11  2  0  0  0
 10 15  1  0  0  0
 11 12  1  0  0  0
 11 97  1  0  0  0
 12 13  2  0  0  0
 12 98  1  0  0  0
 13 14  1  0  0  0
 13 31  1  0  0  0
 14 15  2  0  0  0
 14 99  1  0  0  0
 15100  1  0  0  0
 16 17  2  0  0  0
 16 21  1  0  0  0
 16 31  1  0  0  0
 17 18  1  0  0  0
 17101  1  0  0  0
 18 19  2  0  0  0
 18102  1  0  0  0
 19 20  1  0  0  0
 19 24  1  0  0  0
 20 21  2  0  0  0
 20103  1  0  0  0
 21 23  1  0  0  0
 22 28  1  0  0  0
 22 32  2  0  0  0
 26 27  1  0  0  0
 28104  1  0  0  0
 28105  1  0  0  0
 29106  1  0  0  0
 29107  1  0  0  0
 33 34  1  0  0  0
 33 66  1  0  0  0
 33 70  2  0  0  0
 34 36  1  0  0  0
 34 59  1  0  0  0
 34108  1  0  0  0
 35 44  2  0  0  0
 35 45  1  0  0  0
 35 68  1  0  0  0
 36 56  1  0  0  0
 36109  1  0  0  0
 37 39  1  0  0  0
 37 47  1  0  0  0
 37 66  1  0  0  0
 37110  1  0  0  0
 38 43  2  0  0  0
 38 46  1  0  0  0
 38 47  1  0  0  0
 39 64  1  0  0  0
 39 67  2  0  0  0
 40 52  1  0  0  0
 40 53  2  0  0  0
 40 58  1  0  0  0
 41111  1  0  0  0
 41112  1  0  0  0
 41113  1  0  0  0
 41 48  1  0  0  0
 42 43  1  0  0  0
 42 66  1  0  0  0
 42114  1  0  0  0
 42115  1  0  0  0
 43 44  1  0  0  0
 44116  1  0  0  0
 45 46  2  0  0  0
 45117  1  0  0  0
 46118  1  0  0  0
 47119  1  0  0  0
 47120  1  0  0  0
 48 56  1  0  0  0
 48 65  1  0  0  0
 48121  1  0  0  0
 49 50  1  0  0  0
 49 53  1  0  0  0
 49 64  1  0  0  0
 49122  1  0  0  0
 50 51  1  0  0  0
 50123  1  0  0  0
 50124  1  0  0  0
 51 52  1  0  0  0
 51125  1  0  0  0
 51126  1  0  0  0
 52127  1  0  0  0
 52128  1  0  0  0
 53 54  1  0  0  0
 54 55  2  0  0  0
 54129  1  0  0  0
 55 57  1  0  0  0
 55130  1  0  0  0
 56 69  2  0  0  0
 57 58  2  0  0  0
 57131  1  0  0  0
 58132  1  0  0  0
 59 60  1  0  0  0
 59 61  1  0  0  0
 59 62  1  0  0  0
 60133  1  0  0  0
 60134  1  0  0  0
 60135  1  0  0  0
 61136  1  0  0  0
 61137  1  0  0  0
 61138  1  0  0  0
 62139  1  0  0  0
 62140  1  0  0  0
 62141  1  0  0  0
 63 65  1  0  0  0
 63142  1  0  0  0
 63143  1  0  0  0
 63144  1  0  0  0
 64145  1  0  0  0
 65146  1  0  0  0
 68 83  1  0  0  0
 71 84  2  0  0  0
 71 85  1  0  0  0
 71147  1  0  0  0
 72 79  1  0  0  0
 72 84  1  0  0  0
 72 86  2  0  0  0
 73 80  1  0  0  0
 73 85  2  0  0  0
 73 86  1  0  0  0
 74148  1  0  0  0
 74149  1  0  0  0
 74150  1  0  0  0
 74 82  1  0  0  0
 75 82  1  0  0  0
 75151  1  0  0  0
 75152  1  0  0  0
 75153  1  0  0  0
 76154  1  0  0  0
 76155  1  0  0  0
 76156  1  0  0  0
 76 83  1  0  0  0
 77 83  1  0  0  0
 77157  1  0  0  0
 77158  1  0  0  0
 77159  1  0  0  0
 78 87  1  0  0  0
 78160  1  0  0  0
 78161  1  0  0  0
 78162  1  0  0  0
 79 81  1  0  0  0
 79163  1  0  0  0
 79164  1  0  0  0
 80 87  1  0  0  0
 80165  1  0  0  0
 80166  1  0  0  0
 81 82  1  0  0  0
 81167  1  0  0  0
 81168  1  0  0  0
 82 83  1  0  0  0
M  ISO  4   1 100  68 101  83 101  87 100
M  END
> <chiral flag>
0

> <version>
0

> <s_m_source_file>
/data/baiqing/PycharmProjects/Reinvent-master-3.2/result/LINK_invent/BTK/process_docking_weight1_custom_sum_contain_oxygen_bond_distance_aromatic_linkinvent_7_9_3/rearranged_h_0063.sdf

> <i_m_source_file_index>
83

> <r_mmod_Potential_Energy-OPLS-2005>
-462.784423828125

> <r_mmod_Stretch_Energy-OPLS-2005>
107.21337890625

> <r_mmod_Bend_Energy-OPLS-2005>
197.235656738281

> <r_mmod_Torsional_Energy-OPLS-2005>
277.153228759766

> <r_mmod_Improper_Torsional_Energy-OPLS-2005>
5.15746259689331

> <r_mmod_Van_der_Waal_Energy-OPLS-2005>
237.790390014648

> <r_mmod_Electrostatic_Energy-OPLS-2005>
-1110.72729492188

> <r_mmod_Solvation_Energy-OPLS-2005>
-208.551727294922

> <b_mmod_Minimization_Converged-OPLS-2005>
0

> <r_mmod_RMS_Derivative-OPLS-2005>
7.40535831451416

$$$$
87
                    3D
 Structure written by MMmdl.
155163  0  0  1  0            999 V2000
  -30.4914  -15.0742   20.3823 C   0  0  0  0  0  0
  -30.4367  -12.6658   19.5283 C   0  0  0  0  0  0
  -29.5311  -12.5496   18.2783 C   0  0  0  0  0  0
  -28.0665  -12.3155   18.6898 C   0  0  0  0  0  0
  -27.6228  -13.2612   19.8360 C   0  0  2  0  0  0
  -28.6575  -13.3444   20.9798 C   0  0  0  0  0  0
  -25.2422  -13.8236   20.5713 C   0  0  0  0  0  0
  -24.1758  -13.0443   20.9231 C   0  0  0  0  0  0
  -24.6392  -11.6934   20.8748 C   0  0  0  0  0  0
  -23.9081  -10.4298   21.0398 C   0  0  0  0  0  0
  -24.3629   -9.4214   21.9176 C   0  0  0  0  0  0
  -23.6304   -8.2249   22.0750 C   0  0  0  0  0  0
  -22.4285   -8.0283   21.3544 C   0  0  0  0  0  0
  -21.9921   -9.0256   20.4645 C   0  0  0  0  0  0
  -22.7250  -10.2135   20.3050 C   0  0  0  0  0  0
  -21.6859   -6.0735   22.5277 C   0  0  0  0  0  0
  -21.4017   -6.5639   23.8210 C   0  0  0  0  0  0
  -21.3662   -5.6793   24.9173 C   0  0  0  0  0  0
  -21.6048   -4.3055   24.7222 C   0  0  0  0  0  0
  -21.8821   -3.8146   23.4343 C   0  0  0  0  0  0
  -21.9195   -4.6962   22.3399 C   0  0  0  0  0  0
  -22.7779  -13.5202   21.1890 C   0  0  0  0  0  0
  -22.1661   -4.2148   21.0977 F   0  0  0  0  0  0
  -21.5631   -3.4537   25.7732 F   0  0  0  0  0  0
  -29.9228  -13.7877   20.3818 N   0  0  0  0  0  0
  -26.2848  -12.9488   20.3225 N   0  0  0  0  0  0
  -25.9326  -11.6605   20.5720 N   0  0  0  0  0  0
  -22.0440  -12.8184   22.0449 N   0  0  0  0  0  0
  -25.4075  -15.1968   20.4137 N   0  0  0  0  0  0
  -31.6871  -15.1182   20.0672 O   0  0  0  0  0  0
  -21.6651   -6.8878   21.4239 O   0  0  0  0  0  0
  -22.3453  -14.5500   20.6727 O   0  0  0  0  0  0
  -24.6501  -31.8343   23.1784 C   0  0  0  0  0  0
  -25.9237  -32.4640   23.8209 C   0  0  1  0  0  0
  -27.2234  -27.0494   20.1594 C   0  0  0  0  0  0
  -25.5953  -33.8450   24.2125 N   0  0  0  0  0  0
  -23.4581  -30.4481   21.5249 C   0  0  2  0  0  0
  -24.9083  -28.8541   20.1053 C   0  0  0  0  0  0
  -22.7603  -29.4491   22.4825 C   0  0  0  0  0  0
  -18.0309  -28.1402   22.8478 C   0  0  0  0  0  0
  -24.1492  -36.7232   23.2646 C   0  0  0  0  0  0
  -26.0172  -30.6796   21.3880 C   0  0  0  0  0  0
  -26.0849  -29.2821   20.7297 C   0  0  0  0  0  0
  -27.2342  -28.3956   20.7370 C   0  0  0  0  0  0
  -26.0154  -26.7342   19.5015 C   0  0  0  0  0  0
  -24.8912  -27.5976   19.4751 C   0  0  0  0  0  0
  -23.6883  -29.7671   20.1471 C   0  0  0  0  0  0
  -25.4129  -36.2999   24.0308 C   0  0  1  0  0  0
  -20.5927  -28.3731   23.1223 C   0  0  2  0  0  0
  -20.6789  -26.9426   22.5410 C   0  0  0  0  0  0
  -19.5764  -26.6379   21.5219 C   0  0  0  0  0  0
  -18.1946  -26.7939   22.1628 C   0  0  0  0  0  0
  -19.1568  -28.8886   23.2840 C   0  0  0  0  0  0
  -18.9482  -30.1480   23.8870 C   0  0  0  0  0  0
  -17.6478  -30.6596   24.0558 C   0  0  0  0  0  0
  -25.9086  -34.9378   23.5034 C   0  0  0  0  0  0
  -16.5367  -29.9088   23.6339 C   0  0  0  0  0  0
  -16.7293  -28.6506   23.0360 C   0  0  0  0  0  0
  -26.4534  -31.6547   25.0693 C   0  0  0  0  0  0
  -25.3700  -31.3763   26.1377 C   0  0  0  0  0  0
  -27.0413  -30.2932   24.6332 C   0  0  0  0  0  0
  -27.6049  -32.4333   25.7486 C   0  0  0  0  0  0
  -27.5572  -37.1772   24.8465 C   0  0  0  0  0  0
  -21.4284  -29.3037   22.3580 N   0  0  0  0  0  0
  -26.4283  -37.3723   23.9408 N   0  0  0  0  0  0
  -24.7289  -31.0118   22.0851 N   0  0  0  0  0  0
  -23.4207  -28.8062   23.3021 O   0  0  0  0  0  0
  -28.2983  -26.0693   20.3009 O   0  0  0  0  0  0
  -26.5688  -34.8895   22.4625 O   0  0  0  0  0  0
  -23.5602  -32.1258   23.6957 O   0  0  0  0  0  0
  -30.1376  -21.2981   21.0885 C   0  0  0  0  0  0
  -29.5679  -19.3282   20.3926 C   0  0  0  0  0  0
  -29.2477  -17.6482   18.4343 C   0  0  0  0  0  0
  -28.2690  -24.5330   18.3020 C   0  0  0  0  0  0
  -30.1076  -24.6205   19.9416 C   0  0  0  0  0  0
  -28.1644  -23.0035   20.4471 C   0  0  0  0  0  0
  -29.8441  -17.7543   19.8474 C   0  0  2  0  0  0
  -28.5757  -24.5654   19.8100 C   0  0  0  0  0  0
  -30.5376  -19.9984   21.1042 N   0  0  0  0  0  0
  -28.6007  -20.2697   20.0015 N   0  0  0  0  0  0
  -28.9999  -21.5997   20.4380 N   0  0  0  0  0  0
  -29.7158  -16.2890   20.5127 N   0  0  0  0  0  0
  -31.4693  -12.8285   19.2176 H   0  0  0  0  0  0
  -30.4437  -11.7286   20.0875 H   0  0  0  0  0  0
  -29.8746  -11.7397   17.6332 H   0  0  0  0  0  0
  -29.6039  -13.4645   17.6884 H   0  0  0  0  0  0
  -27.9804  -11.2779   19.0156 H   0  0  0  0  0  0
  -27.4065  -12.4208   17.8281 H   0  0  0  0  0  0
  -27.5693  -14.2524   19.3845 H   0  0  0  0  0  0
  -28.7694  -12.3837   21.4851 H   0  0  0  0  0  0
  -28.3310  -14.0580   21.7377 H   0  0  0  0  0  0
  -25.2772   -9.5691   22.4752 H   0  0  0  0  0  0
  -24.0015   -7.4643   22.7469 H   0  0  0  0  0  0
  -21.0854   -8.8771   19.8950 H   0  0  0  0  0  0
  -22.3702  -10.9672   19.6160 H   0  0  0  0  0  0
  -21.2007   -7.6147   23.9710 H   0  0  0  0  0  0
  -21.1484   -6.0523   25.9076 H   0  0  0  0  0  0
  -22.0596   -2.7607   23.2845 H   0  0  0  0  0  0
  -22.4074  -11.9857   22.4843 H   0  0  0  0  0  0
  -21.1048  -13.1184   22.2644 H   0  0  0  0  0  0
  -24.6355  -15.8458   20.5205 H   0  0  0  0  0  0
  -26.2450  -15.6365   20.0556 H   0  0  0  0  0  0
  -26.7298  -32.5213   23.0924 H   0  0  0  0  0  0
  -25.0057  -33.9549   25.0244 H   0  0  0  0  0  0
  -22.7646  -31.2758   21.3625 H   0  0  0  0  0  0
  -23.3762  -35.9554   23.3287 H   0  0  0  0  0  0
  -24.3571  -36.8893   22.2064 H   0  0  0  0  0  0
  -23.7241  -37.6415   23.6707 H   0  0  0  0  0  0
  -26.1823  -31.4289   20.6129 H   0  0  0  0  0  0
  -26.8836  -30.7324   22.0356 H   0  0  0  0  0  0
  -28.1276  -28.7178   21.2530 H   0  0  0  0  0  0
  -25.8948  -25.7643   19.0486 H   0  0  0  0  0  0
  -23.9891  -27.2615   18.9824 H   0  0  0  0  0  0
  -23.8305  -30.5374   19.3884 H   0  0  0  0  0  0
  -22.8011  -29.2126   19.8368 H   0  0  0  0  0  0
  -25.1323  -36.1810   25.0799 H   0  0  0  0  0  0
  -21.0018  -28.3331   24.1345 H   0  0  0  0  0  0
  -20.5680  -26.2348   23.3639 H   0  0  0  0  0  0
  -21.6653  -26.7422   22.1208 H   0  0  0  0  0  0
  -19.6924  -25.6282   21.1268 H   0  0  0  0  0  0
  -19.6704  -27.3174   20.6737 H   0  0  0  0  0  0
  -17.4217  -26.6686   21.4029 H   0  0  0  0  0  0
  -18.0339  -26.0087   22.9030 H   0  0  0  0  0  0
  -19.7957  -30.7302   24.2229 H   0  0  0  0  0  0
  -17.5029  -31.6275   24.5162 H   0  0  0  0  0  0
  -15.5366  -30.2979   23.7678 H   0  0  0  0  0  0
  -15.8694  -28.0811   22.7095 H   0  0  0  0  0  0
  -24.5882  -30.7108   25.7693 H   0  0  0  0  0  0
  -24.8887  -32.2955   26.4726 H   0  0  0  0  0  0
  -25.7964  -30.8980   27.0203 H   0  0  0  0  0  0
  -26.3044  -29.6634   24.1332 H   0  0  0  0  0  0
  -27.3990  -29.7258   25.4934 H   0  0  0  0  0  0
  -27.8967  -30.4149   23.9684 H   0  0  0  0  0  0
  -27.2628  -33.3660   26.1980 H   0  0  0  0  0  0
  -28.3902  -32.6850   25.0347 H   0  0  0  0  0  0
  -28.0667  -31.8515   26.5471 H   0  0  0  0  0  0
  -28.2576  -38.0081   24.7510 H   0  0  0  0  0  0
  -28.1083  -36.2608   24.6295 H   0  0  0  0  0  0
  -27.2289  -37.1417   25.8868 H   0  0  0  0  0  0
  -20.9514  -29.8726   21.6725 H   0  0  0  0  0  0
  -26.0140  -38.2786   24.1417 H   0  0  0  0  0  0
  -30.6904  -22.0639   21.6159 H   0  0  0  0  0  0
  -29.5973  -18.4643   17.8008 H   0  0  0  0  0  0
  -28.1592  -17.7044   18.4695 H   0  0  0  0  0  0
  -29.5198  -16.7147   17.9422 H   0  0  0  0  0  0
  -28.7786  -23.6996   17.8169 H   0  0  0  0  0  0
  -28.5905  -25.4487   17.8041 H   0  0  0  0  0  0
  -27.2086  -24.3953   18.1031 H   0  0  0  0  0  0
  -30.5875  -23.7485   19.4974 H   0  0  0  0  0  0
  -30.4058  -24.6666   20.9893 H   0  0  0  0  0  0
  -30.5236  -25.4988   19.4457 H   0  0  0  0  0  0
  -27.1675  -22.7627   20.0773 H   0  0  0  0  0  0
  -27.9969  -23.1913   21.5074 H   0  0  0  0  0  0
  -30.9208  -17.7737   19.6731 H   0  0  0  0  0  0
  -28.7947  -16.1243   20.8880 H   0  0  0  0  0  0
  1 25  1  0  0  0
  1 30  2  0  0  0
  1 82  1  0  0  0
  2  3  1  0  0  0
  2 25  1  0  0  0
  2 83  1  0  0  0
  2 84  1  0  0  0
  3  4  1  0  0  0
  3 85  1  0  0  0
  3 86  1  0  0  0
  4  5  1  0  0  0
  4 87  1  0  0  0
  4 88  1  0  0  0
  5  6  1  0  0  0
  5 26  1  0  0  0
  5 89  1  0  0  0
  6 25  1  0  0  0
  6 90  1  0  0  0
  6 91  1  0  0  0
  7  8  2  0  0  0
  7 26  1  0  0  0
  7 29  1  0  0  0
  8  9  1  0  0  0
  8 22  1  0  0  0
  9 10  1  0  0  0
  9 27  2  0  0  0
 10 11  2  0  0  0
 10 15  1  0  0  0
 11 12  1  0  0  0
 11 92  1  0  0  0
 12 13  2  0  0  0
 12 93  1  0  0  0
 13 14  1  0  0  0
 13 31  1  0  0  0
 14 15  2  0  0  0
 14 94  1  0  0  0
 15 95  1  0  0  0
 16 17  2  0  0  0
 16 21  1  0  0  0
 16 31  1  0  0  0
 17 18  1  0  0  0
 17 96  1  0  0  0
 18 19  2  0  0  0
 18 97  1  0  0  0
 19 20  1  0  0  0
 19 24  1  0  0  0
 20 21  2  0  0  0
 20 98  1  0  0  0
 21 23  1  0  0  0
 22 28  1  0  0  0
 22 32  2  0  0  0
 26 27  1  0  0  0
 28 99  1  0  0  0
 28100  1  0  0  0
 29101  1  0  0  0
 29102  1  0  0  0
 33 34  1  0  0  0
 33 66  1  0  0  0
 33 70  2  0  0  0
 34 36  1  0  0  0
 34 59  1  0  0  0
 34103  1  0  0  0
 35 44  2  0  0  0
 35 45  1  0  0  0
 35 68  1  0  0  0
 36 56  1  0  0  0
 36104  1  0  0  0
 37 39  1  0  0  0
 37 47  1  0  0  0
 37 66  1  0  0  0
 37105  1  0  0  0
 38 43  2  0  0  0
 38 46  1  0  0  0
 38 47  1  0  0  0
 39 64  1  0  0  0
 39 67  2  0  0  0
 40 52  1  0  0  0
 40 53  2  0  0  0
 40 58  1  0  0  0
 41106  1  0  0  0
 41107  1  0  0  0
 41108  1  0  0  0
 41 48  1  0  0  0
 42 43  1  0  0  0
 42 66  1  0  0  0
 42109  1  0  0  0
 42110  1  0  0  0
 43 44  1  0  0  0
 44111  1  0  0  0
 45 46  2  0  0  0
 45112  1  0  0  0
 46113  1  0  0  0
 47114  1  0  0  0
 47115  1  0  0  0
 48 56  1  0  0  0
 48 65  1  0  0  0
 48116  1  0  0  0
 49 50  1  0  0  0
 49 53  1  0  0  0
 49 64  1  0  0  0
 49117  1  0  0  0
 50 51  1  0  0  0
 50118  1  0  0  0
 50119  1  0  0  0
 51 52  1  0  0  0
 51120  1  0  0  0
 51121  1  0  0  0
 52122  1  0  0  0
 52123  1  0  0  0
 53 54  1  0  0  0
 54 55  2  0  0  0
 54124  1  0  0  0
 55 57  1  0  0  0
 55125  1  0  0  0
 56 69  2  0  0  0
 57 58  2  0  0  0
 57126  1  0  0  0
 58127  1  0  0  0
 59 60  1  0  0  0
 59 61  1  0  0  0
 59 62  1  0  0  0
 60128  1  0  0  0
 60129  1  0  0  0
 60130  1  0  0  0
 61131  1  0  0  0
 61132  1  0  0  0
 61133  1  0  0  0
 62134  1  0  0  0
 62135  1  0  0  0
 62136  1  0  0  0
 63 65  1  0  0  0
 63137  1  0  0  0
 63138  1  0  0  0
 63139  1  0  0  0
 64140  1  0  0  0
 65141  1  0  0  0
 68 78  1  0  0  0
 71 79  2  0  0  0
 71 81  1  0  0  0
 71142  1  0  0  0
 72 77  1  0  0  0
 72 79  1  0  0  0
 72 80  2  0  0  0
 73143  1  0  0  0
 73144  1  0  0  0
 73145  1  0  0  0
 73 77  1  0  0  0
 74146  1  0  0  0
 74147  1  0  0  0
 74148  1  0  0  0
 74 78  1  0  0  0
 75 78  1  0  0  0
 75149  1  0  0  0
 75150  1  0  0  0
 75151  1  0  0  0
 76 78  1  0  0  0
 76 81  1  0  0  0
 76152  1  0  0  0
 76153  1  0  0  0
 77 82  1  0  0  0
 77154  1  0  0  0
 80 81  1  0  0  0
 82155  1  0  0  0
M  ISO  4   1 100  68 101  78 101  82 100
M  END
> <chiral flag>
0

> <version>
0

> <s_m_source_file>
/data/baiqing/PycharmProjects/Reinvent-master-3.2/result/LINK_invent/BTK/process_docking_weight1_custom_sum_contain_oxygen_bond_distance_aromatic_linkinvent_7_9_3/rearranged_h_0063.sdf

> <i_m_source_file_index>
84

> <r_mmod_Potential_Energy-OPLS-2005>
706.44970703125

> <r_mmod_Stretch_Energy-OPLS-2005>
378.705688476562

> <r_mmod_Bend_Energy-OPLS-2005>
406.047546386719

> <r_mmod_Torsional_Energy-OPLS-2005>
222.383178710938

> <r_mmod_Improper_Torsional_Energy-OPLS-2005>
9.69235801696777

> <r_mmod_Van_der_Waal_Energy-OPLS-2005>
103.781288146973

> <r_mmod_Electrostatic_Energy-OPLS-2005>
-460.225616455078

> <r_mmod_Solvation_Energy-OPLS-2005>
-234.625137329102

> <b_mmod_Minimization_Converged-OPLS-2005>
0

> <r_mmod_RMS_Derivative-OPLS-2005>
0.712522745132446

$$$$
88
                    3D
 Structure written by MMmdl.
166174  0  0  1  0            999 V2000
  -30.6804  -14.6902   20.5645 C   0  0  0  0  0  0
  -30.4432  -12.4608   19.4350 C   0  0  0  0  0  0
  -29.4993  -12.5773   18.2189 C   0  0  0  0  0  0
  -28.0338  -12.3680   18.6417 C   0  0  0  0  0  0
  -27.6639  -13.2165   19.8869 C   0  0  2  0  0  0
  -28.7267  -13.0261   20.9960 C   0  0  0  0  0  0
  -25.2638  -13.8131   20.5762 C   0  0  0  0  0  0
  -24.1886  -13.0419   20.9278 C   0  0  0  0  0  0
  -24.6422  -11.6876   20.8795 C   0  0  0  0  0  0
  -23.9082  -10.4267   21.0451 C   0  0  0  0  0  0
  -24.3613   -9.4179   21.9209 C   0  0  0  0  0  0
  -23.6255   -8.2213   22.0748 C   0  0  0  0  0  0
  -22.4257   -8.0267   21.3533 C   0  0  0  0  0  0
  -21.9917   -9.0262   20.4654 C   0  0  0  0  0  0
  -22.7248  -10.2134   20.3091 C   0  0  0  0  0  0
  -21.6817   -6.0741   22.5292 C   0  0  0  0  0  0
  -21.3976   -6.5652   23.8226 C   0  0  0  0  0  0
  -21.3662   -5.6818   24.9185 C   0  0  0  0  0  0
  -21.6056   -4.3088   24.7260 C   0  0  0  0  0  0
  -21.8783   -3.8151   23.4380 C   0  0  0  0  0  0
  -21.9160   -4.6943   22.3437 C   0  0  0  0  0  0
  -22.7936  -13.5241   21.1868 C   0  0  0  0  0  0
  -22.1613   -4.2116   21.1015 F   0  0  0  0  0  0
  -21.5656   -3.4595   25.7798 F   0  0  0  0  0  0
  -30.0151  -13.4750   20.4430 N   0  0  0  0  0  0
  -26.3052  -12.9302   20.3459 N   0  0  0  0  0  0
  -25.9361  -11.6460   20.5826 N   0  0  0  0  0  0
  -22.0563  -12.8251   22.0421 N   0  0  0  0  0  0
  -25.4484  -15.1824   20.4055 N   0  0  0  0  0  0
  -31.7955  -14.7303   20.0369 O   0  0  0  0  0  0
  -21.6588   -6.8880   21.4256 O   0  0  0  0  0  0
  -22.3674  -14.5544   20.6690 O   0  0  0  0  0  0
  -24.6321  -31.8583   23.2106 C   0  0  0  0  0  0
  -25.9150  -32.4777   23.8456 C   0  0  1  0  0  0
  -27.2118  -27.2867   20.1041 C   0  0  0  0  0  0
  -25.5989  -33.8592   24.2389 N   0  0  0  0  0  0
  -23.4254  -30.4885   21.5550 C   0  0  2  0  0  0
  -24.8626  -28.9433   20.1146 C   0  0  0  0  0  0
  -22.7513  -29.4604   22.4953 C   0  0  0  0  0  0
  -18.0306  -28.1381   22.8571 C   0  0  0  0  0  0
  -24.1470  -36.7282   23.2623 C   0  0  0  0  0  0
  -25.9704  -30.7777   21.3803 C   0  0  0  0  0  0
  -26.0380  -29.4040   20.7195 C   0  0  0  0  0  0
  -27.2107  -28.5875   20.7036 C   0  0  0  0  0  0
  -25.9998  -26.8769   19.4955 C   0  0  0  0  0  0
  -24.8465  -27.6839   19.4998 C   0  0  0  0  0  0
  -23.6421  -29.8409   20.1638 C   0  0  0  0  0  0
  -25.4087  -36.3101   24.0351 C   0  0  1  0  0  0
  -20.5895  -28.3716   23.1328 C   0  0  2  0  0  0
  -20.6835  -26.9434   22.5428 C   0  0  0  0  0  0
  -19.5788  -26.6426   21.5272 C   0  0  0  0  0  0
  -18.2025  -26.7862   22.1850 C   0  0  0  0  0  0
  -19.1542  -28.8876   23.2935 C   0  0  0  0  0  0
  -18.9477  -30.1470   23.9006 C   0  0  0  0  0  0
  -17.6475  -30.6582   24.0705 C   0  0  0  0  0  0
  -25.9031  -34.9455   23.5150 C   0  0  0  0  0  0
  -16.5366  -29.9066   23.6460 C   0  0  0  0  0  0
  -16.7299  -28.6491   23.0441 C   0  0  0  0  0  0
  -26.4535  -31.6578   25.0812 C   0  0  0  0  0  0
  -25.3824  -31.3699   26.1597 C   0  0  0  0  0  0
  -27.0349  -30.3021   24.6213 C   0  0  0  0  0  0
  -27.6125  -32.4278   25.7579 C   0  0  0  0  0  0
  -27.5572  -37.1802   24.8471 C   0  0  0  0  0  0
  -21.4203  -29.3096   22.3732 N   0  0  0  0  0  0
  -26.4277  -37.3796   23.9418 N   0  0  0  0  0  0
  -24.6962  -31.0571   22.1064 N   0  0  0  0  0  0
  -23.4247  -28.8053   23.2957 O   0  0  0  0  0  0
  -28.3485  -26.4516   20.1582 O   0  0  0  0  0  0
  -26.5553  -34.8899   22.4683 O   0  0  0  0  0  0
  -23.5478  -32.1408   23.7412 O   0  0  0  0  0  0
  -32.3549  -17.4143   20.7413 C   0  0  0  0  0  0
  -31.8026  -19.2909   19.9640 C   0  0  0  0  0  0
  -30.9626  -17.3942   20.7602 C   0  0  0  0  0  0
  -28.0512  -19.0472   19.7064 C   0  0  0  0  0  0
  -30.7944  -15.8365   22.7476 C   0  0  0  0  0  0
  -28.7742  -22.3551   19.9076 C   0  0  0  0  0  0
  -28.7923  -23.8290   20.5433 C   0  0  0  0  0  0
  -29.3826  -21.0998   20.7039 C   0  0  0  0  0  0
  -28.6970  -16.3141   21.4827 C   0  0  0  0  0  0
  -28.3884  -25.0649   19.6077 C   0  0  0  0  0  0
  -29.4359  -19.6721   19.9520 C   0  0  1  0  0  0
  -30.2241  -16.0806   21.3140 C   0  0  2  0  0  0
  -32.8780  -18.5802   20.2211 N   0  0  0  0  0  0
  -30.6100  -18.7436   20.2716 N   0  0  0  0  0  0
  -28.4094  -17.3949   22.4587 N   0  3  0  0  0  0
  -31.4772  -12.5793   19.1035 H   0  0  0  0  0  0
  -30.4042  -11.4533   19.8497 H   0  0  0  0  0  0
  -29.7799  -11.8793   17.4313 H   0  0  0  0  0  0
  -29.5955  -13.5756   17.7922 H   0  0  0  0  0  0
  -27.8977  -11.3082   18.8614 H   0  0  0  0  0  0
  -27.3684  -12.5963   17.8107 H   0  0  0  0  0  0
  -27.6951  -14.2600   19.5678 H   0  0  0  0  0  0
  -28.7818  -11.9609   21.2280 H   0  0  0  0  0  0
  -28.4846  -13.4687   21.9583 H   0  0  0  0  0  0
  -25.2732   -9.5643   22.4820 H   0  0  0  0  0  0
  -23.9915   -7.4620   22.7497 H   0  0  0  0  0  0
  -21.0815   -8.8834   19.8992 H   0  0  0  0  0  0
  -22.3693  -10.9688   19.6242 H   0  0  0  0  0  0
  -21.1937   -7.6164   23.9695 H   0  0  0  0  0  0
  -21.1525   -6.0592   25.9091 H   0  0  0  0  0  0
  -22.0540   -2.7603   23.2929 H   0  0  0  0  0  0
  -22.4131  -11.9880   22.4792 H   0  0  0  0  0  0
  -21.1245  -13.1401   22.2630 H   0  0  0  0  0  0
  -24.6608  -15.8160   20.4644 H   0  0  0  0  0  0
  -26.1785  -15.5181   19.7942 H   0  0  0  0  0  0
  -26.7179  -32.5433   23.1178 H   0  0  0  0  0  0
  -25.0335  -33.9763   25.0670 H   0  0  0  0  0  0
  -22.7230  -31.3145   21.4252 H   0  0  0  0  0  0
  -23.3758  -35.9582   23.3282 H   0  0  0  0  0  0
  -24.3572  -36.8903   22.2035 H   0  0  0  0  0  0
  -23.7169  -37.6478   23.6615 H   0  0  0  0  0  0
  -26.0986  -31.5423   20.6126 H   0  0  0  0  0  0
  -26.8523  -30.8300   22.0053 H   0  0  0  0  0  0
  -28.1159  -28.9377   21.1808 H   0  0  0  0  0  0
  -25.8770  -25.9245   19.0096 H   0  0  0  0  0  0
  -23.9397  -27.3227   19.0321 H   0  0  0  0  0  0
  -23.7965  -30.6384   19.4361 H   0  0  0  0  0  0
  -22.7524  -29.3088   19.8302 H   0  0  0  0  0  0
  -25.1226  -36.1991   25.0843 H   0  0  0  0  0  0
  -20.9922  -28.3289   24.1469 H   0  0  0  0  0  0
  -21.6739  -26.7444   22.1280 H   0  0  0  0  0  0
  -20.5724  -26.2300   23.3615 H   0  0  0  0  0  0
  -19.6959  -25.6349   21.1257 H   0  0  0  0  0  0
  -19.6549  -27.3290   20.6841 H   0  0  0  0  0  0
  -17.4226  -26.6389   21.4378 H   0  0  0  0  0  0
  -18.0689  -26.0093   22.9424 H   0  0  0  0  0  0
  -19.7906  -30.7325   24.2373 H   0  0  0  0  0  0
  -17.4991  -31.6291   24.5223 H   0  0  0  0  0  0
  -15.5390  -30.2980   23.7818 H   0  0  0  0  0  0
  -15.8673  -28.0871   22.7088 H   0  0  0  0  0  0
  -24.6028  -30.6973   25.8037 H   0  0  0  0  0  0
  -24.8992  -32.2854   26.5054 H   0  0  0  0  0  0
  -25.8255  -30.8968   27.0385 H   0  0  0  0  0  0
  -26.2938  -29.6835   24.1168 H   0  0  0  0  0  0
  -27.4018  -29.7207   25.4691 H   0  0  0  0  0  0
  -27.8823  -30.4363   23.9470 H   0  0  0  0  0  0
  -27.2791  -33.3587   26.2189 H   0  0  0  0  0  0
  -28.3953  -32.6821   25.0412 H   0  0  0  0  0  0
  -28.0774  -31.8374   26.5497 H   0  0  0  0  0  0
  -28.2591  -38.0103   24.7524 H   0  0  0  0  0  0
  -28.1057  -36.2638   24.6266 H   0  0  0  0  0  0
  -27.2296  -37.1446   25.8880 H   0  0  0  0  0  0
  -20.9369  -29.8979   21.7109 H   0  0  0  0  0  0
  -26.0170  -38.2867   24.1492 H   0  0  0  0  0  0
  -33.0502  -16.6528   21.0631 H   0  0  0  0  0  0
  -31.8896  -20.2777   19.5248 H   0  0  0  0  0  0
  -28.0958  -18.1653   19.0648 H   0  0  0  0  0  0
  -27.4211  -19.7617   19.1742 H   0  0  0  0  0  0
  -27.5026  -18.8118   20.6135 H   0  0  0  0  0  0
  -30.7801  -16.7353   23.3660 H   0  0  0  0  0  0
  -31.8401  -15.5169   22.7221 H   0  0  0  0  0  0
  -30.2578  -15.0540   23.2865 H   0  0  0  0  0  0
  -29.2989  -22.4133   18.9535 H   0  0  0  0  0  0
  -27.7414  -22.1110   19.6612 H   0  0  0  0  0  0
  -29.7982  -24.0182   20.9212 H   0  0  0  0  0  0
  -28.1436  -23.8229   21.4200 H   0  0  0  0  0  0
  -28.8550  -20.9908   21.6530 H   0  0  0  0  0  0
  -30.3976  -21.3790   20.9922 H   0  0  0  0  0  0
  -28.1657  -15.4512   21.8598 H   0  0  0  0  0  0
  -28.2365  -16.5267   20.5222 H   0  0  0  0  0  0
  -27.4918  -24.7785   19.0637 H   0  0  0  0  0  0
  -29.1435  -25.1095   18.8237 H   0  0  0  0  0  0
  -29.6859  -19.9930   18.9356 H   0  0  0  0  0  0
  -28.8693  -17.2011   23.3306 H   0  0  0  0  0  0
  -27.4250  -17.4620   22.6456 H   0  0  0  0  0  0
  -28.7487  -18.2820   22.1214 H   0  0  0  0  0  0
  1 25  1  0  0  0
  1 30  2  0  0  0
  1 82  1  0  0  0
  2  3  1  0  0  0
  2 25  1  0  0  0
  2 86  1  0  0  0
  2 87  1  0  0  0
  3  4  1  0  0  0
  3 88  1  0  0  0
  3 89  1  0  0  0
  4  5  1  0  0  0
  4 90  1  0  0  0
  4 91  1  0  0  0
  5  6  1  0  0  0
  5 26  1  0  0  0
  5 92  1  0  0  0
  6 25  1  0  0  0
  6 93  1  0  0  0
  6 94  1  0  0  0
  7  8  2  0  0  0
  7 26  1  0  0  0
  7 29  1  0  0  0
  8  9  1  0  0  0
  8 22  1  0  0  0
  9 10  1  0  0  0
  9 27  2  0  0  0
 10 11  2  0  0  0
 10 15  1  0  0  0
 11 12  1  0  0  0
 11 95  1  0  0  0
 12 13  2  0  0  0
 12 96  1  0  0  0
 13 14  1  0  0  0
 13 31  1  0  0  0
 14 15  2  0  0  0
 14 97  1  0  0  0
 15 98  1  0  0  0
 16 17  2  0  0  0
 16 21  1  0  0  0
 16 31  1  0  0  0
 17 18  1  0  0  0
 17 99  1  0  0  0
 18 19  2  0  0  0
 18100  1  0  0  0
 19 20  1  0  0  0
 19 24  1  0  0  0
 20 21  2  0  0  0
 20101  1  0  0  0
 21 23  1  0  0  0
 22 28  1  0  0  0
 22 32  2  0  0  0
 26 27  1  0  0  0
 28102  1  0  0  0
 28103  1  0  0  0
 29104  1  0  0  0
 29105  1  0  0  0
 33 34  1  0  0  0
 33 66  1  0  0  0
 33 70  2  0  0  0
 34 36  1  0  0  0
 34 59  1  0  0  0
 34106  1  0  0  0
 35 44  2  0  0  0
 35 45  1  0  0  0
 35 68  1  0  0  0
 36 56  1  0  0  0
 36107  1  0  0  0
 37 39  1  0  0  0
 37 47  1  0  0  0
 37 66  1  0  0  0
 37108  1  0  0  0
 38 43  2  0  0  0
 38 46  1  0  0  0
 38 47  1  0  0  0
 39 64  1  0  0  0
 39 67  2  0  0  0
 40 52  1  0  0  0
 40 53  2  0  0  0
 40 58  1  0  0  0
 41109  1  0  0  0
 41110  1  0  0  0
 41111  1  0  0  0
 41 48  1  0  0  0
 42 43  1  0  0  0
 42 66  1  0  0  0
 42112  1  0  0  0
 42113  1  0  0  0
 43 44  1  0  0  0
 44114  1  0  0  0
 45 46  2  0  0  0
 45115  1  0  0  0
 46116  1  0  0  0
 47117  1  0  0  0
 47118  1  0  0  0
 48 56  1  0  0  0
 48 65  1  0  0  0
 48119  1  0  0  0
 49 50  1  0  0  0
 49 53  1  0  0  0
 49 64  1  0  0  0
 49120  1  0  0  0
 50 51  1  0  0  0
 50121  1  0  0  0
 50122  1  0  0  0
 51 52  1  0  0  0
 51123  1  0  0  0
 51124  1  0  0  0
 52125  1  0  0  0
 52126  1  0  0  0
 53 54  1  0  0  0
 54 55  2  0  0  0
 54127  1  0  0  0
 55 57  1  0  0  0
 55128  1  0  0  0
 56 69  2  0  0  0
 57 58  2  0  0  0
 57129  1  0  0  0
 58130  1  0  0  0
 59 60  1  0  0  0
 59 61  1  0  0  0
 59 62  1  0  0  0
 60131  1  0  0  0
 60132  1  0  0  0
 60133  1  0  0  0
 61134  1  0  0  0
 61135  1  0  0  0
 61136  1  0  0  0
 62137  1  0  0  0
 62138  1  0  0  0
 62139  1  0  0  0
 63 65  1  0  0  0
 63140  1  0  0  0
 63141  1  0  0  0
 63142  1  0  0  0
 64143  1  0  0  0
 65144  1  0  0  0
 68 80  1  0  0  0
 71 73  2  0  0  0
 71 83  1  0  0  0
 71145  1  0  0  0
 72 83  2  0  0  0
 72 84  1  0  0  0
 72146  1  0  0  0
 73 82  1  0  0  0
 73 84  1  0  0  0
 74147  1  0  0  0
 74148  1  0  0  0
 74149  1  0  0  0
 74 81  1  0  0  0
 75150  1  0  0  0
 75151  1  0  0  0
 75152  1  0  0  0
 75 82  1  0  0  0
 76 77  1  0  0  0
 76 78  1  0  0  0
 76153  1  0  0  0
 76154  1  0  0  0
 77 80  1  0  0  0
 77155  1  0  0  0
 77156  1  0  0  0
 78 81  1  0  0  0
 78157  1  0  0  0
 78158  1  0  0  0
 79 82  1  0  0  0
 79 85  1  0  0  0
 79159  1  0  0  0
 79160  1  0  0  0
 80161  1  0  0  0
 80162  1  0  0  0
 81 84  1  0  0  0
 81163  1  0  0  0
 85164  1  0  0  0
 85165  1  0  0  0
 85166  1  0  0  0
M  CHG  1  85   1
M  ISO  4   1 100  68 101  80 101  82 100
M  END
> <chiral flag>
0

> <version>
0

> <s_m_source_file>
/data/baiqing/PycharmProjects/Reinvent-master-3.2/result/LINK_invent/BTK/process_docking_weight1_custom_sum_contain_oxygen_bond_distance_aromatic_linkinvent_7_9_3/rearranged_h_0063.sdf

> <i_m_source_file_index>
85

> <r_mmod_Potential_Energy-OPLS-2005>
135.200546264648

> <r_mmod_Stretch_Energy-OPLS-2005>
150.6533203125

> <r_mmod_Bend_Energy-OPLS-2005>
289.974090576172

> <r_mmod_Torsional_Energy-OPLS-2005>
244.886245727539

> <r_mmod_Improper_Torsional_Energy-OPLS-2005>
4.08376932144165

> <r_mmod_Van_der_Waal_Energy-OPLS-2005>
143.566116333008

> <r_mmod_Electrostatic_Energy-OPLS-2005>
-249.060668945312

> <r_mmod_Solvation_Energy-OPLS-2005>
-505.712799072266

> <b_mmod_Minimization_Converged-OPLS-2005>
0

> <r_mmod_RMS_Derivative-OPLS-2005>
6.20039129257202

$$$$
89
                    3D
 Structure written by MMmdl.
178186  0  0  1  0            999 V2000
  -30.6619  -14.5484   20.6222 C   0  0  0  0  0  0
  -30.4274  -12.3859   19.4151 C   0  0  0  0  0  0
  -29.4851  -12.5611   18.2030 C   0  0  0  0  0  0
  -28.0033  -12.4110   18.6050 C   0  0  0  0  0  0
  -27.6556  -13.1991   19.8950 C   0  0  2  0  0  0
  -28.7052  -12.9077   20.9845 C   0  0  0  0  0  0
  -25.2550  -13.8124   20.5714 C   0  0  0  0  0  0
  -24.1804  -13.0443   20.9159 C   0  0  0  0  0  0
  -24.6364  -11.6891   20.8770 C   0  0  0  0  0  0
  -23.9050  -10.4286   21.0450 C   0  0  0  0  0  0
  -24.3621   -9.4188   21.9211 C   0  0  0  0  0  0
  -23.6299   -8.2231   22.0782 C   0  0  0  0  0  0
  -22.4273   -8.0286   21.3581 C   0  0  0  0  0  0
  -21.9920   -9.0243   20.4665 C   0  0  0  0  0  0
  -22.7251  -10.2117   20.3074 C   0  0  0  0  0  0
  -21.6851   -6.0759   22.5274 C   0  0  0  0  0  0
  -21.4031   -6.5657   23.8218 C   0  0  0  0  0  0
  -21.3666   -5.6801   24.9171 C   0  0  0  0  0  0
  -21.6047   -4.3060   24.7204 C   0  0  0  0  0  0
  -21.8814   -3.8169   23.4318 C   0  0  0  0  0  0
  -21.9190   -4.6995   22.3388 C   0  0  0  0  0  0
  -22.7830  -13.5265   21.1787 C   0  0  0  0  0  0
  -22.1659   -4.2192   21.0970 F   0  0  0  0  0  0
  -21.5622   -3.4528   25.7712 F   0  0  0  0  0  0
  -30.0113  -13.3445   20.4658 N   0  0  0  0  0  0
  -26.2985  -12.9277   20.3481 N   0  0  0  0  0  0
  -25.9293  -11.6446   20.5844 N   0  0  0  0  0  0
  -22.0451  -12.8292   22.0323 N   0  0  0  0  0  0
  -25.4281  -15.1862   20.4191 N   0  0  0  0  0  0
  -31.7597  -14.6917   20.0666 O   0  0  0  0  0  0
  -21.6643   -6.8891   21.4247 O   0  0  0  0  0  0
  -22.3562  -14.5604   20.6644 O   0  0  0  0  0  0
  -24.6218  -31.8625   23.2059 C   0  0  0  0  0  0
  -25.9078  -32.4791   23.8360 C   0  0  1  0  0  0
  -27.2229  -27.3946   20.0990 C   0  0  0  0  0  0
  -25.5911  -33.8591   24.2286 N   0  0  0  0  0  0
  -23.4092  -30.4874   21.5475 C   0  0  2  0  0  0
  -24.8522  -28.9471   20.1135 C   0  0  0  0  0  0
  -22.7439  -29.4624   22.4952 C   0  0  0  0  0  0
  -18.0270  -28.1388   22.8469 C   0  0  0  0  0  0
  -24.1483  -36.7295   23.2636 C   0  0  0  0  0  0
  -25.9410  -30.8199   21.3596 C   0  0  0  0  0  0
  -26.0168  -29.4495   20.7090 C   0  0  0  0  0  0
  -27.2109  -28.6832   20.6932 C   0  0  0  0  0  0
  -26.0420  -26.9110   19.5041 C   0  0  0  0  0  0
  -24.8605  -27.6777   19.5069 C   0  0  0  0  0  0
  -23.6193  -29.8238   20.1610 C   0  0  0  0  0  0
  -25.4106  -36.3078   24.0325 C   0  0  1  0  0  0
  -20.5871  -28.3668   23.1294 C   0  0  2  0  0  0
  -20.6762  -26.9396   22.5411 C   0  0  0  0  0  0
  -19.5737  -26.6395   21.5207 C   0  0  0  0  0  0
  -18.1913  -26.7929   22.1621 C   0  0  0  0  0  0
  -19.1525  -28.8843   23.2878 C   0  0  0  0  0  0
  -18.9451  -30.1446   23.8887 C   0  0  0  0  0  0
  -17.6452  -30.6582   24.0566 C   0  0  0  0  0  0
  -25.9042  -34.9455   23.5100 C   0  0  0  0  0  0
  -16.5340  -29.9083   23.6342 C   0  0  0  0  0  0
  -16.7260  -28.6515   23.0330 C   0  0  0  0  0  0
  -26.4508  -31.6570   25.0689 C   0  0  0  0  0  0
  -25.3799  -31.3662   26.1456 C   0  0  0  0  0  0
  -27.0332  -30.3006   24.6063 C   0  0  0  0  0  0
  -27.6064  -32.4312   25.7468 C   0  0  0  0  0  0
  -27.5564  -37.1805   24.8468 C   0  0  0  0  0  0
  -21.4159  -29.3044   22.3718 N   0  0  0  0  0  0
  -26.4276  -37.3778   23.9419 N   0  0  0  0  0  0
  -24.6759  -31.0712   22.0957 N   0  0  0  0  0  0
  -23.4194  -28.8151   23.2999 O   0  0  0  0  0  0
  -28.3604  -26.6088   20.0502 O   0  0  0  0  0  0
  -26.5616  -34.8924   22.4676 O   0  0  0  0  0  0
  -23.5401  -32.1392   23.7439 O   0  0  0  0  0  0
  -29.0594  -16.9223   19.3332 C   0  0  0  0  0  0
  -28.7185  -18.1926   18.9310 C   0  0  0  0  0  0
  -29.3304  -19.0390   19.9217 C   0  0  0  0  0  0
  -28.7826  -19.0914   16.5804 C   0  0  0  0  0  0
  -26.8000  -19.5738   18.0470 C   0  0  0  0  0  0
  -27.1646  -17.2742   17.1534 C   0  0  0  0  0  0
  -31.2911  -16.2379   22.3597 C   0  0  0  0  0  0
  -28.9019  -15.6607   22.3229 C   0  0  0  0  0  0
  -27.8648  -23.0302   22.6696 C   0  0  0  0  0  0
  -30.1815  -22.9454   21.7717 C   0  0  0  0  0  0
  -29.4490  -20.5809   19.9907 C   0  0  0  0  0  0
  -28.3953  -21.3587   20.8604 C   0  0  0  0  0  0
  -28.3209  -24.0136   20.3719 C   0  0  0  0  0  0
  -28.3981  -25.4805   20.9573 C   0  0  0  0  0  0
  -27.8804  -18.5367   17.6970 C   0  0  0  0  0  0
  -30.1340  -15.8349   21.4138 C   0  0  0  0  0  0
  -28.6938  -22.8405   21.3738 C   0  0  0  0  0  0
  -29.9206  -18.2906   20.8695 N   0  0  0  0  0  0
  -29.7825  -16.9735   20.5053 N   0  0  0  0  0  0
  -31.4584  -12.5199   19.0871 H   0  0  0  0  0  0
  -30.3815  -11.3615   19.7859 H   0  0  0  0  0  0
  -29.7395  -11.8425   17.4216 H   0  0  0  0  0  0
  -29.6397  -13.5545   17.7763 H   0  0  0  0  0  0
  -27.8072  -11.3480   18.7429 H   0  0  0  0  0  0
  -27.3578  -12.7398   17.7897 H   0  0  0  0  0  0
  -27.6987  -14.2563   19.6528 H   0  0  0  0  0  0
  -28.7310  -11.8306   21.1669 H   0  0  0  0  0  0
  -28.4294  -13.2826   21.9598 H   0  0  0  0  0  0
  -25.2782   -9.5670   22.4755 H   0  0  0  0  0  0
  -24.0029   -7.4637   22.7488 H   0  0  0  0  0  0
  -21.0879   -8.8787   19.8934 H   0  0  0  0  0  0
  -22.3779  -10.9669   19.6161 H   0  0  0  0  0  0
  -21.2047   -7.6169   23.9737 H   0  0  0  0  0  0
  -21.1497   -6.0528   25.9086 H   0  0  0  0  0  0
  -22.0585   -2.7632   23.2800 H   0  0  0  0  0  0
  -22.4116  -12.0015   22.4785 H   0  0  0  0  0  0
  -21.1043  -13.1316   22.2438 H   0  0  0  0  0  0
  -24.6739  -15.8459   20.5763 H   0  0  0  0  0  0
  -26.3038  -15.6349   20.1927 H   0  0  0  0  0  0
  -26.7123  -32.5490   23.1097 H   0  0  0  0  0  0
  -25.0078  -33.9728   25.0439 H   0  0  0  0  0  0
  -22.7000  -31.3062   21.4083 H   0  0  0  0  0  0
  -23.3736  -35.9636   23.3317 H   0  0  0  0  0  0
  -24.3574  -36.8917   22.2046 H   0  0  0  0  0  0
  -23.7252  -37.6505   23.6665 H   0  0  0  0  0  0
  -26.0554  -31.5837   20.5892 H   0  0  0  0  0  0
  -26.8279  -30.8732   21.9797 H   0  0  0  0  0  0
  -28.1135  -29.0730   21.1424 H   0  0  0  0  0  0
  -26.0376  -25.9380   19.0337 H   0  0  0  0  0  0
  -23.9671  -27.2840   19.0437 H   0  0  0  0  0  0
  -23.7299  -30.6007   19.4033 H   0  0  0  0  0  0
  -22.7417  -29.2496   19.8619 H   0  0  0  0  0  0
  -25.1297  -36.1916   25.0816 H   0  0  0  0  0  0
  -20.9932  -28.3200   24.1426 H   0  0  0  0  0  0
  -20.5638  -26.2264   23.3604 H   0  0  0  0  0  0
  -21.6631  -26.7427   22.1214 H   0  0  0  0  0  0
  -19.6887  -25.6313   21.1220 H   0  0  0  0  0  0
  -19.6663  -27.3218   20.6749 H   0  0  0  0  0  0
  -17.4188  -26.6665   21.4019 H   0  0  0  0  0  0
  -18.0289  -26.0078   22.9022 H   0  0  0  0  0  0
  -19.7921  -30.7268   24.2241 H   0  0  0  0  0  0
  -17.5008  -31.6249   24.5186 H   0  0  0  0  0  0
  -15.5335  -30.2986   23.7681 H   0  0  0  0  0  0
  -15.8661  -28.0855   22.7027 H   0  0  0  0  0  0
  -24.5988  -30.6973   25.7817 H   0  0  0  0  0  0
  -24.8971  -32.2805   26.4917 H   0  0  0  0  0  0
  -25.8196  -30.8844   27.0203 H   0  0  0  0  0  0
  -26.2833  -29.6747   24.1199 H   0  0  0  0  0  0
  -27.4188  -29.7266   25.4500 H   0  0  0  0  0  0
  -27.8643  -30.4323   23.9132 H   0  0  0  0  0  0
  -27.2650  -33.3616   26.2041 H   0  0  0  0  0  0
  -28.3884  -32.6890   25.0300 H   0  0  0  0  0  0
  -28.0727  -31.8444   26.5406 H   0  0  0  0  0  0
  -28.2602  -38.0078   24.7528 H   0  0  0  0  0  0
  -28.1043  -36.2634   24.6289 H   0  0  0  0  0  0
  -27.2298  -37.1452   25.8868 H   0  0  0  0  0  0
  -20.9309  -29.8807   21.6986 H   0  0  0  0  0  0
  -26.0151  -38.2848   24.1430 H   0  0  0  0  0  0
  -28.8164  -15.9694   18.8926 H   0  0  0  0  0  0
  -29.2817  -20.0109   16.8830 H   0  0  0  0  0  0
  -28.2043  -19.3117   15.6796 H   0  0  0  0  0  0
  -29.5528  -18.3705   16.3022 H   0  0  0  0  0  0
  -27.2325  -20.5322   18.3179 H   0  0  0  0  0  0
  -26.1856  -19.2350   18.8832 H   0  0  0  0  0  0
  -26.1353  -19.7647   17.2025 H   0  0  0  0  0  0
  -27.8711  -16.4941   16.8652 H   0  0  0  0  0  0
  -26.5773  -17.4967   16.2614 H   0  0  0  0  0  0
  -26.4814  -16.8392   17.8866 H   0  0  0  0  0  0
  -31.0332  -17.0953   22.9803 H   0  0  0  0  0  0
  -32.1957  -16.4878   21.8052 H   0  0  0  0  0  0
  -31.5427  -15.4174   23.0356 H   0  0  0  0  0  0
  -28.6655  -16.5958   22.8342 H   0  0  0  0  0  0
  -29.0538  -14.9165   23.1021 H   0  0  0  0  0  0
  -28.0131  -15.4176   21.7437 H   0  0  0  0  0  0
  -28.0830  -22.2509   23.4023 H   0  0  0  0  0  0
  -26.7924  -23.0113   22.4674 H   0  0  0  0  0  0
  -28.0835  -23.9716   23.1746 H   0  0  0  0  0  0
  -30.8371  -22.9161   20.9004 H   0  0  0  0  0  0
  -30.4698  -22.1336   22.4429 H   0  0  0  0  0  0
  -30.4043  -23.8677   22.3039 H   0  0  0  0  0  0
  -30.4425  -20.7864   20.3808 H   0  0  0  0  0  0
  -29.4631  -21.0043   18.9867 H   0  0  0  0  0  0
  -28.2699  -20.7349   21.7441 H   0  0  0  0  0  0
  -27.4228  -21.3275   20.3719 H   0  0  0  0  0  0
  -28.9608  -23.9460   19.4917 H   0  0  0  0  0  0
  -27.3058  -23.8567   20.0072 H   0  0  0  0  0  0
  -29.3391  -25.5985   21.4902 H   0  0  0  0  0  0
  -27.6216  -25.6064   21.7120 H   0  0  0  0  0  0
  1 25  1  0  0  0
  1 30  2  0  0  0
  1 86  1  0  0  0
  2  3  1  0  0  0
  2 25  1  0  0  0
  2 90  1  0  0  0
  2 91  1  0  0  0
  3  4  1  0  0  0
  3 92  1  0  0  0
  3 93  1  0  0  0
  4  5  1  0  0  0
  4 94  1  0  0  0
  4 95  1  0  0  0
  5  6  1  0  0  0
  5 26  1  0  0  0
  5 96  1  0  0  0
  6 25  1  0  0  0
  6 97  1  0  0  0
  6 98  1  0  0  0
  7  8  2  0  0  0
  7 26  1  0  0  0
  7 29  1  0  0  0
  8  9  1  0  0  0
  8 22  1  0  0  0
  9 10  1  0  0  0
  9 27  2  0  0  0
 10 11  2  0  0  0
 10 15  1  0  0  0
 11 12  1  0  0  0
 11 99  1  0  0  0
 12 13  2  0  0  0
 12100  1  0  0  0
 13 14  1  0  0  0
 13 31  1  0  0  0
 14 15  2  0  0  0
 14101  1  0  0  0
 15102  1  0  0  0
 16 17  2  0  0  0
 16 21  1  0  0  0
 16 31  1  0  0  0
 17 18  1  0  0  0
 17103  1  0  0  0
 18 19  2  0  0  0
 18104  1  0  0  0
 19 20  1  0  0  0
 19 24  1  0  0  0
 20 21  2  0  0  0
 20105  1  0  0  0
 21 23  1  0  0  0
 22 28  1  0  0  0
 22 32  2  0  0  0
 26 27  1  0  0  0
 28106  1  0  0  0
 28107  1  0  0  0
 29108  1  0  0  0
 29109  1  0  0  0
 33 34  1  0  0  0
 33 66  1  0  0  0
 33 70  2  0  0  0
 34 36  1  0  0  0
 34 59  1  0  0  0
 34110  1  0  0  0
 35 44  2  0  0  0
 35 45  1  0  0  0
 35 68  1  0  0  0
 36 56  1  0  0  0
 36111  1  0  0  0
 37 39  1  0  0  0
 37 47  1  0  0  0
 37 66  1  0  0  0
 37112  1  0  0  0
 38 43  2  0  0  0
 38 46  1  0  0  0
 38 47  1  0  0  0
 39 64  1  0  0  0
 39 67  2  0  0  0
 40 52  1  0  0  0
 40 53  2  0  0  0
 40 58  1  0  0  0
 41113  1  0  0  0
 41114  1  0  0  0
 41115  1  0  0  0
 41 48  1  0  0  0
 42 43  1  0  0  0
 42 66  1  0  0  0
 42116  1  0  0  0
 42117  1  0  0  0
 43 44  1  0  0  0
 44118  1  0  0  0
 45 46  2  0  0  0
 45119  1  0  0  0
 46120  1  0  0  0
 47121  1  0  0  0
 47122  1  0  0  0
 48 56  1  0  0  0
 48 65  1  0  0  0
 48123  1  0  0  0
 49 50  1  0  0  0
 49 53  1  0  0  0
 49 64  1  0  0  0
 49124  1  0  0  0
 50 51  1  0  0  0
 50125  1  0  0  0
 50126  1  0  0  0
 51 52  1  0  0  0
 51127  1  0  0  0
 51128  1  0  0  0
 52129  1  0  0  0
 52130  1  0  0  0
 53 54  1  0  0  0
 54 55  2  0  0  0
 54131  1  0  0  0
 55 57  1  0  0  0
 55132  1  0  0  0
 56 69  2  0  0  0
 57 58  2  0  0  0
 57133  1  0  0  0
 58134  1  0  0  0
 59 60  1  0  0  0
 59 61  1  0  0  0
 59 62  1  0  0  0
 60135  1  0  0  0
 60136  1  0  0  0
 60137  1  0  0  0
 61138  1  0  0  0
 61139  1  0  0  0
 61140  1  0  0  0
 62141  1  0  0  0
 62142  1  0  0  0
 62143  1  0  0  0
 63 65  1  0  0  0
 63144  1  0  0  0
 63145  1  0  0  0
 63146  1  0  0  0
 64147  1  0  0  0
 65148  1  0  0  0
 68 84  1  0  0  0
 71 72  2  0  0  0
 71 89  1  0  0  0
 71149  1  0  0  0
 72 73  1  0  0  0
 72 85  1  0  0  0
 73 81  1  0  0  0
 73 88  2  0  0  0
 74150  1  0  0  0
 74151  1  0  0  0
 74152  1  0  0  0
 74 85  1  0  0  0
 75 85  1  0  0  0
 75153  1  0  0  0
 75154  1  0  0  0
 75155  1  0  0  0
 76 85  1  0  0  0
 76156  1  0  0  0
 76157  1  0  0  0
 76158  1  0  0  0
 77159  1  0  0  0
 77160  1  0  0  0
 77161  1  0  0  0
 77 86  1  0  0  0
 78 86  1  0  0  0
 78162  1  0  0  0
 78163  1  0  0  0
 78164  1  0  0  0
 79165  1  0  0  0
 79166  1  0  0  0
 79167  1  0  0  0
 79 87  1  0  0  0
 80 87  1  0  0  0
 80168  1  0  0  0
 80169  1  0  0  0
 80170  1  0  0  0
 81 82  1  0  0  0
 81171  1  0  0  0
 81172  1  0  0  0
 82 87  1  0  0  0
 82173  1  0  0  0
 82174  1  0  0  0
 83 84  1  0  0  0
 83 87  1  0  0  0
 83175  1  0  0  0
 83176  1  0  0  0
 84177  1  0  0  0
 84178  1  0  0  0
 86 89  1  0  0  0
 88 89  1  0  0  0
M  ISO  4   1 100  68 101  84 101  86 100
M  END
> <chiral flag>
0

> <version>
0

> <s_m_source_file>
/data/baiqing/PycharmProjects/Reinvent-master-3.2/result/LINK_invent/BTK/process_docking_weight1_custom_sum_contain_oxygen_bond_distance_aromatic_linkinvent_7_9_3/rearranged_h_0063.sdf

> <i_m_source_file_index>
86

> <r_mmod_Potential_Energy-OPLS-2005>
144.503616333008

> <r_mmod_Stretch_Energy-OPLS-2005>
70.9791793823242

> <r_mmod_Bend_Energy-OPLS-2005>
165.95979309082

> <r_mmod_Torsional_Energy-OPLS-2005>
247.807662963867

> <r_mmod_Improper_Torsional_Energy-OPLS-2005>
3.2516622543335

> <r_mmod_Van_der_Waal_Energy-OPLS-2005>
134.619613647461

> <r_mmod_Electrostatic_Energy-OPLS-2005>
-319.889251708984

> <r_mmod_Solvation_Energy-OPLS-2005>
-178.640609741211

> <b_mmod_Minimization_Converged-OPLS-2005>
0

> <r_mmod_RMS_Derivative-OPLS-2005>
4.72770166397095

$$$$
90
                    3D
 Structure written by MMmdl.
166174  0  0  1  0            999 V2000
  -30.7561  -14.4306   20.5817 C   0  0  0  0  0  0
  -30.4026  -12.2816   19.4304 C   0  0  0  0  0  0
  -29.4857  -12.4801   18.2082 C   0  0  0  0  0  0
  -28.0077  -12.3511   18.6180 C   0  0  0  0  0  0
  -27.6552  -13.2050   19.8627 C   0  0  2  0  0  0
  -28.6908  -12.9928   20.9838 C   0  0  0  0  0  0
  -25.2606  -13.8175   20.5623 C   0  0  0  0  0  0
  -24.1855  -13.0458   20.9121 C   0  0  0  0  0  0
  -24.6382  -11.6916   20.8701 C   0  0  0  0  0  0
  -23.9061  -10.4300   21.0392 C   0  0  0  0  0  0
  -24.3609   -9.4215   21.9176 C   0  0  0  0  0  0
  -23.6295   -8.2245   22.0746 C   0  0  0  0  0  0
  -22.4273   -8.0270   21.3543 C   0  0  0  0  0  0
  -21.9910   -9.0248   20.4647 C   0  0  0  0  0  0
  -22.7232  -10.2136   20.3065 C   0  0  0  0  0  0
  -21.6847   -6.0747   22.5297 C   0  0  0  0  0  0
  -21.4017   -6.5653   23.8226 C   0  0  0  0  0  0
  -21.3664   -5.6800   24.9190 C   0  0  0  0  0  0
  -21.6036   -4.3062   24.7223 C   0  0  0  0  0  0
  -21.8834   -3.8160   23.4337 C   0  0  0  0  0  0
  -21.9198   -4.6978   22.3405 C   0  0  0  0  0  0
  -22.7886  -13.5269   21.1813 C   0  0  0  0  0  0
  -22.1676   -4.2171   21.0974 F   0  0  0  0  0  0
  -21.5595   -3.4539   25.7724 F   0  0  0  0  0  0
  -30.0229  -13.2893   20.4354 N   0  0  0  0  0  0
  -26.2979  -12.9327   20.3260 N   0  0  0  0  0  0
  -25.9299  -11.6486   20.5702 N   0  0  0  0  0  0
  -22.0549  -12.8256   22.0356 N   0  0  0  0  0  0
  -25.4446  -15.1886   20.4076 N   0  0  0  0  0  0
  -31.8832  -14.5289   20.0863 O   0  0  0  0  0  0
  -21.6636   -6.8881   21.4251 O   0  0  0  0  0  0
  -22.3584  -14.5594   20.6701 O   0  0  0  0  0  0
  -24.6158  -31.8673   23.2100 C   0  0  0  0  0  0
  -25.9043  -32.4815   23.8394 C   0  0  1  0  0  0
  -27.2325  -27.4404   20.0756 C   0  0  0  0  0  0
  -25.5901  -33.8609   24.2329 N   0  0  0  0  0  0
  -23.3979  -30.4933   21.5527 C   0  0  2  0  0  0
  -24.8398  -28.9610   20.1084 C   0  0  0  0  0  0
  -22.7380  -29.4664   22.5000 C   0  0  0  0  0  0
  -18.0295  -28.1355   22.8474 C   0  0  0  0  0  0
  -24.1482  -36.7296   23.2636 C   0  0  0  0  0  0
  -25.9289  -30.8281   21.3651 C   0  0  0  0  0  0
  -25.9967  -29.4643   20.7130 C   0  0  0  0  0  0
  -27.1906  -28.7087   20.7000 C   0  0  0  0  0  0
  -26.0547  -26.9500   19.4648 C   0  0  0  0  0  0
  -24.8654  -27.7034   19.4816 C   0  0  0  0  0  0
  -23.5983  -29.8241   20.1674 C   0  0  0  0  0  0
  -25.4109  -36.3117   24.0347 C   0  0  1  0  0  0
  -20.5874  -28.3632   23.1312 C   0  0  2  0  0  0
  -20.6770  -26.9388   22.5372 C   0  0  0  0  0  0
  -19.5747  -26.6414   21.5154 C   0  0  0  0  0  0
  -18.1927  -26.7909   22.1579 C   0  0  0  0  0  0
  -19.1534  -28.8804   23.2918 C   0  0  0  0  0  0
  -18.9459  -30.1410   23.8938 C   0  0  0  0  0  0
  -17.6466  -30.6561   24.0555 C   0  0  0  0  0  0
  -25.9040  -34.9475   23.5146 C   0  0  0  0  0  0
  -16.5354  -29.9056   23.6341 C   0  0  0  0  0  0
  -16.7286  -28.6486   23.0341 C   0  0  0  0  0  0
  -26.4465  -31.6617   25.0725 C   0  0  0  0  0  0
  -25.3740  -31.3711   26.1484 C   0  0  0  0  0  0
  -27.0296  -30.3069   24.6101 C   0  0  0  0  0  0
  -27.6034  -32.4348   25.7486 C   0  0  0  0  0  0
  -27.5582  -37.1802   24.8468 C   0  0  0  0  0  0
  -21.4113  -29.3020   22.3728 N   0  0  0  0  0  0
  -26.4294  -37.3809   23.9411 N   0  0  0  0  0  0
  -24.6656  -31.0787   22.0987 N   0  0  0  0  0  0
  -23.4151  -28.8213   23.3051 O   0  0  0  0  0  0
  -28.4315  -26.7564   20.0844 O   0  0  0  0  0  0
  -26.5617  -34.8941   22.4708 O   0  0  0  0  0  0
  -23.5349  -32.1418   23.7496 O   0  0  0  0  0  0
  -27.8574  -19.3876   19.5485 C   0  0  0  0  0  0
  -28.3445  -20.4522   20.3369 C   0  0  0  0  0  0
  -29.6151  -18.0491   20.2576 C   0  0  0  0  0  0
  -30.1045  -19.1242   21.0659 C   0  0  0  0  0  0
  -30.1891  -15.6698   24.8367 C   0  0  0  0  0  0
  -27.6436  -21.7963   20.4102 C   0  0  0  0  0  0
  -30.3567  -16.7260   20.0353 C   0  0  0  0  0  0
  -28.4254  -22.9367   19.7285 C   0  0  0  0  0  0
  -27.9608  -24.3274   20.2044 C   0  0  0  0  0  0
  -29.6791  -15.8370   22.3273 C   0  0  0  0  0  0
  -28.5640  -25.5016   19.4052 C   0  0  0  0  0  0
  -31.3583  -19.0791   21.9540 C   0  0  0  0  0  0
  -30.5312  -15.1541   23.4306 C   0  0  0  0  0  0
  -28.4869  -18.1884   19.5103 N   0  0  0  0  0  0
  -29.4506  -20.3146   21.1028 N   0  0  0  0  0  0
  -30.0965  -15.5637   20.9327 N   0  0  0  0  0  0
  -31.9871  -17.9090   21.9744 F   0  0  0  0  0  0
  -32.2262  -20.0022   21.5460 F   0  0  0  0  0  0
  -31.0013  -19.3654   23.2086 F   0  0  0  0  0  0
  -30.3537  -13.8351   23.4381 F   0  0  0  0  0  0
  -31.8238  -15.4048   23.2212 F   0  0  0  0  0  0
  -31.4513  -12.3322   19.1298 H   0  0  0  0  0  0
  -30.2683  -11.2783   19.8418 H   0  0  0  0  0  0
  -29.7196  -11.7444   17.4398 H   0  0  0  0  0  0
  -29.6656  -13.4613   17.7665 H   0  0  0  0  0  0
  -27.8241  -11.2970   18.8356 H   0  0  0  0  0  0
  -27.3571  -12.6117   17.7831 H   0  0  0  0  0  0
  -27.7031  -14.2507   19.5542 H   0  0  0  0  0  0
  -28.6654  -11.9563   21.3263 H   0  0  0  0  0  0
  -28.4282  -13.5785   21.8560 H   0  0  0  0  0  0
  -25.2746   -9.5674   22.4774 H   0  0  0  0  0  0
  -23.9996   -7.4630   22.7463 H   0  0  0  0  0  0
  -21.0857   -8.8779   19.8946 H   0  0  0  0  0  0
  -22.3690  -10.9685   19.6186 H   0  0  0  0  0  0
  -21.2032   -7.6164   23.9744 H   0  0  0  0  0  0
  -21.1460   -6.0517   25.9092 H   0  0  0  0  0  0
  -22.0607   -2.7622   23.2830 H   0  0  0  0  0  0
  -22.4141  -11.9833   22.4624 H   0  0  0  0  0  0
  -21.1202  -13.1333   22.2695 H   0  0  0  0  0  0
  -24.6907  -15.8581   20.5154 H   0  0  0  0  0  0
  -26.3109  -15.6102   20.0973 H   0  0  0  0  0  0
  -26.7091  -32.5508   23.1135 H   0  0  0  0  0  0
  -25.0055  -33.9789   25.0478 H   0  0  0  0  0  0
  -22.6897  -31.3141   21.4205 H   0  0  0  0  0  0
  -23.3750  -35.9618   23.3323 H   0  0  0  0  0  0
  -24.3576  -36.8880   22.2042 H   0  0  0  0  0  0
  -23.7224  -37.6500   23.6640 H   0  0  0  0  0  0
  -26.0538  -31.5887   20.5954 H   0  0  0  0  0  0
  -26.8131  -30.8704   21.9892 H   0  0  0  0  0  0
  -28.0843  -29.0982   21.1651 H   0  0  0  0  0  0
  -26.0305  -25.9959   18.9574 H   0  0  0  0  0  0
  -23.9800  -27.3121   18.9965 H   0  0  0  0  0  0
  -23.6821  -30.5950   19.4008 H   0  0  0  0  0  0
  -22.7234  -29.2343   19.8851 H   0  0  0  0  0  0
  -25.1284  -36.1979   25.0843 H   0  0  0  0  0  0
  -20.9976  -28.3180   24.1432 H   0  0  0  0  0  0
  -20.5721  -26.2226   23.3544 H   0  0  0  0  0  0
  -21.6639  -26.7458   22.1128 H   0  0  0  0  0  0
  -19.6916  -25.6353   21.1095 H   0  0  0  0  0  0
  -19.6688  -27.3266   20.6715 H   0  0  0  0  0  0
  -17.4204  -26.6663   21.3966 H   0  0  0  0  0  0
  -18.0307  -26.0048   22.8970 H   0  0  0  0  0  0
  -19.7918  -30.7221   24.2339 H   0  0  0  0  0  0
  -17.5012  -31.6232   24.5158 H   0  0  0  0  0  0
  -15.5343  -30.2939   23.7686 H   0  0  0  0  0  0
  -15.8680  -28.0813   22.7042 H   0  0  0  0  0  0
  -24.5879  -30.7106   25.7813 H   0  0  0  0  0  0
  -24.8970  -32.2869   26.4991 H   0  0  0  0  0  0
  -25.8089  -30.8821   27.0216 H   0  0  0  0  0  0
  -26.2829  -29.6831   24.1166 H   0  0  0  0  0  0
  -27.4089  -29.7310   25.4556 H   0  0  0  0  0  0
  -27.8679  -30.4410   23.9255 H   0  0  0  0  0  0
  -27.2638  -33.3620   26.2138 H   0  0  0  0  0  0
  -28.3806  -32.6958   25.0284 H   0  0  0  0  0  0
  -28.0776  -31.8440   26.5342 H   0  0  0  0  0  0
  -28.2615  -38.0086   24.7517 H   0  0  0  0  0  0
  -28.1066  -36.2613   24.6299 H   0  0  0  0  0  0
  -27.2316  -37.1483   25.8880 H   0  0  0  0  0  0
  -20.9283  -29.8708   21.6929 H   0  0  0  0  0  0
  -26.0181  -38.2894   24.1380 H   0  0  0  0  0  0
  -26.9617  -19.4989   18.9508 H   0  0  0  0  0  0
  -29.1588  -15.4389   25.1114 H   0  0  0  0  0  0
  -30.3118  -16.7524   24.8982 H   0  0  0  0  0  0
  -30.8398  -15.2204   25.5882 H   0  0  0  0  0  0
  -27.4886  -22.0309   21.4640 H   0  0  0  0  0  0
  -26.6502  -21.7090   19.9668 H   0  0  0  0  0  0
  -31.4245  -16.9439   19.9750 H   0  0  0  0  0  0
  -30.1170  -16.4009   19.0173 H   0  0  0  0  0  0
  -28.3355  -22.8471   18.6455 H   0  0  0  0  0  0
  -29.4866  -22.8374   19.9630 H   0  0  0  0  0  0
  -28.2444  -24.4317   21.2516 H   0  0  0  0  0  0
  -26.8733  -24.3683   20.1824 H   0  0  0  0  0  0
  -28.6226  -15.6013   22.4520 H   0  0  0  0  0  0
  -29.7308  -16.9021   22.5274 H   0  0  0  0  0  0
  -28.1642  -25.5479   18.3919 H   0  0  0  0  0  0
  -29.6365  -25.3303   19.2898 H   0  0  0  0  0  0
  1 25  1  0  0  0
  1 30  2  0  0  0
  1 86  1  0  0  0
  2  3  1  0  0  0
  2 25  1  0  0  0
  2 92  1  0  0  0
  2 93  1  0  0  0
  3  4  1  0  0  0
  3 94  1  0  0  0
  3 95  1  0  0  0
  4  5  1  0  0  0
  4 96  1  0  0  0
  4 97  1  0  0  0
  5  6  1  0  0  0
  5 26  1  0  0  0
  5 98  1  0  0  0
  6 25  1  0  0  0
  6 99  1  0  0  0
  6100  1  0  0  0
  7  8  2  0  0  0
  7 26  1  0  0  0
  7 29  1  0  0  0
  8  9  1  0  0  0
  8 22  1  0  0  0
  9 10  1  0  0  0
  9 27  2  0  0  0
 10 11  2  0  0  0
 10 15  1  0  0  0
 11 12  1  0  0  0
 11101  1  0  0  0
 12 13  2  0  0  0
 12102  1  0  0  0
 13 14  1  0  0  0
 13 31  1  0  0  0
 14 15  2  0  0  0
 14103  1  0  0  0
 15104  1  0  0  0
 16 17  2  0  0  0
 16 21  1  0  0  0
 16 31  1  0  0  0
 17 18  1  0  0  0
 17105  1  0  0  0
 18 19  2  0  0  0
 18106  1  0  0  0
 19 20  1  0  0  0
 19 24  1  0  0  0
 20 21  2  0  0  0
 20107  1  0  0  0
 21 23  1  0  0  0
 22 28  1  0  0  0
 22 32  2  0  0  0
 26 27  1  0  0  0
 28108  1  0  0  0
 28109  1  0  0  0
 29110  1  0  0  0
 29111  1  0  0  0
 33 34  1  0  0  0
 33 66  1  0  0  0
 33 70  2  0  0  0
 34 36  1  0  0  0
 34 59  1  0  0  0
 34112  1  0  0  0
 35 44  2  0  0  0
 35 45  1  0  0  0
 35 68  1  0  0  0
 36 56  1  0  0  0
 36113  1  0  0  0
 37 39  1  0  0  0
 37 47  1  0  0  0
 37 66  1  0  0  0
 37114  1  0  0  0
 38 43  2  0  0  0
 38 46  1  0  0  0
 38 47  1  0  0  0
 39 64  1  0  0  0
 39 67  2  0  0  0
 40 52  1  0  0  0
 40 53  2  0  0  0
 40 58  1  0  0  0
 41115  1  0  0  0
 41116  1  0  0  0
 41117  1  0  0  0
 41 48  1  0  0  0
 42 43  1  0  0  0
 42 66  1  0  0  0
 42118  1  0  0  0
 42119  1  0  0  0
 43 44  1  0  0  0
 44120  1  0  0  0
 45 46  2  0  0  0
 45121  1  0  0  0
 46122  1  0  0  0
 47123  1  0  0  0
 47124  1  0  0  0
 48 56  1  0  0  0
 48 65  1  0  0  0
 48125  1  0  0  0
 49 50  1  0  0  0
 49 53  1  0  0  0
 49 64  1  0  0  0
 49126  1  0  0  0
 50 51  1  0  0  0
 50127  1  0  0  0
 50128  1  0  0  0
 51 52  1  0  0  0
 51129  1  0  0  0
 51130  1  0  0  0
 52131  1  0  0  0
 52132  1  0  0  0
 53 54  1  0  0  0
 54 55  2  0  0  0
 54133  1  0  0  0
 55 57  1  0  0  0
 55134  1  0  0  0
 56 69  2  0  0  0
 57 58  2  0  0  0
 57135  1  0  0  0
 58136  1  0  0  0
 59 60  1  0  0  0
 59 61  1  0  0  0
 59 62  1  0  0  0
 60137  1  0  0  0
 60138  1  0  0  0
 60139  1  0  0  0
 61140  1  0  0  0
 61141  1  0  0  0
 61142  1  0  0  0
 62143  1  0  0  0
 62144  1  0  0  0
 62145  1  0  0  0
 63 65  1  0  0  0
 63146  1  0  0  0
 63147  1  0  0  0
 63148  1  0  0  0
 64149  1  0  0  0
 65150  1  0  0  0
 68 81  1  0  0  0
 71 72  2  0  0  0
 71 84  1  0  0  0
 71151  1  0  0  0
 72 76  1  0  0  0
 72 85  1  0  0  0
 73 74  1  0  0  0
 73 77  1  0  0  0
 73 84  2  0  0  0
 74 82  1  0  0  0
 74 85  2  0  0  0
 75152  1  0  0  0
 75153  1  0  0  0
 75154  1  0  0  0
 75 83  1  0  0  0
 76 78  1  0  0  0
 76155  1  0  0  0
 76156  1  0  0  0
 77 86  1  0  0  0
 77157  1  0  0  0
 77158  1  0  0  0
 78 79  1  0  0  0
 78159  1  0  0  0
 78160  1  0  0  0
 79 81  1  0  0  0
 79161  1  0  0  0
 79162  1  0  0  0
 80 83  1  0  0  0
 80 86  1  0  0  0
 80163  1  0  0  0
 80164  1  0  0  0
 81165  1  0  0  0
 81166  1  0  0  0
 82 87  1  0  0  0
 82 88  1  0  0  0
 82 89  1  0  0  0
 83 90  1  0  0  0
 83 91  1  0  0  0
M  ISO  4   1 100  68 101  81 101  86 100
M  END
> <chiral flag>
0

> <version>
0

> <s_m_source_file>
/data/baiqing/PycharmProjects/Reinvent-master-3.2/result/LINK_invent/BTK/process_docking_weight1_custom_sum_contain_oxygen_bond_distance_aromatic_linkinvent_7_9_3/rearranged_h_0063.sdf

> <i_m_source_file_index>
87

> <r_mmod_Potential_Energy-OPLS-2005>
200.378799438477

> <r_mmod_Stretch_Energy-OPLS-2005>
43.1192626953125

> <r_mmod_Bend_Energy-OPLS-2005>
126.564590454102

> <r_mmod_Torsional_Energy-OPLS-2005>
257.172760009766

> <r_mmod_Improper_Torsional_Energy-OPLS-2005>
12.1640863418579

> <r_mmod_Van_der_Waal_Energy-OPLS-2005>
172.999526977539

> <r_mmod_Electrostatic_Energy-OPLS-2005>
-243.311889648438

> <r_mmod_Solvation_Energy-OPLS-2005>
-182.732650756836

> <b_mmod_Minimization_Converged-OPLS-2005>
0

> <r_mmod_RMS_Derivative-OPLS-2005>
4.51470375061035

$$$$
93
                    3D
 Structure written by MMmdl.
152160  0  0  1  0            999 V2000
  -30.5283  -15.0197   20.4104 C   0  0  0  0  0  0
  -30.4469  -12.6359   19.5128 C   0  0  0  0  0  0
  -29.5302  -12.5217   18.2730 C   0  0  0  0  0  0
  -28.0654  -12.3006   18.6914 C   0  0  0  0  0  0
  -27.6280  -13.2538   19.8340 C   0  0  2  0  0  0
  -28.6692  -13.3200   20.9725 C   0  0  0  0  0  0
  -25.2447  -13.8218   20.5706 C   0  0  0  0  0  0
  -24.1773  -13.0443   20.9264 C   0  0  0  0  0  0
  -24.6387  -11.6930   20.8762 C   0  0  0  0  0  0
  -23.9077  -10.4298   21.0404 C   0  0  0  0  0  0
  -24.3626   -9.4218   21.9187 C   0  0  0  0  0  0
  -23.6301   -8.2246   22.0740 C   0  0  0  0  0  0
  -22.4279   -8.0280   21.3535 C   0  0  0  0  0  0
  -21.9924   -9.0245   20.4627 C   0  0  0  0  0  0
  -22.7248  -10.2129   20.3050 C   0  0  0  0  0  0
  -21.6856   -6.0738   22.5277 C   0  0  0  0  0  0
  -21.4007   -6.5638   23.8212 C   0  0  0  0  0  0
  -21.3661   -5.6790   24.9177 C   0  0  0  0  0  0
  -21.6046   -4.3050   24.7226 C   0  0  0  0  0  0
  -21.8823   -3.8143   23.4346 C   0  0  0  0  0  0
  -21.9193   -4.6962   22.3404 C   0  0  0  0  0  0
  -22.7791  -13.5213   21.1908 C   0  0  0  0  0  0
  -22.1665   -4.2153   21.0979 F   0  0  0  0  0  0
  -21.5640   -3.4531   25.7737 F   0  0  0  0  0  0
  -29.9395  -13.7494   20.3713 N   0  0  0  0  0  0
  -26.2877  -12.9466   20.3218 N   0  0  0  0  0  0
  -25.9329  -11.6592   20.5744 N   0  0  0  0  0  0
  -22.0434  -12.8176   22.0435 N   0  0  0  0  0  0
  -25.4122  -15.1939   20.4109 N   0  0  0  0  0  0
  -31.7308  -15.0737   20.1327 O   0  0  0  0  0  0
  -21.6641   -6.8878   21.4234 O   0  0  0  0  0  0
  -22.3465  -14.5510   20.6736 O   0  0  0  0  0  0
  -24.6512  -31.8389   23.1868 C   0  0  0  0  0  0
  -25.9256  -32.4656   23.8275 C   0  0  1  0  0  0
  -27.2043  -27.0662   20.1619 C   0  0  0  0  0  0
  -25.5995  -33.8457   24.2191 N   0  0  0  0  0  0
  -23.4555  -30.4646   21.5316 C   0  0  2  0  0  0
  -24.9035  -28.8853   20.1081 C   0  0  0  0  0  0
  -22.7606  -29.4538   22.4810 C   0  0  0  0  0  0
  -18.0325  -28.1399   22.8520 C   0  0  0  0  0  0
  -24.1477  -36.7199   23.2656 C   0  0  0  0  0  0
  -26.0196  -30.6894   21.3983 C   0  0  0  0  0  0
  -26.0865  -29.2974   20.7360 C   0  0  0  0  0  0
  -27.2364  -28.4064   20.7447 C   0  0  0  0  0  0
  -25.9950  -26.7850   19.4801 C   0  0  0  0  0  0
  -24.8755  -27.6455   19.4603 C   0  0  0  0  0  0
  -23.6879  -29.8044   20.1490 C   0  0  0  0  0  0
  -25.4123  -36.2985   24.0329 C   0  0  1  0  0  0
  -20.5945  -28.3723   23.1221 C   0  0  2  0  0  0
  -20.6789  -26.9417   22.5386 C   0  0  0  0  0  0
  -19.5745  -26.6389   21.5206 C   0  0  0  0  0  0
  -18.1933  -26.7953   22.1636 C   0  0  0  0  0  0
  -19.1590  -28.8894   23.2855 C   0  0  0  0  0  0
  -18.9498  -30.1497   23.8867 C   0  0  0  0  0  0
  -17.6486  -30.6589   24.0599 C   0  0  0  0  0  0
  -25.9084  -34.9377   23.5053 C   0  0  0  0  0  0
  -16.5383  -29.9095   23.6341 C   0  0  0  0  0  0
  -16.7306  -28.6517   23.0360 C   0  0  0  0  0  0
  -26.4563  -31.6523   25.0729 C   0  0  0  0  0  0
  -25.3735  -31.3692   26.1410 C   0  0  0  0  0  0
  -27.0429  -30.2921   24.6351 C   0  0  0  0  0  0
  -27.6109  -32.4287   25.7503 C   0  0  0  0  0  0
  -27.5560  -37.1765   24.8495 C   0  0  0  0  0  0
  -21.4293  -29.3051   22.3585 N   0  0  0  0  0  0
  -26.4264  -37.3731   23.9444 N   0  0  0  0  0  0
  -24.7281  -31.0213   22.0931 N   0  0  0  0  0  0
  -23.4223  -28.8067   23.2950 O   0  0  0  0  0  0
  -28.2061  -26.0021   20.2550 O   0  0  0  0  0  0
  -26.5650  -34.8900   22.4625 O   0  0  0  0  0  0
  -23.5613  -32.1288   23.7055 O   0  0  0  0  0  0
  -28.0586  -21.6747   20.1713 C   0  0  0  0  0  0
  -28.5542  -23.0042   20.2988 C   0  0  0  0  0  0
  -28.6678  -18.8868   22.2123 C   0  0  0  0  0  0
  -27.6012  -18.5746   19.9956 C   0  0  0  0  0  0
  -27.7831  -24.4853   20.0595 C   0  0  0  0  0  0
  -30.0242  -17.7940   20.3337 C   0  0  0  0  0  0
  -28.8981  -19.0314   20.6974 C   0  0  0  0  0  0
  -29.8880  -22.7124   20.6709 N   0  0  0  0  0  0
  -30.1380  -21.3917   20.7751 N   0  0  0  0  0  0
  -29.0361  -20.6345   20.4466 N   0  0  0  0  0  0
  -29.7543  -16.2213   20.5566 N   0  0  0  0  0  0
  -31.4747  -12.8059   19.1895 H   0  0  0  0  0  0
  -30.4687  -11.6998   20.0743 H   0  0  0  0  0  0
  -29.8651  -11.7028   17.6340 H   0  0  0  0  0  0
  -29.6072  -13.4326   17.6792 H   0  0  0  0  0  0
  -27.9731  -11.2651   19.0247 H   0  0  0  0  0  0
  -27.4036  -12.4048   17.8304 H   0  0  0  0  0  0
  -27.5814  -14.2450   19.3814 H   0  0  0  0  0  0
  -28.7727  -12.3542   21.4699 H   0  0  0  0  0  0
  -28.3547  -14.0304   21.7390 H   0  0  0  0  0  0
  -25.2769   -9.5697   22.4771 H   0  0  0  0  0  0
  -24.0017   -7.4635   22.7452 H   0  0  0  0  0  0
  -21.0870   -8.8741   19.8929 H   0  0  0  0  0  0
  -22.3695  -10.9657   19.6153 H   0  0  0  0  0  0
  -21.1980   -7.6141   23.9715 H   0  0  0  0  0  0
  -21.1487   -6.0520   25.9083 H   0  0  0  0  0  0
  -22.0598   -2.7609   23.2839 H   0  0  0  0  0  0
  -22.4051  -11.9852   22.4854 H   0  0  0  0  0  0
  -21.1019  -13.1131   22.2593 H   0  0  0  0  0  0
  -24.6419  -15.8450   20.5212 H   0  0  0  0  0  0
  -26.2377  -15.6220   20.0139 H   0  0  0  0  0  0
  -26.7327  -32.5238   23.0998 H   0  0  0  0  0  0
  -25.0217  -33.9588   25.0393 H   0  0  0  0  0  0
  -22.7623  -31.2936   21.3811 H   0  0  0  0  0  0
  -23.3745  -35.9520   23.3314 H   0  0  0  0  0  0
  -24.3556  -36.8809   22.2064 H   0  0  0  0  0  0
  -23.7223  -37.6411   23.6672 H   0  0  0  0  0  0
  -26.1966  -31.4420   20.6291 H   0  0  0  0  0  0
  -26.8833  -30.7281   22.0480 H   0  0  0  0  0  0
  -28.1295  -28.7214   21.2692 H   0  0  0  0  0  0
  -25.8587  -25.8470   18.9689 H   0  0  0  0  0  0
  -23.9751  -27.3255   18.9481 H   0  0  0  0  0  0
  -23.8505  -30.5887   19.4081 H   0  0  0  0  0  0
  -22.7944  -29.2714   19.8144 H   0  0  0  0  0  0
  -25.1297  -36.1791   25.0817 H   0  0  0  0  0  0
  -21.0091  -28.3297   24.1316 H   0  0  0  0  0  0
  -20.5636  -26.2346   23.3612 H   0  0  0  0  0  0
  -21.6649  -26.7371   22.1196 H   0  0  0  0  0  0
  -19.6867  -25.6296   21.1226 H   0  0  0  0  0  0
  -19.6653  -27.3230   20.6758 H   0  0  0  0  0  0
  -17.4193  -26.6750   21.4037 H   0  0  0  0  0  0
  -18.0312  -26.0095   22.9021 H   0  0  0  0  0  0
  -19.7956  -30.7369   24.2173 H   0  0  0  0  0  0
  -17.5013  -31.6256   24.5211 H   0  0  0  0  0  0
  -15.5373  -30.2976   23.7661 H   0  0  0  0  0  0
  -15.8719  -28.0824   22.7058 H   0  0  0  0  0  0
  -24.5986  -30.6962   25.7727 H   0  0  0  0  0  0
  -24.8842  -32.2853   26.4727 H   0  0  0  0  0  0
  -25.8041  -30.8958   27.0243 H   0  0  0  0  0  0
  -26.3046  -29.6639   24.1379 H   0  0  0  0  0  0
  -27.4075  -29.7240   25.4911 H   0  0  0  0  0  0
  -27.8952  -30.4162   23.9678 H   0  0  0  0  0  0
  -27.2746  -33.3636   26.2002 H   0  0  0  0  0  0
  -28.3980  -32.6763   25.0357 H   0  0  0  0  0  0
  -28.0738  -31.8455   26.5475 H   0  0  0  0  0  0
  -28.2593  -38.0049   24.7529 H   0  0  0  0  0  0
  -28.1013  -36.2587   24.6294 H   0  0  0  0  0  0
  -27.2272  -37.1371   25.8893 H   0  0  0  0  0  0
  -20.9479  -29.8800   21.6823 H   0  0  0  0  0  0
  -26.0084  -38.2774   24.1475 H   0  0  0  0  0  0
  -27.0490  -21.3802   19.9192 H   0  0  0  0  0  0
  -28.4357  -17.8601   22.4967 H   0  0  0  0  0  0
  -27.8454  -19.5154   22.5543 H   0  0  0  0  0  0
  -29.5579  -19.1851   22.7674 H   0  0  0  0  0  0
  -27.3627  -17.5336   20.2193 H   0  0  0  0  0  0
  -27.6826  -18.6617   18.9111 H   0  0  0  0  0  0
  -26.7381  -19.1574   20.3157 H   0  0  0  0  0  0
  -26.8573  -24.4076   20.6309 H   0  0  0  0  0  0
  -27.4614  -24.4462   19.0206 H   0  0  0  0  0  0
  -30.9479  -18.0357   20.8611 H   0  0  0  0  0  0
  -30.2844  -17.9064   19.2793 H   0  0  0  0  0  0
  -28.7942  -16.0203   20.7899 H   0  0  0  0  0  0
  1 25  1  0  0  0
  1 30  2  0  0  0
  1 81  1  0  0  0
  2  3  1  0  0  0
  2 25  1  0  0  0
  2 82  1  0  0  0
  2 83  1  0  0  0
  3  4  1  0  0  0
  3 84  1  0  0  0
  3 85  1  0  0  0
  4  5  1  0  0  0
  4 86  1  0  0  0
  4 87  1  0  0  0
  5  6  1  0  0  0
  5 26  1  0  0  0
  5 88  1  0  0  0
  6 25  1  0  0  0
  6 89  1  0  0  0
  6 90  1  0  0  0
  7  8  2  0  0  0
  7 26  1  0  0  0
  7 29  1  0  0  0
  8  9  1  0  0  0
  8 22  1  0  0  0
  9 10  1  0  0  0
  9 27  2  0  0  0
 10 11  2  0  0  0
 10 15  1  0  0  0
 11 12  1  0  0  0
 11 91  1  0  0  0
 12 13  2  0  0  0
 12 92  1  0  0  0
 13 14  1  0  0  0
 13 31  1  0  0  0
 14 15  2  0  0  0
 14 93  1  0  0  0
 15 94  1  0  0  0
 16 17  2  0  0  0
 16 21  1  0  0  0
 16 31  1  0  0  0
 17 18  1  0  0  0
 17 95  1  0  0  0
 18 19  2  0  0  0
 18 96  1  0  0  0
 19 20  1  0  0  0
 19 24  1  0  0  0
 20 21  2  0  0  0
 20 97  1  0  0  0
 21 23  1  0  0  0
 22 28  1  0  0  0
 22 32  2  0  0  0
 26 27  1  0  0  0
 28 98  1  0  0  0
 28 99  1  0  0  0
 29100  1  0  0  0
 29101  1  0  0  0
 33 34  1  0  0  0
 33 66  1  0  0  0
 33 70  2  0  0  0
 34 36  1  0  0  0
 34 59  1  0  0  0
 34102  1  0  0  0
 35 44  2  0  0  0
 35 45  1  0  0  0
 35 68  1  0  0  0
 36 56  1  0  0  0
 36103  1  0  0  0
 37 39  1  0  0  0
 37 47  1  0  0  0
 37 66  1  0  0  0
 37104  1  0  0  0
 38 43  2  0  0  0
 38 46  1  0  0  0
 38 47  1  0  0  0
 39 64  1  0  0  0
 39 67  2  0  0  0
 40 52  1  0  0  0
 40 53  2  0  0  0
 40 58  1  0  0  0
 41105  1  0  0  0
 41106  1  0  0  0
 41107  1  0  0  0
 41 48  1  0  0  0
 42 43  1  0  0  0
 42 66  1  0  0  0
 42108  1  0  0  0
 42109  1  0  0  0
 43 44  1  0  0  0
 44110  1  0  0  0
 45 46  2  0  0  0
 45111  1  0  0  0
 46112  1  0  0  0
 47113  1  0  0  0
 47114  1  0  0  0
 48 56  1  0  0  0
 48 65  1  0  0  0
 48115  1  0  0  0
 49 50  1  0  0  0
 49 53  1  0  0  0
 49 64  1  0  0  0
 49116  1  0  0  0
 50 51  1  0  0  0
 50117  1  0  0  0
 50118  1  0  0  0
 51 52  1  0  0  0
 51119  1  0  0  0
 51120  1  0  0  0
 52121  1  0  0  0
 52122  1  0  0  0
 53 54  1  0  0  0
 54 55  2  0  0  0
 54123  1  0  0  0
 55 57  1  0  0  0
 55124  1  0  0  0
 56 69  2  0  0  0
 57 58  2  0  0  0
 57125  1  0  0  0
 58126  1  0  0  0
 59 60  1  0  0  0
 59 61  1  0  0  0
 59 62  1  0  0  0
 60127  1  0  0  0
 60128  1  0  0  0
 60129  1  0  0  0
 61130  1  0  0  0
 61131  1  0  0  0
 61132  1  0  0  0
 62133  1  0  0  0
 62134  1  0  0  0
 62135  1  0  0  0
 63 65  1  0  0  0
 63136  1  0  0  0
 63137  1  0  0  0
 63138  1  0  0  0
 64139  1  0  0  0
 65140  1  0  0  0
 68 75  1  0  0  0
 71 72  2  0  0  0
 71 80  1  0  0  0
 71141  1  0  0  0
 72 75  1  0  0  0
 72 78  1  0  0  0
 73142  1  0  0  0
 73143  1  0  0  0
 73144  1  0  0  0
 73 77  1  0  0  0
 74 77  1  0  0  0
 74145  1  0  0  0
 74146  1  0  0  0
 74147  1  0  0  0
 75148  1  0  0  0
 75149  1  0  0  0
 76 77  1  0  0  0
 76 81  1  0  0  0
 76150  1  0  0  0
 76151  1  0  0  0
 77 80  1  0  0  0
 78 79  2  0  0  0
 79 80  1  0  0  0
 81152  1  0  0  0
M  ISO  4   1 100  68 101  75 101  81 100
M  END
> <chiral flag>
0

> <version>
0

> <s_m_source_file>
/data/baiqing/PycharmProjects/Reinvent-master-3.2/result/LINK_invent/BTK/process_docking_weight1_custom_sum_contain_oxygen_bond_distance_aromatic_linkinvent_7_9_3/rearranged_h_0063.sdf

> <i_m_source_file_index>
88

> <r_mmod_Potential_Energy-OPLS-2005>
644.501342773438

> <r_mmod_Stretch_Energy-OPLS-2005>
330.177825927734

> <r_mmod_Bend_Energy-OPLS-2005>
322.364685058594

> <r_mmod_Torsional_Energy-OPLS-2005>
246.738800048828

> <r_mmod_Improper_Torsional_Energy-OPLS-2005>
6.14030361175537

> <r_mmod_Van_der_Waal_Energy-OPLS-2005>
110.926467895508

> <r_mmod_Electrostatic_Energy-OPLS-2005>
-393.363220214844

> <r_mmod_Solvation_Energy-OPLS-2005>
-238.461639404297

> <b_mmod_Minimization_Converged-OPLS-2005>
0

> <r_mmod_RMS_Derivative-OPLS-2005>
3.74201059341431

$$$$
