0
                    3D
 Structure written by MMmdl.
160169  0  0  1  0            999 V2000
  -30.6856  -14.4602   20.5655 C   0  0  0  0  0  0
  -30.4319  -12.2904   19.4361 C   0  0  0  0  0  0
  -29.5104  -12.5057   18.2164 C   0  0  0  0  0  0
  -28.0267  -12.3684   18.6185 C   0  0  0  0  0  0
  -27.6665  -13.2016   19.8797 C   0  0  2  0  0  0
  -28.7042  -12.9658   21.0033 C   0  0  0  0  0  0
  -25.2593  -13.8152   20.5664 C   0  0  0  0  0  0
  -24.1846  -13.0430   20.9163 C   0  0  0  0  0  0
  -24.6391  -11.6902   20.8702 C   0  0  0  0  0  0
  -23.9053  -10.4296   21.0376 C   0  0  0  0  0  0
  -24.3600   -9.4213   21.9162 C   0  0  0  0  0  0
  -23.6277   -8.2249   22.0730 C   0  0  0  0  0  0
  -22.4264   -8.0273   21.3534 C   0  0  0  0  0  0
  -21.9900   -9.0245   20.4641 C   0  0  0  0  0  0
  -22.7217  -10.2126   20.3046 C   0  0  0  0  0  0
  -21.6868   -6.0728   22.5279 C   0  0  0  0  0  0
  -21.4015   -6.5621   23.8208 C   0  0  0  0  0  0
  -21.3667   -5.6767   24.9163 C   0  0  0  0  0  0
  -21.6049   -4.3033   24.7227 C   0  0  0  0  0  0
  -21.8811   -3.8135   23.4344 C   0  0  0  0  0  0
  -21.9183   -4.6954   22.3403 C   0  0  0  0  0  0
  -22.7863  -13.5229   21.1822 C   0  0  0  0  0  0
  -22.1643   -4.2127   21.0986 F   0  0  0  0  0  0
  -21.5649   -3.4530   25.7750 F   0  0  0  0  0  0
  -30.0445  -13.2661   20.4661 N   0  0  0  0  0  0
  -26.3045  -12.9310   20.3367 N   0  0  0  0  0  0
  -25.9314  -11.6470   20.5738 N   0  0  0  0  0  0
  -22.0476  -12.8260   22.0404 N   0  0  0  0  0  0
  -25.4280  -15.1877   20.4056 N   0  0  0  0  0  0
  -31.7879  -14.6839   20.0572 O   0  0  0  0  0  0
  -21.6623   -6.8878   21.4243 O   0  0  0  0  0  0
  -22.3552  -14.5521   20.6629 O   0  0  0  0  0  0
  -24.6099  -31.8684   23.2107 C   0  0  0  0  0  0
  -25.8992  -32.4818   23.8412 C   0  0  1  0  0  0
  -27.2439  -27.4458   20.1063 C   0  0  0  0  0  0
  -25.5870  -33.8616   24.2364 N   0  0  0  0  0  0
  -23.4008  -30.4909   21.5492 C   0  0  2  0  0  0
  -24.8517  -28.9571   20.1147 C   0  0  0  0  0  0
  -22.7395  -29.4657   22.4972 C   0  0  0  0  0  0
  -18.0259  -28.1361   22.8492 C   0  0  0  0  0  0
  -24.1490  -36.7303   23.2641 C   0  0  0  0  0  0
  -25.9274  -30.8389   21.3629 C   0  0  0  0  0  0
  -26.0088  -29.4741   20.7103 C   0  0  0  0  0  0
  -27.2078  -28.7277   20.6988 C   0  0  0  0  0  0
  -26.0710  -26.9418   19.5006 C   0  0  0  0  0  0
  -24.8781  -27.6918   19.5022 C   0  0  0  0  0  0
  -23.6114  -29.8202   20.1638 C   0  0  0  0  0  0
  -25.4105  -36.3116   24.0360 C   0  0  1  0  0  0
  -20.5855  -28.3654   23.1308 C   0  0  2  0  0  0
  -20.6762  -26.9393   22.5405 C   0  0  0  0  0  0
  -19.5748  -26.6378   21.5199 C   0  0  0  0  0  0
  -18.1919  -26.7910   22.1611 C   0  0  0  0  0  0
  -19.1518  -28.8827   23.2901 C   0  0  0  0  0  0
  -18.9438  -30.1426   23.8917 C   0  0  0  0  0  0
  -17.6447  -30.6576   24.0557 C   0  0  0  0  0  0
  -25.9026  -34.9471   23.5162 C   0  0  0  0  0  0
  -16.5331  -29.9083   23.6304 C   0  0  0  0  0  0
  -16.7255  -28.6490   23.0343 C   0  0  0  0  0  0
  -26.4459  -31.6560   25.0701 C   0  0  0  0  0  0
  -25.3776  -31.3592   26.1479 C   0  0  0  0  0  0
  -27.0259  -30.3017   24.5990 C   0  0  0  0  0  0
  -27.6067  -32.4253   25.7433 C   0  0  0  0  0  0
  -27.5589  -37.1805   24.8470 C   0  0  0  0  0  0
  -21.4126  -29.3022   22.3714 N   0  0  0  0  0  0
  -26.4300  -37.3795   23.9418 N   0  0  0  0  0  0
  -24.6640  -31.0806   22.1000 N   0  0  0  0  0  0
  -23.4164  -28.8194   23.3016 O   0  0  0  0  0  0
  -28.4204  -26.7261   20.1208 O   0  0  0  0  0  0
  -26.5577  -34.8917   22.4722 O   0  0  0  0  0  0
  -23.5295  -32.1420   23.7519 O   0  0  0  0  0  0
  -29.0579  -22.1485   23.4388 C   0  0  0  0  0  0
  -29.7510  -21.0268   22.8545 C   0  0  0  0  0  0
  -29.0316  -23.3028   22.7571 C   0  0  0  0  0  0
  -30.2772  -21.0926   21.6099 C   0  0  0  0  0  0
  -30.1661  -22.3518   20.8314 C   0  0  0  0  0  0
  -31.0624  -17.5950   20.1449 C   0  0  0  0  0  0
  -29.6714  -17.9346   21.5937 C   0  0  0  0  0  0
  -29.8083  -16.8212   20.5550 C   0  0  2  0  0  0
  -31.1231  -19.9372   21.0601 C   0  0  0  0  0  0
  -29.6692  -24.7946   20.9211 C   0  0  0  0  0  0
  -28.3123  -25.3223   20.4034 C   0  0  0  0  0  0
  -29.6173  -23.4276   21.4834 N   0  0  0  0  0  0
  -29.9286  -15.4478   21.0755 N   0  0  0  0  0  0
  -30.3122  -18.7885   20.5790 N   0  3  1  0  0  0
  -30.5654  -22.4428   19.6658 O   0  0  0  0  0  0
  -31.4784  -12.3859   19.1418 H   0  0  0  0  0  0
  -30.3255  -11.2756   19.8243 H   0  0  0  0  0  0
  -29.7562  -11.7864   17.4348 H   0  0  0  0  0  0
  -29.6896  -13.4954   17.7901 H   0  0  0  0  0  0
  -27.8326  -11.3121   18.8081 H   0  0  0  0  0  0
  -27.3850  -12.6494   17.7832 H   0  0  0  0  0  0
  -27.7153  -14.2505   19.5881 H   0  0  0  0  0  0
  -28.6737  -11.9281   21.3337 H   0  0  0  0  0  0
  -28.4609  -13.5571   21.8867 H   0  0  0  0  0  0
  -25.2743   -9.5701   22.4720 H   0  0  0  0  0  0
  -23.9992   -7.4651   22.7444 H   0  0  0  0  0  0
  -21.0834   -8.8754   19.8966 H   0  0  0  0  0  0
  -22.3656  -10.9643   19.6146 H   0  0  0  0  0  0
  -21.1992   -7.6122   23.9720 H   0  0  0  0  0  0
  -21.1505   -6.0490   25.9067 H   0  0  0  0  0  0
  -22.0587   -2.7601   23.2847 H   0  0  0  0  0  0
  -22.4035  -11.9954   22.4899 H   0  0  0  0  0  0
  -21.1075  -13.1303   22.2527 H   0  0  0  0  0  0
  -24.6560  -15.8374   20.5128 H   0  0  0  0  0  0
  -26.2767  -15.6341   20.0835 H   0  0  0  0  0  0
  -26.7047  -32.5558   23.1168 H   0  0  0  0  0  0
  -25.0060  -33.9784   25.0535 H   0  0  0  0  0  0
  -22.6885  -31.3070   21.4082 H   0  0  0  0  0  0
  -23.3764  -35.9626   23.3304 H   0  0  0  0  0  0
  -24.3601  -36.8895   22.2056 H   0  0  0  0  0  0
  -23.7218  -37.6507   23.6636 H   0  0  0  0  0  0
  -26.0371  -31.6073   20.5962 H   0  0  0  0  0  0
  -26.8167  -30.8946   21.9787 H   0  0  0  0  0  0
  -28.1018  -29.1246   21.1591 H   0  0  0  0  0  0
  -26.0747  -25.9779   19.0119 H   0  0  0  0  0  0
  -23.9902  -27.2918   19.0311 H   0  0  0  0  0  0
  -23.7180  -30.5934   19.4029 H   0  0  0  0  0  0
  -22.7385  -29.2353   19.8686 H   0  0  0  0  0  0
  -25.1277  -36.2009   25.0855 H   0  0  0  0  0  0
  -20.9953  -28.3226   24.1431 H   0  0  0  0  0  0
  -20.5664  -26.2261   23.3592 H   0  0  0  0  0  0
  -21.6632  -26.7440   22.1205 H   0  0  0  0  0  0
  -19.6908  -25.6299   21.1204 H   0  0  0  0  0  0
  -19.6682  -27.3205   20.6746 H   0  0  0  0  0  0
  -17.4195  -26.6654   21.4005 H   0  0  0  0  0  0
  -18.0322  -26.0039   22.8999 H   0  0  0  0  0  0
  -19.7921  -30.7217   24.2309 H   0  0  0  0  0  0
  -17.5004  -31.6263   24.5154 H   0  0  0  0  0  0
  -15.5333  -30.2995   23.7607 H   0  0  0  0  0  0
  -15.8650  -28.0806   22.7054 H   0  0  0  0  0  0
  -24.5996  -30.6871   25.7829 H   0  0  0  0  0  0
  -24.8911  -32.2701   26.4979 H   0  0  0  0  0  0
  -25.8211  -30.8760   27.0195 H   0  0  0  0  0  0
  -26.2739  -29.6781   24.1137 H   0  0  0  0  0  0
  -27.4159  -29.7227   25.4366 H   0  0  0  0  0  0
  -27.8530  -30.4348   23.9014 H   0  0  0  0  0  0
  -27.2724  -33.3548   26.2047 H   0  0  0  0  0  0
  -28.3848  -32.6800   25.0227 H   0  0  0  0  0  0
  -28.0763  -31.8343   26.5302 H   0  0  0  0  0  0
  -28.2614  -38.0098   24.7529 H   0  0  0  0  0  0
  -28.1078  -36.2629   24.6292 H   0  0  0  0  0  0
  -27.2305  -37.1452   25.8872 H   0  0  0  0  0  0
  -20.9274  -29.8738   21.6938 H   0  0  0  0  0  0
  -26.0198  -38.2875   24.1435 H   0  0  0  0  0  0
  -28.5941  -22.0658   24.4129 H   0  0  0  0  0  0
  -29.8802  -20.1368   23.4539 H   0  0  0  0  0  0
  -28.5562  -24.1972   23.1366 H   0  0  0  0  0  0
  -31.2799  -17.5712   19.0766 H   0  0  0  0  0  0
  -31.9510  -17.3891   20.7464 H   0  0  0  0  0  0
  -30.2782  -17.7961   22.4930 H   0  0  0  0  0  0
  -28.6484  -18.2267   21.8343 H   0  0  0  0  0  0
  -29.0321  -16.8873   19.7871 H   0  0  0  0  0  0
  -31.8154  -19.6022   21.8340 H   0  0  0  0  0  0
  -31.7520  -20.2794   20.2375 H   0  0  0  0  0  0
  -30.0235  -25.4535   21.7139 H   0  0  0  0  0  0
  -30.4210  -24.8784   20.1374 H   0  0  0  0  0  0
  -27.5438  -25.1586   21.1616 H   0  0  0  0  0  0
  -28.0163  -24.7784   19.5065 H   0  0  0  0  0  0
  -29.1107  -15.1092   21.5587 H   0  0  0  0  0  0
  -29.6501  -19.0631   19.8682 H   0  0  0  0  0  0
  1 25  1  0  0  0
  1 30  2  0  0  0
  1 83  1  0  0  0
  2  3  1  0  0  0
  2 25  1  0  0  0
  2 86  1  0  0  0
  2 87  1  0  0  0
  3  4  1  0  0  0
  3 88  1  0  0  0
  3 89  1  0  0  0
  4  5  1  0  0  0
  4 90  1  0  0  0
  4 91  1  0  0  0
  5  6  1  0  0  0
  5 26  1  0  0  0
  5 92  1  0  0  0
  6 25  1  0  0  0
  6 93  1  0  0  0
  6 94  1  0  0  0
  7  8  2  0  0  0
  7 26  1  0  0  0
  7 29  1  0  0  0
  8  9  1  0  0  0
  8 22  1  0  0  0
  9 10  1  0  0  0
  9 27  2  0  0  0
 10 11  2  0  0  0
 10 15  1  0  0  0
 11 12  1  0  0  0
 11 95  1  0  0  0
 12 13  2  0  0  0
 12 96  1  0  0  0
 13 14  1  0  0  0
 13 31  1  0  0  0
 14 15  2  0  0  0
 14 97  1  0  0  0
 15 98  1  0  0  0
 16 17  2  0  0  0
 16 21  1  0  0  0
 16 31  1  0  0  0
 17 18  1  0  0  0
 17 99  1  0  0  0
 18 19  2  0  0  0
 18100  1  0  0  0
 19 20  1  0  0  0
 19 24  1  0  0  0
 20 21  2  0  0  0
 20101  1  0  0  0
 21 23  1  0  0  0
 22 28  1  0  0  0
 22 32  2  0  0  0
 26 27  1  0  0  0
 28102  1  0  0  0
 28103  1  0  0  0
 29104  1  0  0  0
 29105  1  0  0  0
 33 34  1  0  0  0
 33 66  1  0  0  0
 33 70  2  0  0  0
 34 36  1  0  0  0
 34 59  1  0  0  0
 34106  1  0  0  0
 35 44  2  0  0  0
 35 45  1  0  0  0
 35 68  1  0  0  0
 36 56  1  0  0  0
 36107  1  0  0  0
 37 39  1  0  0  0
 37 47  1  0  0  0
 37 66  1  0  0  0
 37108  1  0  0  0
 38 43  2  0  0  0
 38 46  1  0  0  0
 38 47  1  0  0  0
 39 64  1  0  0  0
 39 67  2  0  0  0
 40 52  1  0  0  0
 40 53  2  0  0  0
 40 58  1  0  0  0
 41109  1  0  0  0
 41110  1  0  0  0
 41111  1  0  0  0
 41 48  1  0  0  0
 42 43  1  0  0  0
 42 66  1  0  0  0
 42112  1  0  0  0
 42113  1  0  0  0
 43 44  1  0  0  0
 44114  1  0  0  0
 45 46  2  0  0  0
 45115  1  0  0  0
 46116  1  0  0  0
 47117  1  0  0  0
 47118  1  0  0  0
 48 56  1  0  0  0
 48 65  1  0  0  0
 48119  1  0  0  0
 49 50  1  0  0  0
 49 53  1  0  0  0
 49 64  1  0  0  0
 49120  1  0  0  0
 50 51  1  0  0  0
 50121  1  0  0  0
 50122  1  0  0  0
 51 52  1  0  0  0
 51123  1  0  0  0
 51124  1  0  0  0
 52125  1  0  0  0
 52126  1  0  0  0
 53 54  1  0  0  0
 54 55  2  0  0  0
 54127  1  0  0  0
 55 57  1  0  0  0
 55128  1  0  0  0
 56 69  2  0  0  0
 57 58  2  0  0  0
 57129  1  0  0  0
 58130  1  0  0  0
 59 60  1  0  0  0
 59 61  1  0  0  0
 59 62  1  0  0  0
 60131  1  0  0  0
 60132  1  0  0  0
 60133  1  0  0  0
 61134  1  0  0  0
 61135  1  0  0  0
 61136  1  0  0  0
 62137  1  0  0  0
 62138  1  0  0  0
 62139  1  0  0  0
 63 65  1  0  0  0
 63140  1  0  0  0
 63141  1  0  0  0
 63142  1  0  0  0
 64143  1  0  0  0
 65144  1  0  0  0
 68 81  1  0  0  0
 71 72  1  0  0  0
 71 73  2  0  0  0
 71145  1  0  0  0
 72 74  2  0  0  0
 72146  1  0  0  0
 73 82  1  0  0  0
 73147  1  0  0  0
 74 75  1  0  0  0
 74 79  1  0  0  0
 75 82  1  0  0  0
 75 85  2  0  0  0
 76 78  1  0  0  0
 76 84  1  0  0  0
 76148  1  0  0  0
 76149  1  0  0  0
 77 78  1  0  0  0
 77 84  1  0  0  0
 77150  1  0  0  0
 77151  1  0  0  0
 78 83  1  0  0  0
 78152  1  0  0  0
 79153  1  0  0  0
 79154  1  0  0  0
 79 84  1  0  0  0
 80 81  1  0  0  0
 80 82  1  0  0  0
 80155  1  0  0  0
 80156  1  0  0  0
 81157  1  0  0  0
 81158  1  0  0  0
 83159  1  0  0  0
 84160  1  0  0  0
M  CHG  1  84   1
M  ISO  4   1 100  68 101  81 101  83 100
M  END
> <chiral flag>
0

> <version>
0

> <s_m_source_file>
/data/baiqing/PycharmProjects/Reinvent-master-3.2/result/LINK_invent/BTK/process_docking_weight1_custom_sum_contain_oxygen_bond_distance_aromatic_linkinvent_7_9_3/rearranged_h_0179.sdf

> <i_m_source_file_index>
1

> <r_mmod_Potential_Energy-OPLS-2005>
-167.730697631836

> <r_mmod_Stretch_Energy-OPLS-2005>
43.2299346923828

> <r_mmod_Bend_Energy-OPLS-2005>
133.814224243164

> <r_mmod_Torsional_Energy-OPLS-2005>
254.072891235352

> <r_mmod_Improper_Torsional_Energy-OPLS-2005>
7.08430242538452

> <r_mmod_Van_der_Waal_Energy-OPLS-2005>
165.381118774414

> <r_mmod_Electrostatic_Energy-OPLS-2005>
-315.760467529297

> <r_mmod_Solvation_Energy-OPLS-2005>
-466.792572021484

> <b_mmod_Minimization_Converged-OPLS-2005>
0

> <r_mmod_RMS_Derivative-OPLS-2005>
2.90360569953918

$$$$
1
                    3D
 Structure written by MMmdl.
152161  0  0  1  0            999 V2000
  -30.3937  -15.3572   20.3354 C   0  0  0  0  0  0
  -30.4354  -12.8664   19.5481 C   0  0  0  0  0  0
  -29.5447  -12.6096   18.3037 C   0  0  0  0  0  0
  -28.0966  -12.3121   18.7257 C   0  0  0  0  0  0
  -27.6094  -13.2871   19.8259 C   0  0  2  0  0  0
  -28.6353  -13.4922   20.9640 C   0  0  0  0  0  0
  -25.2361  -13.8260   20.5759 C   0  0  0  0  0  0
  -24.1725  -13.0430   20.9253 C   0  0  0  0  0  0
  -24.6403  -11.6930   20.8757 C   0  0  0  0  0  0
  -23.9095  -10.4284   21.0399 C   0  0  0  0  0  0
  -24.3636   -9.4203   21.9185 C   0  0  0  0  0  0
  -23.6304   -8.2245   22.0762 C   0  0  0  0  0  0
  -22.4290   -8.0287   21.3549 C   0  0  0  0  0  0
  -21.9916   -9.0261   20.4658 C   0  0  0  0  0  0
  -22.7255  -10.2132   20.3060 C   0  0  0  0  0  0
  -21.6854   -6.0746   22.5278 C   0  0  0  0  0  0
  -21.4021   -6.5648   23.8213 C   0  0  0  0  0  0
  -21.3662   -5.6797   24.9170 C   0  0  0  0  0  0
  -21.6044   -4.3059   24.7220 C   0  0  0  0  0  0
  -21.8816   -3.8152   23.4337 C   0  0  0  0  0  0
  -21.9187   -4.6972   22.3396 C   0  0  0  0  0  0
  -22.7737  -13.5185   21.1884 C   0  0  0  0  0  0
  -22.1657   -4.2159   21.0973 F   0  0  0  0  0  0
  -21.5622   -3.4546   25.7729 F   0  0  0  0  0  0
  -29.8638  -14.0228   20.3467 N   0  0  0  0  0  0
  -26.2802  -12.9555   20.3221 N   0  0  0  0  0  0
  -25.9345  -11.6645   20.5705 N   0  0  0  0  0  0
  -22.0402  -12.8188   22.0455 N   0  0  0  0  0  0
  -25.3998  -15.1999   20.4228 N   0  0  0  0  0  0
  -31.6016  -15.3557   20.0500 O   0  0  0  0  0  0
  -21.6645   -6.8893   21.4245 O   0  0  0  0  0  0
  -22.3424  -14.5491   20.6720 O   0  0  0  0  0  0
  -24.6683  -31.8170   23.1649 C   0  0  0  0  0  0
  -25.9339  -32.4548   23.8150 C   0  0  1  0  0  0
  -27.2237  -26.8710   20.1837 C   0  0  0  0  0  0
  -25.5974  -33.8368   24.2040 N   0  0  0  0  0  0
  -23.4859  -30.4253   21.5159 C   0  0  2  0  0  0
  -24.9409  -28.8010   20.1076 C   0  0  0  0  0  0
  -22.7691  -29.4404   22.4772 C   0  0  0  0  0  0
  -18.0326  -28.1410   22.8468 C   0  0  0  0  0  0
  -24.1491  -36.7192   23.2650 C   0  0  0  0  0  0
  -26.0578  -30.6026   21.4058 C   0  0  0  0  0  0
  -26.1236  -29.1871   20.7490 C   0  0  0  0  0  0
  -27.2531  -28.2428   20.7643 C   0  0  0  0  0  0
  -26.0151  -26.6534   19.4833 C   0  0  0  0  0  0
  -24.9157  -27.5566   19.4541 C   0  0  0  0  0  0
  -23.7285  -29.7355   20.1439 C   0  0  0  0  0  0
  -25.4136  -36.2949   24.0294 C   0  0  1  0  0  0
  -20.5951  -28.3755   23.1184 C   0  0  2  0  0  0
  -20.6796  -26.9431   22.5411 C   0  0  0  0  0  0
  -19.5775  -26.6372   21.5217 C   0  0  0  0  0  0
  -18.1955  -26.7943   22.1620 C   0  0  0  0  0  0
  -19.1588  -28.8904   23.2805 C   0  0  0  0  0  0
  -18.9491  -30.1499   23.8842 C   0  0  0  0  0  0
  -17.6483  -30.6593   24.0555 C   0  0  0  0  0  0
  -25.9105  -34.9330   23.4999 C   0  0  0  0  0  0
  -16.5376  -29.9080   23.6345 C   0  0  0  0  0  0
  -16.7308  -28.6499   23.0361 C   0  0  0  0  0  0
  -26.4570  -31.6520   25.0710 C   0  0  0  0  0  0
  -25.3667  -31.3805   26.1350 C   0  0  0  0  0  0
  -27.0464  -30.2869   24.6501 C   0  0  0  0  0  0
  -27.6042  -32.4351   25.7513 C   0  0  0  0  0  0
  -27.5569  -37.1759   24.8470 C   0  0  0  0  0  0
  -21.4355  -29.3028   22.3518 N   0  0  0  0  0  0
  -26.4282  -37.3686   23.9405 N   0  0  0  0  0  0
  -24.7594  -30.9777   22.0814 N   0  0  0  0  0  0
  -23.4204  -28.7984   23.3043 O   0  0  0  0  0  0
  -28.2180  -25.7428   20.3052 O   0  0  0  0  0  0
  -26.5733  -34.8873   22.4605 O   0  0  0  0  0  0
  -23.5743  -32.1173   23.6702 O   0  0  0  0  0  0
  -30.1716  -18.4043   18.7833 C   0  0  0  0  0  0
  -29.6253  -20.7403   18.6161 C   0  0  0  0  0  0
  -29.1116  -20.8563   19.9389 C   0  0  0  0  0  0
  -29.6476  -18.2080   20.0798 C   0  0  0  0  0  0
  -28.4548  -22.3579   16.9186 C   0  0  0  0  0  0
  -29.5713  -21.7057   16.1586 C   0  0  0  0  0  0
  -29.6974  -21.9026   17.6623 C   0  0  0  0  0  0
  -28.7592  -22.4964   20.5576 C   0  0  0  0  0  0
  -28.1501  -24.1114   19.8954 C   0  0  0  0  0  0
  -30.1454  -19.5842   18.0994 N   0  0  0  0  0  0
  -29.1346  -19.5160   20.6157 N   0  0  0  0  0  0
  -29.6314  -16.6356   20.5475 N   0  0  0  0  0  0
  -31.4568  -13.0678   19.2247 H   0  0  0  0  0  0
  -30.5061  -11.9679   20.1624 H   0  0  0  0  0  0
  -29.9444  -11.7864   17.7107 H   0  0  0  0  0  0
  -29.5649  -13.4895   17.6584 H   0  0  0  0  0  0
  -28.0638  -11.2893   19.1025 H   0  0  0  0  0  0
  -27.4302  -12.3440   17.8628 H   0  0  0  0  0  0
  -27.5152  -14.2484   19.3182 H   0  0  0  0  0  0
  -28.8171  -12.5670   21.5127 H   0  0  0  0  0  0
  -28.2549  -14.2108   21.6912 H   0  0  0  0  0  0
  -25.2791   -9.5697   22.4747 H   0  0  0  0  0  0
  -24.0025   -7.4641   22.7483 H   0  0  0  0  0  0
  -21.0851   -8.8779   19.8964 H   0  0  0  0  0  0
  -22.3718  -10.9666   19.6164 H   0  0  0  0  0  0
  -21.2030   -7.6157   23.9720 H   0  0  0  0  0  0
  -21.1485   -6.0525   25.9074 H   0  0  0  0  0  0
  -22.0597   -2.7617   23.2825 H   0  0  0  0  0  0
  -22.4036  -11.9875   22.4869 H   0  0  0  0  0  0
  -21.1016  -13.1211   22.2652 H   0  0  0  0  0  0
  -24.6284  -15.8487   20.5369 H   0  0  0  0  0  0
  -26.2417  -15.6447   20.0817 H   0  0  0  0  0  0
  -26.7416  -32.5065   23.0865 H   0  0  0  0  0  0
  -25.0036  -33.9446   25.0140 H   0  0  0  0  0  0
  -22.8016  -31.2583   21.3419 H   0  0  0  0  0  0
  -23.3758  -35.9517   23.3296 H   0  0  0  0  0  0
  -24.3558  -36.8863   22.2066 H   0  0  0  0  0  0
  -23.7246  -37.6374   23.6725 H   0  0  0  0  0  0
  -26.2496  -31.3402   20.6261 H   0  0  0  0  0  0
  -26.9126  -30.6585   22.0673 H   0  0  0  0  0  0
  -28.1423  -28.5334   21.3049 H   0  0  0  0  0  0
  -25.8781  -25.7056   18.9837 H   0  0  0  0  0  0
  -24.0193  -27.2561   18.9291 H   0  0  0  0  0  0
  -23.8848  -30.5033   19.3858 H   0  0  0  0  0  0
  -22.8360  -29.1935   19.8266 H   0  0  0  0  0  0
  -25.1337  -36.1740   25.0786 H   0  0  0  0  0  0
  -21.0038  -28.3366   24.1309 H   0  0  0  0  0  0
  -20.5667  -26.2374   23.3656 H   0  0  0  0  0  0
  -21.6662  -26.7396   22.1231 H   0  0  0  0  0  0
  -19.6933  -25.6264   21.1294 H   0  0  0  0  0  0
  -19.6715  -27.3146   20.6714 H   0  0  0  0  0  0
  -17.4225  -26.6686   21.4022 H   0  0  0  0  0  0
  -18.0340  -26.0099   22.9031 H   0  0  0  0  0  0
  -19.7964  -30.7334   24.2178 H   0  0  0  0  0  0
  -17.5029  -31.6271   24.5167 H   0  0  0  0  0  0
  -15.5371  -30.2956   23.7703 H   0  0  0  0  0  0
  -15.8711  -28.0801   22.7103 H   0  0  0  0  0  0
  -24.5853  -30.7154   25.7664 H   0  0  0  0  0  0
  -24.8848  -32.3015   26.4638 H   0  0  0  0  0  0
  -25.7868  -30.9062   27.0227 H   0  0  0  0  0  0
  -26.3144  -29.6526   24.1491 H   0  0  0  0  0  0
  -27.3939  -29.7267   25.5195 H   0  0  0  0  0  0
  -27.9114  -30.4022   23.9963 H   0  0  0  0  0  0
  -27.2596  -33.3701   26.1945 H   0  0  0  0  0  0
  -28.3919  -32.6840   25.0387 H   0  0  0  0  0  0
  -28.0636  -31.8581   26.5550 H   0  0  0  0  0  0
  -28.2585  -38.0055   24.7489 H   0  0  0  0  0  0
  -28.1071  -36.2582   24.6329 H   0  0  0  0  0  0
  -27.2293  -37.1441   25.8877 H   0  0  0  0  0  0
  -20.9616  -29.8686   21.6620 H   0  0  0  0  0  0
  -26.0129  -38.2757   24.1369 H   0  0  0  0  0  0
  -30.5752  -17.5677   18.2323 H   0  0  0  0  0  0
  -27.5412  -21.7813   17.0474 H   0  0  0  0  0  0
  -28.3135  -23.4203   16.7286 H   0  0  0  0  0  0
  -30.1572  -22.3530   15.5085 H   0  0  0  0  0  0
  -29.3790  -20.7075   15.7685 H   0  0  0  0  0  0
  -30.3973  -22.6607   18.0113 H   0  0  0  0  0  0
  -29.7300  -22.7655   20.9727 H   0  0  0  0  0  0
  -28.1472  -22.3098   21.4390 H   0  0  0  0  0  0
  -27.0993  -23.9283   19.6768 H   0  0  0  0  0  0
  -28.6149  -24.1671   18.9152 H   0  0  0  0  0  0
  -28.7698  -16.4205   21.0232 H   0  0  0  0  0  0
  1 25  1  0  0  0
  1 30  2  0  0  0
  1 82  1  0  0  0
  2  3  1  0  0  0
  2 25  1  0  0  0
  2 83  1  0  0  0
  2 84  1  0  0  0
  3  4  1  0  0  0
  3 85  1  0  0  0
  3 86  1  0  0  0
  4  5  1  0  0  0
  4 87  1  0  0  0
  4 88  1  0  0  0
  5  6  1  0  0  0
  5 26  1  0  0  0
  5 89  1  0  0  0
  6 25  1  0  0  0
  6 90  1  0  0  0
  6 91  1  0  0  0
  7  8  2  0  0  0
  7 26  1  0  0  0
  7 29  1  0  0  0
  8  9  1  0  0  0
  8 22  1  0  0  0
  9 10  1  0  0  0
  9 27  2  0  0  0
 10 11  2  0  0  0
 10 15  1  0  0  0
 11 12  1  0  0  0
 11 92  1  0  0  0
 12 13  2  0  0  0
 12 93  1  0  0  0
 13 14  1  0  0  0
 13 31  1  0  0  0
 14 15  2  0  0  0
 14 94  1  0  0  0
 15 95  1  0  0  0
 16 17  2  0  0  0
 16 21  1  0  0  0
 16 31  1  0  0  0
 17 18  1  0  0  0
 17 96  1  0  0  0
 18 19  2  0  0  0
 18 97  1  0  0  0
 19 20  1  0  0  0
 19 24  1  0  0  0
 20 21  2  0  0  0
 20 98  1  0  0  0
 21 23  1  0  0  0
 22 28  1  0  0  0
 22 32  2  0  0  0
 26 27  1  0  0  0
 28 99  1  0  0  0
 28100  1  0  0  0
 29101  1  0  0  0
 29102  1  0  0  0
 33 34  1  0  0  0
 33 66  1  0  0  0
 33 70  2  0  0  0
 34 36  1  0  0  0
 34 59  1  0  0  0
 34103  1  0  0  0
 35 44  2  0  0  0
 35 45  1  0  0  0
 35 68  1  0  0  0
 36 56  1  0  0  0
 36104  1  0  0  0
 37 39  1  0  0  0
 37 47  1  0  0  0
 37 66  1  0  0  0
 37105  1  0  0  0
 38 43  2  0  0  0
 38 46  1  0  0  0
 38 47  1  0  0  0
 39 64  1  0  0  0
 39 67  2  0  0  0
 40 52  1  0  0  0
 40 53  2  0  0  0
 40 58  1  0  0  0
 41106  1  0  0  0
 41107  1  0  0  0
 41108  1  0  0  0
 41 48  1  0  0  0
 42 43  1  0  0  0
 42 66  1  0  0  0
 42109  1  0  0  0
 42110  1  0  0  0
 43 44  1  0  0  0
 44111  1  0  0  0
 45 46  2  0  0  0
 45112  1  0  0  0
 46113  1  0  0  0
 47114  1  0  0  0
 47115  1  0  0  0
 48 56  1  0  0  0
 48 65  1  0  0  0
 48116  1  0  0  0
 49 50  1  0  0  0
 49 53  1  0  0  0
 49 64  1  0  0  0
 49117  1  0  0  0
 50 51  1  0  0  0
 50118  1  0  0  0
 50119  1  0  0  0
 51 52  1  0  0  0
 51120  1  0  0  0
 51121  1  0  0  0
 52122  1  0  0  0
 52123  1  0  0  0
 53 54  1  0  0  0
 54 55  2  0  0  0
 54124  1  0  0  0
 55 57  1  0  0  0
 55125  1  0  0  0
 56 69  2  0  0  0
 57 58  2  0  0  0
 57126  1  0  0  0
 58127  1  0  0  0
 59 60  1  0  0  0
 59 61  1  0  0  0
 59 62  1  0  0  0
 60128  1  0  0  0
 60129  1  0  0  0
 60130  1  0  0  0
 61131  1  0  0  0
 61132  1  0  0  0
 61133  1  0  0  0
 62134  1  0  0  0
 62135  1  0  0  0
 62136  1  0  0  0
 63 65  1  0  0  0
 63137  1  0  0  0
 63138  1  0  0  0
 63139  1  0  0  0
 64140  1  0  0  0
 65141  1  0  0  0
 68 79  1  0  0  0
 71 74  2  0  0  0
 71 80  1  0  0  0
 71142  1  0  0  0
 72 73  1  0  0  0
 72 80  2  0  0  0
 72 77  1  0  0  0
 73 78  1  0  0  0
 73 81  2  0  0  0
 74 81  1  0  0  0
 74 82  1  0  0  0
 75 76  1  0  0  0
 75 77  1  0  0  0
 75143  1  0  0  0
 75144  1  0  0  0
 76 77  1  0  0  0
 76145  1  0  0  0
 76146  1  0  0  0
 77147  1  0  0  0
 78 79  1  0  0  0
 78148  1  0  0  0
 78149  1  0  0  0
 79150  1  0  0  0
 79151  1  0  0  0
 82152  1  0  0  0
M  ISO  4   1 100  68 101  79 101  82 100
M  END
> <chiral flag>
0

> <version>
0

> <s_m_source_file>
/data/baiqing/PycharmProjects/Reinvent-master-3.2/result/LINK_invent/BTK/process_docking_weight1_custom_sum_contain_oxygen_bond_distance_aromatic_linkinvent_7_9_3/rearranged_h_0179.sdf

> <i_m_source_file_index>
2

> <r_mmod_Potential_Energy-OPLS-2005>
1541.16015625

> <r_mmod_Stretch_Energy-OPLS-2005>
704.914306640625

> <r_mmod_Bend_Energy-OPLS-2005>
474.303161621094

> <r_mmod_Torsional_Energy-OPLS-2005>
257.968658447266

> <r_mmod_Improper_Torsional_Energy-OPLS-2005>
3.72577857971191

> <r_mmod_Van_der_Waal_Energy-OPLS-2005>
122.682922363281

> <r_mmod_Electrostatic_Energy-OPLS-2005>
-347.788024902344

> <r_mmod_Solvation_Energy-OPLS-2005>
-230.201858520508

> <b_mmod_Minimization_Converged-OPLS-2005>
0

> <r_mmod_RMS_Derivative-OPLS-2005>
1.76285994052887

$$$$
2
                    3D
 Structure written by MMmdl.
166176  0  0  1  0            999 V2000
  -30.6431  -14.8823   20.4163 C   0  0  0  0  0  0
  -30.4069  -12.5557   19.4743 C   0  0  0  0  0  0
  -29.4910  -12.5144   18.2351 C   0  0  0  0  0  0
  -28.0286  -12.3143   18.6669 C   0  0  0  0  0  0
  -27.6193  -13.2522   19.8326 C   0  0  2  0  0  0
  -28.6723  -13.2943   20.9604 C   0  0  0  0  0  0
  -25.2398  -13.8235   20.5732 C   0  0  0  0  0  0
  -24.1739  -13.0442   20.9265 C   0  0  0  0  0  0
  -24.6375  -11.6932   20.8795 C   0  0  0  0  0  0
  -23.9078  -10.4292   21.0422 C   0  0  0  0  0  0
  -24.3633   -9.4200   21.9197 C   0  0  0  0  0  0
  -23.6305   -8.2235   22.0757 C   0  0  0  0  0  0
  -22.4284   -8.0280   21.3548 C   0  0  0  0  0  0
  -21.9925   -9.0249   20.4648 C   0  0  0  0  0  0
  -22.7254  -10.2130   20.3061 C   0  0  0  0  0  0
  -21.6851   -6.0742   22.5287 C   0  0  0  0  0  0
  -21.4011   -6.5652   23.8219 C   0  0  0  0  0  0
  -21.3656   -5.6803   24.9181 C   0  0  0  0  0  0
  -21.6038   -4.3064   24.7230 C   0  0  0  0  0  0
  -21.8818   -3.8156   23.4354 C   0  0  0  0  0  0
  -21.9193   -4.6971   22.3411 C   0  0  0  0  0  0
  -22.7754  -13.5195   21.1918 C   0  0  0  0  0  0
  -22.1662   -4.2158   21.0987 F   0  0  0  0  0  0
  -21.5627   -3.4546   25.7741 F   0  0  0  0  0  0
  -29.9382  -13.6852   20.3294 N   0  0  0  0  0  0
  -26.2836  -12.9487   20.3287 N   0  0  0  0  0  0
  -25.9309  -11.6607   20.5798 N   0  0  0  0  0  0
  -22.0416  -12.8157   22.0472 N   0  0  0  0  0  0
  -25.4011  -15.1960   20.4113 N   0  0  0  0  0  0
  -31.8594  -14.7943   20.2128 O   0  0  0  0  0  0
  -21.6642   -6.8879   21.4245 O   0  0  0  0  0  0
  -22.3427  -14.5507   20.6781 O   0  0  0  0  0  0
  -24.6392  -31.8469   23.1903 C   0  0  0  0  0  0
  -25.9186  -32.4717   23.8273 C   0  0  1  0  0  0
  -27.2156  -27.1807   20.1255 C   0  0  0  0  0  0
  -25.5960  -33.8516   24.2211 N   0  0  0  0  0  0
  -23.4391  -30.4702   21.5358 C   0  0  2  0  0  0
  -24.8823  -28.9025   20.1061 C   0  0  0  0  0  0
  -22.7543  -29.4574   22.4874 C   0  0  0  0  0  0
  -18.0302  -28.1411   22.8495 C   0  0  0  0  0  0
  -24.1479  -36.7249   23.2649 C   0  0  0  0  0  0
  -25.9904  -30.7367   21.3753 C   0  0  0  0  0  0
  -26.0594  -29.3507   20.7175 C   0  0  0  0  0  0
  -27.2236  -28.5027   20.7161 C   0  0  0  0  0  0
  -25.9990  -26.8054   19.5276 C   0  0  0  0  0  0
  -24.8600  -27.6375   19.4989 C   0  0  0  0  0  0
  -23.6596  -29.8029   20.1524 C   0  0  0  0  0  0
  -25.4106  -36.3043   24.0337 C   0  0  1  0  0  0
  -20.5917  -28.3725   23.1261 C   0  0  2  0  0  0
  -20.6790  -26.9438   22.5414 C   0  0  0  0  0  0
  -19.5764  -26.6395   21.5232 C   0  0  0  0  0  0
  -18.1941  -26.7957   22.1636 C   0  0  0  0  0  0
  -19.1562  -28.8886   23.2870 C   0  0  0  0  0  0
  -18.9486  -30.1487   23.8897 C   0  0  0  0  0  0
  -17.6484  -30.6607   24.0578 C   0  0  0  0  0  0
  -25.9062  -34.9427   23.5077 C   0  0  0  0  0  0
  -16.5365  -29.9113   23.6344 C   0  0  0  0  0  0
  -16.7287  -28.6527   23.0360 C   0  0  0  0  0  0
  -26.4523  -31.6563   25.0685 C   0  0  0  0  0  0
  -25.3729  -31.3752   26.1408 C   0  0  0  0  0  0
  -27.0365  -30.2972   24.6201 C   0  0  0  0  0  0
  -27.6076  -32.4302   25.7457 C   0  0  0  0  0  0
  -27.5565  -37.1777   24.8475 C   0  0  0  0  0  0
  -21.4245  -29.3054   22.3631 N   0  0  0  0  0  0
  -26.4270  -37.3753   23.9428 N   0  0  0  0  0  0
  -24.7103  -31.0373   22.0908 N   0  0  0  0  0  0
  -23.4206  -28.8121   23.3000 O   0  0  0  0  0  0
  -28.2934  -26.2392   20.2209 O   0  0  0  0  0  0
  -26.5627  -34.8925   22.4647 O   0  0  0  0  0  0
  -23.5521  -32.1326   23.7159 O   0  0  0  0  0  0
  -28.8927  -22.2960   20.2000 C   0  0  0  0  0  0
  -27.9154  -20.7421   18.6211 C   0  0  0  0  0  0
  -28.7016  -20.8820   19.7805 C   0  0  0  0  0  0
  -28.3482  -23.4326   19.4264 C   0  0  0  0  0  0
  -27.7477  -23.0280   18.2293 C   0  0  0  0  0  0
  -28.3132  -18.2491   20.5980 C   0  0  0  0  0  0
  -30.3551  -18.7511   19.4885 C   0  0  0  0  0  0
  -28.2779  -25.3620   17.8410 C   0  0  0  0  0  0
  -28.8620  -16.7811   21.0225 C   0  0  0  0  0  0
  -30.9612  -17.3650   19.9998 C   0  0  0  0  0  0
  -29.3014  -19.4815   20.3886 C   0  0  0  0  0  0
  -28.6330  -25.0412   19.3162 C   0  0  1  0  0  0
  -27.5808  -24.1292   17.1994 C   0  0  0  0  0  0
  -28.3225  -23.7743   15.8905 C   0  0  0  0  0  0
  -26.0840  -24.3472   16.8938 C   0  0  0  0  0  0
  -27.4588  -21.7606   17.8689 N   0  0  0  0  0  0
  -30.0658  -16.1939   20.3377 N   0  0  0  0  0  0
  -31.4443  -12.6629   19.1545 H   0  0  0  0  0  0
  -30.3637  -11.6113   20.0192 H   0  0  0  0  0  0
  -29.7940  -11.7121   17.5621 H   0  0  0  0  0  0
  -29.5856  -13.4444   17.6720 H   0  0  0  0  0  0
  -27.9210  -11.2741   18.9769 H   0  0  0  0  0  0
  -27.3572  -12.4473   17.8179 H   0  0  0  0  0  0
  -27.5763  -14.2498   19.3953 H   0  0  0  0  0  0
  -28.7573  -12.3254   21.4542 H   0  0  0  0  0  0
  -28.3892  -14.0060   21.7361 H   0  0  0  0  0  0
  -25.2769   -9.5678   22.4785 H   0  0  0  0  0  0
  -24.0010   -7.4616   22.7471 H   0  0  0  0  0  0
  -21.0862   -8.8770   19.8943 H   0  0  0  0  0  0
  -22.3716  -10.9675   19.6180 H   0  0  0  0  0  0
  -21.1996   -7.6161   23.9731 H   0  0  0  0  0  0
  -21.1479   -6.0531   25.9086 H   0  0  0  0  0  0
  -22.0599   -2.7615   23.2850 H   0  0  0  0  0  0
  -22.4049  -11.9794   22.4797 H   0  0  0  0  0  0
  -21.1047  -13.1175   22.2734 H   0  0  0  0  0  0
  -24.6269  -15.8420   20.5242 H   0  0  0  0  0  0
  -26.2421  -15.6420   20.0702 H   0  0  0  0  0  0
  -26.7251  -32.5330   23.1000 H   0  0  0  0  0  0
  -25.0124  -33.9649   25.0382 H   0  0  0  0  0  0
  -22.7396  -31.2957   21.3864 H   0  0  0  0  0  0
  -23.3754  -35.9572   23.3327 H   0  0  0  0  0  0
  -24.3563  -36.8840   22.2058 H   0  0  0  0  0  0
  -23.7218  -37.6456   23.6650 H   0  0  0  0  0  0
  -26.1313  -31.4917   20.6007 H   0  0  0  0  0  0
  -26.8688  -30.7904   22.0073 H   0  0  0  0  0  0
  -28.1212  -28.8415   21.2143 H   0  0  0  0  0  0
  -25.9032  -25.8118   19.1346 H   0  0  0  0  0  0
  -23.9525  -27.2737   19.0352 H   0  0  0  0  0  0
  -23.7928  -30.5814   19.4000 H   0  0  0  0  0  0
  -22.7743  -29.2463   19.8416 H   0  0  0  0  0  0
  -25.1289  -36.1870   25.0829 H   0  0  0  0  0  0
  -21.0008  -28.3304   24.1385 H   0  0  0  0  0  0
  -20.5704  -26.2341   23.3627 H   0  0  0  0  0  0
  -21.6650  -26.7457   22.1192 H   0  0  0  0  0  0
  -19.6928  -25.6307   21.1256 H   0  0  0  0  0  0
  -19.6708  -27.3216   20.6773 H   0  0  0  0  0  0
  -17.4217  -26.6736   21.4027 H   0  0  0  0  0  0
  -18.0310  -26.0085   22.9016 H   0  0  0  0  0  0
  -19.7961  -30.7298   24.2252 H   0  0  0  0  0  0
  -17.5045  -31.6296   24.5178 H   0  0  0  0  0  0
  -15.5369  -30.3023   23.7681 H   0  0  0  0  0  0
  -15.8683  -28.0856   22.7071 H   0  0  0  0  0  0
  -24.5911  -30.7096   25.7746 H   0  0  0  0  0  0
  -24.8931  -32.2937   26.4789 H   0  0  0  0  0  0
  -25.8030  -30.8958   27.0210 H   0  0  0  0  0  0
  -26.2957  -29.6708   24.1214 H   0  0  0  0  0  0
  -27.4039  -29.7241   25.4723 H   0  0  0  0  0  0
  -27.8836  -30.4254   23.9458 H   0  0  0  0  0  0
  -27.2712  -33.3649   26.1956 H   0  0  0  0  0  0
  -28.3926  -32.6762   25.0296 H   0  0  0  0  0  0
  -28.0692  -31.8453   26.5426 H   0  0  0  0  0  0
  -28.2580  -38.0076   24.7491 H   0  0  0  0  0  0
  -28.1043  -36.2594   24.6297 H   0  0  0  0  0  0
  -27.2288  -37.1423   25.8883 H   0  0  0  0  0  0
  -20.9437  -29.8757   21.6823 H   0  0  0  0  0  0
  -26.0132  -38.2820   24.1446 H   0  0  0  0  0  0
  -29.5188  -22.5071   21.0548 H   0  0  0  0  0  0
  -27.7052  -19.7643   18.2179 H   0  0  0  0  0  0
  -27.5489  -18.5459   21.3171 H   0  0  0  0  0  0
  -27.7678  -18.0959   19.6679 H   0  0  0  0  0  0
  -29.9220  -18.5769   18.5024 H   0  0  0  0  0  0
  -31.1856  -19.4364   19.3135 H   0  0  0  0  0  0
  -29.2219  -25.5552   17.3298 H   0  0  0  0  0  0
  -27.7182  -26.2800   17.6858 H   0  0  0  0  0  0
  -28.0396  -16.0804   20.9035 H   0  0  0  0  0  0
  -29.0810  -16.7926   22.0905 H   0  0  0  0  0  0
  -31.5714  -17.5672   20.8815 H   0  0  0  0  0  0
  -31.6677  -17.0519   19.2287 H   0  0  0  0  0  0
  -29.7685  -19.7227   21.3437 H   0  0  0  0  0  0
  -29.7217  -25.0584   19.3692 H   0  0  0  0  0  0
  -29.3788  -23.5750   16.0765 H   0  0  0  0  0  0
  -28.2587  -24.5844   15.1635 H   0  0  0  0  0  0
  -27.9049  -22.8832   15.4215 H   0  0  0  0  0  0
  -25.4694  -24.3174   17.7910 H   0  0  0  0  0  0
  -25.7018  -23.5515   16.2552 H   0  0  0  0  0  0
  -25.9078  -25.2929   16.3823 H   0  0  0  0  0  0
  1 25  1  0  0  0
  1 30  2  0  0  0
  1 87  1  0  0  0
  2  3  1  0  0  0
  2 25  1  0  0  0
  2 88  1  0  0  0
  2 89  1  0  0  0
  3  4  1  0  0  0
  3 90  1  0  0  0
  3 91  1  0  0  0
  4  5  1  0  0  0
  4 92  1  0  0  0
  4 93  1  0  0  0
  5  6  1  0  0  0
  5 26  1  0  0  0
  5 94  1  0  0  0
  6 25  1  0  0  0
  6 95  1  0  0  0
  6 96  1  0  0  0
  7  8  2  0  0  0
  7 26  1  0  0  0
  7 29  1  0  0  0
  8  9  1  0  0  0
  8 22  1  0  0  0
  9 10  1  0  0  0
  9 27  2  0  0  0
 10 11  2  0  0  0
 10 15  1  0  0  0
 11 12  1  0  0  0
 11 97  1  0  0  0
 12 13  2  0  0  0
 12 98  1  0  0  0
 13 14  1  0  0  0
 13 31  1  0  0  0
 14 15  2  0  0  0
 14 99  1  0  0  0
 15100  1  0  0  0
 16 17  2  0  0  0
 16 21  1  0  0  0
 16 31  1  0  0  0
 17 18  1  0  0  0
 17101  1  0  0  0
 18 19  2  0  0  0
 18102  1  0  0  0
 19 20  1  0  0  0
 19 24  1  0  0  0
 20 21  2  0  0  0
 20103  1  0  0  0
 21 23  1  0  0  0
 22 28  1  0  0  0
 22 32  2  0  0  0
 26 27  1  0  0  0
 28104  1  0  0  0
 28105  1  0  0  0
 29106  1  0  0  0
 29107  1  0  0  0
 33 34  1  0  0  0
 33 66  1  0  0  0
 33 70  2  0  0  0
 34 36  1  0  0  0
 34 59  1  0  0  0
 34108  1  0  0  0
 35 44  2  0  0  0
 35 45  1  0  0  0
 35 68  1  0  0  0
 36 56  1  0  0  0
 36109  1  0  0  0
 37 39  1  0  0  0
 37 47  1  0  0  0
 37 66  1  0  0  0
 37110  1  0  0  0
 38 43  2  0  0  0
 38 46  1  0  0  0
 38 47  1  0  0  0
 39 64  1  0  0  0
 39 67  2  0  0  0
 40 52  1  0  0  0
 40 53  2  0  0  0
 40 58  1  0  0  0
 41111  1  0  0  0
 41112  1  0  0  0
 41113  1  0  0  0
 41 48  1  0  0  0
 42 43  1  0  0  0
 42 66  1  0  0  0
 42114  1  0  0  0
 42115  1  0  0  0
 43 44  1  0  0  0
 44116  1  0  0  0
 45 46  2  0  0  0
 45117  1  0  0  0
 46118  1  0  0  0
 47119  1  0  0  0
 47120  1  0  0  0
 48 56  1  0  0  0
 48 65  1  0  0  0
 48121  1  0  0  0
 49 50  1  0  0  0
 49 53  1  0  0  0
 49 64  1  0  0  0
 49122  1  0  0  0
 50 51  1  0  0  0
 50123  1  0  0  0
 50124  1  0  0  0
 51 52  1  0  0  0
 51125  1  0  0  0
 51126  1  0  0  0
 52127  1  0  0  0
 52128  1  0  0  0
 53 54  1  0  0  0
 54 55  2  0  0  0
 54129  1  0  0  0
 55 57  1  0  0  0
 55130  1  0  0  0
 56 69  2  0  0  0
 57 58  2  0  0  0
 57131  1  0  0  0
 58132  1  0  0  0
 59 60  1  0  0  0
 59 61  1  0  0  0
 59 62  1  0  0  0
 60133  1  0  0  0
 60134  1  0  0  0
 60135  1  0  0  0
 61136  1  0  0  0
 61137  1  0  0  0
 61138  1  0  0  0
 62139  1  0  0  0
 62140  1  0  0  0
 62141  1  0  0  0
 63 65  1  0  0  0
 63142  1  0  0  0
 63143  1  0  0  0
 63144  1  0  0  0
 64145  1  0  0  0
 65146  1  0  0  0
 68 82  1  0  0  0
 71 73  2  0  0  0
 71 74  1  0  0  0
 71147  1  0  0  0
 72 73  1  0  0  0
 72 86  2  0  0  0
 72148  1  0  0  0
 73 81  1  0  0  0
 74 75  2  0  0  0
 74 82  1  0  0  0
 75 83  1  0  0  0
 75 86  1  0  0  0
 76 79  1  0  0  0
 76 81  1  0  0  0
 76149  1  0  0  0
 76150  1  0  0  0
 77 80  1  0  0  0
 77 81  1  0  0  0
 77151  1  0  0  0
 77152  1  0  0  0
 78 82  1  0  0  0
 78 83  1  0  0  0
 78153  1  0  0  0
 78154  1  0  0  0
 79 87  1  0  0  0
 79155  1  0  0  0
 79156  1  0  0  0
 80 87  1  0  0  0
 80157  1  0  0  0
 80158  1  0  0  0
 81159  1  0  0  0
 82160  1  0  0  0
 83 84  1  0  0  0
 83 85  1  0  0  0
 84161  1  0  0  0
 84162  1  0  0  0
 84163  1  0  0  0
 85164  1  0  0  0
 85165  1  0  0  0
 85166  1  0  0  0
M  ISO  4   1 100  68 101  82 101  87 100
M  END
> <chiral flag>
0

> <version>
0

> <s_m_source_file>
/data/baiqing/PycharmProjects/Reinvent-master-3.2/result/LINK_invent/BTK/process_docking_weight1_custom_sum_contain_oxygen_bond_distance_aromatic_linkinvent_7_9_3/rearranged_h_0179.sdf

> <i_m_source_file_index>
3

> <r_mmod_Potential_Energy-OPLS-2005>
596.974243164062

> <r_mmod_Stretch_Energy-OPLS-2005>
203.408874511719

> <r_mmod_Bend_Energy-OPLS-2005>
368.545989990234

> <r_mmod_Torsional_Energy-OPLS-2005>
336.396026611328

> <r_mmod_Improper_Torsional_Energy-OPLS-2005>
18.9354610443115

> <r_mmod_Van_der_Waal_Energy-OPLS-2005>
146.152038574219

> <r_mmod_Electrostatic_Energy-OPLS-2005>
-426.955169677734

> <r_mmod_Solvation_Energy-OPLS-2005>
-204.747406005859

> <b_mmod_Minimization_Converged-OPLS-2005>
0

> <r_mmod_RMS_Derivative-OPLS-2005>
2.12563681602478

$$$$
3
                    3D
 Structure written by MMmdl.
160169  0  0  1  0            999 V2000
  -30.4755  -15.2095   20.3701 C   0  0  0  0  0  0
  -30.4361  -12.7694   19.5209 C   0  0  0  0  0  0
  -29.5313  -12.5652   18.2812 C   0  0  0  0  0  0
  -28.0775  -12.3012   18.7092 C   0  0  0  0  0  0
  -27.6140  -13.2728   19.8240 C   0  0  2  0  0  0
  -28.6501  -13.4312   20.9575 C   0  0  0  0  0  0
  -25.2401  -13.8246   20.5743 C   0  0  0  0  0  0
  -24.1750  -13.0439   20.9256 C   0  0  0  0  0  0
  -24.6403  -11.6936   20.8767 C   0  0  0  0  0  0
  -23.9097  -10.4296   21.0411 C   0  0  0  0  0  0
  -24.3643   -9.4207   21.9188 C   0  0  0  0  0  0
  -23.6310   -8.2246   22.0757 C   0  0  0  0  0  0
  -22.4289   -8.0288   21.3547 C   0  0  0  0  0  0
  -21.9933   -9.0261   20.4648 C   0  0  0  0  0  0
  -22.7269  -10.2136   20.3058 C   0  0  0  0  0  0
  -21.6854   -6.0744   22.5280 C   0  0  0  0  0  0
  -21.4016   -6.5647   23.8215 C   0  0  0  0  0  0
  -21.3659   -5.6795   24.9176 C   0  0  0  0  0  0
  -21.6041   -4.3059   24.7222 C   0  0  0  0  0  0
  -21.8820   -3.8154   23.4343 C   0  0  0  0  0  0
  -21.9194   -4.6971   22.3401 C   0  0  0  0  0  0
  -22.7769  -13.5193   21.1899 C   0  0  0  0  0  0
  -22.1662   -4.2158   21.0977 F   0  0  0  0  0  0
  -21.5626   -3.4541   25.7735 F   0  0  0  0  0  0
  -29.8898  -13.9170   20.3319 N   0  0  0  0  0  0
  -26.2829  -12.9519   20.3222 N   0  0  0  0  0  0
  -25.9338  -11.6625   20.5727 N   0  0  0  0  0  0
  -22.0421  -12.8175   22.0451 N   0  0  0  0  0  0
  -25.4039  -15.1980   20.4174 N   0  0  0  0  0  0
  -31.6956  -15.1915   20.1590 O   0  0  0  0  0  0
  -21.6644   -6.8890   21.4244 O   0  0  0  0  0  0
  -22.3448  -14.5490   20.6733 O   0  0  0  0  0  0
  -24.6610  -31.8273   23.1743 C   0  0  0  0  0  0
  -25.9303  -32.4610   23.8196 C   0  0  1  0  0  0
  -27.2146  -26.9579   20.1755 C   0  0  0  0  0  0
  -25.5984  -33.8424   24.2103 N   0  0  0  0  0  0
  -23.4739  -30.4418   21.5230 C   0  0  2  0  0  0
  -24.9270  -28.8398   20.1107 C   0  0  0  0  0  0
  -22.7658  -29.4463   22.4789 C   0  0  0  0  0  0
  -18.0321  -28.1413   22.8472 C   0  0  0  0  0  0
  -24.1489  -36.7210   23.2648 C   0  0  0  0  0  0
  -26.0429  -30.6440   21.4007 C   0  0  0  0  0  0
  -26.1113  -29.2376   20.7436 C   0  0  0  0  0  0
  -27.2513  -28.3174   20.7544 C   0  0  0  0  0  0
  -26.0015  -26.7126   19.4907 C   0  0  0  0  0  0
  -24.8961  -27.5965   19.4640 C   0  0  0  0  0  0
  -23.7121  -29.7632   20.1471 C   0  0  0  0  0  0
  -25.4130  -36.2976   24.0304 C   0  0  1  0  0  0
  -20.5947  -28.3752   23.1194 C   0  0  2  0  0  0
  -20.6800  -26.9437   22.5402 C   0  0  0  0  0  0
  -19.5771  -26.6382   21.5217 C   0  0  0  0  0  0
  -18.1953  -26.7950   22.1625 C   0  0  0  0  0  0
  -19.1583  -28.8903   23.2823 C   0  0  0  0  0  0
  -18.9494  -30.1494   23.8855 C   0  0  0  0  0  0
  -17.6487  -30.6603   24.0556 C   0  0  0  0  0  0
  -25.9095  -34.9359   23.5018 C   0  0  0  0  0  0
  -16.5377  -29.9091   23.6347 C   0  0  0  0  0  0
  -16.7304  -28.6511   23.0366 C   0  0  0  0  0  0
  -26.4563  -31.6544   25.0710 C   0  0  0  0  0  0
  -25.3695  -31.3792   26.1369 C   0  0  0  0  0  0
  -27.0455  -30.2917   24.6421 C   0  0  0  0  0  0
  -27.6059  -32.4350   25.7513 C   0  0  0  0  0  0
  -27.5563  -37.1766   24.8469 C   0  0  0  0  0  0
  -21.4330  -29.3048   22.3544 N   0  0  0  0  0  0
  -26.4275  -37.3708   23.9407 N   0  0  0  0  0  0
  -24.7470  -30.9968   22.0863 N   0  0  0  0  0  0
  -23.4224  -28.8020   23.3009 O   0  0  0  0  0  0
  -28.1995  -25.8445   20.2573 O   0  0  0  0  0  0
  -26.5690  -34.8887   22.4607 O   0  0  0  0  0  0
  -23.5684  -32.1225   23.6855 O   0  0  0  0  0  0
  -29.6984  -22.2107   20.9158 C   0  0  0  0  0  0
  -28.5344  -22.6986   20.1958 C   0  0  0  0  0  0
  -30.1206  -20.7842   20.9847 C   0  0  0  0  0  0
  -29.4443  -19.6489   20.3641 C   0  0  0  0  0  0
  -27.9251  -21.4976   19.6161 C   0  0  0  0  0  0
  -31.0510  -24.4655   20.9386 C   0  0  0  0  0  0
  -32.0140  -23.3772   21.3423 C   0  0  0  0  0  0
  -30.5375  -23.2246   21.6364 C   0  0  0  0  0  0
  -30.7421  -18.1130   18.7304 C   0  0  0  0  0  0
  -26.1010  -20.6421   18.2822 C   0  0  0  0  0  0
  -27.7985  -24.2766   20.0513 C   0  0  0  0  0  0
  -30.1577  -18.0715   20.1534 C   0  0  2  0  0  0
  -28.3410  -20.1323   19.6735 N   0  0  0  0  0  0
  -29.7449  -16.4916   20.4254 N   0  0  0  0  0  0
  -26.7689  -21.7373   18.9032 O   0  0  0  0  0  0
  -31.2636  -20.5119   21.6600 F   0  0  0  0  0  0
  -31.4590  -12.9565   19.1913 H   0  0  0  0  0  0
  -30.4861  -11.8582   20.1193 H   0  0  0  0  0  0
  -29.9004  -11.7388   17.6721 H   0  0  0  0  0  0
  -29.5715  -13.4545   17.6503 H   0  0  0  0  0  0
  -28.0252  -11.2747   19.0743 H   0  0  0  0  0  0
  -27.4086  -12.3538   17.8493 H   0  0  0  0  0  0
  -27.5351  -14.2438   19.3332 H   0  0  0  0  0  0
  -28.8047  -12.4927   21.4919 H   0  0  0  0  0  0
  -28.3005  -14.1558   21.6943 H   0  0  0  0  0  0
  -25.2788   -9.5678   22.4764 H   0  0  0  0  0  0
  -24.0015   -7.4635   22.7479 H   0  0  0  0  0  0
  -21.0863   -8.8786   19.8952 H   0  0  0  0  0  0
  -22.3734  -10.9676   19.6166 H   0  0  0  0  0  0
  -21.2009   -7.6156   23.9721 H   0  0  0  0  0  0
  -21.1476   -6.0526   25.9078 H   0  0  0  0  0  0
  -22.0597   -2.7617   23.2837 H   0  0  0  0  0  0
  -22.4054  -11.9850   22.4847 H   0  0  0  0  0  0
  -21.1028  -13.1177   22.2641 H   0  0  0  0  0  0
  -24.6326  -15.8468   20.5305 H   0  0  0  0  0  0
  -26.2427  -15.6393   20.0643 H   0  0  0  0  0  0
  -26.7375  -32.5154   23.0915 H   0  0  0  0  0  0
  -25.0108  -33.9515   25.0237 H   0  0  0  0  0  0
  -22.7856  -31.2728   21.3560 H   0  0  0  0  0  0
  -23.3755  -35.9536   23.3300 H   0  0  0  0  0  0
  -24.3566  -36.8861   22.2063 H   0  0  0  0  0  0
  -23.7236  -37.6397   23.6704 H   0  0  0  0  0  0
  -26.2188  -31.3877   20.6223 H   0  0  0  0  0  0
  -26.9054  -30.7001   22.0528 H   0  0  0  0  0  0
  -28.1457  -28.6183   21.2815 H   0  0  0  0  0  0
  -25.8587  -25.7684   18.9889 H   0  0  0  0  0  0
  -23.9971  -27.2872   18.9489 H   0  0  0  0  0  0
  -23.8652  -30.5340   19.3910 H   0  0  0  0  0  0
  -22.8227  -29.2171   19.8284 H   0  0  0  0  0  0
  -25.1327  -36.1779   25.0793 H   0  0  0  0  0  0
  -21.0037  -28.3350   24.1317 H   0  0  0  0  0  0
  -20.5686  -26.2369   23.3640 H   0  0  0  0  0  0
  -21.6662  -26.7419   22.1201 H   0  0  0  0  0  0
  -19.6926  -25.6280   21.1277 H   0  0  0  0  0  0
  -19.6709  -27.3168   20.6727 H   0  0  0  0  0  0
  -17.4223  -26.6701   21.4026 H   0  0  0  0  0  0
  -18.0341  -26.0105   22.9031 H   0  0  0  0  0  0
  -19.7966  -30.7326   24.2205 H   0  0  0  0  0  0
  -17.5037  -31.6278   24.5164 H   0  0  0  0  0  0
  -15.5375  -30.2976   23.7698 H   0  0  0  0  0  0
  -15.8705  -28.0814   22.7107 H   0  0  0  0  0  0
  -24.5894  -30.7122   25.7686 H   0  0  0  0  0  0
  -24.8864  -32.2993   26.4667 H   0  0  0  0  0  0
  -25.7934  -30.9048   27.0228 H   0  0  0  0  0  0
  -26.3119  -29.6605   24.1397 H   0  0  0  0  0  0
  -27.3969  -29.7270   25.5065 H   0  0  0  0  0  0
  -27.9066  -30.4116   23.9845 H   0  0  0  0  0  0
  -27.2634  -33.3698   26.1967 H   0  0  0  0  0  0
  -28.3938  -32.6837   25.0390 H   0  0  0  0  0  0
  -28.0653  -31.8555   26.5531 H   0  0  0  0  0  0
  -28.2573  -38.0067   24.7497 H   0  0  0  0  0  0
  -28.1060  -36.2590   24.6316 H   0  0  0  0  0  0
  -27.2281  -37.1439   25.8873 H   0  0  0  0  0  0
  -20.9576  -29.8750   21.6688 H   0  0  0  0  0  0
  -26.0122  -38.2765   24.1413 H   0  0  0  0  0  0
  -30.8463  -24.5784   19.8754 H   0  0  0  0  0  0
  -31.0836  -25.3910   21.5098 H   0  0  0  0  0  0
  -32.6778  -23.5892   22.1779 H   0  0  0  0  0  0
  -32.4415  -22.7691   20.5473 H   0  0  0  0  0  0
  -30.2179  -23.3220   22.6724 H   0  0  0  0  0  0
  -31.3395  -19.0137   18.5843 H   0  0  0  0  0  0
  -29.9459  -18.1264   17.9858 H   0  0  0  0  0  0
  -31.3898  -17.2647   18.5147 H   0  0  0  0  0  0
  -25.2195  -21.0078   17.7564 H   0  0  0  0  0  0
  -25.7643  -19.9103   19.0177 H   0  0  0  0  0  0
  -26.7393  -20.1469   17.5488 H   0  0  0  0  0  0
  -26.8891  -24.1685   20.6429 H   0  0  0  0  0  0
  -27.4552  -24.2581   19.0177 H   0  0  0  0  0  0
  -31.0191  -18.1511   20.8170 H   0  0  0  0  0  0
  -28.7571  -16.3752   20.5949 H   0  0  0  0  0  0
  1 25  1  0  0  0
  1 30  2  0  0  0
  1 84  1  0  0  0
  2  3  1  0  0  0
  2 25  1  0  0  0
  2 87  1  0  0  0
  2 88  1  0  0  0
  3  4  1  0  0  0
  3 89  1  0  0  0
  3 90  1  0  0  0
  4  5  1  0  0  0
  4 91  1  0  0  0
  4 92  1  0  0  0
  5  6  1  0  0  0
  5 26  1  0  0  0
  5 93  1  0  0  0
  6 25  1  0  0  0
  6 94  1  0  0  0
  6 95  1  0  0  0
  7  8  2  0  0  0
  7 26  1  0  0  0
  7 29  1  0  0  0
  8  9  1  0  0  0
  8 22  1  0  0  0
  9 10  1  0  0  0
  9 27  2  0  0  0
 10 11  2  0  0  0
 10 15  1  0  0  0
 11 12  1  0  0  0
 11 96  1  0  0  0
 12 13  2  0  0  0
 12 97  1  0  0  0
 13 14  1  0  0  0
 13 31  1  0  0  0
 14 15  2  0  0  0
 14 98  1  0  0  0
 15 99  1  0  0  0
 16 17  2  0  0  0
 16 21  1  0  0  0
 16 31  1  0  0  0
 17 18  1  0  0  0
 17100  1  0  0  0
 18 19  2  0  0  0
 18101  1  0  0  0
 19 20  1  0  0  0
 19 24  1  0  0  0
 20 21  2  0  0  0
 20102  1  0  0  0
 21 23  1  0  0  0
 22 28  1  0  0  0
 22 32  2  0  0  0
 26 27  1  0  0  0
 28103  1  0  0  0
 28104  1  0  0  0
 29105  1  0  0  0
 29106  1  0  0  0
 33 34  1  0  0  0
 33 66  1  0  0  0
 33 70  2  0  0  0
 34 36  1  0  0  0
 34 59  1  0  0  0
 34107  1  0  0  0
 35 44  2  0  0  0
 35 45  1  0  0  0
 35 68  1  0  0  0
 36 56  1  0  0  0
 36108  1  0  0  0
 37 39  1  0  0  0
 37 47  1  0  0  0
 37 66  1  0  0  0
 37109  1  0  0  0
 38 43  2  0  0  0
 38 46  1  0  0  0
 38 47  1  0  0  0
 39 64  1  0  0  0
 39 67  2  0  0  0
 40 52  1  0  0  0
 40 53  2  0  0  0
 40 58  1  0  0  0
 41110  1  0  0  0
 41111  1  0  0  0
 41112  1  0  0  0
 41 48  1  0  0  0
 42 43  1  0  0  0
 42 66  1  0  0  0
 42113  1  0  0  0
 42114  1  0  0  0
 43 44  1  0  0  0
 44115  1  0  0  0
 45 46  2  0  0  0
 45116  1  0  0  0
 46117  1  0  0  0
 47118  1  0  0  0
 47119  1  0  0  0
 48 56  1  0  0  0
 48 65  1  0  0  0
 48120  1  0  0  0
 49 50  1  0  0  0
 49 53  1  0  0  0
 49 64  1  0  0  0
 49121  1  0  0  0
 50 51  1  0  0  0
 50122  1  0  0  0
 50123  1  0  0  0
 51 52  1  0  0  0
 51124  1  0  0  0
 51125  1  0  0  0
 52126  1  0  0  0
 52127  1  0  0  0
 53 54  1  0  0  0
 54 55  2  0  0  0
 54128  1  0  0  0
 55 57  1  0  0  0
 55129  1  0  0  0
 56 69  2  0  0  0
 57 58  2  0  0  0
 57130  1  0  0  0
 58131  1  0  0  0
 59 60  1  0  0  0
 59 61  1  0  0  0
 59 62  1  0  0  0
 60132  1  0  0  0
 60133  1  0  0  0
 60134  1  0  0  0
 61135  1  0  0  0
 61136  1  0  0  0
 61137  1  0  0  0
 62138  1  0  0  0
 62139  1  0  0  0
 62140  1  0  0  0
 63 65  1  0  0  0
 63141  1  0  0  0
 63142  1  0  0  0
 63143  1  0  0  0
 64144  1  0  0  0
 65145  1  0  0  0
 68 81  1  0  0  0
 71 72  1  0  0  0
 71 73  2  0  0  0
 71 78  1  0  0  0
 72 75  2  0  0  0
 72 81  1  0  0  0
 73 74  1  0  0  0
 73 86  1  0  0  0
 74 82  1  0  0  0
 74 83  2  0  0  0
 75 83  1  0  0  0
 75 85  1  0  0  0
 76 77  1  0  0  0
 76 78  1  0  0  0
 76146  1  0  0  0
 76147  1  0  0  0
 77 78  1  0  0  0
 77148  1  0  0  0
 77149  1  0  0  0
 78150  1  0  0  0
 79151  1  0  0  0
 79152  1  0  0  0
 79153  1  0  0  0
 79 82  1  0  0  0
 80 85  1  0  0  0
 80154  1  0  0  0
 80155  1  0  0  0
 80156  1  0  0  0
 81157  1  0  0  0
 81158  1  0  0  0
 82 84  1  0  0  0
 82159  1  0  0  0
 84160  1  0  0  0
M  ISO  4   1 100  68 101  81 101  84 100
M  END
> <chiral flag>
0

> <version>
0

> <s_m_source_file>
/data/baiqing/PycharmProjects/Reinvent-master-3.2/result/LINK_invent/BTK/process_docking_weight1_custom_sum_contain_oxygen_bond_distance_aromatic_linkinvent_7_9_3/rearranged_h_0179.sdf

> <i_m_source_file_index>
4

> <r_mmod_Potential_Energy-OPLS-2005>
928.025329589844

> <r_mmod_Stretch_Energy-OPLS-2005>
477.173278808594

> <r_mmod_Bend_Energy-OPLS-2005>
441.557006835938

> <r_mmod_Torsional_Energy-OPLS-2005>
229.703369140625

> <r_mmod_Improper_Torsional_Energy-OPLS-2005>
7.45526647567749

> <r_mmod_Van_der_Waal_Energy-OPLS-2005>
137.212692260742

> <r_mmod_Electrostatic_Energy-OPLS-2005>
-567.227416992188

> <r_mmod_Solvation_Energy-OPLS-2005>
-207.408248901367

> <b_mmod_Minimization_Converged-OPLS-2005>
0

> <r_mmod_RMS_Derivative-OPLS-2005>
0.659508943557739

$$$$
4
                    3D
 Structure written by MMmdl.
158167  0  0  1  0            999 V2000
  -30.6749  -14.4656   20.5697 C   0  0  0  0  0  0
  -30.4083  -12.3045   19.4090 C   0  0  0  0  0  0
  -29.4796  -12.5057   18.1939 C   0  0  0  0  0  0
  -28.0017  -12.3610   18.6131 C   0  0  0  0  0  0
  -27.6544  -13.2017   19.8735 C   0  0  2  0  0  0
  -28.6947  -12.9644   20.9879 C   0  0  0  0  0  0
  -25.2562  -13.8124   20.5706 C   0  0  0  0  0  0
  -24.1825  -13.0373   20.9214 C   0  0  0  0  0  0
  -24.6409  -11.6870   20.8786 C   0  0  0  0  0  0
  -23.9129  -10.4251   21.0458 C   0  0  0  0  0  0
  -24.3659   -9.4137   21.9218 C   0  0  0  0  0  0
  -23.6301   -8.2191   22.0746 C   0  0  0  0  0  0
  -22.4276   -8.0289   21.3549 C   0  0  0  0  0  0
  -21.9960   -9.0270   20.4640 C   0  0  0  0  0  0
  -22.7320  -10.2124   20.3091 C   0  0  0  0  0  0
  -21.6814   -6.0791   22.5298 C   0  0  0  0  0  0
  -21.3992   -6.5679   23.8250 C   0  0  0  0  0  0
  -21.3666   -5.6811   24.9196 C   0  0  0  0  0  0
  -21.6056   -4.3078   24.7221 C   0  0  0  0  0  0
  -21.8806   -3.8202   23.4326 C   0  0  0  0  0  0
  -21.9166   -4.7030   22.3396 C   0  0  0  0  0  0
  -22.7863  -13.5184   21.1901 C   0  0  0  0  0  0
  -22.1639   -4.2239   21.0964 F   0  0  0  0  0  0
  -21.5639   -3.4540   25.7720 F   0  0  0  0  0  0
  -30.0185  -13.2845   20.4347 N   0  0  0  0  0  0
  -26.2984  -12.9301   20.3394 N   0  0  0  0  0  0
  -25.9321  -11.6453   20.5794 N   0  0  0  0  0  0
  -22.0537  -12.8143   22.0465 N   0  0  0  0  0  0
  -25.4204  -15.1829   20.4135 N   0  0  0  0  0  0
  -31.8132  -14.6477   20.1294 O   0  0  0  0  0  0
  -21.6585   -6.8921   21.4266 O   0  0  0  0  0  0
  -22.3559  -14.5513   20.6794 O   0  0  0  0  0  0
  -24.6194  -31.8611   23.2096 C   0  0  0  0  0  0
  -25.9052  -32.4803   23.8410 C   0  0  1  0  0  0
  -27.2403  -27.3746   20.1197 C   0  0  0  0  0  0
  -25.5907  -33.8613   24.2326 N   0  0  0  0  0  0
  -23.4157  -30.4818   21.5465 C   0  0  2  0  0  0
  -24.8687  -28.9380   20.1266 C   0  0  0  0  0  0
  -22.7478  -29.4585   22.4963 C   0  0  0  0  0  0
  -18.0270  -28.1372   22.8471 C   0  0  0  0  0  0
  -24.1496  -36.7303   23.2641 C   0  0  0  0  0  0
  -25.9508  -30.8076   21.3787 C   0  0  0  0  0  0
  -26.0309  -29.4330   20.7339 C   0  0  0  0  0  0
  -27.2226  -28.6579   20.7332 C   0  0  0  0  0  0
  -26.0636  -26.9119   19.5011 C   0  0  0  0  0  0
  -24.8796  -27.6770   19.5105 C   0  0  0  0  0  0
  -23.6353  -29.8142   20.1633 C   0  0  0  0  0  0
  -25.4121  -36.3114   24.0336 C   0  0  1  0  0  0
  -20.5873  -28.3649   23.1322 C   0  0  2  0  0  0
  -20.6779  -26.9381   22.5432 C   0  0  0  0  0  0
  -19.5764  -26.6368   21.5235 C   0  0  0  0  0  0
  -18.1927  -26.7904   22.1621 C   0  0  0  0  0  0
  -19.1528  -28.8831   23.2880 C   0  0  0  0  0  0
  -18.9455  -30.1421   23.8907 C   0  0  0  0  0  0
  -17.6466  -30.6572   24.0539 C   0  0  0  0  0  0
  -25.9055  -34.9455   23.5132 C   0  0  0  0  0  0
  -16.5354  -29.9062   23.6343 C   0  0  0  0  0  0
  -16.7266  -28.6479   23.0349 C   0  0  0  0  0  0
  -26.4466  -31.6625   25.0779 C   0  0  0  0  0  0
  -25.3703  -31.3753   26.1522 C   0  0  0  0  0  0
  -27.0342  -30.3077   24.6220 C   0  0  0  0  0  0
  -27.6044  -32.4349   25.7508 C   0  0  0  0  0  0
  -27.5574  -37.1799   24.8448 C   0  0  0  0  0  0
  -21.4193  -29.3008   22.3743 N   0  0  0  0  0  0
  -26.4308  -37.3792   23.9398 N   0  0  0  0  0  0
  -24.6788  -31.0669   22.1024 N   0  0  0  0  0  0
  -23.4217  -28.8117   23.3030 O   0  0  0  0  0  0
  -28.3691  -26.5781   19.9911 O   0  0  0  0  0  0
  -26.5603  -34.8881   22.4694 O   0  0  0  0  0  0
  -23.5367  -32.1382   23.7454 O   0  0  0  0  0  0
  -29.8159  -22.5705   21.8085 C   0  0  0  0  0  0
  -28.1000  -21.3313   20.1388 C   0  0  0  0  0  0
  -28.6890  -23.2693   21.2885 C   0  0  0  0  0  0
  -29.2491  -20.6502   20.6176 C   0  0  0  0  0  0
  -29.9293  -17.7400   22.2572 C   0  0  0  0  0  0
  -29.3178  -18.0057   20.9091 C   0  0  2  0  0  0
  -30.3505  -16.8707   21.0938 C   0  0  2  0  0  0
  -31.0656  -19.2518   19.4670 C   0  0  0  0  0  0
  -28.2971  -24.6921   21.7696 C   0  0  0  0  0  0
  -28.9679  -25.9724   21.1577 C   0  0  0  0  0  0
  -29.6365  -19.2575   20.0504 C   0  0  2  0  0  0
  -27.8221  -22.6263   20.4608 N   0  0  0  0  0  0
  -30.0945  -21.2729   21.4848 N   0  0  0  0  0  0
  -29.9426  -15.4867   21.0642 N   0  0  0  0  0  0
  -31.4558  -12.3929   19.1152 H   0  0  0  0  0  0
  -30.2931  -11.2937   19.8015 H   0  0  0  0  0  0
  -29.7154  -11.7852   17.4100 H   0  0  0  0  0  0
  -29.6453  -13.4939   17.7634 H   0  0  0  0  0  0
  -27.8141  -11.3026   18.8069 H   0  0  0  0  0  0
  -27.3461  -12.6372   17.7853 H   0  0  0  0  0  0
  -27.7022  -14.2535   19.5859 H   0  0  0  0  0  0
  -28.6767  -11.9174   21.2965 H   0  0  0  0  0  0
  -28.4618  -13.5345   21.8868 H   0  0  0  0  0  0
  -25.2816   -9.5529   22.4794 H   0  0  0  0  0  0
  -23.9990   -7.4543   22.7432 H   0  0  0  0  0  0
  -21.0915   -8.8838   19.8906 H   0  0  0  0  0  0
  -22.3869  -10.9682   19.6193 H   0  0  0  0  0  0
  -21.1971   -7.6184   23.9784 H   0  0  0  0  0  0
  -21.1515   -6.0536   25.9112 H   0  0  0  0  0  0
  -22.0576   -2.7673   23.2788 H   0  0  0  0  0  0
  -22.4171  -11.9732   22.4699 H   0  0  0  0  0  0
  -21.1183  -13.1170   22.2788 H   0  0  0  0  0  0
  -24.6364  -15.8197   20.5200 H   0  0  0  0  0  0
  -26.2639  -15.6408   20.0934 H   0  0  0  0  0  0
  -26.7118  -32.5502   23.1160 H   0  0  0  0  0  0
  -25.0071  -33.9763   25.0483 H   0  0  0  0  0  0
  -22.7062  -31.2998   21.4016 H   0  0  0  0  0  0
  -23.3768  -35.9627   23.3325 H   0  0  0  0  0  0
  -24.3573  -36.8924   22.2047 H   0  0  0  0  0  0
  -23.7233  -37.6506   23.6658 H   0  0  0  0  0  0
  -26.0767  -31.5721   20.6109 H   0  0  0  0  0  0
  -26.8326  -30.8604   22.0061 H   0  0  0  0  0  0
  -28.1276  -29.0413   21.1838 H   0  0  0  0  0  0
  -26.0631  -25.9528   19.0025 H   0  0  0  0  0  0
  -23.9883  -27.2971   19.0340 H   0  0  0  0  0  0
  -23.7508  -30.5888   19.4030 H   0  0  0  0  0  0
  -22.7631  -29.2355   19.8589 H   0  0  0  0  0  0
  -25.1299  -36.1983   25.0835 H   0  0  0  0  0  0
  -20.9926  -28.3179   24.1457 H   0  0  0  0  0  0
  -20.5747  -26.2223   23.3605 H   0  0  0  0  0  0
  -21.6630  -26.7441   22.1186 H   0  0  0  0  0  0
  -19.6946  -25.6291   21.1241 H   0  0  0  0  0  0
  -19.6730  -27.3192   20.6782 H   0  0  0  0  0  0
  -17.4216  -26.6657   21.3993 H   0  0  0  0  0  0
  -18.0292  -26.0040   22.9009 H   0  0  0  0  0  0
  -19.7932  -30.7213   24.2301 H   0  0  0  0  0  0
  -17.5014  -31.6255   24.5114 H   0  0  0  0  0  0
  -15.5350  -30.2955   23.7671 H   0  0  0  0  0  0
  -15.8659  -28.0797   22.7089 H   0  0  0  0  0  0
  -24.5857  -30.7145   25.7841 H   0  0  0  0  0  0
  -24.8917  -32.2928   26.4960 H   0  0  0  0  0  0
  -25.8005  -30.8904   27.0297 H   0  0  0  0  0  0
  -26.2945  -29.6813   24.1245 H   0  0  0  0  0  0
  -27.4093  -29.7345   25.4706 H   0  0  0  0  0  0
  -27.8765  -30.4434   23.9436 H   0  0  0  0  0  0
  -27.2717  -33.3674   26.2056 H   0  0  0  0  0  0
  -28.3847  -32.6865   25.0321 H   0  0  0  0  0  0
  -28.0728  -31.8504   26.5438 H   0  0  0  0  0  0
  -28.2589  -38.0088   24.7513 H   0  0  0  0  0  0
  -28.1072  -36.2624   24.6285 H   0  0  0  0  0  0
  -27.2270  -37.1452   25.8840 H   0  0  0  0  0  0
  -20.9381  -29.8742   21.6960 H   0  0  0  0  0  0
  -26.0204  -38.2879   24.1417 H   0  0  0  0  0  0
  -30.4943  -23.0465   22.5033 H   0  0  0  0  0  0
  -27.4199  -20.8392   19.4585 H   0  0  0  0  0  0
  -29.2945  -17.2879   23.0166 H   0  0  0  0  0  0
  -30.6385  -18.4758   22.6316 H   0  0  0  0  0  0
  -28.2704  -17.7095   20.8438 H   0  0  0  0  0  0
  -31.3721  -17.0531   20.7702 H   0  0  0  0  0  0
  -31.2228  -20.0829   18.7806 H   0  0  0  0  0  0
  -31.2640  -18.3360   18.9040 H   0  0  0  0  0  0
  -31.8120  -19.3249   20.2585 H   0  0  0  0  0  0
  -28.5115  -24.6974   22.8399 H   0  0  0  0  0  0
  -27.2168  -24.8025   21.6947 H   0  0  0  0  0  0
  -30.0123  -25.7514   20.9283 H   0  0  0  0  0  0
  -29.0120  -26.7360   21.9337 H   0  0  0  0  0  0
  -28.9940  -19.1351   19.1768 H   0  0  0  0  0  0
  -29.0016  -15.2654   21.3530 H   0  0  0  0  0  0
  1 25  1  0  0  0
  1 30  2  0  0  0
  1 84  1  0  0  0
  2  3  1  0  0  0
  2 25  1  0  0  0
  2 85  1  0  0  0
  2 86  1  0  0  0
  3  4  1  0  0  0
  3 87  1  0  0  0
  3 88  1  0  0  0
  4  5  1  0  0  0
  4 89  1  0  0  0
  4 90  1  0  0  0
  5  6  1  0  0  0
  5 26  1  0  0  0
  5 91  1  0  0  0
  6 25  1  0  0  0
  6 92  1  0  0  0
  6 93  1  0  0  0
  7  8  2  0  0  0
  7 26  1  0  0  0
  7 29  1  0  0  0
  8  9  1  0  0  0
  8 22  1  0  0  0
  9 10  1  0  0  0
  9 27  2  0  0  0
 10 11  2  0  0  0
 10 15  1  0  0  0
 11 12  1  0  0  0
 11 94  1  0  0  0
 12 13  2  0  0  0
 12 95  1  0  0  0
 13 14  1  0  0  0
 13 31  1  0  0  0
 14 15  2  0  0  0
 14 96  1  0  0  0
 15 97  1  0  0  0
 16 17  2  0  0  0
 16 21  1  0  0  0
 16 31  1  0  0  0
 17 18  1  0  0  0
 17 98  1  0  0  0
 18 19  2  0  0  0
 18 99  1  0  0  0
 19 20  1  0  0  0
 19 24  1  0  0  0
 20 21  2  0  0  0
 20100  1  0  0  0
 21 23  1  0  0  0
 22 28  1  0  0  0
 22 32  2  0  0  0
 26 27  1  0  0  0
 28101  1  0  0  0
 28102  1  0  0  0
 29103  1  0  0  0
 29104  1  0  0  0
 33 34  1  0  0  0
 33 66  1  0  0  0
 33 70  2  0  0  0
 34 36  1  0  0  0
 34 59  1  0  0  0
 34105  1  0  0  0
 35 44  2  0  0  0
 35 45  1  0  0  0
 35 68  1  0  0  0
 36 56  1  0  0  0
 36106  1  0  0  0
 37 39  1  0  0  0
 37 47  1  0  0  0
 37 66  1  0  0  0
 37107  1  0  0  0
 38 43  2  0  0  0
 38 46  1  0  0  0
 38 47  1  0  0  0
 39 64  1  0  0  0
 39 67  2  0  0  0
 40 52  1  0  0  0
 40 53  2  0  0  0
 40 58  1  0  0  0
 41108  1  0  0  0
 41109  1  0  0  0
 41110  1  0  0  0
 41 48  1  0  0  0
 42 43  1  0  0  0
 42 66  1  0  0  0
 42111  1  0  0  0
 42112  1  0  0  0
 43 44  1  0  0  0
 44113  1  0  0  0
 45 46  2  0  0  0
 45114  1  0  0  0
 46115  1  0  0  0
 47116  1  0  0  0
 47117  1  0  0  0
 48 56  1  0  0  0
 48 65  1  0  0  0
 48118  1  0  0  0
 49 50  1  0  0  0
 49 53  1  0  0  0
 49 64  1  0  0  0
 49119  1  0  0  0
 50 51  1  0  0  0
 50120  1  0  0  0
 50121  1  0  0  0
 51 52  1  0  0  0
 51122  1  0  0  0
 51123  1  0  0  0
 52124  1  0  0  0
 52125  1  0  0  0
 53 54  1  0  0  0
 54 55  2  0  0  0
 54126  1  0  0  0
 55 57  1  0  0  0
 55127  1  0  0  0
 56 69  2  0  0  0
 57 58  2  0  0  0
 57128  1  0  0  0
 58129  1  0  0  0
 59 60  1  0  0  0
 59 61  1  0  0  0
 59 62  1  0  0  0
 60130  1  0  0  0
 60131  1  0  0  0
 60132  1  0  0  0
 61133  1  0  0  0
 61134  1  0  0  0
 61135  1  0  0  0
 62136  1  0  0  0
 62137  1  0  0  0
 62138  1  0  0  0
 63 65  1  0  0  0
 63139  1  0  0  0
 63140  1  0  0  0
 63141  1  0  0  0
 64142  1  0  0  0
 65143  1  0  0  0
 68 80  1  0  0  0
 71 73  2  0  0  0
 71 83  1  0  0  0
 71144  1  0  0  0
 72 74  1  0  0  0
 72 82  2  0  0  0
 72145  1  0  0  0
 73 79  1  0  0  0
 73 82  1  0  0  0
 74 81  1  0  0  0
 74 83  2  0  0  0
 75 77  1  0  0  0
 75146  1  0  0  0
 75147  1  0  0  0
 75 76  1  0  0  0
 76 77  1  0  0  0
 76 81  1  0  0  0
 76148  1  0  0  0
 77 84  1  0  0  0
 77149  1  0  0  0
 78150  1  0  0  0
 78151  1  0  0  0
 78152  1  0  0  0
 78 81  1  0  0  0
 79 80  1  0  0  0
 79153  1  0  0  0
 79154  1  0  0  0
 80155  1  0  0  0
 80156  1  0  0  0
 81157  1  0  0  0
 84158  1  0  0  0
M  ISO  4   1 100  68 101  80 101  84 100
M  END
> <chiral flag>
0

> <version>
0

> <s_m_source_file>
/data/baiqing/PycharmProjects/Reinvent-master-3.2/result/LINK_invent/BTK/process_docking_weight1_custom_sum_contain_oxygen_bond_distance_aromatic_linkinvent_7_9_3/rearranged_h_0179.sdf

> <i_m_source_file_index>
5

> <r_mmod_Potential_Energy-OPLS-2005>
106.722663879395

> <r_mmod_Stretch_Energy-OPLS-2005>
50.7839202880859

> <r_mmod_Bend_Energy-OPLS-2005>
123.099281311035

> <r_mmod_Torsional_Energy-OPLS-2005>
279.098114013672

> <r_mmod_Improper_Torsional_Energy-OPLS-2005>
5.02253341674805

> <r_mmod_Van_der_Waal_Energy-OPLS-2005>
146.836502075195

> <r_mmod_Electrostatic_Energy-OPLS-2005>
-293.190460205078

> <r_mmod_Solvation_Energy-OPLS-2005>
-222.907791137695

> <b_mmod_Minimization_Converged-OPLS-2005>
0

> <r_mmod_RMS_Derivative-OPLS-2005>
5.09949827194214

$$$$
5
                    3D
 Structure written by MMmdl.
154163  0  0  1  0            999 V2000
  -30.6145  -14.8233   20.4807 C   0  0  0  0  0  0
  -30.4334  -12.5209   19.4748 C   0  0  0  0  0  0
  -29.5072  -12.5186   18.2373 C   0  0  0  0  0  0
  -28.0369  -12.3174   18.6541 C   0  0  0  0  0  0
  -27.6330  -13.2246   19.8437 C   0  0  2  0  0  0
  -28.6829  -13.1703   20.9760 C   0  0  0  0  0  0
  -25.2412  -13.8139   20.5642 C   0  0  0  0  0  0
  -24.1739  -13.0389   20.9229 C   0  0  0  0  0  0
  -24.6358  -11.6879   20.8779 C   0  0  0  0  0  0
  -23.9049  -10.4262   21.0424 C   0  0  0  0  0  0
  -24.3604   -9.4178   21.9197 C   0  0  0  0  0  0
  -23.6278   -8.2218   22.0762 C   0  0  0  0  0  0
  -22.4260   -8.0267   21.3551 C   0  0  0  0  0  0
  -21.9896   -9.0239   20.4650 C   0  0  0  0  0  0
  -22.7227  -10.2114   20.3063 C   0  0  0  0  0  0
  -21.6843   -6.0728   22.5283 C   0  0  0  0  0  0
  -21.4010   -6.5633   23.8218 C   0  0  0  0  0  0
  -21.3659   -5.6786   24.9180 C   0  0  0  0  0  0
  -21.6041   -4.3050   24.7230 C   0  0  0  0  0  0
  -21.8813   -3.8142   23.4351 C   0  0  0  0  0  0
  -21.9187   -4.6956   22.3407 C   0  0  0  0  0  0
  -22.7767  -13.5181   21.1891 C   0  0  0  0  0  0
  -22.1652   -4.2144   21.0984 F   0  0  0  0  0  0
  -21.5632   -3.4533   25.7744 F   0  0  0  0  0  0
  -29.9638  -13.5966   20.3920 N   0  0  0  0  0  0
  -26.2868  -12.9360   20.3254 N   0  0  0  0  0  0
  -25.9284  -11.6510   20.5774 N   0  0  0  0  0  0
  -22.0409  -12.8196   22.0460 N   0  0  0  0  0  0
  -25.3931  -15.1855   20.3933 N   0  0  0  0  0  0
  -31.8049  -14.8588   20.1486 O   0  0  0  0  0  0
  -21.6624   -6.8866   21.4245 O   0  0  0  0  0  0
  -22.3451  -14.5489   20.6736 O   0  0  0  0  0  0
  -24.6347  -31.8528   23.1951 C   0  0  0  0  0  0
  -25.9162  -32.4741   23.8309 C   0  0  1  0  0  0
  -27.2226  -27.2334   20.1422 C   0  0  0  0  0  0
  -25.5952  -33.8545   24.2236 N   0  0  0  0  0  0
  -23.4328  -30.4734   21.5388 C   0  0  2  0  0  0
  -24.8816  -28.9089   20.1158 C   0  0  0  0  0  0
  -22.7517  -29.4593   22.4903 C   0  0  0  0  0  0
  -18.0294  -28.1392   22.8480 C   0  0  0  0  0  0
  -24.1488  -36.7265   23.2636 C   0  0  0  0  0  0
  -25.9801  -30.7583   21.3768 C   0  0  0  0  0  0
  -26.0548  -29.3746   20.7246 C   0  0  0  0  0  0
  -27.2306  -28.5512   20.7218 C   0  0  0  0  0  0
  -26.0273  -26.8370   19.5083 C   0  0  0  0  0  0
  -24.8737  -27.6488   19.4958 C   0  0  0  0  0  0
  -23.6538  -29.8010   20.1577 C   0  0  0  0  0  0
  -25.4121  -36.3055   24.0317 C   0  0  1  0  0  0
  -20.5901  -28.3706   23.1260 C   0  0  2  0  0  0
  -20.6778  -26.9418   22.5406 C   0  0  0  0  0  0
  -19.5751  -26.6385   21.5212 C   0  0  0  0  0  0
  -18.1935  -26.7932   22.1627 C   0  0  0  0  0  0
  -19.1549  -28.8867   23.2866 C   0  0  0  0  0  0
  -18.9469  -30.1467   23.8885 C   0  0  0  0  0  0
  -17.6466  -30.6589   24.0561 C   0  0  0  0  0  0
  -25.9067  -34.9430   23.5077 C   0  0  0  0  0  0
  -16.5357  -29.9087   23.6330 C   0  0  0  0  0  0
  -16.7281  -28.6507   23.0349 C   0  0  0  0  0  0
  -26.4519  -31.6575   25.0708 C   0  0  0  0  0  0
  -25.3736  -31.3736   26.1424 C   0  0  0  0  0  0
  -27.0358  -30.2983   24.6204 C   0  0  0  0  0  0
  -27.6063  -32.4313   25.7503 C   0  0  0  0  0  0
  -27.5572  -37.1792   24.8467 C   0  0  0  0  0  0
  -21.4221  -29.3049   22.3646 N   0  0  0  0  0  0
  -26.4287  -37.3763   23.9409 N   0  0  0  0  0  0
  -24.7019  -31.0472   22.0933 N   0  0  0  0  0  0
  -23.4202  -28.8133   23.3012 O   0  0  0  0  0  0
  -28.3097  -26.3229   20.1364 O   0  0  0  0  0  0
  -26.5636  -34.8911   22.4641 O   0  0  0  0  0  0
  -23.5489  -32.1355   23.7233 O   0  0  0  0  0  0
  -28.3517  -23.4577   18.6123 C   0  0  0  0  0  0
  -28.5452  -22.2009   18.0171 C   0  0  0  0  0  0
  -28.5324  -23.5723   19.9955 C   0  0  0  0  0  0
  -29.0849  -21.2206   20.0193 C   0  0  0  0  0  0
  -28.4405  -17.8551   21.4599 C   0  0  0  0  0  0
  -28.6664  -16.3214   21.3364 C   0  0  0  0  0  0
  -30.4275  -17.4500   20.2689 C   0  0  0  0  0  0
  -29.2594  -18.5491   20.3686 C   0  0  2  0  0  0
  -28.1273  -24.9415   20.7382 C   0  0  0  0  0  0
  -28.8939  -21.0986   18.7174 N   0  0  0  0  0  0
  -28.9207  -22.4107   20.6786 N   0  0  0  0  0  0
  -29.9244  -16.0521   20.6254 N   0  0  0  0  0  0
  -29.5274  -20.0233   20.6892 N   0  0  0  0  0  0
  -31.4675  -12.6618   19.1570 H   0  0  0  0  0  0
  -30.4141  -11.5516   19.9750 H   0  0  0  0  0  0
  -29.8083  -11.7352   17.5404 H   0  0  0  0  0  0
  -29.6098  -13.4631   17.6999 H   0  0  0  0  0  0
  -27.9136  -11.2708   18.9331 H   0  0  0  0  0  0
  -27.3738  -12.4855   17.8052 H   0  0  0  0  0  0
  -27.6157  -14.2321   19.4329 H   0  0  0  0  0  0
  -28.7589  -12.1564   21.3714 H   0  0  0  0  0  0
  -28.3915  -13.7793   21.8272 H   0  0  0  0  0  0
  -25.2742   -9.5655   22.4779 H   0  0  0  0  0  0
  -23.9983   -7.4600   22.7477 H   0  0  0  0  0  0
  -21.0830   -8.8754   19.8950 H   0  0  0  0  0  0
  -22.3685  -10.9658   19.6176 H   0  0  0  0  0  0
  -21.2002   -7.6142   23.9724 H   0  0  0  0  0  0
  -21.1490   -6.0516   25.9086 H   0  0  0  0  0  0
  -22.0593   -2.7606   23.2851 H   0  0  0  0  0  0
  -22.4015  -11.9860   22.4864 H   0  0  0  0  0  0
  -21.1033  -13.1244   22.2670 H   0  0  0  0  0  0
  -24.6173  -15.8288   20.5037 H   0  0  0  0  0  0
  -26.2273  -15.6306   20.0358 H   0  0  0  0  0  0
  -26.7233  -32.5389   23.1055 H   0  0  0  0  0  0
  -25.0113  -33.9685   25.0391 H   0  0  0  0  0  0
  -22.7309  -31.2964   21.3884 H   0  0  0  0  0  0
  -23.3754  -35.9593   23.3305 H   0  0  0  0  0  0
  -24.3570  -36.8882   22.2047 H   0  0  0  0  0  0
  -23.7241  -37.6464   23.6663 H   0  0  0  0  0  0
  -26.1175  -31.5140   20.6019 H   0  0  0  0  0  0
  -26.8584  -30.8149   22.0084 H   0  0  0  0  0  0
  -28.1309  -28.9047   21.2047 H   0  0  0  0  0  0
  -25.9778  -25.8704   19.0264 H   0  0  0  0  0  0
  -23.9756  -27.2884   19.0136 H   0  0  0  0  0  0
  -23.7826  -30.5739   19.3991 H   0  0  0  0  0  0
  -22.7710  -29.2365   19.8518 H   0  0  0  0  0  0
  -25.1306  -36.1889   25.0809 H   0  0  0  0  0  0
  -21.0001  -28.3294   24.1378 H   0  0  0  0  0  0
  -20.5673  -26.2321   23.3620 H   0  0  0  0  0  0
  -21.6648  -26.7432   22.1206 H   0  0  0  0  0  0
  -19.6911  -25.6295   21.1247 H   0  0  0  0  0  0
  -19.6687  -27.3191   20.6739 H   0  0  0  0  0  0
  -17.4202  -26.6672   21.4034 H   0  0  0  0  0  0
  -18.0338  -26.0081   22.9030 H   0  0  0  0  0  0
  -19.7947  -30.7286   24.2248 H   0  0  0  0  0  0
  -17.5022  -31.6268   24.5165 H   0  0  0  0  0  0
  -15.5359  -30.2982   23.7665 H   0  0  0  0  0  0
  -15.8683  -28.0827   22.7064 H   0  0  0  0  0  0
  -24.5944  -30.7039   25.7767 H   0  0  0  0  0  0
  -24.8893  -32.2904   26.4792 H   0  0  0  0  0  0
  -25.8062  -30.8975   27.0232 H   0  0  0  0  0  0
  -26.2940  -29.6737   24.1212 H   0  0  0  0  0  0
  -27.4006  -29.7242   25.4733 H   0  0  0  0  0  0
  -27.8835  -30.4238   23.9464 H   0  0  0  0  0  0
  -27.2670  -33.3630   26.2043 H   0  0  0  0  0  0
  -28.3914  -32.6842   25.0364 H   0  0  0  0  0  0
  -28.0681  -31.8451   26.5459 H   0  0  0  0  0  0
  -28.2593  -38.0084   24.7509 H   0  0  0  0  0  0
  -28.1063  -36.2615   24.6304 H   0  0  0  0  0  0
  -27.2284  -37.1449   25.8867 H   0  0  0  0  0  0
  -20.9413  -29.8773   21.6846 H   0  0  0  0  0  0
  -26.0154  -38.2826   24.1422 H   0  0  0  0  0  0
  -28.0366  -24.3069   18.0207 H   0  0  0  0  0  0
  -28.4002  -22.0694   16.9551 H   0  0  0  0  0  0
  -28.7965  -18.1730   22.4411 H   0  0  0  0  0  0
  -27.3835  -18.1205   21.4081 H   0  0  0  0  0  0
  -27.8458  -15.8977   20.7736 H   0  0  0  0  0  0
  -28.6691  -15.8727   22.3296 H   0  0  0  0  0  0
  -30.8688  -17.4469   19.2708 H   0  0  0  0  0  0
  -31.2303  -17.6960   20.9657 H   0  0  0  0  0  0
  -28.6875  -18.5096   19.4398 H   0  0  0  0  0  0
  -28.6728  -24.9530   21.6816 H   0  0  0  0  0  0
  -27.0827  -24.8240   21.0287 H   0  0  0  0  0  0
  -29.7495  -20.1905   21.6630 H   0  0  0  0  0  0
  1 25  1  0  0  0
  1 30  2  0  0  0
  1 82  1  0  0  0
  2  3  1  0  0  0
  2 25  1  0  0  0
  2 84  1  0  0  0
  2 85  1  0  0  0
  3  4  1  0  0  0
  3 86  1  0  0  0
  3 87  1  0  0  0
  4  5  1  0  0  0
  4 88  1  0  0  0
  4 89  1  0  0  0
  5  6  1  0  0  0
  5 26  1  0  0  0
  5 90  1  0  0  0
  6 25  1  0  0  0
  6 91  1  0  0  0
  6 92  1  0  0  0
  7  8  2  0  0  0
  7 26  1  0  0  0
  7 29  1  0  0  0
  8  9  1  0  0  0
  8 22  1  0  0  0
  9 10  1  0  0  0
  9 27  2  0  0  0
 10 11  2  0  0  0
 10 15  1  0  0  0
 11 12  1  0  0  0
 11 93  1  0  0  0
 12 13  2  0  0  0
 12 94  1  0  0  0
 13 14  1  0  0  0
 13 31  1  0  0  0
 14 15  2  0  0  0
 14 95  1  0  0  0
 15 96  1  0  0  0
 16 17  2  0  0  0
 16 21  1  0  0  0
 16 31  1  0  0  0
 17 18  1  0  0  0
 17 97  1  0  0  0
 18 19  2  0  0  0
 18 98  1  0  0  0
 19 20  1  0  0  0
 19 24  1  0  0  0
 20 21  2  0  0  0
 20 99  1  0  0  0
 21 23  1  0  0  0
 22 28  1  0  0  0
 22 32  2  0  0  0
 26 27  1  0  0  0
 28100  1  0  0  0
 28101  1  0  0  0
 29102  1  0  0  0
 29103  1  0  0  0
 33 34  1  0  0  0
 33 66  1  0  0  0
 33 70  2  0  0  0
 34 36  1  0  0  0
 34 59  1  0  0  0
 34104  1  0  0  0
 35 44  2  0  0  0
 35 45  1  0  0  0
 35 68  1  0  0  0
 36 56  1  0  0  0
 36105  1  0  0  0
 37 39  1  0  0  0
 37 47  1  0  0  0
 37 66  1  0  0  0
 37106  1  0  0  0
 38 43  2  0  0  0
 38 46  1  0  0  0
 38 47  1  0  0  0
 39 64  1  0  0  0
 39 67  2  0  0  0
 40 52  1  0  0  0
 40 53  2  0  0  0
 40 58  1  0  0  0
 41107  1  0  0  0
 41108  1  0  0  0
 41109  1  0  0  0
 41 48  1  0  0  0
 42 43  1  0  0  0
 42 66  1  0  0  0
 42110  1  0  0  0
 42111  1  0  0  0
 43 44  1  0  0  0
 44112  1  0  0  0
 45 46  2  0  0  0
 45113  1  0  0  0
 46114  1  0  0  0
 47115  1  0  0  0
 47116  1  0  0  0
 48 56  1  0  0  0
 48 65  1  0  0  0
 48117  1  0  0  0
 49 50  1  0  0  0
 49 53  1  0  0  0
 49 64  1  0  0  0
 49118  1  0  0  0
 50 51  1  0  0  0
 50119  1  0  0  0
 50120  1  0  0  0
 51 52  1  0  0  0
 51121  1  0  0  0
 51122  1  0  0  0
 52123  1  0  0  0
 52124  1  0  0  0
 53 54  1  0  0  0
 54 55  2  0  0  0
 54125  1  0  0  0
 55 57  1  0  0  0
 55126  1  0  0  0
 56 69  2  0  0  0
 57 58  2  0  0  0
 57127  1  0  0  0
 58128  1  0  0  0
 59 60  1  0  0  0
 59 61  1  0  0  0
 59 62  1  0  0  0
 60129  1  0  0  0
 60130  1  0  0  0
 60131  1  0  0  0
 61132  1  0  0  0
 61133  1  0  0  0
 61134  1  0  0  0
 62135  1  0  0  0
 62136  1  0  0  0
 62137  1  0  0  0
 63 65  1  0  0  0
 63138  1  0  0  0
 63139  1  0  0  0
 63140  1  0  0  0
 64141  1  0  0  0
 65142  1  0  0  0
 68 79  1  0  0  0
 71 72  2  0  0  0
 71 73  1  0  0  0
 71143  1  0  0  0
 72 80  1  0  0  0
 72144  1  0  0  0
 73 79  1  0  0  0
 73 81  2  0  0  0
 74 80  2  0  0  0
 74 81  1  0  0  0
 74 83  1  0  0  0
 75 76  1  0  0  0
 75 78  1  0  0  0
 75145  1  0  0  0
 75146  1  0  0  0
 76 82  1  0  0  0
 76147  1  0  0  0
 76148  1  0  0  0
 77 78  1  0  0  0
 77 82  1  0  0  0
 77149  1  0  0  0
 77150  1  0  0  0
 78 83  1  0  0  0
 78151  1  0  0  0
 79152  1  0  0  0
 79153  1  0  0  0
 83154  1  0  0  0
M  ISO  4   1 100  68 101  79 101  82 100
M  END
> <chiral flag>
0

> <version>
0

> <s_m_source_file>
/data/baiqing/PycharmProjects/Reinvent-master-3.2/result/LINK_invent/BTK/process_docking_weight1_custom_sum_contain_oxygen_bond_distance_aromatic_linkinvent_7_9_3/rearranged_h_0179.sdf

> <i_m_source_file_index>
6

> <r_mmod_Potential_Energy-OPLS-2005>
-134.627014160156

> <r_mmod_Stretch_Energy-OPLS-2005>
140.012603759766

> <r_mmod_Bend_Energy-OPLS-2005>
221.567504882812

> <r_mmod_Torsional_Energy-OPLS-2005>
326.989532470703

> <r_mmod_Improper_Torsional_Energy-OPLS-2005>
9.87492370605469

> <r_mmod_Van_der_Waal_Energy-OPLS-2005>
140.179794311523

> <r_mmod_Electrostatic_Energy-OPLS-2005>
-838.7578125

> <r_mmod_Solvation_Energy-OPLS-2005>
-242.779968261719

> <b_mmod_Minimization_Converged-OPLS-2005>
0

> <r_mmod_RMS_Derivative-OPLS-2005>
1.0476952791214

$$$$
6
                    3D
 Structure written by MMmdl.
153161  0  0  1  0            999 V2000
  -30.2167  -16.0044   20.2478 C   0  0  0  0  0  0
  -30.3800  -13.3386   19.5721 C   0  0  0  0  0  0
  -29.5740  -12.7594   18.3668 C   0  0  0  0  0  0
  -28.1587  -12.3507   18.7880 C   0  0  0  0  0  0
  -27.5780  -13.3653   19.7947 C   0  0  2  0  0  0
  -28.5536  -13.8690   20.8969 C   0  0  0  0  0  0
  -25.2263  -13.8435   20.5804 C   0  0  0  0  0  0
  -24.1684  -13.0539   20.9256 C   0  0  0  0  0  0
  -24.6446  -11.7062   20.8678 C   0  0  0  0  0  0
  -23.9157  -10.4386   21.0334 C   0  0  0  0  0  0
  -24.3700   -9.4330   21.9142 C   0  0  0  0  0  0
  -23.6364   -8.2365   22.0753 C   0  0  0  0  0  0
  -22.4345   -8.0351   21.3545 C   0  0  0  0  0  0
  -21.9989   -9.0312   20.4613 C   0  0  0  0  0  0
  -22.7318  -10.2204   20.3001 C   0  0  0  0  0  0
  -21.6906   -6.0762   22.5251 C   0  0  0  0  0  0
  -21.4030   -6.5639   23.8185 C   0  0  0  0  0  0
  -21.3682   -5.6784   24.9140 C   0  0  0  0  0  0
  -21.6059   -4.3045   24.7179 C   0  0  0  0  0  0
  -21.8817   -3.8158   23.4283 C   0  0  0  0  0  0
  -21.9213   -4.6988   22.3353 C   0  0  0  0  0  0
  -22.7678  -13.5228   21.1851 C   0  0  0  0  0  0
  -22.1687   -4.2185   21.0929 F   0  0  0  0  0  0
  -21.5676   -3.4503   25.7682 F   0  0  0  0  0  0
  -29.6884  -14.5850   20.2316 N   0  0  0  0  0  0
  -26.2721  -12.9852   20.3130 N   0  0  0  0  0  0
  -25.9405  -11.6873   20.5552 N   0  0  0  0  0  0
  -22.0328  -12.8229   22.0400 N   0  0  0  0  0  0
  -25.3899  -15.2180   20.4314 N   0  0  0  0  0  0
  -31.4381  -15.7625   20.0676 O   0  0  0  0  0  0
  -21.6718   -6.8940   21.4230 O   0  0  0  0  0  0
  -22.3333  -14.5501   20.6641 O   0  0  0  0  0  0
  -24.7031  -31.7738   23.1316 C   0  0  0  0  0  0
  -25.9522  -32.4348   23.7934 C   0  0  1  0  0  0
  -27.2300  -26.4572   20.2146 C   0  0  0  0  0  0
  -25.6007  -33.8180   24.1821 N   0  0  0  0  0  0
  -23.5436  -30.3647   21.4908 C   0  0  2  0  0  0
  -25.0086  -28.6602   20.1156 C   0  0  0  0  0  0
  -22.7861  -29.4180   22.4619 C   0  0  0  0  0  0
  -18.0363  -28.1480   22.8432 C   0  0  0  0  0  0
  -24.1501  -36.7076   23.2666 C   0  0  0  0  0  0
  -26.1357  -30.4245   21.4376 C   0  0  0  0  0  0
  -26.1990  -28.9656   20.7808 C   0  0  0  0  0  0
  -27.2831  -27.8975   20.7912 C   0  0  0  0  0  0
  -26.0073  -26.4315   19.4846 C   0  0  0  0  0  0
  -24.9669  -27.4245   19.4407 C   0  0  0  0  0  0
  -23.8153  -29.6449   20.1344 C   0  0  0  0  0  0
  -25.4173  -36.2815   24.0262 C   0  0  1  0  0  0
  -20.5992  -28.3844   23.1089 C   0  0  2  0  0  0
  -20.6803  -26.9481   22.5408 C   0  0  0  0  0  0
  -19.5799  -26.6381   21.5215 C   0  0  0  0  0  0
  -18.1974  -26.7986   22.1594 C   0  0  0  0  0  0
  -19.1634  -28.8980   23.2732 C   0  0  0  0  0  0
  -18.9527  -30.1560   23.8805 C   0  0  0  0  0  0
  -17.6517  -30.6626   24.0561 C   0  0  0  0  0  0
  -25.9173  -34.9214   23.4908 C   0  0  0  0  0  0
  -16.5411  -29.9119   23.6365 C   0  0  0  0  0  0
  -16.7333  -28.6548   23.0347 C   0  0  0  0  0  0
  -26.4638  -31.6462   25.0648 C   0  0  0  0  0  0
  -25.3613  -31.3875   26.1188 C   0  0  0  0  0  0
  -27.0626  -30.2761   24.6779 C   0  0  0  0  0  0
  -27.6061  -32.4361   25.7479 C   0  0  0  0  0  0
  -27.5568  -37.1700   24.8466 C   0  0  0  0  0  0
  -21.4482  -29.3040   22.3381 N   0  0  0  0  0  0
  -26.4274  -37.3598   23.9417 N   0  0  0  0  0  0
  -24.8195  -30.8927   22.0734 N   0  0  0  0  0  0
  -23.4176  -28.7780   23.3059 O   0  0  0  0  0  0
  -28.1452  -25.1146   20.3208 O   0  0  0  0  0  0
  -26.5833  -34.8835   22.4534 O   0  0  0  0  0  0
  -23.5993  -32.0951   23.6117 O   0  0  0  0  0  0
  -30.2623  -19.1143   19.0144 C   0  0  0  0  0  0
  -30.8762  -18.4414   20.2671 C   0  0  0  0  0  0
  -29.0592  -19.3126   19.8800 C   0  0  2  0  0  0
  -30.9849  -22.4082   20.9185 C   0  0  0  0  0  0
  -29.5096  -21.8459   22.8314 C   0  0  0  0  0  0
  -28.1596  -23.2499   19.9619 C   0  0  0  0  0  0
  -28.7893  -21.3107   20.5119 C   0  0  2  0  0  0
  -29.6601  -17.5766   20.4168 N   0  0  0  0  0  0
  -29.9261  -21.5139   21.4464 N   0  3  0  0  0  0
  -31.3767  -13.5815   19.2042 H   0  0  0  0  0  0
  -30.5702  -12.5529   20.3063 H   0  0  0  0  0  0
  -30.1046  -11.9110   17.9312 H   0  0  0  0  0  0
  -29.5159  -13.5208   17.5846 H   0  0  0  0  0  0
  -28.2028  -11.3587   19.2384 H   0  0  0  0  0  0
  -27.5192  -12.2708   17.9080 H   0  0  0  0  0  0
  -27.3911  -14.2416   19.1721 H   0  0  0  0  0  0
  -28.8758  -13.0642   21.5594 H   0  0  0  0  0  0
  -28.0308  -14.5829   21.5325 H   0  0  0  0  0  0
  -25.2849   -9.5856   22.4691 H   0  0  0  0  0  0
  -24.0094   -7.4784   22.7497 H   0  0  0  0  0  0
  -21.0940   -8.8784   19.8892 H   0  0  0  0  0  0
  -22.3755  -10.9703   19.6089 H   0  0  0  0  0  0
  -21.1996   -7.6152   23.9674 H   0  0  0  0  0  0
  -21.1533   -6.0517   25.9035 H   0  0  0  0  0  0
  -22.0573   -2.7625   23.2747 H   0  0  0  0  0  0
  -22.3997  -11.9985   22.4916 H   0  0  0  0  0  0
  -21.0867  -13.1169   22.2381 H   0  0  0  0  0  0
  -24.6345  -15.8807   20.5730 H   0  0  0  0  0  0
  -26.2485  -15.6535   20.1160 H   0  0  0  0  0  0
  -26.7627  -32.4777   23.0646 H   0  0  0  0  0  0
  -24.9984  -33.9195   24.9870 H   0  0  0  0  0  0
  -22.8829  -31.2089   21.2780 H   0  0  0  0  0  0
  -23.3800  -35.9358   23.3236 H   0  0  0  0  0  0
  -24.3558  -36.8838   22.2094 H   0  0  0  0  0  0
  -23.7194  -37.6202   23.6818 H   0  0  0  0  0  0
  -26.3721  -31.1469   20.6541 H   0  0  0  0  0  0
  -26.9729  -30.4976   22.1179 H   0  0  0  0  0  0
  -28.1719  -28.1477   21.3530 H   0  0  0  0  0  0
  -25.7926  -25.5106   18.9621 H   0  0  0  0  0  0
  -24.0775  -27.1860   18.8778 H   0  0  0  0  0  0
  -24.0086  -30.4013   19.3740 H   0  0  0  0  0  0
  -22.9172  -29.1248   19.8016 H   0  0  0  0  0  0
  -25.1383  -36.1554   25.0742 H   0  0  0  0  0  0
  -21.0076  -28.3507   24.1214 H   0  0  0  0  0  0
  -20.5646  -26.2477   23.3699 H   0  0  0  0  0  0
  -21.6650  -26.7383   22.1245 H   0  0  0  0  0  0
  -19.6954  -25.6255   21.1340 H   0  0  0  0  0  0
  -19.6766  -27.3113   20.6688 H   0  0  0  0  0  0
  -17.4238  -26.6723   21.4016 H   0  0  0  0  0  0
  -18.0369  -26.0189   22.9042 H   0  0  0  0  0  0
  -19.8003  -30.7416   24.2105 H   0  0  0  0  0  0
  -17.5070  -31.6298   24.5199 H   0  0  0  0  0  0
  -15.5419  -30.2998   23.7771 H   0  0  0  0  0  0
  -15.8705  -28.0879   22.7092 H   0  0  0  0  0  0
  -24.5839  -30.7218   25.7436 H   0  0  0  0  0  0
  -24.8759  -32.3124   26.4313 H   0  0  0  0  0  0
  -25.7654  -30.9195   27.0161 H   0  0  0  0  0  0
  -26.3409  -29.6255   24.1830 H   0  0  0  0  0  0
  -27.3986  -29.7373   25.5654 H   0  0  0  0  0  0
  -27.9396  -30.3823   24.0389 H   0  0  0  0  0  0
  -27.2621  -33.3783   26.1751 H   0  0  0  0  0  0
  -28.4004  -32.6708   25.0385 H   0  0  0  0  0  0
  -28.0558  -31.8674   26.5633 H   0  0  0  0  0  0
  -28.2518  -38.0066   24.7523 H   0  0  0  0  0  0
  -28.1114  -36.2562   24.6256 H   0  0  0  0  0  0
  -27.2264  -37.1267   25.8864 H   0  0  0  0  0  0
  -20.9826  -29.8680   21.6396 H   0  0  0  0  0  0
  -26.0074  -38.2630   24.1426 H   0  0  0  0  0  0
  -30.0963  -18.4315   18.1770 H   0  0  0  0  0  0
  -30.7592  -20.0232   18.6749 H   0  0  0  0  0  0
  -31.0648  -19.1003   21.1186 H   0  0  0  0  0  0
  -31.8351  -18.0038   19.9985 H   0  0  0  0  0  0
  -28.1761  -19.1290   19.2636 H   0  0  0  0  0  0
  -31.8356  -22.4533   21.5981 H   0  0  0  0  0  0
  -30.6345  -23.4304   20.7840 H   0  0  0  0  0  0
  -31.3549  -22.0499   19.9567 H   0  0  0  0  0  0
  -30.3712  -21.9203   23.4971 H   0  0  0  0  0  0
  -28.8737  -21.0550   23.2329 H   0  0  0  0  0  0
  -28.9531  -22.7836   22.8704 H   0  0  0  0  0  0
  -27.0942  -23.0882   19.7948 H   0  0  0  0  0  0
  -28.5600  -23.2930   18.9497 H   0  0  0  0  0  0
  -27.9328  -21.1335   21.1605 H   0  0  0  0  0  0
  -30.3626  -20.6087   21.5280 H   0  0  0  0  0  0
  1 25  1  0  0  0
  1 30  2  0  0  0
  1 78  1  0  0  0
  2  3  1  0  0  0
  2 25  1  0  0  0
  2 80  1  0  0  0
  2 81  1  0  0  0
  3  4  1  0  0  0
  3 82  1  0  0  0
  3 83  1  0  0  0
  4  5  1  0  0  0
  4 84  1  0  0  0
  4 85  1  0  0  0
  5  6  1  0  0  0
  5 26  1  0  0  0
  5 86  1  0  0  0
  6 25  1  0  0  0
  6 87  1  0  0  0
  6 88  1  0  0  0
  7  8  2  0  0  0
  7 26  1  0  0  0
  7 29  1  0  0  0
  8  9  1  0  0  0
  8 22  1  0  0  0
  9 10  1  0  0  0
  9 27  2  0  0  0
 10 11  2  0  0  0
 10 15  1  0  0  0
 11 12  1  0  0  0
 11 89  1  0  0  0
 12 13  2  0  0  0
 12 90  1  0  0  0
 13 14  1  0  0  0
 13 31  1  0  0  0
 14 15  2  0  0  0
 14 91  1  0  0  0
 15 92  1  0  0  0
 16 17  2  0  0  0
 16 21  1  0  0  0
 16 31  1  0  0  0
 17 18  1  0  0  0
 17 93  1  0  0  0
 18 19  2  0  0  0
 18 94  1  0  0  0
 19 20  1  0  0  0
 19 24  1  0  0  0
 20 21  2  0  0  0
 20 95  1  0  0  0
 21 23  1  0  0  0
 22 28  1  0  0  0
 22 32  2  0  0  0
 26 27  1  0  0  0
 28 96  1  0  0  0
 28 97  1  0  0  0
 29 98  1  0  0  0
 29 99  1  0  0  0
 33 34  1  0  0  0
 33 66  1  0  0  0
 33 70  2  0  0  0
 34 36  1  0  0  0
 34 59  1  0  0  0
 34100  1  0  0  0
 35 44  2  0  0  0
 35 45  1  0  0  0
 35 68  1  0  0  0
 36 56  1  0  0  0
 36101  1  0  0  0
 37 39  1  0  0  0
 37 47  1  0  0  0
 37 66  1  0  0  0
 37102  1  0  0  0
 38 43  2  0  0  0
 38 46  1  0  0  0
 38 47  1  0  0  0
 39 64  1  0  0  0
 39 67  2  0  0  0
 40 52  1  0  0  0
 40 53  2  0  0  0
 40 58  1  0  0  0
 41103  1  0  0  0
 41104  1  0  0  0
 41105  1  0  0  0
 41 48  1  0  0  0
 42 43  1  0  0  0
 42 66  1  0  0  0
 42106  1  0  0  0
 42107  1  0  0  0
 43 44  1  0  0  0
 44108  1  0  0  0
 45 46  2  0  0  0
 45109  1  0  0  0
 46110  1  0  0  0
 47111  1  0  0  0
 47112  1  0  0  0
 48 56  1  0  0  0
 48 65  1  0  0  0
 48113  1  0  0  0
 49 50  1  0  0  0
 49 53  1  0  0  0
 49 64  1  0  0  0
 49114  1  0  0  0
 50 51  1  0  0  0
 50115  1  0  0  0
 50116  1  0  0  0
 51 52  1  0  0  0
 51117  1  0  0  0
 51118  1  0  0  0
 52119  1  0  0  0
 52120  1  0  0  0
 53 54  1  0  0  0
 54 55  2  0  0  0
 54121  1  0  0  0
 55 57  1  0  0  0
 55122  1  0  0  0
 56 69  2  0  0  0
 57 58  2  0  0  0
 57123  1  0  0  0
 58124  1  0  0  0
 59 60  1  0  0  0
 59 61  1  0  0  0
 59 62  1  0  0  0
 60125  1  0  0  0
 60126  1  0  0  0
 60127  1  0  0  0
 61128  1  0  0  0
 61129  1  0  0  0
 61130  1  0  0  0
 62131  1  0  0  0
 62132  1  0  0  0
 62133  1  0  0  0
 63 65  1  0  0  0
 63134  1  0  0  0
 63135  1  0  0  0
 63136  1  0  0  0
 64137  1  0  0  0
 65138  1  0  0  0
 68 76  1  0  0  0
 71 72  1  0  0  0
 71139  1  0  0  0
 71140  1  0  0  0
 71 73  1  0  0  0
 72 78  1  0  0  0
 72141  1  0  0  0
 72142  1  0  0  0
 73 77  1  0  0  0
 73 78  1  0  0  0
 73143  1  0  0  0
 74144  1  0  0  0
 74145  1  0  0  0
 74146  1  0  0  0
 74 79  1  0  0  0
 75 79  1  0  0  0
 75147  1  0  0  0
 75148  1  0  0  0
 75149  1  0  0  0
 76150  1  0  0  0
 76151  1  0  0  0
 76 77  1  0  0  0
 77 79  1  0  0  0
 77152  1  0  0  0
 79153  1  0  0  0
M  CHG  1  79   1
M  ISO  4   1 100  68 101  76 101  78 100
M  END
> <chiral flag>
0

> <version>
0

> <s_m_source_file>
/data/baiqing/PycharmProjects/Reinvent-master-3.2/result/LINK_invent/BTK/process_docking_weight1_custom_sum_contain_oxygen_bond_distance_aromatic_linkinvent_7_9_3/rearranged_h_0179.sdf

> <i_m_source_file_index>
7

> <r_mmod_Potential_Energy-OPLS-2005>
4343.6162109375

> <r_mmod_Stretch_Energy-OPLS-2005>
1991.74060058594

> <r_mmod_Bend_Energy-OPLS-2005>
992.903747558594

> <r_mmod_Torsional_Energy-OPLS-2005>
338.432922363281

> <r_mmod_Improper_Torsional_Energy-OPLS-2005>
9.77852630615234

> <r_mmod_Van_der_Waal_Energy-OPLS-2005>
135.488143920898

> <r_mmod_Electrostatic_Energy-OPLS-2005>
-173.098587036133

> <r_mmod_Solvation_Energy-OPLS-2005>
-448.506622314453

> <b_mmod_Minimization_Converged-OPLS-2005>
0

> <r_mmod_RMS_Derivative-OPLS-2005>
5.13471555709839

$$$$
7
                    3D
 Structure written by MMmdl.
161170  0  0  1  0            999 V2000
  -30.7018  -14.6241   20.4790 C   0  0  0  0  0  0
  -30.4216  -12.3859   19.4470 C   0  0  0  0  0  0
  -29.4959  -12.4899   18.2178 C   0  0  0  0  0  0
  -28.0238  -12.3256   18.6403 C   0  0  0  0  0  0
  -27.6435  -13.2138   19.8547 C   0  0  2  0  0  0
  -28.6988  -13.1408   20.9816 C   0  0  0  0  0  0
  -25.2543  -13.8142   20.5728 C   0  0  0  0  0  0
  -24.1808  -13.0418   20.9215 C   0  0  0  0  0  0
  -24.6381  -11.6890   20.8770 C   0  0  0  0  0  0
  -23.9048  -10.4278   21.0418 C   0  0  0  0  0  0
  -24.3602   -9.4195   21.9191 C   0  0  0  0  0  0
  -23.6281   -8.2231   22.0751 C   0  0  0  0  0  0
  -22.4259   -8.0268   21.3542 C   0  0  0  0  0  0
  -21.9898   -9.0243   20.4652 C   0  0  0  0  0  0
  -22.7222  -10.2124   20.3062 C   0  0  0  0  0  0
  -21.6848   -6.0729   22.5277 C   0  0  0  0  0  0
  -21.4016   -6.5635   23.8211 C   0  0  0  0  0  0
  -21.3665   -5.6782   24.9170 C   0  0  0  0  0  0
  -21.6038   -4.3041   24.7224 C   0  0  0  0  0  0
  -21.8820   -3.8145   23.4342 C   0  0  0  0  0  0
  -21.9197   -4.6959   22.3397 C   0  0  0  0  0  0
  -22.7835  -13.5229   21.1858 C   0  0  0  0  0  0
  -22.1660   -4.2143   21.0973 F   0  0  0  0  0  0
  -21.5635   -3.4530   25.7748 F   0  0  0  0  0  0
  -30.0106  -13.4430   20.3919 N   0  0  0  0  0  0
  -26.2953  -12.9317   20.3347 N   0  0  0  0  0  0
  -25.9309  -11.6476   20.5795 N   0  0  0  0  0  0
  -22.0458  -12.8234   22.0410 N   0  0  0  0  0  0
  -25.4279  -15.1865   20.4153 N   0  0  0  0  0  0
  -31.8908  -14.6929   20.1612 O   0  0  0  0  0  0
  -21.6623   -6.8866   21.4235 O   0  0  0  0  0  0
  -22.3539  -14.5547   20.6714 O   0  0  0  0  0  0
  -24.6247  -31.8624   23.2066 C   0  0  0  0  0  0
  -25.9104  -32.4792   23.8379 C   0  0  1  0  0  0
  -27.2205  -27.3337   20.1070 C   0  0  0  0  0  0
  -25.5932  -33.8598   24.2301 N   0  0  0  0  0  0
  -23.4173  -30.4892   21.5497 C   0  0  2  0  0  0
  -24.8628  -28.9562   20.1079 C   0  0  0  0  0  0
  -22.7474  -29.4635   22.4948 C   0  0  0  0  0  0
  -18.0288  -28.1380   22.8484 C   0  0  0  0  0  0
  -24.1494  -36.7304   23.2637 C   0  0  0  0  0  0
  -25.9594  -30.7971   21.3789 C   0  0  0  0  0  0
  -26.0324  -29.4282   20.7166 C   0  0  0  0  0  0
  -27.2131  -28.6279   20.7114 C   0  0  0  0  0  0
  -26.0276  -26.9293   19.4544 C   0  0  0  0  0  0
  -24.8621  -27.7111   19.4683 C   0  0  0  0  0  0
  -23.6303  -29.8326   20.1623 C   0  0  0  0  0  0
  -25.4117  -36.3095   24.0330 C   0  0  1  0  0  0
  -20.5887  -28.3686   23.1291 C   0  0  2  0  0  0
  -20.6777  -26.9411   22.5416 C   0  0  0  0  0  0
  -19.5756  -26.6380   21.5215 C   0  0  0  0  0  0
  -18.1932  -26.7926   22.1615 C   0  0  0  0  0  0
  -19.1538  -28.8851   23.2881 C   0  0  0  0  0  0
  -18.9460  -30.1452   23.8896 C   0  0  0  0  0  0
  -17.6459  -30.6585   24.0562 C   0  0  0  0  0  0
  -25.9051  -34.9460   23.5112 C   0  0  0  0  0  0
  -16.5351  -29.9081   23.6330 C   0  0  0  0  0  0
  -16.7273  -28.6498   23.0351 C   0  0  0  0  0  0
  -26.4495  -31.6598   25.0741 C   0  0  0  0  0  0
  -25.3739  -31.3738   26.1478 C   0  0  0  0  0  0
  -27.0327  -30.3018   24.6186 C   0  0  0  0  0  0
  -27.6057  -32.4334   25.7502 C   0  0  0  0  0  0
  -27.5586  -37.1805   24.8463 C   0  0  0  0  0  0
  -21.4191  -29.3039   22.3690 N   0  0  0  0  0  0
  -26.4296  -37.3785   23.9406 N   0  0  0  0  0  0
  -24.6859  -31.0653   22.1017 N   0  0  0  0  0  0
  -23.4206  -28.8164   23.3016 O   0  0  0  0  0  0
  -28.3259  -26.4676   20.1866 O   0  0  0  0  0  0
  -26.5611  -34.8917   22.4674 O   0  0  0  0  0  0
  -23.5413  -32.1421   23.7405 O   0  0  0  0  0  0
  -28.8630  -22.5713   19.8160 C   0  0  0  0  0  0
  -29.6699  -21.5204   20.3295 C   0  0  0  0  0  0
  -28.9960  -23.8863   20.3435 C   0  0  0  0  0  0
  -30.5908  -23.0565   21.7783 C   0  0  0  0  0  0
  -30.4805  -16.7783   21.7067 C   0  0  0  0  0  0
  -29.4921  -16.5085   19.5047 C   0  0  0  0  0  0
  -30.6630  -18.2723   21.2178 C   0  0  0  0  0  0
  -28.6789  -17.7986   19.8458 C   0  0  0  0  0  0
  -31.5827  -23.3322   22.8882 C   0  0  0  0  0  0
  -29.7301  -20.0971   19.6873 C   0  0  0  0  0  0
  -28.0641  -25.0470   19.8685 C   0  0  0  0  0  0
  -30.5230  -21.7963   21.3356 N   0  0  0  0  0  0
  -29.8823  -24.1001   21.3384 N   0  0  0  0  0  0
  -30.0016  -15.7898   20.6954 N   0  0  0  0  0  0
  -29.4675  -18.8684   20.5383 N   0  3  0  0  0  0
  -31.4648  -12.4798   19.1402 H   0  0  0  0  0  0
  -30.3329  -11.4039   19.9137 H   0  0  0  0  0  0
  -29.7616  -11.7296   17.4808 H   0  0  0  0  0  0
  -29.6343  -13.4532   17.7248 H   0  0  0  0  0  0
  -27.8720  -11.2751   18.8919 H   0  0  0  0  0  0
  -27.3642  -12.5354   17.7971 H   0  0  0  0  0  0
  -27.6274  -14.2325   19.4823 H   0  0  0  0  0  0
  -28.7101  -12.1511   21.4406 H   0  0  0  0  0  0
  -28.4551  -13.8465   21.7776 H   0  0  0  0  0  0
  -25.2746   -9.5675   22.4764 H   0  0  0  0  0  0
  -24.0001   -7.4627   22.7463 H   0  0  0  0  0  0
  -21.0832   -8.8759   19.8960 H   0  0  0  0  0  0
  -22.3681  -10.9664   19.6176 H   0  0  0  0  0  0
  -21.1993   -7.6145   23.9712 H   0  0  0  0  0  0
  -21.1492   -6.0508   25.9070 H   0  0  0  0  0  0
  -22.0602   -2.7611   23.2833 H   0  0  0  0  0  0
  -22.4059  -11.9897   22.4806 H   0  0  0  0  0  0
  -21.1085  -13.1293   22.2602 H   0  0  0  0  0  0
  -24.6630  -15.8434   20.5236 H   0  0  0  0  0  0
  -26.2837  -15.6185   20.0963 H   0  0  0  0  0  0
  -26.7168  -32.5465   23.1123 H   0  0  0  0  0  0
  -25.0090  -33.9749   25.0453 H   0  0  0  0  0  0
  -22.7092  -31.3092   21.4123 H   0  0  0  0  0  0
  -23.3750  -35.9642   23.3308 H   0  0  0  0  0  0
  -24.3584  -36.8915   22.2050 H   0  0  0  0  0  0
  -23.7249  -37.6512   23.6651 H   0  0  0  0  0  0
  -26.0925  -31.5643   20.6149 H   0  0  0  0  0  0
  -26.8390  -30.8406   22.0096 H   0  0  0  0  0  0
  -28.1061  -28.9848   21.2050 H   0  0  0  0  0  0
  -25.9476  -25.9903   18.9284 H   0  0  0  0  0  0
  -23.9683  -27.3491   18.9789 H   0  0  0  0  0  0
  -23.7469  -30.6127   19.4091 H   0  0  0  0  0  0
  -22.7506  -29.2614   19.8600 H   0  0  0  0  0  0
  -25.1293  -36.1954   25.0823 H   0  0  0  0  0  0
  -20.9967  -28.3258   24.1417 H   0  0  0  0  0  0
  -20.5681  -26.2298   23.3616 H   0  0  0  0  0  0
  -21.6648  -26.7445   22.1214 H   0  0  0  0  0  0
  -19.6921  -25.6291   21.1250 H   0  0  0  0  0  0
  -19.6697  -27.3189   20.6745 H   0  0  0  0  0  0
  -17.4210  -26.6685   21.4007 H   0  0  0  0  0  0
  -18.0316  -26.0064   22.9005 H   0  0  0  0  0  0
  -19.7936  -30.7268   24.2264 H   0  0  0  0  0  0
  -17.5015  -31.6264   24.5166 H   0  0  0  0  0  0
  -15.5351  -30.2981   23.7655 H   0  0  0  0  0  0
  -15.8672  -28.0814   22.7067 H   0  0  0  0  0  0
  -24.5900  -30.7097   25.7818 H   0  0  0  0  0  0
  -24.8946  -32.2909   26.4916 H   0  0  0  0  0  0
  -25.8074  -30.8909   27.0245 H   0  0  0  0  0  0
  -26.2890  -29.6777   24.1214 H   0  0  0  0  0  0
  -27.4026  -29.7265   25.4683 H   0  0  0  0  0  0
  -27.8766  -30.4296   23.9403 H   0  0  0  0  0  0
  -27.2659  -33.3622   26.2096 H   0  0  0  0  0  0
  -28.3850  -32.6921   25.0321 H   0  0  0  0  0  0
  -28.0748  -31.8457   26.5403 H   0  0  0  0  0  0
  -28.2608  -38.0098   24.7505 H   0  0  0  0  0  0
  -28.1074  -36.2628   24.6290 H   0  0  0  0  0  0
  -27.2304  -37.1463   25.8867 H   0  0  0  0  0  0
  -20.9371  -29.8771   21.6905 H   0  0  0  0  0  0
  -26.0184  -38.2863   24.1403 H   0  0  0  0  0  0
  -28.1654  -22.3857   19.0091 H   0  0  0  0  0  0
  -29.7652  -16.7619   22.5293 H   0  0  0  0  0  0
  -31.4228  -16.4456   22.1456 H   0  0  0  0  0  0
  -30.3288  -16.7683   18.8533 H   0  0  0  0  0  0
  -28.8710  -15.8500   18.9028 H   0  0  0  0  0  0
  -31.5091  -18.2953   20.5304 H   0  0  0  0  0  0
  -30.9442  -18.9104   22.0571 H   0  0  0  0  0  0
  -27.8607  -17.5193   20.5108 H   0  0  0  0  0  0
  -28.1895  -18.1683   18.9450 H   0  0  0  0  0  0
  -32.1562  -22.4401   23.1417 H   0  0  0  0  0  0
  -31.0647  -23.6668   23.7864 H   0  0  0  0  0  0
  -32.2871  -24.1077   22.5873 H   0  0  0  0  0  0
  -30.6869  -19.9898   19.1763 H   0  0  0  0  0  0
  -28.9981  -20.1312   18.8822 H   0  0  0  0  0  0
  -27.1045  -24.7603   20.3009 H   0  0  0  0  0  0
  -27.9707  -24.9571   18.7854 H   0  0  0  0  0  0
  -28.8631  -19.2217   21.2651 H   0  0  0  0  0  0
  1 25  1  0  0  0
  1 30  2  0  0  0
  1 84  1  0  0  0
  2  3  1  0  0  0
  2 25  1  0  0  0
  2 86  1  0  0  0
  2 87  1  0  0  0
  3  4  1  0  0  0
  3 88  1  0  0  0
  3 89  1  0  0  0
  4  5  1  0  0  0
  4 90  1  0  0  0
  4 91  1  0  0  0
  5  6  1  0  0  0
  5 26  1  0  0  0
  5 92  1  0  0  0
  6 25  1  0  0  0
  6 93  1  0  0  0
  6 94  1  0  0  0
  7  8  2  0  0  0
  7 26  1  0  0  0
  7 29  1  0  0  0
  8  9  1  0  0  0
  8 22  1  0  0  0
  9 10  1  0  0  0
  9 27  2  0  0  0
 10 11  2  0  0  0
 10 15  1  0  0  0
 11 12  1  0  0  0
 11 95  1  0  0  0
 12 13  2  0  0  0
 12 96  1  0  0  0
 13 14  1  0  0  0
 13 31  1  0  0  0
 14 15  2  0  0  0
 14 97  1  0  0  0
 15 98  1  0  0  0
 16 17  2  0  0  0
 16 21  1  0  0  0
 16 31  1  0  0  0
 17 18  1  0  0  0
 17 99  1  0  0  0
 18 19  2  0  0  0
 18100  1  0  0  0
 19 20  1  0  0  0
 19 24  1  0  0  0
 20 21  2  0  0  0
 20101  1  0  0  0
 21 23  1  0  0  0
 22 28  1  0  0  0
 22 32  2  0  0  0
 26 27  1  0  0  0
 28102  1  0  0  0
 28103  1  0  0  0
 29104  1  0  0  0
 29105  1  0  0  0
 33 34  1  0  0  0
 33 66  1  0  0  0
 33 70  2  0  0  0
 34 36  1  0  0  0
 34 59  1  0  0  0
 34106  1  0  0  0
 35 44  2  0  0  0
 35 45  1  0  0  0
 35 68  1  0  0  0
 36 56  1  0  0  0
 36107  1  0  0  0
 37 39  1  0  0  0
 37 47  1  0  0  0
 37 66  1  0  0  0
 37108  1  0  0  0
 38 43  2  0  0  0
 38 46  1  0  0  0
 38 47  1  0  0  0
 39 64  1  0  0  0
 39 67  2  0  0  0
 40 52  1  0  0  0
 40 53  2  0  0  0
 40 58  1  0  0  0
 41109  1  0  0  0
 41110  1  0  0  0
 41111  1  0  0  0
 41 48  1  0  0  0
 42 43  1  0  0  0
 42 66  1  0  0  0
 42112  1  0  0  0
 42113  1  0  0  0
 43 44  1  0  0  0
 44114  1  0  0  0
 45 46  2  0  0  0
 45115  1  0  0  0
 46116  1  0  0  0
 47117  1  0  0  0
 47118  1  0  0  0
 48 56  1  0  0  0
 48 65  1  0  0  0
 48119  1  0  0  0
 49 50  1  0  0  0
 49 53  1  0  0  0
 49 64  1  0  0  0
 49120  1  0  0  0
 50 51  1  0  0  0
 50121  1  0  0  0
 50122  1  0  0  0
 51 52  1  0  0  0
 51123  1  0  0  0
 51124  1  0  0  0
 52125  1  0  0  0
 52126  1  0  0  0
 53 54  1  0  0  0
 54 55  2  0  0  0
 54127  1  0  0  0
 55 57  1  0  0  0
 55128  1  0  0  0
 56 69  2  0  0  0
 57 58  2  0  0  0
 57129  1  0  0  0
 58130  1  0  0  0
 59 60  1  0  0  0
 59 61  1  0  0  0
 59 62  1  0  0  0
 60131  1  0  0  0
 60132  1  0  0  0
 60133  1  0  0  0
 61134  1  0  0  0
 61135  1  0  0  0
 61136  1  0  0  0
 62137  1  0  0  0
 62138  1  0  0  0
 62139  1  0  0  0
 63 65  1  0  0  0
 63140  1  0  0  0
 63141  1  0  0  0
 63142  1  0  0  0
 64143  1  0  0  0
 65144  1  0  0  0
 68 81  1  0  0  0
 71 72  2  0  0  0
 71 73  1  0  0  0
 71145  1  0  0  0
 72 80  1  0  0  0
 72 82  1  0  0  0
 73 81  1  0  0  0
 73 83  2  0  0  0
 74 79  1  0  0  0
 74 82  2  0  0  0
 74 83  1  0  0  0
 75 77  1  0  0  0
 75 84  1  0  0  0
 75146  1  0  0  0
 75147  1  0  0  0
 76 78  1  0  0  0
 76 84  1  0  0  0
 76148  1  0  0  0
 76149  1  0  0  0
 77 85  1  0  0  0
 77150  1  0  0  0
 77151  1  0  0  0
 78 85  1  0  0  0
 78152  1  0  0  0
 78153  1  0  0  0
 79154  1  0  0  0
 79155  1  0  0  0
 79156  1  0  0  0
 80157  1  0  0  0
 80158  1  0  0  0
 80 85  1  0  0  0
 81159  1  0  0  0
 81160  1  0  0  0
 85161  1  0  0  0
M  CHG  1  85   1
M  ISO  4   1 100  68 101  81 101  84 100
M  END
> <chiral flag>
0

> <version>
0

> <s_m_source_file>
/data/baiqing/PycharmProjects/Reinvent-master-3.2/result/LINK_invent/BTK/process_docking_weight1_custom_sum_contain_oxygen_bond_distance_aromatic_linkinvent_7_9_3/rearranged_h_0179.sdf

> <i_m_source_file_index>
8

> <r_mmod_Potential_Energy-OPLS-2005>
-327.876800537109

> <r_mmod_Stretch_Energy-OPLS-2005>
71.7117691040039

> <r_mmod_Bend_Energy-OPLS-2005>
144.898056030273

> <r_mmod_Torsional_Energy-OPLS-2005>
395.342407226562

> <r_mmod_Improper_Torsional_Energy-OPLS-2005>
9.4833812713623

> <r_mmod_Van_der_Waal_Energy-OPLS-2005>
170.064422607422

> <r_mmod_Electrostatic_Energy-OPLS-2005>
-690.801025390625

> <r_mmod_Solvation_Energy-OPLS-2005>
-479.623931884766

> <b_mmod_Minimization_Converged-OPLS-2005>
0

> <r_mmod_RMS_Derivative-OPLS-2005>
1.49051856994629

$$$$
8
                    3D
 Structure written by MMmdl.
167176  0  0  1  0            999 V2000
  -30.4005  -15.4599   20.3161 C   0  0  0  0  0  0
  -30.4246  -12.9359   19.5498 C   0  0  0  0  0  0
  -29.5429  -12.6319   18.3099 C   0  0  0  0  0  0
  -28.1024  -12.3100   18.7370 C   0  0  0  0  0  0
  -27.6002  -13.2953   19.8178 C   0  0  2  0  0  0
  -28.6262  -13.5519   20.9435 C   0  0  0  0  0  0
  -25.2252  -13.8186   20.5604 C   0  0  0  0  0  0
  -24.1677  -13.0353   20.9219 C   0  0  0  0  0  0
  -24.6392  -11.6894   20.8747 C   0  0  0  0  0  0
  -23.9111  -10.4255   21.0391 C   0  0  0  0  0  0
  -24.3666   -9.4177   21.9177 C   0  0  0  0  0  0
  -23.6324   -8.2211   22.0750 C   0  0  0  0  0  0
  -22.4301   -8.0263   21.3533 C   0  0  0  0  0  0
  -21.9937   -9.0235   20.4620 C   0  0  0  0  0  0
  -22.7277  -10.2102   20.3039 C   0  0  0  0  0  0
  -21.6865   -6.0734   22.5269 C   0  0  0  0  0  0
  -21.4014   -6.5628   23.8207 C   0  0  0  0  0  0
  -21.3680   -5.6773   24.9168 C   0  0  0  0  0  0
  -21.6073   -4.3032   24.7215 C   0  0  0  0  0  0
  -21.8807   -3.8134   23.4320 C   0  0  0  0  0  0
  -21.9195   -4.6962   22.3379 C   0  0  0  0  0  0
  -22.7693  -13.5105   21.1878 C   0  0  0  0  0  0
  -22.1682   -4.2154   21.0957 F   0  0  0  0  0  0
  -21.5637   -3.4508   25.7726 F   0  0  0  0  0  0
  -29.8394  -14.1212   20.3162 N   0  0  0  0  0  0
  -26.2766  -12.9546   20.3218 N   0  0  0  0  0  0
  -25.9363  -11.6647   20.5734 N   0  0  0  0  0  0
  -22.0390  -12.8122   22.0476 N   0  0  0  0  0  0
  -25.3646  -15.1872   20.3767 N   0  0  0  0  0  0
  -31.6177  -15.3367   20.0922 O   0  0  0  0  0  0
  -21.6650   -6.8876   21.4236 O   0  0  0  0  0  0
  -22.3363  -14.5412   20.6697 O   0  0  0  0  0  0
  -24.6740  -31.8088   23.1604 C   0  0  0  0  0  0
  -25.9379  -32.4509   23.8109 C   0  0  1  0  0  0
  -27.2233  -26.8116   20.1815 C   0  0  0  0  0  0
  -25.5993  -33.8330   24.2002 N   0  0  0  0  0  0
  -23.4934  -30.4157   21.5133 C   0  0  2  0  0  0
  -24.9478  -28.7790   20.1101 C   0  0  0  0  0  0
  -22.7709  -29.4379   22.4763 C   0  0  0  0  0  0
  -18.0322  -28.1402   22.8461 C   0  0  0  0  0  0
  -24.1483  -36.7147   23.2654 C   0  0  0  0  0  0
  -26.0678  -30.5757   21.4080 C   0  0  0  0  0  0
  -26.1341  -29.1554   20.7490 C   0  0  0  0  0  0
  -27.2602  -28.1951   20.7562 C   0  0  0  0  0  0
  -26.0042  -26.6165   19.4889 C   0  0  0  0  0  0
  -24.9148  -27.5340   19.4583 C   0  0  0  0  0  0
  -23.7368  -29.7177   20.1452 C   0  0  0  0  0  0
  -25.4141  -36.2917   24.0291 C   0  0  1  0  0  0
  -20.5952  -28.3747   23.1161 C   0  0  2  0  0  0
  -20.6783  -26.9418   22.5408 C   0  0  0  0  0  0
  -19.5773  -26.6363   21.5202 C   0  0  0  0  0  0
  -18.1950  -26.7937   22.1600 C   0  0  0  0  0  0
  -19.1593  -28.8906   23.2785 C   0  0  0  0  0  0
  -18.9504  -30.1480   23.8835 C   0  0  0  0  0  0
  -17.6490  -30.6582   24.0548 C   0  0  0  0  0  0
  -25.9122  -34.9307   23.4976 C   0  0  0  0  0  0
  -16.5383  -29.9070   23.6355 C   0  0  0  0  0  0
  -16.7307  -28.6482   23.0383 C   0  0  0  0  0  0
  -26.4591  -31.6508   25.0696 C   0  0  0  0  0  0
  -25.3688  -31.3788   26.1335 C   0  0  0  0  0  0
  -27.0517  -30.2867   24.6530 C   0  0  0  0  0  0
  -27.6059  -32.4341   25.7506 C   0  0  0  0  0  0
  -27.5570  -37.1719   24.8466 C   0  0  0  0  0  0
  -21.4372  -29.3004   22.3505 N   0  0  0  0  0  0
  -26.4267  -37.3683   23.9432 N   0  0  0  0  0  0
  -24.7683  -30.9642   22.0800 N   0  0  0  0  0  0
  -23.4193  -28.7977   23.3075 O   0  0  0  0  0  0
  -28.2124  -25.6554   20.2752 O   0  0  0  0  0  0
  -26.5754  -34.8868   22.4583 O   0  0  0  0  0  0
  -23.5794  -32.1122   23.6633 O   0  0  0  0  0  0
  -30.3837  -18.3421   19.4323 C   0  0  0  0  0  0
  -30.5621  -17.8944   21.7025 C   0  0  0  0  0  0
  -28.0974  -19.6157   20.6783 C   0  0  0  0  0  0
  -30.3703  -19.8732   20.0583 C   0  0  2  0  0  0
  -29.8466  -17.2151   20.4693 C   0  0  2  0  0  0
  -31.0110  -19.4025   21.4258 C   0  0  0  0  0  0
  -28.3238  -17.9208   20.4547 C   0  0  0  0  0  0
  -32.5593  -19.3839   21.2719 C   0  0  0  0  0  0
  -30.7535  -20.3484   22.6248 C   0  0  0  0  0  0
  -27.5649  -17.5366   19.1523 C   0  0  0  0  0  0
  -27.4962  -17.2652   21.5827 C   0  0  0  0  0  0
  -28.9685  -22.4035   20.5236 C   0  0  0  0  0  0
  -28.0782  -23.9676   20.0015 C   0  0  0  0  0  0
  -29.0256  -20.7264   20.0826 N   0  3  2  0  0  0
  -31.4430  -13.1298   19.2098 H   0  0  0  0  0  0
  -30.5055  -12.0567   20.1903 H   0  0  0  0  0  0
  -29.9621  -11.8053   17.7352 H   0  0  0  0  0  0
  -29.5437  -13.5039   17.6524 H   0  0  0  0  0  0
  -28.0942  -11.2929   19.1310 H   0  0  0  0  0  0
  -27.4348  -12.3100   17.8744 H   0  0  0  0  0  0
  -27.4850  -14.2389   19.2870 H   0  0  0  0  0  0
  -28.8378  -12.6352   21.4958 H   0  0  0  0  0  0
  -28.2302  -14.2411   21.6842 H   0  0  0  0  0  0
  -25.2806   -9.5680   22.4751 H   0  0  0  0  0  0
  -24.0057   -7.4596   22.7438 H   0  0  0  0  0  0
  -21.0894   -8.8724   19.8886 H   0  0  0  0  0  0
  -22.3736  -10.9649   19.6143 H   0  0  0  0  0  0
  -21.2016   -7.6133   23.9722 H   0  0  0  0  0  0
  -21.1536   -6.0495   25.9086 H   0  0  0  0  0  0
  -22.0584   -2.7599   23.2798 H   0  0  0  0  0  0
  -22.4057  -11.9851   22.4963 H   0  0  0  0  0  0
  -21.0958  -13.1085   22.2579 H   0  0  0  0  0  0
  -24.5916  -15.8292   20.5084 H   0  0  0  0  0  0
  -26.2208  -15.6439   20.0944 H   0  0  0  0  0  0
  -26.7453  -32.5002   23.0815 H   0  0  0  0  0  0
  -25.0055  -33.9390   25.0103 H   0  0  0  0  0  0
  -22.8130  -31.2513   21.3343 H   0  0  0  0  0  0
  -23.3788  -35.9427   23.3244 H   0  0  0  0  0  0
  -24.3553  -36.8879   22.2080 H   0  0  0  0  0  0
  -23.7181  -37.6286   23.6763 H   0  0  0  0  0  0
  -26.2638  -31.3138   20.6304 H   0  0  0  0  0  0
  -26.9203  -30.6310   22.0717 H   0  0  0  0  0  0
  -28.1564  -28.4841   21.2864 H   0  0  0  0  0  0
  -25.8517  -25.6698   18.9892 H   0  0  0  0  0  0
  -24.0158  -27.2432   18.9328 H   0  0  0  0  0  0
  -23.8898  -30.4787   19.3803 H   0  0  0  0  0  0
  -22.8434  -29.1749   19.8317 H   0  0  0  0  0  0
  -25.1342  -36.1685   25.0782 H   0  0  0  0  0  0
  -21.0018  -28.3360   24.1293 H   0  0  0  0  0  0
  -20.5617  -26.2382   23.3668 H   0  0  0  0  0  0
  -21.6652  -26.7363   22.1256 H   0  0  0  0  0  0
  -19.6936  -25.6256   21.1280 H   0  0  0  0  0  0
  -19.6718  -27.3137   20.6705 H   0  0  0  0  0  0
  -17.4225  -26.6688   21.3990 H   0  0  0  0  0  0
  -18.0335  -26.0075   22.8992 H   0  0  0  0  0  0
  -19.7973  -30.7312   24.2186 H   0  0  0  0  0  0
  -17.5046  -31.6269   24.5137 H   0  0  0  0  0  0
  -15.5385  -30.2947   23.7724 H   0  0  0  0  0  0
  -15.8702  -28.0779   22.7155 H   0  0  0  0  0  0
  -24.5876  -30.7145   25.7628 H   0  0  0  0  0  0
  -24.8888  -32.3001   26.4641 H   0  0  0  0  0  0
  -25.7899  -30.9022   27.0197 H   0  0  0  0  0  0
  -26.3228  -29.6498   24.1521 H   0  0  0  0  0  0
  -27.3979  -29.7289   25.5239 H   0  0  0  0  0  0
  -27.9184  -30.4024   24.0022 H   0  0  0  0  0  0
  -27.2614  -33.3666   26.1980 H   0  0  0  0  0  0
  -28.3931  -32.6866   25.0390 H   0  0  0  0  0  0
  -28.0672  -31.8554   26.5520 H   0  0  0  0  0  0
  -28.2551  -38.0052   24.7567 H   0  0  0  0  0  0
  -28.1100  -36.2583   24.6220 H   0  0  0  0  0  0
  -27.2294  -37.1278   25.8869 H   0  0  0  0  0  0
  -20.9676  -29.8646   21.6566 H   0  0  0  0  0  0
  -26.0092  -38.2723   24.1488 H   0  0  0  0  0  0
  -31.4079  -18.0750   19.1753 H   0  0  0  0  0  0
  -29.9179  -18.3100   18.4516 H   0  0  0  0  0  0
  -31.4204  -17.2917   22.0053 H   0  0  0  0  0  0
  -29.9293  -17.8739   22.5838 H   0  0  0  0  0  0
  -28.0542  -19.7961   21.7486 H   0  0  0  0  0  0
  -27.0863  -19.8653   20.3511 H   0  0  0  0  0  0
  -31.0793  -20.4822   19.4963 H   0  0  0  0  0  0
  -32.9195  -18.5737   20.6370 H   0  0  0  0  0  0
  -33.0583  -19.2497   22.2335 H   0  0  0  0  0  0
  -32.9384  -20.3127   20.8464 H   0  0  0  0  0  0
  -29.7054  -20.4822   22.8676 H   0  0  0  0  0  0
  -31.1800  -21.3376   22.4442 H   0  0  0  0  0  0
  -31.2219  -19.9651   23.5335 H   0  0  0  0  0  0
  -27.8371  -18.1464   18.2921 H   0  0  0  0  0  0
  -26.4888  -17.6769   19.2577 H   0  0  0  0  0  0
  -27.7330  -16.4992   18.8695 H   0  0  0  0  0  0
  -27.8748  -17.4589   22.5832 H   0  0  0  0  0  0
  -27.4668  -16.1906   21.4660 H   0  0  0  0  0  0
  -26.4638  -17.6202   21.5822 H   0  0  0  0  0  0
  -28.8508  -22.3738   21.6046 H   0  0  0  0  0  0
  -30.0117  -22.6852   20.3925 H   0  0  0  0  0  0
  -27.0357  -23.7672   20.2502 H   0  0  0  0  0  0
  -28.0935  -23.9186   18.9118 H   0  0  0  0  0  0
  -28.7771  -20.7602   19.1050 H   0  0  0  0  0  0
  1 25  1  0  0  0
  1 30  2  0  0  0
  1 75  1  0  0  0
  2  3  1  0  0  0
  2 25  1  0  0  0
  2 85  1  0  0  0
  2 86  1  0  0  0
  3  4  1  0  0  0
  3 87  1  0  0  0
  3 88  1  0  0  0
  4  5  1  0  0  0
  4 89  1  0  0  0
  4 90  1  0  0  0
  5  6  1  0  0  0
  5 26  1  0  0  0
  5 91  1  0  0  0
  6 25  1  0  0  0
  6 92  1  0  0  0
  6 93  1  0  0  0
  7  8  2  0  0  0
  7 26  1  0  0  0
  7 29  1  0  0  0
  8  9  1  0  0  0
  8 22  1  0  0  0
  9 10  1  0  0  0
  9 27  2  0  0  0
 10 11  2  0  0  0
 10 15  1  0  0  0
 11 12  1  0  0  0
 11 94  1  0  0  0
 12 13  2  0  0  0
 12 95  1  0  0  0
 13 14  1  0  0  0
 13 31  1  0  0  0
 14 15  2  0  0  0
 14 96  1  0  0  0
 15 97  1  0  0  0
 16 17  2  0  0  0
 16 21  1  0  0  0
 16 31  1  0  0  0
 17 18  1  0  0  0
 17 98  1  0  0  0
 18 19  2  0  0  0
 18 99  1  0  0  0
 19 20  1  0  0  0
 19 24  1  0  0  0
 20 21  2  0  0  0
 20100  1  0  0  0
 21 23  1  0  0  0
 22 28  1  0  0  0
 22 32  2  0  0  0
 26 27  1  0  0  0
 28101  1  0  0  0
 28102  1  0  0  0
 29103  1  0  0  0
 29104  1  0  0  0
 33 34  1  0  0  0
 33 66  1  0  0  0
 33 70  2  0  0  0
 34 36  1  0  0  0
 34 59  1  0  0  0
 34105  1  0  0  0
 35 44  2  0  0  0
 35 45  1  0  0  0
 35 68  1  0  0  0
 36 56  1  0  0  0
 36106  1  0  0  0
 37 39  1  0  0  0
 37 47  1  0  0  0
 37 66  1  0  0  0
 37107  1  0  0  0
 38 43  2  0  0  0
 38 46  1  0  0  0
 38 47  1  0  0  0
 39 64  1  0  0  0
 39 67  2  0  0  0
 40 52  1  0  0  0
 40 53  2  0  0  0
 40 58  1  0  0  0
 41108  1  0  0  0
 41109  1  0  0  0
 41110  1  0  0  0
 41 48  1  0  0  0
 42 43  1  0  0  0
 42 66  1  0  0  0
 42111  1  0  0  0
 42112  1  0  0  0
 43 44  1  0  0  0
 44113  1  0  0  0
 45 46  2  0  0  0
 45114  1  0  0  0
 46115  1  0  0  0
 47116  1  0  0  0
 47117  1  0  0  0
 48 56  1  0  0  0
 48 65  1  0  0  0
 48118  1  0  0  0
 49 50  1  0  0  0
 49 53  1  0  0  0
 49 64  1  0  0  0
 49119  1  0  0  0
 50 51  1  0  0  0
 50120  1  0  0  0
 50121  1  0  0  0
 51 52  1  0  0  0
 51122  1  0  0  0
 51123  1  0  0  0
 52124  1  0  0  0
 52125  1  0  0  0
 53 54  1  0  0  0
 54 55  2  0  0  0
 54126  1  0  0  0
 55 57  1  0  0  0
 55127  1  0  0  0
 56 69  2  0  0  0
 57 58  2  0  0  0
 57128  1  0  0  0
 58129  1  0  0  0
 59 60  1  0  0  0
 59 61  1  0  0  0
 59 62  1  0  0  0
 60130  1  0  0  0
 60131  1  0  0  0
 60132  1  0  0  0
 61133  1  0  0  0
 61134  1  0  0  0
 61135  1  0  0  0
 62136  1  0  0  0
 62137  1  0  0  0
 62138  1  0  0  0
 63 65  1  0  0  0
 63139  1  0  0  0
 63140  1  0  0  0
 63141  1  0  0  0
 64142  1  0  0  0
 65143  1  0  0  0
 68 83  1  0  0  0
 71 75  1  0  0  0
 71144  1  0  0  0
 71145  1  0  0  0
 71 74  1  0  0  0
 72 75  1  0  0  0
 72 76  1  0  0  0
 72146  1  0  0  0
 72147  1  0  0  0
 73 77  1  0  0  0
 73 84  1  0  0  0
 73148  1  0  0  0
 73149  1  0  0  0
 74 76  1  0  0  0
 74 84  1  0  0  0
 74150  1  0  0  0
 75 77  1  0  0  0
 76 78  1  0  0  0
 76 79  1  0  0  0
 77 80  1  0  0  0
 77 81  1  0  0  0
 78151  1  0  0  0
 78152  1  0  0  0
 78153  1  0  0  0
 79154  1  0  0  0
 79155  1  0  0  0
 79156  1  0  0  0
 80157  1  0  0  0
 80158  1  0  0  0
 80159  1  0  0  0
 81160  1  0  0  0
 81161  1  0  0  0
 81162  1  0  0  0
 82 83  1  0  0  0
 82163  1  0  0  0
 82164  1  0  0  0
 82 84  1  0  0  0
 83165  1  0  0  0
 83166  1  0  0  0
 84167  1  0  0  0
M  CHG  1  84   1
M  ISO  4   1 100  68 101  75 100  83 101
M  END
> <chiral flag>
0

> <version>
0

> <s_m_source_file>
/data/baiqing/PycharmProjects/Reinvent-master-3.2/result/LINK_invent/BTK/process_docking_weight1_custom_sum_contain_oxygen_bond_distance_aromatic_linkinvent_7_9_3/rearranged_h_0179.sdf

> <i_m_source_file_index>
9

> <r_mmod_Potential_Energy-OPLS-2005>
1995.92199707031

> <r_mmod_Stretch_Energy-OPLS-2005>
808.736938476562

> <r_mmod_Bend_Energy-OPLS-2005>
685.719909667969

> <r_mmod_Torsional_Energy-OPLS-2005>
311.091979980469

> <r_mmod_Improper_Torsional_Energy-OPLS-2005>
1.80587387084961

> <r_mmod_Van_der_Waal_Energy-OPLS-2005>
132.701522827148

> <r_mmod_Electrostatic_Energy-OPLS-2005>
-198.984329223633

> <r_mmod_Solvation_Energy-OPLS-2005>
-397.233032226562

> <b_mmod_Minimization_Converged-OPLS-2005>
0

> <r_mmod_RMS_Derivative-OPLS-2005>
3.72140836715698

$$$$
9
                    3D
 Structure written by MMmdl.
159168  0  0  1  0            999 V2000
  -30.5532  -14.8923   20.4491 C   0  0  0  0  0  0
  -30.4538  -12.5692   19.4810 C   0  0  0  0  0  0
  -29.5185  -12.5519   18.2486 C   0  0  0  0  0  0
  -28.0508  -12.3414   18.6640 C   0  0  0  0  0  0
  -27.6394  -13.2459   19.8570 C   0  0  2  0  0  0
  -28.6870  -13.2086   20.9938 C   0  0  0  0  0  0
  -25.2471  -13.8225   20.5769 C   0  0  0  0  0  0
  -24.1776  -13.0467   20.9280 C   0  0  0  0  0  0
  -24.6367  -11.6945   20.8766 C   0  0  0  0  0  0
  -23.9037  -10.4320   21.0394 C   0  0  0  0  0  0
  -24.3595   -9.4246   21.9176 C   0  0  0  0  0  0
  -23.6310   -8.2249   22.0721 C   0  0  0  0  0  0
  -22.4291   -8.0262   21.3505 C   0  0  0  0  0  0
  -21.9905   -9.0231   20.4618 C   0  0  0  0  0  0
  -22.7202  -10.2145   20.3045 C   0  0  0  0  0  0
  -21.6854   -6.0743   22.5288 C   0  0  0  0  0  0
  -21.4001   -6.5641   23.8227 C   0  0  0  0  0  0
  -21.3660   -5.6790   24.9191 C   0  0  0  0  0  0
  -21.6056   -4.3050   24.7233 C   0  0  0  0  0  0
  -21.8824   -3.8144   23.4347 C   0  0  0  0  0  0
  -21.9201   -4.6971   22.3414 C   0  0  0  0  0  0
  -22.7790  -13.5230   21.1935 C   0  0  0  0  0  0
  -22.1661   -4.2160   21.0990 F   0  0  0  0  0  0
  -21.5654   -3.4533   25.7734 F   0  0  0  0  0  0
  -29.9766  -13.6218   20.4206 N   0  0  0  0  0  0
  -26.2925  -12.9453   20.3329 N   0  0  0  0  0  0
  -25.9291  -11.6583   20.5723 N   0  0  0  0  0  0
  -22.0372  -12.8241   22.0470 N   0  0  0  0  0  0
  -25.4183  -15.1956   20.4176 N   0  0  0  0  0  0
  -31.7035  -15.0175   20.0254 O   0  0  0  0  0  0
  -21.6641   -6.8864   21.4232 O   0  0  0  0  0  0
  -22.3472  -14.5530   20.6752 O   0  0  0  0  0  0
  -24.6376  -31.8539   23.2054 C   0  0  0  0  0  0
  -25.9201  -32.4759   23.8376 C   0  0  1  0  0  0
  -27.1999  -27.2257   20.1087 C   0  0  0  0  0  0
  -25.6016  -33.8565   24.2289 N   0  0  0  0  0  0
  -23.4343  -30.4811   21.5513 C   0  0  2  0  0  0
  -24.8786  -28.9444   20.0988 C   0  0  0  0  0  0
  -22.7547  -29.4569   22.4946 C   0  0  0  0  0  0
  -18.0303  -28.1475   22.8458 C   0  0  0  0  0  0
  -24.1463  -36.7223   23.2623 C   0  0  0  0  0  0
  -25.9840  -30.7564   21.3898 C   0  0  0  0  0  0
  -26.0542  -29.3792   20.7232 C   0  0  0  0  0  0
  -27.2176  -28.5336   20.7213 C   0  0  0  0  0  0
  -26.0076  -26.9045   19.4089 C   0  0  0  0  0  0
  -24.8660  -27.7217   19.4238 C   0  0  0  0  0  0
  -23.6545  -29.8375   20.1594 C   0  0  0  0  0  0
  -25.4098  -36.3057   24.0326 C   0  0  1  0  0  0
  -20.5901  -28.3746   23.1293 C   0  0  2  0  0  0
  -20.6802  -26.9461   22.5451 C   0  0  0  0  0  0
  -19.5801  -26.6424   21.5243 C   0  0  0  0  0  0
  -18.1956  -26.8026   22.1585 C   0  0  0  0  0  0
  -19.1551  -28.8931   23.2867 C   0  0  0  0  0  0
  -18.9458  -30.1528   23.8897 C   0  0  0  0  0  0
  -17.6445  -30.6625   24.0596 C   0  0  0  0  0  0
  -25.9075  -34.9436   23.5086 C   0  0  0  0  0  0
  -16.5337  -29.9112   23.6376 C   0  0  0  0  0  0
  -16.7279  -28.6569   23.0317 C   0  0  0  0  0  0
  -26.4572  -31.6589   25.0760 C   0  0  0  0  0  0
  -25.3799  -31.3704   26.1476 C   0  0  0  0  0  0
  -27.0388  -30.3011   24.6213 C   0  0  0  0  0  0
  -27.6189  -32.4276   25.7517 C   0  0  0  0  0  0
  -27.5598  -37.1723   24.8437 C   0  0  0  0  0  0
  -21.4246  -29.3039   22.3674 N   0  0  0  0  0  0
  -26.4227  -37.3801   23.9506 N   0  0  0  0  0  0
  -24.7054  -31.0452   22.1078 N   0  0  0  0  0  0
  -23.4200  -28.8087   23.3064 O   0  0  0  0  0  0
  -28.2438  -26.2514   20.2076 O   0  0  0  0  0  0
  -26.5604  -34.8914   22.4625 O   0  0  0  0  0  0
  -23.5508  -32.1413   23.7283 O   0  0  0  0  0  0
  -29.0818  -22.9682   21.4240 C   0  0  0  0  0  0
  -29.3578  -20.5482   20.6508 C   0  0  0  0  0  0
  -29.4160  -21.5808   21.6690 C   0  0  0  0  0  0
  -28.6608  -23.4288   20.1540 C   0  0  0  0  0  0
  -28.9820  -21.1394   19.3885 C   0  0  0  0  0  0
  -28.4379  -18.0730   20.8181 C   0  0  0  0  0  0
  -29.6178  -18.9613   21.0204 C   0  0  1  0  0  0
  -29.7232  -17.4743   20.2724 C   0  0  1  0  0  0
  -29.8080  -21.2350   23.0982 C   0  0  0  0  0  0
  -29.9434  -20.6943   17.0707 C   0  0  0  0  0  0
  -28.8492  -20.3406   18.0994 C   0  0  0  0  0  0
  -27.8939  -24.8208   19.8164 C   0  0  0  0  0  0
  -28.6503  -22.4674   19.1829 N   0  0  0  0  0  0
  -29.7750  -16.0183   20.7822 N   0  0  0  0  0  0
  -31.4774  -12.7613   19.1561 H   0  0  0  0  0  0
  -30.4820  -11.5907   19.9633 H   0  0  0  0  0  0
  -29.8266  -11.7732   17.5500 H   0  0  0  0  0  0
  -29.6183  -13.4957   17.7081 H   0  0  0  0  0  0
  -27.9422  -11.2921   18.9407 H   0  0  0  0  0  0
  -27.3851  -12.5035   17.8121 H   0  0  0  0  0  0
  -27.6204  -14.2647   19.4650 H   0  0  0  0  0  0
  -28.7563  -12.2036   21.4153 H   0  0  0  0  0  0
  -28.3960  -13.8685   21.8133 H   0  0  0  0  0  0
  -25.2730   -9.5763   22.4753 H   0  0  0  0  0  0
  -24.0059   -7.4633   22.7393 H   0  0  0  0  0  0
  -21.0858   -8.8699   19.8896 H   0  0  0  0  0  0
  -22.3619  -10.9664   19.6144 H   0  0  0  0  0  0
  -21.1944   -7.6135   23.9746 H   0  0  0  0  0  0
  -21.1483   -6.0500   25.9102 H   0  0  0  0  0  0
  -22.0601   -2.7604   23.2841 H   0  0  0  0  0  0
  -22.3956  -11.9967   22.5019 H   0  0  0  0  0  0
  -21.0918  -13.1173   22.2457 H   0  0  0  0  0  0
  -24.6488  -15.8503   20.5164 H   0  0  0  0  0  0
  -26.2639  -15.6304   20.0693 H   0  0  0  0  0  0
  -26.7247  -32.5388   23.1093 H   0  0  0  0  0  0
  -25.0305  -33.9730   25.0528 H   0  0  0  0  0  0
  -22.7327  -31.3076   21.4152 H   0  0  0  0  0  0
  -23.3829  -35.9443   23.3112 H   0  0  0  0  0  0
  -24.3592  -36.9027   22.2079 H   0  0  0  0  0  0
  -23.7059  -37.6296   23.6753 H   0  0  0  0  0  0
  -26.1127  -31.5208   20.6217 H   0  0  0  0  0  0
  -26.8654  -30.8110   22.0159 H   0  0  0  0  0  0
  -28.1122  -28.8617   21.2301 H   0  0  0  0  0  0
  -25.8957  -25.9987   18.8312 H   0  0  0  0  0  0
  -23.9757  -27.4083   18.8944 H   0  0  0  0  0  0
  -23.7875  -30.6300   19.4221 H   0  0  0  0  0  0
  -22.7704  -29.2851   19.8389 H   0  0  0  0  0  0
  -25.1248  -36.1850   25.0810 H   0  0  0  0  0  0
  -20.9948  -28.3333   24.1430 H   0  0  0  0  0  0
  -20.5744  -26.2351   23.3656 H   0  0  0  0  0  0
  -21.6673  -26.7533   22.1222 H   0  0  0  0  0  0
  -19.6963  -25.6324   21.1308 H   0  0  0  0  0  0
  -19.6798  -27.3209   20.6765 H   0  0  0  0  0  0
  -17.4264  -26.6825   21.3941 H   0  0  0  0  0  0
  -18.0273  -26.0179   22.8966 H   0  0  0  0  0  0
  -19.7917  -30.7389   24.2250 H   0  0  0  0  0  0
  -17.4975  -31.6305   24.5203 H   0  0  0  0  0  0
  -15.5330  -30.2976   23.7783 H   0  0  0  0  0  0
  -15.8678  -28.0917   22.6969 H   0  0  0  0  0  0
  -24.6013  -30.7020   25.7780 H   0  0  0  0  0  0
  -24.8939  -32.2830   26.4926 H   0  0  0  0  0  0
  -25.8120  -30.8868   27.0242 H   0  0  0  0  0  0
  -26.2929  -29.6768   24.1276 H   0  0  0  0  0  0
  -27.4130  -29.7278   25.4703 H   0  0  0  0  0  0
  -27.8804  -30.4302   23.9410 H   0  0  0  0  0  0
  -27.2925  -33.3643   26.2039 H   0  0  0  0  0  0
  -28.4050  -32.6690   25.0350 H   0  0  0  0  0  0
  -28.0795  -31.8397   26.5463 H   0  0  0  0  0  0
  -28.2436  -38.0194   24.7757 H   0  0  0  0  0  0
  -28.1256  -36.2750   24.5866 H   0  0  0  0  0  0
  -27.2385  -37.0887   25.8835 H   0  0  0  0  0  0
  -20.9480  -29.8699   21.6796 H   0  0  0  0  0  0
  -26.0065  -38.2806   24.1747 H   0  0  0  0  0  0
  -29.0902  -23.6866   22.2342 H   0  0  0  0  0  0
  -27.6872  -18.3600   20.0826 H   0  0  0  0  0  0
  -28.0226  -17.6550   21.7347 H   0  0  0  0  0  0
  -30.1272  -18.9414   21.9797 H   0  0  0  0  0  0
  -29.9183  -17.5600   19.2066 H   0  0  0  0  0  0
  -29.6507  -22.0867   23.7635 H   0  0  0  0  0  0
  -30.8617  -20.9531   23.1491 H   0  0  0  0  0  0
  -29.2070  -20.4147   23.4908 H   0  0  0  0  0  0
  -29.8341  -20.1146   16.1529 H   0  0  0  0  0  0
  -30.9297  -20.4970   17.4860 H   0  0  0  0  0  0
  -29.9119  -21.7463   16.7784 H   0  0  0  0  0  0
  -27.8667  -20.5555   17.6741 H   0  0  0  0  0  0
  -28.8533  -19.2725   18.2884 H   0  0  0  0  0  0
  -26.8881  -24.6207   20.1859 H   0  0  0  0  0  0
  -27.8096  -24.8526   18.7284 H   0  0  0  0  0  0
  -28.9403  -15.7587   21.2829 H   0  0  0  0  0  0
  1 25  1  0  0  0
  1 30  2  0  0  0
  1 84  1  0  0  0
  2  3  1  0  0  0
  2 25  1  0  0  0
  2 85  1  0  0  0
  2 86  1  0  0  0
  3  4  1  0  0  0
  3 87  1  0  0  0
  3 88  1  0  0  0
  4  5  1  0  0  0
  4 89  1  0  0  0
  4 90  1  0  0  0
  5  6  1  0  0  0
  5 26  1  0  0  0
  5 91  1  0  0  0
  6 25  1  0  0  0
  6 92  1  0  0  0
  6 93  1  0  0  0
  7  8  2  0  0  0
  7 26  1  0  0  0
  7 29  1  0  0  0
  8  9  1  0  0  0
  8 22  1  0  0  0
  9 10  1  0  0  0
  9 27  2  0  0  0
 10 11  2  0  0  0
 10 15  1  0  0  0
 11 12  1  0  0  0
 11 94  1  0  0  0
 12 13  2  0  0  0
 12 95  1  0  0  0
 13 14  1  0  0  0
 13 31  1  0  0  0
 14 15  2  0  0  0
 14 96  1  0  0  0
 15 97  1  0  0  0
 16 17  2  0  0  0
 16 21  1  0  0  0
 16 31  1  0  0  0
 17 18  1  0  0  0
 17 98  1  0  0  0
 18 19  2  0  0  0
 18 99  1  0  0  0
 19 20  1  0  0  0
 19 24  1  0  0  0
 20 21  2  0  0  0
 20100  1  0  0  0
 21 23  1  0  0  0
 22 28  1  0  0  0
 22 32  2  0  0  0
 26 27  1  0  0  0
 28101  1  0  0  0
 28102  1  0  0  0
 29103  1  0  0  0
 29104  1  0  0  0
 33 34  1  0  0  0
 33 66  1  0  0  0
 33 70  2  0  0  0
 34 36  1  0  0  0
 34 59  1  0  0  0
 34105  1  0  0  0
 35 44  2  0  0  0
 35 45  1  0  0  0
 35 68  1  0  0  0
 36 56  1  0  0  0
 36106  1  0  0  0
 37 39  1  0  0  0
 37 47  1  0  0  0
 37 66  1  0  0  0
 37107  1  0  0  0
 38 43  2  0  0  0
 38 46  1  0  0  0
 38 47  1  0  0  0
 39 64  1  0  0  0
 39 67  2  0  0  0
 40 52  1  0  0  0
 40 53  2  0  0  0
 40 58  1  0  0  0
 41108  1  0  0  0
 41109  1  0  0  0
 41110  1  0  0  0
 41 48  1  0  0  0
 42 43  1  0  0  0
 42 66  1  0  0  0
 42111  1  0  0  0
 42112  1  0  0  0
 43 44  1  0  0  0
 44113  1  0  0  0
 45 46  2  0  0  0
 45114  1  0  0  0
 46115  1  0  0  0
 47116  1  0  0  0
 47117  1  0  0  0
 48 56  1  0  0  0
 48 65  1  0  0  0
 48118  1  0  0  0
 49 50  1  0  0  0
 49 53  1  0  0  0
 49 64  1  0  0  0
 49119  1  0  0  0
 50 51  1  0  0  0
 50120  1  0  0  0
 50121  1  0  0  0
 51 52  1  0  0  0
 51122  1  0  0  0
 51123  1  0  0  0
 52124  1  0  0  0
 52125  1  0  0  0
 53 54  1  0  0  0
 54 55  2  0  0  0
 54126  1  0  0  0
 55 57  1  0  0  0
 55127  1  0  0  0
 56 69  2  0  0  0
 57 58  2  0  0  0
 57128  1  0  0  0
 58129  1  0  0  0
 59 60  1  0  0  0
 59 61  1  0  0  0
 59 62  1  0  0  0
 60130  1  0  0  0
 60131  1  0  0  0
 60132  1  0  0  0
 61133  1  0  0  0
 61134  1  0  0  0
 61135  1  0  0  0
 62136  1  0  0  0
 62137  1  0  0  0
 62138  1  0  0  0
 63 65  1  0  0  0
 63139  1  0  0  0
 63140  1  0  0  0
 63141  1  0  0  0
 64142  1  0  0  0
 65143  1  0  0  0
 68 82  1  0  0  0
 71 73  2  0  0  0
 71 74  1  0  0  0
 71144  1  0  0  0
 72 73  1  0  0  0
 72 75  2  0  0  0
 72 77  1  0  0  0
 73 79  1  0  0  0
 74 82  1  0  0  0
 74 83  2  0  0  0
 75 81  1  0  0  0
 75 83  1  0  0  0
 76 77  1  0  0  0
 76 78  1  0  0  0
 76145  1  0  0  0
 76146  1  0  0  0
 77 78  1  0  0  0
 77147  1  0  0  0
 78 84  1  0  0  0
 78148  1  0  0  0
 79149  1  0  0  0
 79150  1  0  0  0
 79151  1  0  0  0
 80 81  1  0  0  0
 80152  1  0  0  0
 80153  1  0  0  0
 80154  1  0  0  0
 81155  1  0  0  0
 81156  1  0  0  0
 82157  1  0  0  0
 82158  1  0  0  0
 84159  1  0  0  0
M  ISO  4   1 100  68 101  82 101  84 100
M  END
> <chiral flag>
0

> <version>
0

> <s_m_source_file>
/data/baiqing/PycharmProjects/Reinvent-master-3.2/result/LINK_invent/BTK/process_docking_weight1_custom_sum_contain_oxygen_bond_distance_aromatic_linkinvent_7_9_3/rearranged_h_0179.sdf

> <i_m_source_file_index>
10

> <r_mmod_Potential_Energy-OPLS-2005>
307.012939453125

> <r_mmod_Stretch_Energy-OPLS-2005>
199.840072631836

> <r_mmod_Bend_Energy-OPLS-2005>
272.071594238281

> <r_mmod_Torsional_Energy-OPLS-2005>
266.278442382812

> <r_mmod_Improper_Torsional_Energy-OPLS-2005>
6.89533519744873

> <r_mmod_Van_der_Waal_Energy-OPLS-2005>
145.376663208008

> <r_mmod_Electrostatic_Energy-OPLS-2005>
-507.033477783203

> <r_mmod_Solvation_Energy-OPLS-2005>
-222.594833374023

> <b_mmod_Minimization_Converged-OPLS-2005>
0

> <r_mmod_RMS_Derivative-OPLS-2005>
5.85306549072266

$$$$
10
                    3D
 Structure written by MMmdl.
160169  0  0  1  0            999 V2000
  -30.5822  -14.7957   20.4020 C   0  0  0  0  0  0
  -30.4327  -12.4874   19.4583 C   0  0  0  0  0  0
  -29.5010  -12.5008   18.2258 C   0  0  0  0  0  0
  -28.0351  -12.3153   18.6570 C   0  0  0  0  0  0
  -27.6352  -13.2369   19.8422 C   0  0  2  0  0  0
  -28.6810  -13.2041   20.9747 C   0  0  0  0  0  0
  -25.2467  -13.8178   20.5656 C   0  0  0  0  0  0
  -24.1759  -13.0456   20.9199 C   0  0  0  0  0  0
  -24.6356  -11.6928   20.8749 C   0  0  0  0  0  0
  -23.9024  -10.4291   21.0416 C   0  0  0  0  0  0
  -24.3577   -9.4192   21.9173 C   0  0  0  0  0  0
  -23.6261   -8.2225   22.0768 C   0  0  0  0  0  0
  -22.4238   -8.0238   21.3545 C   0  0  0  0  0  0
  -21.9867   -9.0220   20.4639 C   0  0  0  0  0  0
  -22.7209  -10.2096   20.3054 C   0  0  0  0  0  0
  -21.6856   -6.0696   22.5255 C   0  0  0  0  0  0
  -21.4021   -6.5620   23.8185 C   0  0  0  0  0  0
  -21.3670   -5.6779   24.9148 C   0  0  0  0  0  0
  -21.6074   -4.3048   24.7221 C   0  0  0  0  0  0
  -21.8842   -3.8119   23.4346 C   0  0  0  0  0  0
  -21.9209   -4.6927   22.3382 C   0  0  0  0  0  0
  -22.7773  -13.5226   21.1870 C   0  0  0  0  0  0
  -22.1671   -4.2124   21.0965 F   0  0  0  0  0  0
  -21.5628   -3.4529   25.7731 F   0  0  0  0  0  0
  -29.9775  -13.5581   20.3795 N   0  0  0  0  0  0
  -26.2906  -12.9410   20.3262 N   0  0  0  0  0  0
  -25.9286  -11.6549   20.5721 N   0  0  0  0  0  0
  -22.0416  -12.8185   22.0375 N   0  0  0  0  0  0
  -25.4226  -15.1883   20.4085 N   0  0  0  0  0  0
  -31.7801  -14.8859   20.1128 O   0  0  0  0  0  0
  -21.6636   -6.8810   21.4199 O   0  0  0  0  0  0
  -22.3462  -14.5548   20.6718 O   0  0  0  0  0  0
  -24.6554  -31.8580   23.1952 C   0  0  0  0  0  0
  -25.9293  -32.4791   23.8355 C   0  0  1  0  0  0
  -27.2447  -27.2136   20.1710 C   0  0  0  0  0  0
  -25.6030  -33.8571   24.2300 N   0  0  0  0  0  0
  -23.4723  -30.4752   21.5519 C   0  0  2  0  0  0
  -24.9004  -28.8863   20.1462 C   0  0  0  0  0  0
  -22.7846  -29.4799   22.5136 C   0  0  0  0  0  0
  -17.9965  -28.1267   22.8693 C   0  0  0  0  0  0
  -24.1509  -36.7294   23.2640 C   0  0  0  0  0  0
  -26.0066  -30.7488   21.3850 C   0  0  0  0  0  0
  -26.0727  -29.3560   20.7513 C   0  0  0  0  0  0
  -27.2459  -28.5335   20.7485 C   0  0  0  0  0  0
  -26.0482  -26.8078   19.5499 C   0  0  0  0  0  0
  -24.8907  -27.6157   19.5390 C   0  0  0  0  0  0
  -23.6829  -29.7898   20.1743 C   0  0  0  0  0  0
  -25.4122  -36.3072   24.0347 C   0  0  1  0  0  0
  -20.4832  -28.4712   22.7765 C   0  0  2  0  0  0
  -20.6950  -26.9718   22.5302 C   0  0  0  0  0  0
  -19.5610  -26.4658   21.6158 C   0  0  0  0  0  0
  -18.1648  -26.7570   22.2054 C   0  0  0  0  0  0
  -19.1159  -28.9066   23.2503 C   0  0  0  0  0  0
  -18.9339  -30.1560   23.8761 C   0  0  0  0  0  0
  -17.6341  -30.6546   24.0830 C   0  0  0  0  0  0
  -25.9078  -34.9462   23.5116 C   0  0  0  0  0  0
  -16.5190  -29.8984   23.6751 C   0  0  0  0  0  0
  -16.7000  -28.6350   23.0809 C   0  0  0  0  0  0
  -26.4567  -31.6561   25.0742 C   0  0  0  0  0  0
  -25.3753  -31.3700   26.1430 C   0  0  0  0  0  0
  -27.0406  -30.2957   24.6245 C   0  0  0  0  0  0
  -27.6105  -32.4287   25.7555 C   0  0  0  0  0  0
  -27.5582  -37.1812   24.8472 C   0  0  0  0  0  0
  -21.4621  -29.4574   22.3921 N   0  0  0  0  0  0
  -26.4289  -37.3782   23.9410 N   0  0  0  0  0  0
  -24.7333  -31.0469   22.0989 N   0  0  0  0  0  0
  -23.4201  -28.7539   23.2781 O   0  0  0  0  0  0
  -28.3807  -26.3887   19.9952 O   0  0  0  0  0  0
  -26.5625  -34.8921   22.4666 O   0  0  0  0  0  0
  -23.5656  -32.1431   23.7179 O   0  0  0  0  0  0
  -26.9830  -23.3468   21.1774 C   0  0  0  0  0  0
  -26.6854  -22.0156   21.5094 C   0  0  0  0  0  0
  -28.2309  -23.6384   20.6120 C   0  0  0  0  0  0
  -28.6387  -21.2544   20.5712 C   0  0  0  0  0  0
  -25.2226  -22.5310   23.6071 C   0  0  0  0  0  0
  -25.7565  -21.1367   23.7940 C   0  0  0  0  0  0
  -25.5239  -21.6717   22.3940 C   0  0  0  0  0  0
  -29.9411  -17.4473   18.5031 C   0  0  0  0  0  0
  -28.7713  -25.1515   20.7732 C   0  0  0  0  0  0
  -29.1748  -18.6315   20.6678 C   0  0  0  0  0  0
  -30.0614  -17.3987   20.0456 C   0  0  2  0  0  0
  -27.4966  -20.9888   21.1789 N   0  0  0  0  0  0
  -29.0536  -22.5373   20.3076 N   0  0  0  0  0  0
  -29.4227  -20.0859   20.2540 N   0  0  0  0  0  0
  -29.7868  -15.9408   20.4939 N   0  0  0  0  0  0
  -31.4654  -12.6365   19.1332 H   0  0  0  0  0  0
  -30.4066  -11.5156   19.9499 H   0  0  0  0  0  0
  -29.7841  -11.7054   17.5363 H   0  0  0  0  0  0
  -29.6156  -13.4368   17.6739 H   0  0  0  0  0  0
  -27.9161  -11.2692   18.9448 H   0  0  0  0  0  0
  -27.3624  -12.4719   17.8140 H   0  0  0  0  0  0
  -27.6209  -14.2497   19.4406 H   0  0  0  0  0  0
  -28.7211  -12.2176   21.4362 H   0  0  0  0  0  0
  -28.4098  -13.9026   21.7677 H   0  0  0  0  0  0
  -25.2741   -9.5699   22.4718 H   0  0  0  0  0  0
  -24.0013   -7.4632   22.7497 H   0  0  0  0  0  0
  -21.0823   -8.8763   19.8907 H   0  0  0  0  0  0
  -22.3713  -10.9636   19.6147 H   0  0  0  0  0  0
  -21.1995   -7.6129   23.9702 H   0  0  0  0  0  0
  -21.1464   -6.0479   25.9063 H   0  0  0  0  0  0
  -22.0601   -2.7584   23.2853 H   0  0  0  0  0  0
  -22.4104  -11.9913   22.4849 H   0  0  0  0  0  0
  -21.1007  -13.1181   22.2539 H   0  0  0  0  0  0
  -24.6597  -15.8467   20.5140 H   0  0  0  0  0  0
  -26.2705  -15.6136   20.0644 H   0  0  0  0  0  0
  -26.7374  -32.5427   23.1115 H   0  0  0  0  0  0
  -25.0148  -33.9702   25.0419 H   0  0  0  0  0  0
  -22.7836  -31.3076   21.3859 H   0  0  0  0  0  0
  -23.3767  -35.9636   23.3307 H   0  0  0  0  0  0
  -24.3614  -36.8910   22.2056 H   0  0  0  0  0  0
  -23.7258  -37.6493   23.6654 H   0  0  0  0  0  0
  -26.1385  -31.4936   20.5997 H   0  0  0  0  0  0
  -26.8860  -30.8152   22.0136 H   0  0  0  0  0  0
  -28.1553  -28.9068   21.1988 H   0  0  0  0  0  0
  -26.0183  -25.8428   19.0613 H   0  0  0  0  0  0
  -23.9966  -27.2447   19.0561 H   0  0  0  0  0  0
  -23.8156  -30.5568   19.4088 H   0  0  0  0  0  0
  -22.7936  -29.2328   19.8760 H   0  0  0  0  0  0
  -25.1297  -36.1938   25.0843 H   0  0  0  0  0  0
  -20.1626  -28.6927   21.7581 H   0  0  0  0  0  0
  -20.6838  -26.4413   23.4823 H   0  0  0  0  0  0
  -21.6660  -26.7751   22.0738 H   0  0  0  0  0  0
  -19.6728  -25.3955   21.4335 H   0  0  0  0  0  0
  -19.6451  -26.9268   20.6300 H   0  0  0  0  0  0
  -17.4098  -26.6306   21.4293 H   0  0  0  0  0  0
  -17.9396  -26.0045   22.9627 H   0  0  0  0  0  0
  -19.7913  -30.7597   24.1426 H   0  0  0  0  0  0
  -17.4916  -31.6210   24.5463 H   0  0  0  0  0  0
  -15.5174  -30.2809   23.8276 H   0  0  0  0  0  0
  -15.8378  -28.0574   22.7784 H   0  0  0  0  0  0
  -24.5946  -30.7048   25.7710 H   0  0  0  0  0  0
  -24.8929  -32.2870   26.4829 H   0  0  0  0  0  0
  -25.8064  -30.8852   27.0202 H   0  0  0  0  0  0
  -26.2984  -29.6684   24.1284 H   0  0  0  0  0  0
  -27.4064  -29.7237   25.4781 H   0  0  0  0  0  0
  -27.8883  -30.4186   23.9502 H   0  0  0  0  0  0
  -27.2686  -33.3586   26.2110 H   0  0  0  0  0  0
  -28.3936  -32.6850   25.0407 H   0  0  0  0  0  0
  -28.0738  -31.8401   26.5482 H   0  0  0  0  0  0
  -28.2600  -38.0103   24.7491 H   0  0  0  0  0  0
  -28.1073  -36.2629   24.6331 H   0  0  0  0  0  0
  -27.2307  -37.1516   25.8877 H   0  0  0  0  0  0
  -21.0837  -30.1756   21.7889 H   0  0  0  0  0  0
  -26.0183  -38.2875   24.1343 H   0  0  0  0  0  0
  -26.3298  -24.1416   21.5061 H   0  0  0  0  0  0
  -25.9014  -23.3466   23.8462 H   0  0  0  0  0  0
  -24.1809  -22.7046   23.8674 H   0  0  0  0  0  0
  -25.0642  -20.3917   24.1807 H   0  0  0  0  0  0
  -26.7905  -21.0231   24.1122 H   0  0  0  0  0  0
  -24.6829  -21.2645   21.8370 H   0  0  0  0  0  0
  -28.9055  -17.3420   18.1766 H   0  0  0  0  0  0
  -30.4994  -16.6457   18.0179 H   0  0  0  0  0  0
  -30.3190  -18.3917   18.1065 H   0  0  0  0  0  0
  -28.6482  -25.3944   21.8296 H   0  0  0  0  0  0
  -29.8522  -25.0860   20.6370 H   0  0  0  0  0  0
  -29.2788  -18.6006   21.7526 H   0  0  0  0  0  0
  -28.1221  -18.4321   20.4699 H   0  0  0  0  0  0
  -31.1061  -17.5947   20.3073 H   0  0  0  0  0  0
  -30.2858  -20.2700   19.7582 H   0  0  0  0  0  0
  -28.8266  -15.7409   20.7320 H   0  0  0  0  0  0
  1 25  1  0  0  0
  1 30  2  0  0  0
  1 85  1  0  0  0
  2  3  1  0  0  0
  2 25  1  0  0  0
  2 86  1  0  0  0
  2 87  1  0  0  0
  3  4  1  0  0  0
  3 88  1  0  0  0
  3 89  1  0  0  0
  4  5  1  0  0  0
  4 90  1  0  0  0
  4 91  1  0  0  0
  5  6  1  0  0  0
  5 26  1  0  0  0
  5 92  1  0  0  0
  6 25  1  0  0  0
  6 93  1  0  0  0
  6 94  1  0  0  0
  7  8  2  0  0  0
  7 26  1  0  0  0
  7 29  1  0  0  0
  8  9  1  0  0  0
  8 22  1  0  0  0
  9 10  1  0  0  0
  9 27  2  0  0  0
 10 11  2  0  0  0
 10 15  1  0  0  0
 11 12  1  0  0  0
 11 95  1  0  0  0
 12 13  2  0  0  0
 12 96  1  0  0  0
 13 14  1  0  0  0
 13 31  1  0  0  0
 14 15  2  0  0  0
 14 97  1  0  0  0
 15 98  1  0  0  0
 16 17  2  0  0  0
 16 21  1  0  0  0
 16 31  1  0  0  0
 17 18  1  0  0  0
 17 99  1  0  0  0
 18 19  2  0  0  0
 18100  1  0  0  0
 19 20  1  0  0  0
 19 24  1  0  0  0
 20 21  2  0  0  0
 20101  1  0  0  0
 21 23  1  0  0  0
 22 28  1  0  0  0
 22 32  2  0  0  0
 26 27  1  0  0  0
 28102  1  0  0  0
 28103  1  0  0  0
 29104  1  0  0  0
 29105  1  0  0  0
 33 34  1  0  0  0
 33 66  1  0  0  0
 33 70  2  0  0  0
 34 36  1  0  0  0
 34 59  1  0  0  0
 34106  1  0  0  0
 35 44  2  0  0  0
 35 45  1  0  0  0
 35 68  1  0  0  0
 36 56  1  0  0  0
 36107  1  0  0  0
 37 39  1  0  0  0
 37 47  1  0  0  0
 37 66  1  0  0  0
 37108  1  0  0  0
 38 43  2  0  0  0
 38 46  1  0  0  0
 38 47  1  0  0  0
 39 64  1  0  0  0
 39 67  2  0  0  0
 40 52  1  0  0  0
 40 53  2  0  0  0
 40 58  1  0  0  0
 41109  1  0  0  0
 41110  1  0  0  0
 41111  1  0  0  0
 41 48  1  0  0  0
 42 43  1  0  0  0
 42 66  1  0  0  0
 42112  1  0  0  0
 42113  1  0  0  0
 43 44  1  0  0  0
 44114  1  0  0  0
 45 46  2  0  0  0
 45115  1  0  0  0
 46116  1  0  0  0
 47117  1  0  0  0
 47118  1  0  0  0
 48 56  1  0  0  0
 48 65  1  0  0  0
 48119  1  0  0  0
 49 50  1  0  0  0
 49 53  1  0  0  0
 49 64  1  0  0  0
 49120  1  0  0  0
 50 51  1  0  0  0
 50121  1  0  0  0
 50122  1  0  0  0
 51 52  1  0  0  0
 51123  1  0  0  0
 51124  1  0  0  0
 52125  1  0  0  0
 52126  1  0  0  0
 53 54  1  0  0  0
 54 55  2  0  0  0
 54127  1  0  0  0
 55 57  1  0  0  0
 55128  1  0  0  0
 56 69  2  0  0  0
 57 58  2  0  0  0
 57129  1  0  0  0
 58130  1  0  0  0
 59 60  1  0  0  0
 59 61  1  0  0  0
 59 62  1  0  0  0
 60131  1  0  0  0
 60132  1  0  0  0
 60133  1  0  0  0
 61134  1  0  0  0
 61135  1  0  0  0
 61136  1  0  0  0
 62137  1  0  0  0
 62138  1  0  0  0
 62139  1  0  0  0
 63 65  1  0  0  0
 63140  1  0  0  0
 63141  1  0  0  0
 63142  1  0  0  0
 64143  1  0  0  0
 65144  1  0  0  0
 68 79  1  0  0  0
 71 72  2  0  0  0
 71 73  1  0  0  0
 71145  1  0  0  0
 72 82  1  0  0  0
 72 77  1  0  0  0
 73 79  1  0  0  0
 73 83  2  0  0  0
 74 82  2  0  0  0
 74 83  1  0  0  0
 74 84  1  0  0  0
 75 76  1  0  0  0
 75 77  1  0  0  0
 75146  1  0  0  0
 75147  1  0  0  0
 76 77  1  0  0  0
 76148  1  0  0  0
 76149  1  0  0  0
 77150  1  0  0  0
 78151  1  0  0  0
 78152  1  0  0  0
 78153  1  0  0  0
 78 81  1  0  0  0
 79154  1  0  0  0
 79155  1  0  0  0
 80 81  1  0  0  0
 80 84  1  0  0  0
 80156  1  0  0  0
 80157  1  0  0  0
 81 85  1  0  0  0
 81158  1  0  0  0
 84159  1  0  0  0
 85160  1  0  0  0
M  ISO  4   1 100  68 101  79 101  85 100
M  END
> <chiral flag>
0

> <version>
0

> <s_m_source_file>
/data/baiqing/PycharmProjects/Reinvent-master-3.2/result/LINK_invent/BTK/process_docking_weight1_custom_sum_contain_oxygen_bond_distance_aromatic_linkinvent_7_9_3/rearranged_h_0179.sdf

> <i_m_source_file_index>
11

> <r_mmod_Potential_Energy-OPLS-2005>
-198.41162109375

> <r_mmod_Stretch_Energy-OPLS-2005>
141.499557495117

> <r_mmod_Bend_Energy-OPLS-2005>
323.559600830078

> <r_mmod_Torsional_Energy-OPLS-2005>
274.841766357422

> <r_mmod_Improper_Torsional_Energy-OPLS-2005>
13.3442764282227

> <r_mmod_Van_der_Waal_Energy-OPLS-2005>
136.288757324219

> <r_mmod_Electrostatic_Energy-OPLS-2005>
-965.664611816406

> <r_mmod_Solvation_Energy-OPLS-2005>
-249.111068725586

> <b_mmod_Minimization_Converged-OPLS-2005>
0

> <r_mmod_RMS_Derivative-OPLS-2005>
5.99888038635254

$$$$
11
                    3D
 Structure written by MMmdl.
155164  0  0  1  0            999 V2000
  -30.3853  -15.4564   20.3566 C   0  0  0  0  0  0
  -30.4253  -12.9529   19.5284 C   0  0  0  0  0  0
  -29.5381  -12.6128   18.3023 C   0  0  0  0  0  0
  -28.1001  -12.2961   18.7415 C   0  0  0  0  0  0
  -27.5996  -13.2923   19.8148 C   0  0  2  0  0  0
  -28.6253  -13.5630   20.9376 C   0  0  0  0  0  0
  -25.2361  -13.8277   20.5791 C   0  0  0  0  0  0
  -24.1722  -13.0445   20.9267 C   0  0  0  0  0  0
  -24.6398  -11.6947   20.8759 C   0  0  0  0  0  0
  -23.9099  -10.4298   21.0397 C   0  0  0  0  0  0
  -24.3642   -9.4212   21.9176 C   0  0  0  0  0  0
  -23.6309   -8.2249   22.0749 C   0  0  0  0  0  0
  -22.4289   -8.0286   21.3543 C   0  0  0  0  0  0
  -21.9931   -9.0259   20.4642 C   0  0  0  0  0  0
  -22.7267  -10.2136   20.3048 C   0  0  0  0  0  0
  -21.6861   -6.0739   22.5277 C   0  0  0  0  0  0
  -21.4020   -6.5640   23.8211 C   0  0  0  0  0  0
  -21.3662   -5.6791   24.9171 C   0  0  0  0  0  0
  -21.6045   -4.3054   24.7220 C   0  0  0  0  0  0
  -21.8820   -3.8148   23.4341 C   0  0  0  0  0  0
  -21.9197   -4.6966   22.3399 C   0  0  0  0  0  0
  -22.7739  -13.5188   21.1904 C   0  0  0  0  0  0
  -22.1663   -4.2153   21.0977 F   0  0  0  0  0  0
  -21.5628   -3.4537   25.7733 F   0  0  0  0  0  0
  -29.8199  -14.1294   20.2822 N   0  0  0  0  0  0
  -26.2782  -12.9570   20.3235 N   0  0  0  0  0  0
  -25.9338  -11.6659   20.5712 N   0  0  0  0  0  0
  -22.0404  -12.8166   22.0457 N   0  0  0  0  0  0
  -25.4027  -15.2017   20.4278 N   0  0  0  0  0  0
  -31.6151  -15.3887   20.1846 O   0  0  0  0  0  0
  -21.6649   -6.8883   21.4239 O   0  0  0  0  0  0
  -22.3417  -14.5485   20.6738 O   0  0  0  0  0  0
  -24.6738  -31.8108   23.1594 C   0  0  0  0  0  0
  -25.9367  -32.4520   23.8105 C   0  0  1  0  0  0
  -27.2177  -26.8058   20.2033 C   0  0  0  0  0  0
  -25.5986  -33.8341   24.2000 N   0  0  0  0  0  0
  -23.4943  -30.4166   21.5114 C   0  0  2  0  0  0
  -24.9479  -28.7763   20.1150 C   0  0  0  0  0  0
  -22.7720  -29.4371   22.4745 C   0  0  0  0  0  0
  -18.0331  -28.1413   22.8461 C   0  0  0  0  0  0
  -24.1497  -36.7177   23.2650 C   0  0  0  0  0  0
  -26.0691  -30.5777   21.4070 C   0  0  0  0  0  0
  -26.1345  -29.1537   20.7550 C   0  0  0  0  0  0
  -27.2595  -28.1932   20.7674 C   0  0  0  0  0  0
  -26.0004  -26.6074   19.5111 C   0  0  0  0  0  0
  -24.9133  -27.5273   19.4708 C   0  0  0  0  0  0
  -23.7409  -29.7209   20.1425 C   0  0  0  0  0  0
  -25.4143  -36.2926   24.0288 C   0  0  1  0  0  0
  -20.5960  -28.3766   23.1167 C   0  0  2  0  0  0
  -20.6801  -26.9437   22.5404 C   0  0  0  0  0  0
  -19.5776  -26.6372   21.5216 C   0  0  0  0  0  0
  -18.1958  -26.7944   22.1621 C   0  0  0  0  0  0
  -19.1595  -28.8912   23.2798 C   0  0  0  0  0  0
  -18.9502  -30.1498   23.8839 C   0  0  0  0  0  0
  -17.6494  -30.6600   24.0551 C   0  0  0  0  0  0
  -25.9115  -34.9314   23.4976 C   0  0  0  0  0  0
  -16.5384  -29.9083   23.6344 C   0  0  0  0  0  0
  -16.7312  -28.6504   23.0364 C   0  0  0  0  0  0
  -26.4576  -31.6516   25.0688 C   0  0  0  0  0  0
  -25.3666  -31.3803   26.1318 C   0  0  0  0  0  0
  -27.0496  -30.2870   24.6512 C   0  0  0  0  0  0
  -27.6043  -32.4354   25.7501 C   0  0  0  0  0  0
  -27.5568  -37.1746   24.8465 C   0  0  0  0  0  0
  -21.4377  -29.3034   22.3501 N   0  0  0  0  0  0
  -26.4277  -37.3676   23.9406 N   0  0  0  0  0  0
  -24.7682  -30.9655   22.0789 N   0  0  0  0  0  0
  -23.4215  -28.7962   23.3044 O   0  0  0  0  0  0
  -28.2119  -25.6544   20.2855 O   0  0  0  0  0  0
  -26.5745  -34.8873   22.4585 O   0  0  0  0  0  0
  -23.5782  -32.1135   23.6615 O   0  0  0  0  0  0
  -29.2037  -22.6307   20.7070 C   0  0  0  0  0  0
  -29.5650  -21.0251   20.6608 C   0  0  0  0  0  0
  -30.1674  -23.2972   21.5393 C   0  0  0  0  0  0
  -31.5788  -21.5267   21.7493 C   0  0  0  0  0  0
  -30.0946  -18.1314   19.5089 C   0  0  0  0  0  0
  -29.2981  -17.9476   21.2990 C   0  0  0  0  0  0
  -29.1965  -19.2958   20.3019 C   0  0  0  0  0  0
  -30.0247  -24.7076   22.0946 C   0  0  0  0  0  0
  -32.9029  -20.9825   22.2376 C   0  0  0  0  0  0
  -28.0724  -23.9418   20.1917 C   0  0  0  0  0  0
  -30.7716  -20.6911   21.1570 N   0  0  0  0  0  0
  -31.3093  -22.7747   21.9983 N   0  0  0  0  0  0
  -29.6774  -16.8144   20.2718 N   0  0  0  0  0  0
  -31.4318  -13.1820   19.1769 H   0  0  0  0  0  0
  -30.5398  -12.0844   20.1793 H   0  0  0  0  0  0
  -29.9577  -11.7732   17.7465 H   0  0  0  0  0  0
  -29.5299  -13.4625   17.6178 H   0  0  0  0  0  0
  -28.0940  -11.2854   19.1510 H   0  0  0  0  0  0
  -27.4290  -12.2831   17.8819 H   0  0  0  0  0  0
  -27.4826  -14.2331   19.2748 H   0  0  0  0  0  0
  -28.8477  -12.6627   21.5128 H   0  0  0  0  0  0
  -28.2267  -14.2942   21.6428 H   0  0  0  0  0  0
  -25.2782   -9.5691   22.4758 H   0  0  0  0  0  0
  -24.0016   -7.4643   22.7474 H   0  0  0  0  0  0
  -21.0860   -8.8780   19.8948 H   0  0  0  0  0  0
  -22.3718  -10.9674   19.6159 H   0  0  0  0  0  0
  -21.2014   -7.6149   23.9716 H   0  0  0  0  0  0
  -21.1484   -6.0519   25.9075 H   0  0  0  0  0  0
  -22.0598   -2.7611   23.2838 H   0  0  0  0  0  0
  -22.4044  -11.9841   22.4852 H   0  0  0  0  0  0
  -21.1014  -13.1163   22.2657 H   0  0  0  0  0  0
  -24.6415  -15.8590   20.5570 H   0  0  0  0  0  0
  -26.2638  -15.6449   20.1318 H   0  0  0  0  0  0
  -26.7443  -32.5019   23.0817 H   0  0  0  0  0  0
  -25.0054  -33.9398   25.0099 H   0  0  0  0  0  0
  -22.8137  -31.2513   21.3302 H   0  0  0  0  0  0
  -23.3774  -35.9492   23.3269 H   0  0  0  0  0  0
  -24.3568  -36.8876   22.2072 H   0  0  0  0  0  0
  -23.7242  -37.6343   23.6747 H   0  0  0  0  0  0
  -26.2625  -31.3100   20.6222 H   0  0  0  0  0  0
  -26.9238  -30.6394   22.0684 H   0  0  0  0  0  0
  -28.1562  -28.4842   21.2961 H   0  0  0  0  0  0
  -25.8553  -25.6556   19.0199 H   0  0  0  0  0  0
  -24.0142  -27.2317   18.9480 H   0  0  0  0  0  0
  -23.9091  -30.4845   19.3821 H   0  0  0  0  0  0
  -22.8471  -29.1836   19.8210 H   0  0  0  0  0  0
  -25.1349  -36.1701   25.0778 H   0  0  0  0  0  0
  -21.0046  -28.3380   24.1293 H   0  0  0  0  0  0
  -20.5670  -26.2388   23.3656 H   0  0  0  0  0  0
  -21.6664  -26.7392   22.1219 H   0  0  0  0  0  0
  -19.6933  -25.6267   21.1286 H   0  0  0  0  0  0
  -19.6717  -27.3149   20.6719 H   0  0  0  0  0  0
  -17.4229  -26.6687   21.4024 H   0  0  0  0  0  0
  -18.0349  -26.0100   22.9031 H   0  0  0  0  0  0
  -19.7977  -30.7328   24.2186 H   0  0  0  0  0  0
  -17.5043  -31.6274   24.5163 H   0  0  0  0  0  0
  -15.5380  -30.2966   23.7701 H   0  0  0  0  0  0
  -15.8713  -28.0801   22.7115 H   0  0  0  0  0  0
  -24.5876  -30.7125   25.7622 H   0  0  0  0  0  0
  -24.8822  -32.3013   26.4573 H   0  0  0  0  0  0
  -25.7863  -30.9083   27.0211 H   0  0  0  0  0  0
  -26.3190  -29.6508   24.1502 H   0  0  0  0  0  0
  -27.3966  -29.7283   25.5214 H   0  0  0  0  0  0
  -27.9154  -30.4026   23.9989 H   0  0  0  0  0  0
  -27.2597  -33.3713   26.1913 H   0  0  0  0  0  0
  -28.3941  -32.6823   25.0393 H   0  0  0  0  0  0
  -28.0618  -31.8592   26.5555 H   0  0  0  0  0  0
  -28.2557  -38.0068   24.7514 H   0  0  0  0  0  0
  -28.1092  -36.2591   24.6291 H   0  0  0  0  0  0
  -27.2282  -37.1382   25.8867 H   0  0  0  0  0  0
  -20.9660  -29.8708   21.6596 H   0  0  0  0  0  0
  -26.0111  -38.2729   24.1415 H   0  0  0  0  0  0
  -29.8646  -18.1086   18.4434 H   0  0  0  0  0  0
  -31.1640  -18.3298   19.6087 H   0  0  0  0  0  0
  -28.3591  -17.7669   21.8222 H   0  0  0  0  0  0
  -30.0757  -18.0806   22.0547 H   0  0  0  0  0  0
  -28.2015  -19.3045   19.8567 H   0  0  0  0  0  0
  -30.3316  -25.4490   21.3582 H   0  0  0  0  0  0
  -30.6625  -24.8613   22.9664 H   0  0  0  0  0  0
  -29.0126  -24.9063   22.4461 H   0  0  0  0  0  0
  -32.7457  -20.1110   22.8729 H   0  0  0  0  0  0
  -33.4526  -21.7258   22.8157 H   0  0  0  0  0  0
  -33.5239  -20.6848   21.3930 H   0  0  0  0  0  0
  -27.1381  -23.7140   20.7056 H   0  0  0  0  0  0
  -27.8600  -23.7339   19.1431 H   0  0  0  0  0  0
  1 25  1  0  0  0
  1 30  2  0  0  0
  1 83  1  0  0  0
  2  3  1  0  0  0
  2 25  1  0  0  0
  2 84  1  0  0  0
  2 85  1  0  0  0
  3  4  1  0  0  0
  3 86  1  0  0  0
  3 87  1  0  0  0
  4  5  1  0  0  0
  4 88  1  0  0  0
  4 89  1  0  0  0
  5  6  1  0  0  0
  5 26  1  0  0  0
  5 90  1  0  0  0
  6 25  1  0  0  0
  6 91  1  0  0  0
  6 92  1  0  0  0
  7  8  2  0  0  0
  7 26  1  0  0  0
  7 29  1  0  0  0
  8  9  1  0  0  0
  8 22  1  0  0  0
  9 10  1  0  0  0
  9 27  2  0  0  0
 10 11  2  0  0  0
 10 15  1  0  0  0
 11 12  1  0  0  0
 11 93  1  0  0  0
 12 13  2  0  0  0
 12 94  1  0  0  0
 13 14  1  0  0  0
 13 31  1  0  0  0
 14 15  2  0  0  0
 14 95  1  0  0  0
 15 96  1  0  0  0
 16 17  2  0  0  0
 16 21  1  0  0  0
 16 31  1  0  0  0
 17 18  1  0  0  0
 17 97  1  0  0  0
 18 19  2  0  0  0
 18 98  1  0  0  0
 19 20  1  0  0  0
 19 24  1  0  0  0
 20 21  2  0  0  0
 20 99  1  0  0  0
 21 23  1  0  0  0
 22 28  1  0  0  0
 22 32  2  0  0  0
 26 27  1  0  0  0
 28100  1  0  0  0
 28101  1  0  0  0
 29102  1  0  0  0
 29103  1  0  0  0
 33 34  1  0  0  0
 33 66  1  0  0  0
 33 70  2  0  0  0
 34 36  1  0  0  0
 34 59  1  0  0  0
 34104  1  0  0  0
 35 44  2  0  0  0
 35 45  1  0  0  0
 35 68  1  0  0  0
 36 56  1  0  0  0
 36105  1  0  0  0
 37 39  1  0  0  0
 37 47  1  0  0  0
 37 66  1  0  0  0
 37106  1  0  0  0
 38 43  2  0  0  0
 38 46  1  0  0  0
 38 47  1  0  0  0
 39 64  1  0  0  0
 39 67  2  0  0  0
 40 52  1  0  0  0
 40 53  2  0  0  0
 40 58  1  0  0  0
 41107  1  0  0  0
 41108  1  0  0  0
 41109  1  0  0  0
 41 48  1  0  0  0
 42 43  1  0  0  0
 42 66  1  0  0  0
 42110  1  0  0  0
 42111  1  0  0  0
 43 44  1  0  0  0
 44112  1  0  0  0
 45 46  2  0  0  0
 45113  1  0  0  0
 46114  1  0  0  0
 47115  1  0  0  0
 47116  1  0  0  0
 48 56  1  0  0  0
 48 65  1  0  0  0
 48117  1  0  0  0
 49 50  1  0  0  0
 49 53  1  0  0  0
 49 64  1  0  0  0
 49118  1  0  0  0
 50 51  1  0  0  0
 50119  1  0  0  0
 50120  1  0  0  0
 51 52  1  0  0  0
 51121  1  0  0  0
 51122  1  0  0  0
 52123  1  0  0  0
 52124  1  0  0  0
 53 54  1  0  0  0
 54 55  2  0  0  0
 54125  1  0  0  0
 55 57  1  0  0  0
 55126  1  0  0  0
 56 69  2  0  0  0
 57 58  2  0  0  0
 57127  1  0  0  0
 58128  1  0  0  0
 59 60  1  0  0  0
 59 61  1  0  0  0
 59 62  1  0  0  0
 60129  1  0  0  0
 60130  1  0  0  0
 60131  1  0  0  0
 61132  1  0  0  0
 61133  1  0  0  0
 61134  1  0  0  0
 62135  1  0  0  0
 62136  1  0  0  0
 62137  1  0  0  0
 63 65  1  0  0  0
 63138  1  0  0  0
 63139  1  0  0  0
 63140  1  0  0  0
 64141  1  0  0  0
 65142  1  0  0  0
 68 80  1  0  0  0
 71 72  1  0  0  0
 71 73  2  0  0  0
 71 80  1  0  0  0
 72 81  2  0  0  0
 72 77  1  0  0  0
 73 78  1  0  0  0
 73 82  1  0  0  0
 74 79  1  0  0  0
 74 81  1  0  0  0
 74 82  2  0  0  0
 75 77  1  0  0  0
 75 83  1  0  0  0
 75143  1  0  0  0
 75144  1  0  0  0
 76 77  1  0  0  0
 76 83  1  0  0  0
 76145  1  0  0  0
 76146  1  0  0  0
 77147  1  0  0  0
 78148  1  0  0  0
 78149  1  0  0  0
 78150  1  0  0  0
 79151  1  0  0  0
 79152  1  0  0  0
 79153  1  0  0  0
 80154  1  0  0  0
 80155  1  0  0  0
M  ISO  4   1 100  68 101  80 101  83 100
M  END
> <chiral flag>
0

> <version>
0

> <s_m_source_file>
/data/baiqing/PycharmProjects/Reinvent-master-3.2/result/LINK_invent/BTK/process_docking_weight1_custom_sum_contain_oxygen_bond_distance_aromatic_linkinvent_7_9_3/rearranged_h_0179.sdf

> <i_m_source_file_index>
12

> <r_mmod_Potential_Energy-OPLS-2005>
1683.34118652344

> <r_mmod_Stretch_Energy-OPLS-2005>
812.832214355469

> <r_mmod_Bend_Energy-OPLS-2005>
688.567565917969

> <r_mmod_Torsional_Energy-OPLS-2005>
286.771789550781

> <r_mmod_Improper_Torsional_Energy-OPLS-2005>
16.1772041320801

> <r_mmod_Van_der_Waal_Energy-OPLS-2005>
143.707153320312

> <r_mmod_Electrostatic_Energy-OPLS-2005>
-706.699584960938

> <r_mmod_Solvation_Energy-OPLS-2005>
-225.45329284668

> <b_mmod_Minimization_Converged-OPLS-2005>
0

> <r_mmod_RMS_Derivative-OPLS-2005>
0.448531955480576

$$$$
12
                    3D
 Structure written by MMmdl.
158167  0  0  1  0            999 V2000
  -30.6801  -14.6700   20.4725 C   0  0  0  0  0  0
  -30.4157  -12.4092   19.4725 C   0  0  0  0  0  0
  -29.4997  -12.5060   18.2347 C   0  0  0  0  0  0
  -28.0265  -12.3377   18.6526 C   0  0  0  0  0  0
  -27.6424  -13.2272   19.8600 C   0  0  2  0  0  0
  -28.6957  -13.1658   20.9917 C   0  0  0  0  0  0
  -25.2517  -13.8163   20.5763 C   0  0  0  0  0  0
  -24.1792  -13.0434   20.9222 C   0  0  0  0  0  0
  -24.6384  -11.6886   20.8760 C   0  0  0  0  0  0
  -23.9032  -10.4286   21.0410 C   0  0  0  0  0  0
  -24.3576   -9.4191   21.9191 C   0  0  0  0  0  0
  -23.6267   -8.2225   22.0776 C   0  0  0  0  0  0
  -22.4243   -8.0269   21.3579 C   0  0  0  0  0  0
  -21.9863   -9.0247   20.4677 C   0  0  0  0  0  0
  -22.7191  -10.2113   20.3081 C   0  0  0  0  0  0
  -21.6827   -6.0706   22.5273 C   0  0  0  0  0  0
  -21.4038   -6.5607   23.8207 C   0  0  0  0  0  0
  -21.3665   -5.6760   24.9161 C   0  0  0  0  0  0
  -21.6044   -4.3031   24.7229 C   0  0  0  0  0  0
  -21.8807   -3.8121   23.4351 C   0  0  0  0  0  0
  -21.9214   -4.6935   22.3406 C   0  0  0  0  0  0
  -22.7821  -13.5198   21.1897 C   0  0  0  0  0  0
  -22.1676   -4.2110   21.0981 F   0  0  0  0  0  0
  -21.5637   -3.4529   25.7745 F   0  0  0  0  0  0
  -30.0033  -13.4779   20.4039 N   0  0  0  0  0  0
  -26.2930  -12.9372   20.3354 N   0  0  0  0  0  0
  -25.9306  -11.6516   20.5821 N   0  0  0  0  0  0
  -22.0501  -12.8213   22.0462 N   0  0  0  0  0  0
  -25.4174  -15.1943   20.4282 N   0  0  0  0  0  0
  -31.8629  -14.7490   20.1328 O   0  0  0  0  0  0
  -21.6629   -6.8864   21.4228 O   0  0  0  0  0  0
  -22.3460  -14.5511   20.6727 O   0  0  0  0  0  0
  -24.6229  -31.8638   23.1980 C   0  0  0  0  0  0
  -25.9125  -32.4769   23.8315 C   0  0  1  0  0  0
  -27.2501  -27.3458   20.0838 C   0  0  0  0  0  0
  -25.5977  -33.8561   24.2272 N   0  0  0  0  0  0
  -23.4171  -30.4804   21.5400 C   0  0  2  0  0  0
  -24.8667  -28.9310   20.0961 C   0  0  0  0  0  0
  -22.7453  -29.4662   22.4940 C   0  0  0  0  0  0
  -18.0295  -28.1413   22.8494 C   0  0  0  0  0  0
  -24.1501  -36.7274   23.2626 C   0  0  0  0  0  0
  -25.9508  -30.7918   21.3661 C   0  0  0  0  0  0
  -26.0254  -29.4202   20.7068 C   0  0  0  0  0  0
  -27.2098  -28.6337   20.6991 C   0  0  0  0  0  0
  -26.0770  -26.9105   19.4285 C   0  0  0  0  0  0
  -24.8922  -27.6797   19.4534 C   0  0  0  0  0  0
  -23.6241  -29.8004   20.1557 C   0  0  0  0  0  0
  -25.4124  -36.3096   24.0347 C   0  0  1  0  0  0
  -20.5904  -28.3730   23.1269 C   0  0  2  0  0  0
  -20.6760  -26.9417   22.5411 C   0  0  0  0  0  0
  -19.5745  -26.6395   21.5210 C   0  0  0  0  0  0
  -18.1934  -26.7951   22.1651 C   0  0  0  0  0  0
  -19.1546  -28.8898   23.2884 C   0  0  0  0  0  0
  -18.9463  -30.1501   23.8887 C   0  0  0  0  0  0
  -17.6449  -30.6603   24.0579 C   0  0  0  0  0  0
  -25.9093  -34.9463   23.5120 C   0  0  0  0  0  0
  -16.5352  -29.9098   23.6305 C   0  0  0  0  0  0
  -16.7281  -28.6525   23.0327 C   0  0  0  0  0  0
  -26.4476  -31.6553   25.0677 C   0  0  0  0  0  0
  -25.3703  -31.3664   26.1384 C   0  0  0  0  0  0
  -27.0294  -30.2994   24.6092 C   0  0  0  0  0  0
  -27.6089  -32.4229   25.7419 C   0  0  0  0  0  0
  -27.5596  -37.1788   24.8474 C   0  0  0  0  0  0
  -21.4198  -29.3065   22.3665 N   0  0  0  0  0  0
  -26.4303  -37.3787   23.9435 N   0  0  0  0  0  0
  -24.6841  -31.0636   22.0904 N   0  0  0  0  0  0
  -23.4161  -28.8258   23.3098 O   0  0  0  0  0  0
  -28.4046  -26.5558   20.1868 O   0  0  0  0  0  0
  -26.5653  -34.8949   22.4672 O   0  0  0  0  0  0
  -23.5433  -32.1465   23.7317 O   0  0  0  0  0  0
  -27.1395  -23.3793   19.9262 C   0  0  0  0  0  0
  -28.4427  -23.8951   19.8236 C   0  0  0  0  0  0
  -26.9758  -21.9909   20.0956 C   0  0  0  0  0  0
  -29.2635  -21.6683   20.0926 C   0  0  0  0  0  0
  -29.5722  -18.4279   21.2172 C   0  0  0  0  0  0
  -30.7868  -18.0960   19.6434 C   0  0  0  0  0  0
  -30.5252  -17.2202   20.8935 C   0  0  2  0  0  0
  -28.7025  -25.3816   19.3457 C   0  0  0  0  0  0
  -30.4945  -20.6903   20.0122 C   0  0  0  0  0  0
  -25.5905  -21.3505   20.0840 C   0  0  0  0  0  0
  -29.4894  -23.0020   19.9163 N   0  0  0  0  0  0
  -28.0380  -21.1514   20.1684 N   0  0  0  0  0  0
  -29.9785  -15.8138   20.7425 N   0  0  0  0  0  0
  -30.6074  -19.2623   20.5581 N   0  3  1  0  0  0
  -25.5284  -20.3589   20.9776 F   0  0  0  0  0  0
  -25.3163  -20.8738   18.8643 F   0  0  0  0  0  0
  -31.4671  -12.4847   19.1955 H   0  0  0  0  0  0
  -30.3062  -11.4320   19.9444 H   0  0  0  0  0  0
  -29.7613  -11.7318   17.5123 H   0  0  0  0  0  0
  -29.6233  -13.4703   17.7344 H   0  0  0  0  0  0
  -27.8756  -11.2868   18.9017 H   0  0  0  0  0  0
  -27.3567  -12.5381   17.8176 H   0  0  0  0  0  0
  -27.6341  -14.2468   19.4777 H   0  0  0  0  0  0
  -28.7034  -12.1846   21.4634 H   0  0  0  0  0  0
  -28.4495  -13.8683   21.7833 H   0  0  0  0  0  0
  -25.2722   -9.5652   22.4793 H   0  0  0  0  0  0
  -23.9977   -7.4604   22.7464 H   0  0  0  0  0  0
  -21.0809   -8.8735   19.8981 H   0  0  0  0  0  0
  -22.3644  -10.9654   19.6215 H   0  0  0  0  0  0
  -21.2033   -7.6123   23.9692 H   0  0  0  0  0  0
  -21.1495   -6.0516   25.9068 H   0  0  0  0  0  0
  -22.0593   -2.7575   23.2853 H   0  0  0  0  0  0
  -22.4062  -11.9827   22.4824 H   0  0  0  0  0  0
  -21.1176  -13.1305   22.2716 H   0  0  0  0  0  0
  -24.6468  -15.8331   20.5984 H   0  0  0  0  0  0
  -26.2538  -15.6587   20.0993 H   0  0  0  0  0  0
  -26.7169  -32.5428   23.1048 H   0  0  0  0  0  0
  -25.0098  -33.9702   25.0400 H   0  0  0  0  0  0
  -22.7116  -31.3020   21.3945 H   0  0  0  0  0  0
  -23.3821  -35.9550   23.3297 H   0  0  0  0  0  0
  -24.3559  -36.8878   22.2032 H   0  0  0  0  0  0
  -23.7203  -37.6469   23.6604 H   0  0  0  0  0  0
  -26.0758  -31.5482   20.5910 H   0  0  0  0  0  0
  -26.8309  -30.8411   21.9939 H   0  0  0  0  0  0
  -28.1050  -29.0140   21.1734 H   0  0  0  0  0  0
  -26.0654  -25.9727   18.8960 H   0  0  0  0  0  0
  -24.0044  -27.3058   18.9611 H   0  0  0  0  0  0
  -23.7124  -30.5678   19.3846 H   0  0  0  0  0  0
  -22.7498  -29.2116   19.8786 H   0  0  0  0  0  0
  -25.1274  -36.1942   25.0838 H   0  0  0  0  0  0
  -20.9993  -28.3277   24.1388 H   0  0  0  0  0  0
  -20.5612  -26.2357   23.3643 H   0  0  0  0  0  0
  -21.6645  -26.7399   22.1260 H   0  0  0  0  0  0
  -19.6869  -25.6293   21.1294 H   0  0  0  0  0  0
  -19.6666  -27.3189   20.6745 H   0  0  0  0  0  0
  -17.4182  -26.6748   21.4054 H   0  0  0  0  0  0
  -18.0307  -26.0069   22.9024 H   0  0  0  0  0  0
  -19.7939  -30.7358   24.2214 H   0  0  0  0  0  0
  -17.4983  -31.6263   24.5228 H   0  0  0  0  0  0
  -15.5344  -30.2986   23.7634 H   0  0  0  0  0  0
  -15.8706  -28.0853   22.6977 H   0  0  0  0  0  0
  -24.5899  -30.7019   25.7653 H   0  0  0  0  0  0
  -24.8872  -32.2826   26.4813 H   0  0  0  0  0  0
  -25.7997  -30.8800   27.0157 H   0  0  0  0  0  0
  -26.2857  -29.6797   24.1074 H   0  0  0  0  0  0
  -27.3996  -29.7164   25.4544 H   0  0  0  0  0  0
  -27.8719  -30.4352   23.9297 H   0  0  0  0  0  0
  -27.2774  -33.3516   26.2067 H   0  0  0  0  0  0
  -28.3815  -32.6796   25.0159 H   0  0  0  0  0  0
  -28.0840  -31.8298   26.5256 H   0  0  0  0  0  0
  -28.2631  -38.0073   24.7511 H   0  0  0  0  0  0
  -28.1084  -36.2610   24.6292 H   0  0  0  0  0  0
  -27.2301  -37.1406   25.8873 H   0  0  0  0  0  0
  -20.9398  -29.8752   21.6828 H   0  0  0  0  0  0
  -26.0227  -38.2886   24.1408 H   0  0  0  0  0  0
  -26.2708  -24.0148   19.7937 H   0  0  0  0  0  0
  -29.4582  -18.6552   22.2743 H   0  0  0  0  0  0
  -28.6105  -18.4345   20.6956 H   0  0  0  0  0  0
  -30.0255  -18.0268   18.8614 H   0  0  0  0  0  0
  -31.7902  -18.0109   19.2241 H   0  0  0  0  0  0
  -31.3973  -17.2269   21.5615 H   0  0  0  0  0  0
  -28.2732  -25.5205   18.3556 H   0  0  0  0  0  0
  -29.7789  -25.4489   19.1864 H   0  0  0  0  0  0
  -31.2810  -21.2076   20.5645 H   0  0  0  0  0  0
  -30.8640  -20.7140   18.9882 H   0  0  0  0  0  0
  -24.8081  -22.0665   20.3414 H   0  0  0  0  0  0
  -29.0004  -15.6778   20.9588 H   0  0  0  0  0  0
  -31.4035  -19.2767   21.1738 H   0  0  0  0  0  0
  1 25  1  0  0  0
  1 30  2  0  0  0
  1 83  1  0  0  0
  2  3  1  0  0  0
  2 25  1  0  0  0
  2 87  1  0  0  0
  2 88  1  0  0  0
  3  4  1  0  0  0
  3 89  1  0  0  0
  3 90  1  0  0  0
  4  5  1  0  0  0
  4 91  1  0  0  0
  4 92  1  0  0  0
  5  6  1  0  0  0
  5 26  1  0  0  0
  5 93  1  0  0  0
  6 25  1  0  0  0
  6 94  1  0  0  0
  6 95  1  0  0  0
  7  8  2  0  0  0
  7 26  1  0  0  0
  7 29  1  0  0  0
  8  9  1  0  0  0
  8 22  1  0  0  0
  9 10  1  0  0  0
  9 27  2  0  0  0
 10 11  2  0  0  0
 10 15  1  0  0  0
 11 12  1  0  0  0
 11 96  1  0  0  0
 12 13  2  0  0  0
 12 97  1  0  0  0
 13 14  1  0  0  0
 13 31  1  0  0  0
 14 15  2  0  0  0
 14 98  1  0  0  0
 15 99  1  0  0  0
 16 17  2  0  0  0
 16 21  1  0  0  0
 16 31  1  0  0  0
 17 18  1  0  0  0
 17100  1  0  0  0
 18 19  2  0  0  0
 18101  1  0  0  0
 19 20  1  0  0  0
 19 24  1  0  0  0
 20 21  2  0  0  0
 20102  1  0  0  0
 21 23  1  0  0  0
 22 28  1  0  0  0
 22 32  2  0  0  0
 26 27  1  0  0  0
 28103  1  0  0  0
 28104  1  0  0  0
 29105  1  0  0  0
 29106  1  0  0  0
 33 34  1  0  0  0
 33 66  1  0  0  0
 33 70  2  0  0  0
 34 36  1  0  0  0
 34 59  1  0  0  0
 34107  1  0  0  0
 35 44  2  0  0  0
 35 45  1  0  0  0
 35 68  1  0  0  0
 36 56  1  0  0  0
 36108  1  0  0  0
 37 39  1  0  0  0
 37 47  1  0  0  0
 37 66  1  0  0  0
 37109  1  0  0  0
 38 43  2  0  0  0
 38 46  1  0  0  0
 38 47  1  0  0  0
 39 64  1  0  0  0
 39 67  2  0  0  0
 40 52  1  0  0  0
 40 53  2  0  0  0
 40 58  1  0  0  0
 41110  1  0  0  0
 41111  1  0  0  0
 41112  1  0  0  0
 41 48  1  0  0  0
 42 43  1  0  0  0
 42 66  1  0  0  0
 42113  1  0  0  0
 42114  1  0  0  0
 43 44  1  0  0  0
 44115  1  0  0  0
 45 46  2  0  0  0
 45116  1  0  0  0
 46117  1  0  0  0
 47118  1  0  0  0
 47119  1  0  0  0
 48 56  1  0  0  0
 48 65  1  0  0  0
 48120  1  0  0  0
 49 50  1  0  0  0
 49 53  1  0  0  0
 49 64  1  0  0  0
 49121  1  0  0  0
 50 51  1  0  0  0
 50122  1  0  0  0
 50123  1  0  0  0
 51 52  1  0  0  0
 51124  1  0  0  0
 51125  1  0  0  0
 52126  1  0  0  0
 52127  1  0  0  0
 53 54  1  0  0  0
 54 55  2  0  0  0
 54128  1  0  0  0
 55 57  1  0  0  0
 55129  1  0  0  0
 56 69  2  0  0  0
 57 58  2  0  0  0
 57130  1  0  0  0
 58131  1  0  0  0
 59 60  1  0  0  0
 59 61  1  0  0  0
 59 62  1  0  0  0
 60132  1  0  0  0
 60133  1  0  0  0
 60134  1  0  0  0
 61135  1  0  0  0
 61136  1  0  0  0
 61137  1  0  0  0
 62138  1  0  0  0
 62139  1  0  0  0
 62140  1  0  0  0
 63 65  1  0  0  0
 63141  1  0  0  0
 63142  1  0  0  0
 63143  1  0  0  0
 64144  1  0  0  0
 65145  1  0  0  0
 68 78  1  0  0  0
 71 72  2  0  0  0
 71 73  1  0  0  0
 71146  1  0  0  0
 72 78  1  0  0  0
 72 81  1  0  0  0
 73 80  1  0  0  0
 73 82  2  0  0  0
 74 79  1  0  0  0
 74 81  2  0  0  0
 74 82  1  0  0  0
 75 77  1  0  0  0
 75 84  1  0  0  0
 75147  1  0  0  0
 75148  1  0  0  0
 76 77  1  0  0  0
 76 84  1  0  0  0
 76149  1  0  0  0
 76150  1  0  0  0
 77 83  1  0  0  0
 77151  1  0  0  0
 78152  1  0  0  0
 78153  1  0  0  0
 79154  1  0  0  0
 79155  1  0  0  0
 79 84  1  0  0  0
 80 85  1  0  0  0
 80 86  1  0  0  0
 80156  1  0  0  0
 83157  1  0  0  0
 84158  1  0  0  0
M  CHG  1  84   1
M  ISO  4   1 100  68 101  78 101  83 100
M  END
> <chiral flag>
0

> <version>
0

> <s_m_source_file>
/data/baiqing/PycharmProjects/Reinvent-master-3.2/result/LINK_invent/BTK/process_docking_weight1_custom_sum_contain_oxygen_bond_distance_aromatic_linkinvent_7_9_3/rearranged_h_0179.sdf

> <i_m_source_file_index>
13

> <r_mmod_Potential_Energy-OPLS-2005>
-430.781646728516

> <r_mmod_Stretch_Energy-OPLS-2005>
84.8840484619141

> <r_mmod_Bend_Energy-OPLS-2005>
250.953582763672

> <r_mmod_Torsional_Energy-OPLS-2005>
234.758911132812

> <r_mmod_Improper_Torsional_Energy-OPLS-2005>
6.14139080047607

> <r_mmod_Van_der_Waal_Energy-OPLS-2005>
143.767990112305

> <r_mmod_Electrostatic_Energy-OPLS-2005>
-721.967651367188

> <r_mmod_Solvation_Energy-OPLS-2005>
-482.438903808594

> <b_mmod_Minimization_Converged-OPLS-2005>
0

> <r_mmod_RMS_Derivative-OPLS-2005>
7.74631404876709

$$$$
13
                    3D
 Structure written by MMmdl.
164174  0  0  1  0            999 V2000
  -30.7696  -14.5289   20.3836 C   0  0  0  0  0  0
  -30.4001  -12.3037   19.4619 C   0  0  0  0  0  0
  -29.5140  -12.4376   18.1980 C   0  0  0  0  0  0
  -28.0171  -12.6923   18.5027 C   0  0  0  0  0  0
  -27.7095  -12.7442   20.0035 C   0  0  2  0  0  0
  -28.7181  -13.2903   21.0109 C   0  0  0  0  0  0
  -25.3100  -13.7537   20.5569 C   0  0  0  0  0  0
  -24.1860  -13.0392   20.9094 C   0  0  0  0  0  0
  -24.5694  -11.6700   20.8847 C   0  0  0  0  0  0
  -23.8406  -10.4237   21.0574 C   0  0  0  0  0  0
  -24.3198   -9.4167   21.9218 C   0  0  0  0  0  0
  -23.6060   -8.2122   22.0693 C   0  0  0  0  0  0
  -22.4046   -8.0138   21.3491 C   0  0  0  0  0  0
  -21.9544   -9.0094   20.4650 C   0  0  0  0  0  0
  -22.6698  -10.2053   20.3130 C   0  0  0  0  0  0
  -21.6750   -6.0648   22.5281 C   0  0  0  0  0  0
  -21.3975   -6.5603   23.8201 C   0  0  0  0  0  0
  -21.3655   -5.6775   24.9191 C   0  0  0  0  0  0
  -21.6030   -4.3036   24.7259 C   0  0  0  0  0  0
  -21.8807   -3.8113   23.4391 C   0  0  0  0  0  0
  -21.9154   -4.6908   22.3429 C   0  0  0  0  0  0
  -22.8003  -13.5549   21.1768 C   0  0  0  0  0  0
  -22.1619   -4.2081   21.1032 F   0  0  0  0  0  0
  -21.5636   -3.4531   25.7774 F   0  0  0  0  0  0
  -30.0424  -13.3926   20.3811 N   0  0  0  0  0  0
  -26.3046  -12.7839   20.3791 N   0  0  0  0  0  0
  -25.8310  -11.5502   20.5925 N   0  0  0  0  0  0
  -22.0477  -12.8653   22.0308 N   0  0  0  0  0  0
  -25.5520  -15.1125   20.3791 N   0  0  0  0  0  0
  -31.9885  -14.5689   20.2291 O   0  0  0  0  0  0
  -21.6520   -6.8699   21.4180 O   0  0  0  0  0  0
  -22.3878  -14.5883   20.6582 O   0  0  0  0  0  0
  -24.6114  -31.8709   23.2122 C   0  0  0  0  0  0
  -25.9005  -32.4848   23.8417 C   0  0  1  0  0  0
  -27.2462  -27.4769   20.0834 C   0  0  0  0  0  0
  -25.5866  -33.8646   24.2353 N   0  0  0  0  0  0
  -23.3985  -30.4919   21.5534 C   0  0  2  0  0  0
  -24.8451  -28.9553   20.1203 C   0  0  0  0  0  0
  -22.7377  -29.4684   22.5038 C   0  0  0  0  0  0
  -18.0264  -28.1379   22.8488 C   0  0  0  0  0  0
  -24.1487  -36.7329   23.2649 C   0  0  0  0  0  0
  -25.9228  -30.8448   21.3608 C   0  0  0  0  0  0
  -26.0014  -29.4806   20.7123 C   0  0  0  0  0  0
  -27.2043  -28.7467   20.6939 C   0  0  0  0  0  0
  -26.0785  -26.9497   19.4968 C   0  0  0  0  0  0
  -24.8756  -27.6840   19.5146 C   0  0  0  0  0  0
  -23.6046  -29.8167   20.1698 C   0  0  0  0  0  0
  -25.4103  -36.3136   24.0363 C   0  0  1  0  0  0
  -20.5850  -28.3655   23.1344 C   0  0  2  0  0  0
  -20.6769  -26.9405   22.5425 C   0  0  0  0  0  0
  -19.5749  -26.6395   21.5217 C   0  0  0  0  0  0
  -18.1920  -26.7921   22.1625 C   0  0  0  0  0  0
  -19.1511  -28.8829   23.2913 C   0  0  0  0  0  0
  -18.9442  -30.1436   23.8922 C   0  0  0  0  0  0
  -17.6451  -30.6587   24.0564 C   0  0  0  0  0  0
  -25.9021  -34.9493   23.5156 C   0  0  0  0  0  0
  -16.5342  -29.9093   23.6327 C   0  0  0  0  0  0
  -16.7254  -28.6515   23.0331 C   0  0  0  0  0  0
  -26.4435  -31.6614   25.0728 C   0  0  0  0  0  0
  -25.3712  -31.3710   26.1491 C   0  0  0  0  0  0
  -27.0263  -30.3070   24.6074 C   0  0  0  0  0  0
  -27.6026  -32.4317   25.7460 C   0  0  0  0  0  0
  -27.5596  -37.1827   24.8471 C   0  0  0  0  0  0
  -21.4110  -29.3039   22.3757 N   0  0  0  0  0  0
  -26.4303  -37.3812   23.9412 N   0  0  0  0  0  0
  -24.6626  -31.0820   22.1015 N   0  0  0  0  0  0
  -23.4147  -28.8263   23.3102 O   0  0  0  0  0  0
  -28.4257  -26.7813   20.0287 O   0  0  0  0  0  0
  -26.5584  -34.8934   22.4721 O   0  0  0  0  0  0
  -23.5312  -32.1473   23.7518 O   0  0  0  0  0  0
  -30.4969  -20.5594   20.0268 C   0  0  0  0  0  0
  -29.9358  -21.8039   20.3749 C   0  0  0  0  0  0
  -28.5239  -19.4414   20.9026 C   0  0  0  0  0  0
  -29.7884  -19.3677   20.2844 C   0  0  0  0  0  0
  -28.6694  -21.8791   20.9984 C   0  0  0  0  0  0
  -27.9642  -20.6799   21.2707 C   0  0  0  0  0  0
  -29.5242  -17.4654   18.6538 C   0  0  0  0  0  0
  -26.8541  -23.7636   20.7152 C   0  0  0  0  0  0
  -29.7198  -15.9586   18.7528 C   0  0  0  0  0  0
  -30.3058  -16.8969   20.8656 C   0  0  0  0  0  0
  -30.3294  -18.0234   19.8151 C   0  0  2  0  0  0
  -28.0993  -23.2169   21.3694 C   0  0  2  0  0  0
  -28.1925  -24.4060   20.4350 C   0  0  2  0  0  0
  -26.5980  -20.6906   21.9375 C   0  0  0  0  0  0
  -28.5630  -25.7601   21.0081 C   0  0  0  0  0  0
  -30.0447  -15.6421   20.1508 N   0  0  0  0  0  0
  -31.4574  -12.3241   19.1871 H   0  0  0  0  0  0
  -30.2365  -11.3479   19.9604 H   0  0  0  0  0  0
  -29.6121  -11.5327   17.5959 H   0  0  0  0  0  0
  -29.8894  -13.2453   17.5708 H   0  0  0  0  0  0
  -27.4136  -11.9078   18.0428 H   0  0  0  0  0  0
  -27.6846  -13.6159   18.0323 H   0  0  0  0  0  0
  -27.9829  -11.6971   20.1818 H   0  0  0  0  0  0
  -28.7878  -12.6481   21.8904 H   0  0  0  0  0  0
  -28.3626  -14.2503   21.3875 H   0  0  0  0  0  0
  -25.2361   -9.5675   22.4733 H   0  0  0  0  0  0
  -23.9838   -7.4486   22.7337 H   0  0  0  0  0  0
  -21.0479   -8.8561   19.8987 H   0  0  0  0  0  0
  -22.3113  -10.9618   19.6293 H   0  0  0  0  0  0
  -21.1961   -7.6117   23.9713 H   0  0  0  0  0  0
  -21.1491   -6.0513   25.9082 H   0  0  0  0  0  0
  -22.0603   -2.7558   23.2908 H   0  0  0  0  0  0
  -22.3882  -12.0206   22.4664 H   0  0  0  0  0  0
  -21.1113  -13.1794   22.2452 H   0  0  0  0  0  0
  -24.8257  -15.8156   20.4445 H   0  0  0  0  0  0
  -26.4393  -15.4822   20.0631 H   0  0  0  0  0  0
  -26.7079  -32.5570   23.1189 H   0  0  0  0  0  0
  -24.9966  -33.9803   25.0463 H   0  0  0  0  0  0
  -22.6886  -31.3081   21.4129 H   0  0  0  0  0  0
  -23.3744  -35.9670   23.3316 H   0  0  0  0  0  0
  -24.3610  -36.8920   22.2067 H   0  0  0  0  0  0
  -23.7223  -37.6543   23.6630 H   0  0  0  0  0  0
  -26.0282  -31.6111   20.5916 H   0  0  0  0  0  0
  -26.8152  -30.9012   21.9731 H   0  0  0  0  0  0
  -28.1005  -29.1574   21.1388 H   0  0  0  0  0  0
  -26.1068  -25.9807   19.0183 H   0  0  0  0  0  0
  -23.9892  -27.2652   19.0580 H   0  0  0  0  0  0
  -23.7068  -30.5913   19.4091 H   0  0  0  0  0  0
  -22.7289  -29.2320   19.8804 H   0  0  0  0  0  0
  -25.1283  -36.2030   25.0864 H   0  0  0  0  0  0
  -20.9923  -28.3211   24.1472 H   0  0  0  0  0  0
  -20.5676  -26.2263   23.3605 H   0  0  0  0  0  0
  -21.6643  -26.7468   22.1223 H   0  0  0  0  0  0
  -19.6904  -25.6312   21.1230 H   0  0  0  0  0  0
  -19.6685  -27.3221   20.6765 H   0  0  0  0  0  0
  -17.4198  -26.6651   21.4030 H   0  0  0  0  0  0
  -18.0314  -26.0080   22.9039 H   0  0  0  0  0  0
  -19.7924  -30.7230   24.2307 H   0  0  0  0  0  0
  -17.5017  -31.6269   24.5153 H   0  0  0  0  0  0
  -15.5341  -30.2996   23.7647 H   0  0  0  0  0  0
  -15.8656  -28.0845   22.7016 H   0  0  0  0  0  0
  -24.5853  -30.7093   25.7835 H   0  0  0  0  0  0
  -24.8927  -32.2860   26.4997 H   0  0  0  0  0  0
  -25.8080  -30.8837   27.0214 H   0  0  0  0  0  0
  -26.2818  -29.6841   24.1112 H   0  0  0  0  0  0
  -27.4035  -29.7305   25.4530 H   0  0  0  0  0  0
  -27.8640  -30.4426   23.9229 H   0  0  0  0  0  0
  -27.2666  -33.3593   26.2107 H   0  0  0  0  0  0
  -28.3778  -32.6919   25.0236 H   0  0  0  0  0  0
  -28.0750  -31.8389   26.5307 H   0  0  0  0  0  0
  -28.2635  -38.0106   24.7527 H   0  0  0  0  0  0
  -28.1071  -36.2648   24.6282 H   0  0  0  0  0  0
  -27.2328  -37.1474   25.8879 H   0  0  0  0  0  0
  -20.9251  -29.8724   21.6966 H   0  0  0  0  0  0
  -26.0209  -38.2915   24.1349 H   0  0  0  0  0  0
  -31.4604  -20.5288   19.5397 H   0  0  0  0  0  0
  -30.4848  -22.7088   20.1457 H   0  0  0  0  0  0
  -27.9586  -18.5361   21.0720 H   0  0  0  0  0  0
  -28.4621  -17.6857   18.7816 H   0  0  0  0  0  0
  -29.8251  -17.8804   17.6906 H   0  0  0  0  0  0
  -26.1541  -24.3076   21.3465 H   0  0  0  0  0  0
  -26.4075  -23.1999   19.8986 H   0  0  0  0  0  0
  -30.5400  -15.6539   18.0978 H   0  0  0  0  0  0
  -28.8277  -15.4309   18.4245 H   0  0  0  0  0  0
  -29.4860  -17.0153   21.5712 H   0  0  0  0  0  0
  -31.2285  -16.8801   21.4498 H   0  0  0  0  0  0
  -31.3637  -18.1511   19.4852 H   0  0  0  0  0  0
  -28.2228  -23.4014   22.4348 H   0  0  0  0  0  0
  -28.6244  -24.2105   19.4555 H   0  0  0  0  0  0
  -26.2471  -19.6746   22.1223 H   0  0  0  0  0  0
  -25.8548  -21.1816   21.3086 H   0  0  0  0  0  0
  -26.6356  -21.2068   22.8969 H   0  0  0  0  0  0
  -29.6082  -25.7233   21.3138 H   0  0  0  0  0  0
  -27.9797  -25.9645   21.9110 H   0  0  0  0  0  0
  1 25  1  0  0  0
  1 30  2  0  0  0
  1 86  1  0  0  0
  2  3  1  0  0  0
  2 25  1  0  0  0
  2 87  1  0  0  0
  2 88  1  0  0  0
  3  4  1  0  0  0
  3 89  1  0  0  0
  3 90  1  0  0  0
  4  5  1  0  0  0
  4 91  1  0  0  0
  4 92  1  0  0  0
  5  6  1  0  0  0
  5 26  1  0  0  0
  5 93  1  0  0  0
  6 25  1  0  0  0
  6 94  1  0  0  0
  6 95  1  0  0  0
  7  8  2  0  0  0
  7 26  1  0  0  0
  7 29  1  0  0  0
  8  9  1  0  0  0
  8 22  1  0  0  0
  9 10  1  0  0  0
  9 27  2  0  0  0
 10 11  2  0  0  0
 10 15  1  0  0  0
 11 12  1  0  0  0
 11 96  1  0  0  0
 12 13  2  0  0  0
 12 97  1  0  0  0
 13 14  1  0  0  0
 13 31  1  0  0  0
 14 15  2  0  0  0
 14 98  1  0  0  0
 15 99  1  0  0  0
 16 17  2  0  0  0
 16 21  1  0  0  0
 16 31  1  0  0  0
 17 18  1  0  0  0
 17100  1  0  0  0
 18 19  2  0  0  0
 18101  1  0  0  0
 19 20  1  0  0  0
 19 24  1  0  0  0
 20 21  2  0  0  0
 20102  1  0  0  0
 21 23  1  0  0  0
 22 28  1  0  0  0
 22 32  2  0  0  0
 26 27  1  0  0  0
 28103  1  0  0  0
 28104  1  0  0  0
 29105  1  0  0  0
 29106  1  0  0  0
 33 34  1  0  0  0
 33 66  1  0  0  0
 33 70  2  0  0  0
 34 36  1  0  0  0
 34 59  1  0  0  0
 34107  1  0  0  0
 35 44  2  0  0  0
 35 45  1  0  0  0
 35 68  1  0  0  0
 36 56  1  0  0  0
 36108  1  0  0  0
 37 39  1  0  0  0
 37 47  1  0  0  0
 37 66  1  0  0  0
 37109  1  0  0  0
 38 43  2  0  0  0
 38 46  1  0  0  0
 38 47  1  0  0  0
 39 64  1  0  0  0
 39 67  2  0  0  0
 40 52  1  0  0  0
 40 53  2  0  0  0
 40 58  1  0  0  0
 41110  1  0  0  0
 41111  1  0  0  0
 41112  1  0  0  0
 41 48  1  0  0  0
 42 43  1  0  0  0
 42 66  1  0  0  0
 42113  1  0  0  0
 42114  1  0  0  0
 43 44  1  0  0  0
 44115  1  0  0  0
 45 46  2  0  0  0
 45116  1  0  0  0
 46117  1  0  0  0
 47118  1  0  0  0
 47119  1  0  0  0
 48 56  1  0  0  0
 48 65  1  0  0  0
 48120  1  0  0  0
 49 50  1  0  0  0
 49 53  1  0  0  0
 49 64  1  0  0  0
 49121  1  0  0  0
 50 51  1  0  0  0
 50122  1  0  0  0
 50123  1  0  0  0
 51 52  1  0  0  0
 51124  1  0  0  0
 51125  1  0  0  0
 52126  1  0  0  0
 52127  1  0  0  0
 53 54  1  0  0  0
 54 55  2  0  0  0
 54128  1  0  0  0
 55 57  1  0  0  0
 55129  1  0  0  0
 56 69  2  0  0  0
 57 58  2  0  0  0
 57130  1  0  0  0
 58131  1  0  0  0
 59 60  1  0  0  0
 59 61  1  0  0  0
 59 62  1  0  0  0
 60132  1  0  0  0
 60133  1  0  0  0
 60134  1  0  0  0
 61135  1  0  0  0
 61136  1  0  0  0
 61137  1  0  0  0
 62138  1  0  0  0
 62139  1  0  0  0
 62140  1  0  0  0
 63 65  1  0  0  0
 63141  1  0  0  0
 63142  1  0  0  0
 63143  1  0  0  0
 64144  1  0  0  0
 65145  1  0  0  0
 68 85  1  0  0  0
 71 72  2  0  0  0
 71 74  1  0  0  0
 71146  1  0  0  0
 72 75  1  0  0  0
 72147  1  0  0  0
 73 74  2  0  0  0
 73 76  1  0  0  0
 73148  1  0  0  0
 74 81  1  0  0  0
 75 76  2  0  0  0
 75 82  1  0  0  0
 76 84  1  0  0  0
 77 79  1  0  0  0
 77 81  1  0  0  0
 77149  1  0  0  0
 77150  1  0  0  0
 78 82  1  0  0  0
 78 83  1  0  0  0
 78151  1  0  0  0
 78152  1  0  0  0
 79 86  1  0  0  0
 79153  1  0  0  0
 79154  1  0  0  0
 80 81  1  0  0  0
 80 86  1  0  0  0
 80155  1  0  0  0
 80156  1  0  0  0
 81157  1  0  0  0
 82 83  1  0  0  0
 82158  1  0  0  0
 83 85  1  0  0  0
 83159  1  0  0  0
 84160  1  0  0  0
 84161  1  0  0  0
 84162  1  0  0  0
 85163  1  0  0  0
 85164  1  0  0  0
M  ISO  4   1 100  68 101  85 101  86 100
M  END
> <chiral flag>
0

> <version>
0

> <s_m_source_file>
/data/baiqing/PycharmProjects/Reinvent-master-3.2/result/LINK_invent/BTK/process_docking_weight1_custom_sum_contain_oxygen_bond_distance_aromatic_linkinvent_7_9_3/rearranged_h_0179.sdf

> <i_m_source_file_index>
14

> <r_mmod_Potential_Energy-OPLS-2005>
377.637237548828

> <r_mmod_Stretch_Energy-OPLS-2005>
31.2020435333252

> <r_mmod_Bend_Energy-OPLS-2005>
158.896026611328

> <r_mmod_Torsional_Energy-OPLS-2005>
435.283233642578

> <r_mmod_Improper_Torsional_Energy-OPLS-2005>
14.6347579956055

> <r_mmod_Van_der_Waal_Energy-OPLS-2005>
151.586975097656

> <r_mmod_Electrostatic_Energy-OPLS-2005>
-313.7041015625

> <r_mmod_Solvation_Energy-OPLS-2005>
-186.907485961914

> <b_mmod_Minimization_Converged-OPLS-2005>
0

> <r_mmod_RMS_Derivative-OPLS-2005>
4.40866184234619

$$$$
14
                    3D
 Structure written by MMmdl.
164173  0  0  1  0            999 V2000
  -30.6140  -14.7988   20.4615 C   0  0  0  0  0  0
  -30.4186  -12.4953   19.4801 C   0  0  0  0  0  0
  -29.5061  -12.5176   18.2365 C   0  0  0  0  0  0
  -28.0325  -12.3347   18.6444 C   0  0  0  0  0  0
  -27.6276  -13.2358   19.8413 C   0  0  2  0  0  0
  -28.6703  -13.2178   20.9776 C   0  0  0  0  0  0
  -25.2443  -13.8181   20.5706 C   0  0  0  0  0  0
  -24.1742  -13.0423   20.9199 C   0  0  0  0  0  0
  -24.6341  -11.6907   20.8726 C   0  0  0  0  0  0
  -23.9028  -10.4282   21.0411 C   0  0  0  0  0  0
  -24.3586   -9.4204   21.9185 C   0  0  0  0  0  0
  -23.6268   -8.2235   22.0757 C   0  0  0  0  0  0
  -22.4249   -8.0265   21.3551 C   0  0  0  0  0  0
  -21.9881   -9.0239   20.4658 C   0  0  0  0  0  0
  -22.7205  -10.2117   20.3068 C   0  0  0  0  0  0
  -21.6855   -6.0707   22.5260 C   0  0  0  0  0  0
  -21.4022   -6.5613   23.8190 C   0  0  0  0  0  0
  -21.3664   -5.6769   24.9155 C   0  0  0  0  0  0
  -21.6050   -4.3029   24.7217 C   0  0  0  0  0  0
  -21.8823   -3.8119   23.4336 C   0  0  0  0  0  0
  -21.9200   -4.6935   22.3392 C   0  0  0  0  0  0
  -22.7773  -13.5219   21.1861 C   0  0  0  0  0  0
  -22.1668   -4.2116   21.0972 F   0  0  0  0  0  0
  -21.5637   -3.4525   25.7740 F   0  0  0  0  0  0
  -29.9611  -13.5823   20.3831 N   0  0  0  0  0  0
  -26.2851  -12.9394   20.3254 N   0  0  0  0  0  0
  -25.9275  -11.6524   20.5717 N   0  0  0  0  0  0
  -22.0419  -12.8228   22.0415 N   0  0  0  0  0  0
  -25.4141  -15.1897   20.4170 N   0  0  0  0  0  0
  -31.8225  -14.8278   20.1995 O   0  0  0  0  0  0
  -21.6630   -6.8857   21.4223 O   0  0  0  0  0  0
  -22.3468  -14.5544   20.6743 O   0  0  0  0  0  0
  -24.6338  -31.8518   23.1928 C   0  0  0  0  0  0
  -25.9137  -32.4734   23.8313 C   0  0  1  0  0  0
  -27.2205  -27.2244   20.1398 C   0  0  0  0  0  0
  -25.5898  -33.8534   24.2241 N   0  0  0  0  0  0
  -23.4320  -30.4732   21.5356 C   0  0  2  0  0  0
  -24.8821  -28.9152   20.1017 C   0  0  0  0  0  0
  -22.7510  -29.4595   22.4878 C   0  0  0  0  0  0
  -18.0281  -28.1373   22.8471 C   0  0  0  0  0  0
  -24.1493  -36.7315   23.2639 C   0  0  0  0  0  0
  -25.9794  -30.7557   21.3748 C   0  0  0  0  0  0
  -26.0520  -29.3730   20.7196 C   0  0  0  0  0  0
  -27.2166  -28.5376   20.7333 C   0  0  0  0  0  0
  -26.0278  -26.8413   19.4876 C   0  0  0  0  0  0
  -24.8802  -27.6621   19.4713 C   0  0  0  0  0  0
  -23.6512  -29.8025   20.1517 C   0  0  0  0  0  0
  -25.4107  -36.3067   24.0330 C   0  0  1  0  0  0
  -20.5895  -28.3699   23.1248 C   0  0  2  0  0  0
  -20.6767  -26.9408   22.5403 C   0  0  0  0  0  0
  -19.5745  -26.6362   21.5204 C   0  0  0  0  0  0
  -18.1925  -26.7912   22.1611 C   0  0  0  0  0  0
  -19.1543  -28.8847   23.2859 C   0  0  0  0  0  0
  -18.9452  -30.1433   23.8899 C   0  0  0  0  0  0
  -17.6456  -30.6571   24.0555 C   0  0  0  0  0  0
  -25.9047  -34.9431   23.5097 C   0  0  0  0  0  0
  -16.5348  -29.9066   23.6314 C   0  0  0  0  0  0
  -16.7271  -28.6481   23.0344 C   0  0  0  0  0  0
  -26.4478  -31.6559   25.0719 C   0  0  0  0  0  0
  -25.3683  -31.3735   26.1436 C   0  0  0  0  0  0
  -27.0304  -30.2949   24.6238 C   0  0  0  0  0  0
  -27.6039  -32.4296   25.7491 C   0  0  0  0  0  0
  -27.5584  -37.1809   24.8455 C   0  0  0  0  0  0
  -21.4213  -29.3059   22.3642 N   0  0  0  0  0  0
  -26.4290  -37.3754   23.9400 N   0  0  0  0  0  0
  -24.7016  -31.0457   22.0913 N   0  0  0  0  0  0
  -23.4202  -28.8129   23.2980 O   0  0  0  0  0  0
  -28.3052  -26.3142   20.2726 O   0  0  0  0  0  0
  -26.5651  -34.8909   22.4690 O   0  0  0  0  0  0
  -23.5462  -32.1358   23.7178 O   0  0  0  0  0  0
  -29.3433  -21.5535   21.3924 C   0  0  0  0  0  0
  -28.2979  -21.1970   19.3262 C   0  0  0  0  0  0
  -29.1642  -22.9803   21.2120 C   0  0  0  0  0  0
  -28.9574  -20.5684   20.4282 C   0  0  0  0  0  0
  -28.5145  -23.4963   20.0435 C   0  0  0  0  0  0
  -29.7523  -18.4467   21.7511 C   0  0  0  0  0  0
  -29.1546  -18.1607   19.4119 C   0  0  0  0  0  0
  -30.5973  -17.1182   21.4811 C   0  0  0  0  0  0
  -28.9315  -16.6298   19.8136 C   0  0  0  0  0  0
  -31.2662  -23.7485   22.3648 C   0  0  0  0  0  0
  -29.0622  -23.6981   23.6353 C   0  0  0  0  0  0
  -28.4542  -25.0262   19.4907 C   0  0  0  0  0  0
  -29.7403  -23.9123   22.2717 C   0  0  0  0  0  0
  -28.0910  -22.5489   19.1511 N   0  0  0  0  0  0
  -29.2110  -19.1183   20.5445 N   0  0  0  0  0  0
  -29.9305  -16.0007   20.7360 N   0  0  0  0  0  0
  -31.4614  -12.6110   19.1801 H   0  0  0  0  0  0
  -30.3620  -11.5288   19.9837 H   0  0  0  0  0  0
  -29.8020  -11.7378   17.5340 H   0  0  0  0  0  0
  -29.6231  -13.4659   17.7105 H   0  0  0  0  0  0
  -27.8854  -11.2871   18.9051 H   0  0  0  0  0  0
  -27.3794  -12.5263   17.7933 H   0  0  0  0  0  0
  -27.5990  -14.2453   19.4389 H   0  0  0  0  0  0
  -28.7204  -12.2335   21.4463 H   0  0  0  0  0  0
  -28.3908  -13.9261   21.7596 H   0  0  0  0  0  0
  -25.2733   -9.5687   22.4755 H   0  0  0  0  0  0
  -23.9971   -7.4639   22.7501 H   0  0  0  0  0  0
  -21.0806   -8.8766   19.8982 H   0  0  0  0  0  0
  -22.3660  -10.9652   19.6178 H   0  0  0  0  0  0
  -21.2009   -7.6123   23.9668 H   0  0  0  0  0  0
  -21.1494   -6.0511   25.9054 H   0  0  0  0  0  0
  -22.0609   -2.7580   23.2839 H   0  0  0  0  0  0
  -22.4019  -11.9869   22.4782 H   0  0  0  0  0  0
  -21.1071  -13.1325   22.2701 H   0  0  0  0  0  0
  -24.6523  -15.8465   20.5487 H   0  0  0  0  0  0
  -26.2754  -15.6278   20.1198 H   0  0  0  0  0  0
  -26.7231  -32.5375   23.1073 H   0  0  0  0  0  0
  -24.9959  -33.9679   25.0322 H   0  0  0  0  0  0
  -22.7305  -31.2966   21.3886 H   0  0  0  0  0  0
  -23.3728  -35.9672   23.3279 H   0  0  0  0  0  0
  -24.3592  -36.8948   22.2057 H   0  0  0  0  0  0
  -23.7284  -37.6525   23.6682 H   0  0  0  0  0  0
  -26.1132  -31.5095   20.5970 H   0  0  0  0  0  0
  -26.8583  -30.8116   22.0053 H   0  0  0  0  0  0
  -28.1069  -28.8789   21.2431 H   0  0  0  0  0  0
  -25.9328  -25.8721   19.0245 H   0  0  0  0  0  0
  -23.9872  -27.3075   18.9772 H   0  0  0  0  0  0
  -23.7649  -30.5774   19.3926 H   0  0  0  0  0  0
  -22.7702  -29.2294   19.8553 H   0  0  0  0  0  0
  -25.1283  -36.1917   25.0820 H   0  0  0  0  0  0
  -20.9989  -28.3294   24.1370 H   0  0  0  0  0  0
  -20.5604  -26.2336   23.3625 H   0  0  0  0  0  0
  -21.6648  -26.7374   22.1261 H   0  0  0  0  0  0
  -19.6905  -25.6256   21.1267 H   0  0  0  0  0  0
  -19.6685  -27.3151   20.6718 H   0  0  0  0  0  0
  -17.4193  -26.6631   21.4020 H   0  0  0  0  0  0
  -18.0337  -26.0063   22.9010 H   0  0  0  0  0  0
  -19.7926  -30.7227   24.2315 H   0  0  0  0  0  0
  -17.5000  -31.6259   24.5136 H   0  0  0  0  0  0
  -15.5343  -30.2958   23.7631 H   0  0  0  0  0  0
  -15.8675  -28.0782   22.7071 H   0  0  0  0  0  0
  -24.5801  -30.7168   25.7737 H   0  0  0  0  0  0
  -24.8946  -32.2919   26.4919 H   0  0  0  0  0  0
  -25.7960  -30.8822   27.0184 H   0  0  0  0  0  0
  -26.2885  -29.6706   24.1248 H   0  0  0  0  0  0
  -27.3912  -29.7212   25.4787 H   0  0  0  0  0  0
  -27.8802  -30.4165   23.9519 H   0  0  0  0  0  0
  -27.2640  -33.3552   26.2146 H   0  0  0  0  0  0
  -28.3811  -32.6924   25.0307 H   0  0  0  0  0  0
  -28.0768  -31.8376   26.5332 H   0  0  0  0  0  0
  -28.2590  -38.0117   24.7479 H   0  0  0  0  0  0
  -28.1077  -36.2637   24.6272 H   0  0  0  0  0  0
  -27.2308  -37.1472   25.8860 H   0  0  0  0  0  0
  -20.9383  -29.8796   21.6873 H   0  0  0  0  0  0
  -26.0167  -38.2834   24.1333 H   0  0  0  0  0  0
  -29.8403  -21.2223   22.2919 H   0  0  0  0  0  0
  -27.9152  -20.5915   18.5194 H   0  0  0  0  0  0
  -30.3831  -19.1403   22.3055 H   0  0  0  0  0  0
  -28.9178  -18.2095   22.4149 H   0  0  0  0  0  0
  -28.3824  -18.4564   18.7032 H   0  0  0  0  0  0
  -30.0978  -18.2406   18.8697 H   0  0  0  0  0  0
  -30.9427  -16.7251   22.4383 H   0  0  0  0  0  0
  -31.5027  -17.3949   20.9398 H   0  0  0  0  0  0
  -28.8809  -16.0432   18.8950 H   0  0  0  0  0  0
  -27.9532  -16.5366   20.2842 H   0  0  0  0  0  0
  -31.7413  -24.0021   21.4169 H   0  0  0  0  0  0
  -31.5630  -22.7298   22.6165 H   0  0  0  0  0  0
  -31.6924  -24.3988   23.1276 H   0  0  0  0  0  0
  -27.9906  -23.8903   23.5730 H   0  0  0  0  0  0
  -29.4682  -24.3724   24.3897 H   0  0  0  0  0  0
  -29.1955  -22.6825   24.0085 H   0  0  0  0  0  0
  -27.8023  -25.0353   18.6196 H   0  0  0  0  0  0
  -29.4384  -25.1448   19.0363 H   0  0  0  0  0  0
  -29.5496  -24.9441   21.9818 H   0  0  0  0  0  0
  1 25  1  0  0  0
  1 30  2  0  0  0
  1 86  1  0  0  0
  2  3  1  0  0  0
  2 25  1  0  0  0
  2 87  1  0  0  0
  2 88  1  0  0  0
  3  4  1  0  0  0
  3 89  1  0  0  0
  3 90  1  0  0  0
  4  5  1  0  0  0
  4 91  1  0  0  0
  4 92  1  0  0  0
  5  6  1  0  0  0
  5 26  1  0  0  0
  5 93  1  0  0  0
  6 25  1  0  0  0
  6 94  1  0  0  0
  6 95  1  0  0  0
  7  8  2  0  0  0
  7 26  1  0  0  0
  7 29  1  0  0  0
  8  9  1  0  0  0
  8 22  1  0  0  0
  9 10  1  0  0  0
  9 27  2  0  0  0
 10 11  2  0  0  0
 10 15  1  0  0  0
 11 12  1  0  0  0
 11 96  1  0  0  0
 12 13  2  0  0  0
 12 97  1  0  0  0
 13 14  1  0  0  0
 13 31  1  0  0  0
 14 15  2  0  0  0
 14 98  1  0  0  0
 15 99  1  0  0  0
 16 17  2  0  0  0
 16 21  1  0  0  0
 16 31  1  0  0  0
 17 18  1  0  0  0
 17100  1  0  0  0
 18 19  2  0  0  0
 18101  1  0  0  0
 19 20  1  0  0  0
 19 24  1  0  0  0
 20 21  2  0  0  0
 20102  1  0  0  0
 21 23  1  0  0  0
 22 28  1  0  0  0
 22 32  2  0  0  0
 26 27  1  0  0  0
 28103  1  0  0  0
 28104  1  0  0  0
 29105  1  0  0  0
 29106  1  0  0  0
 33 34  1  0  0  0
 33 66  1  0  0  0
 33 70  2  0  0  0
 34 36  1  0  0  0
 34 59  1  0  0  0
 34107  1  0  0  0
 35 44  2  0  0  0
 35 45  1  0  0  0
 35 68  1  0  0  0
 36 56  1  0  0  0
 36108  1  0  0  0
 37 39  1  0  0  0
 37 47  1  0  0  0
 37 66  1  0  0  0
 37109  1  0  0  0
 38 43  2  0  0  0
 38 46  1  0  0  0
 38 47  1  0  0  0
 39 64  1  0  0  0
 39 67  2  0  0  0
 40 52  1  0  0  0
 40 53  2  0  0  0
 40 58  1  0  0  0
 41110  1  0  0  0
 41111  1  0  0  0
 41112  1  0  0  0
 41 48  1  0  0  0
 42 43  1  0  0  0
 42 66  1  0  0  0
 42113  1  0  0  0
 42114  1  0  0  0
 43 44  1  0  0  0
 44115  1  0  0  0
 45 46  2  0  0  0
 45116  1  0  0  0
 46117  1  0  0  0
 47118  1  0  0  0
 47119  1  0  0  0
 48 56  1  0  0  0
 48 65  1  0  0  0
 48120  1  0  0  0
 49 50  1  0  0  0
 49 53  1  0  0  0
 49 64  1  0  0  0
 49121  1  0  0  0
 50 51  1  0  0  0
 50122  1  0  0  0
 50123  1  0  0  0
 51 52  1  0  0  0
 51124  1  0  0  0
 51125  1  0  0  0
 52126  1  0  0  0
 52127  1  0  0  0
 53 54  1  0  0  0
 54 55  2  0  0  0
 54128  1  0  0  0
 55 57  1  0  0  0
 55129  1  0  0  0
 56 69  2  0  0  0
 57 58  2  0  0  0
 57130  1  0  0  0
 58131  1  0  0  0
 59 60  1  0  0  0
 59 61  1  0  0  0
 59 62  1  0  0  0
 60132  1  0  0  0
 60133  1  0  0  0
 60134  1  0  0  0
 61135  1  0  0  0
 61136  1  0  0  0
 61137  1  0  0  0
 62138  1  0  0  0
 62139  1  0  0  0
 62140  1  0  0  0
 63 65  1  0  0  0
 63141  1  0  0  0
 63142  1  0  0  0
 63143  1  0  0  0
 64144  1  0  0  0
 65145  1  0  0  0
 68 82  1  0  0  0
 71 73  2  0  0  0
 71 74  1  0  0  0
 71146  1  0  0  0
 72 74  2  0  0  0
 72 84  1  0  0  0
 72147  1  0  0  0
 73 75  1  0  0  0
 73 83  1  0  0  0
 74 85  1  0  0  0
 75 82  1  0  0  0
 75 84  2  0  0  0
 76 78  1  0  0  0
 76 85  1  0  0  0
 76148  1  0  0  0
 76149  1  0  0  0
 77 79  1  0  0  0
 77 85  1  0  0  0
 77150  1  0  0  0
 77151  1  0  0  0
 78 86  1  0  0  0
 78152  1  0  0  0
 78153  1  0  0  0
 79 86  1  0  0  0
 79154  1  0  0  0
 79155  1  0  0  0
 80156  1  0  0  0
 80157  1  0  0  0
 80158  1  0  0  0
 80 83  1  0  0  0
 81 83  1  0  0  0
 81159  1  0  0  0
 81160  1  0  0  0
 81161  1  0  0  0
 82162  1  0  0  0
 82163  1  0  0  0
 83164  1  0  0  0
M  ISO  4   1 100  68 101  82 101  86 100
M  END
> <chiral flag>
0

> <version>
0

> <s_m_source_file>
/data/baiqing/PycharmProjects/Reinvent-master-3.2/result/LINK_invent/BTK/process_docking_weight1_custom_sum_contain_oxygen_bond_distance_aromatic_linkinvent_7_9_3/rearranged_h_0179.sdf

> <i_m_source_file_index>
15

> <r_mmod_Potential_Energy-OPLS-2005>
423.364990234375

> <r_mmod_Stretch_Energy-OPLS-2005>
143.482147216797

> <r_mmod_Bend_Energy-OPLS-2005>
243.790954589844

> <r_mmod_Torsional_Energy-OPLS-2005>
350.488372802734

> <r_mmod_Improper_Torsional_Energy-OPLS-2005>
6.52674722671509

> <r_mmod_Van_der_Waal_Energy-OPLS-2005>
148.890075683594

> <r_mmod_Electrostatic_Energy-OPLS-2005>
-358.899017333984

> <r_mmod_Solvation_Energy-OPLS-2005>
-224.889373779297

> <b_mmod_Minimization_Converged-OPLS-2005>
0

> <r_mmod_RMS_Derivative-OPLS-2005>
3.07844161987305

$$$$
15
                    3D
 Structure written by MMmdl.
148157  0  0  1  0            999 V2000
  -30.4063  -15.3775   20.3536 C   0  0  0  0  0  0
  -30.4327  -12.8903   19.5313 C   0  0  0  0  0  0
  -29.5383  -12.5968   18.2988 C   0  0  0  0  0  0
  -28.0943  -12.2969   18.7324 C   0  0  0  0  0  0
  -27.6053  -13.2854   19.8187 C   0  0  2  0  0  0
  -28.6340  -13.5151   20.9478 C   0  0  0  0  0  0
  -25.2363  -13.8259   20.5763 C   0  0  0  0  0  0
  -24.1727  -13.0435   20.9268 C   0  0  0  0  0  0
  -24.6399  -11.6937   20.8766 C   0  0  0  0  0  0
  -23.9097  -10.4292   21.0404 C   0  0  0  0  0  0
  -24.3640   -9.4206   21.9184 C   0  0  0  0  0  0
  -23.6306   -8.2245   22.0754 C   0  0  0  0  0  0
  -22.4287   -8.0284   21.3544 C   0  0  0  0  0  0
  -21.9930   -9.0259   20.4645 C   0  0  0  0  0  0
  -22.7267  -10.2133   20.3054 C   0  0  0  0  0  0
  -21.6857   -6.0738   22.5278 C   0  0  0  0  0  0
  -21.4016   -6.5641   23.8211 C   0  0  0  0  0  0
  -21.3659   -5.6794   24.9172 C   0  0  0  0  0  0
  -21.6043   -4.3056   24.7224 C   0  0  0  0  0  0
  -21.8819   -3.8148   23.4345 C   0  0  0  0  0  0
  -21.9194   -4.6966   22.3401 C   0  0  0  0  0  0
  -22.7744  -13.5181   21.1909 C   0  0  0  0  0  0
  -22.1662   -4.2151   21.0978 F   0  0  0  0  0  0
  -21.5628   -3.4539   25.7735 F   0  0  0  0  0  0
  -29.8484  -14.0547   20.3093 N   0  0  0  0  0  0
  -26.2795  -12.9552   20.3224 N   0  0  0  0  0  0
  -25.9339  -11.6647   20.5720 N   0  0  0  0  0  0
  -22.0407  -12.8159   22.0463 N   0  0  0  0  0  0
  -25.3982  -15.1996   20.4194 N   0  0  0  0  0  0
  -31.6318  -15.3445   20.1582 O   0  0  0  0  0  0
  -21.6647   -6.8883   21.4242 O   0  0  0  0  0  0
  -22.3424  -14.5481   20.6748 O   0  0  0  0  0  0
  -24.6699  -31.8161   23.1644 C   0  0  0  0  0  0
  -25.9347  -32.4549   23.8134 C   0  0  1  0  0  0
  -27.2183  -26.8535   20.1923 C   0  0  0  0  0  0
  -25.5987  -33.8368   24.2033 N   0  0  0  0  0  0
  -23.4885  -30.4251   21.5151 C   0  0  2  0  0  0
  -24.9437  -28.7993   20.1124 C   0  0  0  0  0  0
  -22.7703  -29.4401   22.4754 C   0  0  0  0  0  0
  -18.0327  -28.1415   22.8463 C   0  0  0  0  0  0
  -24.1491  -36.7185   23.2650 C   0  0  0  0  0  0
  -26.0624  -30.5981   21.4069 C   0  0  0  0  0  0
  -26.1297  -29.1804   20.7519 C   0  0  0  0  0  0
  -27.2590  -28.2305   20.7658 C   0  0  0  0  0  0
  -26.0033  -26.6473   19.4971 C   0  0  0  0  0  0
  -24.9105  -27.5550   19.4633 C   0  0  0  0  0  0
  -23.7332  -29.7363   20.1438 C   0  0  0  0  0  0
  -25.4137  -36.2944   24.0295 C   0  0  1  0  0  0
  -20.5957  -28.3764   23.1171 C   0  0  2  0  0  0
  -20.6801  -26.9438   22.5401 C   0  0  0  0  0  0
  -19.5774  -26.6376   21.5216 C   0  0  0  0  0  0
  -18.1957  -26.7945   22.1623 C   0  0  0  0  0  0
  -19.1591  -28.8910   23.2802 C   0  0  0  0  0  0
  -18.9502  -30.1497   23.8842 C   0  0  0  0  0  0
  -17.6495  -30.6601   24.0553 C   0  0  0  0  0  0
  -25.9109  -34.9329   23.4990 C   0  0  0  0  0  0
  -16.5384  -29.9087   23.6349 C   0  0  0  0  0  0
  -16.7309  -28.6508   23.0367 C   0  0  0  0  0  0
  -26.4573  -31.6526   25.0696 C   0  0  0  0  0  0
  -25.3678  -31.3800   26.1337 C   0  0  0  0  0  0
  -27.0485  -30.2883   24.6491 C   0  0  0  0  0  0
  -27.6048  -32.4355   25.7505 C   0  0  0  0  0  0
  -27.5566  -37.1749   24.8468 C   0  0  0  0  0  0
  -21.4364  -29.3039   22.3508 N   0  0  0  0  0  0
  -26.4273  -37.3691   23.9412 N   0  0  0  0  0  0
  -24.7623  -30.9752   22.0819 N   0  0  0  0  0  0
  -23.4215  -28.7977   23.3029 O   0  0  0  0  0  0
  -28.1881  -25.6940   20.2826 O   0  0  0  0  0  0
  -26.5729  -34.8880   22.4592 O   0  0  0  0  0  0
  -23.5752  -32.1167   23.6690 O   0  0  0  0  0  0
  -28.3503  -20.9912   19.8572 C   0  0  0  0  0  0
  -29.2820  -19.9507   20.2989 C   0  0  0  0  0  0
  -28.6510  -22.4557   20.2777 C   0  0  0  0  0  0
  -31.1525  -18.6839   21.3190 C   0  0  0  0  0  0
  -31.2711  -20.2367   21.5495 C   0  0  0  0  0  0
  -30.0345  -18.3498   20.2851 C   0  0  1  0  0  0
  -27.8552  -24.0619   20.0440 C   0  0  0  0  0  0
  -29.7802  -22.2197   20.9937 N   0  0  0  0  0  0
  -30.0916  -20.8389   20.9674 N   0  0  0  0  0  0
  -29.6661  -16.6924   20.4189 N   0  0  0  0  0  0
  -31.4452  -13.1077   19.1887 H   0  0  0  0  0  0
  -30.5263  -12.0052   20.1629 H   0  0  0  0  0  0
  -29.9407  -11.7611   17.7245 H   0  0  0  0  0  0
  -29.5467  -13.4607   17.6324 H   0  0  0  0  0  0
  -28.0735  -11.2809   19.1286 H   0  0  0  0  0  0
  -27.4243  -12.3049   17.8720 H   0  0  0  0  0  0
  -27.5024  -14.2370   19.2957 H   0  0  0  0  0  0
  -28.8310  -12.5993   21.5072 H   0  0  0  0  0  0
  -28.2509  -14.2419   21.6658 H   0  0  0  0  0  0
  -25.2780   -9.5681   22.4766 H   0  0  0  0  0  0
  -24.0009   -7.4637   22.7479 H   0  0  0  0  0  0
  -21.0861   -8.8784   19.8952 H   0  0  0  0  0  0
  -22.3726  -10.9674   19.6167 H   0  0  0  0  0  0
  -21.2010   -7.6149   23.9714 H   0  0  0  0  0  0
  -21.1480   -6.0523   25.9074 H   0  0  0  0  0  0
  -22.0598   -2.7611   23.2844 H   0  0  0  0  0  0
  -22.4046  -11.9831   22.4851 H   0  0  0  0  0  0
  -21.1018  -13.1162   22.2669 H   0  0  0  0  0  0
  -24.6256  -15.8476   20.5294 H   0  0  0  0  0  0
  -26.2362  -15.6411   20.0650 H   0  0  0  0  0  0
  -26.7420  -32.5064   23.0847 H   0  0  0  0  0  0
  -25.0075  -33.9432   25.0145 H   0  0  0  0  0  0
  -22.8059  -31.2590   21.3383 H   0  0  0  0  0  0
  -23.3769  -35.9499   23.3280 H   0  0  0  0  0  0
  -24.3564  -36.8866   22.2071 H   0  0  0  0  0  0
  -23.7234  -37.6356   23.6731 H   0  0  0  0  0  0
  -26.2520  -31.3350   20.6252 H   0  0  0  0  0  0
  -26.9189  -30.6569   22.0665 H   0  0  0  0  0  0
  -28.1520  -28.5208   21.3011 H   0  0  0  0  0  0
  -25.8549  -25.7008   18.9986 H   0  0  0  0  0  0
  -24.0119  -27.2565   18.9411 H   0  0  0  0  0  0
  -23.8950  -30.5029   19.3851 H   0  0  0  0  0  0
  -22.8413  -29.1952   19.8231 H   0  0  0  0  0  0
  -25.1337  -36.1727   25.0785 H   0  0  0  0  0  0
  -21.0045  -28.3377   24.1296 H   0  0  0  0  0  0
  -20.5678  -26.2385   23.3649 H   0  0  0  0  0  0
  -21.6662  -26.7402   22.1211 H   0  0  0  0  0  0
  -19.6933  -25.6273   21.1280 H   0  0  0  0  0  0
  -19.6714  -27.3156   20.6723 H   0  0  0  0  0  0
  -17.4226  -26.6690   21.4026 H   0  0  0  0  0  0
  -18.0346  -26.0101   22.9032 H   0  0  0  0  0  0
  -19.7978  -30.7326   24.2189 H   0  0  0  0  0  0
  -17.5047  -31.6277   24.5163 H   0  0  0  0  0  0
  -15.5381  -30.2971   23.7705 H   0  0  0  0  0  0
  -15.8710  -28.0804   22.7120 H   0  0  0  0  0  0
  -24.5884  -30.7125   25.7643 H   0  0  0  0  0  0
  -24.8841  -32.3007   26.4610 H   0  0  0  0  0  0
  -25.7889  -30.9070   27.0217 H   0  0  0  0  0  0
  -26.3175  -29.6535   24.1473 H   0  0  0  0  0  0
  -27.3961  -29.7278   25.5180 H   0  0  0  0  0  0
  -27.9135  -30.4046   23.9959 H   0  0  0  0  0  0
  -27.2608  -33.3713   26.1923 H   0  0  0  0  0  0
  -28.3940  -32.6825   25.0390 H   0  0  0  0  0  0
  -28.0626  -31.8590   26.5554 H   0  0  0  0  0  0
  -28.2560  -38.0065   24.7516 H   0  0  0  0  0  0
  -28.1082  -36.2589   24.6293 H   0  0  0  0  0  0
  -27.2280  -37.1386   25.8870 H   0  0  0  0  0  0
  -20.9636  -29.8721   21.6618 H   0  0  0  0  0  0
  -26.0113  -38.2743   24.1428 H   0  0  0  0  0  0
  -27.5159  -20.7467   19.2148 H   0  0  0  0  0  0
  -30.8746  -18.2359   22.2731 H   0  0  0  0  0  0
  -32.1091  -18.2413   21.0406 H   0  0  0  0  0  0
  -32.1499  -20.6387   21.0445 H   0  0  0  0  0  0
  -31.3361  -20.4893   22.6082 H   0  0  0  0  0  0
  -30.5267  -18.3414   19.3118 H   0  0  0  0  0  0
  -26.9032  -23.9600   20.5652 H   0  0  0  0  0  0
  -27.5608  -24.0554   18.9948 H   0  0  0  0  0  0
  -28.6747  -16.5437   20.5350 H   0  0  0  0  0  0
  1 25  1  0  0  0
  1 30  2  0  0  0
  1 80  1  0  0  0
  2  3  1  0  0  0
  2 25  1  0  0  0
  2 81  1  0  0  0
  2 82  1  0  0  0
  3  4  1  0  0  0
  3 83  1  0  0  0
  3 84  1  0  0  0
  4  5  1  0  0  0
  4 85  1  0  0  0
  4 86  1  0  0  0
  5  6  1  0  0  0
  5 26  1  0  0  0
  5 87  1  0  0  0
  6 25  1  0  0  0
  6 88  1  0  0  0
  6 89  1  0  0  0
  7  8  2  0  0  0
  7 26  1  0  0  0
  7 29  1  0  0  0
  8  9  1  0  0  0
  8 22  1  0  0  0
  9 10  1  0  0  0
  9 27  2  0  0  0
 10 11  2  0  0  0
 10 15  1  0  0  0
 11 12  1  0  0  0
 11 90  1  0  0  0
 12 13  2  0  0  0
 12 91  1  0  0  0
 13 14  1  0  0  0
 13 31  1  0  0  0
 14 15  2  0  0  0
 14 92  1  0  0  0
 15 93  1  0  0  0
 16 17  2  0  0  0
 16 21  1  0  0  0
 16 31  1  0  0  0
 17 18  1  0  0  0
 17 94  1  0  0  0
 18 19  2  0  0  0
 18 95  1  0  0  0
 19 20  1  0  0  0
 19 24  1  0  0  0
 20 21  2  0  0  0
 20 96  1  0  0  0
 21 23  1  0  0  0
 22 28  1  0  0  0
 22 32  2  0  0  0
 26 27  1  0  0  0
 28 97  1  0  0  0
 28 98  1  0  0  0
 29 99  1  0  0  0
 29100  1  0  0  0
 33 34  1  0  0  0
 33 66  1  0  0  0
 33 70  2  0  0  0
 34 36  1  0  0  0
 34 59  1  0  0  0
 34101  1  0  0  0
 35 44  2  0  0  0
 35 45  1  0  0  0
 35 68  1  0  0  0
 36 56  1  0  0  0
 36102  1  0  0  0
 37 39  1  0  0  0
 37 47  1  0  0  0
 37 66  1  0  0  0
 37103  1  0  0  0
 38 43  2  0  0  0
 38 46  1  0  0  0
 38 47  1  0  0  0
 39 64  1  0  0  0
 39 67  2  0  0  0
 40 52  1  0  0  0
 40 53  2  0  0  0
 40 58  1  0  0  0
 41104  1  0  0  0
 41105  1  0  0  0
 41106  1  0  0  0
 41 48  1  0  0  0
 42 43  1  0  0  0
 42 66  1  0  0  0
 42107  1  0  0  0
 42108  1  0  0  0
 43 44  1  0  0  0
 44109  1  0  0  0
 45 46  2  0  0  0
 45110  1  0  0  0
 46111  1  0  0  0
 47112  1  0  0  0
 47113  1  0  0  0
 48 56  1  0  0  0
 48 65  1  0  0  0
 48114  1  0  0  0
 49 50  1  0  0  0
 49 53  1  0  0  0
 49 64  1  0  0  0
 49115  1  0  0  0
 50 51  1  0  0  0
 50116  1  0  0  0
 50117  1  0  0  0
 51 52  1  0  0  0
 51118  1  0  0  0
 51119  1  0  0  0
 52120  1  0  0  0
 52121  1  0  0  0
 53 54  1  0  0  0
 54 55  2  0  0  0
 54122  1  0  0  0
 55 57  1  0  0  0
 55123  1  0  0  0
 56 69  2  0  0  0
 57 58  2  0  0  0
 57124  1  0  0  0
 58125  1  0  0  0
 59 60  1  0  0  0
 59 61  1  0  0  0
 59 62  1  0  0  0
 60126  1  0  0  0
 60127  1  0  0  0
 60128  1  0  0  0
 61129  1  0  0  0
 61130  1  0  0  0
 61131  1  0  0  0
 62132  1  0  0  0
 62133  1  0  0  0
 62134  1  0  0  0
 63 65  1  0  0  0
 63135  1  0  0  0
 63136  1  0  0  0
 63137  1  0  0  0
 64138  1  0  0  0
 65139  1  0  0  0
 68 77  1  0  0  0
 71 72  2  0  0  0
 71 73  1  0  0  0
 71140  1  0  0  0
 72 76  1  0  0  0
 72 79  1  0  0  0
 73 77  1  0  0  0
 73 78  2  0  0  0
 74 75  1  0  0  0
 74 76  1  0  0  0
 74141  1  0  0  0
 74142  1  0  0  0
 75 79  1  0  0  0
 75143  1  0  0  0
 75144  1  0  0  0
 76 80  1  0  0  0
 76145  1  0  0  0
 77146  1  0  0  0
 77147  1  0  0  0
 78 79  1  0  0  0
 80148  1  0  0  0
M  ISO  4   1 100  68 101  77 101  80 100
M  END
> <chiral flag>
0

> <version>
0

> <s_m_source_file>
/data/baiqing/PycharmProjects/Reinvent-master-3.2/result/LINK_invent/BTK/process_docking_weight1_custom_sum_contain_oxygen_bond_distance_aromatic_linkinvent_7_9_3/rearranged_h_0179.sdf

> <i_m_source_file_index>
16

> <r_mmod_Potential_Energy-OPLS-2005>
1553.31665039062

> <r_mmod_Stretch_Energy-OPLS-2005>
675.261901855469

> <r_mmod_Bend_Energy-OPLS-2005>
583.499267578125

> <r_mmod_Torsional_Energy-OPLS-2005>
230.018829345703

> <r_mmod_Improper_Torsional_Energy-OPLS-2005>
4.58993721008301

> <r_mmod_Van_der_Waal_Energy-OPLS-2005>
105.267913818359

> <r_mmod_Electrostatic_Energy-OPLS-2005>
-388.349456787109

> <r_mmod_Solvation_Energy-OPLS-2005>
-240.781982421875

> <b_mmod_Minimization_Converged-OPLS-2005>
0

> <r_mmod_RMS_Derivative-OPLS-2005>
0.372758895158768

$$$$
16
                    3D
 Structure written by MMmdl.
151160  0  0  1  0            999 V2000
  -30.3641  -15.4041   20.3583 C   0  0  0  0  0  0
  -30.4365  -12.9103   19.5259 C   0  0  0  0  0  0
  -29.5437  -12.6025   18.2952 C   0  0  0  0  0  0
  -28.1016  -12.2881   18.7336 C   0  0  0  0  0  0
  -27.6020  -13.2799   19.8127 C   0  0  2  0  0  0
  -28.6295  -13.5178   20.9395 C   0  0  0  0  0  0
  -25.2362  -13.8232   20.5766 C   0  0  0  0  0  0
  -24.1729  -13.0412   20.9239 C   0  0  0  0  0  0
  -24.6390  -11.6909   20.8734 C   0  0  0  0  0  0
  -23.9084  -10.4274   21.0381 C   0  0  0  0  0  0
  -24.3637   -9.4207   21.9172 C   0  0  0  0  0  0
  -23.6306   -8.2248   22.0747 C   0  0  0  0  0  0
  -22.4284   -8.0278   21.3542 C   0  0  0  0  0  0
  -21.9923   -9.0249   20.4631 C   0  0  0  0  0  0
  -22.7253  -10.2123   20.3037 C   0  0  0  0  0  0
  -21.6848   -6.0721   22.5288 C   0  0  0  0  0  0
  -21.4024   -6.5634   23.8216 C   0  0  0  0  0  0
  -21.3663   -5.6785   24.9180 C   0  0  0  0  0  0
  -21.6051   -4.3055   24.7232 C   0  0  0  0  0  0
  -21.8809   -3.8138   23.4358 C   0  0  0  0  0  0
  -21.9201   -4.6946   22.3408 C   0  0  0  0  0  0
  -22.7750  -13.5173   21.1911 C   0  0  0  0  0  0
  -22.1663   -4.2137   21.0982 F   0  0  0  0  0  0
  -21.5626   -3.4534   25.7743 F   0  0  0  0  0  0
  -29.8362  -14.0692   20.2948 N   0  0  0  0  0  0
  -26.2771  -12.9508   20.3190 N   0  0  0  0  0  0
  -25.9330  -11.6608   20.5680 N   0  0  0  0  0  0
  -22.0425  -12.8156   22.0458 N   0  0  0  0  0  0
  -25.3987  -15.1971   20.4230 N   0  0  0  0  0  0
  -31.6006  -15.4023   20.2278 O   0  0  0  0  0  0
  -21.6644   -6.8879   21.4247 O   0  0  0  0  0  0
  -22.3452  -14.5481   20.6743 O   0  0  0  0  0  0
  -24.6724  -31.8081   23.1630 C   0  0  0  0  0  0
  -25.9359  -32.4496   23.8143 C   0  0  1  0  0  0
  -27.2388  -26.8546   20.1933 C   0  0  0  0  0  0
  -25.5998  -33.8331   24.2037 N   0  0  0  0  0  0
  -23.4948  -30.4172   21.5094 C   0  0  2  0  0  0
  -24.9525  -28.7899   20.1135 C   0  0  0  0  0  0
  -22.7695  -29.4342   22.4680 C   0  0  0  0  0  0
  -18.0331  -28.1371   22.8410 C   0  0  0  0  0  0
  -24.1520  -36.7198   23.2652 C   0  0  0  0  0  0
  -26.0682  -30.5909   21.4047 C   0  0  0  0  0  0
  -26.1387  -29.1747   20.7504 C   0  0  0  0  0  0
  -27.2748  -28.2347   20.7557 C   0  0  0  0  0  0
  -26.0202  -26.6355   19.5089 C   0  0  0  0  0  0
  -24.9217  -27.5396   19.4734 C   0  0  0  0  0  0
  -23.7444  -29.7292   20.1382 C   0  0  0  0  0  0
  -25.4149  -36.2908   24.0299 C   0  0  1  0  0  0
  -20.5956  -28.3743   23.1100 C   0  0  2  0  0  0
  -20.6790  -26.9401   22.5366 C   0  0  0  0  0  0
  -19.5794  -26.6324   21.5151 C   0  0  0  0  0  0
  -18.1967  -26.7888   22.1568 C   0  0  0  0  0  0
  -19.1597  -28.8869   23.2745 C   0  0  0  0  0  0
  -18.9516  -30.1438   23.8815 C   0  0  0  0  0  0
  -17.6517  -30.6553   24.0533 C   0  0  0  0  0  0
  -25.9106  -34.9293   23.4983 C   0  0  0  0  0  0
  -16.5388  -29.9046   23.6314 C   0  0  0  0  0  0
  -16.7314  -28.6472   23.0321 C   0  0  0  0  0  0
  -26.4604  -31.6480   25.0715 C   0  0  0  0  0  0
  -25.3730  -31.3722   26.1368 C   0  0  0  0  0  0
  -27.0515  -30.2843   24.6524 C   0  0  0  0  0  0
  -27.6066  -32.4340   25.7520 C   0  0  0  0  0  0
  -27.5572  -37.1742   24.8461 C   0  0  0  0  0  0
  -21.4357  -29.3040   22.3450 N   0  0  0  0  0  0
  -26.4280  -37.3648   23.9404 N   0  0  0  0  0  0
  -24.7680  -30.9667   22.0797 N   0  0  0  0  0  0
  -23.4170  -28.7881   23.2949 O   0  0  0  0  0  0
  -28.2494  -25.7279   20.2388 O   0  0  0  0  0  0
  -26.5697  -34.8839   22.4569 O   0  0  0  0  0  0
  -23.5767  -32.1087   23.6642 O   0  0  0  0  0  0
  -29.3437  -19.4018   19.6780 C   0  0  0  0  0  0
  -29.0848  -20.7375   20.4311 C   0  0  0  0  0  0
  -29.5044  -18.1826   20.4896 C   0  0  0  0  0  0
  -28.1138  -23.2277   19.1501 C   0  0  0  0  0  0
  -29.0286  -22.5338   20.1551 C   0  0  1  0  0  0
  -28.0540  -24.0532   20.4248 C   0  0  2  0  0  0
  -26.8863  -23.9131   21.3762 C   0  0  0  0  0  0
  -29.0963  -18.1650   23.0025 C   0  0  0  0  0  0
  -29.0663  -20.2199   21.6819 N   0  0  0  0  0  0
  -29.2498  -18.8183   21.7160 N   0  0  0  0  0  0
  -29.5362  -16.6651   20.2737 N   0  0  0  0  0  0
  -31.4482  -13.1424   19.1949 H   0  0  0  0  0  0
  -30.5386  -12.0298   20.1613 H   0  0  0  0  0  0
  -29.9575  -11.7704   17.7232 H   0  0  0  0  0  0
  -29.5446  -13.4667   17.6288 H   0  0  0  0  0  0
  -28.0981  -11.2761   19.1442 H   0  0  0  0  0  0
  -27.4316  -12.2730   17.8718 H   0  0  0  0  0  0
  -27.4958  -14.2272   19.2825 H   0  0  0  0  0  0
  -28.8337  -12.6047   21.5010 H   0  0  0  0  0  0
  -28.2384  -14.2414   21.6581 H   0  0  0  0  0  0
  -25.2775   -9.5683   22.4758 H   0  0  0  0  0  0
  -23.9996   -7.4639   22.7484 H   0  0  0  0  0  0
  -21.0847   -8.8757   19.8946 H   0  0  0  0  0  0
  -22.3704  -10.9651   19.6144 H   0  0  0  0  0  0
  -21.2015   -7.6140   23.9716 H   0  0  0  0  0  0
  -21.1498   -6.0518   25.9081 H   0  0  0  0  0  0
  -22.0589   -2.7597   23.2858 H   0  0  0  0  0  0
  -22.4073  -11.9846   22.4876 H   0  0  0  0  0  0
  -21.1044  -13.1155   22.2658 H   0  0  0  0  0  0
  -24.6189  -15.8382   20.5211 H   0  0  0  0  0  0
  -26.2385  -15.6497   20.0943 H   0  0  0  0  0  0
  -26.7429  -32.4988   23.0843 H   0  0  0  0  0  0
  -25.0129  -33.9431   25.0182 H   0  0  0  0  0  0
  -22.8168  -31.2541   21.3261 H   0  0  0  0  0  0
  -23.3770  -35.9531   23.3247 H   0  0  0  0  0  0
  -24.3611  -36.8911   22.2084 H   0  0  0  0  0  0
  -23.7320  -37.6382   23.6760 H   0  0  0  0  0  0
  -26.2507  -31.3232   20.6177 H   0  0  0  0  0  0
  -26.9282  -30.6498   22.0591 H   0  0  0  0  0  0
  -28.1743  -28.5366   21.2742 H   0  0  0  0  0  0
  -25.8887  -25.6849   19.0109 H   0  0  0  0  0  0
  -24.0260  -27.2328   18.9507 H   0  0  0  0  0  0
  -23.9212  -30.4978   19.3845 H   0  0  0  0  0  0
  -22.8537  -29.1931   19.8063 H   0  0  0  0  0  0
  -25.1349  -36.1668   25.0791 H   0  0  0  0  0  0
  -21.0048  -28.3363   24.1220 H   0  0  0  0  0  0
  -20.5582  -26.2371   23.3629 H   0  0  0  0  0  0
  -21.6663  -26.7296   22.1236 H   0  0  0  0  0  0
  -19.6980  -25.6203   21.1253 H   0  0  0  0  0  0
  -19.6774  -27.3050   20.6608 H   0  0  0  0  0  0
  -17.4229  -26.6578   21.3981 H   0  0  0  0  0  0
  -18.0433  -26.0036   22.8992 H   0  0  0  0  0  0
  -19.7997  -30.7248   24.2182 H   0  0  0  0  0  0
  -17.5071  -31.6237   24.5125 H   0  0  0  0  0  0
  -15.5387  -30.2937   23.7675 H   0  0  0  0  0  0
  -15.8708  -28.0778   22.7058 H   0  0  0  0  0  0
  -24.5949  -30.7024   25.7692 H   0  0  0  0  0  0
  -24.8882  -32.2899   26.4698 H   0  0  0  0  0  0
  -25.7980  -30.8970   27.0219 H   0  0  0  0  0  0
  -26.3188  -29.6485   24.1537 H   0  0  0  0  0  0
  -27.4009  -29.7251   25.5212 H   0  0  0  0  0  0
  -27.9151  -30.4008   23.9968 H   0  0  0  0  0  0
  -27.2614  -33.3700   26.1935 H   0  0  0  0  0  0
  -28.3954  -32.6824   25.0398 H   0  0  0  0  0  0
  -28.0665  -31.8595   26.5571 H   0  0  0  0  0  0
  -28.2498  -38.0106   24.7453 H   0  0  0  0  0  0
  -28.1144  -36.2604   24.6311 H   0  0  0  0  0  0
  -27.2274  -37.1394   25.8859 H   0  0  0  0  0  0
  -20.9593  -29.8877   21.6722 H   0  0  0  0  0  0
  -26.0103  -38.2688   24.1416 H   0  0  0  0  0  0
  -29.4185  -19.3618   18.5998 H   0  0  0  0  0  0
  -27.1926  -22.7107   18.8816 H   0  0  0  0  0  0
  -28.6186  -23.6802   18.2984 H   0  0  0  0  0  0
  -30.0802  -22.8025   20.0654 H   0  0  0  0  0  0
  -26.8637  -22.9093   21.8012 H   0  0  0  0  0  0
  -25.9454  -24.0943   20.8549 H   0  0  0  0  0  0
  -26.9807  -24.6257   22.1965 H   0  0  0  0  0  0
  -28.6614  -17.1743   22.8653 H   0  0  0  0  0  0
  -28.4273  -18.7352   23.6483 H   0  0  0  0  0  0
  -30.0681  -18.0660   23.4864 H   0  0  0  0  0  0
  -28.5885  -16.3441   20.1599 H   0  0  0  0  0  0
  1 25  1  0  0  0
  1 30  2  0  0  0
  1 81  1  0  0  0
  2  3  1  0  0  0
  2 25  1  0  0  0
  2 82  1  0  0  0
  2 83  1  0  0  0
  3  4  1  0  0  0
  3 84  1  0  0  0
  3 85  1  0  0  0
  4  5  1  0  0  0
  4 86  1  0  0  0
  4 87  1  0  0  0
  5  6  1  0  0  0
  5 26  1  0  0  0
  5 88  1  0  0  0
  6 25  1  0  0  0
  6 89  1  0  0  0
  6 90  1  0  0  0
  7  8  2  0  0  0
  7 26  1  0  0  0
  7 29  1  0  0  0
  8  9  1  0  0  0
  8 22  1  0  0  0
  9 10  1  0  0  0
  9 27  2  0  0  0
 10 11  2  0  0  0
 10 15  1  0  0  0
 11 12  1  0  0  0
 11 91  1  0  0  0
 12 13  2  0  0  0
 12 92  1  0  0  0
 13 14  1  0  0  0
 13 31  1  0  0  0
 14 15  2  0  0  0
 14 93  1  0  0  0
 15 94  1  0  0  0
 16 17  2  0  0  0
 16 21  1  0  0  0
 16 31  1  0  0  0
 17 18  1  0  0  0
 17 95  1  0  0  0
 18 19  2  0  0  0
 18 96  1  0  0  0
 19 20  1  0  0  0
 19 24  1  0  0  0
 20 21  2  0  0  0
 20 97  1  0  0  0
 21 23  1  0  0  0
 22 28  1  0  0  0
 22 32  2  0  0  0
 26 27  1  0  0  0
 28 98  1  0  0  0
 28 99  1  0  0  0
 29100  1  0  0  0
 29101  1  0  0  0
 33 34  1  0  0  0
 33 66  1  0  0  0
 33 70  2  0  0  0
 34 36  1  0  0  0
 34 59  1  0  0  0
 34102  1  0  0  0
 35 44  2  0  0  0
 35 45  1  0  0  0
 35 68  1  0  0  0
 36 56  1  0  0  0
 36103  1  0  0  0
 37 39  1  0  0  0
 37 47  1  0  0  0
 37 66  1  0  0  0
 37104  1  0  0  0
 38 43  2  0  0  0
 38 46  1  0  0  0
 38 47  1  0  0  0
 39 64  1  0  0  0
 39 67  2  0  0  0
 40 52  1  0  0  0
 40 53  2  0  0  0
 40 58  1  0  0  0
 41105  1  0  0  0
 41106  1  0  0  0
 41107  1  0  0  0
 41 48  1  0  0  0
 42 43  1  0  0  0
 42 66  1  0  0  0
 42108  1  0  0  0
 42109  1  0  0  0
 43 44  1  0  0  0
 44110  1  0  0  0
 45 46  2  0  0  0
 45111  1  0  0  0
 46112  1  0  0  0
 47113  1  0  0  0
 47114  1  0  0  0
 48 56  1  0  0  0
 48 65  1  0  0  0
 48115  1  0  0  0
 49 50  1  0  0  0
 49 53  1  0  0  0
 49 64  1  0  0  0
 49116  1  0  0  0
 50 51  1  0  0  0
 50117  1  0  0  0
 50118  1  0  0  0
 51 52  1  0  0  0
 51119  1  0  0  0
 51120  1  0  0  0
 52121  1  0  0  0
 52122  1  0  0  0
 53 54  1  0  0  0
 54 55  2  0  0  0
 54123  1  0  0  0
 55 57  1  0  0  0
 55124  1  0  0  0
 56 69  2  0  0  0
 57 58  2  0  0  0
 57125  1  0  0  0
 58126  1  0  0  0
 59 60  1  0  0  0
 59 61  1  0  0  0
 59 62  1  0  0  0
 60127  1  0  0  0
 60128  1  0  0  0
 60129  1  0  0  0
 61130  1  0  0  0
 61131  1  0  0  0
 61132  1  0  0  0
 62133  1  0  0  0
 62134  1  0  0  0
 62135  1  0  0  0
 63 65  1  0  0  0
 63136  1  0  0  0
 63137  1  0  0  0
 63138  1  0  0  0
 64139  1  0  0  0
 65140  1  0  0  0
 68 76  1  0  0  0
 71 72  1  0  0  0
 71 73  2  0  0  0
 71141  1  0  0  0
 72 79  2  0  0  0
 72 75  1  0  0  0
 73 80  1  0  0  0
 73 81  1  0  0  0
 74 75  1  0  0  0
 74 76  1  0  0  0
 74142  1  0  0  0
 74143  1  0  0  0
 75 76  1  0  0  0
 75144  1  0  0  0
 76 77  1  0  0  0
 77145  1  0  0  0
 77146  1  0  0  0
 77147  1  0  0  0
 78 80  1  0  0  0
 78148  1  0  0  0
 78149  1  0  0  0
 78150  1  0  0  0
 79 80  1  0  0  0
 81151  1  0  0  0
M  ISO  4   1 100  68 101  76 101  81 100
M  END
> <chiral flag>
0

> <version>
0

> <s_m_source_file>
/data/baiqing/PycharmProjects/Reinvent-master-3.2/result/LINK_invent/BTK/process_docking_weight1_custom_sum_contain_oxygen_bond_distance_aromatic_linkinvent_7_9_3/rearranged_h_0179.sdf

> <i_m_source_file_index>
17

> <r_mmod_Potential_Energy-OPLS-2005>
1529.52160644531

> <r_mmod_Stretch_Energy-OPLS-2005>
688.63427734375

> <r_mmod_Bend_Energy-OPLS-2005>
499.130249023438

> <r_mmod_Torsional_Energy-OPLS-2005>
269.866394042969

> <r_mmod_Improper_Torsional_Energy-OPLS-2005>
12.6202077865601

> <r_mmod_Van_der_Waal_Energy-OPLS-2005>
98.9420928955078

> <r_mmod_Electrostatic_Energy-OPLS-2005>
-413.465057373047

> <r_mmod_Solvation_Energy-OPLS-2005>
-228.584838867188

> <b_mmod_Minimization_Converged-OPLS-2005>
0

> <r_mmod_RMS_Derivative-OPLS-2005>
4.16807174682617

$$$$
17
                    3D
 Structure written by MMmdl.
162171  0  0  1  0            999 V2000
  -30.6402  -14.7084   20.4556 C   0  0  0  0  0  0
  -30.4372  -12.4389   19.4655 C   0  0  0  0  0  0
  -29.5171  -12.4863   18.2260 C   0  0  0  0  0  0
  -28.0436  -12.3125   18.6420 C   0  0  0  0  0  0
  -27.6409  -13.2278   19.8294 C   0  0  2  0  0  0
  -28.6798  -13.1956   20.9637 C   0  0  0  0  0  0
  -25.2610  -13.8191   20.5639 C   0  0  0  0  0  0
  -24.1853  -13.0431   20.9141 C   0  0  0  0  0  0
  -24.6407  -11.6906   20.8668 C   0  0  0  0  0  0
  -23.9077  -10.4276   21.0356 C   0  0  0  0  0  0
  -24.3604   -9.4207   21.9178 C   0  0  0  0  0  0
  -23.6289   -8.2232   22.0736 C   0  0  0  0  0  0
  -22.4288   -8.0244   21.3507 C   0  0  0  0  0  0
  -21.9938   -9.0218   20.4594 C   0  0  0  0  0  0
  -22.7243  -10.2102   20.3010 C   0  0  0  0  0  0
  -21.6902   -6.0690   22.5240 C   0  0  0  0  0  0
  -21.4029   -6.5588   23.8168 C   0  0  0  0  0  0
  -21.3674   -5.6757   24.9148 C   0  0  0  0  0  0
  -21.6083   -4.3008   24.7212 C   0  0  0  0  0  0
  -21.8818   -3.8099   23.4330 C   0  0  0  0  0  0
  -21.9197   -4.6906   22.3382 C   0  0  0  0  0  0
  -22.7884  -13.5223   21.1817 C   0  0  0  0  0  0
  -22.1631   -4.2074   21.0962 F   0  0  0  0  0  0
  -21.5721   -3.4504   25.7761 F   0  0  0  0  0  0
  -29.9950  -13.5007   20.3943 N   0  0  0  0  0  0
  -26.2982  -12.9339   20.3211 N   0  0  0  0  0  0
  -25.9337  -11.6491   20.5673 N   0  0  0  0  0  0
  -22.0543  -12.8234   22.0454 N   0  0  0  0  0  0
  -25.4472  -15.1891   20.4083 N   0  0  0  0  0  0
  -31.8585  -14.7449   20.2789 O   0  0  0  0  0  0
  -21.6669   -6.8841   21.4220 O   0  0  0  0  0  0
  -22.3514  -14.5478   20.6631 O   0  0  0  0  0  0
  -24.6291  -31.8574   23.2001 C   0  0  0  0  0  0
  -25.9091  -32.4781   23.8354 C   0  0  1  0  0  0
  -27.2114  -27.2732   20.1140 C   0  0  0  0  0  0
  -25.5908  -33.8585   24.2263 N   0  0  0  0  0  0
  -23.4282  -30.4815   21.5451 C   0  0  2  0  0  0
  -24.8772  -28.9349   20.1248 C   0  0  0  0  0  0
  -22.7469  -29.4595   22.4896 C   0  0  0  0  0  0
  -18.0275  -28.1396   22.8486 C   0  0  0  0  0  0
  -24.1506  -36.7291   23.2622 C   0  0  0  0  0  0
  -25.9772  -30.7738   21.3834 C   0  0  0  0  0  0
  -26.0516  -29.3977   20.7285 C   0  0  0  0  0  0
  -27.2225  -28.5746   20.7223 C   0  0  0  0  0  0
  -26.0057  -26.8835   19.4820 C   0  0  0  0  0  0
  -24.8521  -27.6808   19.5074 C   0  0  0  0  0  0
  -23.6541  -29.8231   20.1629 C   0  0  0  0  0  0
  -25.4145  -36.3072   24.0289 C   0  0  1  0  0  0
  -20.5878  -28.3692   23.1291 C   0  0  2  0  0  0
  -20.6794  -26.9413   22.5422 C   0  0  0  0  0  0
  -19.5774  -26.6390   21.5231 C   0  0  0  0  0  0
  -18.1941  -26.7941   22.1620 C   0  0  0  0  0  0
  -19.1539  -28.8862   23.2886 C   0  0  0  0  0  0
  -18.9452  -30.1471   23.8892 C   0  0  0  0  0  0
  -17.6457  -30.6599   24.0579 C   0  0  0  0  0  0
  -25.9065  -34.9441   23.5084 C   0  0  0  0  0  0
  -16.5345  -29.9114   23.6324 C   0  0  0  0  0  0
  -16.7267  -28.6537   23.0335 C   0  0  0  0  0  0
  -26.4481  -31.6568   25.0706 C   0  0  0  0  0  0
  -25.3670  -31.3720   26.1379 C   0  0  0  0  0  0
  -27.0320  -30.2984   24.6161 C   0  0  0  0  0  0
  -27.6012  -32.4282   25.7539 C   0  0  0  0  0  0
  -27.5606  -37.1790   24.8444 C   0  0  0  0  0  0
  -21.4179  -29.3071   22.3681 N   0  0  0  0  0  0
  -26.4310  -37.3783   23.9387 N   0  0  0  0  0  0
  -24.6981  -31.0523   22.1014 N   0  0  0  0  0  0
  -23.4156  -28.8055   23.2930 O   0  0  0  0  0  0
  -28.3007  -26.3755   20.1563 O   0  0  0  0  0  0
  -26.5661  -34.8909   22.4664 O   0  0  0  0  0  0
  -23.5422  -32.1417   23.7270 O   0  0  0  0  0  0
  -29.3968  -16.5103   19.0030 C   0  0  0  0  0  0
  -29.0368  -17.8275   19.0929 C   0  0  0  0  0  0
  -29.9051  -16.0577   20.2554 C   0  0  0  0  0  0
  -29.7838  -17.1661   21.1088 C   0  0  0  0  0  0
  -29.6338  -16.3178   23.6099 C   0  0  0  0  0  0
  -29.2539  -17.7779   23.6609 C   0  0  0  0  0  0
  -30.1790  -17.2785   22.5630 C   0  0  0  0  0  0
  -30.1913  -20.9404   18.9788 C   0  0  0  0  0  0
  -28.8009  -19.6764   20.8380 C   0  0  0  0  0  0
  -29.0383  -23.7242   20.2981 C   0  0  0  0  0  0
  -27.9831  -24.9135   20.0343 C   0  0  0  0  0  0
  -29.4478  -21.0710   20.3189 C   0  0  2  0  0  0
  -29.2531  -18.2895   20.3828 N   0  0  0  0  0  0
  -28.4970  -22.2807   20.2772 N   0  3  0  0  0  0
  -31.4744  -12.5648   19.1457 H   0  0  0  0  0  0
  -30.3873  -11.4676   19.9585 H   0  0  0  0  0  0
  -29.8021  -11.7053   17.5164 H   0  0  0  0  0  0
  -29.6408  -13.4313   17.6981 H   0  0  0  0  0  0
  -27.9209  -11.2692   18.9303 H   0  0  0  0  0  0
  -27.3840  -12.4793   17.7902 H   0  0  0  0  0  0
  -27.6210  -14.2401   19.4239 H   0  0  0  0  0  0
  -28.7061  -12.2220   21.4521 H   0  0  0  0  0  0
  -28.4174  -13.9395   21.7179 H   0  0  0  0  0  0
  -25.2725   -9.5712   22.4782 H   0  0  0  0  0  0
  -24.0008   -7.4632   22.7473 H   0  0  0  0  0  0
  -21.0905   -8.8707   19.8841 H   0  0  0  0  0  0
  -22.3739  -10.9625   19.6100 H   0  0  0  0  0  0
  -21.1993   -7.6092   23.9672 H   0  0  0  0  0  0
  -21.1535   -6.0464   25.9071 H   0  0  0  0  0  0
  -22.0595   -2.7553   23.2859 H   0  0  0  0  0  0
  -22.4204  -11.9982   22.4961 H   0  0  0  0  0  0
  -21.1059  -13.1105   22.2428 H   0  0  0  0  0  0
  -24.7001  -15.8594   20.5423 H   0  0  0  0  0  0
  -26.3311  -15.6269   20.1621 H   0  0  0  0  0  0
  -26.7122  -32.5440   23.1071 H   0  0  0  0  0  0
  -25.0046  -33.9758   25.0401 H   0  0  0  0  0  0
  -22.7271  -31.3038   21.3906 H   0  0  0  0  0  0
  -23.3814  -35.9588   23.3254 H   0  0  0  0  0  0
  -24.3601  -36.8973   22.2051 H   0  0  0  0  0  0
  -23.7221  -37.6444   23.6714 H   0  0  0  0  0  0
  -26.0988  -31.5340   20.6110 H   0  0  0  0  0  0
  -26.8613  -30.8356   22.0059 H   0  0  0  0  0  0
  -28.1223  -28.9080   21.2221 H   0  0  0  0  0  0
  -25.9005  -25.9405   18.9674 H   0  0  0  0  0  0
  -23.9380  -27.3236   19.0562 H   0  0  0  0  0  0
  -23.8031  -30.5999   19.4130 H   0  0  0  0  0  0
  -22.7767  -29.2624   19.8379 H   0  0  0  0  0  0
  -25.1348  -36.1931   25.0790 H   0  0  0  0  0  0
  -20.9956  -28.3281   24.1418 H   0  0  0  0  0  0
  -20.5756  -26.2263   23.3603 H   0  0  0  0  0  0
  -21.6650  -26.7484   22.1179 H   0  0  0  0  0  0
  -19.6942  -25.6310   21.1263 H   0  0  0  0  0  0
  -19.6749  -27.3212   20.6783 H   0  0  0  0  0  0
  -17.4205  -26.6681   21.4031 H   0  0  0  0  0  0
  -18.0341  -26.0093   22.9023 H   0  0  0  0  0  0
  -19.7923  -30.7316   24.2226 H   0  0  0  0  0  0
  -17.5001  -31.6264   24.5214 H   0  0  0  0  0  0
  -15.5355  -30.3030   23.7651 H   0  0  0  0  0  0
  -15.8649  -28.0893   22.7011 H   0  0  0  0  0  0
  -24.5852  -30.7089   25.7671 H   0  0  0  0  0  0
  -24.8863  -32.2901   26.4768 H   0  0  0  0  0  0
  -25.7927  -30.8888   27.0174 H   0  0  0  0  0  0
  -26.2892  -29.6727   24.1187 H   0  0  0  0  0  0
  -27.4016  -29.7244   25.4673 H   0  0  0  0  0  0
  -27.8784  -30.4303   23.9407 H   0  0  0  0  0  0
  -27.2606  -33.3569   26.2159 H   0  0  0  0  0  0
  -28.3866  -32.6835   25.0403 H   0  0  0  0  0  0
  -28.0633  -31.8337   26.5440 H   0  0  0  0  0  0
  -28.2527  -38.0172   24.7565 H   0  0  0  0  0  0
  -28.1166  -36.2671   24.6206 H   0  0  0  0  0  0
  -27.2260  -37.1353   25.8817 H   0  0  0  0  0  0
  -20.9298  -29.8846   21.6983 H   0  0  0  0  0  0
  -26.0176  -38.2832   24.1480 H   0  0  0  0  0  0
  -29.3644  -15.9281   18.0936 H   0  0  0  0  0  0
  -28.6317  -18.4882   18.3367 H   0  0  0  0  0  0
  -28.8317  -15.6286   23.3541 H   0  0  0  0  0  0
  -30.3100  -15.9691   24.3919 H   0  0  0  0  0  0
  -29.6842  -18.3578   24.4760 H   0  0  0  0  0  0
  -28.2315  -18.0487   23.4039 H   0  0  0  0  0  0
  -31.2316  -17.5404   22.6439 H   0  0  0  0  0  0
  -30.8387  -20.0636   18.9782 H   0  0  0  0  0  0
  -30.8233  -21.8088   18.7860 H   0  0  0  0  0  0
  -29.4983  -20.8400   18.1454 H   0  0  0  0  0  0
  -27.7407  -19.7108   20.5830 H   0  0  0  0  0  0
  -28.8164  -19.6981   21.9249 H   0  0  0  0  0  0
  -29.5126  -23.8975   21.2635 H   0  0  0  0  0  0
  -29.8212  -23.8004   19.5466 H   0  0  0  0  0  0
  -27.1448  -24.7295   20.7046 H   0  0  0  0  0  0
  -27.6130  -24.7476   19.0233 H   0  0  0  0  0  0
  -30.2137  -21.3063   21.0598 H   0  0  0  0  0  0
  -27.9321  -22.1819   19.4489 H   0  0  0  0  0  0
  -27.8557  -22.1820   21.0486 H   0  0  0  0  0  0
  1 25  1  0  0  0
  1 30  2  0  0  0
  1 73  1  0  0  0
  2  3  1  0  0  0
  2 25  1  0  0  0
  2 85  1  0  0  0
  2 86  1  0  0  0
  3  4  1  0  0  0
  3 87  1  0  0  0
  3 88  1  0  0  0
  4  5  1  0  0  0
  4 89  1  0  0  0
  4 90  1  0  0  0
  5  6  1  0  0  0
  5 26  1  0  0  0
  5 91  1  0  0  0
  6 25  1  0  0  0
  6 92  1  0  0  0
  6 93  1  0  0  0
  7  8  2  0  0  0
  7 26  1  0  0  0
  7 29  1  0  0  0
  8  9  1  0  0  0
  8 22  1  0  0  0
  9 10  1  0  0  0
  9 27  2  0  0  0
 10 11  2  0  0  0
 10 15  1  0  0  0
 11 12  1  0  0  0
 11 94  1  0  0  0
 12 13  2  0  0  0
 12 95  1  0  0  0
 13 14  1  0  0  0
 13 31  1  0  0  0
 14 15  2  0  0  0
 14 96  1  0  0  0
 15 97  1  0  0  0
 16 17  2  0  0  0
 16 21  1  0  0  0
 16 31  1  0  0  0
 17 18  1  0  0  0
 17 98  1  0  0  0
 18 19  2  0  0  0
 18 99  1  0  0  0
 19 20  1  0  0  0
 19 24  1  0  0  0
 20 21  2  0  0  0
 20100  1  0  0  0
 21 23  1  0  0  0
 22 28  1  0  0  0
 22 32  2  0  0  0
 26 27  1  0  0  0
 28101  1  0  0  0
 28102  1  0  0  0
 29103  1  0  0  0
 29104  1  0  0  0
 33 34  1  0  0  0
 33 66  1  0  0  0
 33 70  2  0  0  0
 34 36  1  0  0  0
 34 59  1  0  0  0
 34105  1  0  0  0
 35 44  2  0  0  0
 35 45  1  0  0  0
 35 68  1  0  0  0
 36 56  1  0  0  0
 36106  1  0  0  0
 37 39  1  0  0  0
 37 47  1  0  0  0
 37 66  1  0  0  0
 37107  1  0  0  0
 38 43  2  0  0  0
 38 46  1  0  0  0
 38 47  1  0  0  0
 39 64  1  0  0  0
 39 67  2  0  0  0
 40 52  1  0  0  0
 40 53  2  0  0  0
 40 58  1  0  0  0
 41108  1  0  0  0
 41109  1  0  0  0
 41110  1  0  0  0
 41 48  1  0  0  0
 42 43  1  0  0  0
 42 66  1  0  0  0
 42111  1  0  0  0
 42112  1  0  0  0
 43 44  1  0  0  0
 44113  1  0  0  0
 45 46  2  0  0  0
 45114  1  0  0  0
 46115  1  0  0  0
 47116  1  0  0  0
 47117  1  0  0  0
 48 56  1  0  0  0
 48 65  1  0  0  0
 48118  1  0  0  0
 49 50  1  0  0  0
 49 53  1  0  0  0
 49 64  1  0  0  0
 49119  1  0  0  0
 50 51  1  0  0  0
 50120  1  0  0  0
 50121  1  0  0  0
 51 52  1  0  0  0
 51122  1  0  0  0
 51123  1  0  0  0
 52124  1  0  0  0
 52125  1  0  0  0
 53 54  1  0  0  0
 54 55  2  0  0  0
 54126  1  0  0  0
 55 57  1  0  0  0
 55127  1  0  0  0
 56 69  2  0  0  0
 57 58  2  0  0  0
 57128  1  0  0  0
 58129  1  0  0  0
 59 60  1  0  0  0
 59 61  1  0  0  0
 59 62  1  0  0  0
 60130  1  0  0  0
 60131  1  0  0  0
 60132  1  0  0  0
 61133  1  0  0  0
 61134  1  0  0  0
 61135  1  0  0  0
 62136  1  0  0  0
 62137  1  0  0  0
 62138  1  0  0  0
 63 65  1  0  0  0
 63139  1  0  0  0
 63140  1  0  0  0
 63141  1  0  0  0
 64142  1  0  0  0
 65143  1  0  0  0
 68 81  1  0  0  0
 71 72  2  0  0  0
 71 73  1  0  0  0
 71144  1  0  0  0
 72 83  1  0  0  0
 72145  1  0  0  0
 73 74  2  0  0  0
 74 83  1  0  0  0
 74 77  1  0  0  0
 75 76  1  0  0  0
 75 77  1  0  0  0
 75146  1  0  0  0
 75147  1  0  0  0
 76 77  1  0  0  0
 76148  1  0  0  0
 76149  1  0  0  0
 77150  1  0  0  0
 78151  1  0  0  0
 78152  1  0  0  0
 78153  1  0  0  0
 78 82  1  0  0  0
 79 82  1  0  0  0
 79 83  1  0  0  0
 79154  1  0  0  0
 79155  1  0  0  0
 80 81  1  0  0  0
 80 84  1  0  0  0
 80156  1  0  0  0
 80157  1  0  0  0
 81158  1  0  0  0
 81159  1  0  0  0
 82 84  1  0  0  0
 82160  1  0  0  0
 84161  1  0  0  0
 84162  1  0  0  0
M  CHG  1  84   1
M  ISO  4   1 100  68 101  73 100  81 101
M  END
> <chiral flag>
0

> <version>
0

> <s_m_source_file>
/data/baiqing/PycharmProjects/Reinvent-master-3.2/result/LINK_invent/BTK/process_docking_weight1_custom_sum_contain_oxygen_bond_distance_aromatic_linkinvent_7_9_3/rearranged_h_0179.sdf

> <i_m_source_file_index>
18

> <r_mmod_Potential_Energy-OPLS-2005>
139.029922485352

> <r_mmod_Stretch_Energy-OPLS-2005>
112.474746704102

> <r_mmod_Bend_Energy-OPLS-2005>
171.106353759766

> <r_mmod_Torsional_Energy-OPLS-2005>
271.661193847656

> <r_mmod_Improper_Torsional_Energy-OPLS-2005>
14.630729675293

> <r_mmod_Van_der_Waal_Energy-OPLS-2005>
108.572158813477

> <r_mmod_Electrostatic_Energy-OPLS-2005>
-163.628128051758

> <r_mmod_Solvation_Energy-OPLS-2005>
-458.655578613281

> <b_mmod_Minimization_Converged-OPLS-2005>
0

> <r_mmod_RMS_Derivative-OPLS-2005>
6.516517162323

$$$$
18
                    3D
 Structure written by MMmdl.
157166  0  0  1  0            999 V2000
  -30.5963  -14.7892   20.4552 C   0  0  0  0  0  0
  -30.4385  -12.4837   19.4811 C   0  0  0  0  0  0
  -29.5150  -12.5020   18.2442 C   0  0  0  0  0  0
  -28.0415  -12.3215   18.6598 C   0  0  0  0  0  0
  -27.6395  -13.2348   19.8484 C   0  0  2  0  0  0
  -28.6841  -13.1899   20.9844 C   0  0  0  0  0  0
  -25.2495  -13.8189   20.5674 C   0  0  0  0  0  0
  -24.1800  -13.0435   20.9220 C   0  0  0  0  0  0
  -24.6391  -11.6918   20.8757 C   0  0  0  0  0  0
  -23.9064  -10.4294   21.0410 C   0  0  0  0  0  0
  -24.3617   -9.4212   21.9186 C   0  0  0  0  0  0
  -23.6287   -8.2246   22.0752 C   0  0  0  0  0  0
  -22.4266   -8.0286   21.3543 C   0  0  0  0  0  0
  -21.9903   -9.0270   20.4649 C   0  0  0  0  0  0
  -22.7233  -10.2142   20.3060 C   0  0  0  0  0  0
  -21.6847   -6.0732   22.5271 C   0  0  0  0  0  0
  -21.4016   -6.5636   23.8211 C   0  0  0  0  0  0
  -21.3659   -5.6791   24.9177 C   0  0  0  0  0  0
  -21.6048   -4.3055   24.7220 C   0  0  0  0  0  0
  -21.8821   -3.8136   23.4344 C   0  0  0  0  0  0
  -21.9198   -4.6957   22.3398 C   0  0  0  0  0  0
  -22.7831  -13.5228   21.1878 C   0  0  0  0  0  0
  -22.1662   -4.2148   21.0973 F   0  0  0  0  0  0
  -21.5628   -3.4536   25.7728 F   0  0  0  0  0  0
  -29.9775  -13.5568   20.3964 N   0  0  0  0  0  0
  -26.2926  -12.9406   20.3260 N   0  0  0  0  0  0
  -25.9322  -11.6546   20.5773 N   0  0  0  0  0  0
  -22.0464  -12.8240   22.0441 N   0  0  0  0  0  0
  -25.4146  -15.1911   20.3995 N   0  0  0  0  0  0
  -31.7951  -14.8711   20.1708 O   0  0  0  0  0  0
  -21.6646   -6.8870   21.4227 O   0  0  0  0  0  0
  -22.3524  -14.5530   20.6703 O   0  0  0  0  0  0
  -24.6307  -31.8539   23.1943 C   0  0  0  0  0  0
  -25.9134  -32.4752   23.8307 C   0  0  1  0  0  0
  -27.2126  -27.2350   20.1570 C   0  0  0  0  0  0
  -25.5939  -33.8549   24.2249 N   0  0  0  0  0  0
  -23.4291  -30.4722   21.5376 C   0  0  2  0  0  0
  -24.8773  -28.9066   20.1192 C   0  0  0  0  0  0
  -22.7502  -29.4576   22.4900 C   0  0  0  0  0  0
  -18.0282  -28.1381   22.8470 C   0  0  0  0  0  0
  -24.1485  -36.7284   23.2631 C   0  0  0  0  0  0
  -25.9748  -30.7600   21.3757 C   0  0  0  0  0  0
  -26.0487  -29.3746   20.7292 C   0  0  0  0  0  0
  -27.2231  -28.5543   20.7291 C   0  0  0  0  0  0
  -26.0226  -26.8312   19.5243 C   0  0  0  0  0  0
  -24.8706  -27.6440   19.5022 C   0  0  0  0  0  0
  -23.6504  -29.7988   20.1571 C   0  0  0  0  0  0
  -25.4112  -36.3069   24.0321 C   0  0  1  0  0  0
  -20.5893  -28.3699   23.1263 C   0  0  2  0  0  0
  -20.6776  -26.9414   22.5410 C   0  0  0  0  0  0
  -19.5755  -26.6374   21.5211 C   0  0  0  0  0  0
  -18.1929  -26.7928   22.1616 C   0  0  0  0  0  0
  -19.1538  -28.8854   23.2863 C   0  0  0  0  0  0
  -18.9467  -30.1459   23.8883 C   0  0  0  0  0  0
  -17.6465  -30.6590   24.0553 C   0  0  0  0  0  0
  -25.9056  -34.9438   23.5087 C   0  0  0  0  0  0
  -16.5351  -29.9087   23.6328 C   0  0  0  0  0  0
  -16.7275  -28.6502   23.0352 C   0  0  0  0  0  0
  -26.4499  -31.6572   25.0706 C   0  0  0  0  0  0
  -25.3711  -31.3743   26.1422 C   0  0  0  0  0  0
  -27.0355  -30.2975   24.6221 C   0  0  0  0  0  0
  -27.6053  -32.4307   25.7493 C   0  0  0  0  0  0
  -27.5578  -37.1805   24.8467 C   0  0  0  0  0  0
  -21.4209  -29.3037   22.3663 N   0  0  0  0  0  0
  -26.4292  -37.3773   23.9404 N   0  0  0  0  0  0
  -24.6973  -31.0475   22.0922 N   0  0  0  0  0  0
  -23.4201  -28.8123   23.3003 O   0  0  0  0  0  0
  -28.3120  -26.3502   20.1146 O   0  0  0  0  0  0
  -26.5628  -34.8919   22.4657 O   0  0  0  0  0  0
  -23.5457  -32.1373   23.7247 O   0  0  0  0  0  0
  -27.3016  -21.0208   19.7584 C   0  0  0  0  0  0
  -26.4975  -22.1421   19.5005 C   0  0  0  0  0  0
  -28.5606  -21.2183   20.3312 C   0  0  0  0  0  0
  -28.0909  -23.5887   20.3326 C   0  0  0  0  0  0
  -29.3326  -18.3161   18.8113 C   0  0  0  0  0  0
  -30.7407  -17.8011   19.1508 C   0  0  0  0  0  0
  -29.1205  -18.6062   20.3054 C   0  0  1  0  0  0
  -30.2335  -17.4317   20.5567 C   0  0  1  0  0  0
  -25.0984  -21.9909   18.9415 C   0  0  0  0  0  0
  -28.3305  -25.0689   20.9171 C   0  0  0  0  0  0
  -26.8977  -23.4003   19.7717 N   0  0  0  0  0  0
  -28.9284  -22.5259   20.6205 N   0  0  0  0  0  0
  -29.4083  -20.0759   20.6278 N   0  0  0  0  0  0
  -29.8233  -15.9413   20.6189 N   0  0  0  0  0  0
  -31.4754  -12.6212   19.1708 H   0  0  0  0  0  0
  -30.4040  -11.5146   19.9815 H   0  0  0  0  0  0
  -29.8055  -11.7120   17.5508 H   0  0  0  0  0  0
  -29.6350  -13.4452   17.7081 H   0  0  0  0  0  0
  -27.9092  -11.2765   18.9422 H   0  0  0  0  0  0
  -27.3871  -12.4923   17.8041 H   0  0  0  0  0  0
  -27.6284  -14.2530   19.4581 H   0  0  0  0  0  0
  -28.7320  -12.1969   21.4361 H   0  0  0  0  0  0
  -28.4160  -13.8823   21.7828 H   0  0  0  0  0  0
  -25.2755   -9.5706   22.4777 H   0  0  0  0  0  0
  -24.0015   -7.4633   22.7455 H   0  0  0  0  0  0
  -21.0842   -8.8778   19.8949 H   0  0  0  0  0  0
  -22.3678  -10.9695   19.6186 H   0  0  0  0  0  0
  -21.2003   -7.6149   23.9715 H   0  0  0  0  0  0
  -21.1481   -6.0525   25.9090 H   0  0  0  0  0  0
  -22.0602   -2.7597   23.2845 H   0  0  0  0  0  0
  -22.4075  -11.9916   22.4867 H   0  0  0  0  0  0
  -21.1081  -13.1277   22.2629 H   0  0  0  0  0  0
  -24.6317  -15.8337   20.4664 H   0  0  0  0  0  0
  -26.2440  -15.6170   20.0059 H   0  0  0  0  0  0
  -26.7180  -32.5422   23.1032 H   0  0  0  0  0  0
  -25.0100  -33.9660   25.0401 H   0  0  0  0  0  0
  -22.7265  -31.2945   21.3868 H   0  0  0  0  0  0
  -23.3763  -35.9603   23.3294 H   0  0  0  0  0  0
  -24.3553  -36.8911   22.2044 H   0  0  0  0  0  0
  -23.7242  -37.6481   23.6661 H   0  0  0  0  0  0
  -26.1119  -31.5146   20.6002 H   0  0  0  0  0  0
  -26.8519  -30.8170   22.0086 H   0  0  0  0  0  0
  -28.1287  -28.9155   21.1964 H   0  0  0  0  0  0
  -25.9803  -25.8607   19.0493 H   0  0  0  0  0  0
  -23.9760  -27.2815   19.0152 H   0  0  0  0  0  0
  -23.7830  -30.5730   19.4007 H   0  0  0  0  0  0
  -22.7708  -29.2324   19.8475 H   0  0  0  0  0  0
  -25.1292  -36.1896   25.0816 H   0  0  0  0  0  0
  -20.9978  -28.3283   24.1384 H   0  0  0  0  0  0
  -20.5661  -26.2307   23.3616 H   0  0  0  0  0  0
  -21.6644  -26.7420   22.1207 H   0  0  0  0  0  0
  -19.6922  -25.6283   21.1246 H   0  0  0  0  0  0
  -19.6699  -27.3175   20.6735 H   0  0  0  0  0  0
  -17.4195  -26.6655   21.4023 H   0  0  0  0  0  0
  -18.0338  -26.0069   22.9011 H   0  0  0  0  0  0
  -19.7945  -30.7275   24.2246 H   0  0  0  0  0  0
  -17.5021  -31.6269   24.5171 H   0  0  0  0  0  0
  -15.5361  -30.2987   23.7663 H   0  0  0  0  0  0
  -15.8671  -28.0826   22.7080 H   0  0  0  0  0  0
  -24.5895  -30.7070   25.7763 H   0  0  0  0  0  0
  -24.8891  -32.2923   26.4793 H   0  0  0  0  0  0
  -25.8004  -30.8965   27.0234 H   0  0  0  0  0  0
  -26.2948  -29.6724   24.1216 H   0  0  0  0  0  0
  -27.3992  -29.7233   25.4759 H   0  0  0  0  0  0
  -27.8843  -30.4238   23.9493 H   0  0  0  0  0  0
  -27.2653  -33.3614   26.2036 H   0  0  0  0  0  0
  -28.3885  -32.6838   25.0340 H   0  0  0  0  0  0
  -28.0684  -31.8446   26.5436 H   0  0  0  0  0  0
  -28.2600  -38.0100   24.7503 H   0  0  0  0  0  0
  -28.1066  -36.2629   24.6298 H   0  0  0  0  0  0
  -27.2285  -37.1454   25.8869 H   0  0  0  0  0  0
  -20.9403  -29.8761   21.6867 H   0  0  0  0  0  0
  -26.0172  -38.2842   24.1415 H   0  0  0  0  0  0
  -26.9370  -20.0297   19.5283 H   0  0  0  0  0  0
  -28.6777  -17.5260   18.4396 H   0  0  0  0  0  0
  -29.3168  -19.1809   18.1452 H   0  0  0  0  0  0
  -31.4829  -18.6009   19.1735 H   0  0  0  0  0  0
  -31.0857  -16.9783   18.5225 H   0  0  0  0  0  0
  -28.1272  -18.3162   20.6535 H   0  0  0  0  0  0
  -30.9490  -17.6958   21.3386 H   0  0  0  0  0  0
  -25.0626  -22.3034   17.8991 H   0  0  0  0  0  0
  -24.3928  -22.5970   19.5103 H   0  0  0  0  0  0
  -24.7637  -20.9549   18.9994 H   0  0  0  0  0  0
  -29.3037  -25.0429   21.4046 H   0  0  0  0  0  0
  -27.6174  -25.1939   21.7346 H   0  0  0  0  0  0
  -30.3012  -20.2863   21.0590 H   0  0  0  0  0  0
  -28.8434  -15.7754   20.7919 H   0  0  0  0  0  0
  1 25  1  0  0  0
  1 30  2  0  0  0
  1 84  1  0  0  0
  2  3  1  0  0  0
  2 25  1  0  0  0
  2 85  1  0  0  0
  2 86  1  0  0  0
  3  4  1  0  0  0
  3 87  1  0  0  0
  3 88  1  0  0  0
  4  5  1  0  0  0
  4 89  1  0  0  0
  4 90  1  0  0  0
  5  6  1  0  0  0
  5 26  1  0  0  0
  5 91  1  0  0  0
  6 25  1  0  0  0
  6 92  1  0  0  0
  6 93  1  0  0  0
  7  8  2  0  0  0
  7 26  1  0  0  0
  7 29  1  0  0  0
  8  9  1  0  0  0
  8 22  1  0  0  0
  9 10  1  0  0  0
  9 27  2  0  0  0
 10 11  2  0  0  0
 10 15  1  0  0  0
 11 12  1  0  0  0
 11 94  1  0  0  0
 12 13  2  0  0  0
 12 95  1  0  0  0
 13 14  1  0  0  0
 13 31  1  0  0  0
 14 15  2  0  0  0
 14 96  1  0  0  0
 15 97  1  0  0  0
 16 17  2  0  0  0
 16 21  1  0  0  0
 16 31  1  0  0  0
 17 18  1  0  0  0
 17 98  1  0  0  0
 18 19  2  0  0  0
 18 99  1  0  0  0
 19 20  1  0  0  0
 19 24  1  0  0  0
 20 21  2  0  0  0
 20100  1  0  0  0
 21 23  1  0  0  0
 22 28  1  0  0  0
 22 32  2  0  0  0
 26 27  1  0  0  0
 28101  1  0  0  0
 28102  1  0  0  0
 29103  1  0  0  0
 29104  1  0  0  0
 33 34  1  0  0  0
 33 66  1  0  0  0
 33 70  2  0  0  0
 34 36  1  0  0  0
 34 59  1  0  0  0
 34105  1  0  0  0
 35 44  2  0  0  0
 35 45  1  0  0  0
 35 68  1  0  0  0
 36 56  1  0  0  0
 36106  1  0  0  0
 37 39  1  0  0  0
 37 47  1  0  0  0
 37 66  1  0  0  0
 37107  1  0  0  0
 38 43  2  0  0  0
 38 46  1  0  0  0
 38 47  1  0  0  0
 39 64  1  0  0  0
 39 67  2  0  0  0
 40 52  1  0  0  0
 40 53  2  0  0  0
 40 58  1  0  0  0
 41108  1  0  0  0
 41109  1  0  0  0
 41110  1  0  0  0
 41 48  1  0  0  0
 42 43  1  0  0  0
 42 66  1  0  0  0
 42111  1  0  0  0
 42112  1  0  0  0
 43 44  1  0  0  0
 44113  1  0  0  0
 45 46  2  0  0  0
 45114  1  0  0  0
 46115  1  0  0  0
 47116  1  0  0  0
 47117  1  0  0  0
 48 56  1  0  0  0
 48 65  1  0  0  0
 48118  1  0  0  0
 49 50  1  0  0  0
 49 53  1  0  0  0
 49 64  1  0  0  0
 49119  1  0  0  0
 50 51  1  0  0  0
 50120  1  0  0  0
 50121  1  0  0  0
 51 52  1  0  0  0
 51122  1  0  0  0
 51123  1  0  0  0
 52124  1  0  0  0
 52125  1  0  0  0
 53 54  1  0  0  0
 54 55  2  0  0  0
 54126  1  0  0  0
 55 57  1  0  0  0
 55127  1  0  0  0
 56 69  2  0  0  0
 57 58  2  0  0  0
 57128  1  0  0  0
 58129  1  0  0  0
 59 60  1  0  0  0
 59 61  1  0  0  0
 59 62  1  0  0  0
 60130  1  0  0  0
 60131  1  0  0  0
 60132  1  0  0  0
 61133  1  0  0  0
 61134  1  0  0  0
 61135  1  0  0  0
 62136  1  0  0  0
 62137  1  0  0  0
 62138  1  0  0  0
 63 65  1  0  0  0
 63139  1  0  0  0
 63140  1  0  0  0
 63141  1  0  0  0
 64142  1  0  0  0
 65143  1  0  0  0
 68 80  1  0  0  0
 71 72  2  0  0  0
 71 73  1  0  0  0
 71144  1  0  0  0
 72 79  1  0  0  0
 72 81  1  0  0  0
 73 82  2  0  0  0
 73 83  1  0  0  0
 74 80  1  0  0  0
 74 81  2  0  0  0
 74 82  1  0  0  0
 75 76  1  0  0  0
 75 77  1  0  0  0
 75145  1  0  0  0
 75146  1  0  0  0
 76 78  1  0  0  0
 76147  1  0  0  0
 76148  1  0  0  0
 77 78  1  0  0  0
 77 83  1  0  0  0
 77149  1  0  0  0
 78 84  1  0  0  0
 78150  1  0  0  0
 79151  1  0  0  0
 79152  1  0  0  0
 79153  1  0  0  0
 80154  1  0  0  0
 80155  1  0  0  0
 83156  1  0  0  0
 84157  1  0  0  0
M  ISO  4   1 100  68 101  80 101  84 100
M  END
> <chiral flag>
0

> <version>
0

> <s_m_source_file>
/data/baiqing/PycharmProjects/Reinvent-master-3.2/result/LINK_invent/BTK/process_docking_weight1_custom_sum_contain_oxygen_bond_distance_aromatic_linkinvent_7_9_3/rearranged_h_0179.sdf

> <i_m_source_file_index>
19

> <r_mmod_Potential_Energy-OPLS-2005>
-280.962677001953

> <r_mmod_Stretch_Energy-OPLS-2005>
137.194351196289

> <r_mmod_Bend_Energy-OPLS-2005>
207.722763061523

> <r_mmod_Torsional_Energy-OPLS-2005>
263.863677978516

> <r_mmod_Improper_Torsional_Energy-OPLS-2005>
6.93243646621704

> <r_mmod_Van_der_Waal_Energy-OPLS-2005>
136.108612060547

> <r_mmod_Electrostatic_Energy-OPLS-2005>
-894.687072753906

> <r_mmod_Solvation_Energy-OPLS-2005>
-238.641265869141

> <b_mmod_Minimization_Converged-OPLS-2005>
0

> <r_mmod_RMS_Derivative-OPLS-2005>
2.82226014137268

$$$$
19
                    3D
 Structure written by MMmdl.
152161  0  0  1  0            999 V2000
  -30.4610  -15.2325   20.3754 C   0  0  0  0  0  0
  -30.4384  -12.7874   19.5158 C   0  0  0  0  0  0
  -29.5331  -12.5708   18.2784 C   0  0  0  0  0  0
  -28.0793  -12.3035   18.7069 C   0  0  0  0  0  0
  -27.6132  -13.2736   19.8212 C   0  0  2  0  0  0
  -28.6506  -13.4370   20.9519 C   0  0  0  0  0  0
  -25.2401  -13.8246   20.5732 C   0  0  0  0  0  0
  -24.1754  -13.0439   20.9257 C   0  0  0  0  0  0
  -24.6409  -11.6933   20.8767 C   0  0  0  0  0  0
  -23.9099  -10.4294   21.0411 C   0  0  0  0  0  0
  -24.3642   -9.4208   21.9189 C   0  0  0  0  0  0
  -23.6308   -8.2245   22.0759 C   0  0  0  0  0  0
  -22.4290   -8.0287   21.3546 C   0  0  0  0  0  0
  -21.9933   -9.0262   20.4647 C   0  0  0  0  0  0
  -22.7271  -10.2135   20.3058 C   0  0  0  0  0  0
  -21.6854   -6.0743   22.5279 C   0  0  0  0  0  0
  -21.4012   -6.5647   23.8212 C   0  0  0  0  0  0
  -21.3658   -5.6797   24.9173 C   0  0  0  0  0  0
  -21.6042   -4.3059   24.7222 C   0  0  0  0  0  0
  -21.8822   -3.8153   23.4341 C   0  0  0  0  0  0
  -21.9193   -4.6972   22.3400 C   0  0  0  0  0  0
  -22.7770  -13.5192   21.1900 C   0  0  0  0  0  0
  -22.1663   -4.2160   21.0977 F   0  0  0  0  0  0
  -21.5627   -3.4540   25.7732 F   0  0  0  0  0  0
  -29.8838  -13.9346   20.3212 N   0  0  0  0  0  0
  -26.2829  -12.9517   20.3212 N   0  0  0  0  0  0
  -25.9345  -11.6624   20.5724 N   0  0  0  0  0  0
  -22.0425  -12.8175   22.0451 N   0  0  0  0  0  0
  -25.4028  -15.1977   20.4138 N   0  0  0  0  0  0
  -31.6853  -15.2234   20.1867 O   0  0  0  0  0  0
  -21.6645   -6.8891   21.4243 O   0  0  0  0  0  0
  -22.3450  -14.5493   20.6737 O   0  0  0  0  0  0
  -24.6631  -31.8258   23.1729 C   0  0  0  0  0  0
  -25.9317  -32.4600   23.8188 C   0  0  1  0  0  0
  -27.2145  -26.9390   20.1803 C   0  0  0  0  0  0
  -25.5991  -33.8412   24.2092 N   0  0  0  0  0  0
  -23.4767  -30.4393   21.5227 C   0  0  2  0  0  0
  -24.9287  -28.8327   20.1148 C   0  0  0  0  0  0
  -22.7666  -29.4459   22.4796 C   0  0  0  0  0  0
  -18.0318  -28.1415   22.8474 C   0  0  0  0  0  0
  -24.1485  -36.7198   23.2646 C   0  0  0  0  0  0
  -26.0474  -30.6364   21.4023 C   0  0  0  0  0  0
  -26.1149  -29.2277   20.7463 C   0  0  0  0  0  0
  -27.2544  -28.3034   20.7541 C   0  0  0  0  0  0
  -25.9982  -26.7014   19.4978 C   0  0  0  0  0  0
  -24.8956  -27.5889   19.4704 C   0  0  0  0  0  0
  -23.7151  -29.7582   20.1484 C   0  0  0  0  0  0
  -25.4129  -36.2971   24.0303 C   0  0  1  0  0  0
  -20.5947  -28.3760   23.1194 C   0  0  2  0  0  0
  -20.6801  -26.9442   22.5406 C   0  0  0  0  0  0
  -19.5769  -26.6386   21.5222 C   0  0  0  0  0  0
  -18.1950  -26.7951   22.1627 C   0  0  0  0  0  0
  -19.1579  -28.8910   23.2819 C   0  0  0  0  0  0
  -18.9493  -30.1500   23.8853 C   0  0  0  0  0  0
  -17.6487  -30.6609   24.0557 C   0  0  0  0  0  0
  -25.9101  -34.9357   23.5018 C   0  0  0  0  0  0
  -16.5376  -29.9096   23.6349 C   0  0  0  0  0  0
  -16.7299  -28.6515   23.0375 C   0  0  0  0  0  0
  -26.4560  -31.6541   25.0713 C   0  0  0  0  0  0
  -25.3683  -31.3822   26.1373 C   0  0  0  0  0  0
  -27.0436  -30.2900   24.6453 C   0  0  0  0  0  0
  -27.6067  -32.4334   25.7506 C   0  0  0  0  0  0
  -27.5559  -37.1764   24.8468 C   0  0  0  0  0  0
  -21.4338  -29.3050   22.3543 N   0  0  0  0  0  0
  -26.4272  -37.3709   23.9404 N   0  0  0  0  0  0
  -24.7503  -30.9940   22.0855 N   0  0  0  0  0  0
  -23.4219  -28.8026   23.3032 O   0  0  0  0  0  0
  -28.2060  -25.8249   20.2345 O   0  0  0  0  0  0
  -26.5700  -34.8888   22.4606 O   0  0  0  0  0  0
  -23.5704  -32.1215   23.6832 O   0  0  0  0  0  0
  -29.3199  -19.6555   20.2690 C   0  0  0  0  0  0
  -29.6396  -20.6635   21.2199 C   0  0  0  0  0  0
  -28.6056  -20.3586   19.2272 C   0  0  0  0  0  0
  -28.6009  -22.6675   20.2061 C   0  0  0  0  0  0
  -30.5342  -20.0179   22.2581 C   0  0  0  0  0  0
  -30.6553  -18.4775   21.9214 C   0  0  0  0  0  0
  -30.0891  -18.1333   20.5073 C   0  0  1  0  0  0
  -28.1891  -19.6050   17.9830 C   0  0  0  0  0  0
  -27.8009  -24.2307   20.2547 C   0  0  0  0  0  0
  -29.2950  -22.0470   21.2287 N   0  0  0  0  0  0
  -28.2681  -21.7402   19.2363 N   0  0  0  0  0  0
  -29.7123  -16.5116   20.4429 N   0  0  0  0  0  0
  -31.4590  -12.9848   19.1852 H   0  0  0  0  0  0
  -30.4969  -11.8790   20.1178 H   0  0  0  0  0  0
  -29.9058  -11.7432   17.6731 H   0  0  0  0  0  0
  -29.5707  -13.4571   17.6431 H   0  0  0  0  0  0
  -28.0289  -11.2769   19.0716 H   0  0  0  0  0  0
  -27.4115  -12.3561   17.8464 H   0  0  0  0  0  0
  -27.5313  -14.2438   19.3294 H   0  0  0  0  0  0
  -28.8140  -12.4989   21.4850 H   0  0  0  0  0  0
  -28.2977  -14.1583   21.6905 H   0  0  0  0  0  0
  -25.2783   -9.5679   22.4769 H   0  0  0  0  0  0
  -24.0012   -7.4636   22.7480 H   0  0  0  0  0  0
  -21.0864   -8.8786   19.8948 H   0  0  0  0  0  0
  -22.3735  -10.9677   19.6167 H   0  0  0  0  0  0
  -21.2004   -7.6152   23.9719 H   0  0  0  0  0  0
  -21.1474   -6.0524   25.9077 H   0  0  0  0  0  0
  -22.0601   -2.7615   23.2835 H   0  0  0  0  0  0
  -22.4045  -11.9843   22.4841 H   0  0  0  0  0  0
  -21.1035  -13.1187   22.2650 H   0  0  0  0  0  0
  -24.6273  -15.8445   20.5123 H   0  0  0  0  0  0
  -26.2382  -15.6361   20.0493 H   0  0  0  0  0  0
  -26.7392  -32.5140   23.0911 H   0  0  0  0  0  0
  -25.0105  -33.9488   25.0221 H   0  0  0  0  0  0
  -22.7902  -31.2715   21.3546 H   0  0  0  0  0  0
  -23.3761  -35.9515   23.3295 H   0  0  0  0  0  0
  -24.3562  -36.8849   22.2061 H   0  0  0  0  0  0
  -23.7222  -37.6380   23.6703 H   0  0  0  0  0  0
  -26.2295  -31.3787   20.6234 H   0  0  0  0  0  0
  -26.9070  -30.6911   22.0582 H   0  0  0  0  0  0
  -28.1525  -28.6065   21.2738 H   0  0  0  0  0  0
  -25.8531  -25.7629   18.9876 H   0  0  0  0  0  0
  -23.9963  -27.2811   18.9549 H   0  0  0  0  0  0
  -23.8704  -30.5269   19.3908 H   0  0  0  0  0  0
  -22.8246  -29.2126   19.8305 H   0  0  0  0  0  0
  -25.1328  -36.1772   25.0797 H   0  0  0  0  0  0
  -21.0033  -28.3362   24.1317 H   0  0  0  0  0  0
  -20.5685  -26.2376   23.3647 H   0  0  0  0  0  0
  -21.6664  -26.7424   22.1207 H   0  0  0  0  0  0
  -19.6922  -25.6282   21.1282 H   0  0  0  0  0  0
  -19.6704  -27.3173   20.6733 H   0  0  0  0  0  0
  -17.4219  -26.6695   21.4030 H   0  0  0  0  0  0
  -18.0340  -26.0110   22.9039 H   0  0  0  0  0  0
  -19.7965  -30.7335   24.2198 H   0  0  0  0  0  0
  -17.5036  -31.6283   24.5168 H   0  0  0  0  0  0
  -15.5371  -30.2985   23.7707 H   0  0  0  0  0  0
  -15.8696  -28.0817   22.7125 H   0  0  0  0  0  0
  -24.5883  -30.7139   25.7706 H   0  0  0  0  0  0
  -24.8850  -32.3036   26.4635 H   0  0  0  0  0  0
  -25.7916  -30.9112   27.0255 H   0  0  0  0  0  0
  -26.3103  -29.6594   24.1417 H   0  0  0  0  0  0
  -27.3907  -29.7251   25.5114 H   0  0  0  0  0  0
  -27.9075  -30.4062   23.9906 H   0  0  0  0  0  0
  -27.2672  -33.3717   26.1907 H   0  0  0  0  0  0
  -28.3979  -32.6753   25.0393 H   0  0  0  0  0  0
  -28.0617  -31.8556   26.5563 H   0  0  0  0  0  0
  -28.2583  -38.0055   24.7514 H   0  0  0  0  0  0
  -28.1053  -36.2591   24.6309 H   0  0  0  0  0  0
  -27.2283  -37.1424   25.8872 H   0  0  0  0  0  0
  -20.9594  -29.8723   21.6659 H   0  0  0  0  0  0
  -26.0121  -38.2765   24.1420 H   0  0  0  0  0  0
  -30.1355  -20.1752   23.2602 H   0  0  0  0  0  0
  -31.5143  -20.4925   22.2134 H   0  0  0  0  0  0
  -30.0499  -17.9478   22.6570 H   0  0  0  0  0  0
  -31.6740  -18.1119   22.0559 H   0  0  0  0  0  0
  -30.9258  -18.1995   19.8095 H   0  0  0  0  0  0
  -28.8891  -18.7978   17.7678 H   0  0  0  0  0  0
  -28.1603  -20.2628   17.1142 H   0  0  0  0  0  0
  -27.1991  -19.1706   18.1214 H   0  0  0  0  0  0
  -27.1532  -24.1497   21.1274 H   0  0  0  0  0  0
  -27.1217  -24.1294   19.4116 H   0  0  0  0  0  0
  -28.7195  -16.3399   20.5123 H   0  0  0  0  0  0
  1 25  1  0  0  0
  1 30  2  0  0  0
  1 82  1  0  0  0
  2  3  1  0  0  0
  2 25  1  0  0  0
  2 83  1  0  0  0
  2 84  1  0  0  0
  3  4  1  0  0  0
  3 85  1  0  0  0
  3 86  1  0  0  0
  4  5  1  0  0  0
  4 87  1  0  0  0
  4 88  1  0  0  0
  5  6  1  0  0  0
  5 26  1  0  0  0
  5 89  1  0  0  0
  6 25  1  0  0  0
  6 90  1  0  0  0
  6 91  1  0  0  0
  7  8  2  0  0  0
  7 26  1  0  0  0
  7 29  1  0  0  0
  8  9  1  0  0  0
  8 22  1  0  0  0
  9 10  1  0  0  0
  9 27  2  0  0  0
 10 11  2  0  0  0
 10 15  1  0  0  0
 11 12  1  0  0  0
 11 92  1  0  0  0
 12 13  2  0  0  0
 12 93  1  0  0  0
 13 14  1  0  0  0
 13 31  1  0  0  0
 14 15  2  0  0  0
 14 94  1  0  0  0
 15 95  1  0  0  0
 16 17  2  0  0  0
 16 21  1  0  0  0
 16 31  1  0  0  0
 17 18  1  0  0  0
 17 96  1  0  0  0
 18 19  2  0  0  0
 18 97  1  0  0  0
 19 20  1  0  0  0
 19 24  1  0  0  0
 20 21  2  0  0  0
 20 98  1  0  0  0
 21 23  1  0  0  0
 22 28  1  0  0  0
 22 32  2  0  0  0
 26 27  1  0  0  0
 28 99  1  0  0  0
 28100  1  0  0  0
 29101  1  0  0  0
 29102  1  0  0  0
 33 34  1  0  0  0
 33 66  1  0  0  0
 33 70  2  0  0  0
 34 36  1  0  0  0
 34 59  1  0  0  0
 34103  1  0  0  0
 35 44  2  0  0  0
 35 45  1  0  0  0
 35 68  1  0  0  0
 36 56  1  0  0  0
 36104  1  0  0  0
 37 39  1  0  0  0
 37 47  1  0  0  0
 37 66  1  0  0  0
 37105  1  0  0  0
 38 43  2  0  0  0
 38 46  1  0  0  0
 38 47  1  0  0  0
 39 64  1  0  0  0
 39 67  2  0  0  0
 40 52  1  0  0  0
 40 53  2  0  0  0
 40 58  1  0  0  0
 41106  1  0  0  0
 41107  1  0  0  0
 41108  1  0  0  0
 41 48  1  0  0  0
 42 43  1  0  0  0
 42 66  1  0  0  0
 42109  1  0  0  0
 42110  1  0  0  0
 43 44  1  0  0  0
 44111  1  0  0  0
 45 46  2  0  0  0
 45112  1  0  0  0
 46113  1  0  0  0
 47114  1  0  0  0
 47115  1  0  0  0
 48 56  1  0  0  0
 48 65  1  0  0  0
 48116  1  0  0  0
 49 50  1  0  0  0
 49 53  1  0  0  0
 49 64  1  0  0  0
 49117  1  0  0  0
 50 51  1  0  0  0
 50118  1  0  0  0
 50119  1  0  0  0
 51 52  1  0  0  0
 51120  1  0  0  0
 51121  1  0  0  0
 52122  1  0  0  0
 52123  1  0  0  0
 53 54  1  0  0  0
 54 55  2  0  0  0
 54124  1  0  0  0
 55 57  1  0  0  0
 55125  1  0  0  0
 56 69  2  0  0  0
 57 58  2  0  0  0
 57126  1  0  0  0
 58127  1  0  0  0
 59 60  1  0  0  0
 59 61  1  0  0  0
 59 62  1  0  0  0
 60128  1  0  0  0
 60129  1  0  0  0
 60130  1  0  0  0
 61131  1  0  0  0
 61132  1  0  0  0
 61133  1  0  0  0
 62134  1  0  0  0
 62135  1  0  0  0
 62136  1  0  0  0
 63 65  1  0  0  0
 63137  1  0  0  0
 63138  1  0  0  0
 63139  1  0  0  0
 64140  1  0  0  0
 65141  1  0  0  0
 68 79  1  0  0  0
 71 72  1  0  0  0
 71 73  2  0  0  0
 71 77  1  0  0  0
 72 75  1  0  0  0
 72 80  2  0  0  0
 73 78  1  0  0  0
 73 81  1  0  0  0
 74 79  1  0  0  0
 74 80  1  0  0  0
 74 81  2  0  0  0
 75 76  1  0  0  0
 75142  1  0  0  0
 75143  1  0  0  0
 76 77  1  0  0  0
 76144  1  0  0  0
 76145  1  0  0  0
 77 82  1  0  0  0
 77146  1  0  0  0
 78147  1  0  0  0
 78148  1  0  0  0
 78149  1  0  0  0
 79150  1  0  0  0
 79151  1  0  0  0
 82152  1  0  0  0
M  ISO  4   1 100  68 101  79 101  82 100
M  END
> <chiral flag>
0

> <version>
0

> <s_m_source_file>
/data/baiqing/PycharmProjects/Reinvent-master-3.2/result/LINK_invent/BTK/process_docking_weight1_custom_sum_contain_oxygen_bond_distance_aromatic_linkinvent_7_9_3/rearranged_h_0179.sdf

> <i_m_source_file_index>
20

> <r_mmod_Potential_Energy-OPLS-2005>
902.606262207031

> <r_mmod_Stretch_Energy-OPLS-2005>
487.713989257812

> <r_mmod_Bend_Energy-OPLS-2005>
505.460632324219

> <r_mmod_Torsional_Energy-OPLS-2005>
226.971740722656

> <r_mmod_Improper_Torsional_Energy-OPLS-2005>
9.15189456939697

> <r_mmod_Van_der_Waal_Energy-OPLS-2005>
131.173278808594

> <r_mmod_Electrostatic_Energy-OPLS-2005>
-645.278442382812

> <r_mmod_Solvation_Energy-OPLS-2005>
-244.610595703125

> <b_mmod_Minimization_Converged-OPLS-2005>
0

> <r_mmod_RMS_Derivative-OPLS-2005>
0.96630984544754

$$$$
20
                    3D
 Structure written by MMmdl.
155163  0  0  1  0            999 V2000
  -30.5312  -14.9746   20.4227 C   0  0  0  0  0  0
  -30.4419  -12.6089   19.5001 C   0  0  0  0  0  0
  -29.5211  -12.5293   18.2593 C   0  0  0  0  0  0
  -28.0570  -12.3057   18.6817 C   0  0  0  0  0  0
  -27.6272  -13.2473   19.8364 C   0  0  2  0  0  0
  -28.6694  -13.2918   20.9742 C   0  0  0  0  0  0
  -25.2452  -13.8210   20.5716 C   0  0  0  0  0  0
  -24.1769  -13.0435   20.9238 C   0  0  0  0  0  0
  -24.6384  -11.6917   20.8757 C   0  0  0  0  0  0
  -23.9066  -10.4287   21.0409 C   0  0  0  0  0  0
  -24.3618   -9.4206   21.9186 C   0  0  0  0  0  0
  -23.6297   -8.2238   22.0751 C   0  0  0  0  0  0
  -22.4281   -8.0273   21.3540 C   0  0  0  0  0  0
  -21.9914   -9.0245   20.4644 C   0  0  0  0  0  0
  -22.7237  -10.2127   20.3058 C   0  0  0  0  0  0
  -21.6853   -6.0732   22.5276 C   0  0  0  0  0  0
  -21.4010   -6.5637   23.8206 C   0  0  0  0  0  0
  -21.3657   -5.6794   24.9172 C   0  0  0  0  0  0
  -21.6046   -4.3059   24.7224 C   0  0  0  0  0  0
  -21.8818   -3.8146   23.4346 C   0  0  0  0  0  0
  -21.9192   -4.6960   22.3403 C   0  0  0  0  0  0
  -22.7791  -13.5207   21.1890 C   0  0  0  0  0  0
  -22.1664   -4.2148   21.0983 F   0  0  0  0  0  0
  -21.5630   -3.4544   25.7736 F   0  0  0  0  0  0
  -29.9414  -13.7108   20.3728 N   0  0  0  0  0  0
  -26.2873  -12.9437   20.3245 N   0  0  0  0  0  0
  -25.9317  -11.6566   20.5747 N   0  0  0  0  0  0
  -22.0448  -12.8186   22.0442 N   0  0  0  0  0  0
  -25.4116  -15.1936   20.4116 N   0  0  0  0  0  0
  -31.7379  -15.0400   20.1681 O   0  0  0  0  0  0
  -21.6643   -6.8872   21.4238 O   0  0  0  0  0  0
  -22.3477  -14.5515   20.6740 O   0  0  0  0  0  0
  -24.6461  -31.8421   23.1866 C   0  0  0  0  0  0
  -25.9220  -32.4683   23.8270 C   0  0  1  0  0  0
  -27.2160  -27.1122   20.1584 C   0  0  0  0  0  0
  -25.5959  -33.8492   24.2184 N   0  0  0  0  0  0
  -23.4507  -30.4621   21.5319 C   0  0  2  0  0  0
  -24.9010  -28.8846   20.1124 C   0  0  0  0  0  0
  -22.7583  -29.4541   22.4838 C   0  0  0  0  0  0
  -18.0307  -28.1397   22.8475 C   0  0  0  0  0  0
  -24.1488  -36.7245   23.2644 C   0  0  0  0  0  0
  -26.0089  -30.7096   21.3885 C   0  0  0  0  0  0
  -26.0801  -29.3180   20.7317 C   0  0  0  0  0  0
  -27.2387  -28.4501   20.7348 C   0  0  0  0  0  0
  -26.0095  -26.7877   19.4986 C   0  0  0  0  0  0
  -24.8799  -27.6340   19.4790 C   0  0  0  0  0  0
  -23.6801  -29.7912   20.1519 C   0  0  0  0  0  0
  -25.4118  -36.3020   24.0317 C   0  0  1  0  0  0
  -20.5920  -28.3731   23.1222 C   0  0  2  0  0  0
  -20.6787  -26.9428   22.5401 C   0  0  0  0  0  0
  -19.5763  -26.6379   21.5210 C   0  0  0  0  0  0
  -18.1943  -26.7932   22.1620 C   0  0  0  0  0  0
  -19.1565  -28.8883   23.2840 C   0  0  0  0  0  0
  -18.9484  -30.1475   23.8871 C   0  0  0  0  0  0
  -17.6481  -30.6594   24.0564 C   0  0  0  0  0  0
  -25.9079  -34.9399   23.5060 C   0  0  0  0  0  0
  -16.5372  -29.9087   23.6338 C   0  0  0  0  0  0
  -16.7290  -28.6507   23.0355 C   0  0  0  0  0  0
  -26.4536  -31.6557   25.0719 C   0  0  0  0  0  0
  -25.3713  -31.3743   26.1412 C   0  0  0  0  0  0
  -27.0412  -30.2953   24.6316 C   0  0  0  0  0  0
  -27.6074  -32.4325   25.7495 C   0  0  0  0  0  0
  -27.5569  -37.1776   24.8467 C   0  0  0  0  0  0
  -21.4275  -29.3056   22.3595 N   0  0  0  0  0  0
  -26.4277  -37.3739   23.9415 N   0  0  0  0  0  0
  -24.7219  -31.0267   22.0902 N   0  0  0  0  0  0
  -23.4219  -28.8081   23.2989 O   0  0  0  0  0  0
  -28.2625  -26.1117   20.2288 O   0  0  0  0  0  0
  -26.5671  -34.8899   22.4641 O   0  0  0  0  0  0
  -23.5573  -32.1298   23.7078 O   0  0  0  0  0  0
  -30.0202  -20.0130   21.7309 C   0  0  0  0  0  0
  -29.0733  -18.8949   19.8660 C   0  0  0  0  0  0
  -29.5071  -20.4200   20.3315 C   0  0  1  0  0  0
  -30.2187  -18.4466   21.8873 C   0  0  1  0  0  0
  -30.0603  -17.7335   20.5023 C   0  0  1  0  0  0
  -29.0203  -23.2447   20.3556 C   0  0  0  0  0  0
  -27.9684  -24.5682   20.1435 C   0  0  0  0  0  0
  -29.7490  -16.1636   20.5609 N   0  0  0  0  0  0
  -31.5085  -18.1978   22.5521 N   0  3  0  0  0  0
  -28.5541  -21.7110   20.3139 N   0  3  0  0  0  0
  -30.2596  -20.8204   22.6351 O   0  0  0  0  0  0
  -31.4729  -12.7754   19.1843 H   0  0  0  0  0  0
  -30.4477  -11.6618   20.0414 H   0  0  0  0  0  0
  -29.8463  -11.7272   17.5954 H   0  0  0  0  0  0
  -29.5989  -13.4540   17.6857 H   0  0  0  0  0  0
  -27.9644  -11.2675   19.0024 H   0  0  0  0  0  0
  -27.3899  -12.4203   17.8264 H   0  0  0  0  0  0
  -27.5853  -14.2446   19.3971 H   0  0  0  0  0  0
  -28.7639  -12.3212   21.4627 H   0  0  0  0  0  0
  -28.3629  -13.9983   21.7473 H   0  0  0  0  0  0
  -25.2758   -9.5685   22.4766 H   0  0  0  0  0  0
  -24.0005   -7.4629   22.7470 H   0  0  0  0  0  0
  -21.0844   -8.8756   19.8950 H   0  0  0  0  0  0
  -22.3687  -10.9665   19.6170 H   0  0  0  0  0  0
  -21.1999   -7.6142   23.9707 H   0  0  0  0  0  0
  -21.1483   -6.0527   25.9072 H   0  0  0  0  0  0
  -22.0601   -2.7610   23.2848 H   0  0  0  0  0  0
  -22.4081  -11.9847   22.4814 H   0  0  0  0  0  0
  -21.1062  -13.1188   22.2660 H   0  0  0  0  0  0
  -24.6332  -15.8376   20.5023 H   0  0  0  0  0  0
  -26.2405  -15.6278   20.0279 H   0  0  0  0  0  0
  -26.7287  -32.5282   23.0999 H   0  0  0  0  0  0
  -25.0091  -33.9608   25.0320 H   0  0  0  0  0  0
  -22.7548  -31.2890   21.3754 H   0  0  0  0  0  0
  -23.3759  -35.9571   23.3292 H   0  0  0  0  0  0
  -24.3574  -36.8890   22.2064 H   0  0  0  0  0  0
  -23.7238  -37.6431   23.6696 H   0  0  0  0  0  0
  -26.1672  -31.4600   20.6131 H   0  0  0  0  0  0
  -26.8790  -30.7625   22.0309 H   0  0  0  0  0  0
  -28.1351  -28.7794   21.2407 H   0  0  0  0  0  0
  -25.8995  -25.8348   19.0047 H   0  0  0  0  0  0
  -23.9809  -27.2976   18.9811 H   0  0  0  0  0  0
  -23.8232  -30.5666   19.3981 H   0  0  0  0  0  0
  -22.7937  -29.2386   19.8358 H   0  0  0  0  0  0
  -25.1300  -36.1845   25.0808 H   0  0  0  0  0  0
  -21.0020  -28.3321   24.1339 H   0  0  0  0  0  0
  -20.5675  -26.2346   23.3622 H   0  0  0  0  0  0
  -21.6650  -26.7418   22.1202 H   0  0  0  0  0  0
  -19.6926  -25.6283   21.1256 H   0  0  0  0  0  0
  -19.6697  -27.3180   20.6732 H   0  0  0  0  0  0
  -17.4208  -26.6684   21.4023 H   0  0  0  0  0  0
  -18.0338  -26.0074   22.9015 H   0  0  0  0  0  0
  -19.7963  -30.7300   24.2225 H   0  0  0  0  0  0
  -17.5036  -31.6271   24.5174 H   0  0  0  0  0  0
  -15.5375  -30.2988   23.7677 H   0  0  0  0  0  0
  -15.8683  -28.0826   22.7082 H   0  0  0  0  0  0
  -24.5919  -30.7062   25.7730 H   0  0  0  0  0  0
  -24.8874  -32.2920   26.4770 H   0  0  0  0  0  0
  -25.7991  -30.8967   27.0236 H   0  0  0  0  0  0
  -26.3040  -29.6661   24.1324 H   0  0  0  0  0  0
  -27.4024  -29.7268   25.4896 H   0  0  0  0  0  0
  -27.8940  -30.4187   23.9637 H   0  0  0  0  0  0
  -27.2693  -33.3672   26.1980 H   0  0  0  0  0  0
  -28.3928  -32.6810   25.0342 H   0  0  0  0  0  0
  -28.0694  -31.8506   26.5478 H   0  0  0  0  0  0
  -28.2571  -38.0087   24.7521 H   0  0  0  0  0  0
  -28.1077  -36.2616   24.6277 H   0  0  0  0  0  0
  -27.2293  -37.1399   25.8871 H   0  0  0  0  0  0
  -20.9492  -29.8778   21.6777 H   0  0  0  0  0  0
  -26.0136  -38.2800   24.1438 H   0  0  0  0  0  0
  -29.0570  -18.8241   18.7781 H   0  0  0  0  0  0
  -28.0490  -18.7054   20.1929 H   0  0  0  0  0  0
  -30.3776  -20.6940   19.7352 H   0  0  0  0  0  0
  -29.4288  -18.0883   22.5479 H   0  0  0  0  0  0
  -31.0062  -17.8184   19.9639 H   0  0  0  0  0  0
  -29.5210  -23.3857   21.3134 H   0  0  0  0  0  0
  -29.8052  -23.3453   19.6063 H   0  0  0  0  0  0
  -27.1451  -24.4073   20.8396 H   0  0  0  0  0  0
  -27.5357  -24.4131   19.1565 H   0  0  0  0  0  0
  -28.7732  -15.9553   20.7134 H   0  0  0  0  0  0
  -32.2762  -18.5138   21.9879 H   0  0  0  0  0  0
  -31.6256  -17.2223   22.7547 H   0  0  0  0  0  0
  -31.5277  -18.7113   23.4160 H   0  0  0  0  0  0
  -27.8924  -21.5848   21.0641 H   0  0  0  0  0  0
  -28.0237  -21.6227   19.4625 H   0  0  0  0  0  0
  1 25  1  0  0  0
  1 30  2  0  0  0
  1 78  1  0  0  0
  2  3  1  0  0  0
  2 25  1  0  0  0
  2 82  1  0  0  0
  2 83  1  0  0  0
  3  4  1  0  0  0
  3 84  1  0  0  0
  3 85  1  0  0  0
  4  5  1  0  0  0
  4 86  1  0  0  0
  4 87  1  0  0  0
  5  6  1  0  0  0
  5 26  1  0  0  0
  5 88  1  0  0  0
  6 25  1  0  0  0
  6 89  1  0  0  0
  6 90  1  0  0  0
  7  8  2  0  0  0
  7 26  1  0  0  0
  7 29  1  0  0  0
  8  9  1  0  0  0
  8 22  1  0  0  0
  9 10  1  0  0  0
  9 27  2  0  0  0
 10 11  2  0  0  0
 10 15  1  0  0  0
 11 12  1  0  0  0
 11 91  1  0  0  0
 12 13  2  0  0  0
 12 92  1  0  0  0
 13 14  1  0  0  0
 13 31  1  0  0  0
 14 15  2  0  0  0
 14 93  1  0  0  0
 15 94  1  0  0  0
 16 17  2  0  0  0
 16 21  1  0  0  0
 16 31  1  0  0  0
 17 18  1  0  0  0
 17 95  1  0  0  0
 18 19  2  0  0  0
 18 96  1  0  0  0
 19 20  1  0  0  0
 19 24  1  0  0  0
 20 21  2  0  0  0
 20 97  1  0  0  0
 21 23  1  0  0  0
 22 28  1  0  0  0
 22 32  2  0  0  0
 26 27  1  0  0  0
 28 98  1  0  0  0
 28 99  1  0  0  0
 29100  1  0  0  0
 29101  1  0  0  0
 33 34  1  0  0  0
 33 66  1  0  0  0
 33 70  2  0  0  0
 34 36  1  0  0  0
 34 59  1  0  0  0
 34102  1  0  0  0
 35 44  2  0  0  0
 35 45  1  0  0  0
 35 68  1  0  0  0
 36 56  1  0  0  0
 36103  1  0  0  0
 37 39  1  0  0  0
 37 47  1  0  0  0
 37 66  1  0  0  0
 37104  1  0  0  0
 38 43  2  0  0  0
 38 46  1  0  0  0
 38 47  1  0  0  0
 39 64  1  0  0  0
 39 67  2  0  0  0
 40 52  1  0  0  0
 40 53  2  0  0  0
 40 58  1  0  0  0
 41105  1  0  0  0
 41106  1  0  0  0
 41107  1  0  0  0
 41 48  1  0  0  0
 42 43  1  0  0  0
 42 66  1  0  0  0
 42108  1  0  0  0
 42109  1  0  0  0
 43 44  1  0  0  0
 44110  1  0  0  0
 45 46  2  0  0  0
 45111  1  0  0  0
 46112  1  0  0  0
 47113  1  0  0  0
 47114  1  0  0  0
 48 56  1  0  0  0
 48 65  1  0  0  0
 48115  1  0  0  0
 49 50  1  0  0  0
 49 53  1  0  0  0
 49 64  1  0  0  0
 49116  1  0  0  0
 50 51  1  0  0  0
 50117  1  0  0  0
 50118  1  0  0  0
 51 52  1  0  0  0
 51119  1  0  0  0
 51120  1  0  0  0
 52121  1  0  0  0
 52122  1  0  0  0
 53 54  1  0  0  0
 54 55  2  0  0  0
 54123  1  0  0  0
 55 57  1  0  0  0
 55124  1  0  0  0
 56 69  2  0  0  0
 57 58  2  0  0  0
 57125  1  0  0  0
 58126  1  0  0  0
 59 60  1  0  0  0
 59 61  1  0  0  0
 59 62  1  0  0  0
 60127  1  0  0  0
 60128  1  0  0  0
 60129  1  0  0  0
 61130  1  0  0  0
 61131  1  0  0  0
 61132  1  0  0  0
 62133  1  0  0  0
 62134  1  0  0  0
 62135  1  0  0  0
 63 65  1  0  0  0
 63136  1  0  0  0
 63137  1  0  0  0
 63138  1  0  0  0
 64139  1  0  0  0
 65140  1  0  0  0
 68 77  1  0  0  0
 71 73  1  0  0  0
 71 74  1  0  0  0
 71 81  2  0  0  0
 72 73  1  0  0  0
 72 75  1  0  0  0
 72141  1  0  0  0
 72142  1  0  0  0
 73 80  1  0  0  0
 73143  1  0  0  0
 74 75  1  0  0  0
 74 79  1  0  0  0
 74144  1  0  0  0
 75 78  1  0  0  0
 75145  1  0  0  0
 76 77  1  0  0  0
 76 80  1  0  0  0
 76146  1  0  0  0
 76147  1  0  0  0
 77148  1  0  0  0
 77149  1  0  0  0
 78150  1  0  0  0
 79151  1  0  0  0
 79152  1  0  0  0
 79153  1  0  0  0
 80154  1  0  0  0
 80155  1  0  0  0
M  CHG  2  79   1  80   1
M  ISO  4   1 100  68 101  77 101  78 100
M  END
> <chiral flag>
0

> <version>
0

> <s_m_source_file>
/data/baiqing/PycharmProjects/Reinvent-master-3.2/result/LINK_invent/BTK/process_docking_weight1_custom_sum_contain_oxygen_bond_distance_aromatic_linkinvent_7_9_3/rearranged_h_0179.sdf

> <i_m_source_file_index>
21

> <r_mmod_Potential_Energy-OPLS-2005>
32.9734535217285

> <r_mmod_Stretch_Energy-OPLS-2005>
282.233612060547

> <r_mmod_Bend_Energy-OPLS-2005>
308.896026611328

> <r_mmod_Torsional_Energy-OPLS-2005>
263.321044921875

> <r_mmod_Improper_Torsional_Energy-OPLS-2005>
4.23313903808594

> <r_mmod_Van_der_Waal_Energy-OPLS-2005>
108.61067199707

> <r_mmod_Electrostatic_Energy-OPLS-2005>
-93.866096496582

> <r_mmod_Solvation_Energy-OPLS-2005>
-1054.66101074219

> <b_mmod_Minimization_Converged-OPLS-2005>
0

> <r_mmod_RMS_Derivative-OPLS-2005>
1.06076228618622

$$$$
21
                    3D
 Structure written by MMmdl.
154163  0  0  1  0            999 V2000
  -30.4642  -15.3089   20.3799 C   0  0  0  0  0  0
  -30.4262  -12.8531   19.5131 C   0  0  0  0  0  0
  -29.5299  -12.5903   18.2777 C   0  0  0  0  0  0
  -28.0810  -12.3064   18.7061 C   0  0  0  0  0  0
  -27.6039  -13.2822   19.8114 C   0  0  2  0  0  0
  -28.6378  -13.4794   20.9400 C   0  0  0  0  0  0
  -25.2329  -13.8243   20.5687 C   0  0  0  0  0  0
  -24.1709  -13.0431   20.9258 C   0  0  0  0  0  0
  -24.6385  -11.6938   20.8762 C   0  0  0  0  0  0
  -23.9092  -10.4294   21.0402 C   0  0  0  0  0  0
  -24.3647   -9.4206   21.9170 C   0  0  0  0  0  0
  -23.6320   -8.2237   22.0744 C   0  0  0  0  0  0
  -22.4292   -8.0279   21.3546 C   0  0  0  0  0  0
  -21.9937   -9.0249   20.4635 C   0  0  0  0  0  0
  -22.7271  -10.2126   20.3042 C   0  0  0  0  0  0
  -21.6847   -6.0744   22.5293 C   0  0  0  0  0  0
  -21.4002   -6.5639   23.8228 C   0  0  0  0  0  0
  -21.3662   -5.6792   24.9186 C   0  0  0  0  0  0
  -21.6045   -4.3055   24.7232 C   0  0  0  0  0  0
  -21.8809   -3.8151   23.4349 C   0  0  0  0  0  0
  -21.9182   -4.6971   22.3409 C   0  0  0  0  0  0
  -22.7728  -13.5180   21.1917 C   0  0  0  0  0  0
  -22.1642   -4.2153   21.0984 F   0  0  0  0  0  0
  -21.5649   -3.4534   25.7743 F   0  0  0  0  0  0
  -29.8535  -14.0148   20.3011 N   0  0  0  0  0  0
  -26.2767  -12.9538   20.3160 N   0  0  0  0  0  0
  -25.9320  -11.6644   20.5691 N   0  0  0  0  0  0
  -22.0374  -12.8167   22.0469 N   0  0  0  0  0  0
  -25.3919  -15.1964   20.4029 N   0  0  0  0  0  0
  -31.6897  -15.2254   20.1996 O   0  0  0  0  0  0
  -21.6638   -6.8888   21.4254 O   0  0  0  0  0  0
  -22.3413  -14.5483   20.6758 O   0  0  0  0  0  0
  -24.6664  -31.8229   23.1694 C   0  0  0  0  0  0
  -25.9342  -32.4583   23.8151 C   0  0  1  0  0  0
  -27.2083  -26.9090   20.1830 C   0  0  0  0  0  0
  -25.6011  -33.8392   24.2063 N   0  0  0  0  0  0
  -23.4788  -30.4368   21.5212 C   0  0  2  0  0  0
  -24.9289  -28.8229   20.1108 C   0  0  0  0  0  0
  -22.7675  -29.4451   22.4795 C   0  0  0  0  0  0
  -18.0318  -28.1420   22.8481 C   0  0  0  0  0  0
  -24.1481  -36.7179   23.2640 C   0  0  0  0  0  0
  -26.0495  -30.6255   21.3983 C   0  0  0  0  0  0
  -26.1163  -29.2133   20.7434 C   0  0  0  0  0  0
  -27.2509  -28.2799   20.7529 C   0  0  0  0  0  0
  -25.9902  -26.6806   19.5017 C   0  0  0  0  0  0
  -24.8930  -27.5771   19.4682 C   0  0  0  0  0  0
  -23.7165  -29.7553   20.1463 C   0  0  0  0  0  0
  -25.4123  -36.2951   24.0303 C   0  0  1  0  0  0
  -20.5953  -28.3758   23.1202 C   0  0  2  0  0  0
  -20.6798  -26.9438   22.5425 C   0  0  0  0  0  0
  -19.5771  -26.6390   21.5236 C   0  0  0  0  0  0
  -18.1947  -26.7965   22.1631 C   0  0  0  0  0  0
  -19.1589  -28.8913   23.2821 C   0  0  0  0  0  0
  -18.9496  -30.1512   23.8853 C   0  0  0  0  0  0
  -17.6494  -30.6608   24.0568 C   0  0  0  0  0  0
  -25.9109  -34.9349   23.4998 C   0  0  0  0  0  0
  -16.5377  -29.9112   23.6352 C   0  0  0  0  0  0
  -16.7308  -28.6533   23.0366 C   0  0  0  0  0  0
  -26.4575  -31.6531   25.0681 C   0  0  0  0  0  0
  -25.3698  -31.3840   26.1344 C   0  0  0  0  0  0
  -27.0423  -30.2879   24.6412 C   0  0  0  0  0  0
  -27.6070  -32.4331   25.7485 C   0  0  0  0  0  0
  -27.5561  -37.1730   24.8450 C   0  0  0  0  0  0
  -21.4350  -29.3046   22.3542 N   0  0  0  0  0  0
  -26.4239  -37.3716   23.9437 N   0  0  0  0  0  0
  -24.7540  -30.9888   22.0838 N   0  0  0  0  0  0
  -23.4234  -28.8014   23.3026 O   0  0  0  0  0  0
  -28.1877  -25.7757   20.2514 O   0  0  0  0  0  0
  -26.5697  -34.8902   22.4579 O   0  0  0  0  0  0
  -23.5740  -32.1200   23.6807 O   0  0  0  0  0  0
  -27.9704  -21.2934   20.6216 C   0  0  0  0  0  0
  -29.9289  -22.2406   19.8143 C   0  0  0  0  0  0
  -28.5593  -19.9009   20.5861 C   0  0  0  0  0  0
  -29.8728  -19.6353   20.1595 C   0  0  0  0  0  0
  -28.5962  -22.5992   20.2446 C   0  0  0  0  0  0
  -30.5267  -20.8854   19.7869 C   0  0  0  0  0  0
  -27.8987  -18.5705   21.0911 C   0  0  0  0  0  0
  -30.5392  -18.0868   20.1765 C   0  0  0  0  0  0
  -28.3783  -17.0756   20.5910 C   0  0  0  0  0  0
  -31.9715  -20.8022   19.3292 C   0  0  0  0  0  0
  -27.7903  -24.1705   20.1610 C   0  0  0  0  0  0
  -29.8280  -16.6767   20.4133 N   0  0  0  0  0  0
  -31.4425  -13.0532   19.1686 H   0  0  0  0  0  0
  -30.5080  -11.9608   20.1349 H   0  0  0  0  0  0
  -29.9236  -11.7589   17.6909 H   0  0  0  0  0  0
  -29.5517  -13.4643   17.6243 H   0  0  0  0  0  0
  -28.0400  -11.2820   19.0764 H   0  0  0  0  0  0
  -27.4169  -12.3450   17.8421 H   0  0  0  0  0  0
  -27.5078  -14.2435   19.3047 H   0  0  0  0  0  0
  -28.8250  -12.5448   21.4713 H   0  0  0  0  0  0
  -28.2658  -14.1840   21.6825 H   0  0  0  0  0  0
  -25.2787   -9.5682   22.4749 H   0  0  0  0  0  0
  -24.0026   -7.4620   22.7462 H   0  0  0  0  0  0
  -21.0869   -8.8775   19.8935 H   0  0  0  0  0  0
  -22.3734  -10.9665   19.6152 H   0  0  0  0  0  0
  -21.1974   -7.6140   23.9737 H   0  0  0  0  0  0
  -21.1501   -6.0511   25.9095 H   0  0  0  0  0  0
  -22.0580   -2.7610   23.2844 H   0  0  0  0  0  0
  -22.4019  -11.9852   22.4879 H   0  0  0  0  0  0
  -21.0975  -13.1167   22.2661 H   0  0  0  0  0  0
  -24.6105  -15.8375   20.4809 H   0  0  0  0  0  0
  -26.2226  -15.6302   20.0261 H   0  0  0  0  0  0
  -26.7406  -32.5101   23.0864 H   0  0  0  0  0  0
  -25.0141  -33.9464   25.0204 H   0  0  0  0  0  0
  -22.7928  -31.2699   21.3538 H   0  0  0  0  0  0
  -23.3770  -35.9476   23.3264 H   0  0  0  0  0  0
  -24.3585  -36.8865   22.2065 H   0  0  0  0  0  0
  -23.7207  -37.6345   23.6717 H   0  0  0  0  0  0
  -26.2251  -31.3682   20.6187 H   0  0  0  0  0  0
  -26.9120  -30.6841   22.0501 H   0  0  0  0  0  0
  -28.1487  -28.5799   21.2748 H   0  0  0  0  0  0
  -25.8404  -25.7333   19.0074 H   0  0  0  0  0  0
  -23.9920  -27.2723   18.9534 H   0  0  0  0  0  0
  -23.8709  -30.5260   19.3896 H   0  0  0  0  0  0
  -22.8235  -29.2139   19.8293 H   0  0  0  0  0  0
  -25.1325  -36.1717   25.0792 H   0  0  0  0  0  0
  -21.0035  -28.3360   24.1331 H   0  0  0  0  0  0
  -20.5664  -26.2381   23.3667 H   0  0  0  0  0  0
  -21.6657  -26.7412   22.1226 H   0  0  0  0  0  0
  -19.6916  -25.6299   21.1273 H   0  0  0  0  0  0
  -19.6707  -27.3197   20.6765 H   0  0  0  0  0  0
  -17.4220  -26.6735   21.4018 H   0  0  0  0  0  0
  -18.0306  -26.0121   22.9034 H   0  0  0  0  0  0
  -19.7973  -30.7341   24.2182 H   0  0  0  0  0  0
  -17.5047  -31.6283   24.5192 H   0  0  0  0  0  0
  -15.5374  -30.2993   23.7716 H   0  0  0  0  0  0
  -15.8709  -28.0846   22.7090 H   0  0  0  0  0  0
  -24.5918  -30.7119   25.7712 H   0  0  0  0  0  0
  -24.8828  -32.3055   26.4541 H   0  0  0  0  0  0
  -25.7943  -30.9204   27.0256 H   0  0  0  0  0  0
  -26.3071  -29.6591   24.1364 H   0  0  0  0  0  0
  -27.3882  -29.7226   25.5077 H   0  0  0  0  0  0
  -27.9072  -30.4049   23.9873 H   0  0  0  0  0  0
  -27.2653  -33.3705   26.1899 H   0  0  0  0  0  0
  -28.3977  -32.6762   25.0370 H   0  0  0  0  0  0
  -28.0613  -31.8528   26.5531 H   0  0  0  0  0  0
  -28.2519  -38.0080   24.7567 H   0  0  0  0  0  0
  -28.1103  -36.2616   24.6165 H   0  0  0  0  0  0
  -27.2305  -37.1264   25.8852 H   0  0  0  0  0  0
  -20.9590  -29.8740   21.6680 H   0  0  0  0  0  0
  -26.0070  -38.2742   24.1523 H   0  0  0  0  0  0
  -26.9486  -21.3555   20.9677 H   0  0  0  0  0  0
  -30.5400  -23.0631   19.4690 H   0  0  0  0  0  0
  -26.8224  -18.6619   20.9376 H   0  0  0  0  0  0
  -28.0262  -18.6011   22.1743 H   0  0  0  0  0  0
  -31.3285  -18.1297   20.9274 H   0  0  0  0  0  0
  -31.0674  -17.9824   19.2278 H   0  0  0  0  0  0
  -27.9245  -16.9053   19.6148 H   0  0  0  0  0  0
  -27.9113  -16.3527   21.2564 H   0  0  0  0  0  0
  -32.4779  -21.7588   19.4638 H   0  0  0  0  0  0
  -32.0259  -20.5325   18.2744 H   0  0  0  0  0  0
  -32.5272  -20.0615   19.9042 H   0  0  0  0  0  0
  -26.9984  -24.0765   20.9053 H   0  0  0  0  0  0
  -27.2674  -24.0922   19.2082 H   0  0  0  0  0  0
  1 25  1  0  0  0
  1 30  2  0  0  0
  1 82  1  0  0  0
  2  3  1  0  0  0
  2 25  1  0  0  0
  2 83  1  0  0  0
  2 84  1  0  0  0
  3  4  1  0  0  0
  3 85  1  0  0  0
  3 86  1  0  0  0
  4  5  1  0  0  0
  4 87  1  0  0  0
  4 88  1  0  0  0
  5  6  1  0  0  0
  5 26  1  0  0  0
  5 89  1  0  0  0
  6 25  1  0  0  0
  6 90  1  0  0  0
  6 91  1  0  0  0
  7  8  2  0  0  0
  7 26  1  0  0  0
  7 29  1  0  0  0
  8  9  1  0  0  0
  8 22  1  0  0  0
  9 10  1  0  0  0
  9 27  2  0  0  0
 10 11  2  0  0  0
 10 15  1  0  0  0
 11 12  1  0  0  0
 11 92  1  0  0  0
 12 13  2  0  0  0
 12 93  1  0  0  0
 13 14  1  0  0  0
 13 31  1  0  0  0
 14 15  2  0  0  0
 14 94  1  0  0  0
 15 95  1  0  0  0
 16 17  2  0  0  0
 16 21  1  0  0  0
 16 31  1  0  0  0
 17 18  1  0  0  0
 17 96  1  0  0  0
 18 19  2  0  0  0
 18 97  1  0  0  0
 19 20  1  0  0  0
 19 24  1  0  0  0
 20 21  2  0  0  0
 20 98  1  0  0  0
 21 23  1  0  0  0
 22 28  1  0  0  0
 22 32  2  0  0  0
 26 27  1  0  0  0
 28 99  1  0  0  0
 28100  1  0  0  0
 29101  1  0  0  0
 29102  1  0  0  0
 33 34  1  0  0  0
 33 66  1  0  0  0
 33 70  2  0  0  0
 34 36  1  0  0  0
 34 59  1  0  0  0
 34103  1  0  0  0
 35 44  2  0  0  0
 35 45  1  0  0  0
 35 68  1  0  0  0
 36 56  1  0  0  0
 36104  1  0  0  0
 37 39  1  0  0  0
 37 47  1  0  0  0
 37 66  1  0  0  0
 37105  1  0  0  0
 38 43  2  0  0  0
 38 46  1  0  0  0
 38 47  1  0  0  0
 39 64  1  0  0  0
 39 67  2  0  0  0
 40 52  1  0  0  0
 40 53  2  0  0  0
 40 58  1  0  0  0
 41106  1  0  0  0
 41107  1  0  0  0
 41108  1  0  0  0
 41 48  1  0  0  0
 42 43  1  0  0  0
 42 66  1  0  0  0
 42109  1  0  0  0
 42110  1  0  0  0
 43 44  1  0  0  0
 44111  1  0  0  0
 45 46  2  0  0  0
 45112  1  0  0  0
 46113  1  0  0  0
 47114  1  0  0  0
 47115  1  0  0  0
 48 56  1  0  0  0
 48 65  1  0  0  0
 48116  1  0  0  0
 49 50  1  0  0  0
 49 53  1  0  0  0
 49 64  1  0  0  0
 49117  1  0  0  0
 50 51  1  0  0  0
 50118  1  0  0  0
 50119  1  0  0  0
 51 52  1  0  0  0
 51120  1  0  0  0
 51121  1  0  0  0
 52122  1  0  0  0
 52123  1  0  0  0
 53 54  1  0  0  0
 54 55  2  0  0  0
 54124  1  0  0  0
 55 57  1  0  0  0
 55125  1  0  0  0
 56 69  2  0  0  0
 57 58  2  0  0  0
 57126  1  0  0  0
 58127  1  0  0  0
 59 60  1  0  0  0
 59 61  1  0  0  0
 59 62  1  0  0  0
 60128  1  0  0  0
 60129  1  0  0  0
 60130  1  0  0  0
 61131  1  0  0  0
 61132  1  0  0  0
 61133  1  0  0  0
 62134  1  0  0  0
 62135  1  0  0  0
 62136  1  0  0  0
 63 65  1  0  0  0
 63137  1  0  0  0
 63138  1  0  0  0
 63139  1  0  0  0
 64140  1  0  0  0
 65141  1  0  0  0
 68 81  1  0  0  0
 71 73  2  0  0  0
 71 75  1  0  0  0
 71142  1  0  0  0
 72 75  2  0  0  0
 72 76  1  0  0  0
 72143  1  0  0  0
 73 74  1  0  0  0
 73 77  1  0  0  0
 74 76  2  0  0  0
 74 78  1  0  0  0
 75 81  1  0  0  0
 76 80  1  0  0  0
 77 79  1  0  0  0
 77144  1  0  0  0
 77145  1  0  0  0
 78 82  1  0  0  0
 78146  1  0  0  0
 78147  1  0  0  0
 79 82  1  0  0  0
 79148  1  0  0  0
 79149  1  0  0  0
 80150  1  0  0  0
 80151  1  0  0  0
 80152  1  0  0  0
 81153  1  0  0  0
 81154  1  0  0  0
M  ISO  4   1 100  68 101  81 101  82 100
M  END
> <chiral flag>
0

> <version>
0

> <s_m_source_file>
/data/baiqing/PycharmProjects/Reinvent-master-3.2/result/LINK_invent/BTK/process_docking_weight1_custom_sum_contain_oxygen_bond_distance_aromatic_linkinvent_7_9_3/rearranged_h_0179.sdf

> <i_m_source_file_index>
22

> <r_mmod_Potential_Energy-OPLS-2005>
1350.89318847656

> <r_mmod_Stretch_Energy-OPLS-2005>
517.707092285156

> <r_mmod_Bend_Energy-OPLS-2005>
448.149597167969

> <r_mmod_Torsional_Energy-OPLS-2005>
274.857116699219

> <r_mmod_Improper_Torsional_Energy-OPLS-2005>
6.51899528503418

> <r_mmod_Van_der_Waal_Energy-OPLS-2005>
128.301620483398

> <r_mmod_Electrostatic_Energy-OPLS-2005>
-308.648498535156

> <r_mmod_Solvation_Energy-OPLS-2005>
-209.128326416016

> <b_mmod_Minimization_Converged-OPLS-2005>
0

> <r_mmod_RMS_Derivative-OPLS-2005>
2.70522713661194

$$$$
22
                    3D
 Structure written by MMmdl.
165174  0  0  1  0            999 V2000
  -30.5346  -14.9228   20.4984 C   0  0  0  0  0  0
  -30.4455  -12.5735   19.5068 C   0  0  0  0  0  0
  -29.5276  -12.5371   18.2627 C   0  0  0  0  0  0
  -28.0550  -12.3198   18.6613 C   0  0  0  0  0  0
  -27.6276  -13.2426   19.8270 C   0  0  2  0  0  0
  -28.6546  -13.2230   20.9681 C   0  0  0  0  0  0
  -25.2436  -13.8215   20.5672 C   0  0  0  0  0  0
  -24.1745  -13.0464   20.9210 C   0  0  0  0  0  0
  -24.6364  -11.6926   20.8750 C   0  0  0  0  0  0
  -23.9054  -10.4288   21.0405 C   0  0  0  0  0  0
  -24.3619   -9.4198   21.9172 C   0  0  0  0  0  0
  -23.6316   -8.2223   22.0717 C   0  0  0  0  0  0
  -22.4297   -8.0277   21.3518 C   0  0  0  0  0  0
  -21.9924   -9.0235   20.4619 C   0  0  0  0  0  0
  -22.7228  -10.2125   20.3056 C   0  0  0  0  0  0
  -21.6827   -6.0773   22.5290 C   0  0  0  0  0  0
  -21.3999   -6.5671   23.8225 C   0  0  0  0  0  0
  -21.3652   -5.6824   24.9189 C   0  0  0  0  0  0
  -21.6047   -4.3088   24.7237 C   0  0  0  0  0  0
  -21.8804   -3.8186   23.4356 C   0  0  0  0  0  0
  -21.9168   -4.7004   22.3422 C   0  0  0  0  0  0
  -22.7750  -13.5162   21.1970 C   0  0  0  0  0  0
  -22.1652   -4.2186   21.0996 F   0  0  0  0  0  0
  -21.5612   -3.4560   25.7750 F   0  0  0  0  0  0
  -29.9531  -13.6483   20.4168 N   0  0  0  0  0  0
  -26.2834  -12.9441   20.3099 N   0  0  0  0  0  0
  -25.9283  -11.6591   20.5656 N   0  0  0  0  0  0
  -22.0468  -12.8107   22.0535 N   0  0  0  0  0  0
  -25.4293  -15.1957   20.4135 N   0  0  0  0  0  0
  -31.6549  -15.0689   19.9955 O   0  0  0  0  0  0
  -21.6632   -6.8915   21.4248 O   0  0  0  0  0  0
  -22.3382  -14.5483   20.6864 O   0  0  0  0  0  0
  -24.6444  -31.8390   23.1782 C   0  0  0  0  0  0
  -25.9191  -32.4666   23.8227 C   0  0  1  0  0  0
  -27.2379  -27.1142   20.1462 C   0  0  0  0  0  0
  -25.5922  -33.8480   24.2147 N   0  0  0  0  0  0
  -23.4518  -30.4493   21.5224 C   0  0  2  0  0  0
  -24.9082  -28.8622   20.1076 C   0  0  0  0  0  0
  -22.7565  -29.4507   22.4789 C   0  0  0  0  0  0
  -18.0315  -28.1414   22.8465 C   0  0  0  0  0  0
  -24.1492  -36.7279   23.2635 C   0  0  0  0  0  0
  -26.0070  -30.7028   21.3803 C   0  0  0  0  0  0
  -26.0797  -29.3061   20.7321 C   0  0  0  0  0  0
  -27.2376  -28.4424   20.7432 C   0  0  0  0  0  0
  -26.0452  -26.7771   19.4704 C   0  0  0  0  0  0
  -24.9018  -27.6098   19.4697 C   0  0  0  0  0  0
  -23.6851  -29.7661   20.1449 C   0  0  0  0  0  0
  -25.4117  -36.3026   24.0300 C   0  0  1  0  0  0
  -20.5920  -28.3758   23.1208 C   0  0  2  0  0  0
  -20.6775  -26.9460   22.5416 C   0  0  0  0  0  0
  -19.5774  -26.6428   21.5202 C   0  0  0  0  0  0
  -18.1950  -26.7934   22.1643 C   0  0  0  0  0  0
  -19.1565  -28.8905   23.2844 C   0  0  0  0  0  0
  -18.9477  -30.1456   23.8923 C   0  0  0  0  0  0
  -17.6491  -30.6599   24.0606 C   0  0  0  0  0  0
  -25.9060  -34.9388   23.5046 C   0  0  0  0  0  0
  -16.5383  -29.9123   23.6340 C   0  0  0  0  0  0
  -16.7301  -28.6539   23.0321 C   0  0  0  0  0  0
  -26.4505  -31.6550   25.0695 C   0  0  0  0  0  0
  -25.3707  -31.3755   26.1410 C   0  0  0  0  0  0
  -27.0334  -30.2939   24.6246 C   0  0  0  0  0  0
  -27.6035  -32.4316   25.7498 C   0  0  0  0  0  0
  -27.5572  -37.1787   24.8458 C   0  0  0  0  0  0
  -21.4248  -29.3069   22.3561 N   0  0  0  0  0  0
  -26.4282  -37.3734   23.9393 N   0  0  0  0  0  0
  -24.7216  -31.0173   22.0859 N   0  0  0  0  0  0
  -23.4168  -28.8065   23.2979 O   0  0  0  0  0  0
  -28.3057  -26.1469   20.2857 O   0  0  0  0  0  0
  -26.5678  -34.8893   22.4640 O   0  0  0  0  0  0
  -23.5565  -32.1274   23.6979 O   0  0  0  0  0  0
  -29.0214  -16.4096   23.3344 C   0  0  0  0  0  0
  -28.9881  -17.7451   22.6192 C   0  0  0  0  0  0
  -30.0917  -15.6780   22.5851 C   0  0  0  0  0  0
  -27.6726  -20.5093   21.6224 C   0  0  0  0  0  0
  -29.2554  -21.7582   20.1846 C   0  0  0  0  0  0
  -29.7308  -17.6073   21.2679 C   0  0  1  0  0  0
  -26.6467  -21.6361   21.3223 C   0  0  2  0  0  0
  -28.2254  -23.1113   20.1411 C   0  0  2  0  0  0
  -25.7961  -21.2961   20.0701 C   0  0  0  0  0  0
  -29.1296  -18.8348   20.2395 C   0  0  0  0  0  0
  -28.4659  -24.7290   19.6369 C   0  0  0  0  0  0
  -29.8508  -15.9890   21.1583 N   0  0  0  0  0  0
  -28.7121  -20.3384   20.5901 N   0  0  0  0  0  0
  -27.2821  -22.9827   21.2704 N   0  3  0  0  0  0
  -31.4722  -12.7502   19.1950 H   0  0  0  0  0  0
  -30.4672  -11.6049   20.0143 H   0  0  0  0  0  0
  -29.8502  -11.7588   17.5723 H   0  0  0  0  0  0
  -29.6255  -13.4821   17.7274 H   0  0  0  0  0  0
  -27.9370  -11.2785   18.9603 H   0  0  0  0  0  0
  -27.4020  -12.4657   17.7984 H   0  0  0  0  0  0
  -27.6074  -14.2531   19.4190 H   0  0  0  0  0  0
  -28.7126  -12.2250   21.4077 H   0  0  0  0  0  0
  -28.3023  -13.8915   21.7508 H   0  0  0  0  0  0
  -25.2758   -9.5672   22.4750 H   0  0  0  0  0  0
  -24.0034   -7.4595   22.7418 H   0  0  0  0  0  0
  -21.0849   -8.8750   19.8920 H   0  0  0  0  0  0
  -22.3683  -10.9668   19.6179 H   0  0  0  0  0  0
  -21.1995   -7.6166   23.9743 H   0  0  0  0  0  0
  -21.1479   -6.0545   25.9082 H   0  0  0  0  0  0
  -22.0593   -2.7640   23.2850 H   0  0  0  0  0  0
  -22.4117  -11.9691   22.4786 H   0  0  0  0  0  0
  -21.1105  -13.1085   22.2935 H   0  0  0  0  0  0
  -24.6906  -15.8824   20.5129 H   0  0  0  0  0  0
  -26.3101  -15.5972   20.1216 H   0  0  0  0  0  0
  -26.7268  -32.5271   23.0963 H   0  0  0  0  0  0
  -25.0012  -33.9596   25.0260 H   0  0  0  0  0  0
  -22.7628  -31.2788   21.3533 H   0  0  0  0  0  0
  -23.3734  -35.9632   23.3278 H   0  0  0  0  0  0
  -24.3583  -36.8938   22.2054 H   0  0  0  0  0  0
  -23.7270  -37.6473   23.6706 H   0  0  0  0  0  0
  -26.1501  -31.4455   20.5914 H   0  0  0  0  0  0
  -26.8863  -30.7743   22.0100 H   0  0  0  0  0  0
  -28.1278  -28.7655   21.2668 H   0  0  0  0  0  0
  -25.9611  -25.8227   18.9710 H   0  0  0  0  0  0
  -24.0055  -27.2599   18.9775 H   0  0  0  0  0  0
  -23.8342  -30.5330   19.3840 H   0  0  0  0  0  0
  -22.8030  -29.2057   19.8340 H   0  0  0  0  0  0
  -25.1301  -36.1841   25.0792 H   0  0  0  0  0  0
  -21.0004  -28.3340   24.1327 H   0  0  0  0  0  0
  -20.5520  -26.2428   23.3637 H   0  0  0  0  0  0
  -21.6678  -26.7305   22.1329 H   0  0  0  0  0  0
  -19.6901  -25.6326   21.1237 H   0  0  0  0  0  0
  -19.6668  -27.3226   20.6722 H   0  0  0  0  0  0
  -17.4168  -26.6555   21.4121 H   0  0  0  0  0  0
  -18.0410  -26.0123   22.9105 H   0  0  0  0  0  0
  -19.7950  -30.7238   24.2336 H   0  0  0  0  0  0
  -17.5046  -31.6240   24.5288 H   0  0  0  0  0  0
  -15.5389  -30.3034   23.7691 H   0  0  0  0  0  0
  -15.8679  -28.0889   22.7034 H   0  0  0  0  0  0
  -24.5894  -30.7076   25.7762 H   0  0  0  0  0  0
  -24.8883  -32.2947   26.4755 H   0  0  0  0  0  0
  -25.8008  -30.9003   27.0235 H   0  0  0  0  0  0
  -26.2918  -29.6696   24.1242 H   0  0  0  0  0  0
  -27.3943  -29.7195   25.4787 H   0  0  0  0  0  0
  -27.8842  -30.4163   23.9539 H   0  0  0  0  0  0
  -27.2601  -33.3622   26.2015 H   0  0  0  0  0  0
  -28.3880  -32.6838   25.0365 H   0  0  0  0  0  0
  -28.0654  -31.8478   26.5459 H   0  0  0  0  0  0
  -28.2561  -38.0110   24.7478 H   0  0  0  0  0  0
  -28.1087  -36.2618   24.6297 H   0  0  0  0  0  0
  -27.2297  -37.1461   25.8869 H   0  0  0  0  0  0
  -20.9477  -29.8782   21.6731 H   0  0  0  0  0  0
  -26.0141  -38.2798   24.1393 H   0  0  0  0  0  0
  -29.2192  -16.4855   24.4042 H   0  0  0  0  0  0
  -28.0719  -15.8834   23.2029 H   0  0  0  0  0  0
  -29.4795  -18.4981   23.2324 H   0  0  0  0  0  0
  -27.9416  -18.0014   22.5053 H   0  0  0  0  0  0
  -30.0815  -14.6284   22.8911 H   0  0  0  0  0  0
  -31.0836  -16.0465   22.8674 H   0  0  0  0  0  0
  -27.0720  -19.6055   21.7010 H   0  0  0  0  0  0
  -28.1509  -20.6813   22.5889 H   0  0  0  0  0  0
  -30.0351  -21.9974   20.9076 H   0  0  0  0  0  0
  -29.7862  -21.6714   19.2347 H   0  0  0  0  0  0
  -30.7625  -17.9277   21.4313 H   0  0  0  0  0  0
  -25.9560  -21.6731   22.1663 H   0  0  0  0  0  0
  -27.6429  -22.8389   19.2669 H   0  0  0  0  0  0
  -25.3014  -20.3335   20.1949 H   0  0  0  0  0  0
  -26.3910  -21.1873   19.1610 H   0  0  0  0  0  0
  -25.0327  -22.0547   19.8916 H   0  0  0  0  0  0
  -28.2094  -18.4273   19.8157 H   0  0  0  0  0  0
  -29.7961  -18.8726   19.3815 H   0  0  0  0  0  0
  -27.9065  -24.8088   18.7011 H   0  0  0  0  0  0
  -29.4943  -24.7335   19.2744 H   0  0  0  0  0  0
  -27.7788  -23.1347   22.1359 H   0  0  0  0  0  0
  -26.5609  -23.6830   21.2181 H   0  0  0  0  0  0
  1 25  1  0  0  0
  1 30  2  0  0  0
  1 82  1  0  0  0
  2  3  1  0  0  0
  2 25  1  0  0  0
  2 85  1  0  0  0
  2 86  1  0  0  0
  3  4  1  0  0  0
  3 87  1  0  0  0
  3 88  1  0  0  0
  4  5  1  0  0  0
  4 89  1  0  0  0
  4 90  1  0  0  0
  5  6  1  0  0  0
  5 26  1  0  0  0
  5 91  1  0  0  0
  6 25  1  0  0  0
  6 92  1  0  0  0
  6 93  1  0  0  0
  7  8  2  0  0  0
  7 26  1  0  0  0
  7 29  1  0  0  0
  8  9  1  0  0  0
  8 22  1  0  0  0
  9 10  1  0  0  0
  9 27  2  0  0  0
 10 11  2  0  0  0
 10 15  1  0  0  0
 11 12  1  0  0  0
 11 94  1  0  0  0
 12 13  2  0  0  0
 12 95  1  0  0  0
 13 14  1  0  0  0
 13 31  1  0  0  0
 14 15  2  0  0  0
 14 96  1  0  0  0
 15 97  1  0  0  0
 16 17  2  0  0  0
 16 21  1  0  0  0
 16 31  1  0  0  0
 17 18  1  0  0  0
 17 98  1  0  0  0
 18 19  2  0  0  0
 18 99  1  0  0  0
 19 20  1  0  0  0
 19 24  1  0  0  0
 20 21  2  0  0  0
 20100  1  0  0  0
 21 23  1  0  0  0
 22 28  1  0  0  0
 22 32  2  0  0  0
 26 27  1  0  0  0
 28101  1  0  0  0
 28102  1  0  0  0
 29103  1  0  0  0
 29104  1  0  0  0
 33 34  1  0  0  0
 33 66  1  0  0  0
 33 70  2  0  0  0
 34 36  1  0  0  0
 34 59  1  0  0  0
 34105  1  0  0  0
 35 44  2  0  0  0
 35 45  1  0  0  0
 35 68  1  0  0  0
 36 56  1  0  0  0
 36106  1  0  0  0
 37 39  1  0  0  0
 37 47  1  0  0  0
 37 66  1  0  0  0
 37107  1  0  0  0
 38 43  2  0  0  0
 38 46  1  0  0  0
 38 47  1  0  0  0
 39 64  1  0  0  0
 39 67  2  0  0  0
 40 52  1  0  0  0
 40 53  2  0  0  0
 40 58  1  0  0  0
 41108  1  0  0  0
 41109  1  0  0  0
 41110  1  0  0  0
 41 48  1  0  0  0
 42 43  1  0  0  0
 42 66  1  0  0  0
 42111  1  0  0  0
 42112  1  0  0  0
 43 44  1  0  0  0
 44113  1  0  0  0
 45 46  2  0  0  0
 45114  1  0  0  0
 46115  1  0  0  0
 47116  1  0  0  0
 47117  1  0  0  0
 48 56  1  0  0  0
 48 65  1  0  0  0
 48118  1  0  0  0
 49 50  1  0  0  0
 49 53  1  0  0  0
 49 64  1  0  0  0
 49119  1  0  0  0
 50 51  1  0  0  0
 50120  1  0  0  0
 50121  1  0  0  0
 51 52  1  0  0  0
 51122  1  0  0  0
 51123  1  0  0  0
 52124  1  0  0  0
 52125  1  0  0  0
 53 54  1  0  0  0
 54 55  2  0  0  0
 54126  1  0  0  0
 55 57  1  0  0  0
 55127  1  0  0  0
 56 69  2  0  0  0
 57 58  2  0  0  0
 57128  1  0  0  0
 58129  1  0  0  0
 59 60  1  0  0  0
 59 61  1  0  0  0
 59 62  1  0  0  0
 60130  1  0  0  0
 60131  1  0  0  0
 60132  1  0  0  0
 61133  1  0  0  0
 61134  1  0  0  0
 61135  1  0  0  0
 62136  1  0  0  0
 62137  1  0  0  0
 62138  1  0  0  0
 63 65  1  0  0  0
 63139  1  0  0  0
 63140  1  0  0  0
 63141  1  0  0  0
 64142  1  0  0  0
 65143  1  0  0  0
 68 81  1  0  0  0
 71 72  1  0  0  0
 71 73  1  0  0  0
 71144  1  0  0  0
 71145  1  0  0  0
 72 76  1  0  0  0
 72146  1  0  0  0
 72147  1  0  0  0
 73 82  1  0  0  0
 73148  1  0  0  0
 73149  1  0  0  0
 74 77  1  0  0  0
 74 83  1  0  0  0
 74150  1  0  0  0
 74151  1  0  0  0
 75 78  1  0  0  0
 75 83  1  0  0  0
 75152  1  0  0  0
 75153  1  0  0  0
 76 80  1  0  0  0
 76 82  1  0  0  0
 76154  1  0  0  0
 77 79  1  0  0  0
 77 84  1  0  0  0
 77155  1  0  0  0
 78 81  1  0  0  0
 78 84  1  0  0  0
 78156  1  0  0  0
 79157  1  0  0  0
 79158  1  0  0  0
 79159  1  0  0  0
 80 83  1  0  0  0
 80160  1  0  0  0
 80161  1  0  0  0
 81162  1  0  0  0
 81163  1  0  0  0
 84164  1  0  0  0
 84165  1  0  0  0
M  CHG  1  84   1
M  ISO  4   1 100  68 101  81 101  82 100
M  END
> <chiral flag>
0

> <version>
0

> <s_m_source_file>
/data/baiqing/PycharmProjects/Reinvent-master-3.2/result/LINK_invent/BTK/process_docking_weight1_custom_sum_contain_oxygen_bond_distance_aromatic_linkinvent_7_9_3/rearranged_h_0179.sdf

> <i_m_source_file_index>
23

> <r_mmod_Potential_Energy-OPLS-2005>
965.438781738281

> <r_mmod_Stretch_Energy-OPLS-2005>
338.112548828125

> <r_mmod_Bend_Energy-OPLS-2005>
513.943481445312

> <r_mmod_Torsional_Energy-OPLS-2005>
385.423095703125

> <r_mmod_Improper_Torsional_Energy-OPLS-2005>
7.46266603469849

> <r_mmod_Van_der_Waal_Energy-OPLS-2005>
133.069793701172

> <r_mmod_Electrostatic_Energy-OPLS-2005>
-178.525756835938

> <r_mmod_Solvation_Energy-OPLS-2005>
-428.688781738281

> <b_mmod_Minimization_Converged-OPLS-2005>
0

> <r_mmod_RMS_Derivative-OPLS-2005>
7.72132682800293

$$$$
23
                    3D
 Structure written by MMmdl.
156165  0  0  1  0            999 V2000
  -30.6256  -14.8675   20.4275 C   0  0  0  0  0  0
  -30.4189  -12.5446   19.4745 C   0  0  0  0  0  0
  -29.4994  -12.5094   18.2365 C   0  0  0  0  0  0
  -28.0350  -12.3030   18.6643 C   0  0  0  0  0  0
  -27.6201  -13.2364   19.8313 C   0  0  2  0  0  0
  -28.6706  -13.2853   20.9610 C   0  0  0  0  0  0
  -25.2438  -13.8177   20.5741 C   0  0  0  0  0  0
  -24.1749  -13.0411   20.9252 C   0  0  0  0  0  0
  -24.6365  -11.6898   20.8788 C   0  0  0  0  0  0
  -23.9057  -10.4274   21.0423 C   0  0  0  0  0  0
  -24.3610   -9.4183   21.9193 C   0  0  0  0  0  0
  -23.6283   -8.2220   22.0758 C   0  0  0  0  0  0
  -22.4267   -8.0267   21.3544 C   0  0  0  0  0  0
  -21.9908   -9.0242   20.4649 C   0  0  0  0  0  0
  -22.7236  -10.2123   20.3063 C   0  0  0  0  0  0
  -21.6849   -6.0726   22.5282 C   0  0  0  0  0  0
  -21.4011   -6.5632   23.8213 C   0  0  0  0  0  0
  -21.3658   -5.6793   24.9180 C   0  0  0  0  0  0
  -21.6046   -4.3056   24.7239 C   0  0  0  0  0  0
  -21.8818   -3.8145   23.4361 C   0  0  0  0  0  0
  -21.9191   -4.6956   22.3411 C   0  0  0  0  0  0
  -22.7770  -13.5198   21.1893 C   0  0  0  0  0  0
  -22.1654   -4.2140   21.0989 F   0  0  0  0  0  0
  -21.5633   -3.4542   25.7749 F   0  0  0  0  0  0
  -29.9491  -13.6579   20.3439 N   0  0  0  0  0  0
  -26.2841  -12.9385   20.3271 N   0  0  0  0  0  0
  -25.9292  -11.6529   20.5789 N   0  0  0  0  0  0
  -22.0417  -12.8194   22.0451 N   0  0  0  0  0  0
  -25.4108  -15.1903   20.4168 N   0  0  0  0  0  0
  -31.8422  -14.8446   20.2139 O   0  0  0  0  0  0
  -21.6632   -6.8868   21.4241 O   0  0  0  0  0  0
  -22.3463  -14.5501   20.6722 O   0  0  0  0  0  0
  -24.6383  -31.8493   23.1933 C   0  0  0  0  0  0
  -25.9180  -32.4723   23.8301 C   0  0  1  0  0  0
  -27.2091  -27.1896   20.1450 C   0  0  0  0  0  0
  -25.5954  -33.8531   24.2217 N   0  0  0  0  0  0
  -23.4373  -30.4724   21.5368 C   0  0  2  0  0  0
  -24.8838  -28.9055   20.1123 C   0  0  0  0  0  0
  -22.7525  -29.4598   22.4875 C   0  0  0  0  0  0
  -18.0295  -28.1400   22.8497 C   0  0  0  0  0  0
  -24.1485  -36.7264   23.2644 C   0  0  0  0  0  0
  -25.9893  -30.7404   21.3817 C   0  0  0  0  0  0
  -26.0606  -29.3557   20.7259 C   0  0  0  0  0  0
  -27.2291  -28.5133   20.7258 C   0  0  0  0  0  0
  -26.0121  -26.8309   19.4898 C   0  0  0  0  0  0
  -24.8686  -27.6534   19.4814 C   0  0  0  0  0  0
  -23.6589  -29.8026   20.1553 C   0  0  0  0  0  0
  -25.4118  -36.3049   24.0321 C   0  0  1  0  0  0
  -20.5899  -28.3724   23.1249 C   0  0  2  0  0  0
  -20.6785  -26.9429   22.5414 C   0  0  0  0  0  0
  -19.5751  -26.6387   21.5226 C   0  0  0  0  0  0
  -18.1929  -26.7941   22.1633 C   0  0  0  0  0  0
  -19.1549  -28.8878   23.2868 C   0  0  0  0  0  0
  -18.9471  -30.1473   23.8890 C   0  0  0  0  0  0
  -17.6470  -30.6599   24.0565 C   0  0  0  0  0  0
  -25.9071  -34.9424   23.5071 C   0  0  0  0  0  0
  -16.5362  -29.9093   23.6339 C   0  0  0  0  0  0
  -16.7281  -28.6507   23.0374 C   0  0  0  0  0  0
  -26.4516  -31.6580   25.0723 C   0  0  0  0  0  0
  -25.3722  -31.3767   26.1435 C   0  0  0  0  0  0
  -27.0385  -30.2987   24.6277 C   0  0  0  0  0  0
  -27.6040  -32.4349   25.7504 C   0  0  0  0  0  0
  -27.5572  -37.1786   24.8459 C   0  0  0  0  0  0
  -21.4219  -29.3064   22.3625 N   0  0  0  0  0  0
  -26.4278  -37.3762   23.9412 N   0  0  0  0  0  0
  -24.7080  -31.0405   22.0930 N   0  0  0  0  0  0
  -23.4196  -28.8135   23.2999 O   0  0  0  0  0  0
  -28.2684  -26.2324   20.1649 O   0  0  0  0  0  0
  -26.5639  -34.8906   22.4638 O   0  0  0  0  0  0
  -23.5518  -32.1343   23.7195 O   0  0  0  0  0  0
  -28.6034  -22.0904   20.5962 C   0  0  0  0  0  0
  -30.2494  -22.3674   18.4732 C   0  0  0  0  0  0
  -28.7456  -23.4571   20.0589 C   0  0  0  0  0  0
  -29.6112  -23.5371   18.9495 C   0  0  0  0  0  0
  -29.2967  -20.9171   20.0509 C   0  0  0  0  0  0
  -28.7832  -18.2534   19.5334 C   0  0  0  0  0  0
  -30.6025  -18.7246   21.0215 C   0  0  0  0  0  0
  -28.7923  -16.7003   19.9727 C   0  0  0  0  0  0
  -30.6024  -17.2001   21.5149 C   0  0  0  0  0  0
  -29.2476  -19.3625   20.5555 C   0  0  0  0  0  0
  -27.9681  -24.7832   20.5849 C   0  0  0  0  0  0
  -30.1091  -21.1181   18.9906 N   0  0  0  0  0  0
  -29.9915  -16.1194   20.6642 N   0  0  0  0  0  0
  -29.8276  -24.7217   18.3265 F   0  0  0  0  0  0
  -31.4554  -12.6696   19.1571 H   0  0  0  0  0  0
  -30.3863  -11.5965   20.0132 H   0  0  0  0  0  0
  -29.8058  -11.7114   17.5592 H   0  0  0  0  0  0
  -29.5940  -13.4423   17.6784 H   0  0  0  0  0  0
  -27.9266  -11.2615   18.9681 H   0  0  0  0  0  0
  -27.3681  -12.4404   17.8121 H   0  0  0  0  0  0
  -27.5666  -14.2274   19.3899 H   0  0  0  0  0  0
  -28.7468  -12.3245   21.4720 H   0  0  0  0  0  0
  -28.3844  -14.0209   21.7143 H   0  0  0  0  0  0
  -25.2749   -9.5647   22.4784 H   0  0  0  0  0  0
  -23.9983   -7.4605   22.7481 H   0  0  0  0  0  0
  -21.0843   -8.8764   19.8959 H   0  0  0  0  0  0
  -22.3691  -10.9670   19.6183 H   0  0  0  0  0  0
  -21.1993   -7.6139   23.9714 H   0  0  0  0  0  0
  -21.1482   -6.0525   25.9083 H   0  0  0  0  0  0
  -22.0600   -2.7608   23.2870 H   0  0  0  0  0  0
  -22.4033  -11.9861   22.4846 H   0  0  0  0  0  0
  -21.1036  -13.1219   22.2653 H   0  0  0  0  0  0
  -24.6474  -15.8460   20.5402 H   0  0  0  0  0  0
  -26.2636  -15.6291   20.0980 H   0  0  0  0  0  0
  -26.7245  -32.5334   23.1036 H   0  0  0  0  0  0
  -25.0102  -33.9666   25.0361 H   0  0  0  0  0  0
  -22.7383  -31.2977   21.3856 H   0  0  0  0  0  0
  -23.3758  -35.9584   23.3288 H   0  0  0  0  0  0
  -24.3575  -36.8916   22.2061 H   0  0  0  0  0  0
  -23.7230  -37.6453   23.6693 H   0  0  0  0  0  0
  -26.1377  -31.4968   20.6096 H   0  0  0  0  0  0
  -26.8637  -30.7901   22.0195 H   0  0  0  0  0  0
  -28.1278  -28.8539   21.2194 H   0  0  0  0  0  0
  -25.9406  -25.8787   18.9837 H   0  0  0  0  0  0
  -23.9698  -27.3046   18.9913 H   0  0  0  0  0  0
  -23.7879  -30.5765   19.3979 H   0  0  0  0  0  0
  -22.7748  -29.2404   19.8492 H   0  0  0  0  0  0
  -25.1309  -36.1885   25.0815 H   0  0  0  0  0  0
  -21.0001  -28.3324   24.1368 H   0  0  0  0  0  0
  -20.5694  -26.2340   23.3637 H   0  0  0  0  0  0
  -21.6650  -26.7454   22.1196 H   0  0  0  0  0  0
  -19.6912  -25.6297   21.1260 H   0  0  0  0  0  0
  -19.6681  -27.3192   20.6747 H   0  0  0  0  0  0
  -17.4205  -26.6710   21.4028 H   0  0  0  0  0  0
  -18.0306  -26.0081   22.9019 H   0  0  0  0  0  0
  -19.7949  -30.7293   24.2254 H   0  0  0  0  0  0
  -17.5022  -31.6276   24.5171 H   0  0  0  0  0  0
  -15.5365  -30.2997   23.7663 H   0  0  0  0  0  0
  -15.8679  -28.0812   22.7114 H   0  0  0  0  0  0
  -24.5879  -30.7141   25.7763 H   0  0  0  0  0  0
  -24.8944  -32.2956   26.4841 H   0  0  0  0  0  0
  -25.8015  -30.8952   27.0226 H   0  0  0  0  0  0
  -26.3006  -29.6709   24.1269 H   0  0  0  0  0  0
  -27.4005  -29.7287   25.4843 H   0  0  0  0  0  0
  -27.8899  -30.4253   23.9585 H   0  0  0  0  0  0
  -27.2623  -33.3655   26.2042 H   0  0  0  0  0  0
  -28.3864  -32.6904   25.0350 H   0  0  0  0  0  0
  -28.0686  -31.8510   26.5460 H   0  0  0  0  0  0
  -28.2577  -38.0092   24.7523 H   0  0  0  0  0  0
  -28.1083  -36.2630   24.6271 H   0  0  0  0  0  0
  -27.2291  -37.1408   25.8859 H   0  0  0  0  0  0
  -20.9404  -29.8768   21.6809 H   0  0  0  0  0  0
  -26.0144  -38.2826   24.1439 H   0  0  0  0  0  0
  -27.9433  -21.9425   21.4396 H   0  0  0  0  0  0
  -30.9083  -22.4383   17.6202 H   0  0  0  0  0  0
  -27.7812  -18.5077   19.1869 H   0  0  0  0  0  0
  -29.4133  -18.3424   18.6477 H   0  0  0  0  0  0
  -31.3194  -18.8138   20.2037 H   0  0  0  0  0  0
  -31.0066  -19.3463   21.8211 H   0  0  0  0  0  0
  -28.6032  -16.1140   19.0739 H   0  0  0  0  0  0
  -27.9447  -16.5279   20.6354 H   0  0  0  0  0  0
  -30.0705  -17.1637   22.4664 H   0  0  0  0  0  0
  -31.6297  -16.9275   21.7621 H   0  0  0  0  0  0
  -28.5602  -19.3423   21.4020 H   0  0  0  0  0  0
  -28.1028  -24.7798   21.6667 H   0  0  0  0  0  0
  -26.9098  -24.5663   20.4513 H   0  0  0  0  0  0
  1 25  1  0  0  0
  1 30  2  0  0  0
  1 83  1  0  0  0
  2  3  1  0  0  0
  2 25  1  0  0  0
  2 85  1  0  0  0
  2 86  1  0  0  0
  3  4  1  0  0  0
  3 87  1  0  0  0
  3 88  1  0  0  0
  4  5  1  0  0  0
  4 89  1  0  0  0
  4 90  1  0  0  0
  5  6  1  0  0  0
  5 26  1  0  0  0
  5 91  1  0  0  0
  6 25  1  0  0  0
  6 92  1  0  0  0
  6 93  1  0  0  0
  7  8  2  0  0  0
  7 26  1  0  0  0
  7 29  1  0  0  0
  8  9  1  0  0  0
  8 22  1  0  0  0
  9 10  1  0  0  0
  9 27  2  0  0  0
 10 11  2  0  0  0
 10 15  1  0  0  0
 11 12  1  0  0  0
 11 94  1  0  0  0
 12 13  2  0  0  0
 12 95  1  0  0  0
 13 14  1  0  0  0
 13 31  1  0  0  0
 14 15  2  0  0  0
 14 96  1  0  0  0
 15 97  1  0  0  0
 16 17  2  0  0  0
 16 21  1  0  0  0
 16 31  1  0  0  0
 17 18  1  0  0  0
 17 98  1  0  0  0
 18 19  2  0  0  0
 18 99  1  0  0  0
 19 20  1  0  0  0
 19 24  1  0  0  0
 20 21  2  0  0  0
 20100  1  0  0  0
 21 23  1  0  0  0
 22 28  1  0  0  0
 22 32  2  0  0  0
 26 27  1  0  0  0
 28101  1  0  0  0
 28102  1  0  0  0
 29103  1  0  0  0
 29104  1  0  0  0
 33 34  1  0  0  0
 33 66  1  0  0  0
 33 70  2  0  0  0
 34 36  1  0  0  0
 34 59  1  0  0  0
 34105  1  0  0  0
 35 44  2  0  0  0
 35 45  1  0  0  0
 35 68  1  0  0  0
 36 56  1  0  0  0
 36106  1  0  0  0
 37 39  1  0  0  0
 37 47  1  0  0  0
 37 66  1  0  0  0
 37107  1  0  0  0
 38 43  2  0  0  0
 38 46  1  0  0  0
 38 47  1  0  0  0
 39 64  1  0  0  0
 39 67  2  0  0  0
 40 52  1  0  0  0
 40 53  2  0  0  0
 40 58  1  0  0  0
 41108  1  0  0  0
 41109  1  0  0  0
 41110  1  0  0  0
 41 48  1  0  0  0
 42 43  1  0  0  0
 42 66  1  0  0  0
 42111  1  0  0  0
 42112  1  0  0  0
 43 44  1  0  0  0
 44113  1  0  0  0
 45 46  2  0  0  0
 45114  1  0  0  0
 46115  1  0  0  0
 47116  1  0  0  0
 47117  1  0  0  0
 48 56  1  0  0  0
 48 65  1  0  0  0
 48118  1  0  0  0
 49 50  1  0  0  0
 49 53  1  0  0  0
 49 64  1  0  0  0
 49119  1  0  0  0
 50 51  1  0  0  0
 50120  1  0  0  0
 50121  1  0  0  0
 51 52  1  0  0  0
 51122  1  0  0  0
 51123  1  0  0  0
 52124  1  0  0  0
 52125  1  0  0  0
 53 54  1  0  0  0
 54 55  2  0  0  0
 54126  1  0  0  0
 55 57  1  0  0  0
 55127  1  0  0  0
 56 69  2  0  0  0
 57 58  2  0  0  0
 57128  1  0  0  0
 58129  1  0  0  0
 59 60  1  0  0  0
 59 61  1  0  0  0
 59 62  1  0  0  0
 60130  1  0  0  0
 60131  1  0  0  0
 60132  1  0  0  0
 61133  1  0  0  0
 61134  1  0  0  0
 61135  1  0  0  0
 62136  1  0  0  0
 62137  1  0  0  0
 62138  1  0  0  0
 63 65  1  0  0  0
 63139  1  0  0  0
 63140  1  0  0  0
 63141  1  0  0  0
 64142  1  0  0  0
 65143  1  0  0  0
 68 81  1  0  0  0
 71 73  2  0  0  0
 71 75  1  0  0  0
 71144  1  0  0  0
 72 74  2  0  0  0
 72 82  1  0  0  0
 72145  1  0  0  0
 73 74  1  0  0  0
 73 81  1  0  0  0
 74 84  1  0  0  0
 75 82  2  0  0  0
 75 80  1  0  0  0
 76 78  1  0  0  0
 76 80  1  0  0  0
 76146  1  0  0  0
 76147  1  0  0  0
 77 79  1  0  0  0
 77 80  1  0  0  0
 77148  1  0  0  0
 77149  1  0  0  0
 78 83  1  0  0  0
 78150  1  0  0  0
 78151  1  0  0  0
 79 83  1  0  0  0
 79152  1  0  0  0
 79153  1  0  0  0
 80154  1  0  0  0
 81155  1  0  0  0
 81156  1  0  0  0
M  ISO  4   1 100  68 101  81 101  83 100
M  END
> <chiral flag>
0

> <version>
0

> <s_m_source_file>
/data/baiqing/PycharmProjects/Reinvent-master-3.2/result/LINK_invent/BTK/process_docking_weight1_custom_sum_contain_oxygen_bond_distance_aromatic_linkinvent_7_9_3/rearranged_h_0179.sdf

> <i_m_source_file_index>
24

> <r_mmod_Potential_Energy-OPLS-2005>
451.076263427734

> <r_mmod_Stretch_Energy-OPLS-2005>
176.680587768555

> <r_mmod_Bend_Energy-OPLS-2005>
222.987426757812

> <r_mmod_Torsional_Energy-OPLS-2005>
331.700347900391

> <r_mmod_Improper_Torsional_Energy-OPLS-2005>
2.12303066253662

> <r_mmod_Van_der_Waal_Energy-OPLS-2005>
135.63264465332

> <r_mmod_Electrostatic_Energy-OPLS-2005>
-352.005249023438

> <r_mmod_Solvation_Energy-OPLS-2005>
-213.268371582031

> <b_mmod_Minimization_Converged-OPLS-2005>
0

> <r_mmod_RMS_Derivative-OPLS-2005>
1.33881711959839

$$$$
24
                    3D
 Structure written by MMmdl.
159168  0  0  1  0            999 V2000
  -30.5893  -14.7039   20.3922 C   0  0  0  0  0  0
  -30.4461  -12.3981   19.4712 C   0  0  0  0  0  0
  -29.5182  -12.4152   18.2353 C   0  0  0  0  0  0
  -28.0339  -12.2971   18.6457 C   0  0  0  0  0  0
  -27.6431  -13.2046   19.8439 C   0  0  2  0  0  0
  -28.6938  -13.1418   20.9743 C   0  0  0  0  0  0
  -25.2541  -13.8108   20.5712 C   0  0  0  0  0  0
  -24.1807  -13.0386   20.9202 C   0  0  0  0  0  0
  -24.6374  -11.6864   20.8754 C   0  0  0  0  0  0
  -23.9048  -10.4260   21.0414 C   0  0  0  0  0  0
  -24.3609   -9.4183   21.9188 C   0  0  0  0  0  0
  -23.6291   -8.2219   22.0752 C   0  0  0  0  0  0
  -22.4273   -8.0261   21.3542 C   0  0  0  0  0  0
  -21.9904   -9.0234   20.4644 C   0  0  0  0  0  0
  -22.7225  -10.2115   20.3056 C   0  0  0  0  0  0
  -21.6846   -6.0728   22.5280 C   0  0  0  0  0  0
  -21.4006   -6.5639   23.8216 C   0  0  0  0  0  0
  -21.3654   -5.6791   24.9178 C   0  0  0  0  0  0
  -21.6045   -4.3054   24.7225 C   0  0  0  0  0  0
  -21.8827   -3.8145   23.4347 C   0  0  0  0  0  0
  -21.9197   -4.6961   22.3402 C   0  0  0  0  0  0
  -22.7840  -13.5197   21.1863 C   0  0  0  0  0  0
  -22.1667   -4.2148   21.0977 F   0  0  0  0  0  0
  -21.5632   -3.4540   25.7739 F   0  0  0  0  0  0
  -29.9961  -13.4679   20.3809 N   0  0  0  0  0  0
  -26.2945  -12.9272   20.3274 N   0  0  0  0  0  0
  -25.9292  -11.6447   20.5768 N   0  0  0  0  0  0
  -22.0485  -12.8190   22.0424 N   0  0  0  0  0  0
  -25.4226  -15.1822   20.4202 N   0  0  0  0  0  0
  -31.8045  -14.8273   20.2143 O   0  0  0  0  0  0
  -21.6635   -6.8864   21.4240 O   0  0  0  0  0  0
  -22.3524  -14.5502   20.6712 O   0  0  0  0  0  0
  -24.6227  -31.8599   23.2000 C   0  0  0  0  0  0
  -25.9082  -32.4781   23.8325 C   0  0  1  0  0  0
  -27.2316  -27.3226   20.1304 C   0  0  0  0  0  0
  -25.5898  -33.8579   24.2256 N   0  0  0  0  0  0
  -23.4162  -30.4794   21.5422 C   0  0  2  0  0  0
  -24.8646  -28.9218   20.1185 C   0  0  0  0  0  0
  -22.7451  -29.4617   22.4942 C   0  0  0  0  0  0
  -18.0282  -28.1386   22.8484 C   0  0  0  0  0  0
  -24.1488  -36.7292   23.2642 C   0  0  0  0  0  0
  -25.9540  -30.7888   21.3708 C   0  0  0  0  0  0
  -26.0281  -29.4113   20.7249 C   0  0  0  0  0  0
  -27.2119  -28.6206   20.7239 C   0  0  0  0  0  0
  -26.0482  -26.8730   19.5071 C   0  0  0  0  0  0
  -24.8743  -27.6566   19.5042 C   0  0  0  0  0  0
  -23.6319  -29.8034   20.1608 C   0  0  0  0  0  0
  -25.4118  -36.3083   24.0326 C   0  0  1  0  0  0
  -20.5877  -28.3680   23.1296 C   0  0  2  0  0  0
  -20.6762  -26.9405   22.5419 C   0  0  0  0  0  0
  -19.5745  -26.6385   21.5212 C   0  0  0  0  0  0
  -18.1925  -26.7926   22.1624 C   0  0  0  0  0  0
  -19.1532  -28.8850   23.2888 C   0  0  0  0  0  0
  -18.9460  -30.1451   23.8906 C   0  0  0  0  0  0
  -17.6462  -30.6589   24.0562 C   0  0  0  0  0  0
  -25.9050  -34.9454   23.5099 C   0  0  0  0  0  0
  -16.5352  -29.9088   23.6329 C   0  0  0  0  0  0
  -16.7269  -28.6507   23.0345 C   0  0  0  0  0  0
  -26.4478  -31.6595   25.0694 C   0  0  0  0  0  0
  -25.3716  -31.3740   26.1423 C   0  0  0  0  0  0
  -27.0325  -30.3021   24.6144 C   0  0  0  0  0  0
  -27.6026  -32.4344   25.7474 C   0  0  0  0  0  0
  -27.5583  -37.1800   24.8465 C   0  0  0  0  0  0
  -21.4169  -29.3039   22.3694 N   0  0  0  0  0  0
  -26.4298  -37.3776   23.9405 N   0  0  0  0  0  0
  -24.6828  -31.0603   22.0950 N   0  0  0  0  0  0
  -23.4183  -28.8162   23.3020 O   0  0  0  0  0  0
  -28.3951  -26.5486   20.0885 O   0  0  0  0  0  0
  -26.5631  -34.8925   22.4674 O   0  0  0  0  0  0
  -23.5395  -32.1400   23.7338 O   0  0  0  0  0  0
  -28.9889  -23.1701   21.6283 C   0  0  0  0  0  0
  -28.5982  -24.5369   21.5286 C   0  0  0  0  0  0
  -29.2320  -22.3881   20.4671 C   0  0  0  0  0  0
  -28.9752  -23.0714   19.2407 C   0  0  0  0  0  0
  -28.4424  -25.1476   20.2651 C   0  0  0  0  0  0
  -28.4152  -16.9939   19.1103 C   0  0  0  0  0  0
  -29.5637  -16.1321   18.6021 C   0  0  0  0  0  0
  -29.1703  -17.0701   20.4357 C   0  0  2  0  0  0
  -29.1669  -22.3793   17.9043 C   0  0  0  0  0  0
  -29.9792  -20.9869   20.5539 C   0  0  0  0  0  0
  -30.0551  -18.3787   20.5912 C   0  0  0  0  0  0
  -28.6129  -24.3907   19.1490 N   0  0  0  0  0  0
  -29.7458  -15.7249   19.9977 N   0  0  0  0  0  0
  -29.2372  -19.6698   20.6763 N   0  3  0  0  0  0
  -31.4862  -12.5303   19.1675 H   0  0  0  0  0  0
  -30.3965  -11.4321   19.9758 H   0  0  0  0  0  0
  -29.7759  -11.5894   17.5711 H   0  0  0  0  0  0
  -29.6869  -13.3130   17.6470 H   0  0  0  0  0  0
  -27.8602  -11.2535   18.9106 H   0  0  0  0  0  0
  -27.3885  -12.4996   17.7904 H   0  0  0  0  0  0
  -27.6270  -14.2159   19.4515 H   0  0  0  0  0  0
  -28.7187  -12.1514   21.4311 H   0  0  0  0  0  0
  -28.4456  -13.8476   21.7691 H   0  0  0  0  0  0
  -25.2759   -9.5672   22.4755 H   0  0  0  0  0  0
  -24.0013   -7.4611   22.7467 H   0  0  0  0  0  0
  -21.0836   -8.8748   19.8944 H   0  0  0  0  0  0
  -22.3684  -10.9659   19.6167 H   0  0  0  0  0  0
  -21.1993   -7.6147   23.9716 H   0  0  0  0  0  0
  -21.1464   -6.0519   25.9078 H   0  0  0  0  0  0
  -22.0613   -2.7605   23.2849 H   0  0  0  0  0  0
  -22.4120  -11.9859   22.4806 H   0  0  0  0  0  0
  -21.1100  -13.1201   22.2635 H   0  0  0  0  0  0
  -24.6555  -15.8363   20.5309 H   0  0  0  0  0  0
  -26.2831  -15.6217   20.1250 H   0  0  0  0  0  0
  -26.7139  -32.5454   23.1065 H   0  0  0  0  0  0
  -25.0007  -33.9722   25.0371 H   0  0  0  0  0  0
  -22.7095  -31.2990   21.3938 H   0  0  0  0  0  0
  -23.3754  -35.9620   23.3311 H   0  0  0  0  0  0
  -24.3572  -36.8912   22.2054 H   0  0  0  0  0  0
  -23.7241  -37.6494   23.6666 H   0  0  0  0  0  0
  -26.0819  -31.5468   20.5967 H   0  0  0  0  0  0
  -26.8358  -30.8442   21.9973 H   0  0  0  0  0  0
  -28.1123  -28.9974   21.1886 H   0  0  0  0  0  0
  -26.0307  -25.9084   19.0190 H   0  0  0  0  0  0
  -23.9818  -27.2772   19.0256 H   0  0  0  0  0  0
  -23.7502  -30.5741   19.3982 H   0  0  0  0  0  0
  -22.7522  -29.2299   19.8621 H   0  0  0  0  0  0
  -25.1305  -36.1933   25.0820 H   0  0  0  0  0  0
  -20.9973  -28.3252   24.1414 H   0  0  0  0  0  0
  -20.5648  -26.2289   23.3614 H   0  0  0  0  0  0
  -21.6633  -26.7424   22.1226 H   0  0  0  0  0  0
  -19.6907  -25.6299   21.1232 H   0  0  0  0  0  0
  -19.6688  -27.3202   20.6748 H   0  0  0  0  0  0
  -17.4192  -26.6672   21.4029 H   0  0  0  0  0  0
  -18.0331  -26.0071   22.9027 H   0  0  0  0  0  0
  -19.7938  -30.7260   24.2279 H   0  0  0  0  0  0
  -17.5020  -31.6266   24.5165 H   0  0  0  0  0  0
  -15.5356  -30.2996   23.7646 H   0  0  0  0  0  0
  -15.8667  -28.0831   22.7055 H   0  0  0  0  0  0
  -24.5865  -30.7127   25.7746 H   0  0  0  0  0  0
  -24.8938  -32.2913   26.4867 H   0  0  0  0  0  0
  -25.8032  -30.8888   27.0183 H   0  0  0  0  0  0
  -26.2892  -29.6771   24.1175 H   0  0  0  0  0  0
  -27.4038  -29.7280   25.4643 H   0  0  0  0  0  0
  -27.8753  -30.4313   23.9348 H   0  0  0  0  0  0
  -27.2609  -33.3629   26.2064 H   0  0  0  0  0  0
  -28.3827  -32.6946   25.0305 H   0  0  0  0  0  0
  -28.0704  -31.8470   26.5384 H   0  0  0  0  0  0
  -28.2604  -38.0094   24.7513 H   0  0  0  0  0  0
  -28.1078  -36.2626   24.6296 H   0  0  0  0  0  0
  -27.2294  -37.1450   25.8866 H   0  0  0  0  0  0
  -20.9340  -29.8769   21.6916 H   0  0  0  0  0  0
  -26.0183  -38.2855   24.1404 H   0  0  0  0  0  0
  -29.1852  -22.7528   22.6059 H   0  0  0  0  0  0
  -28.5088  -25.1365   22.4236 H   0  0  0  0  0  0
  -27.4669  -16.4627   19.1670 H   0  0  0  0  0  0
  -28.2995  -17.9345   18.5712 H   0  0  0  0  0  0
  -30.4045  -16.6886   18.1832 H   0  0  0  0  0  0
  -29.2205  -15.3626   17.9155 H   0  0  0  0  0  0
  -28.4809  -16.9531   21.2731 H   0  0  0  0  0  0
  -28.7517  -21.3717   17.9244 H   0  0  0  0  0  0
  -30.2260  -22.3129   17.6561 H   0  0  0  0  0  0
  -28.6670  -22.9207   17.0998 H   0  0  0  0  0  0
  -30.6644  -21.0422   21.4010 H   0  0  0  0  0  0
  -30.6336  -20.9128   19.6848 H   0  0  0  0  0  0
  -30.7428  -18.4685   19.7495 H   0  0  0  0  0  0
  -30.6841  -18.3052   21.4789 H   0  0  0  0  0  0
  -28.5465  -19.6413   19.9460 H   0  0  0  0  0  0
  -28.7394  -19.6648   21.5518 H   0  0  0  0  0  0
  1 25  1  0  0  0
  1 30  2  0  0  0
  1 83  1  0  0  0
  2  3  1  0  0  0
  2 25  1  0  0  0
  2 85  1  0  0  0
  2 86  1  0  0  0
  3  4  1  0  0  0
  3 87  1  0  0  0
  3 88  1  0  0  0
  4  5  1  0  0  0
  4 89  1  0  0  0
  4 90  1  0  0  0
  5  6  1  0  0  0
  5 26  1  0  0  0
  5 91  1  0  0  0
  6 25  1  0  0  0
  6 92  1  0  0  0
  6 93  1  0  0  0
  7  8  2  0  0  0
  7 26  1  0  0  0
  7 29  1  0  0  0
  8  9  1  0  0  0
  8 22  1  0  0  0
  9 10  1  0  0  0
  9 27  2  0  0  0
 10 11  2  0  0  0
 10 15  1  0  0  0
 11 12  1  0  0  0
 11 94  1  0  0  0
 12 13  2  0  0  0
 12 95  1  0  0  0
 13 14  1  0  0  0
 13 31  1  0  0  0
 14 15  2  0  0  0
 14 96  1  0  0  0
 15 97  1  0  0  0
 16 17  2  0  0  0
 16 21  1  0  0  0
 16 31  1  0  0  0
 17 18  1  0  0  0
 17 98  1  0  0  0
 18 19  2  0  0  0
 18 99  1  0  0  0
 19 20  1  0  0  0
 19 24  1  0  0  0
 20 21  2  0  0  0
 20100  1  0  0  0
 21 23  1  0  0  0
 22 28  1  0  0  0
 22 32  2  0  0  0
 26 27  1  0  0  0
 28101  1  0  0  0
 28102  1  0  0  0
 29103  1  0  0  0
 29104  1  0  0  0
 33 34  1  0  0  0
 33 66  1  0  0  0
 33 70  2  0  0  0
 34 36  1  0  0  0
 34 59  1  0  0  0
 34105  1  0  0  0
 35 44  2  0  0  0
 35 45  1  0  0  0
 35 68  1  0  0  0
 36 56  1  0  0  0
 36106  1  0  0  0
 37 39  1  0  0  0
 37 47  1  0  0  0
 37 66  1  0  0  0
 37107  1  0  0  0
 38 43  2  0  0  0
 38 46  1  0  0  0
 38 47  1  0  0  0
 39 64  1  0  0  0
 39 67  2  0  0  0
 40 52  1  0  0  0
 40 53  2  0  0  0
 40 58  1  0  0  0
 41108  1  0  0  0
 41109  1  0  0  0
 41110  1  0  0  0
 41 48  1  0  0  0
 42 43  1  0  0  0
 42 66  1  0  0  0
 42111  1  0  0  0
 42112  1  0  0  0
 43 44  1  0  0  0
 44113  1  0  0  0
 45 46  2  0  0  0
 45114  1  0  0  0
 46115  1  0  0  0
 47116  1  0  0  0
 47117  1  0  0  0
 48 56  1  0  0  0
 48 65  1  0  0  0
 48118  1  0  0  0
 49 50  1  0  0  0
 49 53  1  0  0  0
 49 64  1  0  0  0
 49119  1  0  0  0
 50 51  1  0  0  0
 50120  1  0  0  0
 50121  1  0  0  0
 51 52  1  0  0  0
 51122  1  0  0  0
 51123  1  0  0  0
 52124  1  0  0  0
 52125  1  0  0  0
 53 54  1  0  0  0
 54 55  2  0  0  0
 54126  1  0  0  0
 55 57  1  0  0  0
 55127  1  0  0  0
 56 69  2  0  0  0
 57 58  2  0  0  0
 57128  1  0  0  0
 58129  1  0  0  0
 59 60  1  0  0  0
 59 61  1  0  0  0
 59 62  1  0  0  0
 60130  1  0  0  0
 60131  1  0  0  0
 60132  1  0  0  0
 61133  1  0  0  0
 61134  1  0  0  0
 61135  1  0  0  0
 62136  1  0  0  0
 62137  1  0  0  0
 62138  1  0  0  0
 63 65  1  0  0  0
 63139  1  0  0  0
 63140  1  0  0  0
 63141  1  0  0  0
 64142  1  0  0  0
 65143  1  0  0  0
 68 75  1  0  0  0
 71 72  2  0  0  0
 71 73  1  0  0  0
 71144  1  0  0  0
 72 75  1  0  0  0
 72145  1  0  0  0
 73 74  2  0  0  0
 73 80  1  0  0  0
 74 79  1  0  0  0
 74 82  1  0  0  0
 75 82  2  0  0  0
 76 77  1  0  0  0
 76 78  1  0  0  0
 76146  1  0  0  0
 76147  1  0  0  0
 77 83  1  0  0  0
 77148  1  0  0  0
 77149  1  0  0  0
 78 81  1  0  0  0
 78 83  1  0  0  0
 78150  1  0  0  0
 79151  1  0  0  0
 79152  1  0  0  0
 79153  1  0  0  0
 80 84  1  0  0  0
 80154  1  0  0  0
 80155  1  0  0  0
 81 84  1  0  0  0
 81156  1  0  0  0
 81157  1  0  0  0
 84158  1  0  0  0
 84159  1  0  0  0
M  CHG  1  84   1
M  ISO  4   1 100  68 101  75 101  83 100
M  END
> <chiral flag>
0

> <version>
0

> <s_m_source_file>
/data/baiqing/PycharmProjects/Reinvent-master-3.2/result/LINK_invent/BTK/process_docking_weight1_custom_sum_contain_oxygen_bond_distance_aromatic_linkinvent_7_9_3/rearranged_h_0179.sdf

> <i_m_source_file_index>
25

> <r_mmod_Potential_Energy-OPLS-2005>
-36.886604309082

> <r_mmod_Stretch_Energy-OPLS-2005>
82.8897933959961

> <r_mmod_Bend_Energy-OPLS-2005>
177.319046020508

> <r_mmod_Torsional_Energy-OPLS-2005>
333.791015625

> <r_mmod_Improper_Torsional_Energy-OPLS-2005>
26.6670780181885

> <r_mmod_Van_der_Waal_Energy-OPLS-2005>
129.603088378906

> <r_mmod_Electrostatic_Energy-OPLS-2005>
-363.032440185547

> <r_mmod_Solvation_Energy-OPLS-2005>
-488.017395019531

> <b_mmod_Minimization_Converged-OPLS-2005>
0

> <r_mmod_RMS_Derivative-OPLS-2005>
0.910067737102509

$$$$
25
                    3D
 Structure written by MMmdl.
163172  0  0  1  0            999 V2000
  -30.6881  -14.6618   20.5115 C   0  0  0  0  0  0
  -30.4240  -12.4181   19.4596 C   0  0  0  0  0  0
  -29.5019  -12.5118   18.2258 C   0  0  0  0  0  0
  -28.0262  -12.3511   18.6387 C   0  0  0  0  0  0
  -27.6484  -13.2286   19.8629 C   0  0  2  0  0  0
  -28.6979  -13.1056   20.9896 C   0  0  0  0  0  0
  -25.2519  -13.8196   20.5690 C   0  0  0  0  0  0
  -24.1808  -13.0442   20.9202 C   0  0  0  0  0  0
  -24.6403  -11.6920   20.8757 C   0  0  0  0  0  0
  -23.9077  -10.4295   21.0407 C   0  0  0  0  0  0
  -24.3622   -9.4209   21.9185 C   0  0  0  0  0  0
  -23.6293   -8.2246   22.0756 C   0  0  0  0  0  0
  -22.4276   -8.0285   21.3544 C   0  0  0  0  0  0
  -21.9915   -9.0260   20.4646 C   0  0  0  0  0  0
  -22.7248  -10.2137   20.3056 C   0  0  0  0  0  0
  -21.6853   -6.0736   22.5277 C   0  0  0  0  0  0
  -21.4013   -6.5639   23.8211 C   0  0  0  0  0  0
  -21.3661   -5.6792   24.9173 C   0  0  0  0  0  0
  -21.6044   -4.3055   24.7223 C   0  0  0  0  0  0
  -21.8817   -3.8147   23.4344 C   0  0  0  0  0  0
  -21.9192   -4.6963   22.3400 C   0  0  0  0  0  0
  -22.7826  -13.5221   21.1853 C   0  0  0  0  0  0
  -22.1659   -4.2148   21.0978 F   0  0  0  0  0  0
  -21.5630   -3.4539   25.7736 F   0  0  0  0  0  0
  -29.9989  -13.4714   20.4118 N   0  0  0  0  0  0
  -26.2972  -12.9407   20.3350 N   0  0  0  0  0  0
  -25.9339  -11.6548   20.5790 N   0  0  0  0  0  0
  -22.0470  -12.8214   22.0410 N   0  0  0  0  0  0
  -25.4172  -15.1915   20.4056 N   0  0  0  0  0  0
  -31.8622  -14.7072   20.1319 O   0  0  0  0  0  0
  -21.6641   -6.8880   21.4239 O   0  0  0  0  0  0
  -22.3506  -14.5523   20.6694 O   0  0  0  0  0  0
  -24.6303  -31.8607   23.2075 C   0  0  0  0  0  0
  -25.9144  -32.4785   23.8390 C   0  0  1  0  0  0
  -27.2028  -27.2879   20.1029 C   0  0  0  0  0  0
  -25.5955  -33.8587   24.2304 N   0  0  0  0  0  0
  -23.4240  -30.4921   21.5520 C   0  0  2  0  0  0
  -24.8667  -28.9631   20.1070 C   0  0  0  0  0  0
  -22.7500  -29.4636   22.4929 C   0  0  0  0  0  0
  -18.0293  -28.1390   22.8485 C   0  0  0  0  0  0
  -24.1491  -36.7293   23.2638 C   0  0  0  0  0  0
  -25.9736  -30.7792   21.3899 C   0  0  0  0  0  0
  -26.0428  -29.4094   20.7235 C   0  0  0  0  0  0
  -27.2137  -28.5826   20.7211 C   0  0  0  0  0  0
  -26.0036  -26.9399   19.4244 C   0  0  0  0  0  0
  -24.8513  -27.7331   19.4487 C   0  0  0  0  0  0
  -23.6389  -29.8455   20.1627 C   0  0  0  0  0  0
  -25.4116  -36.3085   24.0330 C   0  0  1  0  0  0
  -20.5897  -28.3699   23.1267 C   0  0  2  0  0  0
  -20.6783  -26.9418   22.5401 C   0  0  0  0  0  0
  -19.5753  -26.6387   21.5209 C   0  0  0  0  0  0
  -18.1934  -26.7932   22.1626 C   0  0  0  0  0  0
  -19.1547  -28.8861   23.2872 C   0  0  0  0  0  0
  -18.9466  -30.1462   23.8890 C   0  0  0  0  0  0
  -17.6465  -30.6589   24.0564 C   0  0  0  0  0  0
  -25.9058  -34.9454   23.5111 C   0  0  0  0  0  0
  -16.5356  -29.9086   23.6335 C   0  0  0  0  0  0
  -16.7278  -28.6505   23.0352 C   0  0  0  0  0  0
  -26.4514  -31.6592   25.0762 C   0  0  0  0  0  0
  -25.3739  -31.3724   26.1479 C   0  0  0  0  0  0
  -27.0368  -30.3011   24.6242 C   0  0  0  0  0  0
  -27.6070  -32.4332   25.7533 C   0  0  0  0  0  0
  -27.5579  -37.1803   24.8466 C   0  0  0  0  0  0
  -21.4209  -29.3056   22.3667 N   0  0  0  0  0  0
  -26.4292  -37.3781   23.9411 N   0  0  0  0  0  0
  -24.6952  -31.0598   22.1055 N   0  0  0  0  0  0
  -23.4215  -28.8143   23.2991 O   0  0  0  0  0  0
  -28.2573  -26.3405   20.1890 O   0  0  0  0  0  0
  -26.5616  -34.8916   22.4672 O   0  0  0  0  0  0
  -23.5456  -32.1423   23.7377 O   0  0  0  0  0  0
  -27.7932  -22.3478   20.2090 C   0  0  0  0  0  0
  -28.5513  -23.5692   20.2506 C   0  0  0  0  0  0
  -30.4407  -22.2173   20.5836 C   0  0  0  0  0  0
  -29.6721  -20.9991   20.5378 C   0  0  0  0  0  0
  -29.0864  -17.7747   21.8707 C   0  0  0  0  0  0
  -29.0252  -16.2353   21.6763 C   0  0  0  0  0  0
  -30.5090  -17.1633   20.0885 C   0  0  0  0  0  0
  -29.5912  -18.3531   20.5481 C   0  0  2  0  0  0
  -26.2940  -22.3399   19.9578 C   0  0  0  0  0  0
  -32.3479  -22.4732   22.2420 C   0  0  0  0  0  0
  -31.9488  -22.2026   20.7856 C   0  0  0  0  0  0
  -27.8216  -24.9346   19.9180 C   0  0  0  0  0  0
  -29.8956  -23.4764   20.4445 N   0  0  0  0  0  0
  -28.3367  -21.1005   20.3553 N   0  0  0  0  0  0
  -30.0082  -15.8653   20.6487 N   0  0  0  0  0  0
  -30.2539  -19.6924   20.6654 N   0  0  0  0  0  0
  -31.4663  -12.5170   19.1520 H   0  0  0  0  0  0
  -30.3502  -11.4325   19.9219 H   0  0  0  0  0  0
  -29.7708  -11.7499   17.4928 H   0  0  0  0  0  0
  -29.6432  -13.4749   17.7328 H   0  0  0  0  0  0
  -27.8653  -11.2988   18.8759 H   0  0  0  0  0  0
  -27.3706  -12.5757   17.7965 H   0  0  0  0  0  0
  -27.6596  -14.2615   19.5148 H   0  0  0  0  0  0
  -28.7281  -12.0838   21.3708 H   0  0  0  0  0  0
  -28.4371  -13.7194   21.8481 H   0  0  0  0  0  0
  -25.2767   -9.5683   22.4761 H   0  0  0  0  0  0
  -23.9999   -7.4638   22.7480 H   0  0  0  0  0  0
  -21.0846   -8.8785   19.8950 H   0  0  0  0  0  0
  -22.3712  -10.9677   19.6165 H   0  0  0  0  0  0
  -21.2005   -7.6148   23.9712 H   0  0  0  0  0  0
  -21.1484   -6.0524   25.9075 H   0  0  0  0  0  0
  -22.0594   -2.7608   23.2846 H   0  0  0  0  0  0
  -22.4092  -11.9888   22.4815 H   0  0  0  0  0  0
  -21.1083  -13.1232   22.2603 H   0  0  0  0  0  0
  -24.6460  -15.8420   20.5103 H   0  0  0  0  0  0
  -26.2640  -15.6322   20.0705 H   0  0  0  0  0  0
  -26.7207  -32.5439   23.1129 H   0  0  0  0  0  0
  -25.0112  -33.9739   25.0454 H   0  0  0  0  0  0
  -22.7187  -31.3148   21.4168 H   0  0  0  0  0  0
  -23.3758  -35.9621   23.3299 H   0  0  0  0  0  0
  -24.3583  -36.8916   22.2052 H   0  0  0  0  0  0
  -23.7237  -37.6491   23.6661 H   0  0  0  0  0  0
  -26.1163  -31.5447   20.6258 H   0  0  0  0  0  0
  -26.8504  -30.8190   22.0242 H   0  0  0  0  0  0
  -28.1047  -28.9122   21.2367 H   0  0  0  0  0  0
  -25.8839  -26.0223   18.8712 H   0  0  0  0  0  0
  -23.9567  -27.3923   18.9457 H   0  0  0  0  0  0
  -23.7627  -30.6308   19.4161 H   0  0  0  0  0  0
  -22.7564  -29.2829   19.8524 H   0  0  0  0  0  0
  -25.1291  -36.1942   25.0822 H   0  0  0  0  0  0
  -20.9986  -28.3274   24.1389 H   0  0  0  0  0  0
  -20.5690  -26.2307   23.3605 H   0  0  0  0  0  0
  -21.6650  -26.7451   22.1188 H   0  0  0  0  0  0
  -19.6916  -25.6297   21.1239 H   0  0  0  0  0  0
  -19.6686  -27.3197   20.6737 H   0  0  0  0  0  0
  -17.4202  -26.6678   21.4030 H   0  0  0  0  0  0
  -18.0337  -26.0073   22.9022 H   0  0  0  0  0  0
  -19.7941  -30.7281   24.2253 H   0  0  0  0  0  0
  -17.5020  -31.6267   24.5170 H   0  0  0  0  0  0
  -15.5356  -30.2985   23.7667 H   0  0  0  0  0  0
  -15.8677  -28.0824   22.7068 H   0  0  0  0  0  0
  -24.5941  -30.7039   25.7810 H   0  0  0  0  0  0
  -24.8896  -32.2880   26.4880 H   0  0  0  0  0  0
  -25.8064  -30.8931   27.0270 H   0  0  0  0  0  0
  -26.2957  -29.6754   24.1252 H   0  0  0  0  0  0
  -27.4038  -29.7274   25.4763 H   0  0  0  0  0  0
  -27.8844  -30.4294   23.9507 H   0  0  0  0  0  0
  -27.2684  -33.3645   26.2087 H   0  0  0  0  0  0
  -28.3892  -32.6867   25.0366 H   0  0  0  0  0  0
  -28.0724  -31.8470   26.5467 H   0  0  0  0  0  0
  -28.2592  -38.0105   24.7522 H   0  0  0  0  0  0
  -28.1081  -36.2636   24.6286 H   0  0  0  0  0  0
  -27.2298  -37.1444   25.8869 H   0  0  0  0  0  0
  -20.9386  -29.8808   21.6902 H   0  0  0  0  0  0
  -26.0174  -38.2856   24.1418 H   0  0  0  0  0  0
  -29.7966  -18.0000   22.6683 H   0  0  0  0  0  0
  -28.1244  -18.1950   22.1673 H   0  0  0  0  0  0
  -28.0317  -15.9501   21.3326 H   0  0  0  0  0  0
  -29.2166  -15.7228   22.6204 H   0  0  0  0  0  0
  -31.5262  -17.3172   20.4533 H   0  0  0  0  0  0
  -30.5663  -17.1118   19.0001 H   0  0  0  0  0  0
  -28.7505  -18.4291   19.8555 H   0  0  0  0  0  0
  -25.7638  -22.8102   20.7863 H   0  0  0  0  0  0
  -25.9094  -21.3241   19.8575 H   0  0  0  0  0  0
  -26.0499  -22.8742   19.0395 H   0  0  0  0  0  0
  -33.4317  -22.4542   22.3568 H   0  0  0  0  0  0
  -31.9281  -21.7216   22.9113 H   0  0  0  0  0  0
  -31.9941  -23.4505   22.5714 H   0  0  0  0  0  0
  -32.3967  -22.9584   20.1391 H   0  0  0  0  0  0
  -32.3667  -21.2529   20.4529 H   0  0  0  0  0  0
  -26.8750  -24.8186   20.4451 H   0  0  0  0  0  0
  -27.6304  -24.8605   18.8469 H   0  0  0  0  0  0
  -31.2579  -19.6778   20.8091 H   0  0  0  0  0  0
  1 25  1  0  0  0
  1 30  2  0  0  0
  1 85  1  0  0  0
  2  3  1  0  0  0
  2 25  1  0  0  0
  2 87  1  0  0  0
  2 88  1  0  0  0
  3  4  1  0  0  0
  3 89  1  0  0  0
  3 90  1  0  0  0
  4  5  1  0  0  0
  4 91  1  0  0  0
  4 92  1  0  0  0
  5  6  1  0  0  0
  5 26  1  0  0  0
  5 93  1  0  0  0
  6 25  1  0  0  0
  6 94  1  0  0  0
  6 95  1  0  0  0
  7  8  2  0  0  0
  7 26  1  0  0  0
  7 29  1  0  0  0
  8  9  1  0  0  0
  8 22  1  0  0  0
  9 10  1  0  0  0
  9 27  2  0  0  0
 10 11  2  0  0  0
 10 15  1  0  0  0
 11 12  1  0  0  0
 11 96  1  0  0  0
 12 13  2  0  0  0
 12 97  1  0  0  0
 13 14  1  0  0  0
 13 31  1  0  0  0
 14 15  2  0  0  0
 14 98  1  0  0  0
 15 99  1  0  0  0
 16 17  2  0  0  0
 16 21  1  0  0  0
 16 31  1  0  0  0
 17 18  1  0  0  0
 17100  1  0  0  0
 18 19  2  0  0  0
 18101  1  0  0  0
 19 20  1  0  0  0
 19 24  1  0  0  0
 20 21  2  0  0  0
 20102  1  0  0  0
 21 23  1  0  0  0
 22 28  1  0  0  0
 22 32  2  0  0  0
 26 27  1  0  0  0
 28103  1  0  0  0
 28104  1  0  0  0
 29105  1  0  0  0
 29106  1  0  0  0
 33 34  1  0  0  0
 33 66  1  0  0  0
 33 70  2  0  0  0
 34 36  1  0  0  0
 34 59  1  0  0  0
 34107  1  0  0  0
 35 44  2  0  0  0
 35 45  1  0  0  0
 35 68  1  0  0  0
 36 56  1  0  0  0
 36108  1  0  0  0
 37 39  1  0  0  0
 37 47  1  0  0  0
 37 66  1  0  0  0
 37109  1  0  0  0
 38 43  2  0  0  0
 38 46  1  0  0  0
 38 47  1  0  0  0
 39 64  1  0  0  0
 39 67  2  0  0  0
 40 52  1  0  0  0
 40 53  2  0  0  0
 40 58  1  0  0  0
 41110  1  0  0  0
 41111  1  0  0  0
 41112  1  0  0  0
 41 48  1  0  0  0
 42 43  1  0  0  0
 42 66  1  0  0  0
 42113  1  0  0  0
 42114  1  0  0  0
 43 44  1  0  0  0
 44115  1  0  0  0
 45 46  2  0  0  0
 45116  1  0  0  0
 46117  1  0  0  0
 47118  1  0  0  0
 47119  1  0  0  0
 48 56  1  0  0  0
 48 65  1  0  0  0
 48120  1  0  0  0
 49 50  1  0  0  0
 49 53  1  0  0  0
 49 64  1  0  0  0
 49121  1  0  0  0
 50 51  1  0  0  0
 50122  1  0  0  0
 50123  1  0  0  0
 51 52  1  0  0  0
 51124  1  0  0  0
 51125  1  0  0  0
 52126  1  0  0  0
 52127  1  0  0  0
 53 54  1  0  0  0
 54 55  2  0  0  0
 54128  1  0  0  0
 55 57  1  0  0  0
 55129  1  0  0  0
 56 69  2  0  0  0
 57 58  2  0  0  0
 57130  1  0  0  0
 58131  1  0  0  0
 59 60  1  0  0  0
 59 61  1  0  0  0
 59 62  1  0  0  0
 60132  1  0  0  0
 60133  1  0  0  0
 60134  1  0  0  0
 61135  1  0  0  0
 61136  1  0  0  0
 61137  1  0  0  0
 62138  1  0  0  0
 62139  1  0  0  0
 62140  1  0  0  0
 63 65  1  0  0  0
 63141  1  0  0  0
 63142  1  0  0  0
 63143  1  0  0  0
 64144  1  0  0  0
 65145  1  0  0  0
 68 82  1  0  0  0
 71 72  2  0  0  0
 71 79  1  0  0  0
 71 84  1  0  0  0
 72 82  1  0  0  0
 72 83  1  0  0  0
 73 74  1  0  0  0
 73 81  1  0  0  0
 73 83  2  0  0  0
 74 84  2  0  0  0
 74 86  1  0  0  0
 75 76  1  0  0  0
 75 78  1  0  0  0
 75146  1  0  0  0
 75147  1  0  0  0
 76 85  1  0  0  0
 76148  1  0  0  0
 76149  1  0  0  0
 77 78  1  0  0  0
 77 85  1  0  0  0
 77150  1  0  0  0
 77151  1  0  0  0
 78 86  1  0  0  0
 78152  1  0  0  0
 79153  1  0  0  0
 79154  1  0  0  0
 79155  1  0  0  0
 80 81  1  0  0  0
 80156  1  0  0  0
 80157  1  0  0  0
 80158  1  0  0  0
 81159  1  0  0  0
 81160  1  0  0  0
 82161  1  0  0  0
 82162  1  0  0  0
 86163  1  0  0  0
M  ISO  4   1 100  68 101  82 101  85 100
M  END
> <chiral flag>
0

> <version>
0

> <s_m_source_file>
/data/baiqing/PycharmProjects/Reinvent-master-3.2/result/LINK_invent/BTK/process_docking_weight1_custom_sum_contain_oxygen_bond_distance_aromatic_linkinvent_7_9_3/rearranged_h_0179.sdf

> <i_m_source_file_index>
26

> <r_mmod_Potential_Energy-OPLS-2005>
312.633941650391

> <r_mmod_Stretch_Energy-OPLS-2005>
94.6313552856445

> <r_mmod_Bend_Energy-OPLS-2005>
212.302780151367

> <r_mmod_Torsional_Energy-OPLS-2005>
290.132873535156

> <r_mmod_Improper_Torsional_Energy-OPLS-2005>
12.5872058868408

> <r_mmod_Van_der_Waal_Energy-OPLS-2005>
161.043685913086

> <r_mmod_Electrostatic_Energy-OPLS-2005>
-301.414398193359

> <r_mmod_Solvation_Energy-OPLS-2005>
-224.739440917969

> <b_mmod_Minimization_Converged-OPLS-2005>
0

> <r_mmod_RMS_Derivative-OPLS-2005>
0.467461854219437

$$$$
26
                    3D
 Structure written by MMmdl.
149158  0  0  1  0            999 V2000
  -30.4135  -15.3680   20.4134 C   0  0  0  0  0  0
  -30.4479  -12.9002   19.5034 C   0  0  0  0  0  0
  -29.5481  -12.5972   18.2764 C   0  0  0  0  0  0
  -28.0948  -12.3157   18.7044 C   0  0  0  0  0  0
  -27.6075  -13.2881   19.8073 C   0  0  2  0  0  0
  -28.6460  -13.4968   20.9303 C   0  0  0  0  0  0
  -25.2403  -13.8255   20.5745 C   0  0  0  0  0  0
  -24.1763  -13.0424   20.9226 C   0  0  0  0  0  0
  -24.6447  -11.6915   20.8708 C   0  0  0  0  0  0
  -23.9128  -10.4276   21.0365 C   0  0  0  0  0  0
  -24.3644   -9.4208   21.9164 C   0  0  0  0  0  0
  -23.6288   -8.2255   22.0740 C   0  0  0  0  0  0
  -22.4251   -8.0289   21.3550 C   0  0  0  0  0  0
  -21.9902   -9.0287   20.4656 C   0  0  0  0  0  0
  -22.7265  -10.2153   20.3039 C   0  0  0  0  0  0
  -21.6886   -6.0710   22.5271 C   0  0  0  0  0  0
  -21.4036   -6.5597   23.8209 C   0  0  0  0  0  0
  -21.3678   -5.6749   24.9165 C   0  0  0  0  0  0
  -21.6023   -4.3016   24.7227 C   0  0  0  0  0  0
  -21.8815   -3.8127   23.4344 C   0  0  0  0  0  0
  -21.9215   -4.6941   22.3403 C   0  0  0  0  0  0
  -22.7774  -13.5176   21.1910 C   0  0  0  0  0  0
  -22.1676   -4.2123   21.0975 F   0  0  0  0  0  0
  -21.5640   -3.4493   25.7747 F   0  0  0  0  0  0
  -29.8491  -14.0534   20.2824 N   0  0  0  0  0  0
  -26.2836  -12.9551   20.3150 N   0  0  0  0  0  0
  -25.9366  -11.6635   20.5621 N   0  0  0  0  0  0
  -22.0417  -12.8187   22.0474 N   0  0  0  0  0  0
  -25.4019  -15.2006   20.4320 N   0  0  0  0  0  0
  -31.6535  -15.3259   20.3119 O   0  0  0  0  0  0
  -21.6621   -6.8889   21.4242 O   0  0  0  0  0  0
  -22.3465  -14.5481   20.6753 O   0  0  0  0  0  0
  -24.6659  -31.8228   23.1657 C   0  0  0  0  0  0
  -25.9335  -32.4614   23.8141 C   0  0  1  0  0  0
  -27.2270  -26.8717   20.2450 C   0  0  0  0  0  0
  -25.5988  -33.8404   24.2027 N   0  0  0  0  0  0
  -23.4873  -30.4316   21.5111 C   0  0  2  0  0  0
  -24.9469  -28.8011   20.1273 C   0  0  0  0  0  0
  -22.7719  -29.4448   22.4721 C   0  0  0  0  0  0
  -18.0333  -28.1484   22.8469 C   0  0  0  0  0  0
  -24.1478  -36.7165   23.2660 C   0  0  0  0  0  0
  -26.0569  -30.6207   21.4057 C   0  0  0  0  0  0
  -26.1304  -29.1987   20.7627 C   0  0  0  0  0  0
  -27.2647  -28.2569   20.7831 C   0  0  0  0  0  0
  -26.0136  -26.6368   19.5545 C   0  0  0  0  0  0
  -24.9182  -27.5446   19.4959 C   0  0  0  0  0  0
  -23.7417  -29.7430   20.1401 C   0  0  0  0  0  0
  -25.4134  -36.2965   24.0277 C   0  0  1  0  0  0
  -20.5965  -28.3843   23.1179 C   0  0  2  0  0  0
  -20.6809  -26.9508   22.5442 C   0  0  0  0  0  0
  -19.5773  -26.6437   21.5259 C   0  0  0  0  0  0
  -18.1949  -26.8014   22.1651 C   0  0  0  0  0  0
  -19.1600  -28.8991   23.2806 C   0  0  0  0  0  0
  -18.9536  -30.1555   23.8870 C   0  0  0  0  0  0
  -17.6532  -30.6665   24.0596 C   0  0  0  0  0  0
  -25.9080  -34.9358   23.4961 C   0  0  0  0  0  0
  -16.5418  -29.9158   23.6362 C   0  0  0  0  0  0
  -16.7310  -28.6581   23.0373 C   0  0  0  0  0  0
  -26.4532  -31.6596   25.0706 C   0  0  0  0  0  0
  -25.3623  -31.3979   26.1381 C   0  0  0  0  0  0
  -27.0410  -30.2950   24.6499 C   0  0  0  0  0  0
  -27.6036  -32.4390   25.7514 C   0  0  0  0  0  0
  -27.5536  -37.1739   24.8428 C   0  0  0  0  0  0
  -21.4371  -29.3106   22.3508 N   0  0  0  0  0  0
  -26.4231  -37.3741   23.9418 N   0  0  0  0  0  0
  -24.7568  -30.9878   22.0818 N   0  0  0  0  0  0
  -23.4237  -28.8038   23.3024 O   0  0  0  0  0  0
  -28.2602  -25.7693   20.2546 O   0  0  0  0  0  0
  -26.5686  -34.8893   22.4548 O   0  0  0  0  0  0
  -23.5710  -32.1227   23.6718 O   0  0  0  0  0  0
  -30.2281  -18.4995   22.0301 C   0  0  0  0  0  0
  -30.1999  -19.7807   22.6330 C   0  0  0  0  0  0
  -29.7085  -18.2550   20.7466 C   0  0  0  0  0  0
  -29.1913  -20.8848   20.8054 C   0  0  0  0  0  0
  -27.5176  -23.1261   19.8047 C   0  0  0  0  0  0
  -28.8887  -22.5497   20.1842 C   0  0  1  0  0  0
  -28.1955  -24.1438   20.7033 C   0  0  1  0  0  0
  -30.7590  -19.9522   24.0442 C   0  0  0  0  0  0
  -29.7074  -20.9067   22.0393 N   0  0  0  0  0  0
  -29.2025  -19.5491   20.1850 N   0  0  0  0  0  0
  -29.6519  -16.6662   20.3225 N   0  0  0  0  0  0
  -31.4559  -13.1308   19.1556 H   0  0  0  0  0  0
  -30.5524  -12.0168   20.1335 H   0  0  0  0  0  0
  -29.9410  -11.7506   17.7105 H   0  0  0  0  0  0
  -29.5652  -13.4516   17.5975 H   0  0  0  0  0  0
  -28.0524  -11.2925   19.0762 H   0  0  0  0  0  0
  -27.4280  -12.3555   17.8379 H   0  0  0  0  0  0
  -27.5050  -14.2408   19.2901 H   0  0  0  0  0  0
  -28.8539  -12.5681   21.4624 H   0  0  0  0  0  0
  -28.2669  -14.2080   21.6680 H   0  0  0  0  0  0
  -25.2812   -9.5664   22.4695 H   0  0  0  0  0  0
  -24.0005   -7.4644   22.7437 H   0  0  0  0  0  0
  -21.0820   -8.8846   19.8963 H   0  0  0  0  0  0
  -22.3762  -10.9677   19.6114 H   0  0  0  0  0  0
  -21.2011   -7.6101   23.9700 H   0  0  0  0  0  0
  -21.1497   -6.0477   25.9073 H   0  0  0  0  0  0
  -22.0581   -2.7578   23.2848 H   0  0  0  0  0  0
  -22.3995  -11.9872   22.4919 H   0  0  0  0  0  0
  -21.1041  -13.1290   22.2659 H   0  0  0  0  0  0
  -24.6313  -15.8430   20.5852 H   0  0  0  0  0  0
  -26.2532  -15.6686   20.1541 H   0  0  0  0  0  0
  -26.7434  -32.5185   23.0869 H   0  0  0  0  0  0
  -25.0157  -33.9473   25.0206 H   0  0  0  0  0  0
  -22.7989  -31.2596   21.3311 H   0  0  0  0  0  0
  -23.3759  -35.9465   23.3256 H   0  0  0  0  0  0
  -24.3576  -36.8888   22.2095 H   0  0  0  0  0  0
  -23.7191  -37.6314   23.6745 H   0  0  0  0  0  0
  -26.2366  -31.3639   20.6275 H   0  0  0  0  0  0
  -26.9116  -30.6952   22.0660 H   0  0  0  0  0  0
  -28.1659  -28.5718   21.2933 H   0  0  0  0  0  0
  -25.8888  -25.6806   19.0665 H   0  0  0  0  0  0
  -24.0215  -27.2461   18.9719 H   0  0  0  0  0  0
  -23.9259  -30.5079   19.3826 H   0  0  0  0  0  0
  -22.8506  -29.2086   19.8091 H   0  0  0  0  0  0
  -25.1334  -36.1717   25.0758 H   0  0  0  0  0  0
  -21.0041  -28.3506   24.1307 H   0  0  0  0  0  0
  -20.5769  -26.2465   23.3708 H   0  0  0  0  0  0
  -21.6666  -26.7496   22.1252 H   0  0  0  0  0  0
  -19.6914  -25.6333   21.1346 H   0  0  0  0  0  0
  -19.6710  -27.3203   20.6751 H   0  0  0  0  0  0
  -17.4235  -26.6785   21.4031 H   0  0  0  0  0  0
  -18.0266  -26.0193   22.9075 H   0  0  0  0  0  0
  -19.8024  -30.7352   24.2235 H   0  0  0  0  0  0
  -17.5109  -31.6330   24.5228 H   0  0  0  0  0  0
  -15.5431  -30.3078   23.7690 H   0  0  0  0  0  0
  -15.8701  -28.0884   22.7111 H   0  0  0  0  0  0
  -24.5700  -30.7433   25.7697 H   0  0  0  0  0  0
  -24.8971  -32.3288   26.4667 H   0  0  0  0  0  0
  -25.7861  -30.9227   27.0239 H   0  0  0  0  0  0
  -26.3097  -29.6647   24.1455 H   0  0  0  0  0  0
  -27.3822  -29.7354   25.5202 H   0  0  0  0  0  0
  -27.9068  -30.4083   23.9983 H   0  0  0  0  0  0
  -27.2599  -33.3721   26.1985 H   0  0  0  0  0  0
  -28.3937  -32.6910   25.0417 H   0  0  0  0  0  0
  -28.0567  -31.8583   26.5564 H   0  0  0  0  0  0
  -28.2519  -38.0078   24.7547 H   0  0  0  0  0  0
  -28.1056  -36.2597   24.6132 H   0  0  0  0  0  0
  -27.2248  -37.1269   25.8834 H   0  0  0  0  0  0
  -20.9628  -29.8771   21.6603 H   0  0  0  0  0  0
  -26.0018  -38.2735   24.1610 H   0  0  0  0  0  0
  -30.6188  -17.6698   22.6082 H   0  0  0  0  0  0
  -26.6379  -22.6468   20.2323 H   0  0  0  0  0  0
  -27.3985  -23.3954   18.7562 H   0  0  0  0  0  0
  -29.6487  -22.6644   19.4178 H   0  0  0  0  0  0
  -27.9129  -24.1449   21.7555 H   0  0  0  0  0  0
  -30.5563  -19.0697   24.6546 H   0  0  0  0  0  0
  -30.3253  -20.8026   24.5720 H   0  0  0  0  0  0
  -31.8425  -20.0871   24.0190 H   0  0  0  0  0  0
  -28.7541  -16.4624   19.9145 H   0  0  0  0  0  0
  1 25  1  0  0  0
  1 30  2  0  0  0
  1 81  1  0  0  0
  2  3  1  0  0  0
  2 25  1  0  0  0
  2 82  1  0  0  0
  2 83  1  0  0  0
  3  4  1  0  0  0
  3 84  1  0  0  0
  3 85  1  0  0  0
  4  5  1  0  0  0
  4 86  1  0  0  0
  4 87  1  0  0  0
  5  6  1  0  0  0
  5 26  1  0  0  0
  5 88  1  0  0  0
  6 25  1  0  0  0
  6 89  1  0  0  0
  6 90  1  0  0  0
  7  8  2  0  0  0
  7 26  1  0  0  0
  7 29  1  0  0  0
  8  9  1  0  0  0
  8 22  1  0  0  0
  9 10  1  0  0  0
  9 27  2  0  0  0
 10 11  2  0  0  0
 10 15  1  0  0  0
 11 12  1  0  0  0
 11 91  1  0  0  0
 12 13  2  0  0  0
 12 92  1  0  0  0
 13 14  1  0  0  0
 13 31  1  0  0  0
 14 15  2  0  0  0
 14 93  1  0  0  0
 15 94  1  0  0  0
 16 17  2  0  0  0
 16 21  1  0  0  0
 16 31  1  0  0  0
 17 18  1  0  0  0
 17 95  1  0  0  0
 18 19  2  0  0  0
 18 96  1  0  0  0
 19 20  1  0  0  0
 19 24  1  0  0  0
 20 21  2  0  0  0
 20 97  1  0  0  0
 21 23  1  0  0  0
 22 28  1  0  0  0
 22 32  2  0  0  0
 26 27  1  0  0  0
 28 98  1  0  0  0
 28 99  1  0  0  0
 29100  1  0  0  0
 29101  1  0  0  0
 33 34  1  0  0  0
 33 66  1  0  0  0
 33 70  2  0  0  0
 34 36  1  0  0  0
 34 59  1  0  0  0
 34102  1  0  0  0
 35 44  2  0  0  0
 35 45  1  0  0  0
 35 68  1  0  0  0
 36 56  1  0  0  0
 36103  1  0  0  0
 37 39  1  0  0  0
 37 47  1  0  0  0
 37 66  1  0  0  0
 37104  1  0  0  0
 38 43  2  0  0  0
 38 46  1  0  0  0
 38 47  1  0  0  0
 39 64  1  0  0  0
 39 67  2  0  0  0
 40 52  1  0  0  0
 40 53  2  0  0  0
 40 58  1  0  0  0
 41105  1  0  0  0
 41106  1  0  0  0
 41107  1  0  0  0
 41 48  1  0  0  0
 42 43  1  0  0  0
 42 66  1  0  0  0
 42108  1  0  0  0
 42109  1  0  0  0
 43 44  1  0  0  0
 44110  1  0  0  0
 45 46  2  0  0  0
 45111  1  0  0  0
 46112  1  0  0  0
 47113  1  0  0  0
 47114  1  0  0  0
 48 56  1  0  0  0
 48 65  1  0  0  0
 48115  1  0  0  0
 49 50  1  0  0  0
 49 53  1  0  0  0
 49 64  1  0  0  0
 49116  1  0  0  0
 50 51  1  0  0  0
 50117  1  0  0  0
 50118  1  0  0  0
 51 52  1  0  0  0
 51119  1  0  0  0
 51120  1  0  0  0
 52121  1  0  0  0
 52122  1  0  0  0
 53 54  1  0  0  0
 54 55  2  0  0  0
 54123  1  0  0  0
 55 57  1  0  0  0
 55124  1  0  0  0
 56 69  2  0  0  0
 57 58  2  0  0  0
 57125  1  0  0  0
 58126  1  0  0  0
 59 60  1  0  0  0
 59 61  1  0  0  0
 59 62  1  0  0  0
 60127  1  0  0  0
 60128  1  0  0  0
 60129  1  0  0  0
 61130  1  0  0  0
 61131  1  0  0  0
 61132  1  0  0  0
 62133  1  0  0  0
 62134  1  0  0  0
 62135  1  0  0  0
 63 65  1  0  0  0
 63136  1  0  0  0
 63137  1  0  0  0
 63138  1  0  0  0
 64139  1  0  0  0
 65140  1  0  0  0
 68 77  1  0  0  0
 71 72  2  0  0  0
 71 73  1  0  0  0
 71141  1  0  0  0
 72 78  1  0  0  0
 72 79  1  0  0  0
 73 80  2  0  0  0
 73 81  1  0  0  0
 74 79  2  0  0  0
 74 80  1  0  0  0
 74 76  1  0  0  0
 75 76  1  0  0  0
 75 77  1  0  0  0
 75142  1  0  0  0
 75143  1  0  0  0
 76 77  1  0  0  0
 76144  1  0  0  0
 77145  1  0  0  0
 78146  1  0  0  0
 78147  1  0  0  0
 78148  1  0  0  0
 81149  1  0  0  0
M  ISO  4   1 100  68 101  77 101  81 100
M  END
> <chiral flag>
0

> <version>
0

> <s_m_source_file>
/data/baiqing/PycharmProjects/Reinvent-master-3.2/result/LINK_invent/BTK/process_docking_weight1_custom_sum_contain_oxygen_bond_distance_aromatic_linkinvent_7_9_3/rearranged_h_0179.sdf

> <i_m_source_file_index>
27

> <r_mmod_Potential_Energy-OPLS-2005>
1132.67260742188

> <r_mmod_Stretch_Energy-OPLS-2005>
703.517883300781

> <r_mmod_Bend_Energy-OPLS-2005>
469.614044189453

> <r_mmod_Torsional_Energy-OPLS-2005>
255.567764282227

> <r_mmod_Improper_Torsional_Energy-OPLS-2005>
10.9549741744995

> <r_mmod_Van_der_Waal_Energy-OPLS-2005>
124.487922668457

> <r_mmod_Electrostatic_Energy-OPLS-2005>
-733.902282714844

> <r_mmod_Solvation_Energy-OPLS-2005>
-251.762542724609

> <b_mmod_Minimization_Converged-OPLS-2005>
0

> <r_mmod_RMS_Derivative-OPLS-2005>
6.30512809753418

$$$$
27
                    3D
 Structure written by MMmdl.
153162  0  0  1  0            999 V2000
  -30.4302  -15.1905   20.3700 C   0  0  0  0  0  0
  -30.4489  -12.7465   19.5217 C   0  0  0  0  0  0
  -29.5397  -12.5710   18.2787 C   0  0  0  0  0  0
  -28.0794  -12.3148   18.6964 C   0  0  0  0  0  0
  -27.6222  -13.2668   19.8301 C   0  0  2  0  0  0
  -28.6567  -13.3850   20.9688 C   0  0  0  0  0  0
  -25.2457  -13.8244   20.5791 C   0  0  0  0  0  0
  -24.1771  -13.0457   20.9247 C   0  0  0  0  0  0
  -24.6401  -11.6946   20.8733 C   0  0  0  0  0  0
  -23.9096  -10.4303   21.0392 C   0  0  0  0  0  0
  -24.3624   -9.4223   21.9182 C   0  0  0  0  0  0
  -23.6279   -8.2269   22.0773 C   0  0  0  0  0  0
  -22.4256   -8.0298   21.3565 C   0  0  0  0  0  0
  -21.9887   -9.0280   20.4677 C   0  0  0  0  0  0
  -22.7247  -10.2142   20.3068 C   0  0  0  0  0  0
  -21.6854   -6.0729   22.5273 C   0  0  0  0  0  0
  -21.4028   -6.5630   23.8210 C   0  0  0  0  0  0
  -21.3662   -5.6785   24.9175 C   0  0  0  0  0  0
  -21.6038   -4.3051   24.7219 C   0  0  0  0  0  0
  -21.8814   -3.8153   23.4341 C   0  0  0  0  0  0
  -21.9190   -4.6969   22.3397 C   0  0  0  0  0  0
  -22.7786  -13.5242   21.1871 C   0  0  0  0  0  0
  -22.1665   -4.2167   21.0968 F   0  0  0  0  0  0
  -21.5630   -3.4523   25.7728 F   0  0  0  0  0  0
  -29.9054  -13.8732   20.3606 N   0  0  0  0  0  0
  -26.2867  -12.9506   20.3200 N   0  0  0  0  0  0
  -25.9340  -11.6618   20.5663 N   0  0  0  0  0  0
  -22.0408  -12.8267   22.0428 N   0  0  0  0  0  0
  -25.4168  -15.1977   20.4382 N   0  0  0  0  0  0
  -31.6380  -15.2424   20.0840 O   0  0  0  0  0  0
  -21.6649   -6.8871   21.4231 O   0  0  0  0  0  0
  -22.3464  -14.5530   20.6701 O   0  0  0  0  0  0
  -24.6604  -31.8272   23.1729 C   0  0  0  0  0  0
  -25.9309  -32.4601   23.8192 C   0  0  1  0  0  0
  -27.2146  -26.9659   20.1795 C   0  0  0  0  0  0
  -25.5991  -33.8424   24.2101 N   0  0  0  0  0  0
  -23.4717  -30.4410   21.5214 C   0  0  2  0  0  0
  -24.9229  -28.8336   20.1105 C   0  0  0  0  0  0
  -22.7638  -29.4475   22.4799 C   0  0  0  0  0  0
  -18.0316  -28.1386   22.8455 C   0  0  0  0  0  0
  -24.1501  -36.7231   23.2649 C   0  0  0  0  0  0
  -26.0382  -30.6457   21.3970 C   0  0  0  0  0  0
  -26.1061  -29.2401   20.7405 C   0  0  0  0  0  0
  -27.2486  -28.3275   20.7488 C   0  0  0  0  0  0
  -26.0021  -26.6977   19.5075 C   0  0  0  0  0  0
  -24.8946  -27.5819   19.4736 C   0  0  0  0  0  0
  -23.7087  -29.7592   20.1461 C   0  0  0  0  0  0
  -25.4132  -36.2989   24.0312 C   0  0  1  0  0  0
  -20.5932  -28.3746   23.1182 C   0  0  2  0  0  0
  -20.6795  -26.9424   22.5407 C   0  0  0  0  0  0
  -19.5776  -26.6351   21.5204 C   0  0  0  0  0  0
  -18.1951  -26.7917   22.1601 C   0  0  0  0  0  0
  -19.1576  -28.8882   23.2808 C   0  0  0  0  0  0
  -18.9498  -30.1466   23.8852 C   0  0  0  0  0  0
  -17.6493  -30.6578   24.0542 C   0  0  0  0  0  0
  -25.9101  -34.9362   23.5025 C   0  0  0  0  0  0
  -16.5382  -29.9072   23.6322 C   0  0  0  0  0  0
  -16.7297  -28.6488   23.0347 C   0  0  0  0  0  0
  -26.4549  -31.6533   25.0713 C   0  0  0  0  0  0
  -25.3668  -31.3821   26.1379 C   0  0  0  0  0  0
  -27.0420  -30.2886   24.6438 C   0  0  0  0  0  0
  -27.6058  -32.4320   25.7499 C   0  0  0  0  0  0
  -27.5577  -37.1773   24.8453 C   0  0  0  0  0  0
  -21.4313  -29.3056   22.3542 N   0  0  0  0  0  0
  -26.4278  -37.3717   23.9408 N   0  0  0  0  0  0
  -24.7448  -30.9978   22.0845 N   0  0  0  0  0  0
  -23.4199  -28.8027   23.3021 O   0  0  0  0  0  0
  -28.2348  -25.8919   20.2417 O   0  0  0  0  0  0
  -26.5699  -34.8898   22.4616 O   0  0  0  0  0  0
  -23.5694  -32.1249   23.6840 O   0  0  0  0  0  0
  -28.5223  -20.2571   21.2665 C   0  0  0  0  0  0
  -28.7195  -18.7934   21.3306 C   0  0  0  0  0  0
  -29.0918  -21.1542   20.2791 C   0  0  0  0  0  0
  -29.8859  -20.2666   19.4140 C   0  0  0  0  0  0
  -29.5370  -17.9791   20.4501 C   0  0  0  0  0  0
  -31.9377  -20.2565   17.7372 C   0  0  0  0  0  0
  -31.9597  -21.5753   18.4574 C   0  0  0  0  0  0
  -30.6382  -20.8590   18.2489 C   0  0  0  0  0  0
  -29.1199  -22.9042   20.2950 C   0  0  0  0  0  0
  -27.9938  -24.2748   20.1619 C   0  0  0  0  0  0
  -30.0660  -18.8484   19.4985 N   0  0  0  0  0  0
  -29.5951  -16.3801   20.5832 N   0  0  0  0  0  0
  -31.4750  -12.9402   19.2014 H   0  0  0  0  0  0
  -30.4932  -11.8210   20.0976 H   0  0  0  0  0  0
  -29.9020  -11.7493   17.6592 H   0  0  0  0  0  0
  -29.5894  -13.4684   17.6596 H   0  0  0  0  0  0
  -28.0090  -11.2806   19.0339 H   0  0  0  0  0  0
  -27.4158  -12.4058   17.8355 H   0  0  0  0  0  0
  -27.5571  -14.2453   19.3530 H   0  0  0  0  0  0
  -28.7986  -12.4329   21.4808 H   0  0  0  0  0  0
  -28.3082  -14.0910   21.7249 H   0  0  0  0  0  0
  -25.2774   -9.5715   22.4731 H   0  0  0  0  0  0
  -24.0009   -7.4665   22.7487 H   0  0  0  0  0  0
  -21.0817   -8.8818   19.8970 H   0  0  0  0  0  0
  -22.3723  -10.9680   19.6178 H   0  0  0  0  0  0
  -21.2038   -7.6141   23.9710 H   0  0  0  0  0  0
  -21.1487   -6.0522   25.9071 H   0  0  0  0  0  0
  -22.0589   -2.7615   23.2831 H   0  0  0  0  0  0
  -22.3993  -11.9950   22.4870 H   0  0  0  0  0  0
  -21.1040  -13.1334   22.2607 H   0  0  0  0  0  0
  -24.6619  -15.8513   20.6122 H   0  0  0  0  0  0
  -26.2618  -15.6505   20.1181 H   0  0  0  0  0  0
  -26.7373  -32.5149   23.0910 H   0  0  0  0  0  0
  -25.0072  -33.9482   25.0206 H   0  0  0  0  0  0
  -22.7849  -31.2726   21.3536 H   0  0  0  0  0  0
  -23.3768  -35.9555   23.3278 H   0  0  0  0  0  0
  -24.3587  -36.8908   22.2070 H   0  0  0  0  0  0
  -23.7255  -37.6414   23.6723 H   0  0  0  0  0  0
  -26.2173  -31.3904   20.6205 H   0  0  0  0  0  0
  -26.8990  -30.6954   22.0515 H   0  0  0  0  0  0
  -28.1454  -28.6371   21.2667 H   0  0  0  0  0  0
  -25.8790  -25.7404   19.0226 H   0  0  0  0  0  0
  -23.9961  -27.2639   18.9633 H   0  0  0  0  0  0
  -23.8667  -30.5295   19.3904 H   0  0  0  0  0  0
  -22.8163  -29.2182   19.8261 H   0  0  0  0  0  0
  -25.1326  -36.1791   25.0801 H   0  0  0  0  0  0
  -21.0016  -28.3360   24.1304 H   0  0  0  0  0  0
  -20.5631  -26.2370   23.3655 H   0  0  0  0  0  0
  -21.6672  -26.7370   22.1263 H   0  0  0  0  0  0
  -19.6950  -25.6243   21.1285 H   0  0  0  0  0  0
  -19.6714  -27.3102   20.6688 H   0  0  0  0  0  0
  -17.4222  -26.6636   21.4005 H   0  0  0  0  0  0
  -18.0352  -26.0064   22.9002 H   0  0  0  0  0  0
  -19.7976  -30.7282   24.2209 H   0  0  0  0  0  0
  -17.5050  -31.6252   24.5148 H   0  0  0  0  0  0
  -15.5382  -30.2964   23.7672 H   0  0  0  0  0  0
  -15.8692  -28.0787   22.7097 H   0  0  0  0  0  0
  -24.5790  -30.7235   25.7704 H   0  0  0  0  0  0
  -24.8928  -32.3047   26.4745 H   0  0  0  0  0  0
  -25.7886  -30.9005   27.0204 H   0  0  0  0  0  0
  -26.3070  -29.6559   24.1445 H   0  0  0  0  0  0
  -27.3933  -29.7271   25.5107 H   0  0  0  0  0  0
  -27.9032  -30.4059   23.9853 H   0  0  0  0  0  0
  -27.2636  -33.3643   26.2005 H   0  0  0  0  0  0
  -28.3906  -32.6836   25.0351 H   0  0  0  0  0  0
  -28.0676  -31.8483   26.5471 H   0  0  0  0  0  0
  -28.2588  -38.0073   24.7500 H   0  0  0  0  0  0
  -28.1080  -36.2612   24.6265 H   0  0  0  0  0  0
  -27.2307  -37.1408   25.8857 H   0  0  0  0  0  0
  -20.9547  -29.8779   21.6709 H   0  0  0  0  0  0
  -26.0141  -38.2790   24.1376 H   0  0  0  0  0  0
  -27.9237  -20.7000   22.0514 H   0  0  0  0  0  0
  -28.2147  -18.2809   22.1395 H   0  0  0  0  0  0
  -32.3720  -19.4089   18.2637 H   0  0  0  0  0  0
  -32.1166  -20.2766   16.6637 H   0  0  0  0  0  0
  -32.1851  -22.4484   17.8465 H   0  0  0  0  0  0
  -32.3892  -21.5777   19.4581 H   0  0  0  0  0  0
  -29.9509  -21.2730   17.5100 H   0  0  0  0  0  0
  -29.8608  -23.1400   19.5337 H   0  0  0  0  0  0
  -29.6477  -23.1068   21.2263 H   0  0  0  0  0  0
  -27.2319  -24.0915   20.9212 H   0  0  0  0  0  0
  -27.4765  -24.1206   19.2146 H   0  0  0  0  0  0
  -28.7153  -16.0488   20.9472 H   0  0  0  0  0  0
  1 25  1  0  0  0
  1 30  2  0  0  0
  1 82  1  0  0  0
  2  3  1  0  0  0
  2 25  1  0  0  0
  2 83  1  0  0  0
  2 84  1  0  0  0
  3  4  1  0  0  0
  3 85  1  0  0  0
  3 86  1  0  0  0
  4  5  1  0  0  0
  4 87  1  0  0  0
  4 88  1  0  0  0
  5  6  1  0  0  0
  5 26  1  0  0  0
  5 89  1  0  0  0
  6 25  1  0  0  0
  6 90  1  0  0  0
  6 91  1  0  0  0
  7  8  2  0  0  0
  7 26  1  0  0  0
  7 29  1  0  0  0
  8  9  1  0  0  0
  8 22  1  0  0  0
  9 10  1  0  0  0
  9 27  2  0  0  0
 10 11  2  0  0  0
 10 15  1  0  0  0
 11 12  1  0  0  0
 11 92  1  0  0  0
 12 13  2  0  0  0
 12 93  1  0  0  0
 13 14  1  0  0  0
 13 31  1  0  0  0
 14 15  2  0  0  0
 14 94  1  0  0  0
 15 95  1  0  0  0
 16 17  2  0  0  0
 16 21  1  0  0  0
 16 31  1  0  0  0
 17 18  1  0  0  0
 17 96  1  0  0  0
 18 19  2  0  0  0
 18 97  1  0  0  0
 19 20  1  0  0  0
 19 24  1  0  0  0
 20 21  2  0  0  0
 20 98  1  0  0  0
 21 23  1  0  0  0
 22 28  1  0  0  0
 22 32  2  0  0  0
 26 27  1  0  0  0
 28 99  1  0  0  0
 28100  1  0  0  0
 29101  1  0  0  0
 29102  1  0  0  0
 33 34  1  0  0  0
 33 66  1  0  0  0
 33 70  2  0  0  0
 34 36  1  0  0  0
 34 59  1  0  0  0
 34103  1  0  0  0
 35 44  2  0  0  0
 35 45  1  0  0  0
 35 68  1  0  0  0
 36 56  1  0  0  0
 36104  1  0  0  0
 37 39  1  0  0  0
 37 47  1  0  0  0
 37 66  1  0  0  0
 37105  1  0  0  0
 38 43  2  0  0  0
 38 46  1  0  0  0
 38 47  1  0  0  0
 39 64  1  0  0  0
 39 67  2  0  0  0
 40 52  1  0  0  0
 40 53  2  0  0  0
 40 58  1  0  0  0
 41106  1  0  0  0
 41107  1  0  0  0
 41108  1  0  0  0
 41 48  1  0  0  0
 42 43  1  0  0  0
 42 66  1  0  0  0
 42109  1  0  0  0
 42110  1  0  0  0
 43 44  1  0  0  0
 44111  1  0  0  0
 45 46  2  0  0  0
 45112  1  0  0  0
 46113  1  0  0  0
 47114  1  0  0  0
 47115  1  0  0  0
 48 56  1  0  0  0
 48 65  1  0  0  0
 48116  1  0  0  0
 49 50  1  0  0  0
 49 53  1  0  0  0
 49 64  1  0  0  0
 49117  1  0  0  0
 50 51  1  0  0  0
 50118  1  0  0  0
 50119  1  0  0  0
 51 52  1  0  0  0
 51120  1  0  0  0
 51121  1  0  0  0
 52122  1  0  0  0
 52123  1  0  0  0
 53 54  1  0  0  0
 54 55  2  0  0  0
 54124  1  0  0  0
 55 57  1  0  0  0
 55125  1  0  0  0
 56 69  2  0  0  0
 57 58  2  0  0  0
 57126  1  0  0  0
 58127  1  0  0  0
 59 60  1  0  0  0
 59 61  1  0  0  0
 59 62  1  0  0  0
 60128  1  0  0  0
 60129  1  0  0  0
 60130  1  0  0  0
 61131  1  0  0  0
 61132  1  0  0  0
 61133  1  0  0  0
 62134  1  0  0  0
 62135  1  0  0  0
 62136  1  0  0  0
 63 65  1  0  0  0
 63137  1  0  0  0
 63138  1  0  0  0
 63139  1  0  0  0
 64140  1  0  0  0
 65141  1  0  0  0
 68 80  1  0  0  0
 71 72  2  0  0  0
 71 73  1  0  0  0
 71142  1  0  0  0
 72 75  1  0  0  0
 72143  1  0  0  0
 73 74  2  0  0  0
 73 79  1  0  0  0
 74 81  1  0  0  0
 74 78  1  0  0  0
 75 81  2  0  0  0
 75 82  1  0  0  0
 76 77  1  0  0  0
 76 78  1  0  0  0
 76144  1  0  0  0
 76145  1  0  0  0
 77 78  1  0  0  0
 77146  1  0  0  0
 77147  1  0  0  0
 78148  1  0  0  0
 79 80  1  0  0  0
 79149  1  0  0  0
 79150  1  0  0  0
 80151  1  0  0  0
 80152  1  0  0  0
 82153  1  0  0  0
M  ISO  4   1 100  68 101  80 101  82 100
M  END
> <chiral flag>
0

> <version>
0

> <s_m_source_file>
/data/baiqing/PycharmProjects/Reinvent-master-3.2/result/LINK_invent/BTK/process_docking_weight1_custom_sum_contain_oxygen_bond_distance_aromatic_linkinvent_7_9_3/rearranged_h_0179.sdf

> <i_m_source_file_index>
28

> <r_mmod_Potential_Energy-OPLS-2005>
903.529418945312

> <r_mmod_Stretch_Energy-OPLS-2005>
469.822784423828

> <r_mmod_Bend_Energy-OPLS-2005>
418.632080078125

> <r_mmod_Torsional_Energy-OPLS-2005>
245.377029418945

> <r_mmod_Improper_Torsional_Energy-OPLS-2005>
4.83383226394653

> <r_mmod_Van_der_Waal_Energy-OPLS-2005>
127.53874206543

> <r_mmod_Electrostatic_Energy-OPLS-2005>
-519.474548339844

> <r_mmod_Solvation_Energy-OPLS-2005>
-232.58137512207

> <b_mmod_Minimization_Converged-OPLS-2005>
0

> <r_mmod_RMS_Derivative-OPLS-2005>
3.42132592201233

$$$$
28
                    3D
 Structure written by MMmdl.
157166  0  0  1  0            999 V2000
  -30.5837  -14.8064   20.4710 C   0  0  0  0  0  0
  -30.4424  -12.4953   19.4930 C   0  0  0  0  0  0
  -29.5199  -12.5265   18.2509 C   0  0  0  0  0  0
  -28.0474  -12.3369   18.6604 C   0  0  0  0  0  0
  -27.6464  -13.2362   19.8598 C   0  0  2  0  0  0
  -28.6893  -13.1747   21.0012 C   0  0  0  0  0  0
  -25.2526  -13.8197   20.5715 C   0  0  0  0  0  0
  -24.1811  -13.0434   20.9208 C   0  0  0  0  0  0
  -24.6408  -11.6914   20.8747 C   0  0  0  0  0  0
  -23.9089  -10.4290   21.0400 C   0  0  0  0  0  0
  -24.3634   -9.4208   21.9180 C   0  0  0  0  0  0
  -23.6303   -8.2250   22.0758 C   0  0  0  0  0  0
  -22.4285   -8.0288   21.3542 C   0  0  0  0  0  0
  -21.9917   -9.0267   20.4649 C   0  0  0  0  0  0
  -22.7258  -10.2138   20.3057 C   0  0  0  0  0  0
  -21.6846   -6.0745   22.5276 C   0  0  0  0  0  0
  -21.4016   -6.5648   23.8213 C   0  0  0  0  0  0
  -21.3657   -5.6796   24.9172 C   0  0  0  0  0  0
  -21.6045   -4.3059   24.7216 C   0  0  0  0  0  0
  -21.8818   -3.8154   23.4334 C   0  0  0  0  0  0
  -21.9197   -4.6976   22.3396 C   0  0  0  0  0  0
  -22.7832  -13.5222   21.1856 C   0  0  0  0  0  0
  -22.1658   -4.2163   21.0972 F   0  0  0  0  0  0
  -21.5630   -3.4543   25.7729 F   0  0  0  0  0  0
  -29.9893  -13.5556   20.4329 N   0  0  0  0  0  0
  -26.2963  -12.9410   20.3312 N   0  0  0  0  0  0
  -25.9344  -11.6547   20.5755 N   0  0  0  0  0  0
  -22.0465  -12.8214   22.0401 N   0  0  0  0  0  0
  -25.4223  -15.1929   20.4119 N   0  0  0  0  0  0
  -31.7399  -14.9343   20.0609 O   0  0  0  0  0  0
  -21.6637   -6.8890   21.4239 O   0  0  0  0  0  0
  -22.3514  -14.5520   20.6691 O   0  0  0  0  0  0
  -24.6355  -31.8499   23.1962 C   0  0  0  0  0  0
  -25.9162  -32.4727   23.8309 C   0  0  1  0  0  0
  -27.2196  -27.1970   20.1618 C   0  0  0  0  0  0
  -25.5956  -33.8535   24.2243 N   0  0  0  0  0  0
  -23.4375  -30.4712   21.5377 C   0  0  2  0  0  0
  -24.8928  -28.9141   20.1069 C   0  0  0  0  0  0
  -22.7518  -29.4565   22.4861 C   0  0  0  0  0  0
  -18.0298  -28.1351   22.8491 C   0  0  0  0  0  0
  -24.1489  -36.7268   23.2642 C   0  0  0  0  0  0
  -25.9879  -30.7411   21.3922 C   0  0  0  0  0  0
  -26.0617  -29.3583   20.7387 C   0  0  0  0  0  0
  -27.2238  -28.5117   20.7593 C   0  0  0  0  0  0
  -26.0423  -26.8643   19.4493 C   0  0  0  0  0  0
  -24.8925  -27.6777   19.4467 C   0  0  0  0  0  0
  -23.6639  -29.8052   20.1550 C   0  0  0  0  0  0
  -25.4115  -36.3048   24.0321 C   0  0  1  0  0  0
  -20.5891  -28.3710   23.1240 C   0  0  2  0  0  0
  -20.6786  -26.9422   22.5388 C   0  0  0  0  0  0
  -19.5737  -26.6300   21.5244 C   0  0  0  0  0  0
  -18.1940  -26.7850   22.1709 C   0  0  0  0  0  0
  -19.1535  -28.8862   23.2848 C   0  0  0  0  0  0
  -18.9432  -30.1444   23.8884 C   0  0  0  0  0  0
  -17.6419  -30.6564   24.0535 C   0  0  0  0  0  0
  -25.9066  -34.9426   23.5072 C   0  0  0  0  0  0
  -16.5338  -29.9035   23.6273 C   0  0  0  0  0  0
  -16.7278  -28.6441   23.0350 C   0  0  0  0  0  0
  -26.4517  -31.6582   25.0730 C   0  0  0  0  0  0
  -25.3724  -31.3758   26.1437 C   0  0  0  0  0  0
  -27.0377  -30.2981   24.6290 C   0  0  0  0  0  0
  -27.6053  -32.4353   25.7509 C   0  0  0  0  0  0
  -27.5574  -37.1786   24.8467 C   0  0  0  0  0  0
  -21.4203  -29.3101   22.3676 N   0  0  0  0  0  0
  -26.4288  -37.3756   23.9406 N   0  0  0  0  0  0
  -24.7050  -31.0408   22.0982 N   0  0  0  0  0  0
  -23.4202  -28.8048   23.2930 O   0  0  0  0  0  0
  -28.2829  -26.2327   20.2247 O   0  0  0  0  0  0
  -26.5632  -34.8908   22.4652 O   0  0  0  0  0  0
  -23.5486  -32.1346   23.7216 O   0  0  0  0  0  0
  -26.6314  -23.3170   21.3702 C   0  0  0  0  0  0
  -28.6500  -22.5869   20.7343 C   0  0  0  0  0  0
  -28.0455  -24.8640   20.5642 C   0  0  0  0  0  0
  -28.4275  -17.8509   19.6670 C   0  0  0  0  0  0
  -28.2425  -19.3920   19.9338 C   0  0  0  0  0  0
  -30.1548  -18.7022   21.0742 C   0  0  0  0  0  0
  -29.8037  -17.3847   20.2232 C   0  0  1  0  0  0
  -25.2824  -23.0116   21.9817 C   0  0  0  0  0  0
  -29.6979  -21.3687   20.9240 C   0  0  0  0  0  0
  -27.4418  -22.2816   21.1888 N   0  0  0  0  0  0
  -26.8641  -24.5931   21.1086 N   0  0  0  0  0  0
  -29.0044  -23.8841   20.3893 N   0  0  0  0  0  0
  -29.7995  -15.9261   20.7684 N   0  0  0  0  0  0
  -29.5574  -19.9197   20.3547 N   0  3  2  0  0  0
  -31.4817  -12.6315   19.1883 H   0  0  0  0  0  0
  -30.4034  -11.5169   19.9736 H   0  0  0  0  0  0
  -29.8113  -11.7524   17.5394 H   0  0  0  0  0  0
  -29.6358  -13.4787   17.7325 H   0  0  0  0  0  0
  -27.9122  -11.2873   18.9251 H   0  0  0  0  0  0
  -27.3900  -12.5213   17.8095 H   0  0  0  0  0  0
  -27.6397  -14.2588   19.4816 H   0  0  0  0  0  0
  -28.7402  -12.1697   21.4250 H   0  0  0  0  0  0
  -28.4114  -13.8378   21.8224 H   0  0  0  0  0  0
  -25.2776   -9.5681   22.4753 H   0  0  0  0  0  0
  -24.0006   -7.4644   22.7484 H   0  0  0  0  0  0
  -21.0843   -8.8792   19.8961 H   0  0  0  0  0  0
  -22.3716  -10.9681   19.6170 H   0  0  0  0  0  0
  -21.2004   -7.6156   23.9717 H   0  0  0  0  0  0
  -21.1474   -6.0524   25.9073 H   0  0  0  0  0  0
  -22.0598   -2.7619   23.2826 H   0  0  0  0  0  0
  -22.4060  -11.9884   22.4811 H   0  0  0  0  0  0
  -21.1090  -13.1253   22.2594 H   0  0  0  0  0  0
  -24.6557  -15.8488   20.5247 H   0  0  0  0  0  0
  -26.2657  -15.6216   20.0520 H   0  0  0  0  0  0
  -26.7244  -32.5340   23.1051 H   0  0  0  0  0  0
  -25.0084  -33.9673   25.0372 H   0  0  0  0  0  0
  -22.7362  -31.2940   21.3865 H   0  0  0  0  0  0
  -23.3751  -35.9604   23.3301 H   0  0  0  0  0  0
  -24.3583  -36.8905   22.2064 H   0  0  0  0  0  0
  -23.7244  -37.6468   23.6674 H   0  0  0  0  0  0
  -26.1349  -31.4961   20.6198 H   0  0  0  0  0  0
  -26.8616  -30.7945   22.0270 H   0  0  0  0  0  0
  -28.1106  -28.8457   21.2799 H   0  0  0  0  0  0
  -25.9832  -25.9163   18.9328 H   0  0  0  0  0  0
  -24.0065  -27.3399   18.9283 H   0  0  0  0  0  0
  -23.7934  -30.5817   19.4001 H   0  0  0  0  0  0
  -22.7814  -29.2418   19.8469 H   0  0  0  0  0  0
  -25.1295  -36.1887   25.0812 H   0  0  0  0  0  0
  -20.9918  -28.3264   24.1375 H   0  0  0  0  0  0
  -20.5761  -26.2335   23.3618 H   0  0  0  0  0  0
  -21.6625  -26.7483   22.1121 H   0  0  0  0  0  0
  -19.6930  -25.6216   21.1276 H   0  0  0  0  0  0
  -19.6576  -27.3065   20.6705 H   0  0  0  0  0  0
  -17.4138  -26.6489   21.4200 H   0  0  0  0  0  0
  -18.0415  -26.0077   22.9209 H   0  0  0  0  0  0
  -19.7879  -30.7299   24.2280 H   0  0  0  0  0  0
  -17.4929  -31.6251   24.5119 H   0  0  0  0  0  0
  -15.5325  -30.2913   23.7547 H   0  0  0  0  0  0
  -15.8714  -28.0701   22.7068 H   0  0  0  0  0  0
  -24.5896  -30.7116   25.7754 H   0  0  0  0  0  0
  -24.8907  -32.2939   26.4822 H   0  0  0  0  0  0
  -25.8014  -30.8946   27.0237 H   0  0  0  0  0  0
  -26.2985  -29.6714   24.1279 H   0  0  0  0  0  0
  -27.3993  -29.7272   25.4855 H   0  0  0  0  0  0
  -27.8898  -30.4234   23.9597 H   0  0  0  0  0  0
  -27.2643  -33.3666   26.2049 H   0  0  0  0  0  0
  -28.3871  -32.6913   25.0345 H   0  0  0  0  0  0
  -28.0718  -31.8510   26.5457 H   0  0  0  0  0  0
  -28.2568  -38.0099   24.7495 H   0  0  0  0  0  0
  -28.1082  -36.2621   24.6295 H   0  0  0  0  0  0
  -27.2288  -37.1439   25.8869 H   0  0  0  0  0  0
  -20.9332  -29.9058   21.7132 H   0  0  0  0  0  0
  -26.0151  -38.2821   24.1430 H   0  0  0  0  0  0
  -28.3680  -17.6399   18.5982 H   0  0  0  0  0  0
  -27.6083  -17.3038   20.1343 H   0  0  0  0  0  0
  -27.5233  -19.5366   20.7417 H   0  0  0  0  0  0
  -27.8648  -19.9165   19.0558 H   0  0  0  0  0  0
  -31.2294  -18.8122   21.2183 H   0  0  0  0  0  0
  -29.7047  -18.6314   22.0652 H   0  0  0  0  0  0
  -30.5064  -17.3826   19.3869 H   0  0  0  0  0  0
  -25.2394  -21.9968   22.3750 H   0  0  0  0  0  0
  -24.4998  -23.1195   21.2332 H   0  0  0  0  0  0
  -25.0708  -23.6975   22.8023 H   0  0  0  0  0  0
  -29.7855  -21.2524   22.0041 H   0  0  0  0  0  0
  -30.6766  -21.7346   20.6158 H   0  0  0  0  0  0
  -28.9332  -15.6688   21.2168 H   0  0  0  0  0  0
  -30.0756  -19.9944   19.4941 H   0  0  0  0  0  0
  1 25  1  0  0  0
  1 30  2  0  0  0
  1 83  1  0  0  0
  2  3  1  0  0  0
  2 25  1  0  0  0
  2 85  1  0  0  0
  2 86  1  0  0  0
  3  4  1  0  0  0
  3 87  1  0  0  0
  3 88  1  0  0  0
  4  5  1  0  0  0
  4 89  1  0  0  0
  4 90  1  0  0  0
  5  6  1  0  0  0
  5 26  1  0  0  0
  5 91  1  0  0  0
  6 25  1  0  0  0
  6 92  1  0  0  0
  6 93  1  0  0  0
  7  8  2  0  0  0
  7 26  1  0  0  0
  7 29  1  0  0  0
  8  9  1  0  0  0
  8 22  1  0  0  0
  9 10  1  0  0  0
  9 27  2  0  0  0
 10 11  2  0  0  0
 10 15  1  0  0  0
 11 12  1  0  0  0
 11 94  1  0  0  0
 12 13  2  0  0  0
 12 95  1  0  0  0
 13 14  1  0  0  0
 13 31  1  0  0  0
 14 15  2  0  0  0
 14 96  1  0  0  0
 15 97  1  0  0  0
 16 17  2  0  0  0
 16 21  1  0  0  0
 16 31  1  0  0  0
 17 18  1  0  0  0
 17 98  1  0  0  0
 18 19  2  0  0  0
 18 99  1  0  0  0
 19 20  1  0  0  0
 19 24  1  0  0  0
 20 21  2  0  0  0
 20100  1  0  0  0
 21 23  1  0  0  0
 22 28  1  0  0  0
 22 32  2  0  0  0
 26 27  1  0  0  0
 28101  1  0  0  0
 28102  1  0  0  0
 29103  1  0  0  0
 29104  1  0  0  0
 33 34  1  0  0  0
 33 66  1  0  0  0
 33 70  2  0  0  0
 34 36  1  0  0  0
 34 59  1  0  0  0
 34105  1  0  0  0
 35 44  2  0  0  0
 35 45  1  0  0  0
 35 68  1  0  0  0
 36 56  1  0  0  0
 36106  1  0  0  0
 37 39  1  0  0  0
 37 47  1  0  0  0
 37 66  1  0  0  0
 37107  1  0  0  0
 38 43  2  0  0  0
 38 46  1  0  0  0
 38 47  1  0  0  0
 39 64  1  0  0  0
 39 67  2  0  0  0
 40 52  1  0  0  0
 40 53  2  0  0  0
 40 58  1  0  0  0
 41108  1  0  0  0
 41109  1  0  0  0
 41110  1  0  0  0
 41 48  1  0  0  0
 42 43  1  0  0  0
 42 66  1  0  0  0
 42111  1  0  0  0
 42112  1  0  0  0
 43 44  1  0  0  0
 44113  1  0  0  0
 45 46  2  0  0  0
 45114  1  0  0  0
 46115  1  0  0  0
 47116  1  0  0  0
 47117  1  0  0  0
 48 56  1  0  0  0
 48 65  1  0  0  0
 48118  1  0  0  0
 49 50  1  0  0  0
 49 53  1  0  0  0
 49 64  1  0  0  0
 49119  1  0  0  0
 50 51  1  0  0  0
 50120  1  0  0  0
 50121  1  0  0  0
 51 52  1  0  0  0
 51122  1  0  0  0
 51123  1  0  0  0
 52124  1  0  0  0
 52125  1  0  0  0
 53 54  1  0  0  0
 54 55  2  0  0  0
 54126  1  0  0  0
 55 57  1  0  0  0
 55127  1  0  0  0
 56 69  2  0  0  0
 57 58  2  0  0  0
 57128  1  0  0  0
 58129  1  0  0  0
 59 60  1  0  0  0
 59 61  1  0  0  0
 59 62  1  0  0  0
 60130  1  0  0  0
 60131  1  0  0  0
 60132  1  0  0  0
 61133  1  0  0  0
 61134  1  0  0  0
 61135  1  0  0  0
 62136  1  0  0  0
 62137  1  0  0  0
 62138  1  0  0  0
 63 65  1  0  0  0
 63139  1  0  0  0
 63140  1  0  0  0
 63141  1  0  0  0
 64142  1  0  0  0
 65143  1  0  0  0
 68 73  1  0  0  0
 71 78  1  0  0  0
 71 80  2  0  0  0
 71 81  1  0  0  0
 72 79  1  0  0  0
 72 80  1  0  0  0
 72 82  2  0  0  0
 73 81  2  0  0  0
 73 82  1  0  0  0
 74 75  1  0  0  0
 74 77  1  0  0  0
 74144  1  0  0  0
 74145  1  0  0  0
 75 84  1  0  0  0
 75146  1  0  0  0
 75147  1  0  0  0
 76 77  1  0  0  0
 76 84  1  0  0  0
 76148  1  0  0  0
 76149  1  0  0  0
 77 83  1  0  0  0
 77150  1  0  0  0
 78151  1  0  0  0
 78152  1  0  0  0
 78153  1  0  0  0
 79154  1  0  0  0
 79155  1  0  0  0
 79 84  1  0  0  0
 83156  1  0  0  0
 84157  1  0  0  0
M  CHG  1  84   1
M  ISO  4   1 100  68 101  73 101  83 100
M  END
> <chiral flag>
0

> <version>
0

> <s_m_source_file>
/data/baiqing/PycharmProjects/Reinvent-master-3.2/result/LINK_invent/BTK/process_docking_weight1_custom_sum_contain_oxygen_bond_distance_aromatic_linkinvent_7_9_3/rearranged_h_0179.sdf

> <i_m_source_file_index>
29

> <r_mmod_Potential_Energy-OPLS-2005>
-529.183227539062

> <r_mmod_Stretch_Energy-OPLS-2005>
155.883193969727

> <r_mmod_Bend_Energy-OPLS-2005>
246.315368652344

> <r_mmod_Torsional_Energy-OPLS-2005>
277.078338623047

> <r_mmod_Improper_Torsional_Energy-OPLS-2005>
7.5583758354187

> <r_mmod_Van_der_Waal_Energy-OPLS-2005>
152.073440551758

> <r_mmod_Electrostatic_Energy-OPLS-2005>
-1006.68371582031

> <r_mmod_Solvation_Energy-OPLS-2005>
-484.644989013672

> <b_mmod_Minimization_Converged-OPLS-2005>
0

> <r_mmod_RMS_Derivative-OPLS-2005>
3.17763662338257

$$$$
29
                    3D
 Structure written by MMmdl.
149158  0  0  1  0            999 V2000
  -30.4350  -15.5096   20.3474 C   0  0  0  0  0  0
  -30.4036  -13.0042   19.5173 C   0  0  0  0  0  0
  -29.5246  -12.6229   18.3002 C   0  0  0  0  0  0
  -28.0966  -12.2949   18.7537 C   0  0  0  0  0  0
  -27.5894  -13.3070   19.8084 C   0  0  2  0  0  0
  -28.6157  -13.6330   20.9189 C   0  0  0  0  0  0
  -25.2307  -13.8313   20.5831 C   0  0  0  0  0  0
  -24.1691  -13.0445   20.9279 C   0  0  0  0  0  0
  -24.6396  -11.6957   20.8768 C   0  0  0  0  0  0
  -23.9109  -10.4297   21.0396 C   0  0  0  0  0  0
  -24.3649   -9.4211   21.9177 C   0  0  0  0  0  0
  -23.6314   -8.2249   22.0751 C   0  0  0  0  0  0
  -22.4295   -8.0286   21.3542 C   0  0  0  0  0  0
  -21.9939   -9.0260   20.4640 C   0  0  0  0  0  0
  -22.7278  -10.2135   20.3047 C   0  0  0  0  0  0
  -21.6860   -6.0743   22.5279 C   0  0  0  0  0  0
  -21.4021   -6.5645   23.8212 C   0  0  0  0  0  0
  -21.3659   -5.6796   24.9172 C   0  0  0  0  0  0
  -21.6043   -4.3059   24.7223 C   0  0  0  0  0  0
  -21.8818   -3.8152   23.4343 C   0  0  0  0  0  0
  -21.9195   -4.6970   22.3400 C   0  0  0  0  0  0
  -22.7703  -13.5166   21.1915 C   0  0  0  0  0  0
  -22.1662   -4.2155   21.0978 F   0  0  0  0  0  0
  -21.5624   -3.4541   25.7734 F   0  0  0  0  0  0
  -29.7962  -14.2098   20.2400 N   0  0  0  0  0  0
  -26.2749  -12.9643   20.3276 N   0  0  0  0  0  0
  -25.9342  -11.6710   20.5733 N   0  0  0  0  0  0
  -22.0380  -12.8135   22.0472 N   0  0  0  0  0  0
  -25.3889  -15.2066   20.4359 N   0  0  0  0  0  0
  -31.6619  -15.3185   20.2502 O   0  0  0  0  0  0
  -21.6651   -6.8889   21.4242 O   0  0  0  0  0  0
  -22.3369  -14.5463   20.6757 O   0  0  0  0  0  0
  -24.6780  -31.8074   23.1574 C   0  0  0  0  0  0
  -25.9392  -32.4505   23.8094 C   0  0  1  0  0  0
  -27.2133  -26.7665   20.2045 C   0  0  0  0  0  0
  -25.5998  -33.8325   24.1989 N   0  0  0  0  0  0
  -23.5000  -30.4135   21.5103 C   0  0  2  0  0  0
  -24.9543  -28.7693   20.1154 C   0  0  0  0  0  0
  -22.7738  -29.4359   22.4730 C   0  0  0  0  0  0
  -18.0335  -28.1421   22.8460 C   0  0  0  0  0  0
  -24.1493  -36.7168   23.2650 C   0  0  0  0  0  0
  -26.0780  -30.5614   21.4118 C   0  0  0  0  0  0
  -26.1430  -29.1338   20.7594 C   0  0  0  0  0  0
  -27.2623  -28.1583   20.7732 C   0  0  0  0  0  0
  -25.9943  -26.5969   19.5044 C   0  0  0  0  0  0
  -24.9152  -27.5253   19.4646 C   0  0  0  0  0  0
  -23.7492  -29.7180   20.1422 C   0  0  0  0  0  0
  -25.4141  -36.2916   24.0287 C   0  0  1  0  0  0
  -20.5968  -28.3777   23.1156 C   0  0  2  0  0  0
  -20.6805  -26.9442   22.5402 C   0  0  0  0  0  0
  -19.5778  -26.6377   21.5216 C   0  0  0  0  0  0
  -18.1962  -26.7951   22.1623 C   0  0  0  0  0  0
  -19.1600  -28.8922   23.2792 C   0  0  0  0  0  0
  -18.9505  -30.1507   23.8833 C   0  0  0  0  0  0
  -17.6496  -30.6604   24.0553 C   0  0  0  0  0  0
  -25.9118  -34.9305   23.4969 C   0  0  0  0  0  0
  -16.5386  -29.9087   23.6351 C   0  0  0  0  0  0
  -16.7315  -28.6510   23.0366 C   0  0  0  0  0  0
  -26.4589  -31.6511   25.0689 C   0  0  0  0  0  0
  -25.3670  -31.3814   26.1315 C   0  0  0  0  0  0
  -27.0511  -30.2857   24.6544 C   0  0  0  0  0  0
  -27.6047  -32.4358   25.7507 C   0  0  0  0  0  0
  -27.5564  -37.1743   24.8467 C   0  0  0  0  0  0
  -21.4391  -29.3038   22.3484 N   0  0  0  0  0  0
  -26.4272  -37.3672   23.9408 N   0  0  0  0  0  0
  -24.7750  -30.9586   22.0792 N   0  0  0  0  0  0
  -23.4215  -28.7946   23.3040 O   0  0  0  0  0  0
  -28.1706  -25.5678   20.2771 O   0  0  0  0  0  0
  -26.5745  -34.8871   22.4578 O   0  0  0  0  0  0
  -23.5816  -32.1117   23.6572 O   0  0  0  0  0  0
  -28.1617  -20.7943   20.2331 C   0  0  0  0  0  0
  -28.9644  -19.4661   20.2980 C   0  0  0  0  0  0
  -30.3085  -19.6277   20.3908 C   0  0  0  0  0  0
  -28.6928  -22.2532   20.2689 C   0  0  0  0  0  0
  -30.8171  -20.9824   20.4225 C   0  0  0  0  0  0
  -28.7643  -17.8223   20.2834 C   0  0  0  0  0  0
  -30.9675  -18.1622   20.4328 C   0  0  0  0  0  0
  -32.3121  -21.1997   20.5263 C   0  0  0  0  0  0
  -27.8415  -23.8786   20.1520 C   0  0  0  0  0  0
  -30.0713  -22.1751   20.3675 N   0  0  0  0  0  0
  -29.9594  -16.9838   20.3671 N   0  0  0  0  0  0
  -27.6292  -17.3426   20.1928 O   0  0  0  0  0  0
  -31.4089  -13.2129   19.1499 H   0  0  0  0  0  0
  -30.5224  -12.1546   20.1920 H   0  0  0  0  0  0
  -29.9552  -11.7756   17.7647 H   0  0  0  0  0  0
  -29.5024  -13.4555   17.5956 H   0  0  0  0  0  0
  -28.1095  -11.2939   19.1865 H   0  0  0  0  0  0
  -27.4203  -12.2524   17.8990 H   0  0  0  0  0  0
  -27.4522  -14.2315   19.2451 H   0  0  0  0  0  0
  -28.8575  -12.7559   21.5213 H   0  0  0  0  0  0
  -28.2029  -14.3757   21.6036 H   0  0  0  0  0  0
  -25.2787   -9.5689   22.4763 H   0  0  0  0  0  0
  -24.0015   -7.4644   22.7478 H   0  0  0  0  0  0
  -21.0867   -8.8787   19.8949 H   0  0  0  0  0  0
  -22.3731  -10.9676   19.6161 H   0  0  0  0  0  0
  -21.2020   -7.6154   23.9718 H   0  0  0  0  0  0
  -21.1480   -6.0526   25.9075 H   0  0  0  0  0  0
  -22.0597   -2.7614   23.2841 H   0  0  0  0  0  0
  -22.4034  -11.9812   22.4858 H   0  0  0  0  0  0
  -21.0985  -13.1119   22.2682 H   0  0  0  0  0  0
  -24.6192  -15.8502   20.5820 H   0  0  0  0  0  0
  -26.2549  -15.6856   20.2042 H   0  0  0  0  0  0
  -26.7469  -32.4993   23.0805 H   0  0  0  0  0  0
  -25.0077  -33.9374   25.0095 H   0  0  0  0  0  0
  -22.8217  -31.2496   21.3274 H   0  0  0  0  0  0
  -23.3772  -35.9481   23.3271 H   0  0  0  0  0  0
  -24.3564  -36.8866   22.2073 H   0  0  0  0  0  0
  -23.7236  -37.6333   23.6745 H   0  0  0  0  0  0
  -26.2753  -31.2915   20.6257 H   0  0  0  0  0  0
  -26.9314  -30.6250   22.0746 H   0  0  0  0  0  0
  -28.1580  -28.4395   21.3090 H   0  0  0  0  0  0
  -25.8331  -25.6534   19.0033 H   0  0  0  0  0  0
  -24.0166  -27.2391   18.9356 H   0  0  0  0  0  0
  -23.9200  -30.4814   19.3823 H   0  0  0  0  0  0
  -22.8544  -29.1831   19.8189 H   0  0  0  0  0  0
  -25.1348  -36.1688   25.0777 H   0  0  0  0  0  0
  -21.0054  -28.3396   24.1281 H   0  0  0  0  0  0
  -20.5675  -26.2399   23.3658 H   0  0  0  0  0  0
  -21.6666  -26.7396   22.1215 H   0  0  0  0  0  0
  -19.6933  -25.6271   21.1288 H   0  0  0  0  0  0
  -19.6719  -27.3151   20.6716 H   0  0  0  0  0  0
  -17.4231  -26.6694   21.4026 H   0  0  0  0  0  0
  -18.0352  -26.0110   22.9035 H   0  0  0  0  0  0
  -19.7979  -30.7344   24.2172 H   0  0  0  0  0  0
  -17.5045  -31.6277   24.5169 H   0  0  0  0  0  0
  -15.5383  -30.2968   23.7712 H   0  0  0  0  0  0
  -15.8717  -28.0807   22.7117 H   0  0  0  0  0  0
  -24.5878  -30.7136   25.7624 H   0  0  0  0  0  0
  -24.8832  -32.3031   26.4556 H   0  0  0  0  0  0
  -25.7864  -30.9104   27.0214 H   0  0  0  0  0  0
  -26.3215  -29.6490   24.1530 H   0  0  0  0  0  0
  -27.3956  -29.7281   25.5264 H   0  0  0  0  0  0
  -27.9191  -30.3998   24.0048 H   0  0  0  0  0  0
  -27.2591  -33.3722   26.1900 H   0  0  0  0  0  0
  -28.3956  -32.6818   25.0409 H   0  0  0  0  0  0
  -28.0606  -31.8609   26.5577 H   0  0  0  0  0  0
  -28.2557  -38.0062   24.7512 H   0  0  0  0  0  0
  -28.1085  -36.2585   24.6297 H   0  0  0  0  0  0
  -27.2280  -37.1386   25.8869 H   0  0  0  0  0  0
  -20.9679  -29.8705   21.6570 H   0  0  0  0  0  0
  -26.0105  -38.2722   24.1418 H   0  0  0  0  0  0
  -27.0891  -20.6856   20.1472 H   0  0  0  0  0  0
  -31.5584  -18.0690   21.3453 H   0  0  0  0  0  0
  -31.6667  -18.0716   19.5999 H   0  0  0  0  0  0
  -32.8650  -20.2863   20.3085 H   0  0  0  0  0  0
  -32.5774  -21.5247   21.5323 H   0  0  0  0  0  0
  -32.6418  -21.9630   19.8210 H   0  0  0  0  0  0
  -27.0132  -23.7517   20.8490 H   0  0  0  0  0  0
  -27.3663  -23.8072   19.1739 H   0  0  0  0  0  0
  1 25  1  0  0  0
  1 30  2  0  0  0
  1 81  1  0  0  0
  2  3  1  0  0  0
  2 25  1  0  0  0
  2 83  1  0  0  0
  2 84  1  0  0  0
  3  4  1  0  0  0
  3 85  1  0  0  0
  3 86  1  0  0  0
  4  5  1  0  0  0
  4 87  1  0  0  0
  4 88  1  0  0  0
  5  6  1  0  0  0
  5 26  1  0  0  0
  5 89  1  0  0  0
  6 25  1  0  0  0
  6 90  1  0  0  0
  6 91  1  0  0  0
  7  8  2  0  0  0
  7 26  1  0  0  0
  7 29  1  0  0  0
  8  9  1  0  0  0
  8 22  1  0  0  0
  9 10  1  0  0  0
  9 27  2  0  0  0
 10 11  2  0  0  0
 10 15  1  0  0  0
 11 12  1  0  0  0
 11 92  1  0  0  0
 12 13  2  0  0  0
 12 93  1  0  0  0
 13 14  1  0  0  0
 13 31  1  0  0  0
 14 15  2  0  0  0
 14 94  1  0  0  0
 15 95  1  0  0  0
 16 17  2  0  0  0
 16 21  1  0  0  0
 16 31  1  0  0  0
 17 18  1  0  0  0
 17 96  1  0  0  0
 18 19  2  0  0  0
 18 97  1  0  0  0
 19 20  1  0  0  0
 19 24  1  0  0  0
 20 21  2  0  0  0
 20 98  1  0  0  0
 21 23  1  0  0  0
 22 28  1  0  0  0
 22 32  2  0  0  0
 26 27  1  0  0  0
 28 99  1  0  0  0
 28100  1  0  0  0
 29101  1  0  0  0
 29102  1  0  0  0
 33 34  1  0  0  0
 33 66  1  0  0  0
 33 70  2  0  0  0
 34 36  1  0  0  0
 34 59  1  0  0  0
 34103  1  0  0  0
 35 44  2  0  0  0
 35 45  1  0  0  0
 35 68  1  0  0  0
 36 56  1  0  0  0
 36104  1  0  0  0
 37 39  1  0  0  0
 37 47  1  0  0  0
 37 66  1  0  0  0
 37105  1  0  0  0
 38 43  2  0  0  0
 38 46  1  0  0  0
 38 47  1  0  0  0
 39 64  1  0  0  0
 39 67  2  0  0  0
 40 52  1  0  0  0
 40 53  2  0  0  0
 40 58  1  0  0  0
 41106  1  0  0  0
 41107  1  0  0  0
 41108  1  0  0  0
 41 48  1  0  0  0
 42 43  1  0  0  0
 42 66  1  0  0  0
 42109  1  0  0  0
 42110  1  0  0  0
 43 44  1  0  0  0
 44111  1  0  0  0
 45 46  2  0  0  0
 45112  1  0  0  0
 46113  1  0  0  0
 47114  1  0  0  0
 47115  1  0  0  0
 48 56  1  0  0  0
 48 65  1  0  0  0
 48116  1  0  0  0
 49 50  1  0  0  0
 49 53  1  0  0  0
 49 64  1  0  0  0
 49117  1  0  0  0
 50 51  1  0  0  0
 50118  1  0  0  0
 50119  1  0  0  0
 51 52  1  0  0  0
 51120  1  0  0  0
 51121  1  0  0  0
 52122  1  0  0  0
 52123  1  0  0  0
 53 54  1  0  0  0
 54 55  2  0  0  0
 54124  1  0  0  0
 55 57  1  0  0  0
 55125  1  0  0  0
 56 69  2  0  0  0
 57 58  2  0  0  0
 57126  1  0  0  0
 58127  1  0  0  0
 59 60  1  0  0  0
 59 61  1  0  0  0
 59 62  1  0  0  0
 60128  1  0  0  0
 60129  1  0  0  0
 60130  1  0  0  0
 61131  1  0  0  0
 61132  1  0  0  0
 61133  1  0  0  0
 62134  1  0  0  0
 62135  1  0  0  0
 62136  1  0  0  0
 63 65  1  0  0  0
 63137  1  0  0  0
 63138  1  0  0  0
 63139  1  0  0  0
 64140  1  0  0  0
 65141  1  0  0  0
 68 79  1  0  0  0
 71 72  2  0  0  0
 71 74  1  0  0  0
 71142  1  0  0  0
 72 73  1  0  0  0
 72 76  1  0  0  0
 73 75  2  0  0  0
 73 77  1  0  0  0
 74 79  1  0  0  0
 74 80  2  0  0  0
 75 78  1  0  0  0
 75 80  1  0  0  0
 76 81  1  0  0  0
 76 82  2  0  0  0
 77 81  1  0  0  0
 77143  1  0  0  0
 77144  1  0  0  0
 78145  1  0  0  0
 78146  1  0  0  0
 78147  1  0  0  0
 79148  1  0  0  0
 79149  1  0  0  0
M  ISO  4   1 100  68 101  79 101  81 100
M  END
> <chiral flag>
0

> <version>
0

> <s_m_source_file>
/data/baiqing/PycharmProjects/Reinvent-master-3.2/result/LINK_invent/BTK/process_docking_weight1_custom_sum_contain_oxygen_bond_distance_aromatic_linkinvent_7_9_3/rearranged_h_0179.sdf

> <i_m_source_file_index>
30

> <r_mmod_Potential_Energy-OPLS-2005>
1781.50927734375

> <r_mmod_Stretch_Energy-OPLS-2005>
762.74072265625

> <r_mmod_Bend_Energy-OPLS-2005>
633.736572265625

> <r_mmod_Torsional_Energy-OPLS-2005>
221.640686035156

> <r_mmod_Improper_Torsional_Energy-OPLS-2005>
4.36028480529785

> <r_mmod_Van_der_Waal_Energy-OPLS-2005>
121.765846252441

> <r_mmod_Electrostatic_Energy-OPLS-2005>
-490.472778320312

> <r_mmod_Solvation_Energy-OPLS-2005>
-212.409912109375

> <b_mmod_Minimization_Converged-OPLS-2005>
0

> <r_mmod_RMS_Derivative-OPLS-2005>
0.273768931627274

$$$$
30
                    3D
 Structure written by MMmdl.
152161  0  0  1  0            999 V2000
  -30.4338  -15.2571   20.4013 C   0  0  0  0  0  0
  -30.4374  -12.8068   19.5219 C   0  0  0  0  0  0
  -29.5333  -12.5795   18.2837 C   0  0  0  0  0  0
  -28.0790  -12.3071   18.7080 C   0  0  0  0  0  0
  -27.6120  -13.2728   19.8251 C   0  0  2  0  0  0
  -28.6454  -13.4214   20.9592 C   0  0  0  0  0  0
  -25.2402  -13.8251   20.5783 C   0  0  0  0  0  0
  -24.1734  -13.0444   20.9245 C   0  0  0  0  0  0
  -24.6384  -11.6936   20.8743 C   0  0  0  0  0  0
  -23.9081  -10.4297   21.0398 C   0  0  0  0  0  0
  -24.3625   -9.4213   21.9178 C   0  0  0  0  0  0
  -23.6303   -8.2245   22.0747 C   0  0  0  0  0  0
  -22.4286   -8.0276   21.3541 C   0  0  0  0  0  0
  -21.9926   -9.0251   20.4644 C   0  0  0  0  0  0
  -22.7252  -10.2133   20.3052 C   0  0  0  0  0  0
  -21.6851   -6.0737   22.5283 C   0  0  0  0  0  0
  -21.4017   -6.5639   23.8219 C   0  0  0  0  0  0
  -21.3656   -5.6789   24.9180 C   0  0  0  0  0  0
  -21.6042   -4.3050   24.7234 C   0  0  0  0  0  0
  -21.8813   -3.8145   23.4353 C   0  0  0  0  0  0
  -21.9185   -4.6963   22.3411 C   0  0  0  0  0  0
  -22.7749  -13.5193   21.1893 C   0  0  0  0  0  0
  -22.1657   -4.2150   21.0988 F   0  0  0  0  0  0
  -21.5633   -3.4531   25.7743 F   0  0  0  0  0  0
  -29.8736  -13.9467   20.3380 N   0  0  0  0  0  0
  -26.2812  -12.9514   20.3223 N   0  0  0  0  0  0
  -25.9316  -11.6619   20.5698 N   0  0  0  0  0  0
  -22.0409  -12.8177   22.0448 N   0  0  0  0  0  0
  -25.4104  -15.1991   20.4316 N   0  0  0  0  0  0
  -31.6430  -15.2640   20.1226 O   0  0  0  0  0  0
  -21.6645   -6.8874   21.4239 O   0  0  0  0  0  0
  -22.3420  -14.5496   20.6733 O   0  0  0  0  0  0
  -24.6614  -31.8232   23.1695 C   0  0  0  0  0  0
  -25.9306  -32.4577   23.8158 C   0  0  1  0  0  0
  -27.2196  -26.9254   20.1929 C   0  0  0  0  0  0
  -25.5980  -33.8395   24.2069 N   0  0  0  0  0  0
  -23.4756  -30.4325   21.5188 C   0  0  2  0  0  0
  -24.9259  -28.8106   20.1167 C   0  0  0  0  0  0
  -22.7653  -29.4433   22.4788 C   0  0  0  0  0  0
  -18.0319  -28.1405   22.8466 C   0  0  0  0  0  0
  -24.1497  -36.7204   23.2650 C   0  0  0  0  0  0
  -26.0418  -30.6284   21.3994 C   0  0  0  0  0  0
  -26.1059  -29.2148   20.7511 C   0  0  0  0  0  0
  -27.2429  -28.2925   20.7636 C   0  0  0  0  0  0
  -26.0111  -26.6695   19.5067 C   0  0  0  0  0  0
  -24.9020  -27.5581   19.4774 C   0  0  0  0  0  0
  -23.7151  -29.7424   20.1462 C   0  0  0  0  0  0
  -25.4138  -36.2964   24.0300 C   0  0  1  0  0  0
  -20.5942  -28.3748   23.1194 C   0  0  2  0  0  0
  -20.6794  -26.9429   22.5406 C   0  0  0  0  0  0
  -19.5768  -26.6374   21.5214 C   0  0  0  0  0  0
  -18.1952  -26.7940   22.1619 C   0  0  0  0  0  0
  -19.1581  -28.8896   23.2818 C   0  0  0  0  0  0
  -18.9491  -30.1488   23.8850 C   0  0  0  0  0  0
  -17.6482  -30.6596   24.0553 C   0  0  0  0  0  0
  -25.9103  -34.9346   23.5007 C   0  0  0  0  0  0
  -16.5376  -29.9085   23.6340 C   0  0  0  0  0  0
  -16.7302  -28.6503   23.0358 C   0  0  0  0  0  0
  -26.4563  -31.6529   25.0692 C   0  0  0  0  0  0
  -25.3697  -31.3778   26.1356 C   0  0  0  0  0  0
  -27.0462  -30.2897   24.6425 C   0  0  0  0  0  0
  -27.6053  -32.4341   25.7493 C   0  0  0  0  0  0
  -27.5574  -37.1763   24.8466 C   0  0  0  0  0  0
  -21.4325  -29.3041   22.3544 N   0  0  0  0  0  0
  -26.4283  -37.3701   23.9408 N   0  0  0  0  0  0
  -24.7477  -30.9895   22.0829 N   0  0  0  0  0  0
  -23.4207  -28.8011   23.3031 O   0  0  0  0  0  0
  -28.2997  -25.8993   20.2235 O   0  0  0  0  0  0
  -26.5707  -34.8883   22.4601 O   0  0  0  0  0  0
  -23.5690  -32.1203   23.6799 O   0  0  0  0  0  0
  -27.5238  -22.0938   20.0513 C   0  0  0  0  0  0
  -28.7398  -21.2971   20.2411 C   0  0  0  0  0  0
  -29.7395  -22.3305   20.4468 C   0  0  0  0  0  0
  -28.3449  -24.3934   20.2531 C   0  0  0  0  0  0
  -29.9979  -17.9682   22.0600 C   0  0  0  0  0  0
  -29.0652  -16.7597   21.8782 C   0  0  0  0  0  0
  -29.9039  -18.1978   20.5649 C   0  0  2  0  0  0
  -31.1752  -21.9163   20.6863 C   0  0  0  0  0  0
  -28.8158  -19.5407   20.0945 C   0  0  0  0  0  0
  -27.3294  -23.5071   20.0531 N   0  0  0  0  0  0
  -29.5403  -23.7407   20.4462 N   0  0  0  0  0  0
  -29.6693  -16.5339   20.5571 N   0  0  0  0  0  0
  -31.4552  -13.0125   19.1886 H   0  0  0  0  0  0
  -30.5099  -11.8977   20.1213 H   0  0  0  0  0  0
  -29.9111  -11.7514   17.6829 H   0  0  0  0  0  0
  -29.5666  -13.4627   17.6444 H   0  0  0  0  0  0
  -28.0270  -11.2794   19.0685 H   0  0  0  0  0  0
  -27.4120  -12.3633   17.8469 H   0  0  0  0  0  0
  -27.5343  -14.2472   19.3406 H   0  0  0  0  0  0
  -28.8171  -12.4730   21.4702 H   0  0  0  0  0  0
  -28.2731  -14.1136   21.7132 H   0  0  0  0  0  0
  -25.2764   -9.5686   22.4754 H   0  0  0  0  0  0
  -24.0006   -7.4633   22.7471 H   0  0  0  0  0  0
  -21.0858   -8.8772   19.8949 H   0  0  0  0  0  0
  -22.3710  -10.9670   19.6159 H   0  0  0  0  0  0
  -21.2014   -7.6148   23.9722 H   0  0  0  0  0  0
  -21.1487   -6.0525   25.9085 H   0  0  0  0  0  0
  -22.0595   -2.7606   23.2858 H   0  0  0  0  0  0
  -22.4046  -11.9855   22.4849 H   0  0  0  0  0  0
  -21.1017  -13.1175   22.2645 H   0  0  0  0  0  0
  -24.6518  -15.8582   20.5676 H   0  0  0  0  0  0
  -26.2773  -15.6412   20.1524 H   0  0  0  0  0  0
  -26.7376  -32.5114   23.0874 H   0  0  0  0  0  0
  -25.0094  -33.9469   25.0198 H   0  0  0  0  0  0
  -22.7892  -31.2641   21.3458 H   0  0  0  0  0  0
  -23.3769  -35.9523   23.3279 H   0  0  0  0  0  0
  -24.3574  -36.8882   22.2069 H   0  0  0  0  0  0
  -23.7243  -37.6380   23.6724 H   0  0  0  0  0  0
  -26.2216  -31.3669   20.6173 H   0  0  0  0  0  0
  -26.9029  -30.6864   22.0530 H   0  0  0  0  0  0
  -28.1437  -28.6070   21.2716 H   0  0  0  0  0  0
  -25.8990  -25.7154   19.0101 H   0  0  0  0  0  0
  -24.0050  -27.2446   18.9612 H   0  0  0  0  0  0
  -23.8758  -30.5086   19.3865 H   0  0  0  0  0  0
  -22.8236  -29.1998   19.8269 H   0  0  0  0  0  0
  -25.1337  -36.1759   25.0789 H   0  0  0  0  0  0
  -21.0025  -28.3354   24.1319 H   0  0  0  0  0  0
  -20.5674  -26.2364   23.3644 H   0  0  0  0  0  0
  -21.6660  -26.7407   22.1214 H   0  0  0  0  0  0
  -19.6929  -25.6273   21.1274 H   0  0  0  0  0  0
  -19.6708  -27.3155   20.6721 H   0  0  0  0  0  0
  -17.4222  -26.6685   21.4023 H   0  0  0  0  0  0
  -18.0342  -26.0094   22.9023 H   0  0  0  0  0  0
  -19.7967  -30.7319   24.2197 H   0  0  0  0  0  0
  -17.5036  -31.6270   24.5168 H   0  0  0  0  0  0
  -15.5375  -30.2968   23.7691 H   0  0  0  0  0  0
  -15.8704  -28.0807   22.7094 H   0  0  0  0  0  0
  -24.5879  -30.7129   25.7671 H   0  0  0  0  0  0
  -24.8890  -32.2979   26.4684 H   0  0  0  0  0  0
  -25.7937  -30.9007   27.0199 H   0  0  0  0  0  0
  -26.3129  -29.6562   24.1423 H   0  0  0  0  0  0
  -27.3988  -29.7270   25.5081 H   0  0  0  0  0  0
  -27.9070  -30.4079   23.9840 H   0  0  0  0  0  0
  -27.2618  -33.3679   26.1951 H   0  0  0  0  0  0
  -28.3923  -32.6842   25.0367 H   0  0  0  0  0  0
  -28.0655  -31.8550   26.5507 H   0  0  0  0  0  0
  -28.2570  -38.0079   24.7515 H   0  0  0  0  0  0
  -28.1089  -36.2603   24.6290 H   0  0  0  0  0  0
  -27.2288  -37.1402   25.8869 H   0  0  0  0  0  0
  -20.9580  -29.8725   21.6667 H   0  0  0  0  0  0
  -26.0128  -38.2759   24.1410 H   0  0  0  0  0  0
  -26.6125  -21.5487   19.8549 H   0  0  0  0  0  0
  -31.0014  -17.6959   22.3947 H   0  0  0  0  0  0
  -29.5815  -18.7695   22.6722 H   0  0  0  0  0  0
  -28.0046  -17.0178   21.8399 H   0  0  0  0  0  0
  -29.2471  -15.9873   22.6276 H   0  0  0  0  0  0
  -30.9012  -18.4143   20.1807 H   0  0  0  0  0  0
  -31.3496  -20.8878   20.3745 H   0  0  0  0  0  0
  -31.4148  -21.9941   21.7463 H   0  0  0  0  0  0
  -31.8633  -22.5543   20.1315 H   0  0  0  0  0  0
  -28.6798  -19.4144   19.0200 H   0  0  0  0  0  0
  -27.8426  -19.2539   20.4931 H   0  0  0  0  0  0
  1 25  1  0  0  0
  1 30  2  0  0  0
  1 82  1  0  0  0
  2  3  1  0  0  0
  2 25  1  0  0  0
  2 83  1  0  0  0
  2 84  1  0  0  0
  3  4  1  0  0  0
  3 85  1  0  0  0
  3 86  1  0  0  0
  4  5  1  0  0  0
  4 87  1  0  0  0
  4 88  1  0  0  0
  5  6  1  0  0  0
  5 26  1  0  0  0
  5 89  1  0  0  0
  6 25  1  0  0  0
  6 90  1  0  0  0
  6 91  1  0  0  0
  7  8  2  0  0  0
  7 26  1  0  0  0
  7 29  1  0  0  0
  8  9  1  0  0  0
  8 22  1  0  0  0
  9 10  1  0  0  0
  9 27  2  0  0  0
 10 11  2  0  0  0
 10 15  1  0  0  0
 11 12  1  0  0  0
 11 92  1  0  0  0
 12 13  2  0  0  0
 12 93  1  0  0  0
 13 14  1  0  0  0
 13 31  1  0  0  0
 14 15  2  0  0  0
 14 94  1  0  0  0
 15 95  1  0  0  0
 16 17  2  0  0  0
 16 21  1  0  0  0
 16 31  1  0  0  0
 17 18  1  0  0  0
 17 96  1  0  0  0
 18 19  2  0  0  0
 18 97  1  0  0  0
 19 20  1  0  0  0
 19 24  1  0  0  0
 20 21  2  0  0  0
 20 98  1  0  0  0
 21 23  1  0  0  0
 22 28  1  0  0  0
 22 32  2  0  0  0
 26 27  1  0  0  0
 28 99  1  0  0  0
 28100  1  0  0  0
 29101  1  0  0  0
 29102  1  0  0  0
 33 34  1  0  0  0
 33 66  1  0  0  0
 33 70  2  0  0  0
 34 36  1  0  0  0
 34 59  1  0  0  0
 34103  1  0  0  0
 35 44  2  0  0  0
 35 45  1  0  0  0
 35 68  1  0  0  0
 36 56  1  0  0  0
 36104  1  0  0  0
 37 39  1  0  0  0
 37 47  1  0  0  0
 37 66  1  0  0  0
 37105  1  0  0  0
 38 43  2  0  0  0
 38 46  1  0  0  0
 38 47  1  0  0  0
 39 64  1  0  0  0
 39 67  2  0  0  0
 40 52  1  0  0  0
 40 53  2  0  0  0
 40 58  1  0  0  0
 41106  1  0  0  0
 41107  1  0  0  0
 41108  1  0  0  0
 41 48  1  0  0  0
 42 43  1  0  0  0
 42 66  1  0  0  0
 42109  1  0  0  0
 42110  1  0  0  0
 43 44  1  0  0  0
 44111  1  0  0  0
 45 46  2  0  0  0
 45112  1  0  0  0
 46113  1  0  0  0
 47114  1  0  0  0
 47115  1  0  0  0
 48 56  1  0  0  0
 48 65  1  0  0  0
 48116  1  0  0  0
 49 50  1  0  0  0
 49 53  1  0  0  0
 49 64  1  0  0  0
 49117  1  0  0  0
 50 51  1  0  0  0
 50118  1  0  0  0
 50119  1  0  0  0
 51 52  1  0  0  0
 51120  1  0  0  0
 51121  1  0  0  0
 52122  1  0  0  0
 52123  1  0  0  0
 53 54  1  0  0  0
 54 55  2  0  0  0
 54124  1  0  0  0
 55 57  1  0  0  0
 55125  1  0  0  0
 56 69  2  0  0  0
 57 58  2  0  0  0
 57126  1  0  0  0
 58127  1  0  0  0
 59 60  1  0  0  0
 59 61  1  0  0  0
 59 62  1  0  0  0
 60128  1  0  0  0
 60129  1  0  0  0
 60130  1  0  0  0
 61131  1  0  0  0
 61132  1  0  0  0
 61133  1  0  0  0
 62134  1  0  0  0
 62135  1  0  0  0
 62136  1  0  0  0
 63 65  1  0  0  0
 63137  1  0  0  0
 63138  1  0  0  0
 63139  1  0  0  0
 64140  1  0  0  0
 65141  1  0  0  0
 68 74  1  0  0  0
 71 72  2  0  0  0
 71 80  1  0  0  0
 71142  1  0  0  0
 72 73  1  0  0  0
 72 79  1  0  0  0
 73 78  1  0  0  0
 73 81  2  0  0  0
 74 80  2  0  0  0
 74 81  1  0  0  0
 75 76  1  0  0  0
 75 77  1  0  0  0
 75143  1  0  0  0
 75144  1  0  0  0
 76 82  1  0  0  0
 76145  1  0  0  0
 76146  1  0  0  0
 77 79  1  0  0  0
 77 82  1  0  0  0
 77147  1  0  0  0
 78148  1  0  0  0
 78149  1  0  0  0
 78150  1  0  0  0
 79151  1  0  0  0
 79152  1  0  0  0
M  ISO  4   1 100  68 101  74 101  82 100
M  END
> <chiral flag>
0

> <version>
0

> <s_m_source_file>
/data/baiqing/PycharmProjects/Reinvent-master-3.2/result/LINK_invent/BTK/process_docking_weight1_custom_sum_contain_oxygen_bond_distance_aromatic_linkinvent_7_9_3/rearranged_h_0179.sdf

> <i_m_source_file_index>
31

> <r_mmod_Potential_Energy-OPLS-2005>
908.292663574219

> <r_mmod_Stretch_Energy-OPLS-2005>
516.441284179688

> <r_mmod_Bend_Energy-OPLS-2005>
484.989868164062

> <r_mmod_Torsional_Energy-OPLS-2005>
263.259582519531

> <r_mmod_Improper_Torsional_Energy-OPLS-2005>
11.4058380126953

> <r_mmod_Van_der_Waal_Energy-OPLS-2005>
129.837142944336

> <r_mmod_Electrostatic_Energy-OPLS-2005>
-708.588500976562

> <r_mmod_Solvation_Energy-OPLS-2005>
-223.120208740234

> <b_mmod_Minimization_Converged-OPLS-2005>
0

> <r_mmod_RMS_Derivative-OPLS-2005>
0.956197738647461

$$$$
31
                    3D
 Structure written by MMmdl.
152161  0  0  1  0            999 V2000
  -30.5556  -14.9604   20.4031 C   0  0  0  0  0  0
  -30.4340  -12.5894   19.5123 C   0  0  0  0  0  0
  -29.5250  -12.5336   18.2628 C   0  0  0  0  0  0
  -28.0556  -12.3234   18.6734 C   0  0  0  0  0  0
  -27.6288  -13.2559   19.8384 C   0  0  2  0  0  0
  -28.6688  -13.2963   20.9792 C   0  0  0  0  0  0
  -25.2445  -13.8235   20.5703 C   0  0  0  0  0  0
  -24.1771  -13.0447   20.9220 C   0  0  0  0  0  0
  -24.6405  -11.6936   20.8754 C   0  0  0  0  0  0
  -23.9097  -10.4304   21.0406 C   0  0  0  0  0  0
  -24.3643   -9.4215   21.9182 C   0  0  0  0  0  0
  -23.6310   -8.2251   22.0758 C   0  0  0  0  0  0
  -22.4289   -8.0292   21.3544 C   0  0  0  0  0  0
  -21.9928   -9.0272   20.4656 C   0  0  0  0  0  0
  -22.7263  -10.2145   20.3059 C   0  0  0  0  0  0
  -21.6862   -6.0743   22.5281 C   0  0  0  0  0  0
  -21.4017   -6.5642   23.8215 C   0  0  0  0  0  0
  -21.3659   -5.6792   24.9175 C   0  0  0  0  0  0
  -21.6046   -4.3055   24.7221 C   0  0  0  0  0  0
  -21.8816   -3.8149   23.4342 C   0  0  0  0  0  0
  -21.9190   -4.6968   22.3400 C   0  0  0  0  0  0
  -22.7786  -13.5213   21.1872 C   0  0  0  0  0  0
  -22.1658   -4.2155   21.0978 F   0  0  0  0  0  0
  -21.5633   -3.4541   25.7733 F   0  0  0  0  0  0
  -29.9479  -13.7020   20.3830 N   0  0  0  0  0  0
  -26.2884  -12.9483   20.3242 N   0  0  0  0  0  0
  -25.9344  -11.6604   20.5735 N   0  0  0  0  0  0
  -22.0435  -12.8214   22.0438 N   0  0  0  0  0  0
  -25.4083  -15.1968   20.4137 N   0  0  0  0  0  0
  -31.7647  -14.9701   20.1363 O   0  0  0  0  0  0
  -21.6644   -6.8891   21.4244 O   0  0  0  0  0  0
  -22.3468  -14.5513   20.6705 O   0  0  0  0  0  0
  -24.6447  -31.8425   23.1873 C   0  0  0  0  0  0
  -25.9213  -32.4683   23.8274 C   0  0  1  0  0  0
  -27.2144  -27.1192   20.1539 C   0  0  0  0  0  0
  -25.5955  -33.8493   24.2186 N   0  0  0  0  0  0
  -23.4497  -30.4618   21.5317 C   0  0  2  0  0  0
  -24.8998  -28.8869   20.1081 C   0  0  0  0  0  0
  -22.7574  -29.4541   22.4840 C   0  0  0  0  0  0
  -18.0304  -28.1392   22.8474 C   0  0  0  0  0  0
  -24.1491  -36.7246   23.2643 C   0  0  0  0  0  0
  -26.0075  -30.7084   21.3927 C   0  0  0  0  0  0
  -26.0766  -29.3193   20.7326 C   0  0  0  0  0  0
  -27.2336  -28.4508   20.7406 C   0  0  0  0  0  0
  -26.0158  -26.7975   19.4793 C   0  0  0  0  0  0
  -24.8837  -27.6403   19.4651 C   0  0  0  0  0  0
  -23.6781  -29.7917   20.1507 C   0  0  0  0  0  0
  -25.4124  -36.3027   24.0314 C   0  0  1  0  0  0
  -20.5918  -28.3725   23.1221 C   0  0  2  0  0  0
  -20.6788  -26.9423   22.5402 C   0  0  0  0  0  0
  -19.5765  -26.6375   21.5209 C   0  0  0  0  0  0
  -18.1945  -26.7929   22.1617 C   0  0  0  0  0  0
  -19.1561  -28.8876   23.2839 C   0  0  0  0  0  0
  -18.9480  -30.1467   23.8873 C   0  0  0  0  0  0
  -17.6478  -30.6591   24.0555 C   0  0  0  0  0  0
  -25.9078  -34.9401   23.5061 C   0  0  0  0  0  0
  -16.5367  -29.9084   23.6332 C   0  0  0  0  0  0
  -16.7290  -28.6497   23.0363 C   0  0  0  0  0  0
  -26.4533  -31.6564   25.0728 C   0  0  0  0  0  0
  -25.3707  -31.3764   26.1416 C   0  0  0  0  0  0
  -27.0408  -30.2952   24.6345 C   0  0  0  0  0  0
  -27.6056  -32.4341   25.7512 C   0  0  0  0  0  0
  -27.5577  -37.1779   24.8463 C   0  0  0  0  0  0
  -21.4267  -29.3047   22.3591 N   0  0  0  0  0  0
  -26.4286  -37.3743   23.9410 N   0  0  0  0  0  0
  -24.7200  -31.0268   22.0916 N   0  0  0  0  0  0
  -23.4212  -28.8092   23.2998 O   0  0  0  0  0  0
  -28.2557  -26.1194   20.2469 O   0  0  0  0  0  0
  -26.5670  -34.8902   22.4645 O   0  0  0  0  0  0
  -23.5557  -32.1317   23.7074 O   0  0  0  0  0  0
  -31.0309  -17.8526   19.1863 C   0  0  0  0  0  0
  -31.2435  -19.1231   18.6455 C   0  0  0  0  0  0
  -30.0332  -17.6434   20.1480 C   0  0  0  0  0  0
  -29.6162  -20.1256   19.9659 C   0  0  0  0  0  0
  -29.8620  -22.6452   19.8596 C   0  0  0  0  0  0
  -28.7800  -21.5758   20.1728 C   0  0  1  0  0  0
  -28.8098  -23.2599   20.6074 C   0  0  1  0  0  0
  -29.0337  -23.5692   22.0786 C   0  0  0  0  0  0
  -28.0025  -24.5942   19.9937 C   0  0  0  0  0  0
  -30.5326  -20.2025   19.0037 N   0  0  0  0  0  0
  -29.3379  -18.8495   20.5091 N   0  0  0  0  0  0
  -29.8071  -16.1736   20.5643 N   0  0  0  0  0  0
  -31.4730  -12.7238   19.2059 H   0  0  0  0  0  0
  -30.4085  -11.6412   20.0522 H   0  0  0  0  0  0
  -29.8488  -11.7343   17.5944 H   0  0  0  0  0  0
  -29.6193  -13.4624   17.6984 H   0  0  0  0  0  0
  -27.9455  -11.2815   18.9755 H   0  0  0  0  0  0
  -27.3983  -12.4617   17.8144 H   0  0  0  0  0  0
  -27.5890  -14.2572   19.4079 H   0  0  0  0  0  0
  -28.7542  -12.3261   21.4712 H   0  0  0  0  0  0
  -28.3662  -14.0070   21.7494 H   0  0  0  0  0  0
  -25.2792   -9.5690   22.4751 H   0  0  0  0  0  0
  -24.0023   -7.4645   22.7478 H   0  0  0  0  0  0
  -21.0853   -8.8798   19.8972 H   0  0  0  0  0  0
  -22.3724  -10.9684   19.6170 H   0  0  0  0  0  0
  -21.2011   -7.6152   23.9721 H   0  0  0  0  0  0
  -21.1484   -6.0522   25.9079 H   0  0  0  0  0  0
  -22.0594   -2.7613   23.2835 H   0  0  0  0  0  0
  -22.4056  -11.9899   22.4861 H   0  0  0  0  0  0
  -21.1047  -13.1241   22.2631 H   0  0  0  0  0  0
  -24.6343  -15.8426   20.5261 H   0  0  0  0  0  0
  -26.2480  -15.6439   20.0692 H   0  0  0  0  0  0
  -26.7280  -32.5280   23.1003 H   0  0  0  0  0  0
  -25.0072  -33.9611   25.0313 H   0  0  0  0  0  0
  -22.7530  -31.2879   21.3760 H   0  0  0  0  0  0
  -23.3761  -35.9569   23.3291 H   0  0  0  0  0  0
  -24.3577  -36.8895   22.2062 H   0  0  0  0  0  0
  -23.7236  -37.6433   23.6691 H   0  0  0  0  0  0
  -26.1733  -31.4623   20.6219 H   0  0  0  0  0  0
  -26.8739  -30.7534   22.0412 H   0  0  0  0  0  0
  -28.1258  -28.7727   21.2594 H   0  0  0  0  0  0
  -25.9181  -25.8480   18.9744 H   0  0  0  0  0  0
  -23.9877  -27.3065   18.9600 H   0  0  0  0  0  0
  -23.8182  -30.5667   19.3959 H   0  0  0  0  0  0
  -22.7923  -29.2357   19.8379 H   0  0  0  0  0  0
  -25.1312  -36.1857   25.0805 H   0  0  0  0  0  0
  -21.0010  -28.3320   24.1341 H   0  0  0  0  0  0
  -20.5666  -26.2344   23.3628 H   0  0  0  0  0  0
  -21.6657  -26.7420   22.1211 H   0  0  0  0  0  0
  -19.6930  -25.6276   21.1261 H   0  0  0  0  0  0
  -19.6702  -27.3162   20.6719 H   0  0  0  0  0  0
  -17.4214  -26.6667   21.4021 H   0  0  0  0  0  0
  -18.0347  -26.0077   22.9020 H   0  0  0  0  0  0
  -19.7959  -30.7280   24.2240 H   0  0  0  0  0  0
  -17.5036  -31.6269   24.5157 H   0  0  0  0  0  0
  -15.5367  -30.2984   23.7665 H   0  0  0  0  0  0
  -15.8688  -28.0804   22.7106 H   0  0  0  0  0  0
  -24.5879  -30.7127   25.7730 H   0  0  0  0  0  0
  -24.8904  -32.2949   26.4795 H   0  0  0  0  0  0
  -25.7973  -30.8959   27.0228 H   0  0  0  0  0  0
  -26.3043  -29.6662   24.1333 H   0  0  0  0  0  0
  -27.3981  -29.7272   25.4947 H   0  0  0  0  0  0
  -27.8969  -30.4179   23.9707 H   0  0  0  0  0  0
  -27.2641  -33.3655   26.2043 H   0  0  0  0  0  0
  -28.3886  -32.6886   25.0356 H   0  0  0  0  0  0
  -28.0708  -31.8505   26.5468 H   0  0  0  0  0  0
  -28.2579  -38.0091   24.7520 H   0  0  0  0  0  0
  -28.1087  -36.2619   24.6273 H   0  0  0  0  0  0
  -27.2296  -37.1405   25.8866 H   0  0  0  0  0  0
  -20.9479  -29.8765   21.6771 H   0  0  0  0  0  0
  -26.0150  -38.2808   24.1418 H   0  0  0  0  0  0
  -31.6371  -17.0425   18.8092 H   0  0  0  0  0  0
  -31.9918  -19.2739   17.8814 H   0  0  0  0  0  0
  -29.9573  -22.9211   18.8114 H   0  0  0  0  0  0
  -30.8212  -22.5464   20.3649 H   0  0  0  0  0  0
  -28.3332  -21.2587   21.1125 H   0  0  0  0  0  0
  -29.6061  -22.7782   22.5638 H   0  0  0  0  0  0
  -28.0773  -23.6678   22.5930 H   0  0  0  0  0  0
  -29.5820  -24.5058   22.1882 H   0  0  0  0  0  0
  -26.9738  -24.4254   20.3111 H   0  0  0  0  0  0
  -27.9791  -24.4724   18.9103 H   0  0  0  0  0  0
  -28.8842  -16.0084   20.9323 H   0  0  0  0  0  0
  1 25  1  0  0  0
  1 30  2  0  0  0
  1 82  1  0  0  0
  2  3  1  0  0  0
  2 25  1  0  0  0
  2 83  1  0  0  0
  2 84  1  0  0  0
  3  4  1  0  0  0
  3 85  1  0  0  0
  3 86  1  0  0  0
  4  5  1  0  0  0
  4 87  1  0  0  0
  4 88  1  0  0  0
  5  6  1  0  0  0
  5 26  1  0  0  0
  5 89  1  0  0  0
  6 25  1  0  0  0
  6 90  1  0  0  0
  6 91  1  0  0  0
  7  8  2  0  0  0
  7 26  1  0  0  0
  7 29  1  0  0  0
  8  9  1  0  0  0
  8 22  1  0  0  0
  9 10  1  0  0  0
  9 27  2  0  0  0
 10 11  2  0  0  0
 10 15  1  0  0  0
 11 12  1  0  0  0
 11 92  1  0  0  0
 12 13  2  0  0  0
 12 93  1  0  0  0
 13 14  1  0  0  0
 13 31  1  0  0  0
 14 15  2  0  0  0
 14 94  1  0  0  0
 15 95  1  0  0  0
 16 17  2  0  0  0
 16 21  1  0  0  0
 16 31  1  0  0  0
 17 18  1  0  0  0
 17 96  1  0  0  0
 18 19  2  0  0  0
 18 97  1  0  0  0
 19 20  1  0  0  0
 19 24  1  0  0  0
 20 21  2  0  0  0
 20 98  1  0  0  0
 21 23  1  0  0  0
 22 28  1  0  0  0
 22 32  2  0  0  0
 26 27  1  0  0  0
 28 99  1  0  0  0
 28100  1  0  0  0
 29101  1  0  0  0
 29102  1  0  0  0
 33 34  1  0  0  0
 33 66  1  0  0  0
 33 70  2  0  0  0
 34 36  1  0  0  0
 34 59  1  0  0  0
 34103  1  0  0  0
 35 44  2  0  0  0
 35 45  1  0  0  0
 35 68  1  0  0  0
 36 56  1  0  0  0
 36104  1  0  0  0
 37 39  1  0  0  0
 37 47  1  0  0  0
 37 66  1  0  0  0
 37105  1  0  0  0
 38 43  2  0  0  0
 38 46  1  0  0  0
 38 47  1  0  0  0
 39 64  1  0  0  0
 39 67  2  0  0  0
 40 52  1  0  0  0
 40 53  2  0  0  0
 40 58  1  0  0  0
 41106  1  0  0  0
 41107  1  0  0  0
 41108  1  0  0  0
 41 48  1  0  0  0
 42 43  1  0  0  0
 42 66  1  0  0  0
 42109  1  0  0  0
 42110  1  0  0  0
 43 44  1  0  0  0
 44111  1  0  0  0
 45 46  2  0  0  0
 45112  1  0  0  0
 46113  1  0  0  0
 47114  1  0  0  0
 47115  1  0  0  0
 48 56  1  0  0  0
 48 65  1  0  0  0
 48116  1  0  0  0
 49 50  1  0  0  0
 49 53  1  0  0  0
 49 64  1  0  0  0
 49117  1  0  0  0
 50 51  1  0  0  0
 50118  1  0  0  0
 50119  1  0  0  0
 51 52  1  0  0  0
 51120  1  0  0  0
 51121  1  0  0  0
 52122  1  0  0  0
 52123  1  0  0  0
 53 54  1  0  0  0
 54 55  2  0  0  0
 54124  1  0  0  0
 55 57  1  0  0  0
 55125  1  0  0  0
 56 69  2  0  0  0
 57 58  2  0  0  0
 57126  1  0  0  0
 58127  1  0  0  0
 59 60  1  0  0  0
 59 61  1  0  0  0
 59 62  1  0  0  0
 60128  1  0  0  0
 60129  1  0  0  0
 60130  1  0  0  0
 61131  1  0  0  0
 61132  1  0  0  0
 61133  1  0  0  0
 62134  1  0  0  0
 62135  1  0  0  0
 62136  1  0  0  0
 63 65  1  0  0  0
 63137  1  0  0  0
 63138  1  0  0  0
 63139  1  0  0  0
 64140  1  0  0  0
 65141  1  0  0  0
 68 79  1  0  0  0
 71 72  2  0  0  0
 71 73  1  0  0  0
 71142  1  0  0  0
 72 80  1  0  0  0
 72143  1  0  0  0
 73 81  2  0  0  0
 73 82  1  0  0  0
 74 80  2  0  0  0
 74 81  1  0  0  0
 74 76  1  0  0  0
 75 76  1  0  0  0
 75 77  1  0  0  0
 75144  1  0  0  0
 75145  1  0  0  0
 76 77  1  0  0  0
 76146  1  0  0  0
 77 78  1  0  0  0
 77 79  1  0  0  0
 78147  1  0  0  0
 78148  1  0  0  0
 78149  1  0  0  0
 79150  1  0  0  0
 79151  1  0  0  0
 82152  1  0  0  0
M  ISO  4   1 100  68 101  79 101  82 100
M  END
> <chiral flag>
0

> <version>
0

> <s_m_source_file>
/data/baiqing/PycharmProjects/Reinvent-master-3.2/result/LINK_invent/BTK/process_docking_weight1_custom_sum_contain_oxygen_bond_distance_aromatic_linkinvent_7_9_3/rearranged_h_0179.sdf

> <i_m_source_file_index>
32

> <r_mmod_Potential_Energy-OPLS-2005>
340.532165527344

> <r_mmod_Stretch_Energy-OPLS-2005>
329.398986816406

> <r_mmod_Bend_Energy-OPLS-2005>
381.038269042969

> <r_mmod_Torsional_Energy-OPLS-2005>
254.648620605469

> <r_mmod_Improper_Torsional_Energy-OPLS-2005>
4.80144214630127

> <r_mmod_Van_der_Waal_Energy-OPLS-2005>
152.932098388672

> <r_mmod_Electrostatic_Energy-OPLS-2005>
-757.906494140625

> <r_mmod_Solvation_Energy-OPLS-2005>
-228.025817871094

> <b_mmod_Minimization_Converged-OPLS-2005>
0

> <r_mmod_RMS_Derivative-OPLS-2005>
1.1240326166153

$$$$
32
                    3D
 Structure written by MMmdl.
163172  0  0  1  0            999 V2000
  -30.6127  -14.8983   20.4333 C   0  0  0  0  0  0
  -30.4183  -12.5594   19.4942 C   0  0  0  0  0  0
  -29.5058  -12.5161   18.2495 C   0  0  0  0  0  0
  -28.0395  -12.3194   18.6702 C   0  0  0  0  0  0
  -27.6252  -13.2531   19.8390 C   0  0  2  0  0  0
  -28.6705  -13.2936   20.9740 C   0  0  0  0  0  0
  -25.2453  -13.8235   20.5748 C   0  0  0  0  0  0
  -24.1763  -13.0454   20.9238 C   0  0  0  0  0  0
  -24.6382  -11.6933   20.8764 C   0  0  0  0  0  0
  -23.9072  -10.4297   21.0400 C   0  0  0  0  0  0
  -24.3621   -9.4214   21.9177 C   0  0  0  0  0  0
  -23.6302   -8.2244   22.0746 C   0  0  0  0  0  0
  -22.4285   -8.0281   21.3538 C   0  0  0  0  0  0
  -21.9920   -9.0253   20.4642 C   0  0  0  0  0  0
  -22.7245  -10.2134   20.3048 C   0  0  0  0  0  0
  -21.6858   -6.0735   22.5274 C   0  0  0  0  0  0
  -21.4017   -6.5641   23.8209 C   0  0  0  0  0  0
  -21.3662   -5.6788   24.9170 C   0  0  0  0  0  0
  -21.6047   -4.3054   24.7223 C   0  0  0  0  0  0
  -21.8817   -3.8145   23.4344 C   0  0  0  0  0  0
  -21.9200   -4.6962   22.3399 C   0  0  0  0  0  0
  -22.7785  -13.5221   21.1891 C   0  0  0  0  0  0
  -22.1666   -4.2139   21.0982 F   0  0  0  0  0  0
  -21.5633   -3.4543   25.7740 F   0  0  0  0  0  0
  -29.9438  -13.6791   20.3586 N   0  0  0  0  0  0
  -26.2872  -12.9470   20.3288 N   0  0  0  0  0  0
  -25.9320  -11.6596   20.5765 N   0  0  0  0  0  0
  -22.0448  -12.8188   22.0441 N   0  0  0  0  0  0
  -25.4170  -15.1957   20.4181 N   0  0  0  0  0  0
  -31.8204  -14.8696   20.1700 O   0  0  0  0  0  0
  -21.6644   -6.8880   21.4238 O   0  0  0  0  0  0
  -22.3461  -14.5527   20.6751 O   0  0  0  0  0  0
  -24.6426  -31.8472   23.1921 C   0  0  0  0  0  0
  -25.9215  -32.4706   23.8287 C   0  0  1  0  0  0
  -27.2019  -27.1507   20.1373 C   0  0  0  0  0  0
  -25.5974  -33.8510   24.2205 N   0  0  0  0  0  0
  -23.4431  -30.4711   21.5386 C   0  0  2  0  0  0
  -24.8882  -28.9071   20.1076 C   0  0  0  0  0  0
  -22.7563  -29.4572   22.4879 C   0  0  0  0  0  0
  -18.0308  -28.1391   22.8487 C   0  0  0  0  0  0
  -24.1495  -36.7250   23.2639 C   0  0  0  0  0  0
  -26.0000  -30.7247   21.3901 C   0  0  0  0  0  0
  -26.0679  -29.3401   20.7257 C   0  0  0  0  0  0
  -27.2275  -28.4773   20.7257 C   0  0  0  0  0  0
  -25.9954  -26.8252   19.4744 C   0  0  0  0  0  0
  -24.8643  -27.6624   19.4667 C   0  0  0  0  0  0
  -23.6662  -29.8079   20.1553 C   0  0  0  0  0  0
  -25.4126  -36.3033   24.0317 C   0  0  1  0  0  0
  -20.5920  -28.3717   23.1242 C   0  0  2  0  0  0
  -20.6793  -26.9427   22.5401 C   0  0  0  0  0  0
  -19.5758  -26.6384   21.5215 C   0  0  0  0  0  0
  -18.1942  -26.7933   22.1629 C   0  0  0  0  0  0
  -19.1567  -28.8874   23.2859 C   0  0  0  0  0  0
  -18.9475  -30.1469   23.8879 C   0  0  0  0  0  0
  -17.6472  -30.6590   24.0556 C   0  0  0  0  0  0
  -25.9078  -34.9410   23.5066 C   0  0  0  0  0  0
  -16.5361  -29.9080   23.6340 C   0  0  0  0  0  0
  -16.7294  -28.6497   23.0368 C   0  0  0  0  0  0
  -26.4536  -31.6561   25.0723 C   0  0  0  0  0  0
  -25.3725  -31.3744   26.1420 C   0  0  0  0  0  0
  -27.0394  -30.2953   24.6295 C   0  0  0  0  0  0
  -27.6075  -32.4322   25.7501 C   0  0  0  0  0  0
  -27.5578  -37.1780   24.8464 C   0  0  0  0  0  0
  -21.4259  -29.3048   22.3622 N   0  0  0  0  0  0
  -26.4283  -37.3746   23.9412 N   0  0  0  0  0  0
  -24.7149  -31.0343   22.0951 N   0  0  0  0  0  0
  -23.4221  -28.8125   23.3018 O   0  0  0  0  0  0
  -28.2353  -26.1492   20.2130 O   0  0  0  0  0  0
  -26.5653  -34.8907   22.4636 O   0  0  0  0  0  0
  -23.5549  -32.1349   23.7151 O   0  0  0  0  0  0
  -28.3916  -21.9130   20.2587 C   0  0  0  0  0  0
  -28.7998  -23.3317   20.2923 C   0  0  0  0  0  0
  -29.3617  -20.8263   20.4269 C   0  0  0  0  0  0
  -30.9370  -22.5164   20.6221 C   0  0  0  0  0  0
  -29.6410  -18.5918   19.2164 C   0  0  0  0  0  0
  -30.5042  -17.2546   19.4681 C   0  0  0  0  0  0
  -29.1312  -16.8755   21.3783 C   0  0  0  0  0  0
  -29.3623  -18.4762   21.5909 C   0  0  2  0  0  0
  -26.9262  -21.5770   20.0412 C   0  0  0  0  0  0
  -32.4033  -22.8507   20.7857 C   0  0  0  0  0  0
  -28.5145  -18.9652   22.7764 C   0  0  0  0  0  0
  -27.8525  -24.6516   20.0556 C   0  0  0  0  0  0
  -30.1136  -23.5595   20.4800 N   0  0  0  0  0  0
  -30.6340  -21.2131   20.6049 N   0  0  0  0  0  0
  -29.1492  -19.3561   20.3963 N   0  0  0  0  0  0
  -29.9467  -16.1586   20.3383 N   0  0  0  0  0  0
  -31.4566  -12.6794   19.1824 H   0  0  0  0  0  0
  -30.3820  -11.6122   20.0352 H   0  0  0  0  0  0
  -29.8147  -11.7129   17.5794 H   0  0  0  0  0  0
  -29.6047  -13.4454   17.6863 H   0  0  0  0  0  0
  -27.9242  -11.2785   18.9749 H   0  0  0  0  0  0
  -27.3742  -12.4608   17.8170 H   0  0  0  0  0  0
  -27.5869  -14.2552   19.4115 H   0  0  0  0  0  0
  -28.7498  -12.3294   21.4772 H   0  0  0  0  0  0
  -28.3792  -14.0189   21.7348 H   0  0  0  0  0  0
  -25.2758   -9.5703   22.4762 H   0  0  0  0  0  0
  -24.0022   -7.4646   22.7472 H   0  0  0  0  0  0
  -21.0847   -8.8772   19.8956 H   0  0  0  0  0  0
  -22.3696  -10.9677   19.6166 H   0  0  0  0  0  0
  -21.2004   -7.6147   23.9707 H   0  0  0  0  0  0
  -21.1493   -6.0520   25.9074 H   0  0  0  0  0  0
  -22.0598   -2.7610   23.2838 H   0  0  0  0  0  0
  -22.4085  -11.9836   22.4785 H   0  0  0  0  0  0
  -21.1079  -13.1210   22.2693 H   0  0  0  0  0  0
  -24.6561  -15.8551   20.5368 H   0  0  0  0  0  0
  -26.2736  -15.6318   20.1021 H   0  0  0  0  0  0
  -26.7286  -32.5315   23.1020 H   0  0  0  0  0  0
  -25.0116  -33.9627   25.0347 H   0  0  0  0  0  0
  -22.7443  -31.2973   21.3897 H   0  0  0  0  0  0
  -23.3769  -35.9571   23.3280 H   0  0  0  0  0  0
  -24.3594  -36.8907   22.2061 H   0  0  0  0  0  0
  -23.7242  -37.6438   23.6687 H   0  0  0  0  0  0
  -26.1588  -31.4841   20.6234 H   0  0  0  0  0  0
  -26.8696  -30.7680   22.0338 H   0  0  0  0  0  0
  -28.1235  -28.8001   21.2362 H   0  0  0  0  0  0
  -25.8752  -25.8823   18.9654 H   0  0  0  0  0  0
  -23.9640  -27.3282   18.9687 H   0  0  0  0  0  0
  -23.8013  -30.5853   19.4026 H   0  0  0  0  0  0
  -22.7802  -29.2521   19.8442 H   0  0  0  0  0  0
  -25.1317  -36.1853   25.0809 H   0  0  0  0  0  0
  -21.0009  -28.3299   24.1362 H   0  0  0  0  0  0
  -20.5694  -26.2334   23.3619 H   0  0  0  0  0  0
  -21.6659  -26.7443   22.1190 H   0  0  0  0  0  0
  -19.6918  -25.6289   21.1260 H   0  0  0  0  0  0
  -19.6688  -27.3184   20.6735 H   0  0  0  0  0  0
  -17.4214  -26.6692   21.4026 H   0  0  0  0  0  0
  -18.0336  -26.0076   22.9025 H   0  0  0  0  0  0
  -19.7952  -30.7299   24.2231 H   0  0  0  0  0  0
  -17.5024  -31.6270   24.5157 H   0  0  0  0  0  0
  -15.5358  -30.2970   23.7670 H   0  0  0  0  0  0
  -15.8701  -28.0802   22.7092 H   0  0  0  0  0  0
  -24.5911  -30.7087   25.7736 H   0  0  0  0  0  0
  -24.8900  -32.2919   26.4792 H   0  0  0  0  0  0
  -25.8012  -30.8950   27.0228 H   0  0  0  0  0  0
  -26.3000  -29.6683   24.1295 H   0  0  0  0  0  0
  -27.4002  -29.7252   25.4865 H   0  0  0  0  0  0
  -27.8923  -30.4189   23.9619 H   0  0  0  0  0  0
  -27.2675  -33.3640   26.2028 H   0  0  0  0  0  0
  -28.3904  -32.6851   25.0340 H   0  0  0  0  0  0
  -28.0722  -31.8480   26.5453 H   0  0  0  0  0  0
  -28.2575  -38.0094   24.7535 H   0  0  0  0  0  0
  -28.1097  -36.2629   24.6259 H   0  0  0  0  0  0
  -27.2308  -37.1393   25.8869 H   0  0  0  0  0  0
  -20.9468  -29.8755   21.6801 H   0  0  0  0  0  0
  -26.0151  -38.2815   24.1418 H   0  0  0  0  0  0
  -28.7658  -18.3311   18.6199 H   0  0  0  0  0  0
  -30.2275  -19.2657   18.5893 H   0  0  0  0  0  0
  -31.4752  -17.5428   19.8771 H   0  0  0  0  0  0
  -30.7276  -16.8167   18.4941 H   0  0  0  0  0  0
  -28.0820  -16.6964   21.1435 H   0  0  0  0  0  0
  -29.3048  -16.3724   22.3311 H   0  0  0  0  0  0
  -30.4060  -18.6138   21.8822 H   0  0  0  0  0  0
  -26.3187  -21.9875   20.8489 H   0  0  0  0  0  0
  -26.7575  -20.5002   20.0127 H   0  0  0  0  0  0
  -26.5736  -21.9954   19.0986 H   0  0  0  0  0  0
  -32.5422  -23.8751   21.1320 H   0  0  0  0  0  0
  -32.9200  -22.7414   19.8326 H   0  0  0  0  0  0
  -32.8759  -22.1859   21.5080 H   0  0  0  0  0  0
  -27.4475  -18.8730   22.5724 H   0  0  0  0  0  0
  -28.7193  -20.0079   23.0207 H   0  0  0  0  0  0
  -28.7282  -18.3826   23.6729 H   0  0  0  0  0  0
  -26.9690  -24.4903   20.6750 H   0  0  0  0  0  0
  -27.5228  -24.5302   19.0238 H   0  0  0  0  0  0
  1 25  1  0  0  0
  1 30  2  0  0  0
  1 86  1  0  0  0
  2  3  1  0  0  0
  2 25  1  0  0  0
  2 87  1  0  0  0
  2 88  1  0  0  0
  3  4  1  0  0  0
  3 89  1  0  0  0
  3 90  1  0  0  0
  4  5  1  0  0  0
  4 91  1  0  0  0
  4 92  1  0  0  0
  5  6  1  0  0  0
  5 26  1  0  0  0
  5 93  1  0  0  0
  6 25  1  0  0  0
  6 94  1  0  0  0
  6 95  1  0  0  0
  7  8  2  0  0  0
  7 26  1  0  0  0
  7 29  1  0  0  0
  8  9  1  0  0  0
  8 22  1  0  0  0
  9 10  1  0  0  0
  9 27  2  0  0  0
 10 11  2  0  0  0
 10 15  1  0  0  0
 11 12  1  0  0  0
 11 96  1  0  0  0
 12 13  2  0  0  0
 12 97  1  0  0  0
 13 14  1  0  0  0
 13 31  1  0  0  0
 14 15  2  0  0  0
 14 98  1  0  0  0
 15 99  1  0  0  0
 16 17  2  0  0  0
 16 21  1  0  0  0
 16 31  1  0  0  0
 17 18  1  0  0  0
 17100  1  0  0  0
 18 19  2  0  0  0
 18101  1  0  0  0
 19 20  1  0  0  0
 19 24  1  0  0  0
 20 21  2  0  0  0
 20102  1  0  0  0
 21 23  1  0  0  0
 22 28  1  0  0  0
 22 32  2  0  0  0
 26 27  1  0  0  0
 28103  1  0  0  0
 28104  1  0  0  0
 29105  1  0  0  0
 29106  1  0  0  0
 33 34  1  0  0  0
 33 66  1  0  0  0
 33 70  2  0  0  0
 34 36  1  0  0  0
 34 59  1  0  0  0
 34107  1  0  0  0
 35 44  2  0  0  0
 35 45  1  0  0  0
 35 68  1  0  0  0
 36 56  1  0  0  0
 36108  1  0  0  0
 37 39  1  0  0  0
 37 47  1  0  0  0
 37 66  1  0  0  0
 37109  1  0  0  0
 38 43  2  0  0  0
 38 46  1  0  0  0
 38 47  1  0  0  0
 39 64  1  0  0  0
 39 67  2  0  0  0
 40 52  1  0  0  0
 40 53  2  0  0  0
 40 58  1  0  0  0
 41110  1  0  0  0
 41111  1  0  0  0
 41112  1  0  0  0
 41 48  1  0  0  0
 42 43  1  0  0  0
 42 66  1  0  0  0
 42113  1  0  0  0
 42114  1  0  0  0
 43 44  1  0  0  0
 44115  1  0  0  0
 45 46  2  0  0  0
 45116  1  0  0  0
 46117  1  0  0  0
 47118  1  0  0  0
 47119  1  0  0  0
 48 56  1  0  0  0
 48 65  1  0  0  0
 48120  1  0  0  0
 49 50  1  0  0  0
 49 53  1  0  0  0
 49 64  1  0  0  0
 49121  1  0  0  0
 50 51  1  0  0  0
 50122  1  0  0  0
 50123  1  0  0  0
 51 52  1  0  0  0
 51124  1  0  0  0
 51125  1  0  0  0
 52126  1  0  0  0
 52127  1  0  0  0
 53 54  1  0  0  0
 54 55  2  0  0  0
 54128  1  0  0  0
 55 57  1  0  0  0
 55129  1  0  0  0
 56 69  2  0  0  0
 57 58  2  0  0  0
 57130  1  0  0  0
 58131  1  0  0  0
 59 60  1  0  0  0
 59 61  1  0  0  0
 59 62  1  0  0  0
 60132  1  0  0  0
 60133  1  0  0  0
 60134  1  0  0  0
 61135  1  0  0  0
 61136  1  0  0  0
 61137  1  0  0  0
 62138  1  0  0  0
 62139  1  0  0  0
 62140  1  0  0  0
 63 65  1  0  0  0
 63141  1  0  0  0
 63142  1  0  0  0
 63143  1  0  0  0
 64144  1  0  0  0
 65145  1  0  0  0
 68 82  1  0  0  0
 71 72  2  0  0  0
 71 73  1  0  0  0
 71 79  1  0  0  0
 72 82  1  0  0  0
 72 83  1  0  0  0
 73 84  2  0  0  0
 73 85  1  0  0  0
 74 80  1  0  0  0
 74 83  2  0  0  0
 74 84  1  0  0  0
 75 76  1  0  0  0
 75 85  1  0  0  0
 75146  1  0  0  0
 75147  1  0  0  0
 76 86  1  0  0  0
 76148  1  0  0  0
 76149  1  0  0  0
 77 78  1  0  0  0
 77 86  1  0  0  0
 77150  1  0  0  0
 77151  1  0  0  0
 78 81  1  0  0  0
 78 85  1  0  0  0
 78152  1  0  0  0
 79153  1  0  0  0
 79154  1  0  0  0
 79155  1  0  0  0
 80156  1  0  0  0
 80157  1  0  0  0
 80158  1  0  0  0
 81159  1  0  0  0
 81160  1  0  0  0
 81161  1  0  0  0
 82162  1  0  0  0
 82163  1  0  0  0
M  ISO  4   1 100  68 101  82 101  86 100
M  END
> <chiral flag>
0

> <version>
0

> <s_m_source_file>
/data/baiqing/PycharmProjects/Reinvent-master-3.2/result/LINK_invent/BTK/process_docking_weight1_custom_sum_contain_oxygen_bond_distance_aromatic_linkinvent_7_9_3/rearranged_h_0179.sdf

> <i_m_source_file_index>
33

> <r_mmod_Potential_Energy-OPLS-2005>
132.200744628906

> <r_mmod_Stretch_Energy-OPLS-2005>
201.65754699707

> <r_mmod_Bend_Energy-OPLS-2005>
241.836044311523

> <r_mmod_Torsional_Energy-OPLS-2005>
362.730438232422

> <r_mmod_Improper_Torsional_Energy-OPLS-2005>
20.113920211792

> <r_mmod_Van_der_Waal_Energy-OPLS-2005>
150.239730834961

> <r_mmod_Electrostatic_Energy-OPLS-2005>
-788.158081054688

> <r_mmod_Solvation_Energy-OPLS-2005>
-228.545547485352

> <b_mmod_Minimization_Converged-OPLS-2005>
0

> <r_mmod_RMS_Derivative-OPLS-2005>
1.41434228420258

$$$$
33
                    3D
 Structure written by MMmdl.
155164  0  0  1  0            999 V2000
  -30.4381  -15.2737   20.3322 C   0  0  0  0  0  0
  -30.4416  -12.8064   19.5253 C   0  0  0  0  0  0
  -29.5412  -12.5523   18.2896 C   0  0  0  0  0  0
  -28.0844  -12.2894   18.7136 C   0  0  0  0  0  0
  -27.6068  -13.2697   19.8132 C   0  0  2  0  0  0
  -28.6396  -13.4726   20.9361 C   0  0  0  0  0  0
  -25.2403  -13.8237   20.5769 C   0  0  0  0  0  0
  -24.1740  -13.0433   20.9248 C   0  0  0  0  0  0
  -24.6391  -11.6928   20.8757 C   0  0  0  0  0  0
  -23.9087  -10.4290   21.0404 C   0  0  0  0  0  0
  -24.3635   -9.4205   21.9184 C   0  0  0  0  0  0
  -23.6305   -8.2242   22.0753 C   0  0  0  0  0  0
  -22.4285   -8.0283   21.3544 C   0  0  0  0  0  0
  -21.9925   -9.0258   20.4643 C   0  0  0  0  0  0
  -22.7260  -10.2134   20.3051 C   0  0  0  0  0  0
  -21.6855   -6.0741   22.5280 C   0  0  0  0  0  0
  -21.4015   -6.5646   23.8215 C   0  0  0  0  0  0
  -21.3657   -5.6796   24.9175 C   0  0  0  0  0  0
  -21.6042   -4.3057   24.7222 C   0  0  0  0  0  0
  -21.8819   -3.8151   23.4344 C   0  0  0  0  0  0
  -21.9195   -4.6969   22.3403 C   0  0  0  0  0  0
  -22.7759  -13.5193   21.1903 C   0  0  0  0  0  0
  -22.1660   -4.2157   21.0978 F   0  0  0  0  0  0
  -21.5629   -3.4538   25.7735 F   0  0  0  0  0  0
  -29.8750  -13.9650   20.3069 N   0  0  0  0  0  0
  -26.2807  -12.9490   20.3208 N   0  0  0  0  0  0
  -25.9321  -11.6603   20.5714 N   0  0  0  0  0  0
  -22.0414  -12.8167   22.0450 N   0  0  0  0  0  0
  -25.4082  -15.1976   20.4291 N   0  0  0  0  0  0
  -31.6742  -15.2319   20.2501 O   0  0  0  0  0  0
  -21.6641   -6.8887   21.4243 O   0  0  0  0  0  0
  -22.3438  -14.5502   20.6758 O   0  0  0  0  0  0
  -24.6628  -31.8243   23.1703 C   0  0  0  0  0  0
  -25.9313  -32.4587   23.8164 C   0  0  1  0  0  0
  -27.2169  -26.9331   20.1892 C   0  0  0  0  0  0
  -25.5992  -33.8403   24.2076 N   0  0  0  0  0  0
  -23.4767  -30.4354   21.5207 C   0  0  2  0  0  0
  -24.9287  -28.8223   20.1156 C   0  0  0  0  0  0
  -22.7671  -29.4437   22.4791 C   0  0  0  0  0  0
  -18.0322  -28.1410   22.8468 C   0  0  0  0  0  0
  -24.1492  -36.7204   23.2648 C   0  0  0  0  0  0
  -26.0453  -30.6340   21.3980 C   0  0  0  0  0  0
  -26.1135  -29.2230   20.7464 C   0  0  0  0  0  0
  -27.2548  -28.3009   20.7548 C   0  0  0  0  0  0
  -26.0029  -26.6844   19.5106 C   0  0  0  0  0  0
  -24.8989  -27.5733   19.4768 C   0  0  0  0  0  0
  -23.7156  -29.7505   20.1473 C   0  0  0  0  0  0
  -25.4129  -36.2967   24.0306 C   0  0  1  0  0  0
  -20.5950  -28.3749   23.1194 C   0  0  2  0  0  0
  -20.6799  -26.9431   22.5404 C   0  0  0  0  0  0
  -19.5773  -26.6380   21.5216 C   0  0  0  0  0  0
  -18.1954  -26.7943   22.1622 C   0  0  0  0  0  0
  -19.1583  -28.8903   23.2813 C   0  0  0  0  0  0
  -18.9492  -30.1494   23.8845 C   0  0  0  0  0  0
  -17.6489  -30.6599   24.0557 C   0  0  0  0  0  0
  -25.9101  -34.9354   23.5009 C   0  0  0  0  0  0
  -16.5377  -29.9088   23.6344 C   0  0  0  0  0  0
  -16.7306  -28.6512   23.0357 C   0  0  0  0  0  0
  -26.4563  -31.6528   25.0687 C   0  0  0  0  0  0
  -25.3690  -31.3777   26.1340 C   0  0  0  0  0  0
  -27.0455  -30.2897   24.6410 C   0  0  0  0  0  0
  -27.6053  -32.4333   25.7492 C   0  0  0  0  0  0
  -27.5565  -37.1760   24.8469 C   0  0  0  0  0  0
  -21.4340  -29.3035   22.3541 N   0  0  0  0  0  0
  -26.4273  -37.3704   23.9415 N   0  0  0  0  0  0
  -24.7498  -30.9914   22.0835 N   0  0  0  0  0  0
  -23.4220  -28.8006   23.3030 O   0  0  0  0  0  0
  -28.2308  -25.8391   20.2128 O   0  0  0  0  0  0
  -26.5699  -34.8893   22.4596 O   0  0  0  0  0  0
  -23.5697  -32.1209   23.6802 O   0  0  0  0  0  0
  -29.6921  -16.8062   20.1556 C   0  0  0  0  0  0
  -28.8293  -17.2732   19.1624 C   0  0  0  0  0  0
  -29.1715  -19.2832   20.2199 C   0  0  0  0  0  0
  -27.6262  -21.5556   20.1713 C   0  0  0  0  0  0
  -28.9060  -20.9591   20.6683 C   0  0  2  0  0  0
  -28.6751  -22.6403   20.0378 C   0  0  2  0  0  0
  -28.2644  -16.4967   18.0132 C   0  0  0  0  0  0
  -30.0175  -18.0518   23.2578 C   0  0  0  0  0  0
  -27.9677  -24.2285   20.4595 C   0  0  0  0  0  0
  -30.7668  -18.3400   21.9506 C   0  0  0  0  0  0
  -28.5251  -18.6736   19.2166 N   0  0  0  0  0  0
  -29.9045  -18.1644   20.7970 N   0  0  0  0  0  0
  -31.4596  -13.0100   19.1903 H   0  0  0  0  0  0
  -30.5101  -11.9136   20.1485 H   0  0  0  0  0  0
  -29.9200  -11.7057   17.7154 H   0  0  0  0  0  0
  -29.5841  -13.4127   17.6219 H   0  0  0  0  0  0
  -28.0347  -11.2677   19.0920 H   0  0  0  0  0  0
  -27.4200  -12.3275   17.8494 H   0  0  0  0  0  0
  -27.5080  -14.2261   19.3079 H   0  0  0  0  0  0
  -28.8073  -12.5520   21.4967 H   0  0  0  0  0  0
  -28.2787  -14.2130   21.6518 H   0  0  0  0  0  0
  -25.2774   -9.5685   22.4767 H   0  0  0  0  0  0
  -24.0014   -7.4632   22.7469 H   0  0  0  0  0  0
  -21.0856   -8.8780   19.8947 H   0  0  0  0  0  0
  -22.3716  -10.9678   19.6164 H   0  0  0  0  0  0
  -21.2007   -7.6153   23.9721 H   0  0  0  0  0  0
  -21.1477   -6.0522   25.9079 H   0  0  0  0  0  0
  -22.0599   -2.7614   23.2837 H   0  0  0  0  0  0
  -22.4045  -11.9836   22.4837 H   0  0  0  0  0  0
  -21.1031  -13.1177   22.2670 H   0  0  0  0  0  0
  -24.6467  -15.8525   20.5695 H   0  0  0  0  0  0
  -26.2776  -15.6500   20.1794 H   0  0  0  0  0  0
  -26.7383  -32.5123   23.0881 H   0  0  0  0  0  0
  -25.0119  -33.9479   25.0215 H   0  0  0  0  0  0
  -22.7897  -31.2666   21.3493 H   0  0  0  0  0  0
  -23.3767  -35.9520   23.3280 H   0  0  0  0  0  0
  -24.3574  -36.8877   22.2069 H   0  0  0  0  0  0
  -23.7240  -37.6384   23.6714 H   0  0  0  0  0  0
  -26.2213  -31.3742   20.6164 H   0  0  0  0  0  0
  -26.9070  -30.6938   22.0511 H   0  0  0  0  0  0
  -28.1551  -28.6105   21.2662 H   0  0  0  0  0  0
  -25.8803  -25.7364   19.0072 H   0  0  0  0  0  0
  -24.0016  -27.2608   18.9603 H   0  0  0  0  0  0
  -23.8726  -30.5177   19.3886 H   0  0  0  0  0  0
  -22.8251  -29.2060   19.8279 H   0  0  0  0  0  0
  -25.1328  -36.1762   25.0800 H   0  0  0  0  0  0
  -21.0026  -28.3351   24.1321 H   0  0  0  0  0  0
  -20.5686  -26.2366   23.3644 H   0  0  0  0  0  0
  -21.6663  -26.7419   22.1203 H   0  0  0  0  0  0
  -19.6934  -25.6280   21.1270 H   0  0  0  0  0  0
  -19.6711  -27.3168   20.6733 H   0  0  0  0  0  0
  -17.4224  -26.6687   21.4023 H   0  0  0  0  0  0
  -18.0341  -26.0097   22.9032 H   0  0  0  0  0  0
  -19.7969  -30.7322   24.2181 H   0  0  0  0  0  0
  -17.5041  -31.6268   24.5174 H   0  0  0  0  0  0
  -15.5369  -30.2970   23.7702 H   0  0  0  0  0  0
  -15.8708  -28.0815   22.7092 H   0  0  0  0  0  0
  -24.5891  -30.7108   25.7649 H   0  0  0  0  0  0
  -24.8855  -32.2974   26.4640 H   0  0  0  0  0  0
  -25.7923  -30.9030   27.0202 H   0  0  0  0  0  0
  -26.3116  -29.6572   24.1400 H   0  0  0  0  0  0
  -27.3977  -29.7265   25.5062 H   0  0  0  0  0  0
  -27.9064  -30.4085   23.9827 H   0  0  0  0  0  0
  -27.2625  -33.3684   26.1936 H   0  0  0  0  0  0
  -28.3930  -32.6812   25.0364 H   0  0  0  0  0  0
  -28.0642  -31.8546   26.5518 H   0  0  0  0  0  0
  -28.2564  -38.0071   24.7509 H   0  0  0  0  0  0
  -28.1075  -36.2598   24.6296 H   0  0  0  0  0  0
  -27.2283  -37.1405   25.8871 H   0  0  0  0  0  0
  -20.9594  -29.8737   21.6681 H   0  0  0  0  0  0
  -26.0120  -38.2764   24.1419 H   0  0  0  0  0  0
  -26.8573  -21.6910   20.9294 H   0  0  0  0  0  0
  -27.2295  -21.1743   19.2320 H   0  0  0  0  0  0
  -29.0763  -20.9781   21.7428 H   0  0  0  0  0  0
  -29.1518  -22.7311   19.0638 H   0  0  0  0  0  0
  -28.7994  -15.5626   17.8518 H   0  0  0  0  0  0
  -28.3345  -17.0614   17.0829 H   0  0  0  0  0  0
  -27.2118  -16.2622   18.1693 H   0  0  0  0  0  0
  -30.6638  -18.2157   24.1202 H   0  0  0  0  0  0
  -29.6692  -17.0190   23.2974 H   0  0  0  0  0  0
  -29.1492  -18.7029   23.3666 H   0  0  0  0  0  0
  -27.8836  -24.1824   21.5452 H   0  0  0  0  0  0
  -26.9352  -24.1185   20.1331 H   0  0  0  0  0  0
  -31.6293  -17.6808   21.8512 H   0  0  0  0  0  0
  -31.1531  -19.3603   21.9522 H   0  0  0  0  0  0
  1 25  1  0  0  0
  1 30  2  0  0  0
  1 71  1  0  0  0
  2  3  1  0  0  0
  2 25  1  0  0  0
  2 83  1  0  0  0
  2 84  1  0  0  0
  3  4  1  0  0  0
  3 85  1  0  0  0
  3 86  1  0  0  0
  4  5  1  0  0  0
  4 87  1  0  0  0
  4 88  1  0  0  0
  5  6  1  0  0  0
  5 26  1  0  0  0
  5 89  1  0  0  0
  6 25  1  0  0  0
  6 90  1  0  0  0
  6 91  1  0  0  0
  7  8  2  0  0  0
  7 26  1  0  0  0
  7 29  1  0  0  0
  8  9  1  0  0  0
  8 22  1  0  0  0
  9 10  1  0  0  0
  9 27  2  0  0  0
 10 11  2  0  0  0
 10 15  1  0  0  0
 11 12  1  0  0  0
 11 92  1  0  0  0
 12 13  2  0  0  0
 12 93  1  0  0  0
 13 14  1  0  0  0
 13 31  1  0  0  0
 14 15  2  0  0  0
 14 94  1  0  0  0
 15 95  1  0  0  0
 16 17  2  0  0  0
 16 21  1  0  0  0
 16 31  1  0  0  0
 17 18  1  0  0  0
 17 96  1  0  0  0
 18 19  2  0  0  0
 18 97  1  0  0  0
 19 20  1  0  0  0
 19 24  1  0  0  0
 20 21  2  0  0  0
 20 98  1  0  0  0
 21 23  1  0  0  0
 22 28  1  0  0  0
 22 32  2  0  0  0
 26 27  1  0  0  0
 28 99  1  0  0  0
 28100  1  0  0  0
 29101  1  0  0  0
 29102  1  0  0  0
 33 34  1  0  0  0
 33 66  1  0  0  0
 33 70  2  0  0  0
 34 36  1  0  0  0
 34 59  1  0  0  0
 34103  1  0  0  0
 35 44  2  0  0  0
 35 45  1  0  0  0
 35 68  1  0  0  0
 36 56  1  0  0  0
 36104  1  0  0  0
 37 39  1  0  0  0
 37 47  1  0  0  0
 37 66  1  0  0  0
 37105  1  0  0  0
 38 43  2  0  0  0
 38 46  1  0  0  0
 38 47  1  0  0  0
 39 64  1  0  0  0
 39 67  2  0  0  0
 40 52  1  0  0  0
 40 53  2  0  0  0
 40 58  1  0  0  0
 41106  1  0  0  0
 41107  1  0  0  0
 41108  1  0  0  0
 41 48  1  0  0  0
 42 43  1  0  0  0
 42 66  1  0  0  0
 42109  1  0  0  0
 42110  1  0  0  0
 43 44  1  0  0  0
 44111  1  0  0  0
 45 46  2  0  0  0
 45112  1  0  0  0
 46113  1  0  0  0
 47114  1  0  0  0
 47115  1  0  0  0
 48 56  1  0  0  0
 48 65  1  0  0  0
 48116  1  0  0  0
 49 50  1  0  0  0
 49 53  1  0  0  0
 49 64  1  0  0  0
 49117  1  0  0  0
 50 51  1  0  0  0
 50118  1  0  0  0
 50119  1  0  0  0
 51 52  1  0  0  0
 51120  1  0  0  0
 51121  1  0  0  0
 52122  1  0  0  0
 52123  1  0  0  0
 53 54  1  0  0  0
 54 55  2  0  0  0
 54124  1  0  0  0
 55 57  1  0  0  0
 55125  1  0  0  0
 56 69  2  0  0  0
 57 58  2  0  0  0
 57126  1  0  0  0
 58127  1  0  0  0
 59 60  1  0  0  0
 59 61  1  0  0  0
 59 62  1  0  0  0
 60128  1  0  0  0
 60129  1  0  0  0
 60130  1  0  0  0
 61131  1  0  0  0
 61132  1  0  0  0
 61133  1  0  0  0
 62134  1  0  0  0
 62135  1  0  0  0
 62136  1  0  0  0
 63 65  1  0  0  0
 63137  1  0  0  0
 63138  1  0  0  0
 63139  1  0  0  0
 64140  1  0  0  0
 65141  1  0  0  0
 68 79  1  0  0  0
 71 72  2  0  0  0
 71 82  1  0  0  0
 72 77  1  0  0  0
 72 81  1  0  0  0
 73 81  2  0  0  0
 73 82  1  0  0  0
 73 75  1  0  0  0
 74 75  1  0  0  0
 74 76  1  0  0  0
 74142  1  0  0  0
 74143  1  0  0  0
 75 76  1  0  0  0
 75144  1  0  0  0
 76 79  1  0  0  0
 76145  1  0  0  0
 77146  1  0  0  0
 77147  1  0  0  0
 77148  1  0  0  0
 78 80  1  0  0  0
 78149  1  0  0  0
 78150  1  0  0  0
 78151  1  0  0  0
 79152  1  0  0  0
 79153  1  0  0  0
 80 82  1  0  0  0
 80154  1  0  0  0
 80155  1  0  0  0
M  ISO  4   1 100  68 101  71 100  79 101
M  END
> <chiral flag>
0

> <version>
0

> <s_m_source_file>
/data/baiqing/PycharmProjects/Reinvent-master-3.2/result/LINK_invent/BTK/process_docking_weight1_custom_sum_contain_oxygen_bond_distance_aromatic_linkinvent_7_9_3/rearranged_h_0179.sdf

> <i_m_source_file_index>
34

> <r_mmod_Potential_Energy-OPLS-2005>
1375.76794433594

> <r_mmod_Stretch_Energy-OPLS-2005>
610.16455078125

> <r_mmod_Bend_Energy-OPLS-2005>
449.449615478516

> <r_mmod_Torsional_Energy-OPLS-2005>
272.663940429688

> <r_mmod_Improper_Torsional_Energy-OPLS-2005>
8.2558069229126

> <r_mmod_Van_der_Waal_Energy-OPLS-2005>
95.3626708984375

> <r_mmod_Electrostatic_Energy-OPLS-2005>
-318.504516601562

> <r_mmod_Solvation_Energy-OPLS-2005>
-199.253768920898

> <b_mmod_Minimization_Converged-OPLS-2005>
0

> <r_mmod_RMS_Derivative-OPLS-2005>
1.02680432796478

$$$$
34
                    3D
 Structure written by MMmdl.
153162  0  0  1  0            999 V2000
  -30.6520  -14.6924   20.4793 C   0  0  0  0  0  0
  -30.4296  -12.4236   19.4871 C   0  0  0  0  0  0
  -29.5176  -12.5231   18.2441 C   0  0  0  0  0  0
  -28.0402  -12.3530   18.6467 C   0  0  0  0  0  0
  -27.6503  -13.2362   19.8644 C   0  0  2  0  0  0
  -28.6939  -13.1465   21.0017 C   0  0  0  0  0  0
  -25.2525  -13.8213   20.5697 C   0  0  0  0  0  0
  -24.1810  -13.0456   20.9193 C   0  0  0  0  0  0
  -24.6401  -11.6925   20.8723 C   0  0  0  0  0  0
  -23.9060  -10.4299   21.0370 C   0  0  0  0  0  0
  -24.3625   -9.4221   21.9156 C   0  0  0  0  0  0
  -23.6310   -8.2253   22.0737 C   0  0  0  0  0  0
  -22.4285   -8.0284   21.3525 C   0  0  0  0  0  0
  -21.9904   -9.0250   20.4634 C   0  0  0  0  0  0
  -22.7220  -10.2141   20.3030 C   0  0  0  0  0  0
  -21.6864   -6.0714   22.5257 C   0  0  0  0  0  0
  -21.4024   -6.5616   23.8191 C   0  0  0  0  0  0
  -21.3684   -5.6774   24.9159 C   0  0  0  0  0  0
  -21.6043   -4.3031   24.7202 C   0  0  0  0  0  0
  -21.8839   -3.8113   23.4328 C   0  0  0  0  0  0
  -21.9207   -4.6937   22.3381 C   0  0  0  0  0  0
  -22.7819  -13.5234   21.1840 C   0  0  0  0  0  0
  -22.1669   -4.2128   21.0957 F   0  0  0  0  0  0
  -21.5653   -3.4515   25.7712 F   0  0  0  0  0  0
  -30.0046  -13.4810   20.4319 N   0  0  0  0  0  0
  -26.2983  -12.9423   20.3341 N   0  0  0  0  0  0
  -25.9348  -11.6547   20.5731 N   0  0  0  0  0  0
  -22.0479  -12.8238   22.0417 N   0  0  0  0  0  0
  -25.4183  -15.1938   20.4096 N   0  0  0  0  0  0
  -31.8241  -14.7787   20.1093 O   0  0  0  0  0  0
  -21.6669   -6.8863   21.4222 O   0  0  0  0  0  0
  -22.3487  -14.5533   20.6674 O   0  0  0  0  0  0
  -24.6298  -31.8536   23.2002 C   0  0  0  0  0  0
  -25.9126  -32.4751   23.8328 C   0  0  1  0  0  0
  -27.2292  -27.2722   20.1319 C   0  0  0  0  0  0
  -25.5928  -33.8545   24.2265 N   0  0  0  0  0  0
  -23.4292  -30.4750   21.5427 C   0  0  2  0  0  0
  -24.8805  -28.9264   20.1087 C   0  0  0  0  0  0
  -22.7498  -29.4590   22.4931 C   0  0  0  0  0  0
  -18.0295  -28.1383   22.8500 C   0  0  0  0  0  0
  -24.1488  -36.7282   23.2645 C   0  0  0  0  0  0
  -25.9738  -30.7704   21.3824 C   0  0  0  0  0  0
  -26.0500  -29.3937   20.7240 C   0  0  0  0  0  0
  -27.2247  -28.5764   20.7292 C   0  0  0  0  0  0
  -26.0389  -26.8784   19.4768 C   0  0  0  0  0  0
  -24.8808  -27.6769   19.4748 C   0  0  0  0  0  0
  -23.6476  -29.8062   20.1598 C   0  0  0  0  0  0
  -25.4115  -36.3072   24.0335 C   0  0  1  0  0  0
  -20.5903  -28.3682   23.1302 C   0  0  2  0  0  0
  -20.6801  -26.9402   22.5428 C   0  0  0  0  0  0
  -19.5776  -26.6384   21.5234 C   0  0  0  0  0  0
  -18.1947  -26.7940   22.1625 C   0  0  0  0  0  0
  -19.1548  -28.8857   23.2895 C   0  0  0  0  0  0
  -18.9460  -30.1468   23.8903 C   0  0  0  0  0  0
  -17.6459  -30.6598   24.0560 C   0  0  0  0  0  0
  -25.9044  -34.9430   23.5102 C   0  0  0  0  0  0
  -16.5349  -29.9087   23.6339 C   0  0  0  0  0  0
  -16.7283  -28.6496   23.0378 C   0  0  0  0  0  0
  -26.4505  -31.6574   25.0709 C   0  0  0  0  0  0
  -25.3736  -31.3695   26.1438 C   0  0  0  0  0  0
  -27.0377  -30.3003   24.6197 C   0  0  0  0  0  0
  -27.6069  -32.4315   25.7461 C   0  0  0  0  0  0
  -27.5584  -37.1796   24.8469 C   0  0  0  0  0  0
  -21.4210  -29.3019   22.3669 N   0  0  0  0  0  0
  -26.4298  -37.3763   23.9406 N   0  0  0  0  0  0
  -24.6959  -31.0501   22.0988 N   0  0  0  0  0  0
  -23.4176  -28.8146   23.3055 O   0  0  0  0  0  0
  -28.3253  -26.3796   20.2132 O   0  0  0  0  0  0
  -26.5604  -34.8905   22.4664 O   0  0  0  0  0  0
  -23.5437  -32.1347   23.7305 O   0  0  0  0  0  0
  -29.1059  -20.8981   22.2723 C   0  0  0  0  0  0
  -29.6185  -18.5147   22.3157 C   0  0  0  0  0  0
  -29.2845  -19.7015   22.9929 C   0  0  0  0  0  0
  -29.2734  -20.9130   20.8759 C   0  0  0  0  0  0
  -29.7803  -18.5380   20.9222 C   0  0  0  0  0  0
  -30.1976  -23.2012   19.7943 C   0  0  0  0  0  0
  -29.0567  -22.2482   20.0619 C   0  0  2  0  0  0
  -29.0242  -23.7621   20.5759 C   0  0  2  0  0  0
  -30.2514  -17.2246   20.1788 C   0  0  0  0  0  0
  -28.0947  -24.9143   19.9838 C   0  0  0  0  0  0
  -29.6116  -19.7303   20.2274 N   0  0  0  0  0  0
  -29.9128  -15.8338   20.6951 N   0  0  0  0  0  0
  -29.1004  -19.6886   24.7116 Cl  0  0  0  0  0  0
  -31.4800  -12.5106   19.2002 H   0  0  0  0  0  0
  -30.3336  -11.4431   19.9541 H   0  0  0  0  0  0
  -29.7963  -11.7678   17.5080 H   0  0  0  0  0  0
  -29.6589  -13.4918   17.7590 H   0  0  0  0  0  0
  -27.8766  -11.3002   18.8845 H   0  0  0  0  0  0
  -27.3916  -12.5754   17.7991 H   0  0  0  0  0  0
  -27.6507  -14.2642   19.5011 H   0  0  0  0  0  0
  -28.7158  -12.1431   21.4258 H   0  0  0  0  0  0
  -28.4357  -13.8164   21.8235 H   0  0  0  0  0  0
  -25.2774   -9.5712   22.4721 H   0  0  0  0  0  0
  -24.0024   -7.4635   22.7456 H   0  0  0  0  0  0
  -21.0829   -8.8767   19.8931 H   0  0  0  0  0  0
  -22.3667  -10.9682   19.6145 H   0  0  0  0  0  0
  -21.2013   -7.6116   23.9689 H   0  0  0  0  0  0
  -21.1497   -6.0489   25.9067 H   0  0  0  0  0  0
  -22.0604   -2.7570   23.2825 H   0  0  0  0  0  0
  -22.4111  -11.9949   22.4863 H   0  0  0  0  0  0
  -21.1082  -13.1232   22.2590 H   0  0  0  0  0  0
  -24.6404  -15.8391   20.4922 H   0  0  0  0  0  0
  -26.2642  -15.6369   20.0743 H   0  0  0  0  0  0
  -26.7188  -32.5416   23.1062 H   0  0  0  0  0  0
  -25.0089  -33.9647   25.0426 H   0  0  0  0  0  0
  -22.7255  -31.2967   21.3952 H   0  0  0  0  0  0
  -23.3754  -35.9609   23.3310 H   0  0  0  0  0  0
  -24.3592  -36.8887   22.2059 H   0  0  0  0  0  0
  -23.7222  -37.6479   23.6659 H   0  0  0  0  0  0
  -26.1147  -31.5341   20.6165 H   0  0  0  0  0  0
  -26.8491  -30.8176   22.0188 H   0  0  0  0  0  0
  -28.1152  -28.9214   21.2351 H   0  0  0  0  0  0
  -25.9687  -25.9269   18.9711 H   0  0  0  0  0  0
  -23.9879  -27.3135   18.9855 H   0  0  0  0  0  0
  -23.7629  -30.5784   19.3989 H   0  0  0  0  0  0
  -22.7708  -29.2289   19.8633 H   0  0  0  0  0  0
  -25.1303  -36.1931   25.0828 H   0  0  0  0  0  0
  -20.9989  -28.3261   24.1430 H   0  0  0  0  0  0
  -20.5770  -26.2250   23.3604 H   0  0  0  0  0  0
  -21.6656  -26.7481   22.1170 H   0  0  0  0  0  0
  -19.6939  -25.6302   21.1252 H   0  0  0  0  0  0
  -19.6748  -27.3207   20.6777 H   0  0  0  0  0  0
  -17.4228  -26.6713   21.4016 H   0  0  0  0  0  0
  -18.0331  -26.0082   22.9012 H   0  0  0  0  0  0
  -19.7931  -30.7298   24.2258 H   0  0  0  0  0  0
  -17.5005  -31.6287   24.5146 H   0  0  0  0  0  0
  -15.5348  -30.2978   23.7689 H   0  0  0  0  0  0
  -15.8674  -28.0813   22.7106 H   0  0  0  0  0  0
  -24.5901  -30.7076   25.7740 H   0  0  0  0  0  0
  -24.8951  -32.2853   26.4913 H   0  0  0  0  0  0
  -25.8059  -30.8809   27.0181 H   0  0  0  0  0  0
  -26.2972  -29.6717   24.1252 H   0  0  0  0  0  0
  -27.4109  -29.7301   25.4712 H   0  0  0  0  0  0
  -27.8814  -30.4295   23.9418 H   0  0  0  0  0  0
  -27.2694  -33.3617   26.2035 H   0  0  0  0  0  0
  -28.3857  -32.6867   25.0265 H   0  0  0  0  0  0
  -28.0763  -31.8443   26.5361 H   0  0  0  0  0  0
  -28.2606  -38.0088   24.7519 H   0  0  0  0  0  0
  -28.1078  -36.2626   24.6311 H   0  0  0  0  0  0
  -27.2300  -37.1449   25.8868 H   0  0  0  0  0  0
  -20.9409  -29.8630   21.6783 H   0  0  0  0  0  0
  -26.0194  -38.2839   24.1417 H   0  0  0  0  0  0
  -28.8389  -21.8024   22.7991 H   0  0  0  0  0  0
  -29.7811  -17.6021   22.8727 H   0  0  0  0  0  0
  -30.3243  -23.5463   18.7708 H   0  0  0  0  0  0
  -31.1236  -23.0467   20.3438 H   0  0  0  0  0  0
  -28.4329  -22.0227   19.1992 H   0  0  0  0  0  0
  -29.1783  -23.8748   21.6470 H   0  0  0  0  0  0
  -31.3373  -17.3054   20.0986 H   0  0  0  0  0  0
  -29.8891  -17.2795   19.1519 H   0  0  0  0  0  0
  -27.1091  -24.6700   20.3812 H   0  0  0  0  0  0
  -28.0344  -24.7648   18.9053 H   0  0  0  0  0  0
  -28.9686  -15.7044   21.0193 H   0  0  0  0  0  0
  1 25  1  0  0  0
  1 30  2  0  0  0
  1 82  1  0  0  0
  2  3  1  0  0  0
  2 25  1  0  0  0
  2 84  1  0  0  0
  2 85  1  0  0  0
  3  4  1  0  0  0
  3 86  1  0  0  0
  3 87  1  0  0  0
  4  5  1  0  0  0
  4 88  1  0  0  0
  4 89  1  0  0  0
  5  6  1  0  0  0
  5 26  1  0  0  0
  5 90  1  0  0  0
  6 25  1  0  0  0
  6 91  1  0  0  0
  6 92  1  0  0  0
  7  8  2  0  0  0
  7 26  1  0  0  0
  7 29  1  0  0  0
  8  9  1  0  0  0
  8 22  1  0  0  0
  9 10  1  0  0  0
  9 27  2  0  0  0
 10 11  2  0  0  0
 10 15  1  0  0  0
 11 12  1  0  0  0
 11 93  1  0  0  0
 12 13  2  0  0  0
 12 94  1  0  0  0
 13 14  1  0  0  0
 13 31  1  0  0  0
 14 15  2  0  0  0
 14 95  1  0  0  0
 15 96  1  0  0  0
 16 17  2  0  0  0
 16 21  1  0  0  0
 16 31  1  0  0  0
 17 18  1  0  0  0
 17 97  1  0  0  0
 18 19  2  0  0  0
 18 98  1  0  0  0
 19 20  1  0  0  0
 19 24  1  0  0  0
 20 21  2  0  0  0
 20 99  1  0  0  0
 21 23  1  0  0  0
 22 28  1  0  0  0
 22 32  2  0  0  0
 26 27  1  0  0  0
 28100  1  0  0  0
 28101  1  0  0  0
 29102  1  0  0  0
 29103  1  0  0  0
 33 34  1  0  0  0
 33 66  1  0  0  0
 33 70  2  0  0  0
 34 36  1  0  0  0
 34 59  1  0  0  0
 34104  1  0  0  0
 35 44  2  0  0  0
 35 45  1  0  0  0
 35 68  1  0  0  0
 36 56  1  0  0  0
 36105  1  0  0  0
 37 39  1  0  0  0
 37 47  1  0  0  0
 37 66  1  0  0  0
 37106  1  0  0  0
 38 43  2  0  0  0
 38 46  1  0  0  0
 38 47  1  0  0  0
 39 64  1  0  0  0
 39 67  2  0  0  0
 40 52  1  0  0  0
 40 53  2  0  0  0
 40 58  1  0  0  0
 41107  1  0  0  0
 41108  1  0  0  0
 41109  1  0  0  0
 41 48  1  0  0  0
 42 43  1  0  0  0
 42 66  1  0  0  0
 42110  1  0  0  0
 42111  1  0  0  0
 43 44  1  0  0  0
 44112  1  0  0  0
 45 46  2  0  0  0
 45113  1  0  0  0
 46114  1  0  0  0
 47115  1  0  0  0
 47116  1  0  0  0
 48 56  1  0  0  0
 48 65  1  0  0  0
 48117  1  0  0  0
 49 50  1  0  0  0
 49 53  1  0  0  0
 49 64  1  0  0  0
 49118  1  0  0  0
 50 51  1  0  0  0
 50119  1  0  0  0
 50120  1  0  0  0
 51 52  1  0  0  0
 51121  1  0  0  0
 51122  1  0  0  0
 52123  1  0  0  0
 52124  1  0  0  0
 53 54  1  0  0  0
 54 55  2  0  0  0
 54125  1  0  0  0
 55 57  1  0  0  0
 55126  1  0  0  0
 56 69  2  0  0  0
 57 58  2  0  0  0
 57127  1  0  0  0
 58128  1  0  0  0
 59 60  1  0  0  0
 59 61  1  0  0  0
 59 62  1  0  0  0
 60129  1  0  0  0
 60130  1  0  0  0
 60131  1  0  0  0
 61132  1  0  0  0
 61133  1  0  0  0
 61134  1  0  0  0
 62135  1  0  0  0
 62136  1  0  0  0
 62137  1  0  0  0
 63 65  1  0  0  0
 63138  1  0  0  0
 63139  1  0  0  0
 63140  1  0  0  0
 64141  1  0  0  0
 65142  1  0  0  0
 68 80  1  0  0  0
 71 73  2  0  0  0
 71 74  1  0  0  0
 71143  1  0  0  0
 72 73  1  0  0  0
 72 75  2  0  0  0
 72144  1  0  0  0
 73 83  1  0  0  0
 74 81  2  0  0  0
 74 77  1  0  0  0
 75 79  1  0  0  0
 75 81  1  0  0  0
 76 77  1  0  0  0
 76 78  1  0  0  0
 76145  1  0  0  0
 76146  1  0  0  0
 77 78  1  0  0  0
 77147  1  0  0  0
 78 80  1  0  0  0
 78148  1  0  0  0
 79 82  1  0  0  0
 79149  1  0  0  0
 79150  1  0  0  0
 80151  1  0  0  0
 80152  1  0  0  0
 82153  1  0  0  0
M  ISO  4   1 100  68 101  80 101  82 100
M  END
> <chiral flag>
0

> <version>
0

> <s_m_source_file>
/data/baiqing/PycharmProjects/Reinvent-master-3.2/result/LINK_invent/BTK/process_docking_weight1_custom_sum_contain_oxygen_bond_distance_aromatic_linkinvent_7_9_3/rearranged_h_0179.sdf

> <i_m_source_file_index>
35

> <r_mmod_Potential_Energy-OPLS-2005>
-199.330825805664

> <r_mmod_Stretch_Energy-OPLS-2005>
108.456359863281

> <r_mmod_Bend_Energy-OPLS-2005>
145.727523803711

> <r_mmod_Torsional_Energy-OPLS-2005>
232.959976196289

> <r_mmod_Improper_Torsional_Energy-OPLS-2005>
6.8410530090332

> <r_mmod_Van_der_Waal_Energy-OPLS-2005>
140.52507019043

> <r_mmod_Electrostatic_Energy-OPLS-2005>
-683.843933105469

> <r_mmod_Solvation_Energy-OPLS-2005>
-221.973556518555

> <b_mmod_Minimization_Converged-OPLS-2005>
0

> <r_mmod_RMS_Derivative-OPLS-2005>
3.27180576324463

$$$$
35
                    3D
 Structure written by MMmdl.
164173  0  0  1  0            999 V2000
  -30.6680  -14.5908   20.5062 C   0  0  0  0  0  0
  -30.4245  -12.3649   19.4475 C   0  0  0  0  0  0
  -29.5014  -12.5016   18.2177 C   0  0  0  0  0  0
  -28.0219  -12.3533   18.6270 C   0  0  0  0  0  0
  -27.6510  -13.2170   19.8631 C   0  0  2  0  0  0
  -28.6957  -13.0577   20.9889 C   0  0  0  0  0  0
  -25.2544  -13.8173   20.5683 C   0  0  0  0  0  0
  -24.1812  -13.0437   20.9186 C   0  0  0  0  0  0
  -24.6383  -11.6909   20.8735 C   0  0  0  0  0  0
  -23.9052  -10.4294   21.0404 C   0  0  0  0  0  0
  -24.3606   -9.4212   21.9183 C   0  0  0  0  0  0
  -23.6284   -8.2244   22.0753 C   0  0  0  0  0  0
  -22.4269   -8.0278   21.3542 C   0  0  0  0  0  0
  -21.9899   -9.0252   20.4648 C   0  0  0  0  0  0
  -22.7222  -10.2133   20.3055 C   0  0  0  0  0  0
  -21.6853   -6.0729   22.5274 C   0  0  0  0  0  0
  -21.4017   -6.5634   23.8208 C   0  0  0  0  0  0
  -21.3662   -5.6786   24.9171 C   0  0  0  0  0  0
  -21.6045   -4.3049   24.7224 C   0  0  0  0  0  0
  -21.8821   -3.8140   23.4346 C   0  0  0  0  0  0
  -21.9194   -4.6956   22.3401 C   0  0  0  0  0  0
  -22.7835  -13.5230   21.1849 C   0  0  0  0  0  0
  -22.1662   -4.2142   21.0979 F   0  0  0  0  0  0
  -21.5629   -3.4535   25.7738 F   0  0  0  0  0  0
  -30.0084  -13.3932   20.4212 N   0  0  0  0  0  0
  -26.2975  -12.9357   20.3325 N   0  0  0  0  0  0
  -25.9310  -11.6510   20.5752 N   0  0  0  0  0  0
  -22.0476  -12.8230   22.0412 N   0  0  0  0  0  0
  -25.4244  -15.1891   20.4089 N   0  0  0  0  0  0
  -31.8469  -14.6830   20.1483 O   0  0  0  0  0  0
  -21.6636   -6.8871   21.4238 O   0  0  0  0  0  0
  -22.3521  -14.5535   20.6695 O   0  0  0  0  0  0
  -24.6219  -31.8627   23.2054 C   0  0  0  0  0  0
  -25.9086  -32.4791   23.8363 C   0  0  1  0  0  0
  -27.2264  -27.3597   20.0947 C   0  0  0  0  0  0
  -25.5915  -33.8590   24.2294 N   0  0  0  0  0  0
  -23.4121  -30.4876   21.5481 C   0  0  2  0  0  0
  -24.8552  -28.9471   20.1121 C   0  0  0  0  0  0
  -22.7445  -29.4639   22.4960 C   0  0  0  0  0  0
  -18.0281  -28.1378   22.8488 C   0  0  0  0  0  0
  -24.1489  -36.7300   23.2639 C   0  0  0  0  0  0
  -25.9494  -30.8045   21.3698 C   0  0  0  0  0  0
  -26.0215  -29.4349   20.7122 C   0  0  0  0  0  0
  -27.2055  -28.6489   20.7006 C   0  0  0  0  0  0
  -26.0255  -26.8996   19.5041 C   0  0  0  0  0  0
  -24.8560  -27.6816   19.5061 C   0  0  0  0  0  0
  -23.6226  -29.8236   20.1622 C   0  0  0  0  0  0
  -25.4110  -36.3091   24.0332 C   0  0  1  0  0  0
  -20.5876  -28.3673   23.1300 C   0  0  2  0  0  0
  -20.6771  -26.9402   22.5414 C   0  0  0  0  0  0
  -19.5748  -26.6382   21.5211 C   0  0  0  0  0  0
  -18.1926  -26.7923   22.1624 C   0  0  0  0  0  0
  -19.1532  -28.8843   23.2892 C   0  0  0  0  0  0
  -18.9457  -30.1447   23.8906 C   0  0  0  0  0  0
  -17.6457  -30.6583   24.0564 C   0  0  0  0  0  0
  -25.9044  -34.9459   23.5112 C   0  0  0  0  0  0
  -16.5350  -29.9084   23.6328 C   0  0  0  0  0  0
  -16.7268  -28.6502   23.0350 C   0  0  0  0  0  0
  -26.4486  -31.6588   25.0719 C   0  0  0  0  0  0
  -25.3734  -31.3716   26.1457 C   0  0  0  0  0  0
  -27.0320  -30.3017   24.6141 C   0  0  0  0  0  0
  -27.6052  -32.4317   25.7486 C   0  0  0  0  0  0
  -27.5580  -37.1803   24.8464 C   0  0  0  0  0  0
  -21.4167  -29.3034   22.3701 N   0  0  0  0  0  0
  -26.4291  -37.3782   23.9409 N   0  0  0  0  0  0
  -24.6799  -31.0674   22.0985 N   0  0  0  0  0  0
  -23.4189  -28.8177   23.3024 O   0  0  0  0  0  0
  -28.3859  -26.5832   20.1432 O   0  0  0  0  0  0
  -26.5611  -34.8921   22.4679 O   0  0  0  0  0  0
  -23.5396  -32.1409   23.7411 O   0  0  0  0  0  0
  -30.1192  -22.5066   21.4587 C   0  0  0  0  0  0
  -28.2472  -22.8243   19.5140 C   0  0  0  0  0  0
  -29.8137  -23.8257   21.0327 C   0  0  0  0  0  0
  -28.8419  -24.0129   20.0178 C   0  0  0  0  0  0
  -29.4934  -21.3854   20.8740 C   0  0  0  0  0  0
  -29.4371  -17.7311   22.0180 C   0  0  0  0  0  0
  -30.3320  -18.1487   19.7594 C   0  0  0  0  0  0
  -29.1094  -16.2515   21.6352 C   0  0  0  0  0  0
  -29.9424  -16.6910   19.3688 C   0  0  0  0  0  0
  -29.4202  -18.7557   20.8489 C   0  0  0  0  0  0
  -29.8514  -25.5267   22.9087 C   0  0  0  0  0  0
  -30.5624  -24.9912   21.6606 C   0  0  0  0  0  0
  -28.5540  -25.3834   19.3257 C   0  0  0  0  0  0
  -28.5550  -21.5543   19.9182 N   0  0  0  0  0  0
  -29.8910  -15.7272   20.4961 N   0  0  0  0  0  0
  -29.8801  -20.0900   21.3084 N   0  0  0  0  0  0
  -31.4686  -12.4666   19.1468 H   0  0  0  0  0  0
  -30.3386  -11.3694   19.8857 H   0  0  0  0  0  0
  -29.7585  -11.7526   17.4672 H   0  0  0  0  0  0
  -29.6574  -13.4730   17.7457 H   0  0  0  0  0  0
  -27.8468  -11.2994   18.8468 H   0  0  0  0  0  0
  -27.3715  -12.6000   17.7871 H   0  0  0  0  0  0
  -27.6728  -14.2553   19.5325 H   0  0  0  0  0  0
  -28.7006  -12.0330   21.3630 H   0  0  0  0  0  0
  -28.4447  -13.6790   21.8458 H   0  0  0  0  0  0
  -25.2756   -9.5690   22.4751 H   0  0  0  0  0  0
  -23.9997   -7.4638   22.7474 H   0  0  0  0  0  0
  -21.0829   -8.8767   19.8955 H   0  0  0  0  0  0
  -22.3681  -10.9667   19.6157 H   0  0  0  0  0  0
  -21.2010   -7.6141   23.9706 H   0  0  0  0  0  0
  -21.1483   -6.0519   25.9072 H   0  0  0  0  0  0
  -22.0599   -2.7602   23.2847 H   0  0  0  0  0  0
  -22.4085  -11.9896   22.4812 H   0  0  0  0  0  0
  -21.1093  -13.1260   22.2611 H   0  0  0  0  0  0
  -24.6582  -15.8442   20.5193 H   0  0  0  0  0  0
  -26.2778  -15.6276   20.0877 H   0  0  0  0  0  0
  -26.7151  -32.5469   23.1110 H   0  0  0  0  0  0
  -25.0062  -33.9738   25.0440 H   0  0  0  0  0  0
  -22.7038  -31.3069   21.4085 H   0  0  0  0  0  0
  -23.3748  -35.9636   23.3306 H   0  0  0  0  0  0
  -24.3583  -36.8913   22.2053 H   0  0  0  0  0  0
  -23.7244  -37.6506   23.6655 H   0  0  0  0  0  0
  -26.0755  -31.5695   20.6025 H   0  0  0  0  0  0
  -26.8325  -30.8525   21.9952 H   0  0  0  0  0  0
  -28.1035  -29.0215   21.1732 H   0  0  0  0  0  0
  -25.9387  -25.9199   19.0630 H   0  0  0  0  0  0
  -23.9543  -27.2933   19.0528 H   0  0  0  0  0  0
  -23.7392  -30.6002   19.4055 H   0  0  0  0  0  0
  -22.7431  -29.2511   19.8620 H   0  0  0  0  0  0
  -25.1290  -36.1947   25.0825 H   0  0  0  0  0  0
  -20.9967  -28.3243   24.1421 H   0  0  0  0  0  0
  -20.5673  -26.2279   23.3606 H   0  0  0  0  0  0
  -21.6642  -26.7440   22.1207 H   0  0  0  0  0  0
  -19.6910  -25.6294   21.1237 H   0  0  0  0  0  0
  -19.6687  -27.3199   20.6745 H   0  0  0  0  0  0
  -17.4195  -26.6671   21.4026 H   0  0  0  0  0  0
  -18.0329  -26.0063   22.9020 H   0  0  0  0  0  0
  -19.7933  -30.7261   24.2279 H   0  0  0  0  0  0
  -17.5013  -31.6265   24.5163 H   0  0  0  0  0  0
  -15.5349  -30.2988   23.7648 H   0  0  0  0  0  0
  -15.8669  -28.0822   22.7061 H   0  0  0  0  0  0
  -24.5904  -30.7067   25.7794 H   0  0  0  0  0  0
  -24.8929  -32.2879   26.4896 H   0  0  0  0  0  0
  -25.8071  -30.8888   27.0223 H   0  0  0  0  0  0
  -26.2880  -29.6776   24.1177 H   0  0  0  0  0  0
  -27.4049  -29.7260   25.4622 H   0  0  0  0  0  0
  -27.8736  -30.4315   23.9332 H   0  0  0  0  0  0
  -27.2663  -33.3610   26.2079 H   0  0  0  0  0  0
  -28.3853  -32.6887   25.0308 H   0  0  0  0  0  0
  -28.0731  -31.8432   26.5390 H   0  0  0  0  0  0
  -28.2598  -38.0100   24.7511 H   0  0  0  0  0  0
  -28.1074  -36.2632   24.6285 H   0  0  0  0  0  0
  -27.2301  -37.1452   25.8868 H   0  0  0  0  0  0
  -20.9333  -29.8756   21.6919 H   0  0  0  0  0  0
  -26.0175  -38.2858   24.1409 H   0  0  0  0  0  0
  -30.8665  -22.3660   22.2284 H   0  0  0  0  0  0
  -27.5201  -22.8858   18.7173 H   0  0  0  0  0  0
  -30.4231  -17.7418   22.4857 H   0  0  0  0  0  0
  -28.7407  -18.0555   22.7928 H   0  0  0  0  0  0
  -30.3043  -18.7794   18.8697 H   0  0  0  0  0  0
  -31.3684  -18.1544   20.1005 H   0  0  0  0  0  0
  -28.0510  -16.1661   21.3879 H   0  0  0  0  0  0
  -29.2710  -15.6301   22.5171 H   0  0  0  0  0  0
  -30.6222  -16.3394   18.5900 H   0  0  0  0  0  0
  -28.9558  -16.6992   18.9034 H   0  0  0  0  0  0
  -28.4033  -18.8453   20.4628 H   0  0  0  0  0  0
  -30.3942  -26.3716   23.3327 H   0  0  0  0  0  0
  -29.7760  -24.7571   23.6772 H   0  0  0  0  0  0
  -28.8415  -25.8636   22.6747 H   0  0  0  0  0  0
  -30.7043  -25.7901   20.9335 H   0  0  0  0  0  0
  -31.5682  -24.6653   21.9287 H   0  0  0  0  0  0
  -27.7901  -25.2509   18.5644 H   0  0  0  0  0  0
  -29.4452  -25.5850   18.7310 H   0  0  0  0  0  0
  -30.5821  -20.0714   22.0399 H   0  0  0  0  0  0
  1 25  1  0  0  0
  1 30  2  0  0  0
  1 85  1  0  0  0
  2  3  1  0  0  0
  2 25  1  0  0  0
  2 87  1  0  0  0
  2 88  1  0  0  0
  3  4  1  0  0  0
  3 89  1  0  0  0
  3 90  1  0  0  0
  4  5  1  0  0  0
  4 91  1  0  0  0
  4 92  1  0  0  0
  5  6  1  0  0  0
  5 26  1  0  0  0
  5 93  1  0  0  0
  6 25  1  0  0  0
  6 94  1  0  0  0
  6 95  1  0  0  0
  7  8  2  0  0  0
  7 26  1  0  0  0
  7 29  1  0  0  0
  8  9  1  0  0  0
  8 22  1  0  0  0
  9 10  1  0  0  0
  9 27  2  0  0  0
 10 11  2  0  0  0
 10 15  1  0  0  0
 11 12  1  0  0  0
 11 96  1  0  0  0
 12 13  2  0  0  0
 12 97  1  0  0  0
 13 14  1  0  0  0
 13 31  1  0  0  0
 14 15  2  0  0  0
 14 98  1  0  0  0
 15 99  1  0  0  0
 16 17  2  0  0  0
 16 21  1  0  0  0
 16 31  1  0  0  0
 17 18  1  0  0  0
 17100  1  0  0  0
 18 19  2  0  0  0
 18101  1  0  0  0
 19 20  1  0  0  0
 19 24  1  0  0  0
 20 21  2  0  0  0
 20102  1  0  0  0
 21 23  1  0  0  0
 22 28  1  0  0  0
 22 32  2  0  0  0
 26 27  1  0  0  0
 28103  1  0  0  0
 28104  1  0  0  0
 29105  1  0  0  0
 29106  1  0  0  0
 33 34  1  0  0  0
 33 66  1  0  0  0
 33 70  2  0  0  0
 34 36  1  0  0  0
 34 59  1  0  0  0
 34107  1  0  0  0
 35 44  2  0  0  0
 35 45  1  0  0  0
 35 68  1  0  0  0
 36 56  1  0  0  0
 36108  1  0  0  0
 37 39  1  0  0  0
 37 47  1  0  0  0
 37 66  1  0  0  0
 37109  1  0  0  0
 38 43  2  0  0  0
 38 46  1  0  0  0
 38 47  1  0  0  0
 39 64  1  0  0  0
 39 67  2  0  0  0
 40 52  1  0  0  0
 40 53  2  0  0  0
 40 58  1  0  0  0
 41110  1  0  0  0
 41111  1  0  0  0
 41112  1  0  0  0
 41 48  1  0  0  0
 42 43  1  0  0  0
 42 66  1  0  0  0
 42113  1  0  0  0
 42114  1  0  0  0
 43 44  1  0  0  0
 44115  1  0  0  0
 45 46  2  0  0  0
 45116  1  0  0  0
 46117  1  0  0  0
 47118  1  0  0  0
 47119  1  0  0  0
 48 56  1  0  0  0
 48 65  1  0  0  0
 48120  1  0  0  0
 49 50  1  0  0  0
 49 53  1  0  0  0
 49 64  1  0  0  0
 49121  1  0  0  0
 50 51  1  0  0  0
 50122  1  0  0  0
 50123  1  0  0  0
 51 52  1  0  0  0
 51124  1  0  0  0
 51125  1  0  0  0
 52126  1  0  0  0
 52127  1  0  0  0
 53 54  1  0  0  0
 54 55  2  0  0  0
 54128  1  0  0  0
 55 57  1  0  0  0
 55129  1  0  0  0
 56 69  2  0  0  0
 57 58  2  0  0  0
 57130  1  0  0  0
 58131  1  0  0  0
 59 60  1  0  0  0
 59 61  1  0  0  0
 59 62  1  0  0  0
 60132  1  0  0  0
 60133  1  0  0  0
 60134  1  0  0  0
 61135  1  0  0  0
 61136  1  0  0  0
 61137  1  0  0  0
 62138  1  0  0  0
 62139  1  0  0  0
 62140  1  0  0  0
 63 65  1  0  0  0
 63141  1  0  0  0
 63142  1  0  0  0
 63143  1  0  0  0
 64144  1  0  0  0
 65145  1  0  0  0
 68 83  1  0  0  0
 71 73  2  0  0  0
 71 75  1  0  0  0
 71146  1  0  0  0
 72 74  2  0  0  0
 72 84  1  0  0  0
 72147  1  0  0  0
 73 74  1  0  0  0
 73 82  1  0  0  0
 74 83  1  0  0  0
 75 84  2  0  0  0
 75 86  1  0  0  0
 76 78  1  0  0  0
 76 80  1  0  0  0
 76148  1  0  0  0
 76149  1  0  0  0
 77 79  1  0  0  0
 77 80  1  0  0  0
 77150  1  0  0  0
 77151  1  0  0  0
 78 85  1  0  0  0
 78152  1  0  0  0
 78153  1  0  0  0
 79 85  1  0  0  0
 79154  1  0  0  0
 79155  1  0  0  0
 80 86  1  0  0  0
 80156  1  0  0  0
 81 82  1  0  0  0
 81157  1  0  0  0
 81158  1  0  0  0
 81159  1  0  0  0
 82160  1  0  0  0
 82161  1  0  0  0
 83162  1  0  0  0
 83163  1  0  0  0
 86164  1  0  0  0
M  ISO  4   1 100  68 101  83 101  85 100
M  END
> <chiral flag>
0

> <version>
0

> <s_m_source_file>
/data/baiqing/PycharmProjects/Reinvent-master-3.2/result/LINK_invent/BTK/process_docking_weight1_custom_sum_contain_oxygen_bond_distance_aromatic_linkinvent_7_9_3/rearranged_h_0179.sdf

> <i_m_source_file_index>
36

> <r_mmod_Potential_Energy-OPLS-2005>
36.7268981933594

> <r_mmod_Stretch_Energy-OPLS-2005>
59.56298828125

> <r_mmod_Bend_Energy-OPLS-2005>
155.08984375

> <r_mmod_Torsional_Energy-OPLS-2005>
319.575744628906

> <r_mmod_Improper_Torsional_Energy-OPLS-2005>
17.0818786621094

> <r_mmod_Van_der_Waal_Energy-OPLS-2005>
145.772399902344

> <r_mmod_Electrostatic_Energy-OPLS-2005>
-474.198303222656

> <r_mmod_Solvation_Energy-OPLS-2005>
-219.256805419922

> <b_mmod_Minimization_Converged-OPLS-2005>
0

> <r_mmod_RMS_Derivative-OPLS-2005>
0.564860701560974

$$$$
36
                    3D
 Structure written by MMmdl.
162171  0  0  1  0            999 V2000
  -30.6104  -14.7593   20.4662 C   0  0  0  0  0  0
  -30.4357  -12.4622   19.4938 C   0  0  0  0  0  0
  -29.5195  -12.5200   18.2505 C   0  0  0  0  0  0
  -28.0443  -12.3408   18.6564 C   0  0  0  0  0  0
  -27.6475  -13.2357   19.8605 C   0  0  2  0  0  0
  -28.6882  -13.1670   21.0017 C   0  0  0  0  0  0
  -25.2525  -13.8202   20.5701 C   0  0  0  0  0  0
  -24.1811  -13.0444   20.9194 C   0  0  0  0  0  0
  -24.6402  -11.6920   20.8732 C   0  0  0  0  0  0
  -23.9071  -10.4297   21.0397 C   0  0  0  0  0  0
  -24.3620   -9.4212   21.9176 C   0  0  0  0  0  0
  -23.6296   -8.2245   22.0745 C   0  0  0  0  0  0
  -22.4277   -8.0280   21.3538 C   0  0  0  0  0  0
  -21.9913   -9.0253   20.4640 C   0  0  0  0  0  0
  -22.7241  -10.2134   20.3049 C   0  0  0  0  0  0
  -21.6853   -6.0734   22.5279 C   0  0  0  0  0  0
  -21.4016   -6.5640   23.8212 C   0  0  0  0  0  0
  -21.3662   -5.6789   24.9172 C   0  0  0  0  0  0
  -21.6047   -4.3052   24.7221 C   0  0  0  0  0  0
  -21.8821   -3.8144   23.4341 C   0  0  0  0  0  0
  -21.9194   -4.6963   22.3400 C   0  0  0  0  0  0
  -22.7831  -13.5224   21.1853 C   0  0  0  0  0  0
  -22.1662   -4.2150   21.0976 F   0  0  0  0  0  0
  -21.5627   -3.4534   25.7734 F   0  0  0  0  0  0
  -29.9965  -13.5225   20.4355 N   0  0  0  0  0  0
  -26.2964  -12.9418   20.3309 N   0  0  0  0  0  0
  -25.9341  -11.6553   20.5748 N   0  0  0  0  0  0
  -22.0476  -12.8215   22.0411 N   0  0  0  0  0  0
  -25.4218  -15.1927   20.4135 N   0  0  0  0  0  0
  -31.7701  -14.8678   20.0564 O   0  0  0  0  0  0
  -21.6637   -6.8878   21.4240 O   0  0  0  0  0  0
  -22.3520  -14.5531   20.6702 O   0  0  0  0  0  0
  -24.6338  -31.8545   23.2009 C   0  0  0  0  0  0
  -25.9160  -32.4747   23.8348 C   0  0  1  0  0  0
  -27.2051  -27.2228   20.1407 C   0  0  0  0  0  0
  -25.5954  -33.8551   24.2261 N   0  0  0  0  0  0
  -23.4321  -30.4796   21.5434 C   0  0  2  0  0  0
  -24.8807  -28.9327   20.1038 C   0  0  0  0  0  0
  -22.7520  -29.4595   22.4893 C   0  0  0  0  0  0
  -18.0296  -28.1385   22.8478 C   0  0  0  0  0  0
  -24.1492  -36.7274   23.2637 C   0  0  0  0  0  0
  -25.9826  -30.7508   21.3956 C   0  0  0  0  0  0
  -26.0497  -29.3714   20.7389 C   0  0  0  0  0  0
  -27.2097  -28.5241   20.7604 C   0  0  0  0  0  0
  -26.0369  -26.9079   19.4074 C   0  0  0  0  0  0
  -24.8810  -27.7080   19.4256 C   0  0  0  0  0  0
  -23.6533  -29.8224   20.1564 C   0  0  0  0  0  0
  -25.4119  -36.3062   24.0322 C   0  0  1  0  0  0
  -20.5905  -28.3699   23.1250 C   0  0  2  0  0  0
  -20.6787  -26.9411   22.5400 C   0  0  0  0  0  0
  -19.5761  -26.6376   21.5207 C   0  0  0  0  0  0
  -18.1939  -26.7924   22.1617 C   0  0  0  0  0  0
  -19.1552  -28.8860   23.2860 C   0  0  0  0  0  0
  -18.9471  -30.1456   23.8884 C   0  0  0  0  0  0
  -17.6470  -30.6585   24.0558 C   0  0  0  0  0  0
  -25.9063  -34.9432   23.5093 C   0  0  0  0  0  0
  -16.5361  -29.9080   23.6331 C   0  0  0  0  0  0
  -16.7280  -28.6497   23.0355 C   0  0  0  0  0  0
  -26.4517  -31.6580   25.0747 C   0  0  0  0  0  0
  -25.3731  -31.3743   26.1462 C   0  0  0  0  0  0
  -27.0369  -30.2982   24.6281 C   0  0  0  0  0  0
  -27.6064  -32.4331   25.7521 C   0  0  0  0  0  0
  -27.5580  -37.1789   24.8462 C   0  0  0  0  0  0
  -21.4222  -29.3044   22.3633 N   0  0  0  0  0  0
  -26.4288  -37.3766   23.9412 N   0  0  0  0  0  0
  -24.7013  -31.0476   22.1015 N   0  0  0  0  0  0
  -23.4205  -28.8132   23.2999 O   0  0  0  0  0  0
  -28.2674  -26.2684   20.2135 O   0  0  0  0  0  0
  -26.5631  -34.8909   22.4657 O   0  0  0  0  0  0
  -23.5480  -32.1395   23.7272 O   0  0  0  0  0  0
  -29.7790  -17.2472   18.8113 C   0  0  0  0  0  0
  -29.1229  -23.8118   20.4423 C   0  0  0  0  0  0
  -28.7587  -22.3961   20.5601 C   0  0  0  0  0  0
  -29.5152  -19.5615   18.7261 C   0  0  0  0  0  0
  -29.5893  -19.6731   20.1392 C   0  0  0  0  0  0
  -29.8487  -17.2329   20.2252 C   0  0  0  0  0  0
  -28.0860  -24.8320   20.3736 C   0  0  0  0  0  0
  -26.5642  -23.0883   20.5766 C   0  0  0  0  0  0
  -29.3872  -20.7688   17.8170 C   0  0  0  0  0  0
  -25.1043  -22.6988   20.6518 C   0  0  0  0  0  0
  -31.2077  -24.3354   19.0689 C   0  0  0  0  0  0
  -30.5772  -24.2604   20.4641 C   0  0  0  0  0  0
  -29.7172  -21.1277   20.8208 C   0  0  0  0  0  0
  -29.6040  -18.3730   18.0806 N   0  0  0  0  0  0
  -29.7448  -18.4785   20.8708 N   0  0  0  0  0  0
  -27.4486  -22.0989   20.6071 N   0  0  0  0  0  0
  -26.8196  -24.3869   20.4915 N   0  0  0  0  0  0
  -29.8859  -15.8831   20.8474 N   0  0  0  0  0  0
  -31.4791  -12.5783   19.1956 H   0  0  0  0  0  0
  -30.3747  -11.4830   19.9716 H   0  0  0  0  0  0
  -29.8068  -11.7501   17.5331 H   0  0  0  0  0  0
  -29.6482  -13.4763   17.7412 H   0  0  0  0  0  0
  -27.8993  -11.2904   18.9127 H   0  0  0  0  0  0
  -27.3916  -12.5401   17.8057 H   0  0  0  0  0  0
  -27.6449  -14.2592   19.4850 H   0  0  0  0  0  0
  -28.7215  -12.1672   21.4377 H   0  0  0  0  0  0
  -28.4141  -13.8422   21.8137 H   0  0  0  0  0  0
  -25.2760   -9.5693   22.4754 H   0  0  0  0  0  0
  -24.0007   -7.4636   22.7464 H   0  0  0  0  0  0
  -21.0845   -8.8771   19.8947 H   0  0  0  0  0  0
  -22.3695  -10.9669   19.6156 H   0  0  0  0  0  0
  -21.2011   -7.6150   23.9716 H   0  0  0  0  0  0
  -21.1484   -6.0516   25.9075 H   0  0  0  0  0  0
  -22.0601   -2.7606   23.2835 H   0  0  0  0  0  0
  -22.4083  -11.9880   22.4813 H   0  0  0  0  0  0
  -21.1093  -13.1241   22.2609 H   0  0  0  0  0  0
  -24.6524  -15.8445   20.5224 H   0  0  0  0  0  0
  -26.2711  -15.6353   20.0871 H   0  0  0  0  0  0
  -26.7223  -32.5381   23.1080 H   0  0  0  0  0  0
  -25.0117  -33.9690   25.0418 H   0  0  0  0  0  0
  -22.7300  -31.3038   21.4003 H   0  0  0  0  0  0
  -23.3759  -35.9602   23.3292 H   0  0  0  0  0  0
  -24.3585  -36.8908   22.2054 H   0  0  0  0  0  0
  -23.7243  -37.6468   23.6671 H   0  0  0  0  0  0
  -26.1336  -31.5090   20.6261 H   0  0  0  0  0  0
  -26.8559  -30.7955   22.0339 H   0  0  0  0  0  0
  -28.0940  -28.8452   21.2925 H   0  0  0  0  0  0
  -25.9833  -25.9911   18.8396 H   0  0  0  0  0  0
  -23.9980  -27.3782   18.8960 H   0  0  0  0  0  0
  -23.7810  -30.6042   19.4069 H   0  0  0  0  0  0
  -22.7709  -29.2603   19.8457 H   0  0  0  0  0  0
  -25.1301  -36.1901   25.0814 H   0  0  0  0  0  0
  -20.9999  -28.3284   24.1369 H   0  0  0  0  0  0
  -20.5685  -26.2311   23.3608 H   0  0  0  0  0  0
  -21.6653  -26.7428   22.1196 H   0  0  0  0  0  0
  -19.6923  -25.6284   21.1243 H   0  0  0  0  0  0
  -19.6699  -27.3178   20.6730 H   0  0  0  0  0  0
  -17.4209  -26.6668   21.4019 H   0  0  0  0  0  0
  -18.0340  -26.0069   22.9016 H   0  0  0  0  0  0
  -19.7949  -30.7271   24.2251 H   0  0  0  0  0  0
  -17.5027  -31.6263   24.5161 H   0  0  0  0  0  0
  -15.5362  -30.2977   23.7664 H   0  0  0  0  0  0
  -15.8683  -28.0809   22.7082 H   0  0  0  0  0  0
  -24.5920  -30.7073   25.7798 H   0  0  0  0  0  0
  -24.8905  -32.2913   26.4852 H   0  0  0  0  0  0
  -25.8044  -30.8953   27.0262 H   0  0  0  0  0  0
  -26.2968  -29.6718   24.1288 H   0  0  0  0  0  0
  -27.4000  -29.7263   25.4831 H   0  0  0  0  0  0
  -27.8878  -30.4227   23.9580 H   0  0  0  0  0  0
  -27.2668  -33.3644   26.2068 H   0  0  0  0  0  0
  -28.3890  -32.6870   25.0359 H   0  0  0  0  0  0
  -28.0718  -31.8478   26.5464 H   0  0  0  0  0  0
  -28.2583  -38.0100   24.7522 H   0  0  0  0  0  0
  -28.1088  -36.2627   24.6268 H   0  0  0  0  0  0
  -27.2298  -37.1420   25.8865 H   0  0  0  0  0  0
  -20.9415  -29.8763   21.6832 H   0  0  0  0  0  0
  -26.0159  -38.2834   24.1421 H   0  0  0  0  0  0
  -29.8146  -16.3287   18.2430 H   0  0  0  0  0  0
  -30.1935  -21.4749   18.0029 H   0  0  0  0  0  0
  -28.4332  -21.2713   17.9752 H   0  0  0  0  0  0
  -29.4391  -20.4859   16.7651 H   0  0  0  0  0  0
  -24.9770  -21.6158   20.6384 H   0  0  0  0  0  0
  -24.5562  -23.1123   19.8055 H   0  0  0  0  0  0
  -24.6568  -23.0814   21.5689 H   0  0  0  0  0  0
  -32.2325  -24.7039   19.1302 H   0  0  0  0  0  0
  -30.6555  -25.0121   18.4155 H   0  0  0  0  0  0
  -31.2456  -23.3592   18.5893 H   0  0  0  0  0  0
  -31.1638  -23.6065   21.1095 H   0  0  0  0  0  0
  -30.6313  -25.2452   20.9313 H   0  0  0  0  0  0
  -29.7096  -20.9655   21.8985 H   0  0  0  0  0  0
  -30.7333  -21.4482   20.5981 H   0  0  0  0  0  0
  -29.0743  -15.6731   21.4068 H   0  0  0  0  0  0
  1 25  1  0  0  0
  1 30  2  0  0  0
  1 88  1  0  0  0
  2  3  1  0  0  0
  2 25  1  0  0  0
  2 89  1  0  0  0
  2 90  1  0  0  0
  3  4  1  0  0  0
  3 91  1  0  0  0
  3 92  1  0  0  0
  4  5  1  0  0  0
  4 93  1  0  0  0
  4 94  1  0  0  0
  5  6  1  0  0  0
  5 26  1  0  0  0
  5 95  1  0  0  0
  6 25  1  0  0  0
  6 96  1  0  0  0
  6 97  1  0  0  0
  7  8  2  0  0  0
  7 26  1  0  0  0
  7 29  1  0  0  0
  8  9  1  0  0  0
  8 22  1  0  0  0
  9 10  1  0  0  0
  9 27  2  0  0  0
 10 11  2  0  0  0
 10 15  1  0  0  0
 11 12  1  0  0  0
 11 98  1  0  0  0
 12 13  2  0  0  0
 12 99  1  0  0  0
 13 14  1  0  0  0
 13 31  1  0  0  0
 14 15  2  0  0  0
 14100  1  0  0  0
 15101  1  0  0  0
 16 17  2  0  0  0
 16 21  1  0  0  0
 16 31  1  0  0  0
 17 18  1  0  0  0
 17102  1  0  0  0
 18 19  2  0  0  0
 18103  1  0  0  0
 19 20  1  0  0  0
 19 24  1  0  0  0
 20 21  2  0  0  0
 20104  1  0  0  0
 21 23  1  0  0  0
 22 28  1  0  0  0
 22 32  2  0  0  0
 26 27  1  0  0  0
 28105  1  0  0  0
 28106  1  0  0  0
 29107  1  0  0  0
 29108  1  0  0  0
 33 34  1  0  0  0
 33 66  1  0  0  0
 33 70  2  0  0  0
 34 36  1  0  0  0
 34 59  1  0  0  0
 34109  1  0  0  0
 35 44  2  0  0  0
 35 45  1  0  0  0
 35 68  1  0  0  0
 36 56  1  0  0  0
 36110  1  0  0  0
 37 39  1  0  0  0
 37 47  1  0  0  0
 37 66  1  0  0  0
 37111  1  0  0  0
 38 43  2  0  0  0
 38 46  1  0  0  0
 38 47  1  0  0  0
 39 64  1  0  0  0
 39 67  2  0  0  0
 40 52  1  0  0  0
 40 53  2  0  0  0
 40 58  1  0  0  0
 41112  1  0  0  0
 41113  1  0  0  0
 41114  1  0  0  0
 41 48  1  0  0  0
 42 43  1  0  0  0
 42 66  1  0  0  0
 42115  1  0  0  0
 42116  1  0  0  0
 43 44  1  0  0  0
 44117  1  0  0  0
 45 46  2  0  0  0
 45118  1  0  0  0
 46119  1  0  0  0
 47120  1  0  0  0
 47121  1  0  0  0
 48 56  1  0  0  0
 48 65  1  0  0  0
 48122  1  0  0  0
 49 50  1  0  0  0
 49 53  1  0  0  0
 49 64  1  0  0  0
 49123  1  0  0  0
 50 51  1  0  0  0
 50124  1  0  0  0
 50125  1  0  0  0
 51 52  1  0  0  0
 51126  1  0  0  0
 51127  1  0  0  0
 52128  1  0  0  0
 52129  1  0  0  0
 53 54  1  0  0  0
 54 55  2  0  0  0
 54130  1  0  0  0
 55 57  1  0  0  0
 55131  1  0  0  0
 56 69  2  0  0  0
 57 58  2  0  0  0
 57132  1  0  0  0
 58133  1  0  0  0
 59 60  1  0  0  0
 59 61  1  0  0  0
 59 62  1  0  0  0
 60134  1  0  0  0
 60135  1  0  0  0
 60136  1  0  0  0
 61137  1  0  0  0
 61138  1  0  0  0
 61139  1  0  0  0
 62140  1  0  0  0
 62141  1  0  0  0
 62142  1  0  0  0
 63 65  1  0  0  0
 63143  1  0  0  0
 63144  1  0  0  0
 63145  1  0  0  0
 64146  1  0  0  0
 65147  1  0  0  0
 68 77  1  0  0  0
 71 76  2  0  0  0
 71 84  1  0  0  0
 71148  1  0  0  0
 72 73  2  0  0  0
 72 77  1  0  0  0
 72 82  1  0  0  0
 73 83  1  0  0  0
 73 86  1  0  0  0
 74 75  1  0  0  0
 74 79  1  0  0  0
 74 84  2  0  0  0
 75 83  1  0  0  0
 75 85  2  0  0  0
 76 85  1  0  0  0
 76 88  1  0  0  0
 77 87  2  0  0  0
 78 80  1  0  0  0
 78 86  2  0  0  0
 78 87  1  0  0  0
 79149  1  0  0  0
 79150  1  0  0  0
 79151  1  0  0  0
 80152  1  0  0  0
 80153  1  0  0  0
 80154  1  0  0  0
 81 82  1  0  0  0
 81155  1  0  0  0
 81156  1  0  0  0
 81157  1  0  0  0
 82158  1  0  0  0
 82159  1  0  0  0
 83160  1  0  0  0
 83161  1  0  0  0
 88162  1  0  0  0
M  ISO  4   1 100  68 101  77 101  88 100
M  END
> <chiral flag>
0

> <version>
0

> <s_m_source_file>
/data/baiqing/PycharmProjects/Reinvent-master-3.2/result/LINK_invent/BTK/process_docking_weight1_custom_sum_contain_oxygen_bond_distance_aromatic_linkinvent_7_9_3/rearranged_h_0179.sdf

> <i_m_source_file_index>
37

> <r_mmod_Potential_Energy-OPLS-2005>
-94.4677276611328

> <r_mmod_Stretch_Energy-OPLS-2005>
145.539474487305

> <r_mmod_Bend_Energy-OPLS-2005>
177.022369384766

> <r_mmod_Torsional_Energy-OPLS-2005>
241.168746948242

> <r_mmod_Improper_Torsional_Energy-OPLS-2005>
5.99181032180786

> <r_mmod_Van_der_Waal_Energy-OPLS-2005>
167.334625244141

> <r_mmod_Electrostatic_Energy-OPLS-2005>
-700.092529296875

> <r_mmod_Solvation_Energy-OPLS-2005>
-235.718627929688

> <b_mmod_Minimization_Converged-OPLS-2005>
0

> <r_mmod_RMS_Derivative-OPLS-2005>
0.769335508346558

$$$$
37
                    3D
 Structure written by MMmdl.
157166  0  0  1  0            999 V2000
  -30.6549  -14.6948   20.4894 C   0  0  0  0  0  0
  -30.4265  -12.4336   19.4591 C   0  0  0  0  0  0
  -29.5016  -12.5144   18.2260 C   0  0  0  0  0  0
  -28.0254  -12.3507   18.6385 C   0  0  0  0  0  0
  -27.6461  -13.2274   19.8624 C   0  0  2  0  0  0
  -28.6964  -13.1087   20.9880 C   0  0  0  0  0  0
  -25.2507  -13.8176   20.5675 C   0  0  0  0  0  0
  -24.1802  -13.0427   20.9203 C   0  0  0  0  0  0
  -24.6401  -11.6909   20.8766 C   0  0  0  0  0  0
  -23.9075  -10.4291   21.0415 C   0  0  0  0  0  0
  -24.3619   -9.4200   21.9192 C   0  0  0  0  0  0
  -23.6291   -8.2238   22.0752 C   0  0  0  0  0  0
  -22.4274   -8.0284   21.3541 C   0  0  0  0  0  0
  -21.9917   -9.0258   20.4641 C   0  0  0  0  0  0
  -22.7250  -10.2137   20.3056 C   0  0  0  0  0  0
  -21.6846   -6.0742   22.5277 C   0  0  0  0  0  0
  -21.4007   -6.5648   23.8212 C   0  0  0  0  0  0
  -21.3659   -5.6794   24.9173 C   0  0  0  0  0  0
  -21.6043   -4.3059   24.7220 C   0  0  0  0  0  0
  -21.8814   -3.8154   23.4338 C   0  0  0  0  0  0
  -21.9189   -4.6969   22.3395 C   0  0  0  0  0  0
  -22.7823  -13.5213   21.1853 C   0  0  0  0  0  0
  -22.1658   -4.2160   21.0975 F   0  0  0  0  0  0
  -21.5630   -3.4543   25.7729 F   0  0  0  0  0  0
  -29.9917  -13.4871   20.4066 N   0  0  0  0  0  0
  -26.2961  -12.9388   20.3352 N   0  0  0  0  0  0
  -25.9338  -11.6531   20.5805 N   0  0  0  0  0  0
  -22.0473  -12.8206   22.0413 N   0  0  0  0  0  0
  -25.4147  -15.1893   20.4001 N   0  0  0  0  0  0
  -31.8348  -14.7522   20.1267 O   0  0  0  0  0  0
  -21.6631   -6.8887   21.4242 O   0  0  0  0  0  0
  -22.3504  -14.5522   20.6708 O   0  0  0  0  0  0
  -24.6287  -31.8583   23.2019 C   0  0  0  0  0  0
  -25.9133  -32.4766   23.8355 C   0  0  1  0  0  0
  -27.2200  -27.3030   20.1213 C   0  0  0  0  0  0
  -25.5948  -33.8568   24.2288 N   0  0  0  0  0  0
  -23.4242  -30.4820   21.5438 C   0  0  2  0  0  0
  -24.8732  -28.9363   20.1090 C   0  0  0  0  0  0
  -22.7488  -29.4621   22.4920 C   0  0  0  0  0  0
  -18.0289  -28.1385   22.8481 C   0  0  0  0  0  0
  -24.1483  -36.7273   23.2640 C   0  0  0  0  0  0
  -25.9676  -30.7824   21.3775 C   0  0  0  0  0  0
  -26.0436  -29.4093   20.7188 C   0  0  0  0  0  0
  -27.2247  -28.6042   20.7164 C   0  0  0  0  0  0
  -26.0346  -26.8931   19.4764 C   0  0  0  0  0  0
  -24.8712  -27.6837   19.4766 C   0  0  0  0  0  0
  -23.6418  -29.8178   20.1590 C   0  0  0  0  0  0
  -25.4111  -36.3072   24.0335 C   0  0  1  0  0  0
  -20.5890  -28.3692   23.1268 C   0  0  2  0  0  0
  -20.6775  -26.9410   22.5405 C   0  0  0  0  0  0
  -19.5757  -26.6383   21.5203 C   0  0  0  0  0  0
  -18.1935  -26.7935   22.1604 C   0  0  0  0  0  0
  -19.1542  -28.8853   23.2875 C   0  0  0  0  0  0
  -18.9466  -30.1450   23.8898 C   0  0  0  0  0  0
  -17.6466  -30.6585   24.0560 C   0  0  0  0  0  0
  -25.9052  -34.9446   23.5105 C   0  0  0  0  0  0
  -16.5356  -29.9082   23.6335 C   0  0  0  0  0  0
  -16.7273  -28.6498   23.0358 C   0  0  0  0  0  0
  -26.4517  -31.6575   25.0729 C   0  0  0  0  0  0
  -25.3746  -31.3702   26.1451 C   0  0  0  0  0  0
  -27.0361  -30.2999   24.6187 C   0  0  0  0  0  0
  -27.6077  -32.4310   25.7502 C   0  0  0  0  0  0
  -27.5579  -37.1791   24.8466 C   0  0  0  0  0  0
  -21.4198  -29.3045   22.3661 N   0  0  0  0  0  0
  -26.4283  -37.3777   23.9420 N   0  0  0  0  0  0
  -24.6921  -31.0579   22.0978 N   0  0  0  0  0  0
  -23.4201  -28.8162   23.3010 O   0  0  0  0  0  0
  -28.2868  -26.3888   20.1574 O   0  0  0  0  0  0
  -26.5610  -34.8920   22.4663 O   0  0  0  0  0  0
  -23.5446  -32.1386   23.7335 O   0  0  0  0  0  0
  -29.8884  -23.3137   20.9358 C   0  0  0  0  0  0
  -28.5953  -23.7082   20.5289 C   0  0  0  0  0  0
  -27.8283  -22.6095   20.0413 C   0  0  0  0  0  0
  -29.5114  -21.0610   20.4696 C   0  0  0  0  0  0
  -28.9425  -17.8049   21.7486 C   0  0  0  0  0  0
  -28.9571  -16.2572   21.6117 C   0  0  0  0  0  0
  -30.3734  -17.1915   19.9715 C   0  0  0  0  0  0
  -29.4191  -18.3735   20.4096 C   0  0  2  0  0  0
  -26.4069  -22.7937   19.5457 C   0  0  0  0  0  0
  -27.9850  -25.1309   20.8904 C   0  0  0  0  0  0
  -30.3300  -22.0200   20.8942 N   0  0  0  0  0  0
  -28.2848  -21.3147   20.0223 N   0  0  0  0  0  0
  -29.9378  -15.8869   20.5815 N   0  0  0  0  0  0
  -30.0356  -19.7408   20.5050 N   0  0  0  0  0  0
  -31.4676  -12.5440   19.1514 H   0  0  0  0  0  0
  -30.3649  -11.4483   19.9241 H   0  0  0  0  0  0
  -29.7734  -11.7514   17.4960 H   0  0  0  0  0  0
  -29.6387  -13.4750   17.7268 H   0  0  0  0  0  0
  -27.8635  -11.2982   18.8741 H   0  0  0  0  0  0
  -27.3694  -12.5768   17.7971 H   0  0  0  0  0  0
  -27.6529  -14.2597   19.5115 H   0  0  0  0  0  0
  -28.7349  -12.0852   21.3648 H   0  0  0  0  0  0
  -28.4347  -13.7189   21.8488 H   0  0  0  0  0  0
  -25.2756   -9.5678   22.4779 H   0  0  0  0  0  0
  -23.9997   -7.4624   22.7466 H   0  0  0  0  0  0
  -21.0854   -8.8778   19.8937 H   0  0  0  0  0  0
  -22.3710  -10.9680   19.6169 H   0  0  0  0  0  0
  -21.1997   -7.6152   23.9721 H   0  0  0  0  0  0
  -21.1485   -6.0522   25.9078 H   0  0  0  0  0  0
  -22.0594   -2.7616   23.2828 H   0  0  0  0  0  0
  -22.4087  -11.9857   22.4781 H   0  0  0  0  0  0
  -21.1094  -13.1231   22.2631 H   0  0  0  0  0  0
  -24.6373  -15.8354   20.4819 H   0  0  0  0  0  0
  -26.2586  -15.6277   20.0554 H   0  0  0  0  0  0
  -26.7203  -32.5431   23.1105 H   0  0  0  0  0  0
  -25.0141  -33.9710   25.0466 H   0  0  0  0  0  0
  -22.7196  -31.3035   21.3991 H   0  0  0  0  0  0
  -23.3757  -35.9589   23.3291 H   0  0  0  0  0  0
  -24.3581  -36.8896   22.2055 H   0  0  0  0  0  0
  -23.7219  -37.6467   23.6662 H   0  0  0  0  0  0
  -26.1032  -31.5449   20.6097 H   0  0  0  0  0  0
  -26.8465  -30.8308   22.0081 H   0  0  0  0  0  0
  -28.1201  -28.9577   21.2083 H   0  0  0  0  0  0
  -25.9985  -25.9298   18.9888 H   0  0  0  0  0  0
  -23.9776  -27.3176   18.9899 H   0  0  0  0  0  0
  -23.7646  -30.5958   19.4046 H   0  0  0  0  0  0
  -22.7611  -29.2500   19.8524 H   0  0  0  0  0  0
  -25.1292  -36.1916   25.0827 H   0  0  0  0  0  0
  -20.9981  -28.3264   24.1386 H   0  0  0  0  0  0
  -20.5656  -26.2303   23.3610 H   0  0  0  0  0  0
  -21.6645  -26.7431   22.1200 H   0  0  0  0  0  0
  -19.6913  -25.6291   21.1242 H   0  0  0  0  0  0
  -19.6703  -27.3188   20.6732 H   0  0  0  0  0  0
  -17.4206  -26.6686   21.4004 H   0  0  0  0  0  0
  -18.0327  -26.0072   22.8991 H   0  0  0  0  0  0
  -19.7943  -30.7266   24.2270 H   0  0  0  0  0  0
  -17.5023  -31.6272   24.5154 H   0  0  0  0  0  0
  -15.5360  -30.2983   23.7673 H   0  0  0  0  0  0
  -15.8667  -28.0820   22.7085 H   0  0  0  0  0  0
  -24.5962  -30.7002   25.7787 H   0  0  0  0  0  0
  -24.8890  -32.2849   26.4854 H   0  0  0  0  0  0
  -25.8083  -30.8916   27.0239 H   0  0  0  0  0  0
  -26.2931  -29.6740   24.1231 H   0  0  0  0  0  0
  -27.4082  -29.7270   25.4691 H   0  0  0  0  0  0
  -27.8795  -30.4288   23.9399 H   0  0  0  0  0  0
  -27.2705  -33.3631   26.2049 H   0  0  0  0  0  0
  -28.3909  -32.6828   25.0338 H   0  0  0  0  0  0
  -28.0718  -31.8444   26.5441 H   0  0  0  0  0  0
  -28.2582  -38.0102   24.7534 H   0  0  0  0  0  0
  -28.1089  -36.2639   24.6261 H   0  0  0  0  0  0
  -27.2304  -37.1391   25.8869 H   0  0  0  0  0  0
  -20.9381  -29.8767   21.6869 H   0  0  0  0  0  0
  -26.0158  -38.2842   24.1444 H   0  0  0  0  0  0
  -30.5638  -24.0322   21.3761 H   0  0  0  0  0  0
  -29.6369  -18.0947   22.5387 H   0  0  0  0  0  0
  -27.9604  -18.1854   22.0327 H   0  0  0  0  0  0
  -27.9715  -15.9123   21.3040 H   0  0  0  0  0  0
  -29.1912  -15.7898   22.5697 H   0  0  0  0  0  0
  -31.3921  -17.3937   20.3054 H   0  0  0  0  0  0
  -30.4096  -17.1065   18.8845 H   0  0  0  0  0  0
  -28.5713  -18.4180   19.7231 H   0  0  0  0  0  0
  -26.3703  -23.5669   18.7792 H   0  0  0  0  0  0
  -25.7460  -23.0811   20.3626 H   0  0  0  0  0  0
  -26.0149  -21.8759   19.1071 H   0  0  0  0  0  0
  -28.3123  -25.3265   21.9123 H   0  0  0  0  0  0
  -26.9098  -24.9995   21.0037 H   0  0  0  0  0  0
  -31.0002  -19.7273   20.8103 H   0  0  0  0  0  0
  1 25  1  0  0  0
  1 30  2  0  0  0
  1 83  1  0  0  0
  2  3  1  0  0  0
  2 25  1  0  0  0
  2 85  1  0  0  0
  2 86  1  0  0  0
  3  4  1  0  0  0
  3 87  1  0  0  0
  3 88  1  0  0  0
  4  5  1  0  0  0
  4 89  1  0  0  0
  4 90  1  0  0  0
  5  6  1  0  0  0
  5 26  1  0  0  0
  5 91  1  0  0  0
  6 25  1  0  0  0
  6 92  1  0  0  0
  6 93  1  0  0  0
  7  8  2  0  0  0
  7 26  1  0  0  0
  7 29  1  0  0  0
  8  9  1  0  0  0
  8 22  1  0  0  0
  9 10  1  0  0  0
  9 27  2  0  0  0
 10 11  2  0  0  0
 10 15  1  0  0  0
 11 12  1  0  0  0
 11 94  1  0  0  0
 12 13  2  0  0  0
 12 95  1  0  0  0
 13 14  1  0  0  0
 13 31  1  0  0  0
 14 15  2  0  0  0
 14 96  1  0  0  0
 15 97  1  0  0  0
 16 17  2  0  0  0
 16 21  1  0  0  0
 16 31  1  0  0  0
 17 18  1  0  0  0
 17 98  1  0  0  0
 18 19  2  0  0  0
 18 99  1  0  0  0
 19 20  1  0  0  0
 19 24  1  0  0  0
 20 21  2  0  0  0
 20100  1  0  0  0
 21 23  1  0  0  0
 22 28  1  0  0  0
 22 32  2  0  0  0
 26 27  1  0  0  0
 28101  1  0  0  0
 28102  1  0  0  0
 29103  1  0  0  0
 29104  1  0  0  0
 33 34  1  0  0  0
 33 66  1  0  0  0
 33 70  2  0  0  0
 34 36  1  0  0  0
 34 59  1  0  0  0
 34105  1  0  0  0
 35 44  2  0  0  0
 35 45  1  0  0  0
 35 68  1  0  0  0
 36 56  1  0  0  0
 36106  1  0  0  0
 37 39  1  0  0  0
 37 47  1  0  0  0
 37 66  1  0  0  0
 37107  1  0  0  0
 38 43  2  0  0  0
 38 46  1  0  0  0
 38 47  1  0  0  0
 39 64  1  0  0  0
 39 67  2  0  0  0
 40 52  1  0  0  0
 40 53  2  0  0  0
 40 58  1  0  0  0
 41108  1  0  0  0
 41109  1  0  0  0
 41110  1  0  0  0
 41 48  1  0  0  0
 42 43  1  0  0  0
 42 66  1  0  0  0
 42111  1  0  0  0
 42112  1  0  0  0
 43 44  1  0  0  0
 44113  1  0  0  0
 45 46  2  0  0  0
 45114  1  0  0  0
 46115  1  0  0  0
 47116  1  0  0  0
 47117  1  0  0  0
 48 56  1  0  0  0
 48 65  1  0  0  0
 48118  1  0  0  0
 49 50  1  0  0  0
 49 53  1  0  0  0
 49 64  1  0  0  0
 49119  1  0  0  0
 50 51  1  0  0  0
 50120  1  0  0  0
 50121  1  0  0  0
 51 52  1  0  0  0
 51122  1  0  0  0
 51123  1  0  0  0
 52124  1  0  0  0
 52125  1  0  0  0
 53 54  1  0  0  0
 54 55  2  0  0  0
 54126  1  0  0  0
 55 57  1  0  0  0
 55127  1  0  0  0
 56 69  2  0  0  0
 57 58  2  0  0  0
 57128  1  0  0  0
 58129  1  0  0  0
 59 60  1  0  0  0
 59 61  1  0  0  0
 59 62  1  0  0  0
 60130  1  0  0  0
 60131  1  0  0  0
 60132  1  0  0  0
 61133  1  0  0  0
 61134  1  0  0  0
 61135  1  0  0  0
 62136  1  0  0  0
 62137  1  0  0  0
 62138  1  0  0  0
 63 65  1  0  0  0
 63139  1  0  0  0
 63140  1  0  0  0
 63141  1  0  0  0
 64142  1  0  0  0
 65143  1  0  0  0
 68 80  1  0  0  0
 71 72  2  0  0  0
 71 81  1  0  0  0
 71144  1  0  0  0
 72 73  1  0  0  0
 72 80  1  0  0  0
 73 79  1  0  0  0
 73 82  2  0  0  0
 74 81  2  0  0  0
 74 82  1  0  0  0
 74 84  1  0  0  0
 75 76  1  0  0  0
 75 78  1  0  0  0
 75145  1  0  0  0
 75146  1  0  0  0
 76 83  1  0  0  0
 76147  1  0  0  0
 76148  1  0  0  0
 77 78  1  0  0  0
 77 83  1  0  0  0
 77149  1  0  0  0
 77150  1  0  0  0
 78 84  1  0  0  0
 78151  1  0  0  0
 79152  1  0  0  0
 79153  1  0  0  0
 79154  1  0  0  0
 80155  1  0  0  0
 80156  1  0  0  0
 84157  1  0  0  0
M  ISO  4   1 100  68 101  80 101  83 100
M  END
> <chiral flag>
0

> <version>
0

> <s_m_source_file>
/data/baiqing/PycharmProjects/Reinvent-master-3.2/result/LINK_invent/BTK/process_docking_weight1_custom_sum_contain_oxygen_bond_distance_aromatic_linkinvent_7_9_3/rearranged_h_0179.sdf

> <i_m_source_file_index>
38

> <r_mmod_Potential_Energy-OPLS-2005>
-214.688247680664

> <r_mmod_Stretch_Energy-OPLS-2005>
86.5154876708984

> <r_mmod_Bend_Energy-OPLS-2005>
190.556076049805

> <r_mmod_Torsional_Energy-OPLS-2005>
338.353942871094

> <r_mmod_Improper_Torsional_Energy-OPLS-2005>
15.0767135620117

> <r_mmod_Van_der_Waal_Energy-OPLS-2005>
142.029724121094

> <r_mmod_Electrostatic_Energy-OPLS-2005>
-818.404357910156

> <r_mmod_Solvation_Energy-OPLS-2005>
-233.702056884766

> <b_mmod_Minimization_Converged-OPLS-2005>
0

> <r_mmod_RMS_Derivative-OPLS-2005>
1.25563061237335

$$$$
38
                    3D
 Structure written by MMmdl.
162171  0  0  1  0            999 V2000
  -30.6568  -14.5436   20.5322 C   0  0  0  0  0  0
  -30.4332  -12.3343   19.4474 C   0  0  0  0  0  0
  -29.5063  -12.5051   18.2229 C   0  0  0  0  0  0
  -28.0265  -12.3596   18.6301 C   0  0  0  0  0  0
  -27.6628  -13.2075   19.8780 C   0  0  2  0  0  0
  -28.7042  -13.0132   21.0064 C   0  0  0  0  0  0
  -25.2593  -13.8154   20.5680 C   0  0  0  0  0  0
  -24.1840  -13.0436   20.9172 C   0  0  0  0  0  0
  -24.6392  -11.6903   20.8720 C   0  0  0  0  0  0
  -23.9053  -10.4291   21.0387 C   0  0  0  0  0  0
  -24.3609   -9.4212   21.9173 C   0  0  0  0  0  0
  -23.6293   -8.2244   22.0746 C   0  0  0  0  0  0
  -22.4278   -8.0275   21.3535 C   0  0  0  0  0  0
  -21.9901   -9.0245   20.4642 C   0  0  0  0  0  0
  -22.7219  -10.2130   20.3045 C   0  0  0  0  0  0
  -21.6857   -6.0730   22.5272 C   0  0  0  0  0  0
  -21.4012   -6.5636   23.8205 C   0  0  0  0  0  0
  -21.3660   -5.6791   24.9169 C   0  0  0  0  0  0
  -21.6045   -4.3054   24.7223 C   0  0  0  0  0  0
  -21.8819   -3.8143   23.4347 C   0  0  0  0  0  0
  -21.9196   -4.6957   22.3400 C   0  0  0  0  0  0
  -22.7866  -13.5236   21.1844 C   0  0  0  0  0  0
  -22.1666   -4.2141   21.0980 F   0  0  0  0  0  0
  -21.5633   -3.4541   25.7741 F   0  0  0  0  0  0
  -30.0341  -13.3308   20.4580 N   0  0  0  0  0  0
  -26.3031  -12.9322   20.3372 N   0  0  0  0  0  0
  -25.9326  -11.6484   20.5766 N   0  0  0  0  0  0
  -22.0514  -12.8226   22.0404 N   0  0  0  0  0  0
  -25.4326  -15.1871   20.4088 N   0  0  0  0  0  0
  -31.7757  -14.7453   20.0535 O   0  0  0  0  0  0
  -21.6646   -6.8870   21.4235 O   0  0  0  0  0  0
  -22.3552  -14.5544   20.6701 O   0  0  0  0  0  0
  -24.6193  -31.8640   23.2061 C   0  0  0  0  0  0
  -25.9072  -32.4800   23.8369 C   0  0  1  0  0  0
  -27.2356  -27.3956   20.1083 C   0  0  0  0  0  0
  -25.5908  -33.8597   24.2298 N   0  0  0  0  0  0
  -23.4113  -30.4866   21.5458 C   0  0  2  0  0  0
  -24.8630  -28.9504   20.1085 C   0  0  0  0  0  0
  -22.7445  -29.4641   22.4953 C   0  0  0  0  0  0
  -18.0283  -28.1386   22.8487 C   0  0  0  0  0  0
  -24.1486  -36.7306   23.2636 C   0  0  0  0  0  0
  -25.9442  -30.8181   21.3669 C   0  0  0  0  0  0
  -26.0251  -29.4508   20.7118 C   0  0  0  0  0  0
  -27.2181  -28.6818   20.7093 C   0  0  0  0  0  0
  -26.0616  -26.9255   19.4863 C   0  0  0  0  0  0
  -24.8784  -27.6893   19.4889 C   0  0  0  0  0  0
  -23.6241  -29.8190   20.1605 C   0  0  0  0  0  0
  -25.4106  -36.3096   24.0333 C   0  0  1  0  0  0
  -20.5878  -28.3678   23.1302 C   0  0  2  0  0  0
  -20.6772  -26.9404   22.5427 C   0  0  0  0  0  0
  -19.5757  -26.6386   21.5219 C   0  0  0  0  0  0
  -18.1930  -26.7936   22.1615 C   0  0  0  0  0  0
  -19.1533  -28.8848   23.2893 C   0  0  0  0  0  0
  -18.9460  -30.1452   23.8909 C   0  0  0  0  0  0
  -17.6462  -30.6584   24.0572 C   0  0  0  0  0  0
  -25.9037  -34.9465   23.5113 C   0  0  0  0  0  0
  -16.5353  -29.9087   23.6333 C   0  0  0  0  0  0
  -16.7273  -28.6509   23.0346 C   0  0  0  0  0  0
  -26.4482  -31.6589   25.0714 C   0  0  0  0  0  0
  -25.3738  -31.3720   26.1459 C   0  0  0  0  0  0
  -27.0300  -30.3013   24.6126 C   0  0  0  0  0  0
  -27.6054  -32.4308   25.7482 C   0  0  0  0  0  0
  -27.5587  -37.1797   24.8456 C   0  0  0  0  0  0
  -21.4166  -29.3037   22.3700 N   0  0  0  0  0  0
  -26.4285  -37.3791   23.9422 N   0  0  0  0  0  0
  -24.6765  -31.0710   22.0979 N   0  0  0  0  0  0
  -23.4198  -28.8187   23.3015 O   0  0  0  0  0  0
  -28.3320  -26.5498   20.1547 O   0  0  0  0  0  0
  -26.5606  -34.8928   22.4679 O   0  0  0  0  0  0
  -23.5375  -32.1412   23.7430 O   0  0  0  0  0  0
  -28.8153  -23.2964   22.1927 C   0  0  0  0  0  0
  -29.3771  -22.0018   22.1313 C   0  0  0  0  0  0
  -29.9660  -21.5593   20.9184 C   0  0  0  0  0  0
  -28.8391  -24.1556   21.0758 C   0  0  0  0  0  0
  -29.9162  -22.4807   19.8274 C   0  0  0  0  0  0
  -31.0241  -17.7975   20.1721 C   0  0  0  0  0  0
  -29.3672  -18.0988   21.2955 C   0  0  0  0  0  0
  -29.7736  -16.9329   20.3694 C   0  0  2  0  0  0
  -29.3682  -21.1447   23.3866 C   0  0  0  0  0  0
  -30.5169  -22.1424   18.4742 C   0  0  0  0  0  0
  -30.7789  -20.2199   20.8587 C   0  0  0  0  0  0
  -28.2098  -25.5700   21.2220 C   0  0  0  0  0  0
  -29.3706  -23.7306   19.9029 N   0  0  0  0  0  0
  -29.8779  -15.5677   20.9604 N   0  0  0  0  0  0
  -30.1219  -18.9637   20.3604 N   0  3  1  0  0  0
  -31.4775  -12.4417   19.1499 H   0  0  0  0  0  0
  -30.3446  -11.3271   19.8576 H   0  0  0  0  0  0
  -29.7562  -11.7695   17.4571 H   0  0  0  0  0  0
  -29.6678  -13.4855   17.7706 H   0  0  0  0  0  0
  -27.8440  -11.3039   18.8347 H   0  0  0  0  0  0
  -27.3777  -12.6235   17.7938 H   0  0  0  0  0  0
  -27.6990  -14.2513   19.5666 H   0  0  0  0  0  0
  -28.6903  -11.9831   21.3644 H   0  0  0  0  0  0
  -28.4585  -13.6270   21.8749 H   0  0  0  0  0  0
  -25.2755   -9.5695   22.4746 H   0  0  0  0  0  0
  -24.0010   -7.4634   22.7463 H   0  0  0  0  0  0
  -21.0830   -8.8750   19.8950 H   0  0  0  0  0  0
  -22.3666  -10.9664   19.6152 H   0  0  0  0  0  0
  -21.1998   -7.6143   23.9700 H   0  0  0  0  0  0
  -21.1485   -6.0527   25.9067 H   0  0  0  0  0  0
  -22.0601   -2.7608   23.2850 H   0  0  0  0  0  0
  -22.4145  -11.9885   22.4778 H   0  0  0  0  0  0
  -21.1123  -13.1231   22.2611 H   0  0  0  0  0  0
  -24.6634  -15.8411   20.5063 H   0  0  0  0  0  0
  -26.2821  -15.6230   20.0741 H   0  0  0  0  0  0
  -26.7145  -32.5504   23.1129 H   0  0  0  0  0  0
  -25.0064  -33.9749   25.0447 H   0  0  0  0  0  0
  -22.7026  -31.3050   21.4031 H   0  0  0  0  0  0
  -23.3755  -35.9631   23.3273 H   0  0  0  0  0  0
  -24.3595  -36.8952   22.2059 H   0  0  0  0  0  0
  -23.7226  -37.6495   23.6672 H   0  0  0  0  0  0
  -26.0639  -31.5832   20.5985 H   0  0  0  0  0  0
  -26.8289  -30.8700   21.9898 H   0  0  0  0  0  0
  -28.1101  -29.0568   21.1916 H   0  0  0  0  0  0
  -26.0569  -25.9500   19.0196 H   0  0  0  0  0  0
  -23.9873  -27.2986   19.0169 H   0  0  0  0  0  0
  -23.7326  -30.5941   19.4010 H   0  0  0  0  0  0
  -22.7483  -29.2393   19.8630 H   0  0  0  0  0  0
  -25.1282  -36.1948   25.0824 H   0  0  0  0  0  0
  -20.9972  -28.3254   24.1422 H   0  0  0  0  0  0
  -20.5665  -26.2291   23.3626 H   0  0  0  0  0  0
  -21.6645  -26.7437   22.1228 H   0  0  0  0  0  0
  -19.6917  -25.6298   21.1248 H   0  0  0  0  0  0
  -19.6708  -27.3202   20.6755 H   0  0  0  0  0  0
  -17.4214  -26.6704   21.4002 H   0  0  0  0  0  0
  -18.0305  -26.0066   22.8992 H   0  0  0  0  0  0
  -19.7935  -30.7266   24.2282 H   0  0  0  0  0  0
  -17.5015  -31.6267   24.5170 H   0  0  0  0  0  0
  -15.5353  -30.2994   23.7647 H   0  0  0  0  0  0
  -15.8674  -28.0835   22.7046 H   0  0  0  0  0  0
  -24.5943  -30.7015   25.7824 H   0  0  0  0  0  0
  -24.8892  -32.2878   26.4853 H   0  0  0  0  0  0
  -25.8092  -30.8958   27.0251 H   0  0  0  0  0  0
  -26.2845  -29.6781   24.1170 H   0  0  0  0  0  0
  -27.4026  -29.7249   25.4606 H   0  0  0  0  0  0
  -27.8708  -30.4299   23.9306 H   0  0  0  0  0  0
  -27.2668  -33.3600   26.2078 H   0  0  0  0  0  0
  -28.3858  -32.6878   25.0306 H   0  0  0  0  0  0
  -28.0725  -31.8420   26.5386 H   0  0  0  0  0  0
  -28.2581  -38.0120   24.7541 H   0  0  0  0  0  0
  -28.1104  -36.2655   24.6214 H   0  0  0  0  0  0
  -27.2322  -37.1369   25.8862 H   0  0  0  0  0  0
  -20.9333  -29.8755   21.6912 H   0  0  0  0  0  0
  -26.0166  -38.2858   24.1461 H   0  0  0  0  0  0
  -28.3736  -23.6519   23.1149 H   0  0  0  0  0  0
  -31.4682  -17.7398   19.1773 H   0  0  0  0  0  0
  -31.7780  -17.6885   20.9561 H   0  0  0  0  0  0
  -29.7984  -18.0485   22.2985 H   0  0  0  0  0  0
  -28.2984  -18.3143   21.3250 H   0  0  0  0  0  0
  -29.1605  -16.9173   19.4630 H   0  0  0  0  0  0
  -28.8381  -21.6399   24.2006 H   0  0  0  0  0  0
  -30.3823  -20.9511   23.7354 H   0  0  0  0  0  0
  -28.8701  -20.1936   23.2059 H   0  0  0  0  0  0
  -30.2067  -21.1519   18.1436 H   0  0  0  0  0  0
  -31.6055  -22.1682   18.5217 H   0  0  0  0  0  0
  -30.2016  -22.8523   17.7081 H   0  0  0  0  0  0
  -31.2307  -20.0166   21.8285 H   0  0  0  0  0  0
  -31.6375  -20.3962   20.2110 H   0  0  0  0  0  0
  -28.6451  -26.0261   22.1119 H   0  0  0  0  0  0
  -27.1608  -25.4006   21.4726 H   0  0  0  0  0  0
  -29.0424  -15.2507   21.4309 H   0  0  0  0  0  0
  -29.5955  -19.1237   19.5163 H   0  0  0  0  0  0
  1 25  1  0  0  0
  1 30  2  0  0  0
  1 84  1  0  0  0
  2  3  1  0  0  0
  2 25  1  0  0  0
  2 86  1  0  0  0
  2 87  1  0  0  0
  3  4  1  0  0  0
  3 88  1  0  0  0
  3 89  1  0  0  0
  4  5  1  0  0  0
  4 90  1  0  0  0
  4 91  1  0  0  0
  5  6  1  0  0  0
  5 26  1  0  0  0
  5 92  1  0  0  0
  6 25  1  0  0  0
  6 93  1  0  0  0
  6 94  1  0  0  0
  7  8  2  0  0  0
  7 26  1  0  0  0
  7 29  1  0  0  0
  8  9  1  0  0  0
  8 22  1  0  0  0
  9 10  1  0  0  0
  9 27  2  0  0  0
 10 11  2  0  0  0
 10 15  1  0  0  0
 11 12  1  0  0  0
 11 95  1  0  0  0
 12 13  2  0  0  0
 12 96  1  0  0  0
 13 14  1  0  0  0
 13 31  1  0  0  0
 14 15  2  0  0  0
 14 97  1  0  0  0
 15 98  1  0  0  0
 16 17  2  0  0  0
 16 21  1  0  0  0
 16 31  1  0  0  0
 17 18  1  0  0  0
 17 99  1  0  0  0
 18 19  2  0  0  0
 18100  1  0  0  0
 19 20  1  0  0  0
 19 24  1  0  0  0
 20 21  2  0  0  0
 20101  1  0  0  0
 21 23  1  0  0  0
 22 28  1  0  0  0
 22 32  2  0  0  0
 26 27  1  0  0  0
 28102  1  0  0  0
 28103  1  0  0  0
 29104  1  0  0  0
 29105  1  0  0  0
 33 34  1  0  0  0
 33 66  1  0  0  0
 33 70  2  0  0  0
 34 36  1  0  0  0
 34 59  1  0  0  0
 34106  1  0  0  0
 35 44  2  0  0  0
 35 45  1  0  0  0
 35 68  1  0  0  0
 36 56  1  0  0  0
 36107  1  0  0  0
 37 39  1  0  0  0
 37 47  1  0  0  0
 37 66  1  0  0  0
 37108  1  0  0  0
 38 43  2  0  0  0
 38 46  1  0  0  0
 38 47  1  0  0  0
 39 64  1  0  0  0
 39 67  2  0  0  0
 40 52  1  0  0  0
 40 53  2  0  0  0
 40 58  1  0  0  0
 41109  1  0  0  0
 41110  1  0  0  0
 41111  1  0  0  0
 41 48  1  0  0  0
 42 43  1  0  0  0
 42 66  1  0  0  0
 42112  1  0  0  0
 42113  1  0  0  0
 43 44  1  0  0  0
 44114  1  0  0  0
 45 46  2  0  0  0
 45115  1  0  0  0
 46116  1  0  0  0
 47117  1  0  0  0
 47118  1  0  0  0
 48 56  1  0  0  0
 48 65  1  0  0  0
 48119  1  0  0  0
 49 50  1  0  0  0
 49 53  1  0  0  0
 49 64  1  0  0  0
 49120  1  0  0  0
 50 51  1  0  0  0
 50121  1  0  0  0
 50122  1  0  0  0
 51 52  1  0  0  0
 51123  1  0  0  0
 51124  1  0  0  0
 52125  1  0  0  0
 52126  1  0  0  0
 53 54  1  0  0  0
 54 55  2  0  0  0
 54127  1  0  0  0
 55 57  1  0  0  0
 55128  1  0  0  0
 56 69  2  0  0  0
 57 58  2  0  0  0
 57129  1  0  0  0
 58130  1  0  0  0
 59 60  1  0  0  0
 59 61  1  0  0  0
 59 62  1  0  0  0
 60131  1  0  0  0
 60132  1  0  0  0
 60133  1  0  0  0
 61134  1  0  0  0
 61135  1  0  0  0
 61136  1  0  0  0
 62137  1  0  0  0
 62138  1  0  0  0
 62139  1  0  0  0
 63 65  1  0  0  0
 63140  1  0  0  0
 63141  1  0  0  0
 63142  1  0  0  0
 64143  1  0  0  0
 65144  1  0  0  0
 68 82  1  0  0  0
 71 72  2  0  0  0
 71 74  1  0  0  0
 71145  1  0  0  0
 72 73  1  0  0  0
 72 79  1  0  0  0
 73 75  2  0  0  0
 73 81  1  0  0  0
 74 82  1  0  0  0
 74 83  2  0  0  0
 75 80  1  0  0  0
 75 83  1  0  0  0
 76 78  1  0  0  0
 76 85  1  0  0  0
 76146  1  0  0  0
 76147  1  0  0  0
 77 78  1  0  0  0
 77 85  1  0  0  0
 77148  1  0  0  0
 77149  1  0  0  0
 78 84  1  0  0  0
 78150  1  0  0  0
 79151  1  0  0  0
 79152  1  0  0  0
 79153  1  0  0  0
 80154  1  0  0  0
 80155  1  0  0  0
 80156  1  0  0  0
 81157  1  0  0  0
 81158  1  0  0  0
 81 85  1  0  0  0
 82159  1  0  0  0
 82160  1  0  0  0
 84161  1  0  0  0
 85162  1  0  0  0
M  CHG  1  85   1
M  ISO  4   1 100  68 101  82 101  84 100
M  END
> <chiral flag>
0

> <version>
0

> <s_m_source_file>
/data/baiqing/PycharmProjects/Reinvent-master-3.2/result/LINK_invent/BTK/process_docking_weight1_custom_sum_contain_oxygen_bond_distance_aromatic_linkinvent_7_9_3/rearranged_h_0179.sdf

> <i_m_source_file_index>
39

> <r_mmod_Potential_Energy-OPLS-2005>
-216.805770874023

> <r_mmod_Stretch_Energy-OPLS-2005>
55.5171928405762

> <r_mmod_Bend_Energy-OPLS-2005>
155.140411376953

> <r_mmod_Torsional_Energy-OPLS-2005>
261.663238525391

> <r_mmod_Improper_Torsional_Energy-OPLS-2005>
7.99390363693237

> <r_mmod_Van_der_Waal_Energy-OPLS-2005>
146.668060302734

> <r_mmod_Electrostatic_Energy-OPLS-2005>
-386.318450927734

> <r_mmod_Solvation_Energy-OPLS-2005>
-482.780456542969

> <b_mmod_Minimization_Converged-OPLS-2005>
0

> <r_mmod_RMS_Derivative-OPLS-2005>
0.937098383903503

$$$$
39
                    3D
 Structure written by MMmdl.
155163  0  0  1  0            999 V2000
  -30.6407  -14.7102   20.4507 C   0  0  0  0  0  0
  -30.4229  -12.4255   19.4817 C   0  0  0  0  0  0
  -29.5105  -12.5036   18.2390 C   0  0  0  0  0  0
  -28.0334  -12.3421   18.6451 C   0  0  0  0  0  0
  -27.6434  -13.2358   19.8535 C   0  0  2  0  0  0
  -28.6858  -13.1629   20.9910 C   0  0  0  0  0  0
  -25.2510  -13.8219   20.5692 C   0  0  0  0  0  0
  -24.1805  -13.0453   20.9197 C   0  0  0  0  0  0
  -24.6401  -11.6933   20.8740 C   0  0  0  0  0  0
  -23.9080  -10.4304   21.0398 C   0  0  0  0  0  0
  -24.3633   -9.4219   21.9173 C   0  0  0  0  0  0
  -23.6309   -8.2254   22.0749 C   0  0  0  0  0  0
  -22.4288   -8.0292   21.3545 C   0  0  0  0  0  0
  -21.9925   -9.0264   20.4645 C   0  0  0  0  0  0
  -22.7253  -10.2143   20.3050 C   0  0  0  0  0  0
  -21.6863   -6.0743   22.5276 C   0  0  0  0  0  0
  -21.4019   -6.5641   23.8210 C   0  0  0  0  0  0
  -21.3660   -5.6790   24.9169 C   0  0  0  0  0  0
  -21.6046   -4.3054   24.7218 C   0  0  0  0  0  0
  -21.8821   -3.8150   23.4338 C   0  0  0  0  0  0
  -21.9195   -4.6970   22.3398 C   0  0  0  0  0  0
  -22.7825  -13.5225   21.1859 C   0  0  0  0  0  0
  -22.1667   -4.2158   21.0977 F   0  0  0  0  0  0
  -21.5626   -3.4534   25.7728 F   0  0  0  0  0  0
  -29.9949  -13.4939   20.4151 N   0  0  0  0  0  0
  -26.2945  -12.9435   20.3288 N   0  0  0  0  0  0
  -25.9337  -11.6571   20.5753 N   0  0  0  0  0  0
  -22.0480  -12.8209   22.0417 N   0  0  0  0  0  0
  -25.4194  -15.1946   20.4105 N   0  0  0  0  0  0
  -31.8345  -14.7577   20.1362 O   0  0  0  0  0  0
  -21.6652   -6.8890   21.4239 O   0  0  0  0  0  0
  -22.3504  -14.5529   20.6710 O   0  0  0  0  0  0
  -24.6302  -31.8571   23.2000 C   0  0  0  0  0  0
  -25.9136  -32.4759   23.8339 C   0  0  1  0  0  0
  -27.2119  -27.2667   20.1212 C   0  0  0  0  0  0
  -25.5938  -33.8562   24.2255 N   0  0  0  0  0  0
  -23.4259  -30.4821   21.5431 C   0  0  2  0  0  0
  -24.8709  -28.9342   20.1058 C   0  0  0  0  0  0
  -22.7497  -29.4615   22.4907 C   0  0  0  0  0  0
  -18.0297  -28.1391   22.8474 C   0  0  0  0  0  0
  -24.1493  -36.7288   23.2637 C   0  0  0  0  0  0
  -25.9725  -30.7677   21.3837 C   0  0  0  0  0  0
  -26.0413  -29.3929   20.7231 C   0  0  0  0  0  0
  -27.2117  -28.5689   20.7257 C   0  0  0  0  0  0
  -26.0248  -26.8914   19.4487 C   0  0  0  0  0  0
  -24.8681  -27.6918   19.4579 C   0  0  0  0  0  0
  -23.6429  -29.8211   20.1574 C   0  0  0  0  0  0
  -25.4122  -36.3073   24.0324 C   0  0  1  0  0  0
  -20.5896  -28.3706   23.1262 C   0  0  2  0  0  0
  -20.6784  -26.9422   22.5405 C   0  0  0  0  0  0
  -19.5762  -26.6385   21.5209 C   0  0  0  0  0  0
  -18.1941  -26.7932   22.1619 C   0  0  0  0  0  0
  -19.1548  -28.8866   23.2862 C   0  0  0  0  0  0
  -18.9469  -30.1461   23.8887 C   0  0  0  0  0  0
  -17.6468  -30.6589   24.0563 C   0  0  0  0  0  0
  -25.9063  -34.9443   23.5091 C   0  0  0  0  0  0
  -16.5359  -29.9088   23.6328 C   0  0  0  0  0  0
  -16.7281  -28.6508   23.0345 C   0  0  0  0  0  0
  -26.4501  -31.6582   25.0729 C   0  0  0  0  0  0
  -25.3718  -31.3744   26.1444 C   0  0  0  0  0  0
  -27.0349  -30.2997   24.6222 C   0  0  0  0  0  0
  -27.6038  -32.4334   25.7513 C   0  0  0  0  0  0
  -27.5584  -37.1801   24.8464 C   0  0  0  0  0  0
  -21.4206  -29.3054   22.3652 N   0  0  0  0  0  0
  -26.4295  -37.3773   23.9409 N   0  0  0  0  0  0
  -24.6950  -31.0542   22.0979 N   0  0  0  0  0  0
  -23.4200  -28.8148   23.3000 O   0  0  0  0  0  0
  -28.3025  -26.3688   20.2111 O   0  0  0  0  0  0
  -26.5637  -34.8914   22.4661 O   0  0  0  0  0  0
  -23.5455  -32.1393   23.7302 O   0  0  0  0  0  0
  -30.6558  -19.8596   19.2356 C   0  0  0  0  0  0
  -29.5028  -18.4160   20.7934 C   0  0  0  0  0  0
  -29.7582  -19.7670   20.3155 C   0  0  0  0  0  0
  -31.2371  -18.6942   18.7088 C   0  0  0  0  0  0
  -30.1491  -17.2462   20.2224 C   0  0  0  0  0  0
  -32.2267  -18.7855   17.5665 C   0  0  0  0  0  0
  -29.2410  -21.1170   20.9746 C   0  0  0  0  0  0
  -28.9435  -23.7434   20.6428 C   0  0  0  0  0  0
  -28.1212  -24.9088   19.8864 C   0  0  0  0  0  0
  -30.9867  -17.4546   19.1795 N   0  0  0  0  0  0
  -29.9057  -15.8632   20.6924 N   0  0  0  0  0  0
  -28.8610  -22.3052   20.0856 N   0  3  0  0  0  0
  -31.4689  -12.5209   19.1857 H   0  0  0  0  0  0
  -30.3409  -11.4479   19.9591 H   0  0  0  0  0  0
  -29.7869  -11.7330   17.5183 H   0  0  0  0  0  0
  -29.6537  -13.4611   17.7354 H   0  0  0  0  0  0
  -27.8746  -11.2927   18.8950 H   0  0  0  0  0  0
  -27.3835  -12.5522   17.7949 H   0  0  0  0  0  0
  -27.6409  -14.2602   19.4800 H   0  0  0  0  0  0
  -28.7066  -12.1667   21.4349 H   0  0  0  0  0  0
  -28.4278  -13.8495   21.7988 H   0  0  0  0  0  0
  -25.2781   -9.5698   22.4742 H   0  0  0  0  0  0
  -24.0025   -7.4646   22.7468 H   0  0  0  0  0  0
  -21.0857   -8.8781   19.8949 H   0  0  0  0  0  0
  -22.3711  -10.9680   19.6159 H   0  0  0  0  0  0
  -21.2015   -7.6149   23.9715 H   0  0  0  0  0  0
  -21.1480   -6.0518   25.9070 H   0  0  0  0  0  0
  -22.0600   -2.7614   23.2832 H   0  0  0  0  0  0
  -22.4112  -11.9880   22.4814 H   0  0  0  0  0  0
  -21.1086  -13.1214   22.2609 H   0  0  0  0  0  0
  -24.6492  -15.8460   20.5160 H   0  0  0  0  0  0
  -26.2624  -15.6347   20.0643 H   0  0  0  0  0  0
  -26.7197  -32.5405   23.1076 H   0  0  0  0  0  0
  -25.0072  -33.9703   25.0390 H   0  0  0  0  0  0
  -22.7213  -31.3044   21.4002 H   0  0  0  0  0  0
  -23.3755  -35.9620   23.3295 H   0  0  0  0  0  0
  -24.3583  -36.8917   22.2052 H   0  0  0  0  0  0
  -23.7245  -37.6487   23.6666 H   0  0  0  0  0  0
  -26.1181  -31.5297   20.6171 H   0  0  0  0  0  0
  -26.8479  -30.8107   22.0195 H   0  0  0  0  0  0
  -28.1022  -28.9099   21.2344 H   0  0  0  0  0  0
  -25.9480  -25.9600   18.9084 H   0  0  0  0  0  0
  -23.9769  -27.3430   18.9537 H   0  0  0  0  0  0
  -23.7683  -30.6000   19.4048 H   0  0  0  0  0  0
  -22.7604  -29.2578   19.8495 H   0  0  0  0  0  0
  -25.1301  -36.1921   25.0817 H   0  0  0  0  0  0
  -20.9986  -28.3291   24.1385 H   0  0  0  0  0  0
  -20.5687  -26.2322   23.3613 H   0  0  0  0  0  0
  -21.6652  -26.7454   22.1198 H   0  0  0  0  0  0
  -19.6930  -25.6293   21.1248 H   0  0  0  0  0  0
  -19.6697  -27.3185   20.6729 H   0  0  0  0  0  0
  -17.4209  -26.6666   21.4025 H   0  0  0  0  0  0
  -18.0350  -26.0077   22.9024 H   0  0  0  0  0  0
  -19.7947  -30.7280   24.2248 H   0  0  0  0  0  0
  -17.5028  -31.6266   24.5172 H   0  0  0  0  0  0
  -15.5362  -30.2995   23.7658 H   0  0  0  0  0  0
  -15.8678  -28.0833   22.7060 H   0  0  0  0  0  0
  -24.5893  -30.7093   25.7777 H   0  0  0  0  0  0
  -24.8912  -32.2919   26.4850 H   0  0  0  0  0  0
  -25.8032  -30.8936   27.0233 H   0  0  0  0  0  0
  -26.2935  -29.6750   24.1225 H   0  0  0  0  0  0
  -27.4001  -29.7257   25.4748 H   0  0  0  0  0  0
  -27.8829  -30.4269   23.9489 H   0  0  0  0  0  0
  -27.2620  -33.3631   26.2082 H   0  0  0  0  0  0
  -28.3861  -32.6909   25.0358 H   0  0  0  0  0  0
  -28.0693  -31.8471   26.5445 H   0  0  0  0  0  0
  -28.2591  -38.0106   24.7515 H   0  0  0  0  0  0
  -28.1087  -36.2637   24.6282 H   0  0  0  0  0  0
  -27.2300  -37.1439   25.8864 H   0  0  0  0  0  0
  -20.9393  -29.8778   21.6855 H   0  0  0  0  0  0
  -26.0170  -38.2848   24.1406 H   0  0  0  0  0  0
  -30.9406  -20.8200   18.8277 H   0  0  0  0  0  0
  -28.8365  -18.2840   21.6350 H   0  0  0  0  0  0
  -33.0370  -19.4682   17.8213 H   0  0  0  0  0  0
  -31.7344  -19.1587   16.6689 H   0  0  0  0  0  0
  -32.6672  -17.8150   17.3345 H   0  0  0  0  0  0
  -30.0399  -21.4498   21.6370 H   0  0  0  0  0  0
  -28.3969  -20.8893   21.6257 H   0  0  0  0  0  0
  -28.6094  -23.7239   21.6807 H   0  0  0  0  0  0
  -29.9970  -24.0214   20.6731 H   0  0  0  0  0  0
  -27.0821  -24.6264   20.0448 H   0  0  0  0  0  0
  -28.2997  -24.8134   18.8151 H   0  0  0  0  0  0
  -29.0054  -15.7092   21.1159 H   0  0  0  0  0  0
  -27.9223  -22.1196   19.7708 H   0  0  0  0  0  0
  -29.4478  -22.2532   19.2693 H   0  0  0  0  0  0
  1 25  1  0  0  0
  1 30  2  0  0  0
  1 81  1  0  0  0
  2  3  1  0  0  0
  2 25  1  0  0  0
  2 83  1  0  0  0
  2 84  1  0  0  0
  3  4  1  0  0  0
  3 85  1  0  0  0
  3 86  1  0  0  0
  4  5  1  0  0  0
  4 87  1  0  0  0
  4 88  1  0  0  0
  5  6  1  0  0  0
  5 26  1  0  0  0
  5 89  1  0  0  0
  6 25  1  0  0  0
  6 90  1  0  0  0
  6 91  1  0  0  0
  7  8  2  0  0  0
  7 26  1  0  0  0
  7 29  1  0  0  0
  8  9  1  0  0  0
  8 22  1  0  0  0
  9 10  1  0  0  0
  9 27  2  0  0  0
 10 11  2  0  0  0
 10 15  1  0  0  0
 11 12  1  0  0  0
 11 92  1  0  0  0
 12 13  2  0  0  0
 12 93  1  0  0  0
 13 14  1  0  0  0
 13 31  1  0  0  0
 14 15  2  0  0  0
 14 94  1  0  0  0
 15 95  1  0  0  0
 16 17  2  0  0  0
 16 21  1  0  0  0
 16 31  1  0  0  0
 17 18  1  0  0  0
 17 96  1  0  0  0
 18 19  2  0  0  0
 18 97  1  0  0  0
 19 20  1  0  0  0
 19 24  1  0  0  0
 20 21  2  0  0  0
 20 98  1  0  0  0
 21 23  1  0  0  0
 22 28  1  0  0  0
 22 32  2  0  0  0
 26 27  1  0  0  0
 28 99  1  0  0  0
 28100  1  0  0  0
 29101  1  0  0  0
 29102  1  0  0  0
 33 34  1  0  0  0
 33 66  1  0  0  0
 33 70  2  0  0  0
 34 36  1  0  0  0
 34 59  1  0  0  0
 34103  1  0  0  0
 35 44  2  0  0  0
 35 45  1  0  0  0
 35 68  1  0  0  0
 36 56  1  0  0  0
 36104  1  0  0  0
 37 39  1  0  0  0
 37 47  1  0  0  0
 37 66  1  0  0  0
 37105  1  0  0  0
 38 43  2  0  0  0
 38 46  1  0  0  0
 38 47  1  0  0  0
 39 64  1  0  0  0
 39 67  2  0  0  0
 40 52  1  0  0  0
 40 53  2  0  0  0
 40 58  1  0  0  0
 41106  1  0  0  0
 41107  1  0  0  0
 41108  1  0  0  0
 41 48  1  0  0  0
 42 43  1  0  0  0
 42 66  1  0  0  0
 42109  1  0  0  0
 42110  1  0  0  0
 43 44  1  0  0  0
 44111  1  0  0  0
 45 46  2  0  0  0
 45112  1  0  0  0
 46113  1  0  0  0
 47114  1  0  0  0
 47115  1  0  0  0
 48 56  1  0  0  0
 48 65  1  0  0  0
 48116  1  0  0  0
 49 50  1  0  0  0
 49 53  1  0  0  0
 49 64  1  0  0  0
 49117  1  0  0  0
 50 51  1  0  0  0
 50118  1  0  0  0
 50119  1  0  0  0
 51 52  1  0  0  0
 51120  1  0  0  0
 51121  1  0  0  0
 52122  1  0  0  0
 52123  1  0  0  0
 53 54  1  0  0  0
 54 55  2  0  0  0
 54124  1  0  0  0
 55 57  1  0  0  0
 55125  1  0  0  0
 56 69  2  0  0  0
 57 58  2  0  0  0
 57126  1  0  0  0
 58127  1  0  0  0
 59 60  1  0  0  0
 59 61  1  0  0  0
 59 62  1  0  0  0
 60128  1  0  0  0
 60129  1  0  0  0
 60130  1  0  0  0
 61131  1  0  0  0
 61132  1  0  0  0
 61133  1  0  0  0
 62134  1  0  0  0
 62135  1  0  0  0
 62136  1  0  0  0
 63 65  1  0  0  0
 63137  1  0  0  0
 63138  1  0  0  0
 63139  1  0  0  0
 64140  1  0  0  0
 65141  1  0  0  0
 68 79  1  0  0  0
 71 73  2  0  0  0
 71 74  1  0  0  0
 71142  1  0  0  0
 72 73  1  0  0  0
 72 75  2  0  0  0
 72143  1  0  0  0
 73 77  1  0  0  0
 74 76  1  0  0  0
 74 80  2  0  0  0
 75 80  1  0  0  0
 75 81  1  0  0  0
 76144  1  0  0  0
 76145  1  0  0  0
 76146  1  0  0  0
 77 82  1  0  0  0
 77147  1  0  0  0
 77148  1  0  0  0
 78 79  1  0  0  0
 78 82  1  0  0  0
 78149  1  0  0  0
 78150  1  0  0  0
 79151  1  0  0  0
 79152  1  0  0  0
 81153  1  0  0  0
 82154  1  0  0  0
 82155  1  0  0  0
M  CHG  1  82   1
M  ISO  4   1 100  68 101  79 101  81 100
M  END
> <chiral flag>
0

> <version>
0

> <s_m_source_file>
/data/baiqing/PycharmProjects/Reinvent-master-3.2/result/LINK_invent/BTK/process_docking_weight1_custom_sum_contain_oxygen_bond_distance_aromatic_linkinvent_7_9_3/rearranged_h_0179.sdf

> <i_m_source_file_index>
40

> <r_mmod_Potential_Energy-OPLS-2005>
-238.598876953125

> <r_mmod_Stretch_Energy-OPLS-2005>
112.653991699219

> <r_mmod_Bend_Energy-OPLS-2005>
156.121780395508

> <r_mmod_Torsional_Energy-OPLS-2005>
213.715896606445

> <r_mmod_Improper_Torsional_Energy-OPLS-2005>
4.14496231079102

> <r_mmod_Van_der_Waal_Energy-OPLS-2005>
145.993347167969

> <r_mmod_Electrostatic_Energy-OPLS-2005>
-437.397338867188

> <r_mmod_Solvation_Energy-OPLS-2005>
-512.096618652344

> <b_mmod_Minimization_Converged-OPLS-2005>
0

> <r_mmod_RMS_Derivative-OPLS-2005>
0.88646388053894

$$$$
40
                    3D
 Structure written by MMmdl.
165175  0  0  1  0            999 V2000
  -30.5753  -14.9520   20.4523 C   0  0  0  0  0  0
  -30.4361  -12.6014   19.4947 C   0  0  0  0  0  0
  -29.5154  -12.5381   18.2538 C   0  0  0  0  0  0
  -28.0490  -12.3234   18.6717 C   0  0  0  0  0  0
  -27.6294  -13.2477   19.8440 C   0  0  2  0  0  0
  -28.6777  -13.2521   20.9780 C   0  0  0  0  0  0
  -25.2400  -13.8191   20.5666 C   0  0  0  0  0  0
  -24.1749  -13.0411   20.9236 C   0  0  0  0  0  0
  -24.6392  -11.6911   20.8779 C   0  0  0  0  0  0
  -23.9083  -10.4280   21.0421 C   0  0  0  0  0  0
  -24.3629   -9.4194   21.9196 C   0  0  0  0  0  0
  -23.6299   -8.2231   22.0757 C   0  0  0  0  0  0
  -22.4280   -8.0276   21.3545 C   0  0  0  0  0  0
  -21.9924   -9.0252   20.4646 C   0  0  0  0  0  0
  -22.7258  -10.2128   20.3063 C   0  0  0  0  0  0
  -21.6853   -6.0736   22.5278 C   0  0  0  0  0  0
  -21.4012   -6.5640   23.8212 C   0  0  0  0  0  0
  -21.3658   -5.6793   24.9175 C   0  0  0  0  0  0
  -21.6044   -4.3056   24.7225 C   0  0  0  0  0  0
  -21.8820   -3.8148   23.4346 C   0  0  0  0  0  0
  -21.9192   -4.6964   22.3402 C   0  0  0  0  0  0
  -22.7767  -13.5180   21.1887 C   0  0  0  0  0  0
  -22.1661   -4.2150   21.0980 F   0  0  0  0  0  0
  -21.5629   -3.4539   25.7738 F   0  0  0  0  0  0
  -29.9446  -13.7021   20.3806 N   0  0  0  0  0  0
  -26.2873  -12.9449   20.3277 N   0  0  0  0  0  0
  -25.9331  -11.6577   20.5787 N   0  0  0  0  0  0
  -22.0427  -12.8169   22.0452 N   0  0  0  0  0  0
  -25.3924  -15.1909   20.3960 N   0  0  0  0  0  0
  -31.7687  -14.9713   20.1265 O   0  0  0  0  0  0
  -21.6639   -6.8879   21.4241 O   0  0  0  0  0  0
  -22.3446  -14.5483   20.6733 O   0  0  0  0  0  0
  -24.6431  -31.8442   23.1886 C   0  0  0  0  0  0
  -25.9206  -32.4695   23.8275 C   0  0  1  0  0  0
  -27.2182  -27.1382   20.1639 C   0  0  0  0  0  0
  -25.5952  -33.8501   24.2189 N   0  0  0  0  0  0
  -23.4478  -30.4624   21.5335 C   0  0  2  0  0  0
  -24.9001  -28.8873   20.1143 C   0  0  0  0  0  0
  -22.7573  -29.4538   22.4858 C   0  0  0  0  0  0
  -18.0305  -28.1394   22.8475 C   0  0  0  0  0  0
  -24.1492  -36.7255   23.2645 C   0  0  0  0  0  0
  -26.0034  -30.7179   21.3892 C   0  0  0  0  0  0
  -26.0764  -29.3268   20.7372 C   0  0  0  0  0  0
  -27.2397  -28.4679   20.7465 C   0  0  0  0  0  0
  -26.0254  -26.8062   19.4888 C   0  0  0  0  0  0
  -24.8857  -27.6385   19.4752 C   0  0  0  0  0  0
  -23.6770  -29.7906   20.1539 C   0  0  0  0  0  0
  -25.4120  -36.3028   24.0318 C   0  0  1  0  0  0
  -20.5920  -28.3720   23.1235 C   0  0  2  0  0  0
  -20.6790  -26.9422   22.5403 C   0  0  0  0  0  0
  -19.5762  -26.6379   21.5211 C   0  0  0  0  0  0
  -18.1943  -26.7932   22.1624 C   0  0  0  0  0  0
  -19.1562  -28.8874   23.2848 C   0  0  0  0  0  0
  -18.9481  -30.1471   23.8874 C   0  0  0  0  0  0
  -17.6479  -30.6593   24.0556 C   0  0  0  0  0  0
  -25.9072  -34.9405   23.5060 C   0  0  0  0  0  0
  -16.5370  -29.9086   23.6336 C   0  0  0  0  0  0
  -16.7290  -28.6505   23.0355 C   0  0  0  0  0  0
  -26.4525  -31.6558   25.0715 C   0  0  0  0  0  0
  -25.3705  -31.3749   26.1409 C   0  0  0  0  0  0
  -27.0395  -30.2952   24.6296 C   0  0  0  0  0  0
  -27.6050  -32.4332   25.7504 C   0  0  0  0  0  0
  -27.5574  -37.1781   24.8466 C   0  0  0  0  0  0
  -21.4263  -29.3047   22.3609 N   0  0  0  0  0  0
  -26.4282  -37.3740   23.9412 N   0  0  0  0  0  0
  -24.7175  -31.0298   22.0921 N   0  0  0  0  0  0
  -23.4212  -28.8086   23.3011 O   0  0  0  0  0  0
  -28.2612  -26.1403   20.1595 O   0  0  0  0  0  0
  -26.5662  -34.8903   22.4642 O   0  0  0  0  0  0
  -23.5549  -32.1323   23.7099 O   0  0  0  0  0  0
  -27.9885  -22.3853   19.4603 C   0  0  0  0  0  0
  -28.5549  -23.2787   20.4103 C   0  0  0  0  0  0
  -29.4076  -22.5636   21.2697 C   0  0  0  0  0  0
  -29.0859  -20.4043   20.3139 C   0  0  0  0  0  0
  -28.4375  -18.0342   21.5514 C   0  0  0  0  0  0
  -29.3059  -24.8964   22.0000 C   0  0  0  0  0  0
  -28.6824  -16.4842   21.3995 C   0  0  0  0  0  0
  -30.2980  -17.6429   20.1515 C   0  0  0  0  0  0
  -29.1042  -18.7364   20.3656 C   0  0  2  0  0  0
  -28.1761  -24.7826   20.9277 C   0  0  1  0  0  0
  -29.9156  -23.4862   22.3630 C   0  0  0  0  0  0
  -26.8103  -24.6771   21.6431 C   0  0  0  0  0  0
  -31.4555  -23.5376   22.3564 C   0  0  0  0  0  0
  -29.4121  -23.0207   23.7423 C   0  0  0  0  0  0
  -28.2572  -21.0187   19.4279 N   0  0  0  0  0  0
  -29.6793  -21.1957   21.2411 N   0  0  0  0  0  0
  -29.8746  -16.2036   20.5711 N   0  0  0  0  0  0
  -31.4676  -12.7542   19.1736 H   0  0  0  0  0  0
  -30.4373  -11.6477   20.0248 H   0  0  0  0  0  0
  -29.8348  -11.7388   17.5836 H   0  0  0  0  0  0
  -29.6017  -13.4664   17.6871 H   0  0  0  0  0  0
  -27.9426  -11.2802   18.9712 H   0  0  0  0  0  0
  -27.3847  -12.4643   17.8184 H   0  0  0  0  0  0
  -27.5963  -14.2527   19.4239 H   0  0  0  0  0  0
  -28.7787  -12.2566   21.4126 H   0  0  0  0  0  0
  -28.3688  -13.8939   21.7997 H   0  0  0  0  0  0
  -25.2769   -9.5669   22.4778 H   0  0  0  0  0  0
  -24.0003   -7.4621   22.7476 H   0  0  0  0  0  0
  -21.0855   -8.8779   19.8948 H   0  0  0  0  0  0
  -22.3720  -10.9673   19.6176 H   0  0  0  0  0  0
  -21.2004   -7.6148   23.9716 H   0  0  0  0  0  0
  -21.1479   -6.0523   25.9078 H   0  0  0  0  0  0
  -22.0601   -2.7610   23.2847 H   0  0  0  0  0  0
  -22.4056  -11.9838   22.4843 H   0  0  0  0  0  0
  -21.1045  -13.1185   22.2664 H   0  0  0  0  0  0
  -24.6118  -15.8308   20.4940 H   0  0  0  0  0  0
  -26.2232  -15.6335   20.0270 H   0  0  0  0  0  0
  -26.7271  -32.5311   23.1008 H   0  0  0  0  0  0
  -25.0067  -33.9610   25.0314 H   0  0  0  0  0  0
  -22.7499  -31.2876   21.3772 H   0  0  0  0  0  0
  -23.3756  -35.9587   23.3294 H   0  0  0  0  0  0
  -24.3577  -36.8901   22.2063 H   0  0  0  0  0  0
  -23.7245  -37.6445   23.6693 H   0  0  0  0  0  0
  -26.1583  -31.4701   20.6145 H   0  0  0  0  0  0
  -26.8735  -30.7708   22.0314 H   0  0  0  0  0  0
  -28.1387  -28.8008   21.2462 H   0  0  0  0  0  0
  -25.9604  -25.8491   18.9910 H   0  0  0  0  0  0
  -23.9910  -27.2981   18.9724 H   0  0  0  0  0  0
  -23.8165  -30.5651   19.3987 H   0  0  0  0  0  0
  -22.7919  -29.2339   19.8410 H   0  0  0  0  0  0
  -25.1305  -36.1854   25.0809 H   0  0  0  0  0  0
  -21.0009  -28.3312   24.1356 H   0  0  0  0  0  0
  -20.5686  -26.2332   23.3622 H   0  0  0  0  0  0
  -21.6654  -26.7425   22.1198 H   0  0  0  0  0  0
  -19.6923  -25.6281   21.1257 H   0  0  0  0  0  0
  -19.6698  -27.3177   20.6730 H   0  0  0  0  0  0
  -17.4209  -26.6677   21.4032 H   0  0  0  0  0  0
  -18.0339  -26.0081   22.9026 H   0  0  0  0  0  0
  -19.7959  -30.7288   24.2236 H   0  0  0  0  0  0
  -17.5035  -31.6271   24.5162 H   0  0  0  0  0  0
  -15.5369  -30.2981   23.7672 H   0  0  0  0  0  0
  -15.8690  -28.0818   22.7080 H   0  0  0  0  0  0
  -24.5892  -30.7092   25.7725 H   0  0  0  0  0  0
  -24.8891  -32.2936   26.4775 H   0  0  0  0  0  0
  -25.7987  -30.8959   27.0224 H   0  0  0  0  0  0
  -26.3016  -29.6671   24.1296 H   0  0  0  0  0  0
  -27.3997  -29.7254   25.4871 H   0  0  0  0  0  0
  -27.8926  -30.4185   23.9623 H   0  0  0  0  0  0
  -27.2632  -33.3652   26.2018 H   0  0  0  0  0  0
  -28.3892  -32.6862   25.0357 H   0  0  0  0  0  0
  -28.0683  -31.8503   26.5474 H   0  0  0  0  0  0
  -28.2571  -38.0095   24.7511 H   0  0  0  0  0  0
  -28.1083  -36.2619   24.6286 H   0  0  0  0  0  0
  -27.2293  -37.1419   25.8870 H   0  0  0  0  0  0
  -20.9475  -29.8767   21.6793 H   0  0  0  0  0  0
  -26.0147  -38.2807   24.1420 H   0  0  0  0  0  0
  -27.2400  -22.7384   18.7664 H   0  0  0  0  0  0
  -28.9042  -18.3904   22.4706 H   0  0  0  0  0  0
  -27.3761  -18.2760   21.6195 H   0  0  0  0  0  0
  -29.0083  -25.4768   22.8744 H   0  0  0  0  0  0
  -30.1038  -25.4806   21.5388 H   0  0  0  0  0  0
  -27.8226  -16.0369   20.9112 H   0  0  0  0  0  0
  -28.7773  -16.0246   22.3843 H   0  0  0  0  0  0
  -31.1553  -17.9275   20.7626 H   0  0  0  0  0  0
  -30.6383  -17.6482   19.1157 H   0  0  0  0  0  0
  -28.4443  -18.5092   19.5274 H   0  0  0  0  0  0
  -26.7913  -23.8565   22.3587 H   0  0  0  0  0  0
  -26.0013  -24.4876   20.9386 H   0  0  0  0  0  0
  -26.5661  -25.5800   22.2037 H   0  0  0  0  0  0
  -31.8373  -23.8466   21.3826 H   0  0  0  0  0  0
  -31.8819  -22.5585   22.5760 H   0  0  0  0  0  0
  -31.8331  -24.2389   23.1007 H   0  0  0  0  0  0
  -28.3256  -22.9604   23.7773 H   0  0  0  0  0  0
  -29.7311  -23.7023   24.5311 H   0  0  0  0  0  0
  -29.7980  -22.0305   23.9860 H   0  0  0  0  0  0
  1 25  1  0  0  0
  1 30  2  0  0  0
  1 87  1  0  0  0
  2  3  1  0  0  0
  2 25  1  0  0  0
  2 88  1  0  0  0
  2 89  1  0  0  0
  3  4  1  0  0  0
  3 90  1  0  0  0
  3 91  1  0  0  0
  4  5  1  0  0  0
  4 92  1  0  0  0
  4 93  1  0  0  0
  5  6  1  0  0  0
  5 26  1  0  0  0
  5 94  1  0  0  0
  6 25  1  0  0  0
  6 95  1  0  0  0
  6 96  1  0  0  0
  7  8  2  0  0  0
  7 26  1  0  0  0
  7 29  1  0  0  0
  8  9  1  0  0  0
  8 22  1  0  0  0
  9 10  1  0  0  0
  9 27  2  0  0  0
 10 11  2  0  0  0
 10 15  1  0  0  0
 11 12  1  0  0  0
 11 97  1  0  0  0
 12 13  2  0  0  0
 12 98  1  0  0  0
 13 14  1  0  0  0
 13 31  1  0  0  0
 14 15  2  0  0  0
 14 99  1  0  0  0
 15100  1  0  0  0
 16 17  2  0  0  0
 16 21  1  0  0  0
 16 31  1  0  0  0
 17 18  1  0  0  0
 17101  1  0  0  0
 18 19  2  0  0  0
 18102  1  0  0  0
 19 20  1  0  0  0
 19 24  1  0  0  0
 20 21  2  0  0  0
 20103  1  0  0  0
 21 23  1  0  0  0
 22 28  1  0  0  0
 22 32  2  0  0  0
 26 27  1  0  0  0
 28104  1  0  0  0
 28105  1  0  0  0
 29106  1  0  0  0
 29107  1  0  0  0
 33 34  1  0  0  0
 33 66  1  0  0  0
 33 70  2  0  0  0
 34 36  1  0  0  0
 34 59  1  0  0  0
 34108  1  0  0  0
 35 44  2  0  0  0
 35 45  1  0  0  0
 35 68  1  0  0  0
 36 56  1  0  0  0
 36109  1  0  0  0
 37 39  1  0  0  0
 37 47  1  0  0  0
 37 66  1  0  0  0
 37110  1  0  0  0
 38 43  2  0  0  0
 38 46  1  0  0  0
 38 47  1  0  0  0
 39 64  1  0  0  0
 39 67  2  0  0  0
 40 52  1  0  0  0
 40 53  2  0  0  0
 40 58  1  0  0  0
 41111  1  0  0  0
 41112  1  0  0  0
 41113  1  0  0  0
 41 48  1  0  0  0
 42 43  1  0  0  0
 42 66  1  0  0  0
 42114  1  0  0  0
 42115  1  0  0  0
 43 44  1  0  0  0
 44116  1  0  0  0
 45 46  2  0  0  0
 45117  1  0  0  0
 46118  1  0  0  0
 47119  1  0  0  0
 47120  1  0  0  0
 48 56  1  0  0  0
 48 65  1  0  0  0
 48121  1  0  0  0
 49 50  1  0  0  0
 49 53  1  0  0  0
 49 64  1  0  0  0
 49122  1  0  0  0
 50 51  1  0  0  0
 50123  1  0  0  0
 50124  1  0  0  0
 51 52  1  0  0  0
 51125  1  0  0  0
 51126  1  0  0  0
 52127  1  0  0  0
 52128  1  0  0  0
 53 54  1  0  0  0
 54 55  2  0  0  0
 54129  1  0  0  0
 55 57  1  0  0  0
 55130  1  0  0  0
 56 69  2  0  0  0
 57 58  2  0  0  0
 57131  1  0  0  0
 58132  1  0  0  0
 59 60  1  0  0  0
 59 61  1  0  0  0
 59 62  1  0  0  0
 60133  1  0  0  0
 60134  1  0  0  0
 60135  1  0  0  0
 61136  1  0  0  0
 61137  1  0  0  0
 61138  1  0  0  0
 62139  1  0  0  0
 62140  1  0  0  0
 62141  1  0  0  0
 63 65  1  0  0  0
 63142  1  0  0  0
 63143  1  0  0  0
 63144  1  0  0  0
 64145  1  0  0  0
 65146  1  0  0  0
 68 80  1  0  0  0
 71 72  2  0  0  0
 71 85  1  0  0  0
 71147  1  0  0  0
 72 73  1  0  0  0
 72 80  1  0  0  0
 73 81  1  0  0  0
 73 86  2  0  0  0
 74 85  2  0  0  0
 74 86  1  0  0  0
 74 79  1  0  0  0
 75 77  1  0  0  0
 75 79  1  0  0  0
 75148  1  0  0  0
 75149  1  0  0  0
 76 80  1  0  0  0
 76 81  1  0  0  0
 76150  1  0  0  0
 76151  1  0  0  0
 77 87  1  0  0  0
 77152  1  0  0  0
 77153  1  0  0  0
 78 79  1  0  0  0
 78 87  1  0  0  0
 78154  1  0  0  0
 78155  1  0  0  0
 79156  1  0  0  0
 80 82  1  0  0  0
 81 83  1  0  0  0
 81 84  1  0  0  0
 82157  1  0  0  0
 82158  1  0  0  0
 82159  1  0  0  0
 83160  1  0  0  0
 83161  1  0  0  0
 83162  1  0  0  0
 84163  1  0  0  0
 84164  1  0  0  0
 84165  1  0  0  0
M  ISO  4   1 100  68 101  80 101  87 100
M  END
> <chiral flag>
0

> <version>
0

> <s_m_source_file>
/data/baiqing/PycharmProjects/Reinvent-master-3.2/result/LINK_invent/BTK/process_docking_weight1_custom_sum_contain_oxygen_bond_distance_aromatic_linkinvent_7_9_3/rearranged_h_0179.sdf

> <i_m_source_file_index>
41

> <r_mmod_Potential_Energy-OPLS-2005>
364.683227539062

> <r_mmod_Stretch_Energy-OPLS-2005>
226.890228271484

> <r_mmod_Bend_Energy-OPLS-2005>
371.674224853516

> <r_mmod_Torsional_Energy-OPLS-2005>
333.351684570312

> <r_mmod_Improper_Torsional_Energy-OPLS-2005>
13.1502523422241

> <r_mmod_Van_der_Waal_Energy-OPLS-2005>
132.217361450195

> <r_mmod_Electrostatic_Energy-OPLS-2005>
-679.407653808594

> <r_mmod_Solvation_Energy-OPLS-2005>
-219.965591430664

> <b_mmod_Minimization_Converged-OPLS-2005>
0

> <r_mmod_RMS_Derivative-OPLS-2005>
0.559493720531464

$$$$
41
                    3D
 Structure written by MMmdl.
160169  0  0  1  0            999 V2000
  -30.6174  -14.8230   20.4520 C   0  0  0  0  0  0
  -30.4252  -12.5005   19.5088 C   0  0  0  0  0  0
  -29.5114  -12.5143   18.2625 C   0  0  0  0  0  0
  -28.0432  -12.3195   18.6775 C   0  0  0  0  0  0
  -27.6369  -13.2448   19.8557 C   0  0  2  0  0  0
  -28.6772  -13.2378   21.0001 C   0  0  0  0  0  0
  -25.2469  -13.8220   20.5731 C   0  0  0  0  0  0
  -24.1775  -13.0444   20.9221 C   0  0  0  0  0  0
  -24.6391  -11.6926   20.8759 C   0  0  0  0  0  0
  -23.9073  -10.4290   21.0397 C   0  0  0  0  0  0
  -24.3626   -9.4205   21.9185 C   0  0  0  0  0  0
  -23.6299   -8.2240   22.0753 C   0  0  0  0  0  0
  -22.4287   -8.0279   21.3535 C   0  0  0  0  0  0
  -21.9920   -9.0245   20.4638 C   0  0  0  0  0  0
  -22.7246  -10.2130   20.3046 C   0  0  0  0  0  0
  -21.6854   -6.0737   22.5270 C   0  0  0  0  0  0
  -21.4015   -6.5647   23.8205 C   0  0  0  0  0  0
  -21.3665   -5.6796   24.9162 C   0  0  0  0  0  0
  -21.6041   -4.3059   24.7207 C   0  0  0  0  0  0
  -21.8814   -3.8150   23.4336 C   0  0  0  0  0  0
  -21.9198   -4.6967   22.3391 C   0  0  0  0  0  0
  -22.7791  -13.5198   21.1890 C   0  0  0  0  0  0
  -22.1661   -4.2159   21.0964 F   0  0  0  0  0  0
  -21.5634   -3.4536   25.7718 F   0  0  0  0  0  0
  -29.9795  -13.5920   20.4193 N   0  0  0  0  0  0
  -26.2914  -12.9459   20.3345 N   0  0  0  0  0  0
  -25.9333  -11.6581   20.5798 N   0  0  0  0  0  0
  -22.0476  -12.8148   22.0452 N   0  0  0  0  0  0
  -25.4130  -15.1935   20.4118 N   0  0  0  0  0  0
  -31.7930  -14.8751   20.0806 O   0  0  0  0  0  0
  -21.6651   -6.8876   21.4233 O   0  0  0  0  0  0
  -22.3448  -14.5514   20.6778 O   0  0  0  0  0  0
  -24.6413  -31.8500   23.1985 C   0  0  0  0  0  0
  -25.9210  -32.4762   23.8330 C   0  0  1  0  0  0
  -27.1991  -27.1864   20.1221 C   0  0  0  0  0  0
  -25.5991  -33.8553   24.2235 N   0  0  0  0  0  0
  -23.4401  -30.4785   21.5436 C   0  0  2  0  0  0
  -24.8831  -28.9268   20.1088 C   0  0  0  0  0  0
  -22.7563  -29.4585   22.4876 C   0  0  0  0  0  0
  -18.0291  -28.1410   22.8494 C   0  0  0  0  0  0
  -24.1471  -36.7260   23.2642 C   0  0  0  0  0  0
  -25.9970  -30.7368   21.3932 C   0  0  0  0  0  0
  -26.0628  -29.3575   20.7292 C   0  0  0  0  0  0
  -27.2233  -28.4992   20.7286 C   0  0  0  0  0  0
  -25.9953  -26.8664   19.4476 C   0  0  0  0  0  0
  -24.8592  -27.6911   19.4563 C   0  0  0  0  0  0
  -23.6610  -29.8235   20.1574 C   0  0  0  0  0  0
  -25.4105  -36.3058   24.0318 C   0  0  1  0  0  0
  -20.5912  -28.3720   23.1243 C   0  0  2  0  0  0
  -20.6788  -26.9434   22.5389 C   0  0  0  0  0  0
  -19.5744  -26.6370   21.5232 C   0  0  0  0  0  0
  -18.1919  -26.7966   22.1618 C   0  0  0  0  0  0
  -19.1562  -28.8890   23.2861 C   0  0  0  0  0  0
  -18.9487  -30.1490   23.8879 C   0  0  0  0  0  0
  -17.6485  -30.6623   24.0568 C   0  0  0  0  0  0
  -25.9052  -34.9441   23.5057 C   0  0  0  0  0  0
  -16.5371  -29.9102   23.6365 C   0  0  0  0  0  0
  -16.7281  -28.6517   23.0388 C   0  0  0  0  0  0
  -26.4521  -31.6643   25.0772 C   0  0  0  0  0  0
  -25.3700  -31.3860   26.1469 C   0  0  0  0  0  0
  -27.0447  -30.3080   24.6332 C   0  0  0  0  0  0
  -27.6020  -32.4453   25.7578 C   0  0  0  0  0  0
  -27.5559  -37.1795   24.8463 C   0  0  0  0  0  0
  -21.4252  -29.3081   22.3658 N   0  0  0  0  0  0
  -26.4266  -37.3777   23.9425 N   0  0  0  0  0  0
  -24.7128  -31.0404   22.1002 N   0  0  0  0  0  0
  -23.4237  -28.8064   23.2948 O   0  0  0  0  0  0
  -28.2285  -26.1867   20.2078 O   0  0  0  0  0  0
  -26.5590  -34.8923   22.4607 O   0  0  0  0  0  0
  -23.5545  -32.1321   23.7240 O   0  0  0  0  0  0
  -28.9291  -22.4042   19.1507 C   0  0  0  0  0  0
  -28.5946  -22.7270   21.4631 C   0  0  0  0  0  0
  -29.2643  -20.3885   20.6617 C   0  0  0  0  0  0
  -28.5751  -23.3373   20.1798 C   0  0  0  0  0  0
  -29.2624  -21.0082   19.3637 C   0  0  0  0  0  0
  -28.9077  -21.3328   21.6984 C   0  0  0  0  0  0
  -30.7918  -18.6299   21.9302 C   0  0  0  0  0  0
  -31.5447  -17.9497   20.7859 C   0  0  0  0  0  0
  -29.5642  -18.8053   21.0101 C   0  0  2  0  0  0
  -30.1918  -17.4755   20.2376 C   0  0  2  0  0  0
  -29.5520  -20.1690   18.1324 C   0  0  0  0  0  0
  -28.7887  -20.8632   23.1415 C   0  0  0  0  0  0
  -27.8418  -24.7480   19.8469 C   0  0  0  0  0  0
  -29.8957  -16.0070   20.6845 N   0  0  0  0  0  0
  -31.4672  -12.6104   19.2056 H   0  0  0  0  0  0
  -30.3697  -11.5374   20.0157 H   0  0  0  0  0  0
  -29.8083  -11.7289   17.5663 H   0  0  0  0  0  0
  -29.6235  -13.4589   17.7287 H   0  0  0  0  0  0
  -27.9227  -11.2766   18.9725 H   0  0  0  0  0  0
  -27.3785  -12.4722   17.8272 H   0  0  0  0  0  0
  -27.6167  -14.2558   19.4476 H   0  0  0  0  0  0
  -28.7196  -12.2626   21.4871 H   0  0  0  0  0  0
  -28.3922  -13.9524   21.7752 H   0  0  0  0  0  0
  -25.2768   -9.5685   22.4765 H   0  0  0  0  0  0
  -24.0017   -7.4623   22.7461 H   0  0  0  0  0  0
  -21.0871   -8.8754   19.8915 H   0  0  0  0  0  0
  -22.3715  -10.9669   19.6156 H   0  0  0  0  0  0
  -21.2006   -7.6160   23.9707 H   0  0  0  0  0  0
  -21.1496   -6.0528   25.9066 H   0  0  0  0  0  0
  -22.0594   -2.7617   23.2818 H   0  0  0  0  0  0
  -22.4153  -11.9798   22.4763 H   0  0  0  0  0  0
  -21.1094  -13.1123   22.2731 H   0  0  0  0  0  0
  -24.6378  -15.8400   20.5029 H   0  0  0  0  0  0
  -26.2551  -15.6356   20.0651 H   0  0  0  0  0  0
  -26.7263  -32.5364   23.1045 H   0  0  0  0  0  0
  -25.0332  -33.9690   25.0517 H   0  0  0  0  0  0
  -22.7430  -31.3056   21.3986 H   0  0  0  0  0  0
  -23.3758  -35.9567   23.3291 H   0  0  0  0  0  0
  -24.3558  -36.8900   22.2059 H   0  0  0  0  0  0
  -23.7176  -37.6436   23.6678 H   0  0  0  0  0  0
  -26.1534  -31.4924   20.6225 H   0  0  0  0  0  0
  -26.8683  -30.7768   22.0349 H   0  0  0  0  0  0
  -28.1177  -28.8176   21.2458 H   0  0  0  0  0  0
  -25.8647  -25.9378   18.9166 H   0  0  0  0  0  0
  -23.9600  -27.3589   18.9563 H   0  0  0  0  0  0
  -23.7994  -30.6033   19.4071 H   0  0  0  0  0  0
  -22.7741  -29.2694   19.8446 H   0  0  0  0  0  0
  -25.1284  -36.1896   25.0811 H   0  0  0  0  0  0
  -21.0003  -28.3279   24.1357 H   0  0  0  0  0  0
  -20.5729  -26.2323   23.3592 H   0  0  0  0  0  0
  -21.6630  -26.7458   22.1148 H   0  0  0  0  0  0
  -19.6888  -25.6262   21.1293 H   0  0  0  0  0  0
  -19.6693  -27.3147   20.6751 H   0  0  0  0  0  0
  -17.4198  -26.6768   21.4000 H   0  0  0  0  0  0
  -18.0257  -26.0092   22.8988 H   0  0  0  0  0  0
  -19.7973  -30.7321   24.2212 H   0  0  0  0  0  0
  -17.5050  -31.6322   24.5139 H   0  0  0  0  0  0
  -15.5376  -30.3014   23.7725 H   0  0  0  0  0  0
  -15.8664  -28.0845   22.7135 H   0  0  0  0  0  0
  -24.5841  -30.7249   25.7786 H   0  0  0  0  0  0
  -24.8944  -32.3085   26.4832 H   0  0  0  0  0  0
  -25.7953  -30.9065   27.0297 H   0  0  0  0  0  0
  -26.3119  -29.6798   24.1258 H   0  0  0  0  0  0
  -27.4048  -29.7370   25.4897 H   0  0  0  0  0  0
  -27.8988  -30.4404   23.9684 H   0  0  0  0  0  0
  -27.2574  -33.3782   26.2051 H   0  0  0  0  0  0
  -28.3896  -32.6987   25.0472 H   0  0  0  0  0  0
  -28.0603  -31.8672   26.5610 H   0  0  0  0  0  0
  -28.2554  -38.0118   24.7558 H   0  0  0  0  0  0
  -28.1082  -36.2655   24.6236 H   0  0  0  0  0  0
  -27.2285  -37.1350   25.8866 H   0  0  0  0  0  0
  -20.9424  -29.8926   21.6973 H   0  0  0  0  0  0
  -26.0133  -38.2837   24.1483 H   0  0  0  0  0  0
  -28.8683  -22.7617   18.1326 H   0  0  0  0  0  0
  -28.2720  -23.3363   22.2962 H   0  0  0  0  0  0
  -31.2717  -19.5505   22.2610 H   0  0  0  0  0  0
  -30.6137  -17.9541   22.7691 H   0  0  0  0  0  0
  -32.2453  -17.1838   21.1164 H   0  0  0  0  0  0
  -32.0345  -18.6644   20.1219 H   0  0  0  0  0  0
  -28.6657  -18.4620   21.5232 H   0  0  0  0  0  0
  -30.1306  -17.5696   19.1546 H   0  0  0  0  0  0
  -29.6828  -20.7905   17.2447 H   0  0  0  0  0  0
  -28.7289  -19.4799   17.9369 H   0  0  0  0  0  0
  -30.4691  -19.5968   18.2565 H   0  0  0  0  0  0
  -28.2892  -21.6069   23.7632 H   0  0  0  0  0  0
  -29.7718  -20.6904   23.5744 H   0  0  0  0  0  0
  -28.2050  -19.9475   23.2226 H   0  0  0  0  0  0
  -26.8588  -24.5775   20.2859 H   0  0  0  0  0  0
  -27.6904  -24.7394   18.7664 H   0  0  0  0  0  0
  -28.9608  -15.8583   21.0342 H   0  0  0  0  0  0
  1 25  1  0  0  0
  1 30  2  0  0  0
  1 84  1  0  0  0
  2  3  1  0  0  0
  2 25  1  0  0  0
  2 85  1  0  0  0
  2 86  1  0  0  0
  3  4  1  0  0  0
  3 87  1  0  0  0
  3 88  1  0  0  0
  4  5  1  0  0  0
  4 89  1  0  0  0
  4 90  1  0  0  0
  5  6  1  0  0  0
  5 26  1  0  0  0
  5 91  1  0  0  0
  6 25  1  0  0  0
  6 92  1  0  0  0
  6 93  1  0  0  0
  7  8  2  0  0  0
  7 26  1  0  0  0
  7 29  1  0  0  0
  8  9  1  0  0  0
  8 22  1  0  0  0
  9 10  1  0  0  0
  9 27  2  0  0  0
 10 11  2  0  0  0
 10 15  1  0  0  0
 11 12  1  0  0  0
 11 94  1  0  0  0
 12 13  2  0  0  0
 12 95  1  0  0  0
 13 14  1  0  0  0
 13 31  1  0  0  0
 14 15  2  0  0  0
 14 96  1  0  0  0
 15 97  1  0  0  0
 16 17  2  0  0  0
 16 21  1  0  0  0
 16 31  1  0  0  0
 17 18  1  0  0  0
 17 98  1  0  0  0
 18 19  2  0  0  0
 18 99  1  0  0  0
 19 20  1  0  0  0
 19 24  1  0  0  0
 20 21  2  0  0  0
 20100  1  0  0  0
 21 23  1  0  0  0
 22 28  1  0  0  0
 22 32  2  0  0  0
 26 27  1  0  0  0
 28101  1  0  0  0
 28102  1  0  0  0
 29103  1  0  0  0
 29104  1  0  0  0
 33 34  1  0  0  0
 33 66  1  0  0  0
 33 70  2  0  0  0
 34 36  1  0  0  0
 34 59  1  0  0  0
 34105  1  0  0  0
 35 44  2  0  0  0
 35 45  1  0  0  0
 35 68  1  0  0  0
 36 56  1  0  0  0
 36106  1  0  0  0
 37 39  1  0  0  0
 37 47  1  0  0  0
 37 66  1  0  0  0
 37107  1  0  0  0
 38 43  2  0  0  0
 38 46  1  0  0  0
 38 47  1  0  0  0
 39 64  1  0  0  0
 39 67  2  0  0  0
 40 52  1  0  0  0
 40 53  2  0  0  0
 40 58  1  0  0  0
 41108  1  0  0  0
 41109  1  0  0  0
 41110  1  0  0  0
 41 48  1  0  0  0
 42 43  1  0  0  0
 42 66  1  0  0  0
 42111  1  0  0  0
 42112  1  0  0  0
 43 44  1  0  0  0
 44113  1  0  0  0
 45 46  2  0  0  0
 45114  1  0  0  0
 46115  1  0  0  0
 47116  1  0  0  0
 47117  1  0  0  0
 48 56  1  0  0  0
 48 65  1  0  0  0
 48118  1  0  0  0
 49 50  1  0  0  0
 49 53  1  0  0  0
 49 64  1  0  0  0
 49119  1  0  0  0
 50 51  1  0  0  0
 50120  1  0  0  0
 50121  1  0  0  0
 51 52  1  0  0  0
 51122  1  0  0  0
 51123  1  0  0  0
 52124  1  0  0  0
 52125  1  0  0  0
 53 54  1  0  0  0
 54 55  2  0  0  0
 54126  1  0  0  0
 55 57  1  0  0  0
 55127  1  0  0  0
 56 69  2  0  0  0
 57 58  2  0  0  0
 57128  1  0  0  0
 58129  1  0  0  0
 59 60  1  0  0  0
 59 61  1  0  0  0
 59 62  1  0  0  0
 60130  1  0  0  0
 60131  1  0  0  0
 60132  1  0  0  0
 61133  1  0  0  0
 61134  1  0  0  0
 61135  1  0  0  0
 62136  1  0  0  0
 62137  1  0  0  0
 62138  1  0  0  0
 63 65  1  0  0  0
 63139  1  0  0  0
 63140  1  0  0  0
 63141  1  0  0  0
 64142  1  0  0  0
 65143  1  0  0  0
 68 83  1  0  0  0
 71 74  2  0  0  0
 71 75  1  0  0  0
 71144  1  0  0  0
 72 74  1  0  0  0
 72 76  2  0  0  0
 72145  1  0  0  0
 73 75  2  0  0  0
 73 76  1  0  0  0
 73 79  1  0  0  0
 74 83  1  0  0  0
 75 81  1  0  0  0
 76 82  1  0  0  0
 77 78  1  0  0  0
 77 79  1  0  0  0
 77146  1  0  0  0
 77147  1  0  0  0
 78 80  1  0  0  0
 78148  1  0  0  0
 78149  1  0  0  0
 79 80  1  0  0  0
 79150  1  0  0  0
 80 84  1  0  0  0
 80151  1  0  0  0
 81152  1  0  0  0
 81153  1  0  0  0
 81154  1  0  0  0
 82155  1  0  0  0
 82156  1  0  0  0
 82157  1  0  0  0
 83158  1  0  0  0
 83159  1  0  0  0
 84160  1  0  0  0
M  ISO  4   1 100  68 101  83 101  84 100
M  END
> <chiral flag>
0

> <version>
0

> <s_m_source_file>
/data/baiqing/PycharmProjects/Reinvent-master-3.2/result/LINK_invent/BTK/process_docking_weight1_custom_sum_contain_oxygen_bond_distance_aromatic_linkinvent_7_9_3/rearranged_h_0179.sdf

> <i_m_source_file_index>
42

> <r_mmod_Potential_Energy-OPLS-2005>
408.122924804688

> <r_mmod_Stretch_Energy-OPLS-2005>
186.904632568359

> <r_mmod_Bend_Energy-OPLS-2005>
246.174789428711

> <r_mmod_Torsional_Energy-OPLS-2005>
259.404724121094

> <r_mmod_Improper_Torsional_Energy-OPLS-2005>
9.06070518493652

> <r_mmod_Van_der_Waal_Energy-OPLS-2005>
148.790435791016

> <r_mmod_Electrostatic_Energy-OPLS-2005>
-370.842529296875

> <r_mmod_Solvation_Energy-OPLS-2005>
-208.552749633789

> <b_mmod_Minimization_Converged-OPLS-2005>
0

> <r_mmod_RMS_Derivative-OPLS-2005>
2.95325326919556

$$$$
42
                    3D
 Structure written by MMmdl.
162171  0  0  1  0            999 V2000
  -30.5235  -15.0027   20.4489 C   0  0  0  0  0  0
  -30.4396  -12.6177   19.5211 C   0  0  0  0  0  0
  -29.5314  -12.5473   18.2708 C   0  0  0  0  0  0
  -28.0668  -12.3099   18.6816 C   0  0  0  0  0  0
  -27.6293  -13.2445   19.8401 C   0  0  2  0  0  0
  -28.6626  -13.2643   20.9884 C   0  0  0  0  0  0
  -25.2392  -13.8069   20.5694 C   0  0  0  0  0  0
  -24.1703  -13.0322   20.9198 C   0  0  0  0  0  0
  -24.6369  -11.6815   20.8717 C   0  0  0  0  0  0
  -23.9059  -10.4225   21.0432 C   0  0  0  0  0  0
  -24.3616   -9.4140   21.9206 C   0  0  0  0  0  0
  -23.6271   -8.2195   22.0783 C   0  0  0  0  0  0
  -22.4244   -8.0258   21.3584 C   0  0  0  0  0  0
  -21.9894   -9.0216   20.4673 C   0  0  0  0  0  0
  -22.7238  -10.2082   20.3087 C   0  0  0  0  0  0
  -21.6831   -6.0725   22.5306 C   0  0  0  0  0  0
  -21.3964   -6.5629   23.8227 C   0  0  0  0  0  0
  -21.3665   -5.6786   24.9196 C   0  0  0  0  0  0
  -21.6077   -4.3061   24.7255 C   0  0  0  0  0  0
  -21.8791   -3.8128   23.4377 C   0  0  0  0  0  0
  -21.9160   -4.6939   22.3431 C   0  0  0  0  0  0
  -22.7743  -13.5136   21.1859 C   0  0  0  0  0  0
  -22.1633   -4.2118   21.1006 F   0  0  0  0  0  0
  -21.5669   -3.4553   25.7775 F   0  0  0  0  0  0
  -29.9427  -13.7184   20.4145 N   0  0  0  0  0  0
  -26.2870  -12.9371   20.3235 N   0  0  0  0  0  0
  -25.9325  -11.6494   20.5747 N   0  0  0  0  0  0
  -22.0370  -12.8186   22.0417 N   0  0  0  0  0  0
  -25.4004  -15.1769   20.4126 N   0  0  0  0  0  0
  -31.6729  -15.0767   19.9915 O   0  0  0  0  0  0
  -21.6613   -6.8856   21.4272 O   0  0  0  0  0  0
  -22.3475  -14.5477   20.6728 O   0  0  0  0  0  0
  -24.6446  -31.8384   23.1802 C   0  0  0  0  0  0
  -25.9193  -32.4660   23.8212 C   0  0  1  0  0  0
  -27.2302  -27.1021   20.1267 C   0  0  0  0  0  0
  -25.5941  -33.8485   24.2142 N   0  0  0  0  0  0
  -23.4508  -30.4522   21.5309 C   0  0  2  0  0  0
  -24.9011  -28.8647   20.1032 C   0  0  0  0  0  0
  -22.7574  -29.4535   22.4899 C   0  0  0  0  0  0
  -18.0324  -28.1414   22.8475 C   0  0  0  0  0  0
  -24.1492  -36.7227   23.2645 C   0  0  0  0  0  0
  -26.0064  -30.6907   21.3900 C   0  0  0  0  0  0
  -26.0744  -29.3006   20.7292 C   0  0  0  0  0  0
  -27.2284  -28.4270   20.7347 C   0  0  0  0  0  0
  -26.0327  -26.7680   19.4599 C   0  0  0  0  0  0
  -24.8931  -27.6118   19.4616 C   0  0  0  0  0  0
  -23.6722  -29.7651   20.1552 C   0  0  0  0  0  0
  -25.4141  -36.3033   24.0305 C   0  0  1  0  0  0
  -20.5912  -28.3738   23.1253 C   0  0  2  0  0  0
  -20.6801  -26.9425   22.5436 C   0  0  0  0  0  0
  -19.5776  -26.6380   21.5243 C   0  0  0  0  0  0
  -18.1944  -26.7939   22.1633 C   0  0  0  0  0  0
  -19.1557  -28.8916   23.2857 C   0  0  0  0  0  0
  -18.9465  -30.1507   23.8882 C   0  0  0  0  0  0
  -17.6450  -30.6601   24.0561 C   0  0  0  0  0  0
  -25.9090  -34.9406   23.5041 C   0  0  0  0  0  0
  -16.5353  -29.9074   23.6333 C   0  0  0  0  0  0
  -16.7301  -28.6496   23.0362 C   0  0  0  0  0  0
  -26.4506  -31.6557   25.0683 C   0  0  0  0  0  0
  -25.3663  -31.3763   26.1363 C   0  0  0  0  0  0
  -27.0368  -30.2943   24.6294 C   0  0  0  0  0  0
  -27.6030  -32.4360   25.7471 C   0  0  0  0  0  0
  -27.5585  -37.1779   24.8479 C   0  0  0  0  0  0
  -21.4263  -29.3038   22.3610 N   0  0  0  0  0  0
  -26.4308  -37.3739   23.9407 N   0  0  0  0  0  0
  -24.7202  -31.0184   22.0875 N   0  0  0  0  0  0
  -23.4189  -28.8125   23.3103 O   0  0  0  0  0  0
  -28.2909  -26.1251   20.2663 O   0  0  0  0  0  0
  -26.5698  -34.8904   22.4642 O   0  0  0  0  0  0
  -23.5559  -32.1327   23.6985 O   0  0  0  0  0  0
  -27.5099  -20.4272   19.6615 C   0  0  0  0  0  0
  -28.8485  -20.5790   20.0819 C   0  0  0  0  0  0
  -29.2310  -22.0340   20.1371 C   0  0  0  0  0  0
  -26.6586  -21.5310   19.4373 C   0  0  0  0  0  0
  -28.2855  -23.1766   19.8920 C   0  0  0  0  0  0
  -28.2201  -16.8086   22.5551 C   0  0  0  0  0  0
  -27.8975  -17.5584   21.2633 C   0  0  0  0  0  0
  -29.6247  -16.2401   22.3690 C   0  0  0  0  0  0
  -29.1673  -17.5508   20.3841 C   0  0  1  0  0  0
  -30.6946  -22.3850   20.4053 C   0  0  0  0  0  0
  -25.2471  -21.3057   18.9255 C   0  0  0  0  0  0
  -29.7373  -19.1774   20.3909 C   0  0  0  0  0  0
  -28.5560  -24.7832   19.5014 C   0  0  0  0  0  0
  -27.0154  -22.8287   19.5838 N   0  0  0  0  0  0
  -29.8457  -16.1850   20.9239 N   0  0  0  0  0  0
  -31.4771  -12.7685   19.2130 H   0  0  0  0  0  0
  -30.4357  -11.6605   20.0461 H   0  0  0  0  0  0
  -29.8638  -11.7524   17.6010 H   0  0  0  0  0  0
  -29.6149  -13.4786   17.7073 H   0  0  0  0  0  0
  -27.9872  -11.2693   19.0007 H   0  0  0  0  0  0
  -27.4027  -12.4169   17.8230 H   0  0  0  0  0  0
  -27.5916  -14.2488   19.4172 H   0  0  0  0  0  0
  -28.7576  -12.2756   21.4431 H   0  0  0  0  0  0
  -28.3203  -13.9279   21.7805 H   0  0  0  0  0  0
  -25.2767   -9.5587   22.4789 H   0  0  0  0  0  0
  -23.9969   -7.4576   22.7504 H   0  0  0  0  0  0
  -21.0827   -8.8725   19.8969 H   0  0  0  0  0  0
  -22.3715  -10.9614   19.6203 H   0  0  0  0  0  0
  -21.1907   -7.6129   23.9715 H   0  0  0  0  0  0
  -21.1551   -6.0538   25.9112 H   0  0  0  0  0  0
  -22.0559   -2.7590   23.2891 H   0  0  0  0  0  0
  -22.3986  -11.9845   22.4814 H   0  0  0  0  0  0
  -21.1046  -13.1337   22.2681 H   0  0  0  0  0  0
  -24.6502  -15.8308   20.5990 H   0  0  0  0  0  0
  -26.2795  -15.6183   20.1804 H   0  0  0  0  0  0
  -26.7267  -32.5241   23.0941 H   0  0  0  0  0  0
  -25.0035  -33.9596   25.0259 H   0  0  0  0  0  0
  -22.7548  -31.2788   21.3718 H   0  0  0  0  0  0
  -23.3763  -35.9547   23.3324 H   0  0  0  0  0  0
  -24.3557  -36.8849   22.2055 H   0  0  0  0  0  0
  -23.7228  -37.6415   23.6678 H   0  0  0  0  0  0
  -26.1704  -31.4404   20.6156 H   0  0  0  0  0  0
  -26.8733  -30.7408   22.0351 H   0  0  0  0  0  0
  -28.1113  -28.7416   21.2707 H   0  0  0  0  0  0
  -25.9468  -25.8006   18.9846 H   0  0  0  0  0  0
  -23.9900  -27.2614   18.9804 H   0  0  0  0  0  0
  -23.7936  -30.5322   19.3913 H   0  0  0  0  0  0
  -22.7855  -29.1991   19.8589 H   0  0  0  0  0  0
  -25.1328  -36.1853   25.0789 H   0  0  0  0  0  0
  -20.9983  -28.3357   24.1394 H   0  0  0  0  0  0
  -20.5718  -26.2347   23.3670 H   0  0  0  0  0  0
  -21.6687  -26.7487   22.1228 H   0  0  0  0  0  0
  -19.6972  -25.6282   21.1310 H   0  0  0  0  0  0
  -19.6732  -27.3174   20.6749 H   0  0  0  0  0  0
  -17.4226  -26.6685   21.4010 H   0  0  0  0  0  0
  -18.0360  -26.0092   22.9044 H   0  0  0  0  0  0
  -19.7958  -30.7320   24.2215 H   0  0  0  0  0  0
  -17.5029  -31.6290   24.5169 H   0  0  0  0  0  0
  -15.5362  -30.2996   23.7696 H   0  0  0  0  0  0
  -15.8685  -28.0837   22.7118 H   0  0  0  0  0  0
  -24.5843  -30.7122   25.7667 H   0  0  0  0  0  0
  -24.8831  -32.2937   26.4730 H   0  0  0  0  0  0
  -25.7899  -30.8956   27.0186 H   0  0  0  0  0  0
  -26.2976  -29.6682   24.1270 H   0  0  0  0  0  0
  -27.3935  -29.7246   25.4888 H   0  0  0  0  0  0
  -27.8919  -30.4189   23.9643 H   0  0  0  0  0  0
  -27.2603  -33.3704   26.1946 H   0  0  0  0  0  0
  -28.3855  -32.6863   25.0291 H   0  0  0  0  0  0
  -28.0665  -31.8543   26.5453 H   0  0  0  0  0  0
  -28.2610  -38.0066   24.7496 H   0  0  0  0  0  0
  -28.1056  -36.2585   24.6338 H   0  0  0  0  0  0
  -27.2278  -37.1469   25.8874 H   0  0  0  0  0  0
  -20.9509  -29.8661   21.6694 H   0  0  0  0  0  0
  -26.0163  -38.2807   24.1380 H   0  0  0  0  0  0
  -27.1162  -19.4341   19.4980 H   0  0  0  0  0  0
  -27.4964  -16.0077   22.7106 H   0  0  0  0  0  0
  -28.1711  -17.4691   23.4215 H   0  0  0  0  0  0
  -27.5169  -18.5483   21.5077 H   0  0  0  0  0  0
  -27.0968  -17.0574   20.7295 H   0  0  0  0  0  0
  -30.3669  -16.9052   22.8115 H   0  0  0  0  0  0
  -29.7407  -15.2808   22.8733 H   0  0  0  0  0  0
  -28.8718  -17.3453   19.3508 H   0  0  0  0  0  0
  -30.8249  -22.7189   21.4387 H   0  0  0  0  0  0
  -31.0542  -23.1762   19.7459 H   0  0  0  0  0  0
  -31.3499  -21.5300   20.2385 H   0  0  0  0  0  0
  -24.5246  -21.8835   19.5033 H   0  0  0  0  0  0
  -24.9648  -20.2546   18.9801 H   0  0  0  0  0  0
  -25.1680  -21.6168   17.8820 H   0  0  0  0  0  0
  -30.6043  -19.2080   19.7306 H   0  0  0  0  0  0
  -30.1477  -19.3458   21.3835 H   0  0  0  0  0  0
  -28.0877  -24.9110   18.5249 H   0  0  0  0  0  0
  -29.6166  -24.8274   19.2588 H   0  0  0  0  0  0
  1 25  1  0  0  0
  1 30  2  0  0  0
  1 85  1  0  0  0
  2  3  1  0  0  0
  2 25  1  0  0  0
  2 86  1  0  0  0
  2 87  1  0  0  0
  3  4  1  0  0  0
  3 88  1  0  0  0
  3 89  1  0  0  0
  4  5  1  0  0  0
  4 90  1  0  0  0
  4 91  1  0  0  0
  5  6  1  0  0  0
  5 26  1  0  0  0
  5 92  1  0  0  0
  6 25  1  0  0  0
  6 93  1  0  0  0
  6 94  1  0  0  0
  7  8  2  0  0  0
  7 26  1  0  0  0
  7 29  1  0  0  0
  8  9  1  0  0  0
  8 22  1  0  0  0
  9 10  1  0  0  0
  9 27  2  0  0  0
 10 11  2  0  0  0
 10 15  1  0  0  0
 11 12  1  0  0  0
 11 95  1  0  0  0
 12 13  2  0  0  0
 12 96  1  0  0  0
 13 14  1  0  0  0
 13 31  1  0  0  0
 14 15  2  0  0  0
 14 97  1  0  0  0
 15 98  1  0  0  0
 16 17  2  0  0  0
 16 21  1  0  0  0
 16 31  1  0  0  0
 17 18  1  0  0  0
 17 99  1  0  0  0
 18 19  2  0  0  0
 18100  1  0  0  0
 19 20  1  0  0  0
 19 24  1  0  0  0
 20 21  2  0  0  0
 20101  1  0  0  0
 21 23  1  0  0  0
 22 28  1  0  0  0
 22 32  2  0  0  0
 26 27  1  0  0  0
 28102  1  0  0  0
 28103  1  0  0  0
 29104  1  0  0  0
 29105  1  0  0  0
 33 34  1  0  0  0
 33 66  1  0  0  0
 33 70  2  0  0  0
 34 36  1  0  0  0
 34 59  1  0  0  0
 34106  1  0  0  0
 35 44  2  0  0  0
 35 45  1  0  0  0
 35 68  1  0  0  0
 36 56  1  0  0  0
 36107  1  0  0  0
 37 39  1  0  0  0
 37 47  1  0  0  0
 37 66  1  0  0  0
 37108  1  0  0  0
 38 43  2  0  0  0
 38 46  1  0  0  0
 38 47  1  0  0  0
 39 64  1  0  0  0
 39 67  2  0  0  0
 40 52  1  0  0  0
 40 53  2  0  0  0
 40 58  1  0  0  0
 41109  1  0  0  0
 41110  1  0  0  0
 41111  1  0  0  0
 41 48  1  0  0  0
 42 43  1  0  0  0
 42 66  1  0  0  0
 42112  1  0  0  0
 42113  1  0  0  0
 43 44  1  0  0  0
 44114  1  0  0  0
 45 46  2  0  0  0
 45115  1  0  0  0
 46116  1  0  0  0
 47117  1  0  0  0
 47118  1  0  0  0
 48 56  1  0  0  0
 48 65  1  0  0  0
 48119  1  0  0  0
 49 50  1  0  0  0
 49 53  1  0  0  0
 49 64  1  0  0  0
 49120  1  0  0  0
 50 51  1  0  0  0
 50121  1  0  0  0
 50122  1  0  0  0
 51 52  1  0  0  0
 51123  1  0  0  0
 51124  1  0  0  0
 52125  1  0  0  0
 52126  1  0  0  0
 53 54  1  0  0  0
 54 55  2  0  0  0
 54127  1  0  0  0
 55 57  1  0  0  0
 55128  1  0  0  0
 56 69  2  0  0  0
 57 58  2  0  0  0
 57129  1  0  0  0
 58130  1  0  0  0
 59 60  1  0  0  0
 59 61  1  0  0  0
 59 62  1  0  0  0
 60131  1  0  0  0
 60132  1  0  0  0
 60133  1  0  0  0
 61134  1  0  0  0
 61135  1  0  0  0
 61136  1  0  0  0
 62137  1  0  0  0
 62138  1  0  0  0
 62139  1  0  0  0
 63 65  1  0  0  0
 63140  1  0  0  0
 63141  1  0  0  0
 63142  1  0  0  0
 64143  1  0  0  0
 65144  1  0  0  0
 68 83  1  0  0  0
 71 72  2  0  0  0
 71 74  1  0  0  0
 71145  1  0  0  0
 72 73  1  0  0  0
 72 82  1  0  0  0
 73 75  2  0  0  0
 73 80  1  0  0  0
 74 81  1  0  0  0
 74 84  2  0  0  0
 75 83  1  0  0  0
 75 84  1  0  0  0
 76 77  1  0  0  0
 76 78  1  0  0  0
 76146  1  0  0  0
 76147  1  0  0  0
 77 79  1  0  0  0
 77148  1  0  0  0
 77149  1  0  0  0
 78 85  1  0  0  0
 78150  1  0  0  0
 78151  1  0  0  0
 79 82  1  0  0  0
 79 85  1  0  0  0
 79152  1  0  0  0
 80153  1  0  0  0
 80154  1  0  0  0
 80155  1  0  0  0
 81156  1  0  0  0
 81157  1  0  0  0
 81158  1  0  0  0
 82159  1  0  0  0
 82160  1  0  0  0
 83161  1  0  0  0
 83162  1  0  0  0
M  ISO  4   1 100  68 101  83 101  85 100
M  END
> <chiral flag>
0

> <version>
0

> <s_m_source_file>
/data/baiqing/PycharmProjects/Reinvent-master-3.2/result/LINK_invent/BTK/process_docking_weight1_custom_sum_contain_oxygen_bond_distance_aromatic_linkinvent_7_9_3/rearranged_h_0179.sdf

> <i_m_source_file_index>
43

> <r_mmod_Potential_Energy-OPLS-2005>
862.110412597656

> <r_mmod_Stretch_Energy-OPLS-2005>
335.194854736328

> <r_mmod_Bend_Energy-OPLS-2005>
382.19482421875

> <r_mmod_Torsional_Energy-OPLS-2005>
384.767913818359

> <r_mmod_Improper_Torsional_Energy-OPLS-2005>
4.90324068069458

> <r_mmod_Van_der_Waal_Energy-OPLS-2005>
122.817741394043

> <r_mmod_Electrostatic_Energy-OPLS-2005>
-378.680541992188

> <r_mmod_Solvation_Energy-OPLS-2005>
-213.603317260742

> <b_mmod_Minimization_Converged-OPLS-2005>
0

> <r_mmod_RMS_Derivative-OPLS-2005>
6.43467807769775

$$$$
43
                    3D
 Structure written by MMmdl.
161171  0  0  1  0            999 V2000
  -30.6772  -14.6908   20.4592 C   0  0  0  0  0  0
  -30.4178  -12.4240   19.4632 C   0  0  0  0  0  0
  -29.5002  -12.5023   18.2251 C   0  0  0  0  0  0
  -28.0295  -12.3266   18.6464 C   0  0  0  0  0  0
  -27.6436  -13.2318   19.8460 C   0  0  2  0  0  0
  -28.6888  -13.1738   20.9803 C   0  0  0  0  0  0
  -25.2549  -13.8198   20.5678 C   0  0  0  0  0  0
  -24.1821  -13.0457   20.9188 C   0  0  0  0  0  0
  -24.6416  -11.6930   20.8724 C   0  0  0  0  0  0
  -23.9090  -10.4286   21.0387 C   0  0  0  0  0  0
  -24.3644   -9.4200   21.9179 C   0  0  0  0  0  0
  -23.6294   -8.2241   22.0758 C   0  0  0  0  0  0
  -22.4269   -8.0283   21.3552 C   0  0  0  0  0  0
  -21.9922   -9.0256   20.4650 C   0  0  0  0  0  0
  -22.7253  -10.2135   20.3047 C   0  0  0  0  0  0
  -21.6868   -6.0720   22.5260 C   0  0  0  0  0  0
  -21.4023   -6.5629   23.8185 C   0  0  0  0  0  0
  -21.3654   -5.6794   24.9155 C   0  0  0  0  0  0
  -21.6047   -4.3054   24.7215 C   0  0  0  0  0  0
  -21.8828   -3.8141   23.4335 C   0  0  0  0  0  0
  -21.9204   -4.6948   22.3387 C   0  0  0  0  0  0
  -22.7838  -13.5243   21.1831 C   0  0  0  0  0  0
  -22.1672   -4.2135   21.0967 F   0  0  0  0  0  0
  -21.5621   -3.4546   25.7731 F   0  0  0  0  0  0
  -29.9933  -13.4995   20.3905 N   0  0  0  0  0  0
  -26.2967  -12.9405   20.3281 N   0  0  0  0  0  0
  -25.9355  -11.6549   20.5755 N   0  0  0  0  0  0
  -22.0509  -12.8205   22.0372 N   0  0  0  0  0  0
  -25.4292  -15.1910   20.4055 N   0  0  0  0  0  0
  -31.8781  -14.7009   20.1852 O   0  0  0  0  0  0
  -21.6656   -6.8870   21.4224 O   0  0  0  0  0  0
  -22.3509  -14.5542   20.6673 O   0  0  0  0  0  0
  -24.6287  -31.8541   23.1952 C   0  0  0  0  0  0
  -25.9125  -32.4738   23.8307 C   0  0  1  0  0  0
  -27.2210  -27.2871   20.1009 C   0  0  0  0  0  0
  -25.5931  -33.8547   24.2234 N   0  0  0  0  0  0
  -23.4222  -30.4750   21.5406 C   0  0  2  0  0  0
  -24.8625  -28.9175   20.1101 C   0  0  0  0  0  0
  -22.7496  -29.4583   22.4932 C   0  0  0  0  0  0
  -18.0281  -28.1396   22.8455 C   0  0  0  0  0  0
  -24.1487  -36.7274   23.2641 C   0  0  0  0  0  0
  -25.9648  -30.7722   21.3686 C   0  0  0  0  0  0
  -26.0323  -29.3958   20.7104 C   0  0  0  0  0  0
  -27.2108  -28.5909   20.6949 C   0  0  0  0  0  0
  -26.0132  -26.8400   19.5268 C   0  0  0  0  0  0
  -24.8551  -27.6443   19.5149 C   0  0  0  0  0  0
  -23.6363  -29.8069   20.1559 C   0  0  0  0  0  0
  -25.4116  -36.3061   24.0316 C   0  0  1  0  0  0
  -20.5877  -28.3665   23.1284 C   0  0  2  0  0  0
  -20.6771  -26.9392   22.5414 C   0  0  0  0  0  0
  -19.5771  -26.6376   21.5200 C   0  0  0  0  0  0
  -18.1932  -26.7935   22.1583 C   0  0  0  0  0  0
  -19.1539  -28.8853   23.2860 C   0  0  0  0  0  0
  -18.9478  -30.1465   23.8866 C   0  0  0  0  0  0
  -17.6484  -30.6586   24.0563 C   0  0  0  0  0  0
  -25.9052  -34.9429   23.5072 C   0  0  0  0  0  0
  -16.5372  -29.9080   23.6350 C   0  0  0  0  0  0
  -16.7269  -28.6518   23.0322 C   0  0  0  0  0  0
  -26.4497  -31.6585   25.0716 C   0  0  0  0  0  0
  -25.3728  -31.3752   26.1454 C   0  0  0  0  0  0
  -27.0344  -30.3011   24.6179 C   0  0  0  0  0  0
  -27.6039  -32.4340   25.7474 C   0  0  0  0  0  0
  -27.5577  -37.1788   24.8457 C   0  0  0  0  0  0
  -21.4200  -29.3022   22.3702 N   0  0  0  0  0  0
  -26.4276  -37.3774   23.9423 N   0  0  0  0  0  0
  -24.6915  -31.0519   22.0920 N   0  0  0  0  0  0
  -23.4224  -28.8121   23.3013 O   0  0  0  0  0  0
  -28.3682  -26.4746   20.1607 O   0  0  0  0  0  0
  -26.5638  -34.8906   22.4650 O   0  0  0  0  0  0
  -23.5453  -32.1354   23.7273 O   0  0  0  0  0  0
  -28.9170  -23.0613   20.9692 C   0  0  0  0  0  0
  -28.5592  -23.7619   19.7910 C   0  0  0  0  0  0
  -28.3780  -22.9386   18.6895 C   0  0  0  0  0  0
  -28.9041  -21.0019   19.8469 C   0  0  0  0  0  0
  -28.1284  -23.7343   17.4290 C   0  0  0  0  0  0
  -28.2933  -25.2325   17.8297 C   0  0  0  0  0  0
  -32.5709  -17.7837   20.0845 C   0  0  0  0  0  0
  -31.7013  -17.5909   21.3281 C   0  0  0  0  0  0
  -31.3440  -17.5301   19.2042 C   0  0  0  0  0  0
  -28.6562  -25.2641   19.3412 C   0  0  1  0  0  0
  -30.4351  -17.3518   20.4582 C   0  0  0  0  0  0
  -29.2795  -18.4588   20.6875 C   0  0  0  0  0  0
  -29.0684  -21.6859   20.9879 N   0  0  0  0  0  0
  -28.5490  -21.5862   18.6994 N   0  0  0  0  0  0
  -29.2230  -19.6198   19.7333 N   0  0  0  0  0  0
  -29.9792  -15.8830   20.6072 N   0  0  0  0  0  0
  -31.4590  -12.5177   19.1548 H   0  0  0  0  0  0
  -30.3344  -11.4471   19.9415 H   0  0  0  0  0  0
  -29.7764  -11.7367   17.4991 H   0  0  0  0  0  0
  -29.6322  -13.4632   17.7259 H   0  0  0  0  0  0
  -27.8862  -11.2778   18.9108 H   0  0  0  0  0  0
  -27.3707  -12.5197   17.7989 H   0  0  0  0  0  0
  -27.6397  -14.2526   19.4625 H   0  0  0  0  0  0
  -28.7093  -12.1817   21.4363 H   0  0  0  0  0  0
  -28.4350  -13.8759   21.7764 H   0  0  0  0  0  0
  -25.2798   -9.5671   22.4739 H   0  0  0  0  0  0
  -23.9998   -7.4649   22.7501 H   0  0  0  0  0  0
  -21.0849   -8.8788   19.8955 H   0  0  0  0  0  0
  -22.3726  -10.9677   19.6145 H   0  0  0  0  0  0
  -21.2018   -7.6136   23.9682 H   0  0  0  0  0  0
  -21.1463   -6.0525   25.9059 H   0  0  0  0  0  0
  -22.0610   -2.7597   23.2854 H   0  0  0  0  0  0
  -22.4172  -11.9885   22.4746 H   0  0  0  0  0  0
  -21.1131  -13.1197   22.2598 H   0  0  0  0  0  0
  -24.6685  -15.8539   20.5009 H   0  0  0  0  0  0
  -26.2759  -15.6128   20.0444 H   0  0  0  0  0  0
  -26.7179  -32.5377   23.1030 H   0  0  0  0  0  0
  -25.0131  -33.9701   25.0409 H   0  0  0  0  0  0
  -22.7161  -31.2946   21.3952 H   0  0  0  0  0  0
  -23.3760  -35.9597   23.3285 H   0  0  0  0  0  0
  -24.3583  -36.8924   22.2066 H   0  0  0  0  0  0
  -23.7217  -37.6449   23.6689 H   0  0  0  0  0  0
  -26.1019  -31.5306   20.5975 H   0  0  0  0  0  0
  -26.8442  -30.8172   21.9993 H   0  0  0  0  0  0
  -28.1118  -28.9567   21.1649 H   0  0  0  0  0  0
  -25.9323  -25.8413   19.1227 H   0  0  0  0  0  0
  -23.9459  -27.2595   19.0720 H   0  0  0  0  0  0
  -23.7651  -30.5843   19.4020 H   0  0  0  0  0  0
  -22.7533  -29.2437   19.8472 H   0  0  0  0  0  0
  -25.1302  -36.1884   25.0806 H   0  0  0  0  0  0
  -20.9952  -28.3225   24.1405 H   0  0  0  0  0  0
  -20.5645  -26.2283   23.3616 H   0  0  0  0  0  0
  -21.6646  -26.7392   22.1237 H   0  0  0  0  0  0
  -19.6937  -25.6281   21.1239 H   0  0  0  0  0  0
  -19.6743  -27.3181   20.6734 H   0  0  0  0  0  0
  -17.4225  -26.6698   21.3957 H   0  0  0  0  0  0
  -18.0302  -26.0063   22.8964 H   0  0  0  0  0  0
  -19.7963  -30.7291   24.2196 H   0  0  0  0  0  0
  -17.5037  -31.6254   24.5183 H   0  0  0  0  0  0
  -15.5367  -30.2977   23.7701 H   0  0  0  0  0  0
  -15.8663  -28.0851   22.7010 H   0  0  0  0  0  0
  -24.5944  -30.7011   25.7845 H   0  0  0  0  0  0
  -24.8862  -32.2926   26.4784 H   0  0  0  0  0  0
  -25.8075  -30.9059   27.0288 H   0  0  0  0  0  0
  -26.2920  -29.6759   24.1202 H   0  0  0  0  0  0
  -27.4060  -29.7262   25.4666 H   0  0  0  0  0  0
  -27.8769  -30.4319   23.9384 H   0  0  0  0  0  0
  -27.2641  -33.3663   26.1991 H   0  0  0  0  0  0
  -28.3867  -32.6862   25.0310 H   0  0  0  0  0  0
  -28.0681  -31.8514   26.5443 H   0  0  0  0  0  0
  -28.2565  -38.0107   24.7531 H   0  0  0  0  0  0
  -28.1100  -36.2645   24.6235 H   0  0  0  0  0  0
  -27.2327  -37.1377   25.8864 H   0  0  0  0  0  0
  -20.9390  -29.8787   21.6933 H   0  0  0  0  0  0
  -26.0146  -38.2828   24.1476 H   0  0  0  0  0  0
  -29.1594  -23.5916   21.8788 H   0  0  0  0  0  0
  -27.1203  -23.5388   17.0642 H   0  0  0  0  0  0
  -28.8355  -23.4480   16.6507 H   0  0  0  0  0  0
  -27.3838  -25.7741   17.5835 H   0  0  0  0  0  0
  -29.0809  -25.7068   17.2415 H   0  0  0  0  0  0
  -33.3519  -17.0273   19.9810 H   0  0  0  0  0  0
  -32.9781  -18.7910   19.9836 H   0  0  0  0  0  0
  -31.6535  -18.4988   21.9334 H   0  0  0  0  0  0
  -32.0177  -16.7514   21.9497 H   0  0  0  0  0  0
  -31.4507  -16.6508   18.5687 H   0  0  0  0  0  0
  -31.1231  -18.3944   18.5776 H   0  0  0  0  0  0
  -29.7433  -25.3533   19.3140 H   0  0  0  0  0  0
  -29.3336  -18.8558   21.7031 H   0  0  0  0  0  0
  -28.3040  -17.9768   20.6298 H   0  0  0  0  0  0
  -29.1340  -19.3030   18.7775 H   0  0  0  0  0  0
  -28.9916  -15.7617   20.7746 H   0  0  0  0  0  0
  1 25  1  0  0  0
  1 30  2  0  0  0
  1 86  1  0  0  0
  2  3  1  0  0  0
  2 25  1  0  0  0
  2 87  1  0  0  0
  2 88  1  0  0  0
  3  4  1  0  0  0
  3 89  1  0  0  0
  3 90  1  0  0  0
  4  5  1  0  0  0
  4 91  1  0  0  0
  4 92  1  0  0  0
  5  6  1  0  0  0
  5 26  1  0  0  0
  5 93  1  0  0  0
  6 25  1  0  0  0
  6 94  1  0  0  0
  6 95  1  0  0  0
  7  8  2  0  0  0
  7 26  1  0  0  0
  7 29  1  0  0  0
  8  9  1  0  0  0
  8 22  1  0  0  0
  9 10  1  0  0  0
  9 27  2  0  0  0
 10 11  2  0  0  0
 10 15  1  0  0  0
 11 12  1  0  0  0
 11 96  1  0  0  0
 12 13  2  0  0  0
 12 97  1  0  0  0
 13 14  1  0  0  0
 13 31  1  0  0  0
 14 15  2  0  0  0
 14 98  1  0  0  0
 15 99  1  0  0  0
 16 17  2  0  0  0
 16 21  1  0  0  0
 16 31  1  0  0  0
 17 18  1  0  0  0
 17100  1  0  0  0
 18 19  2  0  0  0
 18101  1  0  0  0
 19 20  1  0  0  0
 19 24  1  0  0  0
 20 21  2  0  0  0
 20102  1  0  0  0
 21 23  1  0  0  0
 22 28  1  0  0  0
 22 32  2  0  0  0
 26 27  1  0  0  0
 28103  1  0  0  0
 28104  1  0  0  0
 29105  1  0  0  0
 29106  1  0  0  0
 33 34  1  0  0  0
 33 66  1  0  0  0
 33 70  2  0  0  0
 34 36  1  0  0  0
 34 59  1  0  0  0
 34107  1  0  0  0
 35 44  2  0  0  0
 35 45  1  0  0  0
 35 68  1  0  0  0
 36 56  1  0  0  0
 36108  1  0  0  0
 37 39  1  0  0  0
 37 47  1  0  0  0
 37 66  1  0  0  0
 37109  1  0  0  0
 38 43  2  0  0  0
 38 46  1  0  0  0
 38 47  1  0  0  0
 39 64  1  0  0  0
 39 67  2  0  0  0
 40 52  1  0  0  0
 40 53  2  0  0  0
 40 58  1  0  0  0
 41110  1  0  0  0
 41111  1  0  0  0
 41112  1  0  0  0
 41 48  1  0  0  0
 42 43  1  0  0  0
 42 66  1  0  0  0
 42113  1  0  0  0
 42114  1  0  0  0
 43 44  1  0  0  0
 44115  1  0  0  0
 45 46  2  0  0  0
 45116  1  0  0  0
 46117  1  0  0  0
 47118  1  0  0  0
 47119  1  0  0  0
 48 56  1  0  0  0
 48 65  1  0  0  0
 48120  1  0  0  0
 49 50  1  0  0  0
 49 53  1  0  0  0
 49 64  1  0  0  0
 49121  1  0  0  0
 50 51  1  0  0  0
 50122  1  0  0  0
 50123  1  0  0  0
 51 52  1  0  0  0
 51124  1  0  0  0
 51125  1  0  0  0
 52126  1  0  0  0
 52127  1  0  0  0
 53 54  1  0  0  0
 54 55  2  0  0  0
 54128  1  0  0  0
 55 57  1  0  0  0
 55129  1  0  0  0
 56 69  2  0  0  0
 57 58  2  0  0  0
 57130  1  0  0  0
 58131  1  0  0  0
 59 60  1  0  0  0
 59 61  1  0  0  0
 59 62  1  0  0  0
 60132  1  0  0  0
 60133  1  0  0  0
 60134  1  0  0  0
 61135  1  0  0  0
 61136  1  0  0  0
 61137  1  0  0  0
 62138  1  0  0  0
 62139  1  0  0  0
 62140  1  0  0  0
 63 65  1  0  0  0
 63141  1  0  0  0
 63142  1  0  0  0
 63143  1  0  0  0
 64144  1  0  0  0
 65145  1  0  0  0
 68 80  1  0  0  0
 71 72  2  0  0  0
 71 83  1  0  0  0
 71146  1  0  0  0
 72 73  1  0  0  0
 72 80  1  0  0  0
 73 75  1  0  0  0
 73 84  2  0  0  0
 74 83  2  0  0  0
 74 84  1  0  0  0
 74 85  1  0  0  0
 75 76  1  0  0  0
 75147  1  0  0  0
 75148  1  0  0  0
 76 80  1  0  0  0
 76149  1  0  0  0
 76150  1  0  0  0
 77 78  1  0  0  0
 77 79  1  0  0  0
 77151  1  0  0  0
 77152  1  0  0  0
 78 81  1  0  0  0
 78153  1  0  0  0
 78154  1  0  0  0
 79 81  1  0  0  0
 79155  1  0  0  0
 79156  1  0  0  0
 80157  1  0  0  0
 81 82  1  0  0  0
 81 86  1  0  0  0
 82 85  1  0  0  0
 82158  1  0  0  0
 82159  1  0  0  0
 85160  1  0  0  0
 86161  1  0  0  0
M  ISO  4   1 100  68 101  80 101  86 100
M  END
> <chiral flag>
0

> <version>
0

> <s_m_source_file>
/data/baiqing/PycharmProjects/Reinvent-master-3.2/result/LINK_invent/BTK/process_docking_weight1_custom_sum_contain_oxygen_bond_distance_aromatic_linkinvent_7_9_3/rearranged_h_0179.sdf

> <i_m_source_file_index>
44

> <r_mmod_Potential_Energy-OPLS-2005>
-293.517822265625

> <r_mmod_Stretch_Energy-OPLS-2005>
102.427230834961

> <r_mmod_Bend_Energy-OPLS-2005>
278.654266357422

> <r_mmod_Torsional_Energy-OPLS-2005>
288.635284423828

> <r_mmod_Improper_Torsional_Energy-OPLS-2005>
10.3050575256348

> <r_mmod_Van_der_Waal_Energy-OPLS-2005>
146.677139282227

> <r_mmod_Electrostatic_Energy-OPLS-2005>
-943.509887695312

> <r_mmod_Solvation_Energy-OPLS-2005>
-243.921585083008

> <b_mmod_Minimization_Converged-OPLS-2005>
0

> <r_mmod_RMS_Derivative-OPLS-2005>
3.40859246253967

$$$$
44
                    3D
 Structure written by MMmdl.
167176  0  0  1  0            999 V2000
  -30.3944  -15.2764   20.4276 C   0  0  0  0  0  0
  -30.4287  -12.8138   19.5574 C   0  0  0  0  0  0
  -29.5465  -12.6064   18.2985 C   0  0  0  0  0  0
  -28.1060  -12.2813   18.7303 C   0  0  0  0  0  0
  -27.6046  -13.2680   19.8126 C   0  0  2  0  0  0
  -28.6139  -13.4558   20.9637 C   0  0  0  0  0  0
  -25.2395  -13.8185   20.5668 C   0  0  0  0  0  0
  -24.1739  -13.0400   20.9194 C   0  0  0  0  0  0
  -24.6346  -11.6890   20.8629 C   0  0  0  0  0  0
  -23.9029  -10.4279   21.0346 C   0  0  0  0  0  0
  -24.3595   -9.4196   21.9128 C   0  0  0  0  0  0
  -23.6289   -8.2229   22.0720 C   0  0  0  0  0  0
  -22.4278   -8.0239   21.3504 C   0  0  0  0  0  0
  -21.9862   -9.0224   20.4631 C   0  0  0  0  0  0
  -22.7179  -10.2119   20.3021 C   0  0  0  0  0  0
  -21.6863   -6.0716   22.5278 C   0  0  0  0  0  0
  -21.3991   -6.5630   23.8209 C   0  0  0  0  0  0
  -21.3660   -5.6797   24.9166 C   0  0  0  0  0  0
  -21.6040   -4.3067   24.7245 C   0  0  0  0  0  0
  -21.8826   -3.8133   23.4380 C   0  0  0  0  0  0
  -21.9202   -4.6934   22.3416 C   0  0  0  0  0  0
  -22.7806  -13.5204   21.1916 C   0  0  0  0  0  0
  -22.1690   -4.2114   21.1016 F   0  0  0  0  0  0
  -21.5632   -3.4565   25.7778 F   0  0  0  0  0  0
  -29.8535  -13.9613   20.3573 N   0  0  0  0  0  0
  -26.2761  -12.9425   20.3049 N   0  0  0  0  0  0
  -25.9277  -11.6527   20.5529 N   0  0  0  0  0  0
  -22.0501  -12.8198   22.0527 N   0  0  0  0  0  0
  -25.4094  -15.1906   20.4258 N   0  0  0  0  0  0
  -31.6184  -15.2992   20.2250 O   0  0  0  0  0  0
  -21.6628   -6.8838   21.4225 O   0  0  0  0  0  0
  -22.3498  -14.5503   20.6744 O   0  0  0  0  0  0
  -24.6659  -31.8205   23.1646 C   0  0  0  0  0  0
  -25.9288  -32.4575   23.8131 C   0  0  1  0  0  0
  -27.2151  -26.9081   20.1981 C   0  0  0  0  0  0
  -25.5923  -33.8395   24.2032 N   0  0  0  0  0  0
  -23.4801  -30.4299   21.5146 C   0  0  2  0  0  0
  -24.9289  -28.8048   20.1110 C   0  0  0  0  0  0
  -22.7663  -29.4474   22.4792 C   0  0  0  0  0  0
  -18.0379  -28.1387   22.8464 C   0  0  0  0  0  0
  -24.1511  -36.7234   23.2625 C   0  0  0  0  0  0
  -26.0433  -30.6264   21.3895 C   0  0  0  0  0  0
  -26.1113  -29.2096   20.7427 C   0  0  0  0  0  0
  -27.2437  -28.2769   20.7640 C   0  0  0  0  0  0
  -26.0168  -26.6587   19.4984 C   0  0  0  0  0  0
  -24.9106  -27.5535   19.4698 C   0  0  0  0  0  0
  -23.7137  -29.7309   20.1448 C   0  0  0  0  0  0
  -25.4142  -36.2970   24.0290 C   0  0  1  0  0  0
  -20.5968  -28.3896   23.1273 C   0  0  2  0  0  0
  -20.6931  -26.9563   22.5599 C   0  0  0  0  0  0
  -19.6027  -26.6541   21.5279 C   0  0  0  0  0  0
  -18.2167  -26.7914   22.1652 C   0  0  0  0  0  0
  -19.1569  -28.8975   23.2819 C   0  0  0  0  0  0
  -18.9386  -30.1589   23.8796 C   0  0  0  0  0  0
  -17.6331  -30.6608   24.0403 C   0  0  0  0  0  0
  -25.9103  -34.9343   23.5000 C   0  0  0  0  0  0
  -16.5282  -29.8980   23.6261 C   0  0  0  0  0  0
  -16.7324  -28.6384   23.0356 C   0  0  0  0  0  0
  -26.4547  -31.6529   25.0664 C   0  0  0  0  0  0
  -25.3636  -31.3811   26.1304 C   0  0  0  0  0  0
  -27.0422  -30.2888   24.6373 C   0  0  0  0  0  0
  -27.6064  -32.4305   25.7443 C   0  0  0  0  0  0
  -27.5586  -37.1770   24.8450 C   0  0  0  0  0  0
  -21.4334  -29.3124   22.3552 N   0  0  0  0  0  0
  -26.4294  -37.3712   23.9396 N   0  0  0  0  0  0
  -24.7507  -30.9851   22.0774 N   0  0  0  0  0  0
  -23.4223  -28.8063   23.3050 O   0  0  0  0  0  0
  -28.2302  -25.8211   20.3616 O   0  0  0  0  0  0
  -26.5756  -34.8904   22.4613 O   0  0  0  0  0  0
  -23.5712  -32.1148   23.6717 O   0  0  0  0  0  0
  -28.2454  -21.2907   22.7196 C   0  0  0  0  0  0
  -28.2859  -22.5235   22.1623 C   0  0  0  0  0  0
  -29.3999  -19.5692   19.8212 C   0  0  0  0  0  0
  -28.3471  -20.7826   20.4029 C   0  0  1  0  0  0
  -29.7882  -18.1878   20.7641 C   0  0  1  0  0  0
  -28.1363  -20.0601   21.8017 C   0  0  1  0  0  0
  -28.0739  -22.5788   20.6669 C   0  0  1  0  0  0
  -29.2658  -18.8857   22.1049 C   0  0  0  0  0  0
  -26.5366  -22.6948   20.4993 C   0  0  0  0  0  0
  -28.8200  -17.8226   23.1403 C   0  0  0  0  0  0
  -30.4979  -19.5509   22.7851 C   0  0  0  0  0  0
  -25.9021  -19.4945   23.1512 C   0  0  0  0  0  0
  -26.6922  -19.4275   21.8292 C   0  0  0  0  0  0
  -28.3716  -24.2139   19.9391 C   0  0  0  0  0  0
  -29.5945  -16.5303   20.5455 N   0  0  0  0  0  0
  -31.4654  -13.0072   19.2811 H   0  0  0  0  0  0
  -30.4575  -11.8937   20.1440 H   0  0  0  0  0  0
  -29.9382  -11.8174   17.6577 H   0  0  0  0  0  0
  -29.5634  -13.5177   17.6982 H   0  0  0  0  0  0
  -28.1182  -11.2742   19.1510 H   0  0  0  0  0  0
  -27.4346  -12.2509   17.8705 H   0  0  0  0  0  0
  -27.5098  -14.2279   19.2996 H   0  0  0  0  0  0
  -28.7662  -12.5359   21.5303 H   0  0  0  0  0  0
  -28.2388  -14.1953   21.6720 H   0  0  0  0  0  0
  -25.2750   -9.5723   22.4679 H   0  0  0  0  0  0
  -24.0029   -7.4625   22.7437 H   0  0  0  0  0  0
  -21.0786   -8.8756   19.8961 H   0  0  0  0  0  0
  -22.3599  -10.9653   19.6156 H   0  0  0  0  0  0
  -21.1959   -7.6145   23.9719 H   0  0  0  0  0  0
  -21.1449   -6.0505   25.9074 H   0  0  0  0  0  0
  -22.0582   -2.7586   23.2887 H   0  0  0  0  0  0
  -22.4226  -11.9884   22.4877 H   0  0  0  0  0  0
  -21.1039  -13.1113   22.2642 H   0  0  0  0  0  0
  -24.6533  -15.8457   20.5868 H   0  0  0  0  0  0
  -26.2733  -15.6372   20.1524 H   0  0  0  0  0  0
  -26.7311  -32.5146   23.0804 H   0  0  0  0  0  0
  -24.9938  -33.9497   25.0086 H   0  0  0  0  0  0
  -22.7991  -31.2650   21.3347 H   0  0  0  0  0  0
  -23.3797  -35.9549   23.3251 H   0  0  0  0  0  0
  -24.3558  -36.8924   22.2046 H   0  0  0  0  0  0
  -23.7306  -37.6414   23.6717 H   0  0  0  0  0  0
  -26.2121  -31.3638   20.6032 H   0  0  0  0  0  0
  -26.9068  -30.6880   22.0403 H   0  0  0  0  0  0
  -28.1382  -28.5760   21.2916 H   0  0  0  0  0  0
  -25.8971  -25.6982   19.0153 H   0  0  0  0  0  0
  -24.0086  -27.2373   18.9640 H   0  0  0  0  0  0
  -23.8644  -30.4894   19.3785 H   0  0  0  0  0  0
  -22.8197  -29.1854   19.8336 H   0  0  0  0  0  0
  -25.1353  -36.1732   25.0796 H   0  0  0  0  0  0
  -21.0011  -28.3733   24.1423 H   0  0  0  0  0  0
  -20.5726  -26.2545   23.3856 H   0  0  0  0  0  0
  -21.6890  -26.7570   22.1562 H   0  0  0  0  0  0
  -19.7354  -25.6522   21.1166 H   0  0  0  0  0  0
  -19.6998  -27.3512   20.6955 H   0  0  0  0  0  0
  -17.4490  -26.6477   21.4024 H   0  0  0  0  0  0
  -18.0782  -26.0043   22.9085 H   0  0  0  0  0  0
  -19.7799  -30.7487   24.2169 H   0  0  0  0  0  0
  -17.4765  -31.6348   24.4847 H   0  0  0  0  0  0
  -15.5235  -30.2798   23.7500 H   0  0  0  0  0  0
  -15.8767  -28.0601   22.7101 H   0  0  0  0  0  0
  -24.5831  -30.7141   25.7616 H   0  0  0  0  0  0
  -24.8814  -32.3039   26.4546 H   0  0  0  0  0  0
  -25.7824  -30.9085   27.0199 H   0  0  0  0  0  0
  -26.3058  -29.6571   24.1384 H   0  0  0  0  0  0
  -27.3976  -29.7248   25.5020 H   0  0  0  0  0  0
  -27.9005  -30.4110   23.9750 H   0  0  0  0  0  0
  -27.2652  -33.3649   26.1922 H   0  0  0  0  0  0
  -28.3913  -32.6788   25.0271 H   0  0  0  0  0  0
  -28.0680  -31.8472   26.5430 H   0  0  0  0  0  0
  -28.2579  -38.0084   24.7480 H   0  0  0  0  0  0
  -28.1107  -36.2618   24.6275 H   0  0  0  0  0  0
  -27.2285  -37.1383   25.8842 H   0  0  0  0  0  0
  -20.9573  -29.8802   21.6686 H   0  0  0  0  0  0
  -26.0139  -38.2774   24.1380 H   0  0  0  0  0  0
  -28.3087  -21.1395   23.7918 H   0  0  0  0  0  0
  -28.3740  -23.4375   22.7323 H   0  0  0  0  0  0
  -30.3332  -20.0462   19.5207 H   0  0  0  0  0  0
  -28.9889  -19.2037   18.8798 H   0  0  0  0  0  0
  -27.5131  -20.5464   19.7440 H   0  0  0  0  0  0
  -30.8795  -18.2120   20.8037 H   0  0  0  0  0  0
  -25.9847  -21.9937   21.1208 H   0  0  0  0  0  0
  -26.2382  -22.5395   19.4606 H   0  0  0  0  0  0
  -26.1660  -23.6804   20.7881 H   0  0  0  0  0  0
  -28.0082  -17.1838   22.7988 H   0  0  0  0  0  0
  -28.4979  -18.3031   24.0665 H   0  0  0  0  0  0
  -29.6470  -17.1595   23.4029 H   0  0  0  0  0  0
  -30.9140  -20.3693   22.1968 H   0  0  0  0  0  0
  -31.3011  -18.8361   22.9672 H   0  0  0  0  0  0
  -30.2556  -19.9421   23.7718 H   0  0  0  0  0  0
  -24.9216  -19.0366   23.0174 H   0  0  0  0  0  0
  -25.7236  -20.5217   23.4707 H   0  0  0  0  0  0
  -26.3852  -18.9692   23.9726 H   0  0  0  0  0  0
  -26.7347  -18.3959   21.4746 H   0  0  0  0  0  0
  -26.0338  -19.8843   21.0937 H   0  0  0  0  0  0
  -27.9289  -24.1806   18.9444 H   0  0  0  0  0  0
  -29.4375  -24.1537   19.7190 H   0  0  0  0  0  0
  -28.6149  -16.2925   20.5822 H   0  0  0  0  0  0
  1 25  1  0  0  0
  1 30  2  0  0  0
  1 85  1  0  0  0
  2  3  1  0  0  0
  2 25  1  0  0  0
  2 86  1  0  0  0
  2 87  1  0  0  0
  3  4  1  0  0  0
  3 88  1  0  0  0
  3 89  1  0  0  0
  4  5  1  0  0  0
  4 90  1  0  0  0
  4 91  1  0  0  0
  5  6  1  0  0  0
  5 26  1  0  0  0
  5 92  1  0  0  0
  6 25  1  0  0  0
  6 93  1  0  0  0
  6 94  1  0  0  0
  7  8  2  0  0  0
  7 26  1  0  0  0
  7 29  1  0  0  0
  8  9  1  0  0  0
  8 22  1  0  0  0
  9 10  1  0  0  0
  9 27  2  0  0  0
 10 11  2  0  0  0
 10 15  1  0  0  0
 11 12  1  0  0  0
 11 95  1  0  0  0
 12 13  2  0  0  0
 12 96  1  0  0  0
 13 14  1  0  0  0
 13 31  1  0  0  0
 14 15  2  0  0  0
 14 97  1  0  0  0
 15 98  1  0  0  0
 16 17  2  0  0  0
 16 21  1  0  0  0
 16 31  1  0  0  0
 17 18  1  0  0  0
 17 99  1  0  0  0
 18 19  2  0  0  0
 18100  1  0  0  0
 19 20  1  0  0  0
 19 24  1  0  0  0
 20 21  2  0  0  0
 20101  1  0  0  0
 21 23  1  0  0  0
 22 28  1  0  0  0
 22 32  2  0  0  0
 26 27  1  0  0  0
 28102  1  0  0  0
 28103  1  0  0  0
 29104  1  0  0  0
 29105  1  0  0  0
 33 34  1  0  0  0
 33 66  1  0  0  0
 33 70  2  0  0  0
 34 36  1  0  0  0
 34 59  1  0  0  0
 34106  1  0  0  0
 35 44  2  0  0  0
 35 45  1  0  0  0
 35 68  1  0  0  0
 36 56  1  0  0  0
 36107  1  0  0  0
 37 39  1  0  0  0
 37 47  1  0  0  0
 37 66  1  0  0  0
 37108  1  0  0  0
 38 43  2  0  0  0
 38 46  1  0  0  0
 38 47  1  0  0  0
 39 64  1  0  0  0
 39 67  2  0  0  0
 40 52  1  0  0  0
 40 53  2  0  0  0
 40 58  1  0  0  0
 41109  1  0  0  0
 41110  1  0  0  0
 41111  1  0  0  0
 41 48  1  0  0  0
 42 43  1  0  0  0
 42 66  1  0  0  0
 42112  1  0  0  0
 42113  1  0  0  0
 43 44  1  0  0  0
 44114  1  0  0  0
 45 46  2  0  0  0
 45115  1  0  0  0
 46116  1  0  0  0
 47117  1  0  0  0
 47118  1  0  0  0
 48 56  1  0  0  0
 48 65  1  0  0  0
 48119  1  0  0  0
 49 50  1  0  0  0
 49 53  1  0  0  0
 49 64  1  0  0  0
 49120  1  0  0  0
 50 51  1  0  0  0
 50121  1  0  0  0
 50122  1  0  0  0
 51 52  1  0  0  0
 51123  1  0  0  0
 51124  1  0  0  0
 52125  1  0  0  0
 52126  1  0  0  0
 53 54  1  0  0  0
 54 55  2  0  0  0
 54127  1  0  0  0
 55 57  1  0  0  0
 55128  1  0  0  0
 56 69  2  0  0  0
 57 58  2  0  0  0
 57129  1  0  0  0
 58130  1  0  0  0
 59 60  1  0  0  0
 59 61  1  0  0  0
 59 62  1  0  0  0
 60131  1  0  0  0
 60132  1  0  0  0
 60133  1  0  0  0
 61134  1  0  0  0
 61135  1  0  0  0
 61136  1  0  0  0
 62137  1  0  0  0
 62138  1  0  0  0
 62139  1  0  0  0
 63 65  1  0  0  0
 63140  1  0  0  0
 63141  1  0  0  0
 63142  1  0  0  0
 64143  1  0  0  0
 65144  1  0  0  0
 68 84  1  0  0  0
 71 72  2  0  0  0
 71 76  1  0  0  0
 71145  1  0  0  0
 72 77  1  0  0  0
 72146  1  0  0  0
 73 75  1  0  0  0
 73147  1  0  0  0
 73148  1  0  0  0
 73 74  1  0  0  0
 74 76  1  0  0  0
 74 77  1  0  0  0
 74149  1  0  0  0
 75 78  1  0  0  0
 75 85  1  0  0  0
 75150  1  0  0  0
 76 78  1  0  0  0
 76 83  1  0  0  0
 77 79  1  0  0  0
 77 84  1  0  0  0
 78 80  1  0  0  0
 78 81  1  0  0  0
 79151  1  0  0  0
 79152  1  0  0  0
 79153  1  0  0  0
 80154  1  0  0  0
 80155  1  0  0  0
 80156  1  0  0  0
 81157  1  0  0  0
 81158  1  0  0  0
 81159  1  0  0  0
 82 83  1  0  0  0
 82160  1  0  0  0
 82161  1  0  0  0
 82162  1  0  0  0
 83163  1  0  0  0
 83164  1  0  0  0
 84165  1  0  0  0
 84166  1  0  0  0
 85167  1  0  0  0
M  ISO  4   1 100  68 101  84 101  85 100
M  END
> <chiral flag>
0

> <version>
0

> <s_m_source_file>
/data/baiqing/PycharmProjects/Reinvent-master-3.2/result/LINK_invent/BTK/process_docking_weight1_custom_sum_contain_oxygen_bond_distance_aromatic_linkinvent_7_9_3/rearranged_h_0179.sdf

> <i_m_source_file_index>
45

> <r_mmod_Potential_Energy-OPLS-2005>
1670.54016113281

> <r_mmod_Stretch_Energy-OPLS-2005>
636.532348632812

> <r_mmod_Bend_Energy-OPLS-2005>
723.401733398438

> <r_mmod_Torsional_Energy-OPLS-2005>
310.848907470703

> <r_mmod_Improper_Torsional_Energy-OPLS-2005>
3.53749799728394

> <r_mmod_Van_der_Waal_Energy-OPLS-2005>
125.12629699707

> <r_mmod_Electrostatic_Energy-OPLS-2005>
-423.589599609375

> <r_mmod_Solvation_Energy-OPLS-2005>
-192.1875

> <b_mmod_Minimization_Converged-OPLS-2005>
0

> <r_mmod_RMS_Derivative-OPLS-2005>
6.41733884811401

$$$$
45
                    3D
 Structure written by MMmdl.
164173  0  0  1  0            999 V2000
  -30.6606  -14.5986   20.4950 C   0  0  0  0  0  0
  -30.4285  -12.3682   19.4423 C   0  0  0  0  0  0
  -29.5029  -12.4998   18.2144 C   0  0  0  0  0  0
  -28.0242  -12.3516   18.6259 C   0  0  0  0  0  0
  -27.6509  -13.2182   19.8602 C   0  0  2  0  0  0
  -28.6980  -13.0816   20.9879 C   0  0  0  0  0  0
  -25.2553  -13.8169   20.5689 C   0  0  0  0  0  0
  -24.1821  -13.0437   20.9188 C   0  0  0  0  0  0
  -24.6390  -11.6906   20.8731 C   0  0  0  0  0  0
  -23.9060  -10.4288   21.0384 C   0  0  0  0  0  0
  -24.3611   -9.4208   21.9167 C   0  0  0  0  0  0
  -23.6301   -8.2239   22.0741 C   0  0  0  0  0  0
  -22.4283   -8.0272   21.3534 C   0  0  0  0  0  0
  -21.9912   -9.0231   20.4630 C   0  0  0  0  0  0
  -22.7231  -10.2115   20.3030 C   0  0  0  0  0  0
  -21.6853   -6.0720   22.5274 C   0  0  0  0  0  0
  -21.4005   -6.5629   23.8205 C   0  0  0  0  0  0
  -21.3665   -5.6787   24.9172 C   0  0  0  0  0  0
  -21.6048   -4.3050   24.7220 C   0  0  0  0  0  0
  -21.8818   -3.8137   23.4342 C   0  0  0  0  0  0
  -21.9193   -4.6949   22.3399 C   0  0  0  0  0  0
  -22.7850  -13.5231   21.1845 C   0  0  0  0  0  0
  -22.1660   -4.2127   21.0981 F   0  0  0  0  0  0
  -21.5647   -3.4542   25.7738 F   0  0  0  0  0  0
  -30.0125  -13.3970   20.4132 N   0  0  0  0  0  0
  -26.2975  -12.9354   20.3301 N   0  0  0  0  0  0
  -25.9316  -11.6505   20.5726 N   0  0  0  0  0  0
  -22.0477  -12.8225   22.0389 N   0  0  0  0  0  0
  -25.4295  -15.1890   20.4138 N   0  0  0  0  0  0
  -31.8357  -14.7267   20.1434 O   0  0  0  0  0  0
  -21.6643   -6.8869   21.4237 O   0  0  0  0  0  0
  -22.3540  -14.5534   20.6688 O   0  0  0  0  0  0
  -24.6211  -31.8641   23.2058 C   0  0  0  0  0  0
  -25.9084  -32.4806   23.8369 C   0  0  1  0  0  0
  -27.2221  -27.3765   20.1102 C   0  0  0  0  0  0
  -25.5932  -33.8600   24.2300 N   0  0  0  0  0  0
  -23.4117  -30.4877   21.5465 C   0  0  2  0  0  0
  -24.8608  -28.9523   20.1072 C   0  0  0  0  0  0
  -22.7438  -29.4643   22.4950 C   0  0  0  0  0  0
  -18.0270  -28.1383   22.8492 C   0  0  0  0  0  0
  -24.1487  -36.7298   23.2621 C   0  0  0  0  0  0
  -25.9471  -30.8153   21.3656 C   0  0  0  0  0  0
  -26.0262  -29.4462   20.7089 C   0  0  0  0  0  0
  -27.2159  -28.6677   20.7053 C   0  0  0  0  0  0
  -26.0452  -26.9229   19.4803 C   0  0  0  0  0  0
  -24.8687  -27.6939   19.4836 C   0  0  0  0  0  0
  -23.6235  -29.8226   20.1609 C   0  0  0  0  0  0
  -25.4101  -36.3095   24.0325 C   0  0  1  0  0  0
  -20.5870  -28.3680   23.1308 C   0  0  2  0  0  0
  -20.6770  -26.9416   22.5411 C   0  0  0  0  0  0
  -19.5756  -26.6395   21.5207 C   0  0  0  0  0  0
  -18.1931  -26.7937   22.1610 C   0  0  0  0  0  0
  -19.1522  -28.8841   23.2899 C   0  0  0  0  0  0
  -18.9448  -30.1446   23.8917 C   0  0  0  0  0  0
  -17.6458  -30.6595   24.0548 C   0  0  0  0  0  0
  -25.9052  -34.9469   23.5107 C   0  0  0  0  0  0
  -16.5348  -29.9090   23.6327 C   0  0  0  0  0  0
  -16.7260  -28.6497   23.0359 C   0  0  0  0  0  0
  -26.4495  -31.6598   25.0714 C   0  0  0  0  0  0
  -25.3750  -31.3718   26.1457 C   0  0  0  0  0  0
  -27.0312  -30.3026   24.6117 C   0  0  0  0  0  0
  -27.6070  -32.4308   25.7492 C   0  0  0  0  0  0
  -27.5600  -37.1762   24.8426 C   0  0  0  0  0  0
  -21.4162  -29.3043   22.3709 N   0  0  0  0  0  0
  -26.4256  -37.3815   23.9463 N   0  0  0  0  0  0
  -24.6782  -31.0698   22.0978 N   0  0  0  0  0  0
  -23.4198  -28.8177   23.3003 O   0  0  0  0  0  0
  -28.3028  -26.5073   20.1677 O   0  0  0  0  0  0
  -26.5604  -34.8936   22.4666 O   0  0  0  0  0  0
  -23.5387  -32.1415   23.7425 O   0  0  0  0  0  0
  -29.7352  -22.4150   19.5144 C   0  0  0  0  0  0
  -28.6529  -23.0091   21.9074 C   0  0  0  0  0  0
  -29.7413  -21.4374   20.5631 C   0  0  0  0  0  0
  -28.6867  -23.9975   20.8779 C   0  0  0  0  0  0
  -29.6946  -16.4985   21.8311 C   0  0  0  0  0  0
  -29.5113  -16.5113   19.4003 C   0  0  0  0  0  0
  -30.2910  -17.9494   21.7800 C   0  0  0  0  0  0
  -30.1269  -17.9446   19.3543 C   0  0  0  0  0  0
  -30.3632  -22.1571   18.1572 C   0  0  0  0  0  0
  -28.0471  -23.3013   23.2696 C   0  0  0  0  0  0
  -30.5791  -20.1157   20.5193 C   0  0  0  0  0  0
  -28.0758  -25.4152   21.1140 C   0  0  0  0  0  0
  -29.1710  -21.7547   21.7547 N   0  0  0  0  0  0
  -29.2109  -23.6715   19.6679 N   0  0  0  0  0  0
  -29.8624  -15.7117   20.5939 N   0  0  0  0  0  0
  -29.8964  -18.7608   20.5833 N   0  3  0  0  0  0
  -31.4727  -12.4761   19.1423 H   0  0  0  0  0  0
  -30.3437  -11.3734   19.8833 H   0  0  0  0  0  0
  -29.7592  -11.7467   17.4679 H   0  0  0  0  0  0
  -29.6563  -13.4679   17.7343 H   0  0  0  0  0  0
  -27.8490  -11.2993   18.8493 H   0  0  0  0  0  0
  -27.3729  -12.5909   17.7837 H   0  0  0  0  0  0
  -27.6634  -14.2520   19.5197 H   0  0  0  0  0  0
  -28.6999  -12.0664   21.3882 H   0  0  0  0  0  0
  -28.4590  -13.7420   21.8227 H   0  0  0  0  0  0
  -25.2743   -9.5697   22.4757 H   0  0  0  0  0  0
  -24.0000   -7.4631   22.7462 H   0  0  0  0  0  0
  -21.0837   -8.8741   19.8955 H   0  0  0  0  0  0
  -22.3672  -10.9644   19.6146 H   0  0  0  0  0  0
  -21.1982   -7.6137   23.9701 H   0  0  0  0  0  0
  -21.1506   -6.0516   25.9073 H   0  0  0  0  0  0
  -22.0600   -2.7598   23.2839 H   0  0  0  0  0  0
  -22.4078  -11.9884   22.4791 H   0  0  0  0  0  0
  -21.1080  -13.1241   22.2555 H   0  0  0  0  0  0
  -24.6682  -15.8498   20.5277 H   0  0  0  0  0  0
  -26.2915  -15.6236   20.1137 H   0  0  0  0  0  0
  -26.7146  -32.5513   23.1124 H   0  0  0  0  0  0
  -25.0105  -33.9749   25.0458 H   0  0  0  0  0  0
  -22.7035  -31.3066   21.4057 H   0  0  0  0  0  0
  -23.3799  -35.9572   23.3173 H   0  0  0  0  0  0
  -24.3623  -36.9029   22.2064 H   0  0  0  0  0  0
  -23.7158  -37.6429   23.6715 H   0  0  0  0  0  0
  -26.0631  -31.5821   20.5981 H   0  0  0  0  0  0
  -26.8329  -30.8675   21.9874 H   0  0  0  0  0  0
  -28.1098  -29.0371   21.1884 H   0  0  0  0  0  0
  -26.0289  -25.9488   19.0103 H   0  0  0  0  0  0
  -23.9740  -27.3108   19.0118 H   0  0  0  0  0  0
  -23.7327  -30.5994   19.4028 H   0  0  0  0  0  0
  -22.7471  -29.2424   19.8641 H   0  0  0  0  0  0
  -25.1261  -36.1915   25.0807 H   0  0  0  0  0  0
  -20.9948  -28.3233   24.1432 H   0  0  0  0  0  0
  -20.5686  -26.2273   23.3587 H   0  0  0  0  0  0
  -21.6636  -26.7465   22.1195 H   0  0  0  0  0  0
  -19.6921  -25.6307   21.1229 H   0  0  0  0  0  0
  -19.6713  -27.3196   20.6742 H   0  0  0  0  0  0
  -17.4207  -26.6685   21.4005 H   0  0  0  0  0  0
  -18.0333  -26.0064   22.8995 H   0  0  0  0  0  0
  -19.7928  -30.7241   24.2312 H   0  0  0  0  0  0
  -17.5019  -31.6284   24.5134 H   0  0  0  0  0  0
  -15.5351  -30.2998   23.7664 H   0  0  0  0  0  0
  -15.8653  -28.0822   22.7088 H   0  0  0  0  0  0
  -24.5919  -30.7072   25.7793 H   0  0  0  0  0  0
  -24.8947  -32.2872   26.4915 H   0  0  0  0  0  0
  -25.8090  -30.8881   27.0215 H   0  0  0  0  0  0
  -26.2845  -29.6803   24.1163 H   0  0  0  0  0  0
  -27.4044  -29.7260   25.4595 H   0  0  0  0  0  0
  -27.8712  -30.4330   23.9289 H   0  0  0  0  0  0
  -27.2695  -33.3611   26.2079 H   0  0  0  0  0  0
  -28.3893  -32.6856   25.0327 H   0  0  0  0  0  0
  -28.0727  -31.8417   26.5408 H   0  0  0  0  0  0
  -28.2466  -38.0209   24.7705 H   0  0  0  0  0  0
  -28.1245  -36.2759   24.5943 H   0  0  0  0  0  0
  -27.2368  -37.1014   25.8822 H   0  0  0  0  0  0
  -20.9322  -29.8766   21.6928 H   0  0  0  0  0  0
  -26.0126  -38.2848   24.1620 H   0  0  0  0  0  0
  -28.6252  -16.5596   22.0433 H   0  0  0  0  0  0
  -30.1314  -15.9636   22.6762 H   0  0  0  0  0  0
  -29.7992  -15.9794   18.4912 H   0  0  0  0  0  0
  -28.4240  -16.5893   19.3594 H   0  0  0  0  0  0
  -31.3794  -17.8703   21.8051 H   0  0  0  0  0  0
  -30.0070  -18.4889   22.6851 H   0  0  0  0  0  0
  -29.7368  -18.4835   18.4890 H   0  0  0  0  0  0
  -31.2018  -17.8483   19.1905 H   0  0  0  0  0  0
  -30.0319  -21.2022   17.7489 H   0  0  0  0  0  0
  -31.4502  -22.1450   18.2356 H   0  0  0  0  0  0
  -30.0928  -22.9332   17.4396 H   0  0  0  0  0  0
  -27.0166  -23.6448   23.1731 H   0  0  0  0  0  0
  -28.6162  -24.0764   23.7824 H   0  0  0  0  0  0
  -28.0444  -22.4186   23.9106 H   0  0  0  0  0  0
  -31.2840  -20.1927   21.3475 H   0  0  0  0  0  0
  -31.2281  -20.1471   19.6458 H   0  0  0  0  0  0
  -28.4533  -25.7749   22.0703 H   0  0  0  0  0  0
  -27.0081  -25.2489   21.2720 H   0  0  0  0  0  0
  -28.9078  -18.9522   20.6569 H   0  0  0  0  0  0
  1 25  1  0  0  0
  1 30  2  0  0  0
  1 85  1  0  0  0
  2  3  1  0  0  0
  2 25  1  0  0  0
  2 87  1  0  0  0
  2 88  1  0  0  0
  3  4  1  0  0  0
  3 89  1  0  0  0
  3 90  1  0  0  0
  4  5  1  0  0  0
  4 91  1  0  0  0
  4 92  1  0  0  0
  5  6  1  0  0  0
  5 26  1  0  0  0
  5 93  1  0  0  0
  6 25  1  0  0  0
  6 94  1  0  0  0
  6 95  1  0  0  0
  7  8  2  0  0  0
  7 26  1  0  0  0
  7 29  1  0  0  0
  8  9  1  0  0  0
  8 22  1  0  0  0
  9 10  1  0  0  0
  9 27  2  0  0  0
 10 11  2  0  0  0
 10 15  1  0  0  0
 11 12  1  0  0  0
 11 96  1  0  0  0
 12 13  2  0  0  0
 12 97  1  0  0  0
 13 14  1  0  0  0
 13 31  1  0  0  0
 14 15  2  0  0  0
 14 98  1  0  0  0
 15 99  1  0  0  0
 16 17  2  0  0  0
 16 21  1  0  0  0
 16 31  1  0  0  0
 17 18  1  0  0  0
 17100  1  0  0  0
 18 19  2  0  0  0
 18101  1  0  0  0
 19 20  1  0  0  0
 19 24  1  0  0  0
 20 21  2  0  0  0
 20102  1  0  0  0
 21 23  1  0  0  0
 22 28  1  0  0  0
 22 32  2  0  0  0
 26 27  1  0  0  0
 28103  1  0  0  0
 28104  1  0  0  0
 29105  1  0  0  0
 29106  1  0  0  0
 33 34  1  0  0  0
 33 66  1  0  0  0
 33 70  2  0  0  0
 34 36  1  0  0  0
 34 59  1  0  0  0
 34107  1  0  0  0
 35 44  2  0  0  0
 35 45  1  0  0  0
 35 68  1  0  0  0
 36 56  1  0  0  0
 36108  1  0  0  0
 37 39  1  0  0  0
 37 47  1  0  0  0
 37 66  1  0  0  0
 37109  1  0  0  0
 38 43  2  0  0  0
 38 46  1  0  0  0
 38 47  1  0  0  0
 39 64  1  0  0  0
 39 67  2  0  0  0
 40 52  1  0  0  0
 40 53  2  0  0  0
 40 58  1  0  0  0
 41110  1  0  0  0
 41111  1  0  0  0
 41112  1  0  0  0
 41 48  1  0  0  0
 42 43  1  0  0  0
 42 66  1  0  0  0
 42113  1  0  0  0
 42114  1  0  0  0
 43 44  1  0  0  0
 44115  1  0  0  0
 45 46  2  0  0  0
 45116  1  0  0  0
 46117  1  0  0  0
 47118  1  0  0  0
 47119  1  0  0  0
 48 56  1  0  0  0
 48 65  1  0  0  0
 48120  1  0  0  0
 49 50  1  0  0  0
 49 53  1  0  0  0
 49 64  1  0  0  0
 49121  1  0  0  0
 50 51  1  0  0  0
 50122  1  0  0  0
 50123  1  0  0  0
 51 52  1  0  0  0
 51124  1  0  0  0
 51125  1  0  0  0
 52126  1  0  0  0
 52127  1  0  0  0
 53 54  1  0  0  0
 54 55  2  0  0  0
 54128  1  0  0  0
 55 57  1  0  0  0
 55129  1  0  0  0
 56 69  2  0  0  0
 57 58  2  0  0  0
 57130  1  0  0  0
 58131  1  0  0  0
 59 60  1  0  0  0
 59 61  1  0  0  0
 59 62  1  0  0  0
 60132  1  0  0  0
 60133  1  0  0  0
 60134  1  0  0  0
 61135  1  0  0  0
 61136  1  0  0  0
 61137  1  0  0  0
 62138  1  0  0  0
 62139  1  0  0  0
 62140  1  0  0  0
 63 65  1  0  0  0
 63141  1  0  0  0
 63142  1  0  0  0
 63143  1  0  0  0
 64144  1  0  0  0
 65145  1  0  0  0
 68 82  1  0  0  0
 71 73  2  0  0  0
 71 79  1  0  0  0
 71 84  1  0  0  0
 72 74  1  0  0  0
 72 80  1  0  0  0
 72 83  2  0  0  0
 73 81  1  0  0  0
 73 83  1  0  0  0
 74 82  1  0  0  0
 74 84  2  0  0  0
 75 77  1  0  0  0
 75 85  1  0  0  0
 75146  1  0  0  0
 75147  1  0  0  0
 76 78  1  0  0  0
 76 85  1  0  0  0
 76148  1  0  0  0
 76149  1  0  0  0
 77 86  1  0  0  0
 77150  1  0  0  0
 77151  1  0  0  0
 78 86  1  0  0  0
 78152  1  0  0  0
 78153  1  0  0  0
 79154  1  0  0  0
 79155  1  0  0  0
 79156  1  0  0  0
 80157  1  0  0  0
 80158  1  0  0  0
 80159  1  0  0  0
 81160  1  0  0  0
 81161  1  0  0  0
 81 86  1  0  0  0
 82162  1  0  0  0
 82163  1  0  0  0
 86164  1  0  0  0
M  CHG  1  86   1
M  ISO  4   1 100  68 101  82 101  85 100
M  END
> <chiral flag>
0

> <version>
0

> <s_m_source_file>
/data/baiqing/PycharmProjects/Reinvent-master-3.2/result/LINK_invent/BTK/process_docking_weight1_custom_sum_contain_oxygen_bond_distance_aromatic_linkinvent_7_9_3/rearranged_h_0179.sdf

> <i_m_source_file_index>
46

> <r_mmod_Potential_Energy-OPLS-2005>
158.445251464844

> <r_mmod_Stretch_Energy-OPLS-2005>
66.6142807006836

> <r_mmod_Bend_Energy-OPLS-2005>
127.821632385254

> <r_mmod_Torsional_Energy-OPLS-2005>
424.827301025391

> <r_mmod_Improper_Torsional_Energy-OPLS-2005>
13.2364721298218

> <r_mmod_Van_der_Waal_Energy-OPLS-2005>
146.346206665039

> <r_mmod_Electrostatic_Energy-OPLS-2005>
-211.62744140625

> <r_mmod_Solvation_Energy-OPLS-2005>
-446.555053710938

> <b_mmod_Minimization_Converged-OPLS-2005>
0

> <r_mmod_RMS_Derivative-OPLS-2005>
2.12379860877991

$$$$
46
                    3D
 Structure written by MMmdl.
157165  0  0  1  0            999 V2000
  -30.2922  -15.6592   20.3362 C   0  0  0  0  0  0
  -30.4207  -13.1012   19.5390 C   0  0  0  0  0  0
  -29.5500  -12.6581   18.3272 C   0  0  0  0  0  0
  -28.1263  -12.2969   18.7734 C   0  0  0  0  0  0
  -27.5932  -13.3098   19.8108 C   0  0  2  0  0  0
  -28.6058  -13.6576   20.9273 C   0  0  0  0  0  0
  -25.2317  -13.8290   20.5808 C   0  0  0  0  0  0
  -24.1709  -13.0436   20.9294 C   0  0  0  0  0  0
  -24.6414  -11.6949   20.8767 C   0  0  0  0  0  0
  -23.9122  -10.4294   21.0399 C   0  0  0  0  0  0
  -24.3662   -9.4207   21.9181 C   0  0  0  0  0  0
  -23.6319   -8.2250   22.0751 C   0  0  0  0  0  0
  -22.4298   -8.0294   21.3544 C   0  0  0  0  0  0
  -21.9943   -9.0273   20.4650 C   0  0  0  0  0  0
  -22.7286  -10.2140   20.3057 C   0  0  0  0  0  0
  -21.6860   -6.0751   22.5283 C   0  0  0  0  0  0
  -21.4020   -6.5652   23.8217 C   0  0  0  0  0  0
  -21.3656   -5.6803   24.9177 C   0  0  0  0  0  0
  -21.6042   -4.3065   24.7225 C   0  0  0  0  0  0
  -21.8819   -3.8160   23.4345 C   0  0  0  0  0  0
  -21.9191   -4.6977   22.3403 C   0  0  0  0  0  0
  -22.7719  -13.5162   21.1934 C   0  0  0  0  0  0
  -22.1664   -4.2167   21.0978 F   0  0  0  0  0  0
  -21.5620   -3.4544   25.7731 F   0  0  0  0  0  0
  -29.7750  -14.2876   20.2689 N   0  0  0  0  0  0
  -26.2760  -12.9619   20.3233 N   0  0  0  0  0  0
  -25.9360  -11.6692   20.5701 N   0  0  0  0  0  0
  -22.0400  -12.8128   22.0488 N   0  0  0  0  0  0
  -25.3914  -15.2034   20.4270 N   0  0  0  0  0  0
  -31.5291  -15.5931   20.1967 O   0  0  0  0  0  0
  -21.6651   -6.8900   21.4246 O   0  0  0  0  0  0
  -22.3392  -14.5462   20.6779 O   0  0  0  0  0  0
  -24.6863  -31.7964   23.1488 C   0  0  0  0  0  0
  -25.9430  -32.4446   23.8054 C   0  0  1  0  0  0
  -27.2260  -26.6698   20.2266 C   0  0  0  0  0  0
  -25.5994  -33.8274   24.1941 N   0  0  0  0  0  0
  -23.5141  -30.3962   21.5044 C   0  0  2  0  0  0
  -24.9716  -28.7291   20.1225 C   0  0  0  0  0  0
  -22.7780  -29.4295   22.4712 C   0  0  0  0  0  0
  -18.0345  -28.1423   22.8457 C   0  0  0  0  0  0
  -24.1503  -36.7145   23.2650 C   0  0  0  0  0  0
  -26.0958  -30.5203   21.4168 C   0  0  0  0  0  0
  -26.1617  -29.0805   20.7702 C   0  0  0  0  0  0
  -27.2742  -28.0813   20.7846 C   0  0  0  0  0  0
  -26.0005  -26.5333   19.5242 C   0  0  0  0  0  0
  -24.9323  -27.4821   19.4749 C   0  0  0  0  0  0
  -23.7708  -29.6901   20.1417 C   0  0  0  0  0  0
  -25.4153  -36.2882   24.0281 C   0  0  1  0  0  0
  -20.5981  -28.3784   23.1140 C   0  0  2  0  0  0
  -20.6808  -26.9438   22.5408 C   0  0  0  0  0  0
  -19.5786  -26.6370   21.5219 C   0  0  0  0  0  0
  -18.1971  -26.7947   22.1628 C   0  0  0  0  0  0
  -19.1610  -28.8929   23.2778 C   0  0  0  0  0  0
  -18.9512  -30.1515   23.8822 C   0  0  0  0  0  0
  -17.6498  -30.6600   24.0554 C   0  0  0  0  0  0
  -25.9135  -34.9272   23.4955 C   0  0  0  0  0  0
  -16.5393  -29.9081   23.6342 C   0  0  0  0  0  0
  -16.7323  -28.6506   23.0355 C   0  0  0  0  0  0
  -26.4605  -31.6485   25.0683 C   0  0  0  0  0  0
  -25.3677  -31.3826   26.1309 C   0  0  0  0  0  0
  -27.0507  -30.2806   24.6588 C   0  0  0  0  0  0
  -27.6069  -32.4332   25.7485 C   0  0  0  0  0  0
  -27.5570  -37.1729   24.8466 C   0  0  0  0  0  0
  -21.4427  -29.3021   22.3454 N   0  0  0  0  0  0
  -26.4278  -37.3643   23.9401 N   0  0  0  0  0  0
  -24.7893  -30.9378   22.0761 N   0  0  0  0  0  0
  -23.4209  -28.7913   23.3081 O   0  0  0  0  0  0
  -28.1953  -25.4453   20.2860 O   0  0  0  0  0  0
  -26.5781  -34.8854   22.4574 O   0  0  0  0  0  0
  -23.5879  -32.1059   23.6416 O   0  0  0  0  0  0
  -29.5320  -21.2572   19.0343 C   0  0  0  0  0  0
  -29.6629  -18.8171   20.4015 C   0  0  1  0  0  0
  -29.9985  -19.6583   19.0848 C   0  0  2  0  0  0
  -28.9640  -21.9586   20.3601 C   0  0  1  0  0  0
  -28.6004  -20.2260   20.8538 C   0  0  0  0  0  0
  -30.1770  -22.3777   21.2095 C   0  0  0  0  0  0
  -28.4758  -20.1822   22.3894 C   0  0  0  0  0  0
  -27.1912  -19.8922   20.3165 C   0  0  0  0  0  0
  -28.0034  -23.6768   20.2710 C   0  0  0  0  0  0
  -29.5296  -17.0275   20.3780 N   0  0  0  0  0  0
  -31.3981  -19.5990   18.8722 O   0  0  0  0  0  0
  -31.4101  -13.3713   19.1686 H   0  0  0  0  0  0
  -30.5909  -12.2649   20.2197 H   0  0  0  0  0  0
  -30.0080  -11.8116   17.8142 H   0  0  0  0  0  0
  -29.5078  -13.4719   17.6020 H   0  0  0  0  0  0
  -28.1603  -11.3034   19.2224 H   0  0  0  0  0  0
  -27.4571  -12.2279   17.9149 H   0  0  0  0  0  0
  -27.4506  -14.2255   19.2352 H   0  0  0  0  0  0
  -28.8709  -12.7842   21.5252 H   0  0  0  0  0  0
  -28.1647  -14.3793   21.6165 H   0  0  0  0  0  0
  -25.2799   -9.5676   22.4773 H   0  0  0  0  0  0
  -24.0019   -7.4638   22.7471 H   0  0  0  0  0  0
  -21.0869   -8.8810   19.8961 H   0  0  0  0  0  0
  -22.3742  -10.9695   19.6184 H   0  0  0  0  0  0
  -21.2022   -7.6162   23.9723 H   0  0  0  0  0  0
  -21.1473   -6.0534   25.9079 H   0  0  0  0  0  0
  -22.0594   -2.7621   23.2841 H   0  0  0  0  0  0
  -22.4050  -11.9801   22.4873 H   0  0  0  0  0  0
  -21.1019  -13.1133   22.2722 H   0  0  0  0  0  0
  -24.6199  -15.8508   20.5457 H   0  0  0  0  0  0
  -26.2319  -15.6472   20.0825 H   0  0  0  0  0  0
  -26.7511  -32.4920   23.0770 H   0  0  0  0  0  0
  -25.0026  -33.9308   25.0013 H   0  0  0  0  0  0
  -22.8416  -31.2342   21.3109 H   0  0  0  0  0  0
  -23.3774  -35.9464   23.3276 H   0  0  0  0  0  0
  -24.3563  -36.8836   22.2069 H   0  0  0  0  0  0
  -23.7267  -37.6319   23.6748 H   0  0  0  0  0  0
  -26.2995  -31.2420   20.6243 H   0  0  0  0  0  0
  -26.9460  -30.5921   22.0823 H   0  0  0  0  0  0
  -28.1729  -28.3595   21.3166 H   0  0  0  0  0  0
  -25.8286  -25.5897   19.0261 H   0  0  0  0  0  0
  -24.0346  -27.2028   18.9402 H   0  0  0  0  0  0
  -23.9527  -30.4485   19.3794 H   0  0  0  0  0  0
  -22.8748  -29.1602   19.8148 H   0  0  0  0  0  0
  -25.1362  -36.1647   25.0772 H   0  0  0  0  0  0
  -21.0068  -28.3413   24.1265 H   0  0  0  0  0  0
  -20.5656  -26.2408   23.3673 H   0  0  0  0  0  0
  -21.6671  -26.7365   22.1236 H   0  0  0  0  0  0
  -19.6938  -25.6262   21.1291 H   0  0  0  0  0  0
  -19.6724  -27.3143   20.6720 H   0  0  0  0  0  0
  -17.4233  -26.6677   21.4042 H   0  0  0  0  0  0
  -18.0372  -26.0111   22.9048 H   0  0  0  0  0  0
  -19.7987  -30.7356   24.2154 H   0  0  0  0  0  0
  -17.5043  -31.6267   24.5181 H   0  0  0  0  0  0
  -15.5388  -30.2954   23.7699 H   0  0  0  0  0  0
  -15.8732  -28.0798   22.7099 H   0  0  0  0  0  0
  -24.5854  -30.7183   25.7622 H   0  0  0  0  0  0
  -24.8888  -32.3060   26.4574 H   0  0  0  0  0  0
  -25.7856  -30.9090   27.0201 H   0  0  0  0  0  0
  -26.3215  -29.6440   24.1565 H   0  0  0  0  0  0
  -27.3891  -29.7239   25.5338 H   0  0  0  0  0  0
  -27.9224  -30.3902   24.0133 H   0  0  0  0  0  0
  -27.2623  -33.3694   26.1886 H   0  0  0  0  0  0
  -28.3963  -32.6786   25.0369 H   0  0  0  0  0  0
  -28.0645  -31.8580   26.5545 H   0  0  0  0  0  0
  -28.2566  -38.0042   24.7479 H   0  0  0  0  0  0
  -28.1085  -36.2560   24.6328 H   0  0  0  0  0  0
  -27.2275  -37.1406   25.8865 H   0  0  0  0  0  0
  -20.9743  -29.8650   21.6491 H   0  0  0  0  0  0
  -26.0108  -38.2691   24.1398 H   0  0  0  0  0  0
  -28.7354  -21.3225   18.2920 H   0  0  0  0  0  0
  -30.3250  -21.8726   18.6080 H   0  0  0  0  0  0
  -30.5121  -18.9362   21.0765 H   0  0  0  0  0  0
  -29.5240  -19.1570   18.2396 H   0  0  0  0  0  0
  -30.9141  -21.5802   21.3025 H   0  0  0  0  0  0
  -29.8686  -22.6639   22.2156 H   0  0  0  0  0  0
  -30.6807  -23.2396   20.7708 H   0  0  0  0  0  0
  -29.4411  -20.3196   22.8763 H   0  0  0  0  0  0
  -28.0853  -19.2223   22.7307 H   0  0  0  0  0  0
  -27.8073  -20.9608   22.7588 H   0  0  0  0  0  0
  -27.1591  -19.8531   19.2283 H   0  0  0  0  0  0
  -26.4613  -20.6376   20.6351 H   0  0  0  0  0  0
  -26.8477  -18.9222   20.6792 H   0  0  0  0  0  0
  -27.3337  -23.5761   21.1251 H   0  0  0  0  0  0
  -27.3359  -23.5354   19.4211 H   0  0  0  0  0  0
  -28.5473  -16.7966   20.4156 H   0  0  0  0  0  0
  -31.8235  -20.0087   19.6194 H   0  0  0  0  0  0
  1 25  1  0  0  0
  1 30  2  0  0  0
  1 80  1  0  0  0
  2  3  1  0  0  0
  2 25  1  0  0  0
  2 82  1  0  0  0
  2 83  1  0  0  0
  3  4  1  0  0  0
  3 84  1  0  0  0
  3 85  1  0  0  0
  4  5  1  0  0  0
  4 86  1  0  0  0
  4 87  1  0  0  0
  5  6  1  0  0  0
  5 26  1  0  0  0
  5 88  1  0  0  0
  6 25  1  0  0  0
  6 89  1  0  0  0
  6 90  1  0  0  0
  7  8  2  0  0  0
  7 26  1  0  0  0
  7 29  1  0  0  0
  8  9  1  0  0  0
  8 22  1  0  0  0
  9 10  1  0  0  0
  9 27  2  0  0  0
 10 11  2  0  0  0
 10 15  1  0  0  0
 11 12  1  0  0  0
 11 91  1  0  0  0
 12 13  2  0  0  0
 12 92  1  0  0  0
 13 14  1  0  0  0
 13 31  1  0  0  0
 14 15  2  0  0  0
 14 93  1  0  0  0
 15 94  1  0  0  0
 16 17  2  0  0  0
 16 21  1  0  0  0
 16 31  1  0  0  0
 17 18  1  0  0  0
 17 95  1  0  0  0
 18 19  2  0  0  0
 18 96  1  0  0  0
 19 20  1  0  0  0
 19 24  1  0  0  0
 20 21  2  0  0  0
 20 97  1  0  0  0
 21 23  1  0  0  0
 22 28  1  0  0  0
 22 32  2  0  0  0
 26 27  1  0  0  0
 28 98  1  0  0  0
 28 99  1  0  0  0
 29100  1  0  0  0
 29101  1  0  0  0
 33 34  1  0  0  0
 33 66  1  0  0  0
 33 70  2  0  0  0
 34 36  1  0  0  0
 34 59  1  0  0  0
 34102  1  0  0  0
 35 44  2  0  0  0
 35 45  1  0  0  0
 35 68  1  0  0  0
 36 56  1  0  0  0
 36103  1  0  0  0
 37 39  1  0  0  0
 37 47  1  0  0  0
 37 66  1  0  0  0
 37104  1  0  0  0
 38 43  2  0  0  0
 38 46  1  0  0  0
 38 47  1  0  0  0
 39 64  1  0  0  0
 39 67  2  0  0  0
 40 52  1  0  0  0
 40 53  2  0  0  0
 40 58  1  0  0  0
 41105  1  0  0  0
 41106  1  0  0  0
 41107  1  0  0  0
 41 48  1  0  0  0
 42 43  1  0  0  0
 42 66  1  0  0  0
 42108  1  0  0  0
 42109  1  0  0  0
 43 44  1  0  0  0
 44110  1  0  0  0
 45 46  2  0  0  0
 45111  1  0  0  0
 46112  1  0  0  0
 47113  1  0  0  0
 47114  1  0  0  0
 48 56  1  0  0  0
 48 65  1  0  0  0
 48115  1  0  0  0
 49 50  1  0  0  0
 49 53  1  0  0  0
 49 64  1  0  0  0
 49116  1  0  0  0
 50 51  1  0  0  0
 50117  1  0  0  0
 50118  1  0  0  0
 51 52  1  0  0  0
 51119  1  0  0  0
 51120  1  0  0  0
 52121  1  0  0  0
 52122  1  0  0  0
 53 54  1  0  0  0
 54 55  2  0  0  0
 54123  1  0  0  0
 55 57  1  0  0  0
 55124  1  0  0  0
 56 69  2  0  0  0
 57 58  2  0  0  0
 57125  1  0  0  0
 58126  1  0  0  0
 59 60  1  0  0  0
 59 61  1  0  0  0
 59 62  1  0  0  0
 60127  1  0  0  0
 60128  1  0  0  0
 60129  1  0  0  0
 61130  1  0  0  0
 61131  1  0  0  0
 61132  1  0  0  0
 62133  1  0  0  0
 62134  1  0  0  0
 62135  1  0  0  0
 63 65  1  0  0  0
 63136  1  0  0  0
 63137  1  0  0  0
 63138  1  0  0  0
 64139  1  0  0  0
 65140  1  0  0  0
 68 79  1  0  0  0
 71 73  1  0  0  0
 71 74  1  0  0  0
 71141  1  0  0  0
 71142  1  0  0  0
 72 73  1  0  0  0
 72 75  1  0  0  0
 72 80  1  0  0  0
 72143  1  0  0  0
 73 81  1  0  0  0
 73144  1  0  0  0
 74 75  1  0  0  0
 74 76  1  0  0  0
 74 79  1  0  0  0
 75 77  1  0  0  0
 75 78  1  0  0  0
 76145  1  0  0  0
 76146  1  0  0  0
 76147  1  0  0  0
 77148  1  0  0  0
 77149  1  0  0  0
 77150  1  0  0  0
 78151  1  0  0  0
 78152  1  0  0  0
 78153  1  0  0  0
 79154  1  0  0  0
 79155  1  0  0  0
 80156  1  0  0  0
 81157  1  0  0  0
M  ISO  4   1 100  68 101  79 101  80 100
M  END
> <chiral flag>
0

> <version>
0

> <s_m_source_file>
/data/baiqing/PycharmProjects/Reinvent-master-3.2/result/LINK_invent/BTK/process_docking_weight1_custom_sum_contain_oxygen_bond_distance_aromatic_linkinvent_7_9_3/rearranged_h_0179.sdf

> <i_m_source_file_index>
47

> <r_mmod_Potential_Energy-OPLS-2005>
2550.33740234375

> <r_mmod_Stretch_Energy-OPLS-2005>
1130.51623535156

> <r_mmod_Bend_Energy-OPLS-2005>
724.659912109375

> <r_mmod_Torsional_Energy-OPLS-2005>
303.975128173828

> <r_mmod_Improper_Torsional_Energy-OPLS-2005>
3.52710366249084

> <r_mmod_Van_der_Waal_Energy-OPLS-2005>
107.11304473877

> <r_mmod_Electrostatic_Energy-OPLS-2005>
-437.864685058594

> <r_mmod_Solvation_Energy-OPLS-2005>
-232.145889282227

> <b_mmod_Minimization_Converged-OPLS-2005>
0

> <r_mmod_RMS_Derivative-OPLS-2005>
1.20942640304565

$$$$
47
                    3D
 Structure written by MMmdl.
151160  0  0  1  0            999 V2000
  -30.4669  -15.2040   20.3826 C   0  0  0  0  0  0
  -30.4339  -12.7669   19.5214 C   0  0  0  0  0  0
  -29.5322  -12.5695   18.2793 C   0  0  0  0  0  0
  -28.0758  -12.3080   18.7033 C   0  0  0  0  0  0
  -27.6123  -13.2740   19.8235 C   0  0  2  0  0  0
  -28.6473  -13.4270   20.9574 C   0  0  0  0  0  0
  -25.2394  -13.8256   20.5755 C   0  0  0  0  0  0
  -24.1736  -13.0443   20.9240 C   0  0  0  0  0  0
  -24.6389  -11.6938   20.8750 C   0  0  0  0  0  0
  -23.9086  -10.4298   21.0398 C   0  0  0  0  0  0
  -24.3630   -9.4214   21.9176 C   0  0  0  0  0  0
  -23.6307   -8.2246   22.0747 C   0  0  0  0  0  0
  -22.4286   -8.0284   21.3542 C   0  0  0  0  0  0
  -21.9924   -9.0255   20.4642 C   0  0  0  0  0  0
  -22.7253  -10.2133   20.3049 C   0  0  0  0  0  0
  -21.6857   -6.0736   22.5278 C   0  0  0  0  0  0
  -21.4022   -6.5638   23.8212 C   0  0  0  0  0  0
  -21.3665   -5.6787   24.9172 C   0  0  0  0  0  0
  -21.6045   -4.3049   24.7224 C   0  0  0  0  0  0
  -21.8814   -3.8145   23.4343 C   0  0  0  0  0  0
  -21.9192   -4.6963   22.3401 C   0  0  0  0  0  0
  -22.7753  -13.5194   21.1894 C   0  0  0  0  0  0
  -22.1659   -4.2145   21.0978 F   0  0  0  0  0  0
  -21.5631   -3.4535   25.7739 F   0  0  0  0  0  0
  -29.8843  -13.9126   20.3288 N   0  0  0  0  0  0
  -26.2819  -12.9528   20.3219 N   0  0  0  0  0  0
  -25.9329  -11.6632   20.5712 N   0  0  0  0  0  0
  -22.0408  -12.8183   22.0452 N   0  0  0  0  0  0
  -25.4060  -15.1991   20.4246 N   0  0  0  0  0  0
  -31.6887  -15.1949   20.1729 O   0  0  0  0  0  0
  -21.6645   -6.8883   21.4241 O   0  0  0  0  0  0
  -22.3431  -14.5497   20.6738 O   0  0  0  0  0  0
  -24.6597  -31.8271   23.1734 C   0  0  0  0  0  0
  -25.9290  -32.4604   23.8194 C   0  0  1  0  0  0
  -27.2147  -26.9582   20.1803 C   0  0  0  0  0  0
  -25.5966  -33.8418   24.2092 N   0  0  0  0  0  0
  -23.4727  -30.4399   21.5222 C   0  0  2  0  0  0
  -24.9246  -28.8322   20.1134 C   0  0  0  0  0  0
  -22.7653  -29.4455   22.4794 C   0  0  0  0  0  0
  -18.0319  -28.1402   22.8464 C   0  0  0  0  0  0
  -24.1496  -36.7222   23.2646 C   0  0  0  0  0  0
  -26.0401  -30.6427   21.3999 C   0  0  0  0  0  0
  -26.1073  -29.2356   20.7448 C   0  0  0  0  0  0
  -27.2485  -28.3195   20.7535 C   0  0  0  0  0  0
  -26.0056  -26.7028   19.4963 C   0  0  0  0  0  0
  -24.8971  -27.5852   19.4692 C   0  0  0  0  0  0
  -23.7107  -29.7570   20.1478 C   0  0  0  0  0  0
  -25.4133  -36.2978   24.0300 C   0  0  1  0  0  0
  -20.5940  -28.3745   23.1196 C   0  0  2  0  0  0
  -20.6793  -26.9430   22.5402 C   0  0  0  0  0  0
  -19.5767  -26.6371   21.5211 C   0  0  0  0  0  0
  -18.1951  -26.7933   22.1623 C   0  0  0  0  0  0
  -19.1580  -28.8893   23.2815 C   0  0  0  0  0  0
  -18.9488  -30.1484   23.8850 C   0  0  0  0  0  0
  -17.6481  -30.6593   24.0553 C   0  0  0  0  0  0
  -25.9092  -34.9359   23.5016 C   0  0  0  0  0  0
  -16.5372  -29.9079   23.6339 C   0  0  0  0  0  0
  -16.7301  -28.6500   23.0357 C   0  0  0  0  0  0
  -26.4540  -31.6540   25.0718 C   0  0  0  0  0  0
  -25.3671  -31.3794   26.1381 C   0  0  0  0  0  0
  -27.0432  -30.2906   24.6444 C   0  0  0  0  0  0
  -27.6036  -32.4345   25.7520 C   0  0  0  0  0  0
  -27.5573  -37.1768   24.8460 C   0  0  0  0  0  0
  -21.4326  -29.3042   22.3551 N   0  0  0  0  0  0
  -26.4282  -37.3709   23.9403 N   0  0  0  0  0  0
  -24.7453  -30.9963   22.0853 N   0  0  0  0  0  0
  -23.4214  -28.8016   23.3020 O   0  0  0  0  0  0
  -28.2319  -25.8784   20.2482 O   0  0  0  0  0  0
  -26.5705  -34.8885   22.4614 O   0  0  0  0  0  0
  -23.5672  -32.1227   23.6843 O   0  0  0  0  0  0
  -29.7412  -17.6662   21.3764 C   0  0  0  0  0  0
  -29.9100  -17.6879   19.4217 C   0  0  0  0  0  0
  -28.4503  -23.1004   21.2337 C   0  0  0  0  0  0
  -28.8440  -23.1337   19.3251 C   0  0  0  0  0  0
  -29.2058  -18.8202   20.3539 C   0  0  0  0  0  0
  -28.0012  -24.2524   20.1657 C   0  0  2  0  0  0
  -29.5122  -20.5881   20.4075 C   0  0  0  0  0  0
  -29.7195  -16.4843   20.3781 N   0  0  0  0  0  0
  -28.5312  -21.9163   20.2344 N   0  3  1  0  0  0
  -31.4589  -12.9537   19.1986 H   0  0  0  0  0  0
  -30.4759  -11.8551   20.1194 H   0  0  0  0  0  0
  -29.9036  -11.7471   17.6661 H   0  0  0  0  0  0
  -29.5748  -13.4635   17.6551 H   0  0  0  0  0  0
  -28.0169  -11.2794   19.0596 H   0  0  0  0  0  0
  -27.4096  -12.3714   17.8417 H   0  0  0  0  0  0
  -27.5354  -14.2487   19.3393 H   0  0  0  0  0  0
  -28.7981  -12.4889   21.4932 H   0  0  0  0  0  0
  -28.2994  -14.1551   21.6919 H   0  0  0  0  0  0
  -25.2771   -9.5698   22.4756 H   0  0  0  0  0  0
  -24.0015   -7.4642   22.7473 H   0  0  0  0  0  0
  -21.0851   -8.8777   19.8954 H   0  0  0  0  0  0
  -22.3704  -10.9672   19.6162 H   0  0  0  0  0  0
  -21.2018   -7.6147   23.9717 H   0  0  0  0  0  0
  -21.1495   -6.0517   25.9076 H   0  0  0  0  0  0
  -22.0589   -2.7607   23.2838 H   0  0  0  0  0  0
  -22.4046  -11.9868   22.4868 H   0  0  0  0  0  0
  -21.1019  -13.1197   22.2648 H   0  0  0  0  0  0
  -24.6441  -15.8555   20.5562 H   0  0  0  0  0  0
  -26.2692  -15.6441   20.1382 H   0  0  0  0  0  0
  -26.7364  -32.5143   23.0915 H   0  0  0  0  0  0
  -25.0052  -33.9502   25.0200 H   0  0  0  0  0  0
  -22.7834  -31.2698   21.3537 H   0  0  0  0  0  0
  -23.3763  -35.9547   23.3276 H   0  0  0  0  0  0
  -24.3577  -36.8902   22.2068 H   0  0  0  0  0  0
  -23.7252  -37.6400   23.6724 H   0  0  0  0  0  0
  -26.2178  -31.3846   20.6203 H   0  0  0  0  0  0
  -26.9010  -30.6982   22.0542 H   0  0  0  0  0  0
  -28.1457  -28.6261   21.2721 H   0  0  0  0  0  0
  -25.8828  -25.7582   18.9883 H   0  0  0  0  0  0
  -23.9996  -27.2729   18.9530 H   0  0  0  0  0  0
  -23.8656  -30.5254   19.3898 H   0  0  0  0  0  0
  -22.8203  -29.2109   19.8310 H   0  0  0  0  0  0
  -25.1330  -36.1779   25.0792 H   0  0  0  0  0  0
  -21.0027  -28.3349   24.1318 H   0  0  0  0  0  0
  -20.5672  -26.2363   23.3639 H   0  0  0  0  0  0
  -21.6659  -26.7405   22.1214 H   0  0  0  0  0  0
  -19.6928  -25.6268   21.1274 H   0  0  0  0  0  0
  -19.6704  -27.3153   20.6719 H   0  0  0  0  0  0
  -17.4218  -26.6670   21.4029 H   0  0  0  0  0  0
  -18.0351  -26.0087   22.9034 H   0  0  0  0  0  0
  -19.7962  -30.7312   24.2200 H   0  0  0  0  0  0
  -17.5031  -31.6267   24.5168 H   0  0  0  0  0  0
  -15.5371  -30.2962   23.7689 H   0  0  0  0  0  0
  -15.8703  -28.0805   22.7090 H   0  0  0  0  0  0
  -24.5838  -30.7163   25.7689 H   0  0  0  0  0  0
  -24.8874  -32.3002   26.4713 H   0  0  0  0  0  0
  -25.7896  -30.9010   27.0228 H   0  0  0  0  0  0
  -26.3093  -29.6577   24.1442 H   0  0  0  0  0  0
  -27.3953  -29.7275   25.5098 H   0  0  0  0  0  0
  -27.9041  -30.4080   23.9860 H   0  0  0  0  0  0
  -27.2598  -33.3670   26.2007 H   0  0  0  0  0  0
  -28.3895  -32.6871   25.0390 H   0  0  0  0  0  0
  -28.0657  -31.8541   26.5515 H   0  0  0  0  0  0
  -28.2564  -38.0088   24.7509 H   0  0  0  0  0  0
  -28.1097  -36.2613   24.6280 H   0  0  0  0  0  0
  -27.2293  -37.1404   25.8863 H   0  0  0  0  0  0
  -20.9572  -29.8743   21.6695 H   0  0  0  0  0  0
  -26.0131  -38.2772   24.1398 H   0  0  0  0  0  0
  -29.0675  -17.5288   22.2233 H   0  0  0  0  0  0
  -30.7408  -17.8799   21.7639 H   0  0  0  0  0  0
  -30.9612  -17.9092   19.2176 H   0  0  0  0  0  0
  -29.3956  -17.5678   18.4674 H   0  0  0  0  0  0
  -27.7126  -22.9278   22.0178 H   0  0  0  0  0  0
  -29.4188  -23.3093   21.6952 H   0  0  0  0  0  0
  -29.9145  -23.3513   19.2920 H   0  0  0  0  0  0
  -28.4796  -22.9933   18.3073 H   0  0  0  0  0  0
  -28.1286  -18.6739   20.2657 H   0  0  0  0  0  0
  -26.9431  -24.0964   19.9583 H   0  0  0  0  0  0
  -30.3104  -20.7752   19.6898 H   0  0  0  0  0  0
  -30.0034  -20.7730   21.3621 H   0  0  0  0  0  0
  -27.5961  -21.5960   20.0343 H   0  0  0  0  0  0
  1 25  1  0  0  0
  1 30  2  0  0  0
  1 78  1  0  0  0
  2  3  1  0  0  0
  2 25  1  0  0  0
  2 80  1  0  0  0
  2 81  1  0  0  0
  3  4  1  0  0  0
  3 82  1  0  0  0
  3 83  1  0  0  0
  4  5  1  0  0  0
  4 84  1  0  0  0
  4 85  1  0  0  0
  5  6  1  0  0  0
  5 26  1  0  0  0
  5 86  1  0  0  0
  6 25  1  0  0  0
  6 87  1  0  0  0
  6 88  1  0  0  0
  7  8  2  0  0  0
  7 26  1  0  0  0
  7 29  1  0  0  0
  8  9  1  0  0  0
  8 22  1  0  0  0
  9 10  1  0  0  0
  9 27  2  0  0  0
 10 11  2  0  0  0
 10 15  1  0  0  0
 11 12  1  0  0  0
 11 89  1  0  0  0
 12 13  2  0  0  0
 12 90  1  0  0  0
 13 14  1  0  0  0
 13 31  1  0  0  0
 14 15  2  0  0  0
 14 91  1  0  0  0
 15 92  1  0  0  0
 16 17  2  0  0  0
 16 21  1  0  0  0
 16 31  1  0  0  0
 17 18  1  0  0  0
 17 93  1  0  0  0
 18 19  2  0  0  0
 18 94  1  0  0  0
 19 20  1  0  0  0
 19 24  1  0  0  0
 20 21  2  0  0  0
 20 95  1  0  0  0
 21 23  1  0  0  0
 22 28  1  0  0  0
 22 32  2  0  0  0
 26 27  1  0  0  0
 28 96  1  0  0  0
 28 97  1  0  0  0
 29 98  1  0  0  0
 29 99  1  0  0  0
 33 34  1  0  0  0
 33 66  1  0  0  0
 33 70  2  0  0  0
 34 36  1  0  0  0
 34 59  1  0  0  0
 34100  1  0  0  0
 35 44  2  0  0  0
 35 45  1  0  0  0
 35 68  1  0  0  0
 36 56  1  0  0  0
 36101  1  0  0  0
 37 39  1  0  0  0
 37 47  1  0  0  0
 37 66  1  0  0  0
 37102  1  0  0  0
 38 43  2  0  0  0
 38 46  1  0  0  0
 38 47  1  0  0  0
 39 64  1  0  0  0
 39 67  2  0  0  0
 40 52  1  0  0  0
 40 53  2  0  0  0
 40 58  1  0  0  0
 41103  1  0  0  0
 41104  1  0  0  0
 41105  1  0  0  0
 41 48  1  0  0  0
 42 43  1  0  0  0
 42 66  1  0  0  0
 42106  1  0  0  0
 42107  1  0  0  0
 43 44  1  0  0  0
 44108  1  0  0  0
 45 46  2  0  0  0
 45109  1  0  0  0
 46110  1  0  0  0
 47111  1  0  0  0
 47112  1  0  0  0
 48 56  1  0  0  0
 48 65  1  0  0  0
 48113  1  0  0  0
 49 50  1  0  0  0
 49 53  1  0  0  0
 49 64  1  0  0  0
 49114  1  0  0  0
 50 51  1  0  0  0
 50115  1  0  0  0
 50116  1  0  0  0
 51 52  1  0  0  0
 51117  1  0  0  0
 51118  1  0  0  0
 52119  1  0  0  0
 52120  1  0  0  0
 53 54  1  0  0  0
 54 55  2  0  0  0
 54121  1  0  0  0
 55 57  1  0  0  0
 55122  1  0  0  0
 56 69  2  0  0  0
 57 58  2  0  0  0
 57123  1  0  0  0
 58124  1  0  0  0
 59 60  1  0  0  0
 59 61  1  0  0  0
 59 62  1  0  0  0
 60125  1  0  0  0
 60126  1  0  0  0
 60127  1  0  0  0
 61128  1  0  0  0
 61129  1  0  0  0
 61130  1  0  0  0
 62131  1  0  0  0
 62132  1  0  0  0
 62133  1  0  0  0
 63 65  1  0  0  0
 63134  1  0  0  0
 63135  1  0  0  0
 63136  1  0  0  0
 64137  1  0  0  0
 65138  1  0  0  0
 68 76  1  0  0  0
 71 75  1  0  0  0
 71 78  1  0  0  0
 71139  1  0  0  0
 71140  1  0  0  0
 72 75  1  0  0  0
 72 78  1  0  0  0
 72141  1  0  0  0
 72142  1  0  0  0
 73 76  1  0  0  0
 73 79  1  0  0  0
 73143  1  0  0  0
 73144  1  0  0  0
 74 76  1  0  0  0
 74 79  1  0  0  0
 74145  1  0  0  0
 74146  1  0  0  0
 75 77  1  0  0  0
 75147  1  0  0  0
 76148  1  0  0  0
 77149  1  0  0  0
 77150  1  0  0  0
 77 79  1  0  0  0
 79151  1  0  0  0
M  CHG  1  79   1
M  ISO  4   1 100  68 101  76 101  78 100
M  END
> <chiral flag>
0

> <version>
0

> <s_m_source_file>
/data/baiqing/PycharmProjects/Reinvent-master-3.2/result/LINK_invent/BTK/process_docking_weight1_custom_sum_contain_oxygen_bond_distance_aromatic_linkinvent_7_9_3/rearranged_h_0179.sdf

> <i_m_source_file_index>
48

> <r_mmod_Potential_Energy-OPLS-2005>
997.014404296875

> <r_mmod_Stretch_Energy-OPLS-2005>
460.083282470703

> <r_mmod_Bend_Energy-OPLS-2005>
443.680145263672

> <r_mmod_Torsional_Energy-OPLS-2005>
298.756896972656

> <r_mmod_Improper_Torsional_Energy-OPLS-2005>
13.9177551269531

> <r_mmod_Van_der_Waal_Energy-OPLS-2005>
113.888717651367

> <r_mmod_Electrostatic_Energy-OPLS-2005>
-248.756210327148

> <r_mmod_Solvation_Energy-OPLS-2005>
-485.625152587891

> <b_mmod_Minimization_Converged-OPLS-2005>
0

> <r_mmod_RMS_Derivative-OPLS-2005>
0.912254273891449

$$$$
48
                    3D
 Structure written by MMmdl.
158167  0  0  1  0            999 V2000
  -30.5518  -15.1368   20.3781 C   0  0  0  0  0  0
  -30.4222  -12.7326   19.4999 C   0  0  0  0  0  0
  -29.5189  -12.5470   18.2625 C   0  0  0  0  0  0
  -28.0629  -12.3018   18.6950 C   0  0  0  0  0  0
  -27.6118  -13.2726   19.8175 C   0  0  2  0  0  0
  -28.6550  -13.4328   20.9419 C   0  0  0  0  0  0
  -25.2377  -13.8241   20.5728 C   0  0  0  0  0  0
  -24.1728  -13.0445   20.9279 C   0  0  0  0  0  0
  -24.6385  -11.6940   20.8793 C   0  0  0  0  0  0
  -23.9065  -10.4308   21.0413 C   0  0  0  0  0  0
  -24.3617   -9.4215   21.9168 C   0  0  0  0  0  0
  -23.6323   -8.2230   22.0723 C   0  0  0  0  0  0
  -22.4301   -8.0269   21.3533 C   0  0  0  0  0  0
  -21.9949   -9.0233   20.4632 C   0  0  0  0  0  0
  -22.7250  -10.2132   20.3052 C   0  0  0  0  0  0
  -21.6856   -6.0738   22.5279 C   0  0  0  0  0  0
  -21.3998   -6.5634   23.8213 C   0  0  0  0  0  0
  -21.3668   -5.6780   24.9172 C   0  0  0  0  0  0
  -21.6061   -4.3042   24.7214 C   0  0  0  0  0  0
  -21.8824   -3.8140   23.4327 C   0  0  0  0  0  0
  -21.9183   -4.6964   22.3401 C   0  0  0  0  0  0
  -22.7758  -13.5202   21.1926 C   0  0  0  0  0  0
  -22.1672   -4.2155   21.0982 F   0  0  0  0  0  0
  -21.5651   -3.4529   25.7728 F   0  0  0  0  0  0
  -29.8903  -13.8932   20.2923 N   0  0  0  0  0  0
  -26.2809  -12.9521   20.3218 N   0  0  0  0  0  0
  -25.9311  -11.6631   20.5732 N   0  0  0  0  0  0
  -22.0381  -12.8208   22.0486 N   0  0  0  0  0  0
  -25.4002  -15.1965   20.4139 N   0  0  0  0  0  0
  -31.7785  -15.0476   20.2428 O   0  0  0  0  0  0
  -21.6641   -6.8882   21.4238 O   0  0  0  0  0  0
  -22.3477  -14.5515   20.6757 O   0  0  0  0  0  0
  -24.6545  -31.8325   23.1788 C   0  0  0  0  0  0
  -25.9300  -32.4620   23.8203 C   0  0  1  0  0  0
  -27.2201  -27.0323   20.1414 C   0  0  0  0  0  0
  -25.6039  -33.8428   24.2119 N   0  0  0  0  0  0
  -23.4628  -30.4494   21.5256 C   0  0  2  0  0  0
  -24.9108  -28.8564   20.1023 C   0  0  0  0  0  0
  -22.7617  -29.4483   22.4806 C   0  0  0  0  0  0
  -18.0306  -28.1392   22.8459 C   0  0  0  0  0  0
  -24.1496  -36.7191   23.2646 C   0  0  0  0  0  0
  -26.0262  -30.6678   21.3961 C   0  0  0  0  0  0
  -26.0916  -29.2721   20.7295 C   0  0  0  0  0  0
  -27.2380  -28.3748   20.7342 C   0  0  0  0  0  0
  -26.0118  -26.7434   19.4684 C   0  0  0  0  0  0
  -24.8905  -27.6088   19.4551 C   0  0  0  0  0  0
  -23.6939  -29.7747   20.1470 C   0  0  0  0  0  0
  -25.4132  -36.2966   24.0309 C   0  0  1  0  0  0
  -20.5922  -28.3726   23.1197 C   0  0  2  0  0  0
  -20.6778  -26.9408   22.5410 C   0  0  0  0  0  0
  -19.5775  -26.6362   21.5210 C   0  0  0  0  0  0
  -18.1950  -26.7946   22.1583 C   0  0  0  0  0  0
  -19.1570  -28.8872   23.2819 C   0  0  0  0  0  0
  -18.9490  -30.1478   23.8841 C   0  0  0  0  0  0
  -17.6479  -30.6585   24.0555 C   0  0  0  0  0  0
  -25.9104  -34.9371   23.5018 C   0  0  0  0  0  0
  -16.5365  -29.9067   23.6354 C   0  0  0  0  0  0
  -16.7296  -28.6495   23.0362 C   0  0  0  0  0  0
  -26.4603  -31.6528   25.0690 C   0  0  0  0  0  0
  -25.3770  -31.3780   26.1370 C   0  0  0  0  0  0
  -27.0501  -30.2897   24.6392 C   0  0  0  0  0  0
  -27.6109  -32.4329   25.7472 C   0  0  0  0  0  0
  -27.5576  -37.1725   24.8449 C   0  0  0  0  0  0
  -21.4292  -29.3043   22.3548 N   0  0  0  0  0  0
  -26.4262  -37.3704   23.9447 N   0  0  0  0  0  0
  -24.7346  -31.0079   22.0876 N   0  0  0  0  0  0
  -23.4219  -28.8058   23.3007 O   0  0  0  0  0  0
  -28.2483  -25.9931   20.2709 O   0  0  0  0  0  0
  -26.5677  -34.8883   22.4585 O   0  0  0  0  0  0
  -23.5656  -32.1263   23.6955 O   0  0  0  0  0  0
  -29.0605  -21.6794   19.7923 C   0  0  0  0  0  0
  -28.8579  -20.3348   20.4498 C   0  0  0  0  0  0
  -28.4221  -22.9682   20.2779 C   0  0  0  0  0  0
  -27.5156  -21.5816   21.9187 C   0  0  0  0  0  0
  -30.6540  -17.8625   20.5509 C   0  0  0  0  0  0
  -28.6760  -17.2862   20.3915 C   0  0  0  0  0  0
  -29.3788  -18.7309   20.1050 C   0  0  0  0  0  0
  -26.5552  -21.5132   23.0880 C   0  0  0  0  0  0
  -29.3577  -21.4420   17.2566 C   0  0  0  0  0  0
  -30.0130  -21.7467   18.6072 C   0  0  0  0  0  0
  -28.3439  -24.5348   19.6017 C   0  0  0  0  0  0
  -28.0708  -20.4187   21.5433 N   0  0  0  0  0  0
  -27.6439  -22.7949   21.3664 N   0  0  0  0  0  0
  -29.9812  -16.4908   20.3894 N   0  0  0  0  0  0
  -31.4475  -12.8949   19.1661 H   0  0  0  0  0  0
  -30.4530  -11.8257   20.1053 H   0  0  0  0  0  0
  -29.8812  -11.7189   17.6508 H   0  0  0  0  0  0
  -29.5663  -13.4395   17.6353 H   0  0  0  0  0  0
  -28.0031  -11.2761   19.0590 H   0  0  0  0  0  0
  -27.3891  -12.3623   17.8380 H   0  0  0  0  0  0
  -27.5346  -14.2468   19.3339 H   0  0  0  0  0  0
  -28.8079  -12.5024   21.4886 H   0  0  0  0  0  0
  -28.3186  -14.1793   21.6648 H   0  0  0  0  0  0
  -25.2736   -9.5711   22.4754 H   0  0  0  0  0  0
  -24.0038   -7.4614   22.7423 H   0  0  0  0  0  0
  -21.0881   -8.8746   19.8943 H   0  0  0  0  0  0
  -22.3676  -10.9668   19.6174 H   0  0  0  0  0  0
  -21.1963   -7.6140   23.9738 H   0  0  0  0  0  0
  -21.1512   -6.0492   25.9091 H   0  0  0  0  0  0
  -22.0594   -2.7602   23.2811 H   0  0  0  0  0  0
  -22.4019  -11.9897   22.4926 H   0  0  0  0  0  0
  -21.0975  -13.1214   22.2614 H   0  0  0  0  0  0
  -24.6249  -15.8424   20.5159 H   0  0  0  0  0  0
  -26.2440  -15.6325   20.0685 H   0  0  0  0  0  0
  -26.7361  -32.5164   23.0911 H   0  0  0  0  0  0
  -25.0280  -33.9528   25.0337 H   0  0  0  0  0  0
  -22.7741  -31.2810   21.3656 H   0  0  0  0  0  0
  -23.3797  -35.9474   23.3230 H   0  0  0  0  0  0
  -24.3600  -36.8909   22.2076 H   0  0  0  0  0  0
  -23.7186  -37.6328   23.6745 H   0  0  0  0  0  0
  -26.2047  -31.4222   20.6288 H   0  0  0  0  0  0
  -26.8871  -30.7081   22.0515 H   0  0  0  0  0  0
  -28.1307  -28.6870   21.2590 H   0  0  0  0  0  0
  -25.8843  -25.7853   18.9892 H   0  0  0  0  0  0
  -23.9893  -27.2817   18.9541 H   0  0  0  0  0  0
  -23.8372  -30.5493   19.3930 H   0  0  0  0  0  0
  -22.8026  -29.2283   19.8328 H   0  0  0  0  0  0
  -25.1310  -36.1755   25.0791 H   0  0  0  0  0  0
  -21.0032  -28.3339   24.1310 H   0  0  0  0  0  0
  -20.5620  -26.2362   23.3656 H   0  0  0  0  0  0
  -21.6649  -26.7373   22.1241 H   0  0  0  0  0  0
  -19.6941  -25.6260   21.1278 H   0  0  0  0  0  0
  -19.6747  -27.3138   20.6725 H   0  0  0  0  0  0
  -17.4239  -26.6726   21.3959 H   0  0  0  0  0  0
  -18.0300  -26.0070   22.8945 H   0  0  0  0  0  0
  -19.7961  -30.7310   24.2175 H   0  0  0  0  0  0
  -17.5034  -31.6263   24.5160 H   0  0  0  0  0  0
  -15.5358  -30.2960   23.7719 H   0  0  0  0  0  0
  -15.8690  -28.0811   22.7098 H   0  0  0  0  0  0
  -24.5996  -30.7053   25.7732 H   0  0  0  0  0  0
  -24.8909  -32.2979   26.4628 H   0  0  0  0  0  0
  -25.8049  -30.9105   27.0247 H   0  0  0  0  0  0
  -26.3175  -29.6561   24.1379 H   0  0  0  0  0  0
  -27.4038  -29.7257   25.5038 H   0  0  0  0  0  0
  -27.9109  -30.4085   23.9805 H   0  0  0  0  0  0
  -27.2688  -33.3666   26.1943 H   0  0  0  0  0  0
  -28.3969  -32.6824   25.0336 H   0  0  0  0  0  0
  -28.0733  -31.8531   26.5468 H   0  0  0  0  0  0
  -28.2514  -38.0096   24.7583 H   0  0  0  0  0  0
  -28.1143  -36.2630   24.6146 H   0  0  0  0  0  0
  -27.2329  -37.1207   25.8852 H   0  0  0  0  0  0
  -20.9527  -29.8736   21.6684 H   0  0  0  0  0  0
  -26.0106  -38.2741   24.1524 H   0  0  0  0  0  0
  -30.9464  -18.0699   21.5816 H   0  0  0  0  0  0
  -31.5093  -18.0295   19.8898 H   0  0  0  0  0  0
  -27.9717  -17.0026   19.6080 H   0  0  0  0  0  0
  -28.1805  -17.2662   21.3653 H   0  0  0  0  0  0
  -29.4433  -18.7802   19.0172 H   0  0  0  0  0  0
  -26.6083  -20.5511   23.5966 H   0  0  0  0  0  0
  -25.5307  -21.6561   22.7393 H   0  0  0  0  0  0
  -26.7745  -22.2944   23.8157 H   0  0  0  0  0  0
  -30.0867  -21.5452   16.4521 H   0  0  0  0  0  0
  -28.5353  -22.1265   17.0418 H   0  0  0  0  0  0
  -28.9725  -20.4229   17.2100 H   0  0  0  0  0  0
  -30.8344  -21.0476   18.7757 H   0  0  0  0  0  0
  -30.4775  -22.7316   18.5722 H   0  0  0  0  0  0
  -27.5830  -24.4821   18.8245 H   0  0  0  0  0  0
  -29.2685  -24.6117   19.0297 H   0  0  0  0  0  0
  1 25  1  0  0  0
  1 30  2  0  0  0
  1 84  1  0  0  0
  2  3  1  0  0  0
  2 25  1  0  0  0
  2 85  1  0  0  0
  2 86  1  0  0  0
  3  4  1  0  0  0
  3 87  1  0  0  0
  3 88  1  0  0  0
  4  5  1  0  0  0
  4 89  1  0  0  0
  4 90  1  0  0  0
  5  6  1  0  0  0
  5 26  1  0  0  0
  5 91  1  0  0  0
  6 25  1  0  0  0
  6 92  1  0  0  0
  6 93  1  0  0  0
  7  8  2  0  0  0
  7 26  1  0  0  0
  7 29  1  0  0  0
  8  9  1  0  0  0
  8 22  1  0  0  0
  9 10  1  0  0  0
  9 27  2  0  0  0
 10 11  2  0  0  0
 10 15  1  0  0  0
 11 12  1  0  0  0
 11 94  1  0  0  0
 12 13  2  0  0  0
 12 95  1  0  0  0
 13 14  1  0  0  0
 13 31  1  0  0  0
 14 15  2  0  0  0
 14 96  1  0  0  0
 15 97  1  0  0  0
 16 17  2  0  0  0
 16 21  1  0  0  0
 16 31  1  0  0  0
 17 18  1  0  0  0
 17 98  1  0  0  0
 18 19  2  0  0  0
 18 99  1  0  0  0
 19 20  1  0  0  0
 19 24  1  0  0  0
 20 21  2  0  0  0
 20100  1  0  0  0
 21 23  1  0  0  0
 22 28  1  0  0  0
 22 32  2  0  0  0
 26 27  1  0  0  0
 28101  1  0  0  0
 28102  1  0  0  0
 29103  1  0  0  0
 29104  1  0  0  0
 33 34  1  0  0  0
 33 66  1  0  0  0
 33 70  2  0  0  0
 34 36  1  0  0  0
 34 59  1  0  0  0
 34105  1  0  0  0
 35 44  2  0  0  0
 35 45  1  0  0  0
 35 68  1  0  0  0
 36 56  1  0  0  0
 36106  1  0  0  0
 37 39  1  0  0  0
 37 47  1  0  0  0
 37 66  1  0  0  0
 37107  1  0  0  0
 38 43  2  0  0  0
 38 46  1  0  0  0
 38 47  1  0  0  0
 39 64  1  0  0  0
 39 67  2  0  0  0
 40 52  1  0  0  0
 40 53  2  0  0  0
 40 58  1  0  0  0
 41108  1  0  0  0
 41109  1  0  0  0
 41110  1  0  0  0
 41 48  1  0  0  0
 42 43  1  0  0  0
 42 66  1  0  0  0
 42111  1  0  0  0
 42112  1  0  0  0
 43 44  1  0  0  0
 44113  1  0  0  0
 45 46  2  0  0  0
 45114  1  0  0  0
 46115  1  0  0  0
 47116  1  0  0  0
 47117  1  0  0  0
 48 56  1  0  0  0
 48 65  1  0  0  0
 48118  1  0  0  0
 49 50  1  0  0  0
 49 53  1  0  0  0
 49 64  1  0  0  0
 49119  1  0  0  0
 50 51  1  0  0  0
 50120  1  0  0  0
 50121  1  0  0  0
 51 52  1  0  0  0
 51122  1  0  0  0
 51123  1  0  0  0
 52124  1  0  0  0
 52125  1  0  0  0
 53 54  1  0  0  0
 54 55  2  0  0  0
 54126  1  0  0  0
 55 57  1  0  0  0
 55127  1  0  0  0
 56 69  2  0  0  0
 57 58  2  0  0  0
 57128  1  0  0  0
 58129  1  0  0  0
 59 60  1  0  0  0
 59 61  1  0  0  0
 59 62  1  0  0  0
 60130  1  0  0  0
 60131  1  0  0  0
 60132  1  0  0  0
 61133  1  0  0  0
 61134  1  0  0  0
 61135  1  0  0  0
 62136  1  0  0  0
 62137  1  0  0  0
 62138  1  0  0  0
 63 65  1  0  0  0
 63139  1  0  0  0
 63140  1  0  0  0
 63141  1  0  0  0
 64142  1  0  0  0
 65143  1  0  0  0
 68 81  1  0  0  0
 71 72  2  0  0  0
 71 73  1  0  0  0
 71 80  1  0  0  0
 72 82  1  0  0  0
 72 77  1  0  0  0
 73 81  1  0  0  0
 73 83  2  0  0  0
 74 78  1  0  0  0
 74 82  2  0  0  0
 74 83  1  0  0  0
 75 77  1  0  0  0
 75 84  1  0  0  0
 75144  1  0  0  0
 75145  1  0  0  0
 76 77  1  0  0  0
 76 84  1  0  0  0
 76146  1  0  0  0
 76147  1  0  0  0
 77148  1  0  0  0
 78149  1  0  0  0
 78150  1  0  0  0
 78151  1  0  0  0
 79 80  1  0  0  0
 79152  1  0  0  0
 79153  1  0  0  0
 79154  1  0  0  0
 80155  1  0  0  0
 80156  1  0  0  0
 81157  1  0  0  0
 81158  1  0  0  0
M  ISO  4   1 100  68 101  81 101  84 100
M  END
> <chiral flag>
0

> <version>
0

> <s_m_source_file>
/data/baiqing/PycharmProjects/Reinvent-master-3.2/result/LINK_invent/BTK/process_docking_weight1_custom_sum_contain_oxygen_bond_distance_aromatic_linkinvent_7_9_3/rearranged_h_0179.sdf

> <i_m_source_file_index>
49

> <r_mmod_Potential_Energy-OPLS-2005>
588.108642578125

> <r_mmod_Stretch_Energy-OPLS-2005>
375.929443359375

> <r_mmod_Bend_Energy-OPLS-2005>
398.118072509766

> <r_mmod_Torsional_Energy-OPLS-2005>
260.195739746094

> <r_mmod_Improper_Torsional_Energy-OPLS-2005>
5.76783275604248

> <r_mmod_Van_der_Waal_Energy-OPLS-2005>
124.16162109375

> <r_mmod_Electrostatic_Energy-OPLS-2005>
-663.680053710938

> <r_mmod_Solvation_Energy-OPLS-2005>
-242.137359619141

> <b_mmod_Minimization_Converged-OPLS-2005>
0

> <r_mmod_RMS_Derivative-OPLS-2005>
3.69593715667725

$$$$
49
                    3D
 Structure written by MMmdl.
152161  0  0  1  0            999 V2000
  -30.5000  -15.0145   20.4037 C   0  0  0  0  0  0
  -30.4457  -12.6355   19.5084 C   0  0  0  0  0  0
  -29.5309  -12.5422   18.2641 C   0  0  0  0  0  0
  -28.0628  -12.3181   18.6798 C   0  0  0  0  0  0
  -27.6288  -13.2536   19.8365 C   0  0  2  0  0  0
  -28.6649  -13.3044   20.9785 C   0  0  0  0  0  0
  -25.2458  -13.8220   20.5707 C   0  0  0  0  0  0
  -24.1782  -13.0439   20.9241 C   0  0  0  0  0  0
  -24.6412  -11.6922   20.8760 C   0  0  0  0  0  0
  -23.9108  -10.4284   21.0409 C   0  0  0  0  0  0
  -24.3649   -9.4201   21.9190 C   0  0  0  0  0  0
  -23.6314   -8.2247   22.0771 C   0  0  0  0  0  0
  -22.4299   -8.0297   21.3561 C   0  0  0  0  0  0
  -21.9929   -9.0270   20.4669 C   0  0  0  0  0  0
  -22.7275  -10.2145   20.3060 C   0  0  0  0  0  0
  -21.6860   -6.0755   22.5263 C   0  0  0  0  0  0
  -21.4025   -6.5642   23.8204 C   0  0  0  0  0  0
  -21.3656   -5.6796   24.9163 C   0  0  0  0  0  0
  -21.6033   -4.3047   24.7214 C   0  0  0  0  0  0
  -21.8825   -3.8159   23.4318 C   0  0  0  0  0  0
  -21.9186   -4.6981   22.3386 C   0  0  0  0  0  0
  -22.7795  -13.5200   21.1869 C   0  0  0  0  0  0
  -22.1660   -4.2162   21.0965 F   0  0  0  0  0  0
  -21.5626   -3.4537   25.7726 F   0  0  0  0  0  0
  -29.9346  -13.7348   20.3817 N   0  0  0  0  0  0
  -26.2877  -12.9451   20.3213 N   0  0  0  0  0  0
  -25.9339  -11.6580   20.5723 N   0  0  0  0  0  0
  -22.0445  -12.8198   22.0421 N   0  0  0  0  0  0
  -25.4121  -15.1953   20.4103 N   0  0  0  0  0  0
  -31.6990  -15.0872   20.1115 O   0  0  0  0  0  0
  -21.6660   -6.8900   21.4235 O   0  0  0  0  0  0
  -22.3457  -14.5497   20.6712 O   0  0  0  0  0  0
  -24.6451  -31.8436   23.1896 C   0  0  0  0  0  0
  -25.9221  -32.4686   23.8275 C   0  0  1  0  0  0
  -27.1935  -27.1042   20.1617 C   0  0  0  0  0  0
  -25.5975  -33.8494   24.2199 N   0  0  0  0  0  0
  -23.4485  -30.4630   21.5375 C   0  0  2  0  0  0
  -24.8941  -28.8941   20.1087 C   0  0  0  0  0  0
  -22.7580  -29.4529   22.4888 C   0  0  0  0  0  0
  -18.0312  -28.1384   22.8477 C   0  0  0  0  0  0
  -24.1497  -36.7261   23.2635 C   0  0  0  0  0  0
  -26.0058  -30.7090   21.3902 C   0  0  0  0  0  0
  -26.0739  -29.3166   20.7369 C   0  0  0  0  0  0
  -27.2271  -28.4387   20.7464 C   0  0  0  0  0  0
  -25.9972  -26.8068   19.4734 C   0  0  0  0  0  0
  -24.8746  -27.6560   19.4555 C   0  0  0  0  0  0
  -23.6743  -29.8005   20.1535 C   0  0  0  0  0  0
  -25.4124  -36.3020   24.0310 C   0  0  1  0  0  0
  -20.5917  -28.3710   23.1248 C   0  0  2  0  0  0
  -20.6792  -26.9416   22.5410 C   0  0  0  0  0  0
  -19.5767  -26.6379   21.5208 C   0  0  0  0  0  0
  -18.1950  -26.7924   22.1625 C   0  0  0  0  0  0
  -19.1556  -28.8870   23.2850 C   0  0  0  0  0  0
  -18.9473  -30.1469   23.8868 C   0  0  0  0  0  0
  -17.6470  -30.6584   24.0553 C   0  0  0  0  0  0
  -25.9070  -34.9399   23.5052 C   0  0  0  0  0  0
  -16.5368  -29.9073   23.6327 C   0  0  0  0  0  0
  -16.7288  -28.6491   23.0338 C   0  0  0  0  0  0
  -26.4543  -31.6544   25.0713 C   0  0  0  0  0  0
  -25.3739  -31.3742   26.1415 C   0  0  0  0  0  0
  -27.0374  -30.2928   24.6279 C   0  0  0  0  0  0
  -27.6083  -32.4289   25.7501 C   0  0  0  0  0  0
  -27.5572  -37.1784   24.8465 C   0  0  0  0  0  0
  -21.4270  -29.3034   22.3630 N   0  0  0  0  0  0
  -26.4286  -37.3735   23.9402 N   0  0  0  0  0  0
  -24.7195  -31.0272   22.0937 N   0  0  0  0  0  0
  -23.4215  -28.8052   23.3014 O   0  0  0  0  0  0
  -28.2153  -26.0777   20.2154 O   0  0  0  0  0  0
  -26.5651  -34.8908   22.4621 O   0  0  0  0  0  0
  -23.5572  -32.1316   23.7112 O   0  0  0  0  0  0
  -30.0428  -23.4227   19.5189 C   0  0  0  0  0  0
  -30.8611  -22.3083   19.2646 C   0  0  0  0  0  0
  -28.8197  -23.2400   20.1702 C   0  0  0  0  0  0
  -29.3799  -20.8019   20.2379 C   0  0  0  0  0  0
  -28.7241  -18.3078   19.4183 C   0  0  0  0  0  0
  -29.1136  -19.1843   20.5690 C   0  0  1  0  0  0
  -29.9043  -17.7182   20.1807 C   0  0  1  0  0  0
  -32.1697  -22.4813   18.5213 C   0  0  0  0  0  0
  -27.8329  -24.5573   20.3801 C   0  0  0  0  0  0
  -30.5374  -21.0458   19.6298 N   0  0  0  0  0  0
  -28.5160  -21.8819   20.5012 N   0  0  0  0  0  0
  -29.6870  -16.1909   20.5324 N   0  0  0  0  0  0
  -31.4765  -12.8106   19.1950 H   0  0  0  0  0  0
  -30.4620  -11.6934   20.0539 H   0  0  0  0  0  0
  -29.8644  -11.7396   17.6023 H   0  0  0  0  0  0
  -29.6082  -13.4627   17.6829 H   0  0  0  0  0  0
  -27.9662  -11.2787   18.9942 H   0  0  0  0  0  0
  -27.4005  -12.4448   17.8225 H   0  0  0  0  0  0
  -27.5876  -14.2524   19.3988 H   0  0  0  0  0  0
  -28.7681  -12.3388   21.4745 H   0  0  0  0  0  0
  -28.3518  -14.0176   21.7425 H   0  0  0  0  0  0
  -25.2796   -9.5677   22.4763 H   0  0  0  0  0  0
  -24.0026   -7.4631   22.7470 H   0  0  0  0  0  0
  -21.0874   -8.8791   19.8964 H   0  0  0  0  0  0
  -22.3739  -10.9690   19.6164 H   0  0  0  0  0  0
  -21.2053   -7.6155   23.9711 H   0  0  0  0  0  0
  -21.1470   -6.0528   25.9068 H   0  0  0  0  0  0
  -22.0614   -2.7620   23.2809 H   0  0  0  0  0  0
  -22.4084  -11.9886   22.4834 H   0  0  0  0  0  0
  -21.1063  -13.1217   22.2627 H   0  0  0  0  0  0
  -24.6438  -15.8463   20.5363 H   0  0  0  0  0  0
  -26.2339  -15.6239   20.0056 H   0  0  0  0  0  0
  -26.7293  -32.5286   23.1007 H   0  0  0  0  0  0
  -25.0123  -33.9605   25.0352 H   0  0  0  0  0  0
  -22.7518  -31.2896   21.3881 H   0  0  0  0  0  0
  -23.3745  -35.9600   23.3276 H   0  0  0  0  0  0
  -24.3605  -36.8913   22.2056 H   0  0  0  0  0  0
  -23.7276  -37.6463   23.6692 H   0  0  0  0  0  0
  -26.1586  -31.4581   20.6115 H   0  0  0  0  0  0
  -26.8781  -30.7649   22.0283 H   0  0  0  0  0  0
  -28.1231  -28.7568   21.2600 H   0  0  0  0  0  0
  -25.8911  -25.8777   18.9370 H   0  0  0  0  0  0
  -23.9861  -27.3358   18.9277 H   0  0  0  0  0  0
  -23.8165  -30.5791   19.4009 H   0  0  0  0  0  0
  -22.7869  -29.2480   19.8380 H   0  0  0  0  0  0
  -25.1309  -36.1840   25.0804 H   0  0  0  0  0  0
  -21.0010  -28.3287   24.1362 H   0  0  0  0  0  0
  -20.5682  -26.2314   23.3621 H   0  0  0  0  0  0
  -21.6661  -26.7426   22.1202 H   0  0  0  0  0  0
  -19.6916  -25.6279   21.1260 H   0  0  0  0  0  0
  -19.6690  -27.3173   20.6723 H   0  0  0  0  0  0
  -17.4211  -26.6656   21.4040 H   0  0  0  0  0  0
  -18.0351  -26.0088   22.9047 H   0  0  0  0  0  0
  -19.7946  -30.7295   24.2227 H   0  0  0  0  0  0
  -17.5013  -31.6262   24.5161 H   0  0  0  0  0  0
  -15.5361  -30.2946   23.7671 H   0  0  0  0  0  0
  -15.8700  -28.0804   22.7053 H   0  0  0  0  0  0
  -24.5912  -30.7093   25.7748 H   0  0  0  0  0  0
  -24.8934  -32.2926   26.4793 H   0  0  0  0  0  0
  -25.8022  -30.8949   27.0225 H   0  0  0  0  0  0
  -26.2963  -29.6664   24.1294 H   0  0  0  0  0  0
  -27.3991  -29.7213   25.4838 H   0  0  0  0  0  0
  -27.8889  -30.4142   23.9577 H   0  0  0  0  0  0
  -27.2699  -33.3629   26.1994 H   0  0  0  0  0  0
  -28.3941  -32.6764   25.0354 H   0  0  0  0  0  0
  -28.0688  -31.8453   26.5481 H   0  0  0  0  0  0
  -28.2573  -38.0093   24.7496 H   0  0  0  0  0  0
  -28.1087  -36.2617   24.6301 H   0  0  0  0  0  0
  -27.2303  -37.1458   25.8874 H   0  0  0  0  0  0
  -20.9479  -29.8772   21.6836 H   0  0  0  0  0  0
  -26.0141  -38.2802   24.1384 H   0  0  0  0  0  0
  -30.3357  -24.4129   19.1940 H   0  0  0  0  0  0
  -28.9338  -18.6892   18.4203 H   0  0  0  0  0  0
  -27.7480  -17.8341   19.5046 H   0  0  0  0  0  0
  -28.4946  -19.1384   21.4633 H   0  0  0  0  0  0
  -30.8955  -17.9121   19.7732 H   0  0  0  0  0  0
  -32.1270  -23.3441   17.8560 H   0  0  0  0  0  0
  -32.3972  -21.6070   17.9106 H   0  0  0  0  0  0
  -32.9861  -22.6419   19.2239 H   0  0  0  0  0  0
  -27.4181  -24.4586   21.3839 H   0  0  0  0  0  0
  -26.9954  -24.3332   19.7239 H   0  0  0  0  0  0
  -28.7399  -15.9743   20.8017 H   0  0  0  0  0  0
  1 25  1  0  0  0
  1 30  2  0  0  0
  1 82  1  0  0  0
  2  3  1  0  0  0
  2 25  1  0  0  0
  2 83  1  0  0  0
  2 84  1  0  0  0
  3  4  1  0  0  0
  3 85  1  0  0  0
  3 86  1  0  0  0
  4  5  1  0  0  0
  4 87  1  0  0  0
  4 88  1  0  0  0
  5  6  1  0  0  0
  5 26  1  0  0  0
  5 89  1  0  0  0
  6 25  1  0  0  0
  6 90  1  0  0  0
  6 91  1  0  0  0
  7  8  2  0  0  0
  7 26  1  0  0  0
  7 29  1  0  0  0
  8  9  1  0  0  0
  8 22  1  0  0  0
  9 10  1  0  0  0
  9 27  2  0  0  0
 10 11  2  0  0  0
 10 15  1  0  0  0
 11 12  1  0  0  0
 11 92  1  0  0  0
 12 13  2  0  0  0
 12 93  1  0  0  0
 13 14  1  0  0  0
 13 31  1  0  0  0
 14 15  2  0  0  0
 14 94  1  0  0  0
 15 95  1  0  0  0
 16 17  2  0  0  0
 16 21  1  0  0  0
 16 31  1  0  0  0
 17 18  1  0  0  0
 17 96  1  0  0  0
 18 19  2  0  0  0
 18 97  1  0  0  0
 19 20  1  0  0  0
 19 24  1  0  0  0
 20 21  2  0  0  0
 20 98  1  0  0  0
 21 23  1  0  0  0
 22 28  1  0  0  0
 22 32  2  0  0  0
 26 27  1  0  0  0
 28 99  1  0  0  0
 28100  1  0  0  0
 29101  1  0  0  0
 29102  1  0  0  0
 33 34  1  0  0  0
 33 66  1  0  0  0
 33 70  2  0  0  0
 34 36  1  0  0  0
 34 59  1  0  0  0
 34103  1  0  0  0
 35 44  2  0  0  0
 35 45  1  0  0  0
 35 68  1  0  0  0
 36 56  1  0  0  0
 36104  1  0  0  0
 37 39  1  0  0  0
 37 47  1  0  0  0
 37 66  1  0  0  0
 37105  1  0  0  0
 38 43  2  0  0  0
 38 46  1  0  0  0
 38 47  1  0  0  0
 39 64  1  0  0  0
 39 67  2  0  0  0
 40 52  1  0  0  0
 40 53  2  0  0  0
 40 58  1  0  0  0
 41106  1  0  0  0
 41107  1  0  0  0
 41108  1  0  0  0
 41 48  1  0  0  0
 42 43  1  0  0  0
 42 66  1  0  0  0
 42109  1  0  0  0
 42110  1  0  0  0
 43 44  1  0  0  0
 44111  1  0  0  0
 45 46  2  0  0  0
 45112  1  0  0  0
 46113  1  0  0  0
 47114  1  0  0  0
 47115  1  0  0  0
 48 56  1  0  0  0
 48 65  1  0  0  0
 48116  1  0  0  0
 49 50  1  0  0  0
 49 53  1  0  0  0
 49 64  1  0  0  0
 49117  1  0  0  0
 50 51  1  0  0  0
 50118  1  0  0  0
 50119  1  0  0  0
 51 52  1  0  0  0
 51120  1  0  0  0
 51121  1  0  0  0
 52122  1  0  0  0
 52123  1  0  0  0
 53 54  1  0  0  0
 54 55  2  0  0  0
 54124  1  0  0  0
 55 57  1  0  0  0
 55125  1  0  0  0
 56 69  2  0  0  0
 57 58  2  0  0  0
 57126  1  0  0  0
 58127  1  0  0  0
 59 60  1  0  0  0
 59 61  1  0  0  0
 59 62  1  0  0  0
 60128  1  0  0  0
 60129  1  0  0  0
 60130  1  0  0  0
 61131  1  0  0  0
 61132  1  0  0  0
 61133  1  0  0  0
 62134  1  0  0  0
 62135  1  0  0  0
 62136  1  0  0  0
 63 65  1  0  0  0
 63137  1  0  0  0
 63138  1  0  0  0
 63139  1  0  0  0
 64140  1  0  0  0
 65141  1  0  0  0
 68 79  1  0  0  0
 71 72  2  0  0  0
 71 73  1  0  0  0
 71142  1  0  0  0
 72 78  1  0  0  0
 72 80  1  0  0  0
 73 79  1  0  0  0
 73 81  2  0  0  0
 74 80  2  0  0  0
 74 81  1  0  0  0
 74 76  1  0  0  0
 75 76  1  0  0  0
 75 77  1  0  0  0
 75143  1  0  0  0
 75144  1  0  0  0
 76 77  1  0  0  0
 76145  1  0  0  0
 77 82  1  0  0  0
 77146  1  0  0  0
 78147  1  0  0  0
 78148  1  0  0  0
 78149  1  0  0  0
 79150  1  0  0  0
 79151  1  0  0  0
 82152  1  0  0  0
M  ISO  4   1 100  68 101  79 101  82 100
M  END
> <chiral flag>
0

> <version>
0

> <s_m_source_file>
/data/baiqing/PycharmProjects/Reinvent-master-3.2/result/LINK_invent/BTK/process_docking_weight1_custom_sum_contain_oxygen_bond_distance_aromatic_linkinvent_7_9_3/rearranged_h_0179.sdf

> <i_m_source_file_index>
50

> <r_mmod_Potential_Energy-OPLS-2005>
248.701446533203

> <r_mmod_Stretch_Energy-OPLS-2005>
307.014312744141

> <r_mmod_Bend_Energy-OPLS-2005>
263.334991455078

> <r_mmod_Torsional_Energy-OPLS-2005>
258.615936279297

> <r_mmod_Improper_Torsional_Energy-OPLS-2005>
5.42144775390625

> <r_mmod_Van_der_Waal_Energy-OPLS-2005>
134.545593261719

> <r_mmod_Electrostatic_Energy-OPLS-2005>
-710.119262695312

> <r_mmod_Solvation_Energy-OPLS-2005>
-246.650024414062

> <b_mmod_Minimization_Converged-OPLS-2005>
0

> <r_mmod_RMS_Derivative-OPLS-2005>
3.45850920677185

$$$$
50
                    3D
 Structure written by MMmdl.
164174  0  0  1  0            999 V2000
  -30.5084  -15.2514   20.3870 C   0  0  0  0  0  0
  -30.4185  -12.8103   19.5172 C   0  0  0  0  0  0
  -29.5227  -12.5711   18.2805 C   0  0  0  0  0  0
  -28.0746  -12.2998   18.7142 C   0  0  0  0  0  0
  -27.6047  -13.2826   19.8169 C   0  0  2  0  0  0
  -28.6400  -13.4849   20.9451 C   0  0  0  0  0  0
  -25.2349  -13.8271   20.5750 C   0  0  0  0  0  0
  -24.1718  -13.0437   20.9264 C   0  0  0  0  0  0
  -24.6389  -11.6943   20.8769 C   0  0  0  0  0  0
  -23.9091  -10.4297   21.0414 C   0  0  0  0  0  0
  -24.3634   -9.4206   21.9189 C   0  0  0  0  0  0
  -23.6297   -8.2244   22.0756 C   0  0  0  0  0  0
  -22.4281   -8.0289   21.3546 C   0  0  0  0  0  0
  -21.9925   -9.0265   20.4656 C   0  0  0  0  0  0
  -22.7256  -10.2139   20.3061 C   0  0  0  0  0  0
  -21.6858   -6.0744   22.5271 C   0  0  0  0  0  0
  -21.4022   -6.5644   23.8207 C   0  0  0  0  0  0
  -21.3663   -5.6792   24.9169 C   0  0  0  0  0  0
  -21.6038   -4.3052   24.7222 C   0  0  0  0  0  0
  -21.8822   -3.8147   23.4339 C   0  0  0  0  0  0
  -21.9196   -4.6964   22.3399 C   0  0  0  0  0  0
  -22.7734  -13.5174   21.1904 C   0  0  0  0  0  0
  -22.1660   -4.2153   21.0972 F   0  0  0  0  0  0
  -21.5629   -3.4532   25.7735 F   0  0  0  0  0  0
  -29.8641  -13.9828   20.2975 N   0  0  0  0  0  0
  -26.2788  -12.9569   20.3229 N   0  0  0  0  0  0
  -25.9325  -11.6663   20.5732 N   0  0  0  0  0  0
  -22.0393  -12.8177   22.0466 N   0  0  0  0  0  0
  -25.3962  -15.2003   20.4169 N   0  0  0  0  0  0
  -31.7299  -15.1408   20.1955 O   0  0  0  0  0  0
  -21.6637   -6.8882   21.4237 O   0  0  0  0  0  0
  -22.3424  -14.5482   20.6748 O   0  0  0  0  0  0
  -24.6635  -31.8246   23.1686 C   0  0  0  0  0  0
  -25.9316  -32.4593   23.8158 C   0  0  1  0  0  0
  -27.2122  -26.9245   20.1847 C   0  0  0  0  0  0
  -25.5986  -33.8405   24.2076 N   0  0  0  0  0  0
  -23.4773  -30.4354   21.5181 C   0  0  2  0  0  0
  -24.9300  -28.8248   20.1080 C   0  0  0  0  0  0
  -22.7656  -29.4453   22.4764 C   0  0  0  0  0  0
  -18.0326  -28.1428   22.8476 C   0  0  0  0  0  0
  -24.1498  -36.7207   23.2620 C   0  0  0  0  0  0
  -26.0448  -30.6279   21.4021 C   0  0  0  0  0  0
  -26.1119  -29.2180   20.7485 C   0  0  0  0  0  0
  -27.2444  -28.2869   20.7677 C   0  0  0  0  0  0
  -26.0068  -26.6919   19.4836 C   0  0  0  0  0  0
  -24.9038  -27.5822   19.4567 C   0  0  0  0  0  0
  -23.7182  -29.7523   20.1440 C   0  0  0  0  0  0
  -25.4123  -36.2974   24.0301 C   0  0  1  0  0  0
  -20.5949  -28.3780   23.1189 C   0  0  2  0  0  0
  -20.6800  -26.9456   22.5408 C   0  0  0  0  0  0
  -19.5778  -26.6410   21.5209 C   0  0  0  0  0  0
  -18.1964  -26.7966   22.1626 C   0  0  0  0  0  0
  -19.1586  -28.8920   23.2824 C   0  0  0  0  0  0
  -18.9492  -30.1499   23.8877 C   0  0  0  0  0  0
  -17.6486  -30.6609   24.0571 C   0  0  0  0  0  0
  -25.9108  -34.9357   23.5021 C   0  0  0  0  0  0
  -16.5383  -29.9101   23.6331 C   0  0  0  0  0  0
  -16.7306  -28.6518   23.0364 C   0  0  0  0  0  0
  -26.4558  -31.6535   25.0689 C   0  0  0  0  0  0
  -25.3674  -31.3801   26.1341 C   0  0  0  0  0  0
  -27.0422  -30.2894   24.6413 C   0  0  0  0  0  0
  -27.6078  -32.4299   25.7489 C   0  0  0  0  0  0
  -27.5621  -37.1702   24.8398 C   0  0  0  0  0  0
  -21.4325  -29.3062   22.3514 N   0  0  0  0  0  0
  -26.4240  -37.3748   23.9475 N   0  0  0  0  0  0
  -24.7502  -30.9888   22.0838 N   0  0  0  0  0  0
  -23.4190  -28.8012   23.3018 O   0  0  0  0  0  0
  -28.2140  -25.8220   20.2957 O   0  0  0  0  0  0
  -26.5708  -34.8893   22.4609 O   0  0  0  0  0  0
  -23.5706  -32.1240   23.6757 O   0  0  0  0  0  0
  -28.5703  -21.8617   20.2184 C   0  0  0  0  0  0
  -27.5220  -22.2423   19.3853 C   0  0  0  0  0  0
  -28.1072  -24.3385   20.1172 C   0  0  0  0  0  0
  -30.1838  -23.7952   24.2662 C   0  0  0  0  0  0
  -29.6722  -25.1127   23.7459 C   0  0  0  0  0  0
  -28.2239  -18.9117   20.7146 C   0  0  0  0  0  0
  -30.1870  -19.4182   19.6418 C   0  0  0  0  0  0
  -28.7487  -17.3378   21.0395 C   0  0  0  0  0  0
  -30.7652  -17.8869   19.9981 C   0  0  0  0  0  0
  -29.1659  -20.2480   20.5807 C   0  0  0  0  0  0
  -29.3346  -23.8297   23.0158 C   0  0  0  0  0  0
  -26.6606  -21.3158   18.5879 C   0  0  0  0  0  0
  -29.9432  -23.5283   21.6549 C   0  0  0  0  0  0
  -27.2605  -23.6558   19.3315 N   0  0  0  0  0  0
  -28.9105  -23.2666   20.6738 N   0  0  0  0  0  0
  -29.9232  -16.6337   20.3371 N   0  0  0  0  0  0
  -31.4399  -12.9847   19.1775 H   0  0  0  0  0  0
  -30.4708  -11.9147   20.1380 H   0  0  0  0  0  0
  -29.8993  -11.7348   17.6900 H   0  0  0  0  0  0
  -29.5564  -13.4459   17.6300 H   0  0  0  0  0  0
  -28.0329  -11.2777   19.0927 H   0  0  0  0  0  0
  -27.4041  -12.3346   17.8546 H   0  0  0  0  0  0
  -27.5092  -14.2427   19.3068 H   0  0  0  0  0  0
  -28.8140  -12.5627   21.5020 H   0  0  0  0  0  0
  -28.2803  -14.2240   21.6630 H   0  0  0  0  0  0
  -25.2777   -9.5678   22.4770 H   0  0  0  0  0  0
  -24.0000   -7.4640   22.7480 H   0  0  0  0  0  0
  -21.0852   -8.8793   19.8970 H   0  0  0  0  0  0
  -22.3708  -10.9684   19.6181 H   0  0  0  0  0  0
  -21.2008   -7.6154   23.9713 H   0  0  0  0  0  0
  -21.1488   -6.0523   25.9075 H   0  0  0  0  0  0
  -22.0596   -2.7605   23.2842 H   0  0  0  0  0  0
  -22.4007  -11.9832   22.4841 H   0  0  0  0  0  0
  -21.1015  -13.1220   22.2677 H   0  0  0  0  0  0
  -24.6236  -15.8477   20.5289 H   0  0  0  0  0  0
  -26.2372  -15.6431   20.0718 H   0  0  0  0  0  0
  -26.7387  -32.5149   23.0874 H   0  0  0  0  0  0
  -25.0068  -33.9486   25.0182 H   0  0  0  0  0  0
  -22.7932  -31.2690   21.3463 H   0  0  0  0  0  0
  -23.3832  -35.9460   23.3118 H   0  0  0  0  0  0
  -24.3617  -36.9005   22.2070 H   0  0  0  0  0  0
  -23.7151  -37.6308   23.6763 H   0  0  0  0  0  0
  -26.2194  -31.3673   20.6202 H   0  0  0  0  0  0
  -26.9068  -30.6879   22.0546 H   0  0  0  0  0  0
  -28.1358  -28.5791   21.3046 H   0  0  0  0  0  0
  -25.8722  -25.7460   18.9821 H   0  0  0  0  0  0
  -24.0078  -27.2764   18.9333 H   0  0  0  0  0  0
  -23.8730  -30.5213   19.3858 H   0  0  0  0  0  0
  -22.8289  -29.2050   19.8268 H   0  0  0  0  0  0
  -25.1279  -36.1750   25.0780 H   0  0  0  0  0  0
  -21.0034  -28.3402   24.1316 H   0  0  0  0  0  0
  -20.5674  -26.2391   23.3648 H   0  0  0  0  0  0
  -21.6667  -26.7430   22.1231 H   0  0  0  0  0  0
  -19.6931  -25.6305   21.1277 H   0  0  0  0  0  0
  -19.6722  -27.3190   20.6710 H   0  0  0  0  0  0
  -17.4227  -26.6703   21.4043 H   0  0  0  0  0  0
  -18.0368  -26.0120   22.9035 H   0  0  0  0  0  0
  -19.7962  -30.7318   24.2257 H   0  0  0  0  0  0
  -17.5035  -31.6286   24.5176 H   0  0  0  0  0  0
  -15.5381  -30.2992   23.7663 H   0  0  0  0  0  0
  -15.8716  -28.0810   22.7107 H   0  0  0  0  0  0
  -24.5914  -30.7066   25.7678 H   0  0  0  0  0  0
  -24.8796  -32.2999   26.4578 H   0  0  0  0  0  0
  -25.7918  -30.9135   27.0239 H   0  0  0  0  0  0
  -26.3071  -29.6607   24.1385 H   0  0  0  0  0  0
  -27.3897  -29.7230   25.5067 H   0  0  0  0  0  0
  -27.9040  -30.4064   23.9839 H   0  0  0  0  0  0
  -27.2671  -33.3605   26.2036 H   0  0  0  0  0  0
  -28.3917  -32.6843   25.0341 H   0  0  0  0  0  0
  -28.0718  -31.8441   26.5437 H   0  0  0  0  0  0
  -28.2396  -38.0236   24.7813 H   0  0  0  0  0  0
  -28.1365  -36.2814   24.5743 H   0  0  0  0  0  0
  -27.2415  -37.0736   25.8786 H   0  0  0  0  0  0
  -20.9565  -29.8744   21.6652 H   0  0  0  0  0  0
  -26.0084  -38.2752   24.1706 H   0  0  0  0  0  0
  -29.7229  -23.4051   25.1727 H   0  0  0  0  0  0
  -31.2457  -23.5800   24.1547 H   0  0  0  0  0  0
  -30.4010  -25.7866   23.2990 H   0  0  0  0  0  0
  -28.8776  -25.6019   24.3073 H   0  0  0  0  0  0
  -27.4675  -19.1425   21.4651 H   0  0  0  0  0  0
  -27.6550  -18.8389   19.7879 H   0  0  0  0  0  0
  -29.7353  -19.3644   18.6498 H   0  0  0  0  0  0
  -31.0623  -20.0520   19.4978 H   0  0  0  0  0  0
  -27.8894  -16.6769   20.9227 H   0  0  0  0  0  0
  -28.9835  -17.2940   22.1038 H   0  0  0  0  0  0
  -31.4628  -17.9975   20.8303 H   0  0  0  0  0  0
  -31.3956  -17.5999   19.1544 H   0  0  0  0  0  0
  -29.6638  -20.3461   21.5462 H   0  0  0  0  0  0
  -28.3232  -23.4435   23.1456 H   0  0  0  0  0  0
  -25.8747  -20.8850   19.2093 H   0  0  0  0  0  0
  -27.2428  -20.4921   18.1736 H   0  0  0  0  0  0
  -26.1810  -21.8256   17.7532 H   0  0  0  0  0  0
  -30.5908  -22.6542   21.7301 H   0  0  0  0  0  0
  -30.5562  -24.3634   21.3150 H   0  0  0  0  0  0
  1 25  1  0  0  0
  1 30  2  0  0  0
  1 86  1  0  0  0
  2  3  1  0  0  0
  2 25  1  0  0  0
  2 87  1  0  0  0
  2 88  1  0  0  0
  3  4  1  0  0  0
  3 89  1  0  0  0
  3 90  1  0  0  0
  4  5  1  0  0  0
  4 91  1  0  0  0
  4 92  1  0  0  0
  5  6  1  0  0  0
  5 26  1  0  0  0
  5 93  1  0  0  0
  6 25  1  0  0  0
  6 94  1  0  0  0
  6 95  1  0  0  0
  7  8  2  0  0  0
  7 26  1  0  0  0
  7 29  1  0  0  0
  8  9  1  0  0  0
  8 22  1  0  0  0
  9 10  1  0  0  0
  9 27  2  0  0  0
 10 11  2  0  0  0
 10 15  1  0  0  0
 11 12  1  0  0  0
 11 96  1  0  0  0
 12 13  2  0  0  0
 12 97  1  0  0  0
 13 14  1  0  0  0
 13 31  1  0  0  0
 14 15  2  0  0  0
 14 98  1  0  0  0
 15 99  1  0  0  0
 16 17  2  0  0  0
 16 21  1  0  0  0
 16 31  1  0  0  0
 17 18  1  0  0  0
 17100  1  0  0  0
 18 19  2  0  0  0
 18101  1  0  0  0
 19 20  1  0  0  0
 19 24  1  0  0  0
 20 21  2  0  0  0
 20102  1  0  0  0
 21 23  1  0  0  0
 22 28  1  0  0  0
 22 32  2  0  0  0
 26 27  1  0  0  0
 28103  1  0  0  0
 28104  1  0  0  0
 29105  1  0  0  0
 29106  1  0  0  0
 33 34  1  0  0  0
 33 66  1  0  0  0
 33 70  2  0  0  0
 34 36  1  0  0  0
 34 59  1  0  0  0
 34107  1  0  0  0
 35 44  2  0  0  0
 35 45  1  0  0  0
 35 68  1  0  0  0
 36 56  1  0  0  0
 36108  1  0  0  0
 37 39  1  0  0  0
 37 47  1  0  0  0
 37 66  1  0  0  0
 37109  1  0  0  0
 38 43  2  0  0  0
 38 46  1  0  0  0
 38 47  1  0  0  0
 39 64  1  0  0  0
 39 67  2  0  0  0
 40 52  1  0  0  0
 40 53  2  0  0  0
 40 58  1  0  0  0
 41110  1  0  0  0
 41111  1  0  0  0
 41112  1  0  0  0
 41 48  1  0  0  0
 42 43  1  0  0  0
 42 66  1  0  0  0
 42113  1  0  0  0
 42114  1  0  0  0
 43 44  1  0  0  0
 44115  1  0  0  0
 45 46  2  0  0  0
 45116  1  0  0  0
 46117  1  0  0  0
 47118  1  0  0  0
 47119  1  0  0  0
 48 56  1  0  0  0
 48 65  1  0  0  0
 48120  1  0  0  0
 49 50  1  0  0  0
 49 53  1  0  0  0
 49 64  1  0  0  0
 49121  1  0  0  0
 50 51  1  0  0  0
 50122  1  0  0  0
 50123  1  0  0  0
 51 52  1  0  0  0
 51124  1  0  0  0
 51125  1  0  0  0
 52126  1  0  0  0
 52127  1  0  0  0
 53 54  1  0  0  0
 54 55  2  0  0  0
 54128  1  0  0  0
 55 57  1  0  0  0
 55129  1  0  0  0
 56 69  2  0  0  0
 57 58  2  0  0  0
 57130  1  0  0  0
 58131  1  0  0  0
 59 60  1  0  0  0
 59 61  1  0  0  0
 59 62  1  0  0  0
 60132  1  0  0  0
 60133  1  0  0  0
 60134  1  0  0  0
 61135  1  0  0  0
 61136  1  0  0  0
 61137  1  0  0  0
 62138  1  0  0  0
 62139  1  0  0  0
 62140  1  0  0  0
 63 65  1  0  0  0
 63141  1  0  0  0
 63142  1  0  0  0
 63143  1  0  0  0
 64144  1  0  0  0
 65145  1  0  0  0
 68 73  1  0  0  0
 71 72  2  0  0  0
 71 85  1  0  0  0
 71 80  1  0  0  0
 72 82  1  0  0  0
 72 84  1  0  0  0
 73 84  2  0  0  0
 73 85  1  0  0  0
 74 75  1  0  0  0
 74 81  1  0  0  0
 74146  1  0  0  0
 74147  1  0  0  0
 75 81  1  0  0  0
 75148  1  0  0  0
 75149  1  0  0  0
 76 78  1  0  0  0
 76 80  1  0  0  0
 76150  1  0  0  0
 76151  1  0  0  0
 77 79  1  0  0  0
 77 80  1  0  0  0
 77152  1  0  0  0
 77153  1  0  0  0
 78 86  1  0  0  0
 78154  1  0  0  0
 78155  1  0  0  0
 79 86  1  0  0  0
 79156  1  0  0  0
 79157  1  0  0  0
 80158  1  0  0  0
 81 83  1  0  0  0
 81159  1  0  0  0
 82160  1  0  0  0
 82161  1  0  0  0
 82162  1  0  0  0
 83 85  1  0  0  0
 83163  1  0  0  0
 83164  1  0  0  0
M  ISO  4   1 100  68 101  73 101  86 100
M  END
> <chiral flag>
0

> <version>
0

> <s_m_source_file>
/data/baiqing/PycharmProjects/Reinvent-master-3.2/result/LINK_invent/BTK/process_docking_weight1_custom_sum_contain_oxygen_bond_distance_aromatic_linkinvent_7_9_3/rearranged_h_0179.sdf

> <i_m_source_file_index>
51

> <r_mmod_Potential_Energy-OPLS-2005>
1385.56396484375

> <r_mmod_Stretch_Energy-OPLS-2005>
473.573028564453

> <r_mmod_Bend_Energy-OPLS-2005>
467.992431640625

> <r_mmod_Torsional_Energy-OPLS-2005>
363.51123046875

> <r_mmod_Improper_Torsional_Energy-OPLS-2005>
11.5066070556641

> <r_mmod_Van_der_Waal_Energy-OPLS-2005>
103.162628173828

> <r_mmod_Electrostatic_Energy-OPLS-2005>
-276.471588134766

> <r_mmod_Solvation_Energy-OPLS-2005>
-206.783981323242

> <b_mmod_Minimization_Converged-OPLS-2005>
0

> <r_mmod_RMS_Derivative-OPLS-2005>
2.43544244766235

$$$$
51
                    3D
 Structure written by MMmdl.
164173  0  0  1  0            999 V2000
  -30.5243  -15.0339   20.4006 C   0  0  0  0  0  0
  -30.4454  -12.6526   19.4928 C   0  0  0  0  0  0
  -29.5291  -12.5475   18.2533 C   0  0  0  0  0  0
  -28.0659  -12.3127   18.6762 C   0  0  0  0  0  0
  -27.6225  -13.2589   19.8234 C   0  0  2  0  0  0
  -28.6674  -13.3291   20.9552 C   0  0  0  0  0  0
  -25.2424  -13.8233   20.5704 C   0  0  0  0  0  0
  -24.1756  -13.0441   20.9261 C   0  0  0  0  0  0
  -24.6394  -11.6935   20.8768 C   0  0  0  0  0  0
  -23.9079  -10.4298   21.0404 C   0  0  0  0  0  0
  -24.3630   -9.4207   21.9181 C   0  0  0  0  0  0
  -23.6310   -8.2234   22.0743 C   0  0  0  0  0  0
  -22.4288   -8.0273   21.3539 C   0  0  0  0  0  0
  -21.9925   -9.0242   20.4639 C   0  0  0  0  0  0
  -22.7251  -10.2125   20.3048 C   0  0  0  0  0  0
  -21.6845   -6.0735   22.5289 C   0  0  0  0  0  0
  -21.4006   -6.5640   23.8223 C   0  0  0  0  0  0
  -21.3666   -5.6792   24.9187 C   0  0  0  0  0  0
  -21.6050   -4.3056   24.7232 C   0  0  0  0  0  0
  -21.8813   -3.8147   23.4353 C   0  0  0  0  0  0
  -21.9191   -4.6965   22.3413 C   0  0  0  0  0  0
  -22.7773  -13.5203   21.1922 C   0  0  0  0  0  0
  -22.1655   -4.2154   21.0985 F   0  0  0  0  0  0
  -21.5639   -3.4536   25.7743 F   0  0  0  0  0  0
  -29.9289  -13.7677   20.3402 N   0  0  0  0  0  0
  -26.2851  -12.9484   20.3179 N   0  0  0  0  0  0
  -25.9319  -11.6608   20.5695 N   0  0  0  0  0  0
  -22.0398  -12.8200   22.0474 N   0  0  0  0  0  0
  -25.4075  -15.1955   20.4114 N   0  0  0  0  0  0
  -31.7454  -15.0708   20.2222 O   0  0  0  0  0  0
  -21.6634   -6.8873   21.4248 O   0  0  0  0  0  0
  -22.3456  -14.5496   20.6745 O   0  0  0  0  0  0
  -24.6457  -31.8370   23.1816 C   0  0  0  0  0  0
  -25.9218  -32.4649   23.8216 C   0  0  1  0  0  0
  -27.2254  -27.0947   20.1458 C   0  0  0  0  0  0
  -25.5954  -33.8454   24.2118 N   0  0  0  0  0  0
  -23.4517  -30.4531   21.5282 C   0  0  2  0  0  0
  -24.9044  -28.8709   20.1095 C   0  0  0  0  0  0
  -22.7567  -29.4506   22.4841 C   0  0  0  0  0  0
  -18.0303  -28.1394   22.8475 C   0  0  0  0  0  0
  -24.1499  -36.7248   23.2640 C   0  0  0  0  0  0
  -26.0092  -30.7030   21.3825 C   0  0  0  0  0  0
  -26.0846  -29.3084   20.7230 C   0  0  0  0  0  0
  -27.2456  -28.4375   20.7191 C   0  0  0  0  0  0
  -26.0157  -26.7698   19.4938 C   0  0  0  0  0  0
  -24.8847  -27.6170   19.4794 C   0  0  0  0  0  0
  -23.6806  -29.7754   20.1507 C   0  0  0  0  0  0
  -25.4134  -36.2993   24.0291 C   0  0  1  0  0  0
  -20.5909  -28.3715   23.1233 C   0  0  2  0  0  0
  -20.6774  -26.9419   22.5407 C   0  0  0  0  0  0
  -19.5765  -26.6371   21.5203 C   0  0  0  0  0  0
  -18.1948  -26.7926   22.1619 C   0  0  0  0  0  0
  -19.1558  -28.8881   23.2843 C   0  0  0  0  0  0
  -18.9474  -30.1479   23.8856 C   0  0  0  0  0  0
  -17.6475  -30.6591   24.0559 C   0  0  0  0  0  0
  -25.9084  -34.9378   23.5017 C   0  0  0  0  0  0
  -16.5362  -29.9080   23.6339 C   0  0  0  0  0  0
  -16.7287  -28.6504   23.0347 C   0  0  0  0  0  0
  -26.4531  -31.6532   25.0673 C   0  0  0  0  0  0
  -25.3720  -31.3743   26.1374 C   0  0  0  0  0  0
  -27.0368  -30.2904   24.6288 C   0  0  0  0  0  0
  -27.6049  -32.4309   25.7472 C   0  0  0  0  0  0
  -27.5574  -37.1777   24.8456 C   0  0  0  0  0  0
  -21.4259  -29.3034   22.3600 N   0  0  0  0  0  0
  -26.4282  -37.3722   23.9404 N   0  0  0  0  0  0
  -24.7228  -31.0185   22.0869 N   0  0  0  0  0  0
  -23.4193  -28.8073   23.3020 O   0  0  0  0  0  0
  -28.2774  -26.0908   20.2129 O   0  0  0  0  0  0
  -26.5691  -34.8888   22.4599 O   0  0  0  0  0  0
  -23.5571  -32.1263   23.7023 O   0  0  0  0  0  0
  -29.7747  -21.4926   18.4205 C   0  0  0  0  0  0
  -30.0407  -20.1937   17.9637 C   0  0  0  0  0  0
  -29.3077  -21.6866   19.7530 C   0  0  0  0  0  0
  -29.6518  -19.1719   19.9641 C   0  0  0  0  0  0
  -30.3603  -21.6000   16.0801 C   0  0  0  0  0  0
  -30.5869  -20.1542   16.5594 C   0  0  1  0  0  0
  -30.1895  -22.4989   17.3359 C   0  0  0  0  0  0
  -32.0702  -19.7309   16.5249 C   0  0  0  0  0  0
  -31.5490  -23.1466   17.6723 C   0  0  0  0  0  0
  -29.1795  -23.6133   17.0279 C   0  0  0  0  0  0
  -29.1348  -23.2424   20.3834 C   0  0  0  0  0  0
  -30.0412  -17.7784   20.7951 C   0  0  0  0  0  0
  -28.0476  -24.5321   20.0393 C   0  0  0  0  0  0
  -29.9436  -19.0596   18.6788 N   0  0  0  0  0  0
  -29.3246  -20.4505   20.5008 N   0  0  0  0  0  0
  -29.7478  -16.2372   20.4680 N   0  0  0  0  0  0
  -31.4738  -12.8314   19.1759 H   0  0  0  0  0  0
  -30.4616  -11.7148   20.0502 H   0  0  0  0  0  0
  -29.8687  -11.7438   17.5993 H   0  0  0  0  0  0
  -29.5994  -13.4675   17.6702 H   0  0  0  0  0  0
  -27.9861  -11.2782   19.0090 H   0  0  0  0  0  0
  -27.3993  -12.4096   17.8179 H   0  0  0  0  0  0
  -27.5686  -14.2515   19.3749 H   0  0  0  0  0  0
  -28.7782  -12.3609   21.4468 H   0  0  0  0  0  0
  -28.3527  -14.0373   21.7237 H   0  0  0  0  0  0
  -25.2759   -9.5693   22.4771 H   0  0  0  0  0  0
  -24.0027   -7.4620   22.7461 H   0  0  0  0  0  0
  -21.0846   -8.8744   19.8953 H   0  0  0  0  0  0
  -22.3684  -10.9657   19.6163 H   0  0  0  0  0  0
  -21.1974   -7.6142   23.9735 H   0  0  0  0  0  0
  -21.1508   -6.0514   25.9095 H   0  0  0  0  0  0
  -22.0586   -2.7606   23.2846 H   0  0  0  0  0  0
  -22.3980  -11.9887   22.4918 H   0  0  0  0  0  0
  -21.0990  -13.1220   22.2619 H   0  0  0  0  0  0
  -24.6354  -15.8462   20.5061 H   0  0  0  0  0  0
  -26.2447  -15.6273   20.0430 H   0  0  0  0  0  0
  -26.7286  -32.5234   23.0945 H   0  0  0  0  0  0
  -25.0018  -33.9569   25.0209 H   0  0  0  0  0  0
  -22.7581  -31.2806   21.3670 H   0  0  0  0  0  0
  -23.3749  -35.9589   23.3265 H   0  0  0  0  0  0
  -24.3585  -36.8928   22.2061 H   0  0  0  0  0  0
  -23.7270  -37.6432   23.6719 H   0  0  0  0  0  0
  -26.1613  -31.4653   20.6163 H   0  0  0  0  0  0
  -26.8773  -30.7555   22.0276 H   0  0  0  0  0  0
  -28.1477  -28.7730   21.2118 H   0  0  0  0  0  0
  -25.9106  -25.8130   19.0040 H   0  0  0  0  0  0
  -23.9819  -27.2767   18.9912 H   0  0  0  0  0  0
  -23.8204  -30.5453   19.3914 H   0  0  0  0  0  0
  -22.7959  -29.2171   19.8386 H   0  0  0  0  0  0
  -25.1333  -36.1784   25.0783 H   0  0  0  0  0  0
  -20.9996  -28.3294   24.1353 H   0  0  0  0  0  0
  -20.5632  -26.2331   23.3625 H   0  0  0  0  0  0
  -21.6647  -26.7411   22.1231 H   0  0  0  0  0  0
  -19.6926  -25.6267   21.1269 H   0  0  0  0  0  0
  -19.6700  -27.3145   20.6703 H   0  0  0  0  0  0
  -17.4206  -26.6655   21.4034 H   0  0  0  0  0  0
  -18.0379  -26.0078   22.9030 H   0  0  0  0  0  0
  -19.7957  -30.7320   24.2183 H   0  0  0  0  0  0
  -17.5023  -31.6264   24.5172 H   0  0  0  0  0  0
  -15.5360  -30.2969   23.7680 H   0  0  0  0  0  0
  -15.8690  -28.0817   22.7058 H   0  0  0  0  0  0
  -24.5858  -30.7153   25.7673 H   0  0  0  0  0  0
  -24.8979  -32.2940   26.4802 H   0  0  0  0  0  0
  -25.7995  -30.8873   27.0146 H   0  0  0  0  0  0
  -26.2959  -29.6634   24.1310 H   0  0  0  0  0  0
  -27.3938  -29.7211   25.4880 H   0  0  0  0  0  0
  -27.8903  -30.4069   23.9608 H   0  0  0  0  0  0
  -27.2613  -33.3614   26.2000 H   0  0  0  0  0  0
  -28.3894  -32.6859   25.0336 H   0  0  0  0  0  0
  -28.0682  -31.8472   26.5437 H   0  0  0  0  0  0
  -28.2562  -38.0103   24.7509 H   0  0  0  0  0  0
  -28.1102  -36.2624   24.6264 H   0  0  0  0  0  0
  -27.2306  -37.1403   25.8866 H   0  0  0  0  0  0
  -20.9461  -29.8753   21.6795 H   0  0  0  0  0  0
  -26.0123  -38.2776   24.1418 H   0  0  0  0  0  0
  -29.4131  -21.5962   15.5364 H   0  0  0  0  0  0
  -31.1115  -21.9557   15.3738 H   0  0  0  0  0  0
  -30.0066  -19.4594   15.9517 H   0  0  0  0  0  0
  -32.7091  -20.4082   17.0868 H   0  0  0  0  0  0
  -32.4478  -19.6899   15.5037 H   0  0  0  0  0  0
  -32.2011  -18.7417   16.9642 H   0  0  0  0  0  0
  -32.3259  -22.4100   17.8656 H   0  0  0  0  0  0
  -31.5037  -23.7900   18.5482 H   0  0  0  0  0  0
  -31.8975  -23.7666   16.8455 H   0  0  0  0  0  0
  -28.1504  -23.2532   17.0373 H   0  0  0  0  0  0
  -29.3618  -24.0441   16.0415 H   0  0  0  0  0  0
  -29.2880  -24.4456   17.7188 H   0  0  0  0  0  0
  -30.1233  -23.6790   20.2615 H   0  0  0  0  0  0
  -29.0673  -23.0957   21.4598 H   0  0  0  0  0  0
  -29.6619  -17.9372   21.8031 H   0  0  0  0  0  0
  -31.1243  -17.8371   20.9048 H   0  0  0  0  0  0
  -27.1665  -24.3131   20.6445 H   0  0  0  0  0  0
  -27.6649  -24.3942   19.0328 H   0  0  0  0  0  0
  -28.7583  -16.0505   20.4655 H   0  0  0  0  0  0
  1 25  1  0  0  0
  1 30  2  0  0  0
  1 86  1  0  0  0
  2  3  1  0  0  0
  2 25  1  0  0  0
  2 87  1  0  0  0
  2 88  1  0  0  0
  3  4  1  0  0  0
  3 89  1  0  0  0
  3 90  1  0  0  0
  4  5  1  0  0  0
  4 91  1  0  0  0
  4 92  1  0  0  0
  5  6  1  0  0  0
  5 26  1  0  0  0
  5 93  1  0  0  0
  6 25  1  0  0  0
  6 94  1  0  0  0
  6 95  1  0  0  0
  7  8  2  0  0  0
  7 26  1  0  0  0
  7 29  1  0  0  0
  8  9  1  0  0  0
  8 22  1  0  0  0
  9 10  1  0  0  0
  9 27  2  0  0  0
 10 11  2  0  0  0
 10 15  1  0  0  0
 11 12  1  0  0  0
 11 96  1  0  0  0
 12 13  2  0  0  0
 12 97  1  0  0  0
 13 14  1  0  0  0
 13 31  1  0  0  0
 14 15  2  0  0  0
 14 98  1  0  0  0
 15 99  1  0  0  0
 16 17  2  0  0  0
 16 21  1  0  0  0
 16 31  1  0  0  0
 17 18  1  0  0  0
 17100  1  0  0  0
 18 19  2  0  0  0
 18101  1  0  0  0
 19 20  1  0  0  0
 19 24  1  0  0  0
 20 21  2  0  0  0
 20102  1  0  0  0
 21 23  1  0  0  0
 22 28  1  0  0  0
 22 32  2  0  0  0
 26 27  1  0  0  0
 28103  1  0  0  0
 28104  1  0  0  0
 29105  1  0  0  0
 29106  1  0  0  0
 33 34  1  0  0  0
 33 66  1  0  0  0
 33 70  2  0  0  0
 34 36  1  0  0  0
 34 59  1  0  0  0
 34107  1  0  0  0
 35 44  2  0  0  0
 35 45  1  0  0  0
 35 68  1  0  0  0
 36 56  1  0  0  0
 36108  1  0  0  0
 37 39  1  0  0  0
 37 47  1  0  0  0
 37 66  1  0  0  0
 37109  1  0  0  0
 38 43  2  0  0  0
 38 46  1  0  0  0
 38 47  1  0  0  0
 39 64  1  0  0  0
 39 67  2  0  0  0
 40 52  1  0  0  0
 40 53  2  0  0  0
 40 58  1  0  0  0
 41110  1  0  0  0
 41111  1  0  0  0
 41112  1  0  0  0
 41 48  1  0  0  0
 42 43  1  0  0  0
 42 66  1  0  0  0
 42113  1  0  0  0
 42114  1  0  0  0
 43 44  1  0  0  0
 44115  1  0  0  0
 45 46  2  0  0  0
 45116  1  0  0  0
 46117  1  0  0  0
 47118  1  0  0  0
 47119  1  0  0  0
 48 56  1  0  0  0
 48 65  1  0  0  0
 48120  1  0  0  0
 49 50  1  0  0  0
 49 53  1  0  0  0
 49 64  1  0  0  0
 49121  1  0  0  0
 50 51  1  0  0  0
 50122  1  0  0  0
 50123  1  0  0  0
 51 52  1  0  0  0
 51124  1  0  0  0
 51125  1  0  0  0
 52126  1  0  0  0
 52127  1  0  0  0
 53 54  1  0  0  0
 54 55  2  0  0  0
 54128  1  0  0  0
 55 57  1  0  0  0
 55129  1  0  0  0
 56 69  2  0  0  0
 57 58  2  0  0  0
 57130  1  0  0  0
 58131  1  0  0  0
 59 60  1  0  0  0
 59 61  1  0  0  0
 59 62  1  0  0  0
 60132  1  0  0  0
 60133  1  0  0  0
 60134  1  0  0  0
 61135  1  0  0  0
 61136  1  0  0  0
 61137  1  0  0  0
 62138  1  0  0  0
 62139  1  0  0  0
 62140  1  0  0  0
 63 65  1  0  0  0
 63141  1  0  0  0
 63142  1  0  0  0
 63143  1  0  0  0
 64144  1  0  0  0
 65145  1  0  0  0
 68 83  1  0  0  0
 71 72  2  0  0  0
 71 73  1  0  0  0
 71 77  1  0  0  0
 72 76  1  0  0  0
 72 84  1  0  0  0
 73 81  1  0  0  0
 73 85  2  0  0  0
 74 82  1  0  0  0
 74 84  2  0  0  0
 74 85  1  0  0  0
 75 76  1  0  0  0
 75 77  1  0  0  0
 75146  1  0  0  0
 75147  1  0  0  0
 76 78  1  0  0  0
 76148  1  0  0  0
 77 79  1  0  0  0
 77 80  1  0  0  0
 78149  1  0  0  0
 78150  1  0  0  0
 78151  1  0  0  0
 79152  1  0  0  0
 79153  1  0  0  0
 79154  1  0  0  0
 80155  1  0  0  0
 80156  1  0  0  0
 80157  1  0  0  0
 81 83  1  0  0  0
 81158  1  0  0  0
 81159  1  0  0  0
 82 86  1  0  0  0
 82160  1  0  0  0
 82161  1  0  0  0
 83162  1  0  0  0
 83163  1  0  0  0
 86164  1  0  0  0
M  ISO  4   1 100  68 101  83 101  86 100
M  END
> <chiral flag>
0

> <version>
0

> <s_m_source_file>
/data/baiqing/PycharmProjects/Reinvent-master-3.2/result/LINK_invent/BTK/process_docking_weight1_custom_sum_contain_oxygen_bond_distance_aromatic_linkinvent_7_9_3/rearranged_h_0179.sdf

> <i_m_source_file_index>
52

> <r_mmod_Potential_Energy-OPLS-2005>
224.077331542969

> <r_mmod_Stretch_Energy-OPLS-2005>
329.949859619141

> <r_mmod_Bend_Energy-OPLS-2005>
369.516540527344

> <r_mmod_Torsional_Energy-OPLS-2005>
237.170272827148

> <r_mmod_Improper_Torsional_Energy-OPLS-2005>
8.9442892074585

> <r_mmod_Van_der_Waal_Energy-OPLS-2005>
134.258148193359

> <r_mmod_Electrostatic_Energy-OPLS-2005>
-860.080871582031

> <r_mmod_Solvation_Energy-OPLS-2005>
-242.185256958008

> <b_mmod_Minimization_Converged-OPLS-2005>
0

> <r_mmod_RMS_Derivative-OPLS-2005>
2.51603531837463

$$$$
52
                    3D
 Structure written by MMmdl.
167176  0  0  1  0            999 V2000
  -30.7359  -14.5043   20.5566 C   0  0  0  0  0  0
  -30.4144  -12.3244   19.4431 C   0  0  0  0  0  0
  -29.4980  -12.5009   18.2159 C   0  0  0  0  0  0
  -28.0191  -12.3681   18.6247 C   0  0  0  0  0  0
  -27.6589  -13.2220   19.8708 C   0  0  2  0  0  0
  -28.7026  -13.0538   21.0006 C   0  0  0  0  0  0
  -25.2574  -13.8199   20.5693 C   0  0  0  0  0  0
  -24.1839  -13.0460   20.9179 C   0  0  0  0  0  0
  -24.6408  -11.6928   20.8729 C   0  0  0  0  0  0
  -23.9064  -10.4305   21.0388 C   0  0  0  0  0  0
  -24.3612   -9.4224   21.9174 C   0  0  0  0  0  0
  -23.6288   -8.2256   22.0756 C   0  0  0  0  0  0
  -22.4274   -8.0280   21.3542 C   0  0  0  0  0  0
  -21.9906   -9.0252   20.4645 C   0  0  0  0  0  0
  -22.7228  -10.2134   20.3047 C   0  0  0  0  0  0
  -21.6858   -6.0732   22.5271 C   0  0  0  0  0  0
  -21.4016   -6.5635   23.8206 C   0  0  0  0  0  0
  -21.3659   -5.6789   24.9170 C   0  0  0  0  0  0
  -21.6048   -4.3052   24.7224 C   0  0  0  0  0  0
  -21.8818   -3.8141   23.4346 C   0  0  0  0  0  0
  -21.9196   -4.6958   22.3399 C   0  0  0  0  0  0
  -22.7855  -13.5243   21.1828 C   0  0  0  0  0  0
  -22.1661   -4.2141   21.0979 F   0  0  0  0  0  0
  -21.5629   -3.4539   25.7740 F   0  0  0  0  0  0
  -30.0339  -13.3402   20.4431 N   0  0  0  0  0  0
  -26.3021  -12.9396   20.3349 N   0  0  0  0  0  0
  -25.9340  -11.6544   20.5763 N   0  0  0  0  0  0
  -22.0476  -12.8243   22.0373 N   0  0  0  0  0  0
  -25.4300  -15.1921   20.4123 N   0  0  0  0  0  0
  -31.8455  -14.6409   20.0380 O   0  0  0  0  0  0
  -21.6644   -6.8872   21.4233 O   0  0  0  0  0  0
  -22.3551  -14.5548   20.6666 O   0  0  0  0  0  0
  -24.6194  -31.8677   23.2138 C   0  0  0  0  0  0
  -25.9082  -32.4811   23.8421 C   0  0  1  0  0  0
  -27.1970  -27.3664   20.1146 C   0  0  0  0  0  0
  -25.5942  -33.8605   24.2357 N   0  0  0  0  0  0
  -23.4073  -30.4980   21.5570 C   0  0  2  0  0  0
  -24.8495  -28.9777   20.1069 C   0  0  0  0  0  0
  -22.7454  -29.4636   22.4972 C   0  0  0  0  0  0
  -18.0269  -28.1368   22.8483 C   0  0  0  0  0  0
  -24.1489  -36.7311   23.2642 C   0  0  0  0  0  0
  -25.9458  -30.8130   21.3814 C   0  0  0  0  0  0
  -26.0155  -29.4448   20.7265 C   0  0  0  0  0  0
  -27.1920  -28.6456   20.7354 C   0  0  0  0  0  0
  -26.0333  -26.9875   19.4111 C   0  0  0  0  0  0
  -24.8576  -27.7479   19.4421 C   0  0  0  0  0  0
  -23.6149  -29.8469   20.1661 C   0  0  0  0  0  0
  -25.4106  -36.3111   24.0350 C   0  0  1  0  0  0
  -20.5877  -28.3641   23.1311 C   0  0  2  0  0  0
  -20.6771  -26.9374   22.5419 C   0  0  0  0  0  0
  -19.5741  -26.6376   21.5214 C   0  0  0  0  0  0
  -18.1920  -26.7916   22.1627 C   0  0  0  0  0  0
  -19.1527  -28.8823   23.2885 C   0  0  0  0  0  0
  -18.9454  -30.1428   23.8891 C   0  0  0  0  0  0
  -17.6456  -30.6568   24.0555 C   0  0  0  0  0  0
  -25.9048  -34.9463   23.5148 C   0  0  0  0  0  0
  -16.5334  -29.9066   23.6341 C   0  0  0  0  0  0
  -16.7260  -28.6492   23.0351 C   0  0  0  0  0  0
  -26.4481  -31.6584   25.0734 C   0  0  0  0  0  0
  -25.3740  -31.3664   26.1477 C   0  0  0  0  0  0
  -27.0315  -30.3037   24.6105 C   0  0  0  0  0  0
  -27.6071  -32.4280   25.7489 C   0  0  0  0  0  0
  -27.5582  -37.1808   24.8474 C   0  0  0  0  0  0
  -21.4177  -29.3005   22.3725 N   0  0  0  0  0  0
  -26.4298  -37.3796   23.9412 N   0  0  0  0  0  0
  -24.6764  -31.0751   22.1076 N   0  0  0  0  0  0
  -23.4221  -28.8149   23.2995 O   0  0  0  0  0  0
  -28.3196  -26.5434   20.1087 O   0  0  0  0  0  0
  -26.5592  -34.8917   22.4693 O   0  0  0  0  0  0
  -23.5378  -32.1443   23.7510 O   0  0  0  0  0  0
  -26.8531  -21.5243   20.8624 C   0  0  0  0  0  0
  -27.4599  -20.3539   21.1958 C   0  0  0  0  0  0
  -29.0288  -21.9511   21.0128 C   0  0  0  0  0  0
  -27.8229  -22.5741   20.7431 C   0  0  0  0  0  0
  -29.2501  -18.1546   23.0678 C   0  0  0  0  0  0
  -29.5373  -18.0067   21.5688 C   0  0  1  0  0  0
  -29.8045  -19.5550   21.5952 C   0  0  1  0  0  0
  -31.9402  -17.1241   21.8869 C   0  0  0  0  0  0
  -25.9978  -24.2197   20.7905 C   0  0  0  0  0  0
  -27.5874  -23.9450   18.7487 C   0  0  0  0  0  0
  -28.3251  -25.2403   20.8093 C   0  0  0  0  0  0
  -30.6133  -16.9727   21.1055 C   0  0  1  0  0  0
  -27.4559  -24.0204   20.2862 C   0  0  0  0  0  0
  -28.8169  -20.5836   21.2690 N   0  0  0  0  0  0
  -30.1233  -15.5636   21.1410 N   0  0  0  0  0  0
  -29.8724  -19.4779   23.0511 N   0  3  0  0  0  0
  -31.4616  -12.3965   19.1437 H   0  0  0  0  0  0
  -30.3002  -11.3255   19.8660 H   0  0  0  0  0  0
  -29.7412  -11.7576   17.4563 H   0  0  0  0  0  0
  -29.6708  -13.4760   17.7586 H   0  0  0  0  0  0
  -27.8266  -11.3144   18.8276 H   0  0  0  0  0  0
  -27.3740  -12.6373   17.7872 H   0  0  0  0  0  0
  -27.6897  -14.2633   19.5509 H   0  0  0  0  0  0
  -28.6824  -12.0351   21.3909 H   0  0  0  0  0  0
  -28.4644  -13.7001   21.8462 H   0  0  0  0  0  0
  -25.2756   -9.5705   22.4752 H   0  0  0  0  0  0
  -23.9993   -7.4656   22.7489 H   0  0  0  0  0  0
  -21.0834   -8.8765   19.8957 H   0  0  0  0  0  0
  -22.3676  -10.9670   19.6156 H   0  0  0  0  0  0
  -21.2006   -7.6144   23.9703 H   0  0  0  0  0  0
  -21.1481   -6.0523   25.9069 H   0  0  0  0  0  0
  -22.0599   -2.7603   23.2850 H   0  0  0  0  0  0
  -22.4073  -11.9906   22.4795 H   0  0  0  0  0  0
  -21.1079  -13.1266   22.2519 H   0  0  0  0  0  0
  -24.6662  -15.8497   20.5234 H   0  0  0  0  0  0
  -26.2813  -15.6271   20.0797 H   0  0  0  0  0  0
  -26.7135  -32.5521   23.1170 H   0  0  0  0  0  0
  -25.0125  -33.9781   25.0531 H   0  0  0  0  0  0
  -22.6976  -31.3161   21.4257 H   0  0  0  0  0  0
  -23.3748  -35.9655   23.3329 H   0  0  0  0  0  0
  -24.3591  -36.8903   22.2055 H   0  0  0  0  0  0
  -23.7236  -37.6524   23.6634 H   0  0  0  0  0  0
  -26.0686  -31.5761   20.6121 H   0  0  0  0  0  0
  -26.8328  -30.8635   22.0014 H   0  0  0  0  0  0
  -28.0849  -28.9939   21.2352 H   0  0  0  0  0  0
  -25.9683  -26.0701   18.8586 H   0  0  0  0  0  0
  -23.9741  -27.3908   18.9296 H   0  0  0  0  0  0
  -23.7175  -30.6283   19.4130 H   0  0  0  0  0  0
  -22.7371  -29.2711   19.8683 H   0  0  0  0  0  0
  -25.1276  -36.2004   25.0847 H   0  0  0  0  0  0
  -20.9948  -28.3189   24.1439 H   0  0  0  0  0  0
  -20.5710  -26.2220   23.3594 H   0  0  0  0  0  0
  -21.6629  -26.7454   22.1180 H   0  0  0  0  0  0
  -19.6928  -25.6311   21.1221 H   0  0  0  0  0  0
  -19.6694  -27.3215   20.6762 H   0  0  0  0  0  0
  -17.4202  -26.6658   21.4012 H   0  0  0  0  0  0
  -18.0291  -26.0051   22.9013 H   0  0  0  0  0  0
  -19.7928  -30.7240   24.2263 H   0  0  0  0  0  0
  -17.5008  -31.6262   24.5135 H   0  0  0  0  0  0
  -15.5338  -30.2958   23.7680 H   0  0  0  0  0  0
  -15.8656  -28.0820   22.7052 H   0  0  0  0  0  0
  -24.5961  -30.6954   25.7812 H   0  0  0  0  0  0
  -24.8869  -32.2787   26.4938 H   0  0  0  0  0  0
  -25.8113  -30.8851   27.0229 H   0  0  0  0  0  0
  -26.2865  -29.6800   24.1161 H   0  0  0  0  0  0
  -27.4071  -29.7261   25.4558 H   0  0  0  0  0  0
  -27.8704  -30.4363   23.9260 H   0  0  0  0  0  0
  -27.2745  -33.3605   26.2058 H   0  0  0  0  0  0
  -28.3885  -32.6794   25.0302 H   0  0  0  0  0  0
  -28.0717  -31.8381   26.5407 H   0  0  0  0  0  0
  -28.2598  -38.0103   24.7522 H   0  0  0  0  0  0
  -28.1072  -36.2636   24.6309 H   0  0  0  0  0  0
  -27.2296  -37.1467   25.8873 H   0  0  0  0  0  0
  -20.9342  -29.8784   21.6991 H   0  0  0  0  0  0
  -26.0202  -38.2882   24.1405 H   0  0  0  0  0  0
  -25.7863  -21.6038   20.7040 H   0  0  0  0  0  0
  -27.0307  -19.3760   21.3649 H   0  0  0  0  0  0
  -30.0329  -22.3556   21.0146 H   0  0  0  0  0  0
  -29.7631  -17.4396   23.7105 H   0  0  0  0  0  0
  -28.1873  -18.2043   23.3067 H   0  0  0  0  0  0
  -28.6045  -17.8177   21.0368 H   0  0  0  0  0  0
  -30.7569  -19.8461   21.1516 H   0  0  0  0  0  0
  -32.3055  -18.1510   21.8585 H   0  0  0  0  0  0
  -32.7362  -16.5126   21.4635 H   0  0  0  0  0  0
  -31.8373  -16.8341   22.9320 H   0  0  0  0  0  0
  -25.2630  -23.7930   20.1075 H   0  0  0  0  0  0
  -25.7152  -25.2416   20.9995 H   0  0  0  0  0  0
  -25.8536  -23.7556   21.7663 H   0  0  0  0  0  0
  -26.8924  -23.2215   18.3196 H   0  0  0  0  0  0
  -28.5919  -23.6230   18.4723 H   0  0  0  0  0  0
  -27.4503  -24.8886   18.2306 H   0  0  0  0  0  0
  -29.3683  -24.9245   20.7683 H   0  0  0  0  0  0
  -28.1211  -25.4068   21.8683 H   0  0  0  0  0  0
  -30.8402  -17.1913   20.0594 H   0  0  0  0  0  0
  -29.2031  -15.3979   21.5185 H   0  0  0  0  0  0
  -30.8217  -19.4695   23.3833 H   0  0  0  0  0  0
  -29.3264  -20.1866   23.5121 H   0  0  0  0  0  0
  1 25  1  0  0  0
  1 30  2  0  0  0
  1 85  1  0  0  0
  2  3  1  0  0  0
  2 25  1  0  0  0
  2 87  1  0  0  0
  2 88  1  0  0  0
  3  4  1  0  0  0
  3 89  1  0  0  0
  3 90  1  0  0  0
  4  5  1  0  0  0
  4 91  1  0  0  0
  4 92  1  0  0  0
  5  6  1  0  0  0
  5 26  1  0  0  0
  5 93  1  0  0  0
  6 25  1  0  0  0
  6 94  1  0  0  0
  6 95  1  0  0  0
  7  8  2  0  0  0
  7 26  1  0  0  0
  7 29  1  0  0  0
  8  9  1  0  0  0
  8 22  1  0  0  0
  9 10  1  0  0  0
  9 27  2  0  0  0
 10 11  2  0  0  0
 10 15  1  0  0  0
 11 12  1  0  0  0
 11 96  1  0  0  0
 12 13  2  0  0  0
 12 97  1  0  0  0
 13 14  1  0  0  0
 13 31  1  0  0  0
 14 15  2  0  0  0
 14 98  1  0  0  0
 15 99  1  0  0  0
 16 17  2  0  0  0
 16 21  1  0  0  0
 16 31  1  0  0  0
 17 18  1  0  0  0
 17100  1  0  0  0
 18 19  2  0  0  0
 18101  1  0  0  0
 19 20  1  0  0  0
 19 24  1  0  0  0
 20 21  2  0  0  0
 20102  1  0  0  0
 21 23  1  0  0  0
 22 28  1  0  0  0
 22 32  2  0  0  0
 26 27  1  0  0  0
 28103  1  0  0  0
 28104  1  0  0  0
 29105  1  0  0  0
 29106  1  0  0  0
 33 34  1  0  0  0
 33 66  1  0  0  0
 33 70  2  0  0  0
 34 36  1  0  0  0
 34 59  1  0  0  0
 34107  1  0  0  0
 35 44  2  0  0  0
 35 45  1  0  0  0
 35 68  1  0  0  0
 36 56  1  0  0  0
 36108  1  0  0  0
 37 39  1  0  0  0
 37 47  1  0  0  0
 37 66  1  0  0  0
 37109  1  0  0  0
 38 43  2  0  0  0
 38 46  1  0  0  0
 38 47  1  0  0  0
 39 64  1  0  0  0
 39 67  2  0  0  0
 40 52  1  0  0  0
 40 53  2  0  0  0
 40 58  1  0  0  0
 41110  1  0  0  0
 41111  1  0  0  0
 41112  1  0  0  0
 41 48  1  0  0  0
 42 43  1  0  0  0
 42 66  1  0  0  0
 42113  1  0  0  0
 42114  1  0  0  0
 43 44  1  0  0  0
 44115  1  0  0  0
 45 46  2  0  0  0
 45116  1  0  0  0
 46117  1  0  0  0
 47118  1  0  0  0
 47119  1  0  0  0
 48 56  1  0  0  0
 48 65  1  0  0  0
 48120  1  0  0  0
 49 50  1  0  0  0
 49 53  1  0  0  0
 49 64  1  0  0  0
 49121  1  0  0  0
 50 51  1  0  0  0
 50122  1  0  0  0
 50123  1  0  0  0
 51 52  1  0  0  0
 51124  1  0  0  0
 51125  1  0  0  0
 52126  1  0  0  0
 52127  1  0  0  0
 53 54  1  0  0  0
 54 55  2  0  0  0
 54128  1  0  0  0
 55 57  1  0  0  0
 55129  1  0  0  0
 56 69  2  0  0  0
 57 58  2  0  0  0
 57130  1  0  0  0
 58131  1  0  0  0
 59 60  1  0  0  0
 59 61  1  0  0  0
 59 62  1  0  0  0
 60132  1  0  0  0
 60133  1  0  0  0
 60134  1  0  0  0
 61135  1  0  0  0
 61136  1  0  0  0
 61137  1  0  0  0
 62138  1  0  0  0
 62139  1  0  0  0
 62140  1  0  0  0
 63 65  1  0  0  0
 63141  1  0  0  0
 63142  1  0  0  0
 63143  1  0  0  0
 64144  1  0  0  0
 65145  1  0  0  0
 68 81  1  0  0  0
 71 72  2  0  0  0
 71 74  1  0  0  0
 71146  1  0  0  0
 72 84  1  0  0  0
 72147  1  0  0  0
 73 74  2  0  0  0
 73 84  1  0  0  0
 73148  1  0  0  0
 74 83  1  0  0  0
 75 86  1  0  0  0
 75149  1  0  0  0
 75150  1  0  0  0
 75 76  1  0  0  0
 76 77  1  0  0  0
 76 82  1  0  0  0
 76151  1  0  0  0
 77 84  1  0  0  0
 77 86  1  0  0  0
 77152  1  0  0  0
 78153  1  0  0  0
 78154  1  0  0  0
 78155  1  0  0  0
 78 82  1  0  0  0
 79156  1  0  0  0
 79157  1  0  0  0
 79158  1  0  0  0
 79 83  1  0  0  0
 80 83  1  0  0  0
 80159  1  0  0  0
 80160  1  0  0  0
 80161  1  0  0  0
 81 83  1  0  0  0
 81162  1  0  0  0
 81163  1  0  0  0
 82 85  1  0  0  0
 82164  1  0  0  0
 85165  1  0  0  0
 86166  1  0  0  0
 86167  1  0  0  0
M  CHG  1  86   1
M  ISO  4   1 100  68 101  81 101  85 100
M  END
> <chiral flag>
0

> <version>
0

> <s_m_source_file>
/data/baiqing/PycharmProjects/Reinvent-master-3.2/result/LINK_invent/BTK/process_docking_weight1_custom_sum_contain_oxygen_bond_distance_aromatic_linkinvent_7_9_3/rearranged_h_0179.sdf

> <i_m_source_file_index>
53

> <r_mmod_Potential_Energy-OPLS-2005>
-133.498809814453

> <r_mmod_Stretch_Energy-OPLS-2005>
60.5561561584473

> <r_mmod_Bend_Energy-OPLS-2005>
158.097290039062

> <r_mmod_Torsional_Energy-OPLS-2005>
305.5419921875

> <r_mmod_Improper_Torsional_Energy-OPLS-2005>
3.7578661441803

> <r_mmod_Van_der_Waal_Energy-OPLS-2005>
147.170776367188

> <r_mmod_Electrostatic_Energy-OPLS-2005>
-339.033020019531

> <r_mmod_Solvation_Energy-OPLS-2005>
-495.477020263672

> <b_mmod_Minimization_Converged-OPLS-2005>
0

> <r_mmod_RMS_Derivative-OPLS-2005>
2.35704255104065

$$$$
53
                    3D
 Structure written by MMmdl.
167177  0  0  1  0            999 V2000
  -30.4492  -15.3513   20.3137 C   0  0  0  0  0  0
  -30.4387  -12.8851   19.4503 C   0  0  0  0  0  0
  -29.5221  -12.5565   18.2479 C   0  0  0  0  0  0
  -28.0778  -12.2782   18.7066 C   0  0  0  0  0  0
  -27.5979  -13.2729   19.7925 C   0  0  2  0  0  0
  -28.6582  -13.5305   20.8814 C   0  0  0  0  0  0
  -25.2373  -13.8055   20.6029 C   0  0  0  0  0  0
  -24.1686  -13.0265   20.9319 C   0  0  0  0  0  0
  -24.6387  -11.6801   20.8735 C   0  0  0  0  0  0
  -23.9085  -10.4188   21.0365 C   0  0  0  0  0  0
  -24.3629   -9.4126   21.9162 C   0  0  0  0  0  0
  -23.6287   -8.2186   22.0740 C   0  0  0  0  0  0
  -22.4267   -8.0241   21.3531 C   0  0  0  0  0  0
  -21.9898   -9.0209   20.4633 C   0  0  0  0  0  0
  -22.7246  -10.2065   20.3031 C   0  0  0  0  0  0
  -21.6843   -6.0719   22.5273 C   0  0  0  0  0  0
  -21.4015   -6.5632   23.8204 C   0  0  0  0  0  0
  -21.3655   -5.6787   24.9172 C   0  0  0  0  0  0
  -21.6028   -4.3046   24.7213 C   0  0  0  0  0  0
  -21.8825   -3.8138   23.4340 C   0  0  0  0  0  0
  -21.9187   -4.6954   22.3394 C   0  0  0  0  0  0
  -22.7710  -13.5078   21.1950 C   0  0  0  0  0  0
  -22.1664   -4.2143   21.0972 F   0  0  0  0  0  0
  -21.5607   -3.4530   25.7725 F   0  0  0  0  0  0
  -29.8403  -14.0648   20.1718 N   0  0  0  0  0  0
  -26.2807  -12.9420   20.3260 N   0  0  0  0  0  0
  -25.9331  -11.6510   20.5685 N   0  0  0  0  0  0
  -22.0333  -12.8066   22.0474 N   0  0  0  0  0  0
  -25.3919  -15.1753   20.4980 N   0  0  0  0  0  0
  -31.6762  -15.2266   20.4701 O   0  0  0  0  0  0
  -21.6618   -6.8859   21.4232 O   0  0  0  0  0  0
  -22.3430  -14.5421   20.6825 O   0  0  0  0  0  0
  -24.6661  -31.8211   23.1669 C   0  0  0  0  0  0
  -25.9326  -32.4586   23.8153 C   0  0  1  0  0  0
  -27.2376  -26.9223   20.1722 C   0  0  0  0  0  0
  -25.5975  -33.8399   24.2074 N   0  0  0  0  0  0
  -23.4823  -30.4289   21.5170 C   0  0  2  0  0  0
  -24.9374  -28.8096   20.1148 C   0  0  0  0  0  0
  -22.7681  -29.4420   22.4776 C   0  0  0  0  0  0
  -18.0331  -28.1417   22.8462 C   0  0  0  0  0  0
  -24.1492  -36.7212   23.2646 C   0  0  0  0  0  0
  -26.0515  -30.6254   21.3950 C   0  0  0  0  0  0
  -26.1220  -29.2120   20.7438 C   0  0  0  0  0  0
  -27.2645  -28.2902   20.7467 C   0  0  0  0  0  0
  -26.0179  -26.6702   19.5039 C   0  0  0  0  0  0
  -24.9104  -27.5589   19.4761 C   0  0  0  0  0  0
  -23.7236  -29.7376   20.1458 C   0  0  0  0  0  0
  -25.4126  -36.2974   24.0311 C   0  0  1  0  0  0
  -20.5951  -28.3760   23.1190 C   0  0  2  0  0  0
  -20.6806  -26.9443   22.5403 C   0  0  0  0  0  0
  -19.5777  -26.6380   21.5221 C   0  0  0  0  0  0
  -18.1961  -26.7946   22.1626 C   0  0  0  0  0  0
  -19.1590  -28.8910   23.2810 C   0  0  0  0  0  0
  -18.9494  -30.1495   23.8849 C   0  0  0  0  0  0
  -17.6488  -30.6600   24.0559 C   0  0  0  0  0  0
  -25.9097  -34.9355   23.5020 C   0  0  0  0  0  0
  -16.5377  -29.9089   23.6344 C   0  0  0  0  0  0
  -16.7310  -28.6514   23.0355 C   0  0  0  0  0  0
  -26.4573  -31.6517   25.0675 C   0  0  0  0  0  0
  -25.3689  -31.3758   26.1321 C   0  0  0  0  0  0
  -27.0465  -30.2884   24.6399 C   0  0  0  0  0  0
  -27.6077  -32.4311   25.7472 C   0  0  0  0  0  0
  -27.5570  -37.1765   24.8467 C   0  0  0  0  0  0
  -21.4346  -29.3046   22.3538 N   0  0  0  0  0  0
  -26.4272  -37.3711   23.9414 N   0  0  0  0  0  0
  -24.7553  -30.9852   22.0811 N   0  0  0  0  0  0
  -23.4213  -28.7995   23.3031 O   0  0  0  0  0  0
  -28.2587  -25.8289   20.2316 O   0  0  0  0  0  0
  -26.5707  -34.8893   22.4611 O   0  0  0  0  0  0
  -23.5721  -32.1189   23.6735 O   0  0  0  0  0  0
  -29.0987  -17.2791   16.1817 C   0  0  0  0  0  0
  -30.0324  -16.4938   15.4867 C   0  0  0  0  0  0
  -29.1707  -17.3075   17.5915 C   0  0  0  0  0  0
  -30.9945  -15.7870   16.2254 C   0  0  0  0  0  0
  -30.1128  -16.5312   18.2595 C   0  0  0  0  0  0
  -29.6330  -19.7911   20.1401 C   0  0  0  0  0  0
  -25.6506  -18.0472   18.9247 C   0  0  0  0  0  0
  -25.9091  -17.2529   17.6654 C   0  0  0  0  0  0
  -29.1394  -18.1067   19.9001 C   0  0  1  0  0  0
  -26.9957  -17.3706   18.7153 C   0  0  0  0  0  0
  -28.3070  -18.1304   18.5176 C   0  0  2  0  0  0
  -32.0493  -14.9479   15.5390 C   0  0  0  0  0  0
  -28.0339  -19.4932   17.7941 C   0  0  0  0  0  0
  -29.1073  -22.7221   20.2606 C   0  0  0  0  0  0
  -28.0483  -24.1890   20.0803 C   0  0  0  0  0  0
  -31.0305  -15.8047   17.5730 N   0  0  0  0  0  0
  -29.9651  -16.6242   19.6728 N   0  0  0  0  0  0
  -28.8465  -21.0635   20.1537 N   0  0  0  0  0  0
  -30.8447  -19.9287   20.3108 O   0  0  0  0  0  0
  -31.4387  -13.1232   19.0819 H   0  0  0  0  0  0
  -30.5564  -12.0246   20.1106 H   0  0  0  0  0  0
  -29.9148  -11.7058   17.6892 H   0  0  0  0  0  0
  -29.5198  -13.4012   17.5580 H   0  0  0  0  0  0
  -28.0502  -11.2632   19.1016 H   0  0  0  0  0  0
  -27.3989  -12.2904   17.8527 H   0  0  0  0  0  0
  -27.4715  -14.2128   19.2560 H   0  0  0  0  0  0
  -28.8807  -12.6323   21.4588 H   0  0  0  0  0  0
  -28.2916  -14.2766   21.5884 H   0  0  0  0  0  0
  -25.2771   -9.5585   22.4735 H   0  0  0  0  0  0
  -23.9975   -7.4580   22.7468 H   0  0  0  0  0  0
  -21.0810   -8.8726   19.8962 H   0  0  0  0  0  0
  -22.3706  -10.9603   19.6137 H   0  0  0  0  0  0
  -21.2034   -7.6145   23.9706 H   0  0  0  0  0  0
  -21.1477   -6.0519   25.9073 H   0  0  0  0  0  0
  -22.0625   -2.7604   23.2829 H   0  0  0  0  0  0
  -22.3943  -11.9737   22.4876 H   0  0  0  0  0  0
  -21.0945  -13.1077   22.2665 H   0  0  0  0  0  0
  -24.6237  -15.8132   20.6713 H   0  0  0  0  0  0
  -26.2517  -15.6406   20.2476 H   0  0  0  0  0  0
  -26.7392  -32.5136   23.0867 H   0  0  0  0  0  0
  -25.0087  -33.9468   25.0202 H   0  0  0  0  0  0
  -22.7984  -31.2607   21.3395 H   0  0  0  0  0  0
  -23.3778  -35.9520   23.3274 H   0  0  0  0  0  0
  -24.3571  -36.8892   22.2068 H   0  0  0  0  0  0
  -23.7222  -37.6382   23.6716 H   0  0  0  0  0  0
  -26.2228  -31.3627   20.6090 H   0  0  0  0  0  0
  -26.9155  -30.6895   22.0454 H   0  0  0  0  0  0
  -28.1606  -28.6010   21.2657 H   0  0  0  0  0  0
  -25.8918  -25.7140   19.0168 H   0  0  0  0  0  0
  -24.0104  -27.2447   18.9657 H   0  0  0  0  0  0
  -23.8819  -30.5027   19.3850 H   0  0  0  0  0  0
  -22.8346  -29.1890   19.8306 H   0  0  0  0  0  0
  -25.1316  -36.1782   25.0803 H   0  0  0  0  0  0
  -21.0035  -28.3377   24.1310 H   0  0  0  0  0  0
  -20.5699  -26.2382   23.3641 H   0  0  0  0  0  0
  -21.6670  -26.7427   22.1199 H   0  0  0  0  0  0
  -19.6939  -25.6279   21.1279 H   0  0  0  0  0  0
  -19.6718  -27.3172   20.6736 H   0  0  0  0  0  0
  -17.4230  -26.6695   21.4029 H   0  0  0  0  0  0
  -18.0352  -26.0101   22.9034 H   0  0  0  0  0  0
  -19.7967  -30.7326   24.2199 H   0  0  0  0  0  0
  -17.5038  -31.6273   24.5173 H   0  0  0  0  0  0
  -15.5374  -30.2974   23.7686 H   0  0  0  0  0  0
  -15.8715  -28.0814   22.7084 H   0  0  0  0  0  0
  -24.5903  -30.7077   25.7629 H   0  0  0  0  0  0
  -24.8828  -32.2944   26.4610 H   0  0  0  0  0  0
  -25.7904  -30.9016   27.0189 H   0  0  0  0  0  0
  -26.3127  -29.6559   24.1392 H   0  0  0  0  0  0
  -27.3995  -29.7248   25.5048 H   0  0  0  0  0  0
  -27.9069  -30.4081   23.9811 H   0  0  0  0  0  0
  -27.2687  -33.3681   26.1896 H   0  0  0  0  0  0
  -28.3968  -32.6752   25.0348 H   0  0  0  0  0  0
  -28.0651  -31.8517   26.5505 H   0  0  0  0  0  0
  -28.2571  -38.0080   24.7527 H   0  0  0  0  0  0
  -28.1087  -36.2610   24.6279 H   0  0  0  0  0  0
  -27.2289  -37.1386   25.8870 H   0  0  0  0  0  0
  -20.9609  -29.8729   21.6649 H   0  0  0  0  0  0
  -26.0136  -38.2776   24.1411 H   0  0  0  0  0  0
  -28.3601  -17.8405   15.6300 H   0  0  0  0  0  0
  -30.0162  -16.4475   14.4054 H   0  0  0  0  0  0
  -24.9603  -17.6208   19.6469 H   0  0  0  0  0  0
  -25.5497  -19.1221   18.8009 H   0  0  0  0  0  0
  -25.9968  -17.8101   16.7369 H   0  0  0  0  0  0
  -25.4078  -16.2911   17.5701 H   0  0  0  0  0  0
  -28.4579  -17.9289   20.7326 H   0  0  0  0  0  0
  -27.1669  -16.4465   19.2508 H   0  0  0  0  0  0
  -31.7356  -13.9054   15.4890 H   0  0  0  0  0  0
  -32.9961  -14.9989   16.0777 H   0  0  0  0  0  0
  -32.2255  -15.3036   14.5243 H   0  0  0  0  0  0
  -28.9536  -20.0245   17.5460 H   0  0  0  0  0  0
  -27.4006  -20.1633   18.3685 H   0  0  0  0  0  0
  -27.5097  -19.3822   16.8484 H   0  0  0  0  0  0
  -29.5671  -22.8399   21.2415 H   0  0  0  0  0  0
  -29.9284  -22.8904   19.5628 H   0  0  0  0  0  0
  -27.1979  -23.9903   20.7327 H   0  0  0  0  0  0
  -27.6335  -24.0926   19.0770 H   0  0  0  0  0  0
  -27.8609  -20.8690   20.0355 H   0  0  0  0  0  0
  1 25  1  0  0  0
  1 30  2  0  0  0
  1 87  1  0  0  0
  2  3  1  0  0  0
  2 25  1  0  0  0
  2 90  1  0  0  0
  2 91  1  0  0  0
  3  4  1  0  0  0
  3 92  1  0  0  0
  3 93  1  0  0  0
  4  5  1  0  0  0
  4 94  1  0  0  0
  4 95  1  0  0  0
  5  6  1  0  0  0
  5 26  1  0  0  0
  5 96  1  0  0  0
  6 25  1  0  0  0
  6 97  1  0  0  0
  6 98  1  0  0  0
  7  8  2  0  0  0
  7 26  1  0  0  0
  7 29  1  0  0  0
  8  9  1  0  0  0
  8 22  1  0  0  0
  9 10  1  0  0  0
  9 27  2  0  0  0
 10 11  2  0  0  0
 10 15  1  0  0  0
 11 12  1  0  0  0
 11 99  1  0  0  0
 12 13  2  0  0  0
 12100  1  0  0  0
 13 14  1  0  0  0
 13 31  1  0  0  0
 14 15  2  0  0  0
 14101  1  0  0  0
 15102  1  0  0  0
 16 17  2  0  0  0
 16 21  1  0  0  0
 16 31  1  0  0  0
 17 18  1  0  0  0
 17103  1  0  0  0
 18 19  2  0  0  0
 18104  1  0  0  0
 19 20  1  0  0  0
 19 24  1  0  0  0
 20 21  2  0  0  0
 20105  1  0  0  0
 21 23  1  0  0  0
 22 28  1  0  0  0
 22 32  2  0  0  0
 26 27  1  0  0  0
 28106  1  0  0  0
 28107  1  0  0  0
 29108  1  0  0  0
 29109  1  0  0  0
 33 34  1  0  0  0
 33 66  1  0  0  0
 33 70  2  0  0  0
 34 36  1  0  0  0
 34 59  1  0  0  0
 34110  1  0  0  0
 35 44  2  0  0  0
 35 45  1  0  0  0
 35 68  1  0  0  0
 36 56  1  0  0  0
 36111  1  0  0  0
 37 39  1  0  0  0
 37 47  1  0  0  0
 37 66  1  0  0  0
 37112  1  0  0  0
 38 43  2  0  0  0
 38 46  1  0  0  0
 38 47  1  0  0  0
 39 64  1  0  0  0
 39 67  2  0  0  0
 40 52  1  0  0  0
 40 53  2  0  0  0
 40 58  1  0  0  0
 41113  1  0  0  0
 41114  1  0  0  0
 41115  1  0  0  0
 41 48  1  0  0  0
 42 43  1  0  0  0
 42 66  1  0  0  0
 42116  1  0  0  0
 42117  1  0  0  0
 43 44  1  0  0  0
 44118  1  0  0  0
 45 46  2  0  0  0
 45119  1  0  0  0
 46120  1  0  0  0
 47121  1  0  0  0
 47122  1  0  0  0
 48 56  1  0  0  0
 48 65  1  0  0  0
 48123  1  0  0  0
 49 50  1  0  0  0
 49 53  1  0  0  0
 49 64  1  0  0  0
 49124  1  0  0  0
 50 51  1  0  0  0
 50125  1  0  0  0
 50126  1  0  0  0
 51 52  1  0  0  0
 51127  1  0  0  0
 51128  1  0  0  0
 52129  1  0  0  0
 52130  1  0  0  0
 53 54  1  0  0  0
 54 55  2  0  0  0
 54131  1  0  0  0
 55 57  1  0  0  0
 55132  1  0  0  0
 56 69  2  0  0  0
 57 58  2  0  0  0
 57133  1  0  0  0
 58134  1  0  0  0
 59 60  1  0  0  0
 59 61  1  0  0  0
 59 62  1  0  0  0
 60135  1  0  0  0
 60136  1  0  0  0
 60137  1  0  0  0
 61138  1  0  0  0
 61139  1  0  0  0
 61140  1  0  0  0
 62141  1  0  0  0
 62142  1  0  0  0
 62143  1  0  0  0
 63 65  1  0  0  0
 63144  1  0  0  0
 63145  1  0  0  0
 63146  1  0  0  0
 64147  1  0  0  0
 65148  1  0  0  0
 68 85  1  0  0  0
 71 72  2  0  0  0
 71 73  1  0  0  0
 71149  1  0  0  0
 72 74  1  0  0  0
 72150  1  0  0  0
 73 75  2  0  0  0
 73 81  1  0  0  0
 74 82  1  0  0  0
 74 86  2  0  0  0
 75 86  1  0  0  0
 75 87  1  0  0  0
 76 88  1  0  0  0
 76 89  2  0  0  0
 76 79  1  0  0  0
 77 78  1  0  0  0
 77151  1  0  0  0
 77152  1  0  0  0
 77 80  1  0  0  0
 78 80  1  0  0  0
 78153  1  0  0  0
 78154  1  0  0  0
 79 81  1  0  0  0
 79 87  1  0  0  0
 79155  1  0  0  0
 80 81  1  0  0  0
 80156  1  0  0  0
 81 83  1  0  0  0
 82157  1  0  0  0
 82158  1  0  0  0
 82159  1  0  0  0
 83160  1  0  0  0
 83161  1  0  0  0
 83162  1  0  0  0
 84 85  1  0  0  0
 84 88  1  0  0  0
 84163  1  0  0  0
 84164  1  0  0  0
 85165  1  0  0  0
 85166  1  0  0  0
 88167  1  0  0  0
M  ISO  4   1 100  68 101  85 101  87 100
M  END
> <chiral flag>
0

> <version>
0

> <s_m_source_file>
/data/baiqing/PycharmProjects/Reinvent-master-3.2/result/LINK_invent/BTK/process_docking_weight1_custom_sum_contain_oxygen_bond_distance_aromatic_linkinvent_7_9_3/rearranged_h_0179.sdf

> <i_m_source_file_index>
54

> <r_mmod_Potential_Energy-OPLS-2005>
1483.63830566406

> <r_mmod_Stretch_Energy-OPLS-2005>
676.567199707031

> <r_mmod_Bend_Energy-OPLS-2005>
543.168823242188

> <r_mmod_Torsional_Energy-OPLS-2005>
346.261169433594

> <r_mmod_Improper_Torsional_Energy-OPLS-2005>
27.8622379302979

> <r_mmod_Van_der_Waal_Energy-OPLS-2005>
146.246292114258

> <r_mmod_Electrostatic_Energy-OPLS-2005>
-533.983337402344

> <r_mmod_Solvation_Energy-OPLS-2005>
-255.401016235352

> <b_mmod_Minimization_Converged-OPLS-2005>
0

> <r_mmod_RMS_Derivative-OPLS-2005>
2.16420674324036

$$$$
54
                    3D
 Structure written by MMmdl.
150159  0  0  1  0            999 V2000
  -30.3895  -15.4151   20.3792 C   0  0  0  0  0  0
  -30.4342  -12.9228   19.5354 C   0  0  0  0  0  0
  -29.5396  -12.6193   18.3026 C   0  0  0  0  0  0
  -28.0963  -12.3084   18.7299 C   0  0  0  0  0  0
  -27.6073  -13.2845   19.8251 C   0  0  2  0  0  0
  -28.6373  -13.4839   20.9572 C   0  0  0  0  0  0
  -25.2359  -13.8247   20.5740 C   0  0  0  0  0  0
  -24.1728  -13.0427   20.9263 C   0  0  0  0  0  0
  -24.6404  -11.6931   20.8766 C   0  0  0  0  0  0
  -23.9104  -10.4291   21.0405 C   0  0  0  0  0  0
  -24.3645   -9.4200   21.9183 C   0  0  0  0  0  0
  -23.6311   -8.2242   22.0755 C   0  0  0  0  0  0
  -22.4288   -8.0290   21.3544 C   0  0  0  0  0  0
  -21.9928   -9.0262   20.4643 C   0  0  0  0  0  0
  -22.7274  -10.2133   20.3049 C   0  0  0  0  0  0
  -21.6856   -6.0742   22.5281 C   0  0  0  0  0  0
  -21.4014   -6.5644   23.8211 C   0  0  0  0  0  0
  -21.3656   -5.6794   24.9172 C   0  0  0  0  0  0
  -21.6042   -4.3057   24.7223 C   0  0  0  0  0  0
  -21.8821   -3.8150   23.4345 C   0  0  0  0  0  0
  -21.9194   -4.6968   22.3403 C   0  0  0  0  0  0
  -22.7745  -13.5172   21.1906 C   0  0  0  0  0  0
  -22.1664   -4.2155   21.0981 F   0  0  0  0  0  0
  -21.5626   -3.4539   25.7734 F   0  0  0  0  0  0
  -29.8416  -14.0771   20.3347 N   0  0  0  0  0  0
  -26.2797  -12.9538   20.3227 N   0  0  0  0  0  0
  -25.9344  -11.6636   20.5721 N   0  0  0  0  0  0
  -22.0410  -12.8155   22.0464 N   0  0  0  0  0  0
  -25.3981  -15.1976   20.4148 N   0  0  0  0  0  0
  -31.5966  -15.3790   20.0782 O   0  0  0  0  0  0
  -21.6646   -6.8890   21.4245 O   0  0  0  0  0  0
  -22.3419  -14.5469   20.6743 O   0  0  0  0  0  0
  -24.6706  -31.8144   23.1625 C   0  0  0  0  0  0
  -25.9352  -32.4541   23.8120 C   0  0  1  0  0  0
  -27.2204  -26.8368   20.1897 C   0  0  0  0  0  0
  -25.5993  -33.8360   24.2027 N   0  0  0  0  0  0
  -23.4906  -30.4221   21.5120 C   0  0  2  0  0  0
  -24.9475  -28.7941   20.1059 C   0  0  0  0  0  0
  -22.7709  -29.4391   22.4735 C   0  0  0  0  0  0
  -18.0330  -28.1421   22.8475 C   0  0  0  0  0  0
  -24.1488  -36.7172   23.2653 C   0  0  0  0  0  0
  -26.0640  -30.5892   21.4087 C   0  0  0  0  0  0
  -26.1297  -29.1700   20.7533 C   0  0  0  0  0  0
  -27.2527  -28.2121   20.7753 C   0  0  0  0  0  0
  -26.0150  -26.6444   19.4743 C   0  0  0  0  0  0
  -24.9217  -27.5548   19.4451 C   0  0  0  0  0  0
  -23.7368  -29.7319   20.1399 C   0  0  0  0  0  0
  -25.4137  -36.2935   24.0295 C   0  0  1  0  0  0
  -20.5962  -28.3771   23.1170 C   0  0  2  0  0  0
  -20.6803  -26.9441   22.5409 C   0  0  0  0  0  0
  -19.5775  -26.6385   21.5224 C   0  0  0  0  0  0
  -18.1956  -26.7956   22.1627 C   0  0  0  0  0  0
  -19.1596  -28.8917   23.2809 C   0  0  0  0  0  0
  -18.9505  -30.1502   23.8848 C   0  0  0  0  0  0
  -17.6498  -30.6608   24.0559 C   0  0  0  0  0  0
  -25.9111  -34.9325   23.4985 C   0  0  0  0  0  0
  -16.5386  -29.9101   23.6353 C   0  0  0  0  0  0
  -16.7312  -28.6519   23.0377 C   0  0  0  0  0  0
  -26.4578  -31.6519   25.0677 C   0  0  0  0  0  0
  -25.3688  -31.3808   26.1322 C   0  0  0  0  0  0
  -27.0491  -30.2874   24.6484 C   0  0  0  0  0  0
  -27.6053  -32.4350   25.7490 C   0  0  0  0  0  0
  -27.5550  -37.1755   24.8478 C   0  0  0  0  0  0
  -21.4367  -29.3038   22.3493 N   0  0  0  0  0  0
  -26.4271  -37.3682   23.9401 N   0  0  0  0  0  0
  -24.7633  -30.9721   22.0806 N   0  0  0  0  0  0
  -23.4221  -28.7974   23.3015 O   0  0  0  0  0  0
  -28.1870  -25.6745   20.3316 O   0  0  0  0  0  0
  -26.5723  -34.8875   22.4581 O   0  0  0  0  0  0
  -23.5758  -32.1155   23.6670 O   0  0  0  0  0  0
  -28.0217  -20.8111   22.3300 C   0  0  0  0  0  0
  -27.9974  -22.1247   21.7635 C   0  0  0  0  0  0
  -28.5728  -19.6633   21.6855 C   0  0  0  0  0  0
  -29.1573  -19.8080   20.4296 C   0  0  0  0  0  0
  -28.5100  -22.4362   20.4823 C   0  0  0  0  0  0
  -28.6045  -18.2731   22.3704 C   0  0  0  0  0  0
  -29.8557  -18.3026   19.8888 C   0  0  0  0  0  0
  -28.5829  -16.9509   21.4928 C   0  0  0  0  0  0
  -28.1157  -24.0609   19.8174 C   0  0  0  0  0  0
  -29.0813  -21.1949   19.8648 N   0  0  0  0  0  0
  -29.6622  -16.7516   20.4913 N   0  0  0  0  0  0
  -31.4400  -13.1519   19.1804 H   0  0  0  0  0  0
  -30.5553  -12.0339   20.1562 H   0  0  0  0  0  0
  -29.9509  -11.7888   17.7268 H   0  0  0  0  0  0
  -29.5402  -13.4843   17.6373 H   0  0  0  0  0  0
  -28.0753  -11.2881   19.1145 H   0  0  0  0  0  0
  -27.4272  -12.3263   17.8687 H   0  0  0  0  0  0
  -27.5109  -14.2452   19.3173 H   0  0  0  0  0  0
  -28.8545  -12.5424   21.4631 H   0  0  0  0  0  0
  -28.2264  -14.1334   21.7235 H   0  0  0  0  0  0
  -25.2792   -9.5672   22.4757 H   0  0  0  0  0  0
  -24.0018   -7.4626   22.7466 H   0  0  0  0  0  0
  -21.0864   -8.8782   19.8946 H   0  0  0  0  0  0
  -22.3740  -10.9668   19.6153 H   0  0  0  0  0  0
  -21.2010   -7.6151   23.9716 H   0  0  0  0  0  0
  -21.1471   -6.0524   25.9075 H   0  0  0  0  0  0
  -22.0604   -2.7613   23.2838 H   0  0  0  0  0  0
  -22.4052  -11.9829   22.4853 H   0  0  0  0  0  0
  -21.1014  -13.1142   22.2666 H   0  0  0  0  0  0
  -24.6255  -15.8467   20.5169 H   0  0  0  0  0  0
  -26.2376  -15.6328   20.0573 H   0  0  0  0  0  0
  -26.7414  -32.5047   23.0821 H   0  0  0  0  0  0
  -25.0096  -33.9426   25.0151 H   0  0  0  0  0  0
  -22.8085  -31.2561   21.3337 H   0  0  0  0  0  0
  -23.3755  -35.9500   23.3327 H   0  0  0  0  0  0
  -24.3560  -36.8814   22.2067 H   0  0  0  0  0  0
  -23.7252  -37.6365   23.6705 H   0  0  0  0  0  0
  -26.2556  -31.3249   20.6263 H   0  0  0  0  0  0
  -26.9195  -30.6497   22.0691 H   0  0  0  0  0  0
  -28.1369  -28.4949   21.3286 H   0  0  0  0  0  0
  -25.8671  -25.7039   18.9656 H   0  0  0  0  0  0
  -24.0275  -27.2632   18.9116 H   0  0  0  0  0  0
  -23.8991  -30.4991   19.3817 H   0  0  0  0  0  0
  -22.8449  -29.1910   19.8189 H   0  0  0  0  0  0
  -25.1349  -36.1717   25.0788 H   0  0  0  0  0  0
  -21.0054  -28.3384   24.1294 H   0  0  0  0  0  0
  -20.5678  -26.2393   23.3662 H   0  0  0  0  0  0
  -21.6664  -26.7408   22.1210 H   0  0  0  0  0  0
  -19.6932  -25.6285   21.1285 H   0  0  0  0  0  0
  -19.6712  -27.3171   20.6735 H   0  0  0  0  0  0
  -17.4228  -26.6711   21.4026 H   0  0  0  0  0  0
  -18.0331  -26.0108   22.9030 H   0  0  0  0  0  0
  -19.7980  -30.7332   24.2194 H   0  0  0  0  0  0
  -17.5054  -31.6285   24.5171 H   0  0  0  0  0  0
  -15.5383  -30.2990   23.7710 H   0  0  0  0  0  0
  -15.8713  -28.0823   22.7125 H   0  0  0  0  0  0
  -24.5881  -30.7144   25.7636 H   0  0  0  0  0  0
  -24.8860  -32.3022   26.4584 H   0  0  0  0  0  0
  -25.7899  -30.9084   27.0205 H   0  0  0  0  0  0
  -26.3180  -29.6520   24.1465 H   0  0  0  0  0  0
  -27.3963  -29.7276   25.5179 H   0  0  0  0  0  0
  -27.9152  -30.4038   23.9965 H   0  0  0  0  0  0
  -27.2609  -33.3711   26.1899 H   0  0  0  0  0  0
  -28.3950  -32.6812   25.0381 H   0  0  0  0  0  0
  -28.0613  -31.8581   26.5546 H   0  0  0  0  0  0
  -28.2588  -38.0026   24.7462 H   0  0  0  0  0  0
  -28.1018  -36.2550   24.6384 H   0  0  0  0  0  0
  -27.2259  -37.1502   25.8881 H   0  0  0  0  0  0
  -20.9629  -29.8719   21.6605 H   0  0  0  0  0  0
  -26.0108  -38.2740   24.1384 H   0  0  0  0  0  0
  -27.5853  -20.6829   23.3102 H   0  0  0  0  0  0
  -27.5152  -22.9150   22.3223 H   0  0  0  0  0  0
  -27.7513  -18.2285   23.0495 H   0  0  0  0  0  0
  -29.4852  -18.2532   23.0133 H   0  0  0  0  0  0
  -30.9325  -18.4731   19.8899 H   0  0  0  0  0  0
  -29.5946  -18.2286   18.8334 H   0  0  0  0  0  0
  -27.6290  -16.8820   20.9707 H   0  0  0  0  0  0
  -28.6026  -16.1313   22.2066 H   0  0  0  0  0  0
  -27.0717  -23.9309   19.5382 H   0  0  0  0  0  0
  -28.6349  -24.0782   18.8594 H   0  0  0  0  0  0
  1 25  1  0  0  0
  1 30  2  0  0  0
  1 81  1  0  0  0
  2  3  1  0  0  0
  2 25  1  0  0  0
  2 82  1  0  0  0
  2 83  1  0  0  0
  3  4  1  0  0  0
  3 84  1  0  0  0
  3 85  1  0  0  0
  4  5  1  0  0  0
  4 86  1  0  0  0
  4 87  1  0  0  0
  5  6  1  0  0  0
  5 26  1  0  0  0
  5 88  1  0  0  0
  6 25  1  0  0  0
  6 89  1  0  0  0
  6 90  1  0  0  0
  7  8  2  0  0  0
  7 26  1  0  0  0
  7 29  1  0  0  0
  8  9  1  0  0  0
  8 22  1  0  0  0
  9 10  1  0  0  0
  9 27  2  0  0  0
 10 11  2  0  0  0
 10 15  1  0  0  0
 11 12  1  0  0  0
 11 91  1  0  0  0
 12 13  2  0  0  0
 12 92  1  0  0  0
 13 14  1  0  0  0
 13 31  1  0  0  0
 14 15  2  0  0  0
 14 93  1  0  0  0
 15 94  1  0  0  0
 16 17  2  0  0  0
 16 21  1  0  0  0
 16 31  1  0  0  0
 17 18  1  0  0  0
 17 95  1  0  0  0
 18 19  2  0  0  0
 18 96  1  0  0  0
 19 20  1  0  0  0
 19 24  1  0  0  0
 20 21  2  0  0  0
 20 97  1  0  0  0
 21 23  1  0  0  0
 22 28  1  0  0  0
 22 32  2  0  0  0
 26 27  1  0  0  0
 28 98  1  0  0  0
 28 99  1  0  0  0
 29100  1  0  0  0
 29101  1  0  0  0
 33 34  1  0  0  0
 33 66  1  0  0  0
 33 70  2  0  0  0
 34 36  1  0  0  0
 34 59  1  0  0  0
 34102  1  0  0  0
 35 44  2  0  0  0
 35 45  1  0  0  0
 35 68  1  0  0  0
 36 56  1  0  0  0
 36103  1  0  0  0
 37 39  1  0  0  0
 37 47  1  0  0  0
 37 66  1  0  0  0
 37104  1  0  0  0
 38 43  2  0  0  0
 38 46  1  0  0  0
 38 47  1  0  0  0
 39 64  1  0  0  0
 39 67  2  0  0  0
 40 52  1  0  0  0
 40 53  2  0  0  0
 40 58  1  0  0  0
 41105  1  0  0  0
 41106  1  0  0  0
 41107  1  0  0  0
 41 48  1  0  0  0
 42 43  1  0  0  0
 42 66  1  0  0  0
 42108  1  0  0  0
 42109  1  0  0  0
 43 44  1  0  0  0
 44110  1  0  0  0
 45 46  2  0  0  0
 45111  1  0  0  0
 46112  1  0  0  0
 47113  1  0  0  0
 47114  1  0  0  0
 48 56  1  0  0  0
 48 65  1  0  0  0
 48115  1  0  0  0
 49 50  1  0  0  0
 49 53  1  0  0  0
 49 64  1  0  0  0
 49116  1  0  0  0
 50 51  1  0  0  0
 50117  1  0  0  0
 50118  1  0  0  0
 51 52  1  0  0  0
 51119  1  0  0  0
 51120  1  0  0  0
 52121  1  0  0  0
 52122  1  0  0  0
 53 54  1  0  0  0
 54 55  2  0  0  0
 54123  1  0  0  0
 55 57  1  0  0  0
 55124  1  0  0  0
 56 69  2  0  0  0
 57 58  2  0  0  0
 57125  1  0  0  0
 58126  1  0  0  0
 59 60  1  0  0  0
 59 61  1  0  0  0
 59 62  1  0  0  0
 60127  1  0  0  0
 60128  1  0  0  0
 60129  1  0  0  0
 61130  1  0  0  0
 61131  1  0  0  0
 61132  1  0  0  0
 62133  1  0  0  0
 62134  1  0  0  0
 62135  1  0  0  0
 63 65  1  0  0  0
 63136  1  0  0  0
 63137  1  0  0  0
 63138  1  0  0  0
 64139  1  0  0  0
 65140  1  0  0  0
 68 79  1  0  0  0
 71 72  2  0  0  0
 71 73  1  0  0  0
 71141  1  0  0  0
 72 75  1  0  0  0
 72142  1  0  0  0
 73 74  2  0  0  0
 73 76  1  0  0  0
 74 77  1  0  0  0
 74 80  1  0  0  0
 75 79  1  0  0  0
 75 80  2  0  0  0
 76 78  1  0  0  0
 76143  1  0  0  0
 76144  1  0  0  0
 77 81  1  0  0  0
 77145  1  0  0  0
 77146  1  0  0  0
 78 81  1  0  0  0
 78147  1  0  0  0
 78148  1  0  0  0
 79149  1  0  0  0
 79150  1  0  0  0
M  ISO  4   1 100  68 101  79 101  81 100
M  END
> <chiral flag>
0

> <version>
0

> <s_m_source_file>
/data/baiqing/PycharmProjects/Reinvent-master-3.2/result/LINK_invent/BTK/process_docking_weight1_custom_sum_contain_oxygen_bond_distance_aromatic_linkinvent_7_9_3/rearranged_h_0179.sdf

> <i_m_source_file_index>
55

> <r_mmod_Potential_Energy-OPLS-2005>
1527.43041992188

> <r_mmod_Stretch_Energy-OPLS-2005>
703.382934570312

> <r_mmod_Bend_Energy-OPLS-2005>
498.014404296875

> <r_mmod_Torsional_Energy-OPLS-2005>
282.395660400391

> <r_mmod_Improper_Torsional_Energy-OPLS-2005>
7.91876363754272

> <r_mmod_Van_der_Waal_Energy-OPLS-2005>
129.720001220703

> <r_mmod_Electrostatic_Energy-OPLS-2005>
-473.424774169922

> <r_mmod_Solvation_Energy-OPLS-2005>
-234.96435546875

> <b_mmod_Minimization_Converged-OPLS-2005>
0

> <r_mmod_RMS_Derivative-OPLS-2005>
1.20252442359924

$$$$
55
                    3D
 Structure written by MMmdl.
156165  0  0  1  0            999 V2000
  -30.5905  -14.7817   20.4651 C   0  0  0  0  0  0
  -30.4364  -12.4845   19.4677 C   0  0  0  0  0  0
  -29.5107  -12.5158   18.2317 C   0  0  0  0  0  0
  -28.0375  -12.3325   18.6460 C   0  0  0  0  0  0
  -27.6379  -13.2334   19.8452 C   0  0  2  0  0  0
  -28.6834  -13.1774   20.9789 C   0  0  0  0  0  0
  -25.2492  -13.8191   20.5696 C   0  0  0  0  0  0
  -24.1788  -13.0438   20.9218 C   0  0  0  0  0  0
  -24.6382  -11.6916   20.8746 C   0  0  0  0  0  0
  -23.9058  -10.4294   21.0408 C   0  0  0  0  0  0
  -24.3613   -9.4211   21.9187 C   0  0  0  0  0  0
  -23.6292   -8.2239   22.0748 C   0  0  0  0  0  0
  -22.4273   -8.0276   21.3536 C   0  0  0  0  0  0
  -21.9908   -9.0251   20.4646 C   0  0  0  0  0  0
  -22.7230  -10.2133   20.3055 C   0  0  0  0  0  0
  -21.6854   -6.0735   22.5278 C   0  0  0  0  0  0
  -21.4018   -6.5636   23.8213 C   0  0  0  0  0  0
  -21.3661   -5.6789   24.9174 C   0  0  0  0  0  0
  -21.6039   -4.3048   24.7226 C   0  0  0  0  0  0
  -21.8819   -3.8144   23.4345 C   0  0  0  0  0  0
  -21.9197   -4.6963   22.3406 C   0  0  0  0  0  0
  -22.7807  -13.5221   21.1875 C   0  0  0  0  0  0
  -22.1663   -4.2150   21.0983 F   0  0  0  0  0  0
  -21.5634   -3.4531   25.7737 F   0  0  0  0  0  0
  -29.9772  -13.5481   20.3919 N   0  0  0  0  0  0
  -26.2913  -12.9401   20.3249 N   0  0  0  0  0  0
  -25.9306  -11.6540   20.5725 N   0  0  0  0  0  0
  -22.0451  -12.8215   22.0436 N   0  0  0  0  0  0
  -25.4172  -15.1918   20.4121 N   0  0  0  0  0  0
  -31.7872  -14.8843   20.1827 O   0  0  0  0  0  0
  -21.6636   -6.8871   21.4235 O   0  0  0  0  0  0
  -22.3494  -14.5525   20.6718 O   0  0  0  0  0  0
  -24.6345  -31.8520   23.1955 C   0  0  0  0  0  0
  -25.9158  -32.4736   23.8317 C   0  0  1  0  0  0
  -27.2185  -27.2273   20.1461 C   0  0  0  0  0  0
  -25.5939  -33.8537   24.2237 N   0  0  0  0  0  0
  -23.4335  -30.4746   21.5386 C   0  0  2  0  0  0
  -24.8829  -28.9139   20.1134 C   0  0  0  0  0  0
  -22.7521  -29.4590   22.4884 C   0  0  0  0  0  0
  -18.0298  -28.1387   22.8478 C   0  0  0  0  0  0
  -24.1490  -36.7275   23.2639 C   0  0  0  0  0  0
  -25.9824  -30.7548   21.3817 C   0  0  0  0  0  0
  -26.0562  -29.3732   20.7265 C   0  0  0  0  0  0
  -27.2289  -28.5441   20.7281 C   0  0  0  0  0  0
  -26.0265  -26.8488   19.4920 C   0  0  0  0  0  0
  -24.8750  -27.6604   19.4830 C   0  0  0  0  0  0
  -23.6560  -29.8063   20.1564 C   0  0  0  0  0  0
  -25.4115  -36.3052   24.0321 C   0  0  1  0  0  0
  -20.5904  -28.3704   23.1252 C   0  0  2  0  0  0
  -20.6778  -26.9413   22.5406 C   0  0  0  0  0  0
  -19.5759  -26.6379   21.5204 C   0  0  0  0  0  0
  -18.1940  -26.7929   22.1619 C   0  0  0  0  0  0
  -19.1553  -28.8862   23.2861 C   0  0  0  0  0  0
  -18.9471  -30.1461   23.8885 C   0  0  0  0  0  0
  -17.6468  -30.6587   24.0559 C   0  0  0  0  0  0
  -25.9059  -34.9428   23.5081 C   0  0  0  0  0  0
  -16.5359  -29.9082   23.6330 C   0  0  0  0  0  0
  -16.7282  -28.6498   23.0352 C   0  0  0  0  0  0
  -26.4508  -31.6573   25.0723 C   0  0  0  0  0  0
  -25.3719  -31.3757   26.1441 C   0  0  0  0  0  0
  -27.0345  -30.2971   24.6251 C   0  0  0  0  0  0
  -27.6058  -32.4318   25.7496 C   0  0  0  0  0  0
  -27.5582  -37.1786   24.8459 C   0  0  0  0  0  0
  -21.4224  -29.3043   22.3633 N   0  0  0  0  0  0
  -26.4284  -37.3758   23.9413 N   0  0  0  0  0  0
  -24.7026  -31.0464   22.0944 N   0  0  0  0  0  0
  -23.4203  -28.8128   23.2997 O   0  0  0  0  0  0
  -28.2925  -26.2972   20.1710 O   0  0  0  0  0  0
  -26.5636  -34.8907   22.4653 O   0  0  0  0  0  0
  -23.5487  -32.1352   23.7233 O   0  0  0  0  0  0
  -30.2377  -22.6434   18.6988 C   0  0  0  0  0  0
  -28.8222  -23.5759   20.1566 C   0  0  0  0  0  0
  -29.2998  -21.2931   20.1952 C   0  0  0  0  0  0
  -32.6257  -22.2917   17.6905 C   0  0  0  0  0  0
  -32.3712  -23.7729   17.6826 C   0  0  0  0  0  0
  -31.2051  -22.8101   17.5665 C   0  0  0  0  0  0
  -28.0084  -24.8773   20.6473 C   0  0  0  0  0  0
  -29.3999  -18.6032   20.1077 C   0  0  0  0  0  0
  -30.1664  -17.3926   20.8914 C   0  0  0  0  0  0
  -29.6360  -23.7547   19.1219 N   0  0  0  0  0  0
  -30.0965  -21.3986   19.1528 N   0  0  0  0  0  0
  -28.6363  -22.3447   20.7494 N   0  0  0  0  0  0
  -29.2203  -19.9735   20.7638 N   0  0  0  0  0  0
  -29.8018  -15.9127   20.6683 N   0  0  0  0  0  0
  -31.4732  -12.6287   19.1610 H   0  0  0  0  0  0
  -30.4000  -11.5100   19.9579 H   0  0  0  0  0  0
  -29.8003  -11.7386   17.5229 H   0  0  0  0  0  0
  -29.6291  -13.4669   17.7085 H   0  0  0  0  0  0
  -27.8976  -11.2839   18.9115 H   0  0  0  0  0  0
  -27.3791  -12.5219   17.7976 H   0  0  0  0  0  0
  -27.6268  -14.2528   19.4596 H   0  0  0  0  0  0
  -28.7321  -12.1808   21.4186 H   0  0  0  0  0  0
  -28.4106  -13.8560   21.7889 H   0  0  0  0  0  0
  -25.2762   -9.5689   22.4759 H   0  0  0  0  0  0
  -24.0016   -7.4624   22.7448 H   0  0  0  0  0  0
  -21.0847   -8.8752   19.8946 H   0  0  0  0  0  0
  -22.3681  -10.9667   19.6155 H   0  0  0  0  0  0
  -21.2003   -7.6145   23.9711 H   0  0  0  0  0  0
  -21.1484   -6.0521   25.9076 H   0  0  0  0  0  0
  -22.0598   -2.7607   23.2840 H   0  0  0  0  0  0
  -22.4088  -11.9904   22.4860 H   0  0  0  0  0  0
  -21.1050  -13.1208   22.2608 H   0  0  0  0  0  0
  -24.6453  -15.8416   20.5195 H   0  0  0  0  0  0
  -26.2558  -15.6329   20.0575 H   0  0  0  0  0  0
  -26.7224  -32.5377   23.1055 H   0  0  0  0  0  0
  -25.0083  -33.9667   25.0382 H   0  0  0  0  0  0
  -22.7315  -31.2976   21.3897 H   0  0  0  0  0  0
  -23.3754  -35.9605   23.3281 H   0  0  0  0  0  0
  -24.3587  -36.8921   22.2059 H   0  0  0  0  0  0
  -23.7240  -37.6465   23.6681 H   0  0  0  0  0  0
  -26.1280  -31.5134   20.6114 H   0  0  0  0  0  0
  -26.8565  -30.8039   22.0194 H   0  0  0  0  0  0
  -28.1268  -28.8911   21.2204 H   0  0  0  0  0  0
  -25.9687  -25.8947   18.9878 H   0  0  0  0  0  0
  -23.9799  -27.3063   18.9901 H   0  0  0  0  0  0
  -23.7876  -30.5814   19.4005 H   0  0  0  0  0  0
  -22.7727  -29.2443   19.8478 H   0  0  0  0  0  0
  -25.1298  -36.1886   25.0813 H   0  0  0  0  0  0
  -21.0003  -28.3287   24.1370 H   0  0  0  0  0  0
  -20.5655  -26.2316   23.3618 H   0  0  0  0  0  0
  -21.6649  -26.7421   22.1217 H   0  0  0  0  0  0
  -19.6917  -25.6283   21.1251 H   0  0  0  0  0  0
  -19.6700  -27.3171   20.6719 H   0  0  0  0  0  0
  -17.4206  -26.6669   21.4025 H   0  0  0  0  0  0
  -18.0349  -26.0079   22.9028 H   0  0  0  0  0  0
  -19.7944  -30.7282   24.2252 H   0  0  0  0  0  0
  -17.5021  -31.6267   24.5163 H   0  0  0  0  0  0
  -15.5359  -30.2977   23.7664 H   0  0  0  0  0  0
  -15.8682  -28.0813   22.7071 H   0  0  0  0  0  0
  -24.5877  -30.7125   25.7770 H   0  0  0  0  0  0
  -24.8936  -32.2945   26.4846 H   0  0  0  0  0  0
  -25.8022  -30.8940   27.0232 H   0  0  0  0  0  0
  -26.2934  -29.6722   24.1255 H   0  0  0  0  0  0
  -27.3963  -29.7242   25.4800 H   0  0  0  0  0  0
  -27.8846  -30.4205   23.9538 H   0  0  0  0  0  0
  -27.2659  -33.3625   26.2053 H   0  0  0  0  0  0
  -28.3880  -32.6868   25.0333 H   0  0  0  0  0  0
  -28.0715  -31.8461   26.5434 H   0  0  0  0  0  0
  -28.2576  -38.0104   24.7521 H   0  0  0  0  0  0
  -28.1098  -36.2635   24.6255 H   0  0  0  0  0  0
  -27.2313  -37.1401   25.8865 H   0  0  0  0  0  0
  -20.9406  -29.8774   21.6845 H   0  0  0  0  0  0
  -26.0157  -38.2825   24.1425 H   0  0  0  0  0  0
  -32.9104  -21.8340   18.6366 H   0  0  0  0  0  0
  -33.0731  -21.8473   16.8044 H   0  0  0  0  0  0
  -32.6491  -24.3297   16.7908 H   0  0  0  0  0  0
  -32.4851  -24.3091   18.6232 H   0  0  0  0  0  0
  -30.7111  -22.7167   16.6009 H   0  0  0  0  0  0
  -28.1215  -24.9071   21.7312 H   0  0  0  0  0  0
  -26.9598  -24.6303   20.4956 H   0  0  0  0  0  0
  -28.3917  -18.2587   19.8747 H   0  0  0  0  0  0
  -29.8760  -18.7425   19.1362 H   0  0  0  0  0  0
  -30.0153  -17.5551   21.9588 H   0  0  0  0  0  0
  -31.2410  -17.5135   20.7432 H   0  0  0  0  0  0
  -28.6461  -19.9496   21.5989 H   0  0  0  0  0  0
  -28.8235  -15.7022   20.8007 H   0  0  0  0  0  0
  1 25  1  0  0  0
  1 30  2  0  0  0
  1 84  1  0  0  0
  2  3  1  0  0  0
  2 25  1  0  0  0
  2 85  1  0  0  0
  2 86  1  0  0  0
  3  4  1  0  0  0
  3 87  1  0  0  0
  3 88  1  0  0  0
  4  5  1  0  0  0
  4 89  1  0  0  0
  4 90  1  0  0  0
  5  6  1  0  0  0
  5 26  1  0  0  0
  5 91  1  0  0  0
  6 25  1  0  0  0
  6 92  1  0  0  0
  6 93  1  0  0  0
  7  8  2  0  0  0
  7 26  1  0  0  0
  7 29  1  0  0  0
  8  9  1  0  0  0
  8 22  1  0  0  0
  9 10  1  0  0  0
  9 27  2  0  0  0
 10 11  2  0  0  0
 10 15  1  0  0  0
 11 12  1  0  0  0
 11 94  1  0  0  0
 12 13  2  0  0  0
 12 95  1  0  0  0
 13 14  1  0  0  0
 13 31  1  0  0  0
 14 15  2  0  0  0
 14 96  1  0  0  0
 15 97  1  0  0  0
 16 17  2  0  0  0
 16 21  1  0  0  0
 16 31  1  0  0  0
 17 18  1  0  0  0
 17 98  1  0  0  0
 18 19  2  0  0  0
 18 99  1  0  0  0
 19 20  1  0  0  0
 19 24  1  0  0  0
 20 21  2  0  0  0
 20100  1  0  0  0
 21 23  1  0  0  0
 22 28  1  0  0  0
 22 32  2  0  0  0
 26 27  1  0  0  0
 28101  1  0  0  0
 28102  1  0  0  0
 29103  1  0  0  0
 29104  1  0  0  0
 33 34  1  0  0  0
 33 66  1  0  0  0
 33 70  2  0  0  0
 34 36  1  0  0  0
 34 59  1  0  0  0
 34105  1  0  0  0
 35 44  2  0  0  0
 35 45  1  0  0  0
 35 68  1  0  0  0
 36 56  1  0  0  0
 36106  1  0  0  0
 37 39  1  0  0  0
 37 47  1  0  0  0
 37 66  1  0  0  0
 37107  1  0  0  0
 38 43  2  0  0  0
 38 46  1  0  0  0
 38 47  1  0  0  0
 39 64  1  0  0  0
 39 67  2  0  0  0
 40 52  1  0  0  0
 40 53  2  0  0  0
 40 58  1  0  0  0
 41108  1  0  0  0
 41109  1  0  0  0
 41110  1  0  0  0
 41 48  1  0  0  0
 42 43  1  0  0  0
 42 66  1  0  0  0
 42111  1  0  0  0
 42112  1  0  0  0
 43 44  1  0  0  0
 44113  1  0  0  0
 45 46  2  0  0  0
 45114  1  0  0  0
 46115  1  0  0  0
 47116  1  0  0  0
 47117  1  0  0  0
 48 56  1  0  0  0
 48 65  1  0  0  0
 48118  1  0  0  0
 49 50  1  0  0  0
 49 53  1  0  0  0
 49 64  1  0  0  0
 49119  1  0  0  0
 50 51  1  0  0  0
 50120  1  0  0  0
 50121  1  0  0  0
 51 52  1  0  0  0
 51122  1  0  0  0
 51123  1  0  0  0
 52124  1  0  0  0
 52125  1  0  0  0
 53 54  1  0  0  0
 54 55  2  0  0  0
 54126  1  0  0  0
 55 57  1  0  0  0
 55127  1  0  0  0
 56 69  2  0  0  0
 57 58  2  0  0  0
 57128  1  0  0  0
 58129  1  0  0  0
 59 60  1  0  0  0
 59 61  1  0  0  0
 59 62  1  0  0  0
 60130  1  0  0  0
 60131  1  0  0  0
 60132  1  0  0  0
 61133  1  0  0  0
 61134  1  0  0  0
 61135  1  0  0  0
 62136  1  0  0  0
 62137  1  0  0  0
 62138  1  0  0  0
 63 65  1  0  0  0
 63139  1  0  0  0
 63140  1  0  0  0
 63141  1  0  0  0
 64142  1  0  0  0
 65143  1  0  0  0
 68 77  1  0  0  0
 71 80  2  0  0  0
 71 81  1  0  0  0
 71 76  1  0  0  0
 72 77  1  0  0  0
 72 80  1  0  0  0
 72 82  2  0  0  0
 73 81  2  0  0  0
 73 82  1  0  0  0
 73 83  1  0  0  0
 74 75  1  0  0  0
 74 76  1  0  0  0
 74144  1  0  0  0
 74145  1  0  0  0
 75 76  1  0  0  0
 75146  1  0  0  0
 75147  1  0  0  0
 76148  1  0  0  0
 77149  1  0  0  0
 77150  1  0  0  0
 78 79  1  0  0  0
 78 83  1  0  0  0
 78151  1  0  0  0
 78152  1  0  0  0
 79 84  1  0  0  0
 79153  1  0  0  0
 79154  1  0  0  0
 83155  1  0  0  0
 84156  1  0  0  0
M  ISO  4   1 100  68 101  77 101  84 100
M  END
> <chiral flag>
0

> <version>
0

> <s_m_source_file>
/data/baiqing/PycharmProjects/Reinvent-master-3.2/result/LINK_invent/BTK/process_docking_weight1_custom_sum_contain_oxygen_bond_distance_aromatic_linkinvent_7_9_3/rearranged_h_0179.sdf

> <i_m_source_file_index>
56

> <r_mmod_Potential_Energy-OPLS-2005>
-642.860534667969

> <r_mmod_Stretch_Energy-OPLS-2005>
135.926971435547

> <r_mmod_Bend_Energy-OPLS-2005>
176.734725952148

> <r_mmod_Torsional_Energy-OPLS-2005>
226.238342285156

> <r_mmod_Improper_Torsional_Energy-OPLS-2005>
5.79809045791626

> <r_mmod_Van_der_Waal_Energy-OPLS-2005>
152.301620483398

> <r_mmod_Electrostatic_Energy-OPLS-2005>
-1191.01745605469

> <r_mmod_Solvation_Energy-OPLS-2005>
-254.791305541992

> <b_mmod_Minimization_Converged-OPLS-2005>
0

> <r_mmod_RMS_Derivative-OPLS-2005>
1.30186009407043

$$$$
56
                    3D
 Structure written by MMmdl.
157166  0  0  1  0            999 V2000
  -30.5440  -14.8525   20.4276 C   0  0  0  0  0  0
  -30.4271  -12.5183   19.4991 C   0  0  0  0  0  0
  -29.5198  -12.5468   18.2500 C   0  0  0  0  0  0
  -28.0437  -12.3482   18.6467 C   0  0  0  0  0  0
  -27.6298  -13.2438   19.8444 C   0  0  2  0  0  0
  -28.6668  -13.2150   20.9877 C   0  0  0  0  0  0
  -25.2421  -13.8186   20.5678 C   0  0  0  0  0  0
  -24.1741  -13.0402   20.9202 C   0  0  0  0  0  0
  -24.6352  -11.6894   20.8688 C   0  0  0  0  0  0
  -23.9032  -10.4275   21.0353 C   0  0  0  0  0  0
  -24.3579   -9.4205   21.9157 C   0  0  0  0  0  0
  -23.6276   -8.2220   22.0722 C   0  0  0  0  0  0
  -22.4248   -8.0248   21.3526 C   0  0  0  0  0  0
  -21.9878   -9.0210   20.4615 C   0  0  0  0  0  0
  -22.7191  -10.2099   20.3021 C   0  0  0  0  0  0
  -21.6858   -6.0694   22.5282 C   0  0  0  0  0  0
  -21.4022   -6.5604   23.8202 C   0  0  0  0  0  0
  -21.3677   -5.6764   24.9177 C   0  0  0  0  0  0
  -21.6061   -4.3030   24.7233 C   0  0  0  0  0  0
  -21.8806   -3.8117   23.4343 C   0  0  0  0  0  0
  -21.9198   -4.6928   22.3402 C   0  0  0  0  0  0
  -22.7773  -13.5187   21.1906 C   0  0  0  0  0  0
  -22.1657   -4.2112   21.0978 F   0  0  0  0  0  0
  -21.5638   -3.4532   25.7747 F   0  0  0  0  0  0
  -29.9639  -13.5953   20.4092 N   0  0  0  0  0  0
  -26.2850  -12.9414   20.3197 N   0  0  0  0  0  0
  -25.9282  -11.6539   20.5666 N   0  0  0  0  0  0
  -22.0415  -12.8178   22.0450 N   0  0  0  0  0  0
  -25.4096  -15.1906   20.4092 N   0  0  0  0  0  0
  -31.7353  -14.9604   20.1149 O   0  0  0  0  0  0
  -21.6622   -6.8841   21.4233 O   0  0  0  0  0  0
  -22.3474  -14.5537   20.6823 O   0  0  0  0  0  0
  -24.6404  -31.8479   23.1949 C   0  0  0  0  0  0
  -25.9206  -32.4717   23.8313 C   0  0  1  0  0  0
  -27.2102  -27.2043   20.1398 C   0  0  0  0  0  0
  -25.5993  -33.8511   24.2260 N   0  0  0  0  0  0
  -23.4401  -30.4714   21.5385 C   0  0  2  0  0  0
  -24.8872  -28.9109   20.1091 C   0  0  0  0  0  0
  -22.7563  -29.4562   22.4877 C   0  0  0  0  0  0
  -18.0308  -28.1384   22.8462 C   0  0  0  0  0  0
  -24.1493  -36.7240   23.2634 C   0  0  0  0  0  0
  -25.9910  -30.7449   21.3807 C   0  0  0  0  0  0
  -26.0631  -29.3611   20.7248 C   0  0  0  0  0  0
  -27.2315  -28.5220   20.7265 C   0  0  0  0  0  0
  -26.0186  -26.8428   19.4821 C   0  0  0  0  0  0
  -24.8730  -27.6615   19.4717 C   0  0  0  0  0  0
  -23.6634  -29.8070   20.1544 C   0  0  0  0  0  0
  -25.4116  -36.3039   24.0330 C   0  0  1  0  0  0
  -20.5921  -28.3688   23.1234 C   0  0  2  0  0  0
  -20.6786  -26.9393   22.5387 C   0  0  0  0  0  0
  -19.5768  -26.6377   21.5184 C   0  0  0  0  0  0
  -18.1945  -26.7920   22.1589 C   0  0  0  0  0  0
  -19.1564  -28.8858   23.2842 C   0  0  0  0  0  0
  -18.9480  -30.1456   23.8867 C   0  0  0  0  0  0
  -17.6477  -30.6576   24.0553 C   0  0  0  0  0  0
  -25.9069  -34.9418   23.5099 C   0  0  0  0  0  0
  -16.5368  -29.9059   23.6338 C   0  0  0  0  0  0
  -16.7292  -28.6484   23.0346 C   0  0  0  0  0  0
  -26.4550  -31.6535   25.0711 C   0  0  0  0  0  0
  -25.3777  -31.3658   26.1438 C   0  0  0  0  0  0
  -27.0375  -30.2955   24.6177 C   0  0  0  0  0  0
  -27.6135  -32.4236   25.7476 C   0  0  0  0  0  0
  -27.5577  -37.1779   24.8457 C   0  0  0  0  0  0
  -21.4258  -29.3021   22.3617 N   0  0  0  0  0  0
  -26.4277  -37.3761   23.9425 N   0  0  0  0  0  0
  -24.7107  -31.0407   22.0948 N   0  0  0  0  0  0
  -23.4241  -28.8100   23.2996 O   0  0  0  0  0  0
  -28.2456  -26.2251   20.1643 O   0  0  0  0  0  0
  -26.5624  -34.8897   22.4656 O   0  0  0  0  0  0
  -23.5547  -32.1319   23.7229 O   0  0  0  0  0  0
  -27.7115  -20.9922   19.8925 C   0  0  0  0  0  0
  -29.5736  -22.7585   20.8955 C   0  0  0  0  0  0
  -28.8800  -20.3543   20.4205 C   0  0  0  0  0  0
  -27.4409  -22.4121   19.9133 C   0  0  0  0  0  0
  -29.8244  -21.3236   20.8942 C   0  0  0  0  0  0
  -28.3587  -23.3800   20.4497 C   0  0  0  0  0  0
  -28.8006  -17.9604   19.3020 C   0  0  0  0  0  0
  -28.9185  -18.7328   20.5847 C   0  0  1  0  0  0
  -29.8979  -17.4589   20.2150 C   0  0  1  0  0  0
  -26.0794  -22.8624   19.4001 C   0  0  0  0  0  0
  -31.1309  -20.8191   21.4760 C   0  0  0  0  0  0
  -27.9148  -24.9049   20.8494 C   0  0  0  0  0  0
  -29.7138  -15.9752   20.5620 N   0  0  0  0  0  0
  -31.4731  -12.6467   19.2165 H   0  0  0  0  0  0
  -30.3605  -11.5489   19.9947 H   0  0  0  0  0  0
  -29.8300  -11.7869   17.5311 H   0  0  0  0  0  0
  -29.6286  -13.5082   17.7456 H   0  0  0  0  0  0
  -27.9044  -11.2984   18.9035 H   0  0  0  0  0  0
  -27.3972  -12.5434   17.7895 H   0  0  0  0  0  0
  -27.6090  -14.2588   19.4479 H   0  0  0  0  0  0
  -28.7198  -12.2264   21.4453 H   0  0  0  0  0  0
  -28.3782  -13.9073   21.7800 H   0  0  0  0  0  0
  -25.2688   -9.5735   22.4764 H   0  0  0  0  0  0
  -24.0009   -7.4607   22.7403 H   0  0  0  0  0  0
  -21.0839   -8.8703   19.8905 H   0  0  0  0  0  0
  -22.3605  -10.9636   19.6148 H   0  0  0  0  0  0
  -21.1995   -7.6104   23.9705 H   0  0  0  0  0  0
  -21.1541   -6.0489   25.9086 H   0  0  0  0  0  0
  -22.0582   -2.7583   23.2847 H   0  0  0  0  0  0
  -22.4010  -11.9819   22.4840 H   0  0  0  0  0  0
  -21.1025  -13.1205   22.2625 H   0  0  0  0  0  0
  -24.6266  -15.8322   20.4842 H   0  0  0  0  0  0
  -26.2442  -15.6309   20.0490 H   0  0  0  0  0  0
  -26.7266  -32.5359   23.1037 H   0  0  0  0  0  0
  -25.0224  -33.9630   25.0466 H   0  0  0  0  0  0
  -22.7403  -31.2970   21.3910 H   0  0  0  0  0  0
  -23.3785  -35.9536   23.3248 H   0  0  0  0  0  0
  -24.3610  -36.8906   22.2061 H   0  0  0  0  0  0
  -23.7194  -37.6403   23.6682 H   0  0  0  0  0  0
  -26.1313  -31.4989   20.6049 H   0  0  0  0  0  0
  -26.8697  -30.8029   22.0118 H   0  0  0  0  0  0
  -28.1292  -28.8574   21.2272 H   0  0  0  0  0  0
  -25.9607  -25.8824   18.9906 H   0  0  0  0  0  0
  -23.9777  -27.3155   18.9728 H   0  0  0  0  0  0
  -23.8008  -30.5840   19.4013 H   0  0  0  0  0  0
  -22.7790  -29.2476   19.8455 H   0  0  0  0  0  0
  -25.1286  -36.1872   25.0818 H   0  0  0  0  0  0
  -21.0025  -28.3265   24.1352 H   0  0  0  0  0  0
  -20.5643  -26.2296   23.3594 H   0  0  0  0  0  0
  -21.6656  -26.7380   22.1209 H   0  0  0  0  0  0
  -19.6915  -25.6280   21.1227 H   0  0  0  0  0  0
  -19.6719  -27.3175   20.6705 H   0  0  0  0  0  0
  -17.4215  -26.6680   21.3984 H   0  0  0  0  0  0
  -18.0337  -26.0065   22.8989 H   0  0  0  0  0  0
  -19.7967  -30.7278   24.2221 H   0  0  0  0  0  0
  -17.5033  -31.6259   24.5150 H   0  0  0  0  0  0
  -15.5355  -30.2946   23.7686 H   0  0  0  0  0  0
  -15.8694  -28.0797   22.7057 H   0  0  0  0  0  0
  -24.5995  -30.6950   25.7771 H   0  0  0  0  0  0
  -24.8910  -32.2798   26.4850 H   0  0  0  0  0  0
  -25.8125  -30.8865   27.0224 H   0  0  0  0  0  0
  -26.2933  -29.6702   24.1237 H   0  0  0  0  0  0
  -27.4103  -29.7210   25.4662 H   0  0  0  0  0  0
  -27.8809  -30.4224   23.9388 H   0  0  0  0  0  0
  -27.2824  -33.3585   26.2002 H   0  0  0  0  0  0
  -28.3993  -32.6682   25.0316 H   0  0  0  0  0  0
  -28.0757  -31.8363   26.5423 H   0  0  0  0  0  0
  -28.2556  -38.0112   24.7562 H   0  0  0  0  0  0
  -28.1111  -36.2647   24.6209 H   0  0  0  0  0  0
  -27.2319  -37.1361   25.8865 H   0  0  0  0  0  0
  -20.9460  -29.8749   21.6808 H   0  0  0  0  0  0
  -26.0140  -38.2818   24.1457 H   0  0  0  0  0  0
  -26.9375  -20.3423   19.5085 H   0  0  0  0  0  0
  -30.3200  -23.4059   21.3374 H   0  0  0  0  0  0
  -29.1214  -18.4483   18.3836 H   0  0  0  0  0  0
  -27.8981  -17.3615   19.1908 H   0  0  0  0  0  0
  -28.2039  -18.5020   21.3721 H   0  0  0  0  0  0
  -30.9203  -17.7557   19.9898 H   0  0  0  0  0  0
  -25.4692  -22.0148   19.0851 H   0  0  0  0  0  0
  -26.1948  -23.5204   18.5382 H   0  0  0  0  0  0
  -25.5090  -23.3861   20.1685 H   0  0  0  0  0  0
  -31.5817  -21.5558   22.1418 H   0  0  0  0  0  0
  -31.8410  -20.5964   20.6785 H   0  0  0  0  0  0
  -30.9810  -19.9060   22.0526 H   0  0  0  0  0  0
  -28.2996  -25.0421   21.8591 H   0  0  0  0  0  0
  -26.8421  -24.8841   21.0235 H   0  0  0  0  0  0
  -28.7654  -15.7269   20.7972 H   0  0  0  0  0  0
  1 25  1  0  0  0
  1 30  2  0  0  0
  1 83  1  0  0  0
  2  3  1  0  0  0
  2 25  1  0  0  0
  2 84  1  0  0  0
  2 85  1  0  0  0
  3  4  1  0  0  0
  3 86  1  0  0  0
  3 87  1  0  0  0
  4  5  1  0  0  0
  4 88  1  0  0  0
  4 89  1  0  0  0
  5  6  1  0  0  0
  5 26  1  0  0  0
  5 90  1  0  0  0
  6 25  1  0  0  0
  6 91  1  0  0  0
  6 92  1  0  0  0
  7  8  2  0  0  0
  7 26  1  0  0  0
  7 29  1  0  0  0
  8  9  1  0  0  0
  8 22  1  0  0  0
  9 10  1  0  0  0
  9 27  2  0  0  0
 10 11  2  0  0  0
 10 15  1  0  0  0
 11 12  1  0  0  0
 11 93  1  0  0  0
 12 13  2  0  0  0
 12 94  1  0  0  0
 13 14  1  0  0  0
 13 31  1  0  0  0
 14 15  2  0  0  0
 14 95  1  0  0  0
 15 96  1  0  0  0
 16 17  2  0  0  0
 16 21  1  0  0  0
 16 31  1  0  0  0
 17 18  1  0  0  0
 17 97  1  0  0  0
 18 19  2  0  0  0
 18 98  1  0  0  0
 19 20  1  0  0  0
 19 24  1  0  0  0
 20 21  2  0  0  0
 20 99  1  0  0  0
 21 23  1  0  0  0
 22 28  1  0  0  0
 22 32  2  0  0  0
 26 27  1  0  0  0
 28100  1  0  0  0
 28101  1  0  0  0
 29102  1  0  0  0
 29103  1  0  0  0
 33 34  1  0  0  0
 33 66  1  0  0  0
 33 70  2  0  0  0
 34 36  1  0  0  0
 34 59  1  0  0  0
 34104  1  0  0  0
 35 44  2  0  0  0
 35 45  1  0  0  0
 35 68  1  0  0  0
 36 56  1  0  0  0
 36105  1  0  0  0
 37 39  1  0  0  0
 37 47  1  0  0  0
 37 66  1  0  0  0
 37106  1  0  0  0
 38 43  2  0  0  0
 38 46  1  0  0  0
 38 47  1  0  0  0
 39 64  1  0  0  0
 39 67  2  0  0  0
 40 52  1  0  0  0
 40 53  2  0  0  0
 40 58  1  0  0  0
 41107  1  0  0  0
 41108  1  0  0  0
 41109  1  0  0  0
 41 48  1  0  0  0
 42 43  1  0  0  0
 42 66  1  0  0  0
 42110  1  0  0  0
 42111  1  0  0  0
 43 44  1  0  0  0
 44112  1  0  0  0
 45 46  2  0  0  0
 45113  1  0  0  0
 46114  1  0  0  0
 47115  1  0  0  0
 47116  1  0  0  0
 48 56  1  0  0  0
 48 65  1  0  0  0
 48117  1  0  0  0
 49 50  1  0  0  0
 49 53  1  0  0  0
 49 64  1  0  0  0
 49118  1  0  0  0
 50 51  1  0  0  0
 50119  1  0  0  0
 50120  1  0  0  0
 51 52  1  0  0  0
 51121  1  0  0  0
 51122  1  0  0  0
 52123  1  0  0  0
 52124  1  0  0  0
 53 54  1  0  0  0
 54 55  2  0  0  0
 54125  1  0  0  0
 55 57  1  0  0  0
 55126  1  0  0  0
 56 69  2  0  0  0
 57 58  2  0  0  0
 57127  1  0  0  0
 58128  1  0  0  0
 59 60  1  0  0  0
 59 61  1  0  0  0
 59 62  1  0  0  0
 60129  1  0  0  0
 60130  1  0  0  0
 60131  1  0  0  0
 61132  1  0  0  0
 61133  1  0  0  0
 61134  1  0  0  0
 62135  1  0  0  0
 62136  1  0  0  0
 62137  1  0  0  0
 63 65  1  0  0  0
 63138  1  0  0  0
 63139  1  0  0  0
 63140  1  0  0  0
 64141  1  0  0  0
 65142  1  0  0  0
 68 82  1  0  0  0
 71 73  2  0  0  0
 71 74  1  0  0  0
 71143  1  0  0  0
 72 75  2  0  0  0
 72 76  1  0  0  0
 72144  1  0  0  0
 73 75  1  0  0  0
 73 78  1  0  0  0
 74 76  2  0  0  0
 74 80  1  0  0  0
 75 81  1  0  0  0
 76 82  1  0  0  0
 77 78  1  0  0  0
 77 79  1  0  0  0
 77145  1  0  0  0
 77146  1  0  0  0
 78 79  1  0  0  0
 78147  1  0  0  0
 79 83  1  0  0  0
 79148  1  0  0  0
 80149  1  0  0  0
 80150  1  0  0  0
 80151  1  0  0  0
 81152  1  0  0  0
 81153  1  0  0  0
 81154  1  0  0  0
 82155  1  0  0  0
 82156  1  0  0  0
 83157  1  0  0  0
M  ISO  4   1 100  68 101  82 101  83 100
M  END
> <chiral flag>
0

> <version>
0

> <s_m_source_file>
/data/baiqing/PycharmProjects/Reinvent-master-3.2/result/LINK_invent/BTK/process_docking_weight1_custom_sum_contain_oxygen_bond_distance_aromatic_linkinvent_7_9_3/rearranged_h_0179.sdf

> <i_m_source_file_index>
57

> <r_mmod_Potential_Energy-OPLS-2005>
416.803802490234

> <r_mmod_Stretch_Energy-OPLS-2005>
181.088912963867

> <r_mmod_Bend_Energy-OPLS-2005>
227.275604248047

> <r_mmod_Torsional_Energy-OPLS-2005>
302.086944580078

> <r_mmod_Improper_Torsional_Energy-OPLS-2005>
9.79183483123779

> <r_mmod_Van_der_Waal_Energy-OPLS-2005>
130.667861938477

> <r_mmod_Electrostatic_Energy-OPLS-2005>
-363.145782470703

> <r_mmod_Solvation_Energy-OPLS-2005>
-209.658020019531

> <b_mmod_Minimization_Converged-OPLS-2005>
0

> <r_mmod_RMS_Derivative-OPLS-2005>
4.11607694625854

$$$$
57
                    3D
 Structure written by MMmdl.
155164  0  0  1  0            999 V2000
  -30.4589  -15.2272   20.3785 C   0  0  0  0  0  0
  -30.4363  -12.7834   19.5198 C   0  0  0  0  0  0
  -29.5314  -12.5670   18.2816 C   0  0  0  0  0  0
  -28.0788  -12.2986   18.7111 C   0  0  0  0  0  0
  -27.6118  -13.2716   19.8228 C   0  0  2  0  0  0
  -28.6474  -13.4349   20.9553 C   0  0  0  0  0  0
  -25.2391  -13.8237   20.5749 C   0  0  0  0  0  0
  -24.1741  -13.0432   20.9266 C   0  0  0  0  0  0
  -24.6392  -11.6928   20.8767 C   0  0  0  0  0  0
  -23.9084  -10.4291   21.0409 C   0  0  0  0  0  0
  -24.3630   -9.4205   21.9186 C   0  0  0  0  0  0
  -23.6303   -8.2241   22.0756 C   0  0  0  0  0  0
  -22.4283   -8.0282   21.3548 C   0  0  0  0  0  0
  -21.9924   -9.0253   20.4648 C   0  0  0  0  0  0
  -22.7255  -10.2130   20.3058 C   0  0  0  0  0  0
  -21.6853   -6.0739   22.5280 C   0  0  0  0  0  0
  -21.4014   -6.5644   23.8213 C   0  0  0  0  0  0
  -21.3660   -5.6796   24.9174 C   0  0  0  0  0  0
  -21.6041   -4.3058   24.7225 C   0  0  0  0  0  0
  -21.8818   -3.8150   23.4346 C   0  0  0  0  0  0
  -21.9193   -4.6968   22.3404 C   0  0  0  0  0  0
  -22.7761  -13.5188   21.1908 C   0  0  0  0  0  0
  -22.1662   -4.2153   21.0982 F   0  0  0  0  0  0
  -21.5626   -3.4541   25.7738 F   0  0  0  0  0  0
  -29.8816  -13.9302   20.3262 N   0  0  0  0  0  0
  -26.2815  -12.9508   20.3221 N   0  0  0  0  0  0
  -25.9327  -11.6616   20.5724 N   0  0  0  0  0  0
  -22.0421  -12.8170   22.0463 N   0  0  0  0  0  0
  -25.4019  -15.1970   20.4181 N   0  0  0  0  0  0
  -31.6815  -15.2210   20.1813 O   0  0  0  0  0  0
  -21.6644   -6.8879   21.4242 O   0  0  0  0  0  0
  -22.3443  -14.5491   20.6750 O   0  0  0  0  0  0
  -24.6620  -31.8258   23.1725 C   0  0  0  0  0  0
  -25.9308  -32.4598   23.8175 C   0  0  1  0  0  0
  -27.2137  -26.9466   20.1774 C   0  0  0  0  0  0
  -25.5981  -33.8412   24.2079 N   0  0  0  0  0  0
  -23.4751  -30.4406   21.5219 C   0  0  2  0  0  0
  -24.9272  -28.8352   20.1105 C   0  0  0  0  0  0
  -22.7662  -29.4457   22.4780 C   0  0  0  0  0  0
  -18.0325  -28.1414   22.8480 C   0  0  0  0  0  0
  -24.1492  -36.7209   23.2646 C   0  0  0  0  0  0
  -26.0443  -30.6379   21.4009 C   0  0  0  0  0  0
  -26.1116  -29.2306   20.7443 C   0  0  0  0  0  0
  -27.2502  -28.3076   20.7560 C   0  0  0  0  0  0
  -26.0003  -26.7056   19.4908 C   0  0  0  0  0  0
  -24.8966  -27.5920   19.4632 C   0  0  0  0  0  0
  -23.7133  -29.7611   20.1461 C   0  0  0  0  0  0
  -25.4131  -36.2971   24.0303 C   0  0  1  0  0  0
  -20.5953  -28.3755   23.1196 C   0  0  2  0  0  0
  -20.6807  -26.9440   22.5406 C   0  0  0  0  0  0
  -19.5776  -26.6385   21.5226 C   0  0  0  0  0  0
  -18.1957  -26.7950   22.1628 C   0  0  0  0  0  0
  -19.1588  -28.8905   23.2827 C   0  0  0  0  0  0
  -18.9496  -30.1495   23.8859 C   0  0  0  0  0  0
  -17.6492  -30.6605   24.0564 C   0  0  0  0  0  0
  -25.9100  -34.9358   23.5010 C   0  0  0  0  0  0
  -16.5381  -29.9097   23.6349 C   0  0  0  0  0  0
  -16.7309  -28.6517   23.0369 C   0  0  0  0  0  0
  -26.4557  -31.6543   25.0701 C   0  0  0  0  0  0
  -25.3685  -31.3802   26.1361 C   0  0  0  0  0  0
  -27.0442  -30.2908   24.6428 C   0  0  0  0  0  0
  -27.6044  -32.4356   25.7502 C   0  0  0  0  0  0
  -27.5565  -37.1762   24.8467 C   0  0  0  0  0  0
  -21.4335  -29.3047   22.3535 N   0  0  0  0  0  0
  -26.4271  -37.3713   23.9415 N   0  0  0  0  0  0
  -24.7487  -30.9940   22.0854 N   0  0  0  0  0  0
  -23.4222  -28.8024   23.3013 O   0  0  0  0  0  0
  -28.1944  -25.8262   20.2626 O   0  0  0  0  0  0
  -26.5705  -34.8895   22.4602 O   0  0  0  0  0  0
  -23.5697  -32.1209   23.6838 O   0  0  0  0  0  0
  -28.5003  -22.6627   20.2610 C   0  0  0  0  0  0
  -27.7531  -21.4553   20.6427 C   0  0  0  0  0  0
  -29.7927  -22.1224   19.8916 C   0  0  0  0  0  0
  -29.4395  -19.6804   20.3125 C   0  0  0  0  0  0
  -25.2549  -20.6729   20.4032 C   0  0  0  0  0  0
  -25.2747  -22.1378   20.0713 C   0  0  0  0  0  0
  -26.3051  -21.5716   21.0303 C   0  0  0  0  0  0
  -30.8519  -23.0673   19.3654 C   0  0  0  0  0  0
  -27.7908  -24.2559   20.0512 C   0  0  0  0  0  0
  -30.1581  -18.0939   20.4476 C   0  0  0  0  0  0
  -28.2010  -20.1019   20.6964 N   0  0  0  0  0  0
  -30.2010  -20.7608   19.9315 N   0  0  0  0  0  0
  -29.7185  -16.5013   20.4502 N   0  0  0  0  0  0
  -31.4574  -12.9795   19.1898 H   0  0  0  0  0  0
  -30.4932  -11.8749   20.1215 H   0  0  0  0  0  0
  -29.9042  -11.7389   17.6774 H   0  0  0  0  0  0
  -29.5672  -13.4528   17.6455 H   0  0  0  0  0  0
  -28.0310  -11.2737   19.0805 H   0  0  0  0  0  0
  -27.4084  -12.3450   17.8517 H   0  0  0  0  0  0
  -27.5302  -14.2411   19.3302 H   0  0  0  0  0  0
  -28.8088  -12.4972   21.4892 H   0  0  0  0  0  0
  -28.2940  -14.1573   21.6925 H   0  0  0  0  0  0
  -25.2769   -9.5684   22.4769 H   0  0  0  0  0  0
  -24.0009   -7.4631   22.7476 H   0  0  0  0  0  0
  -21.0855   -8.8769   19.8953 H   0  0  0  0  0  0
  -22.3706  -10.9670   19.6172 H   0  0  0  0  0  0
  -21.2008   -7.6153   23.9716 H   0  0  0  0  0  0
  -21.1481   -6.0528   25.9076 H   0  0  0  0  0  0
  -22.0595   -2.7613   23.2844 H   0  0  0  0  0  0
  -22.4052  -11.9837   22.4850 H   0  0  0  0  0  0
  -21.1032  -13.1175   22.2665 H   0  0  0  0  0  0
  -24.6296  -15.8446   20.5296 H   0  0  0  0  0  0
  -26.2395  -15.6390   20.0639 H   0  0  0  0  0  0
  -26.7377  -32.5139   23.0889 H   0  0  0  0  0  0
  -25.0094  -33.9490   25.0208 H   0  0  0  0  0  0
  -22.7881  -31.2730   21.3543 H   0  0  0  0  0  0
  -23.3763  -35.9528   23.3282 H   0  0  0  0  0  0
  -24.3573  -36.8881   22.2066 H   0  0  0  0  0  0
  -23.7240  -37.6387   23.6718 H   0  0  0  0  0  0
  -26.2242  -31.3788   20.6206 H   0  0  0  0  0  0
  -26.9057  -30.6918   22.0548 H   0  0  0  0  0  0
  -28.1436  -28.6075   21.2855 H   0  0  0  0  0  0
  -25.8580  -25.7604   18.9899 H   0  0  0  0  0  0
  -23.9981  -27.2838   18.9463 H   0  0  0  0  0  0
  -23.8688  -30.5317   19.3902 H   0  0  0  0  0  0
  -22.8220  -29.2178   19.8276 H   0  0  0  0  0  0
  -25.1331  -36.1757   25.0794 H   0  0  0  0  0  0
  -21.0051  -28.3362   24.1318 H   0  0  0  0  0  0
  -20.5697  -26.2377   23.3647 H   0  0  0  0  0  0
  -21.6668  -26.7428   22.1198 H   0  0  0  0  0  0
  -19.6934  -25.6283   21.1281 H   0  0  0  0  0  0
  -19.6707  -27.3173   20.6738 H   0  0  0  0  0  0
  -17.4226  -26.6708   21.4028 H   0  0  0  0  0  0
  -18.0336  -26.0099   22.9031 H   0  0  0  0  0  0
  -19.7969  -30.7328   24.2201 H   0  0  0  0  0  0
  -17.5044  -31.6280   24.5173 H   0  0  0  0  0  0
  -15.5378  -30.2989   23.7698 H   0  0  0  0  0  0
  -15.8711  -28.0826   22.7105 H   0  0  0  0  0  0
  -24.5883  -30.7131   25.7684 H   0  0  0  0  0  0
  -24.8848  -32.3001   26.4654 H   0  0  0  0  0  0
  -25.7919  -30.9066   27.0227 H   0  0  0  0  0  0
  -26.3100  -29.6594   24.1410 H   0  0  0  0  0  0
  -27.3952  -29.7266   25.5076 H   0  0  0  0  0  0
  -27.9060  -30.4093   23.9856 H   0  0  0  0  0  0
  -27.2599  -33.3704   26.1938 H   0  0  0  0  0  0
  -28.3925  -32.6841   25.0383 H   0  0  0  0  0  0
  -28.0632  -31.8573   26.5529 H   0  0  0  0  0  0
  -28.2568  -38.0072   24.7514 H   0  0  0  0  0  0
  -28.1071  -36.2598   24.6286 H   0  0  0  0  0  0
  -27.2285  -37.1403   25.8870 H   0  0  0  0  0  0
  -20.9579  -29.8742   21.6673 H   0  0  0  0  0  0
  -26.0111  -38.2767   24.1428 H   0  0  0  0  0  0
  -25.5718  -19.9838   19.6227 H   0  0  0  0  0  0
  -24.4438  -20.3215   21.0371 H   0  0  0  0  0  0
  -24.4780  -22.7491   20.4898 H   0  0  0  0  0  0
  -25.6068  -22.4175   19.0736 H   0  0  0  0  0  0
  -26.2010  -21.8192   22.0847 H   0  0  0  0  0  0
  -30.6294  -24.0995   19.6353 H   0  0  0  0  0  0
  -30.9095  -23.0041   18.2793 H   0  0  0  0  0  0
  -31.8308  -22.8193   19.7756 H   0  0  0  0  0  0
  -26.8732  -24.1957   20.6331 H   0  0  0  0  0  0
  -27.4647  -24.2186   19.0120 H   0  0  0  0  0  0
  -30.7333  -18.1809   21.3690 H   0  0  0  0  0  0
  -30.9217  -18.1192   19.6705 H   0  0  0  0  0  0
  -28.7212  -16.3831   20.5406 H   0  0  0  0  0  0
  1 25  1  0  0  0
  1 30  2  0  0  0
  1 83  1  0  0  0
  2  3  1  0  0  0
  2 25  1  0  0  0
  2 84  1  0  0  0
  2 85  1  0  0  0
  3  4  1  0  0  0
  3 86  1  0  0  0
  3 87  1  0  0  0
  4  5  1  0  0  0
  4 88  1  0  0  0
  4 89  1  0  0  0
  5  6  1  0  0  0
  5 26  1  0  0  0
  5 90  1  0  0  0
  6 25  1  0  0  0
  6 91  1  0  0  0
  6 92  1  0  0  0
  7  8  2  0  0  0
  7 26  1  0  0  0
  7 29  1  0  0  0
  8  9  1  0  0  0
  8 22  1  0  0  0
  9 10  1  0  0  0
  9 27  2  0  0  0
 10 11  2  0  0  0
 10 15  1  0  0  0
 11 12  1  0  0  0
 11 93  1  0  0  0
 12 13  2  0  0  0
 12 94  1  0  0  0
 13 14  1  0  0  0
 13 31  1  0  0  0
 14 15  2  0  0  0
 14 95  1  0  0  0
 15 96  1  0  0  0
 16 17  2  0  0  0
 16 21  1  0  0  0
 16 31  1  0  0  0
 17 18  1  0  0  0
 17 97  1  0  0  0
 18 19  2  0  0  0
 18 98  1  0  0  0
 19 20  1  0  0  0
 19 24  1  0  0  0
 20 21  2  0  0  0
 20 99  1  0  0  0
 21 23  1  0  0  0
 22 28  1  0  0  0
 22 32  2  0  0  0
 26 27  1  0  0  0
 28100  1  0  0  0
 28101  1  0  0  0
 29102  1  0  0  0
 29103  1  0  0  0
 33 34  1  0  0  0
 33 66  1  0  0  0
 33 70  2  0  0  0
 34 36  1  0  0  0
 34 59  1  0  0  0
 34104  1  0  0  0
 35 44  2  0  0  0
 35 45  1  0  0  0
 35 68  1  0  0  0
 36 56  1  0  0  0
 36105  1  0  0  0
 37 39  1  0  0  0
 37 47  1  0  0  0
 37 66  1  0  0  0
 37106  1  0  0  0
 38 43  2  0  0  0
 38 46  1  0  0  0
 38 47  1  0  0  0
 39 64  1  0  0  0
 39 67  2  0  0  0
 40 52  1  0  0  0
 40 53  2  0  0  0
 40 58  1  0  0  0
 41107  1  0  0  0
 41108  1  0  0  0
 41109  1  0  0  0
 41 48  1  0  0  0
 42 43  1  0  0  0
 42 66  1  0  0  0
 42110  1  0  0  0
 42111  1  0  0  0
 43 44  1  0  0  0
 44112  1  0  0  0
 45 46  2  0  0  0
 45113  1  0  0  0
 46114  1  0  0  0
 47115  1  0  0  0
 47116  1  0  0  0
 48 56  1  0  0  0
 48 65  1  0  0  0
 48117  1  0  0  0
 49 50  1  0  0  0
 49 53  1  0  0  0
 49 64  1  0  0  0
 49118  1  0  0  0
 50 51  1  0  0  0
 50119  1  0  0  0
 50120  1  0  0  0
 51 52  1  0  0  0
 51121  1  0  0  0
 51122  1  0  0  0
 52123  1  0  0  0
 52124  1  0  0  0
 53 54  1  0  0  0
 54 55  2  0  0  0
 54125  1  0  0  0
 55 57  1  0  0  0
 55126  1  0  0  0
 56 69  2  0  0  0
 57 58  2  0  0  0
 57127  1  0  0  0
 58128  1  0  0  0
 59 60  1  0  0  0
 59 61  1  0  0  0
 59 62  1  0  0  0
 60129  1  0  0  0
 60130  1  0  0  0
 60131  1  0  0  0
 61132  1  0  0  0
 61133  1  0  0  0
 61134  1  0  0  0
 62135  1  0  0  0
 62136  1  0  0  0
 62137  1  0  0  0
 63 65  1  0  0  0
 63138  1  0  0  0
 63139  1  0  0  0
 63140  1  0  0  0
 64141  1  0  0  0
 65142  1  0  0  0
 68 79  1  0  0  0
 71 72  1  0  0  0
 71 73  2  0  0  0
 71 79  1  0  0  0
 72 81  2  0  0  0
 72 77  1  0  0  0
 73 78  1  0  0  0
 73 82  1  0  0  0
 74 80  1  0  0  0
 74 81  1  0  0  0
 74 82  2  0  0  0
 75 76  1  0  0  0
 75 77  1  0  0  0
 75143  1  0  0  0
 75144  1  0  0  0
 76 77  1  0  0  0
 76145  1  0  0  0
 76146  1  0  0  0
 77147  1  0  0  0
 78148  1  0  0  0
 78149  1  0  0  0
 78150  1  0  0  0
 79151  1  0  0  0
 79152  1  0  0  0
 80 83  1  0  0  0
 80153  1  0  0  0
 80154  1  0  0  0
 83155  1  0  0  0
M  ISO  4   1 100  68 101  79 101  83 100
M  END
> <chiral flag>
0

> <version>
0

> <s_m_source_file>
/data/baiqing/PycharmProjects/Reinvent-master-3.2/result/LINK_invent/BTK/process_docking_weight1_custom_sum_contain_oxygen_bond_distance_aromatic_linkinvent_7_9_3/rearranged_h_0179.sdf

> <i_m_source_file_index>
58

> <r_mmod_Potential_Energy-OPLS-2005>
624.794128417969

> <r_mmod_Stretch_Energy-OPLS-2005>
481.003662109375

> <r_mmod_Bend_Energy-OPLS-2005>
457.370056152344

> <r_mmod_Torsional_Energy-OPLS-2005>
237.637435913086

> <r_mmod_Improper_Torsional_Energy-OPLS-2005>
6.39198160171509

> <r_mmod_Van_der_Waal_Energy-OPLS-2005>
133.752990722656

> <r_mmod_Electrostatic_Energy-OPLS-2005>
-878.496398925781

> <r_mmod_Solvation_Energy-OPLS-2005>
-241.877685546875

> <b_mmod_Minimization_Converged-OPLS-2005>
0

> <r_mmod_RMS_Derivative-OPLS-2005>
0.894899606704712

$$$$
58
                    3D
 Structure written by MMmdl.
147155  0  0  1  0            999 V2000
  -30.2860  -15.8463   20.3475 C   0  0  0  0  0  0
  -30.3922  -13.2489   19.5528 C   0  0  0  0  0  0
  -29.5486  -12.7275   18.3495 C   0  0  0  0  0  0
  -28.1498  -12.3092   18.8106 C   0  0  0  0  0  0
  -27.5854  -13.3373   19.8127 C   0  0  2  0  0  0
  -28.5816  -13.7877   20.9178 C   0  0  0  0  0  0
  -25.2287  -13.8345   20.5853 C   0  0  0  0  0  0
  -24.1694  -13.0440   20.9298 C   0  0  0  0  0  0
  -24.6446  -11.6963   20.8739 C   0  0  0  0  0  0
  -23.9150  -10.4279   21.0369 C   0  0  0  0  0  0
  -24.3674   -9.4206   21.9178 C   0  0  0  0  0  0
  -23.6347   -8.2245   22.0735 C   0  0  0  0  0  0
  -22.4320   -8.0287   21.3542 C   0  0  0  0  0  0
  -21.9963   -9.0251   20.4632 C   0  0  0  0  0  0
  -22.7299  -10.2138   20.3047 C   0  0  0  0  0  0
  -21.6865   -6.0752   22.5285 C   0  0  0  0  0  0
  -21.4015   -6.5662   23.8210 C   0  0  0  0  0  0
  -21.3660   -5.6822   24.9176 C   0  0  0  0  0  0
  -21.6043   -4.3078   24.7238 C   0  0  0  0  0  0
  -21.8818   -3.8163   23.4349 C   0  0  0  0  0  0
  -21.9190   -4.6973   22.3405 C   0  0  0  0  0  0
  -22.7707  -13.5120   21.1948 C   0  0  0  0  0  0
  -22.1665   -4.2145   21.0992 F   0  0  0  0  0  0
  -21.5613   -3.4574   25.7754 F   0  0  0  0  0  0
  -29.7207  -14.4708   20.2397 N   0  0  0  0  0  0
  -26.2755  -12.9725   20.3286 N   0  0  0  0  0  0
  -25.9399  -11.6756   20.5692 N   0  0  0  0  0  0
  -22.0424  -12.8067   22.0528 N   0  0  0  0  0  0
  -25.3891  -15.2096   20.4360 N   0  0  0  0  0  0
  -31.5190  -15.6564   20.2364 O   0  0  0  0  0  0
  -21.6670   -6.8899   21.4248 O   0  0  0  0  0  0
  -22.3348  -14.5402   20.6783 O   0  0  0  0  0  0
  -24.6976  -31.7843   23.1349 C   0  0  0  0  0  0
  -25.9464  -32.4414   23.7996 C   0  0  1  0  0  0
  -27.2443  -26.5455   20.2434 C   0  0  0  0  0  0
  -25.5952  -33.8251   24.1850 N   0  0  0  0  0  0
  -23.5338  -30.3711   21.4963 C   0  0  2  0  0  0
  -24.9954  -28.6769   20.1285 C   0  0  0  0  0  0
  -22.7836  -29.4229   22.4698 C   0  0  0  0  0  0
  -18.0365  -28.1409   22.8453 C   0  0  0  0  0  0
  -24.1466  -36.7108   23.2660 C   0  0  0  0  0  0
  -26.1205  -30.4671   21.4228 C   0  0  0  0  0  0
  -26.1872  -29.0112   20.7796 C   0  0  0  0  0  0
  -27.2898  -27.9782   20.7966 C   0  0  0  0  0  0
  -26.0137  -26.4585   19.5327 C   0  0  0  0  0  0
  -24.9563  -27.4269   19.4815 C   0  0  0  0  0  0
  -23.7924  -29.6430   20.1437 C   0  0  0  0  0  0
  -25.4137  -36.2864   24.0264 C   0  0  1  0  0  0
  -20.5991  -28.3802   23.1117 C   0  0  2  0  0  0
  -20.6834  -26.9436   22.5426 C   0  0  0  0  0  0
  -19.5837  -26.6367   21.5214 C   0  0  0  0  0  0
  -18.2016  -26.7920   22.1618 C   0  0  0  0  0  0
  -19.1612  -28.8945   23.2755 C   0  0  0  0  0  0
  -18.9494  -30.1555   23.8752 C   0  0  0  0  0  0
  -17.6464  -30.6617   24.0483 C   0  0  0  0  0  0
  -25.9123  -34.9270   23.4911 C   0  0  0  0  0  0
  -16.5380  -29.9030   23.6343 C   0  0  0  0  0  0
  -16.7344  -28.6463   23.0366 C   0  0  0  0  0  0
  -26.4570  -31.6537   25.0694 C   0  0  0  0  0  0
  -25.3553  -31.3934   26.1236 C   0  0  0  0  0  0
  -27.0521  -30.2858   24.6732 C   0  0  0  0  0  0
  -27.5973  -32.4449   25.7518 C   0  0  0  0  0  0
  -27.5548  -37.1704   24.8476 C   0  0  0  0  0  0
  -21.4483  -29.2996   22.3412 N   0  0  0  0  0  0
  -26.4258  -37.3640   23.9401 N   0  0  0  0  0  0
  -24.8100  -30.9112   22.0699 N   0  0  0  0  0  0
  -23.4198  -28.7897   23.3147 O   0  0  0  0  0  0
  -28.1928  -25.2602   20.3254 O   0  0  0  0  0  0
  -26.5831  -34.8881   22.4569 O   0  0  0  0  0  0
  -23.5951  -32.0998   23.6177 O   0  0  0  0  0  0
  -28.1643  -20.0018   20.9716 C   0  0  0  0  0  0
  -30.0323  -20.4752   19.8091 C   0  0  0  0  0  0
  -28.3859  -18.2643   20.5337 C   0  0  0  0  0  0
  -30.5081  -18.7896   20.2521 C   0  0  0  0  0  0
  -28.6848  -21.4743   20.2260 C   0  0  0  0  0  0
  -28.0289  -23.4337   20.1623 C   0  0  0  0  0  0
  -29.7238  -17.3730   20.3472 N   0  0  0  0  0  0
  -31.3796  -13.5125   19.1740 H   0  0  0  0  0  0
  -30.5806  -12.4433   20.2645 H   0  0  0  0  0  0
  -30.0521  -11.8966   17.8546 H   0  0  0  0  0  0
  -29.4605  -13.5235   17.6095 H   0  0  0  0  0  0
  -28.2349  -11.3383   19.3026 H   0  0  0  0  0  0
  -27.4795  -12.1742   17.9593 H   0  0  0  0  0  0
  -27.4138  -14.2194   19.1946 H   0  0  0  0  0  0
  -28.0946  -14.5125   21.5716 H   0  0  0  0  0  0
  -28.8898  -12.9596   21.5599 H   0  0  0  0  0  0
  -25.2799   -9.5677   22.4780 H   0  0  0  0  0  0
  -24.0045   -7.4623   22.7453 H   0  0  0  0  0  0
  -21.0882   -8.8783   19.8927 H   0  0  0  0  0  0
  -22.3749  -10.9694   19.6170 H   0  0  0  0  0  0
  -21.2033   -7.6174   23.9719 H   0  0  0  0  0  0
  -21.1475   -6.0551   25.9083 H   0  0  0  0  0  0
  -22.0595   -2.7626   23.2860 H   0  0  0  0  0  0
  -22.4116  -11.9719   22.4848 H   0  0  0  0  0  0
  -21.1009  -13.0968   22.2749 H   0  0  0  0  0  0
  -24.6207  -15.8611   20.5433 H   0  0  0  0  0  0
  -26.2481  -15.6558   20.1405 H   0  0  0  0  0  0
  -26.7585  -32.4848   23.0753 H   0  0  0  0  0  0
  -24.9902  -33.9284   24.9866 H   0  0  0  0  0  0
  -22.8680  -31.2096   21.2880 H   0  0  0  0  0  0
  -23.3772  -35.9394   23.3282 H   0  0  0  0  0  0
  -24.3517  -36.8822   22.2082 H   0  0  0  0  0  0
  -23.7193  -37.6248   23.6791 H   0  0  0  0  0  0
  -26.3373  -31.1828   20.6281 H   0  0  0  0  0  0
  -26.9671  -30.5424   22.0954 H   0  0  0  0  0  0
  -28.1863  -28.2501   21.3352 H   0  0  0  0  0  0
  -25.8186  -25.5197   19.0326 H   0  0  0  0  0  0
  -24.0551  -27.1526   18.9513 H   0  0  0  0  0  0
  -23.9598  -30.3866   19.3650 H   0  0  0  0  0  0
  -22.8962  -29.0998   19.8355 H   0  0  0  0  0  0
  -25.1363  -36.1604   25.0761 H   0  0  0  0  0  0
  -21.0057  -28.3460   24.1257 H   0  0  0  0  0  0
  -20.5636  -26.2396   23.3686 H   0  0  0  0  0  0
  -21.6735  -26.7359   22.1351 H   0  0  0  0  0  0
  -19.6982  -25.6269   21.1240 H   0  0  0  0  0  0
  -19.6789  -27.3170   20.6740 H   0  0  0  0  0  0
  -17.4287  -26.6643   21.4045 H   0  0  0  0  0  0
  -18.0472  -26.0080   22.9024 H   0  0  0  0  0  0
  -19.7943  -30.7465   24.2022 H   0  0  0  0  0  0
  -17.4971  -31.6310   24.5028 H   0  0  0  0  0  0
  -15.5361  -30.2889   23.7687 H   0  0  0  0  0  0
  -15.8772  -28.0695   22.7147 H   0  0  0  0  0  0
  -24.5757  -30.7281   25.7514 H   0  0  0  0  0  0
  -24.8691  -32.3174   26.4370 H   0  0  0  0  0  0
  -25.7620  -30.9264   27.0211 H   0  0  0  0  0  0
  -26.3271  -29.6417   24.1746 H   0  0  0  0  0  0
  -27.3891  -29.7403   25.5560 H   0  0  0  0  0  0
  -27.9274  -30.3945   24.0327 H   0  0  0  0  0  0
  -27.2491  -33.3846   26.1835 H   0  0  0  0  0  0
  -28.3917  -32.6885   25.0446 H   0  0  0  0  0  0
  -28.0508  -31.8763   26.5643 H   0  0  0  0  0  0
  -28.2555  -38.0006   24.7498 H   0  0  0  0  0  0
  -28.1046  -36.2526   24.6337 H   0  0  0  0  0  0
  -27.2248  -37.1381   25.8876 H   0  0  0  0  0  0
  -20.9883  -29.8495   21.6272 H   0  0  0  0  0  0
  -26.0066  -38.2675   24.1440 H   0  0  0  0  0  0
  -28.5104  -20.0797   22.0063 H   0  0  0  0  0  0
  -27.0848  -20.1212   21.0749 H   0  0  0  0  0  0
  -30.0648  -20.4906   18.7187 H   0  0  0  0  0  0
  -30.9073  -21.0700   20.0839 H   0  0  0  0  0  0
  -27.8274  -18.1222   19.6065 H   0  0  0  0  0  0
  -27.8075  -17.7073   21.2737 H   0  0  0  0  0  0
  -30.9456  -18.8837   21.2488 H   0  0  0  0  0  0
  -31.3724  -18.5614   19.6268 H   0  0  0  0  0  0
  -28.1284  -21.3010   19.3029 H   0  0  0  0  0  0
  -27.1236  -23.3290   20.7610 H   0  0  0  0  0  0
  -27.6524  -23.4493   19.1389 H   0  0  0  0  0  0
  1 25  1  0  0  0
  1 30  2  0  0  0
  1 77  1  0  0  0
  2  3  1  0  0  0
  2 25  1  0  0  0
  2 78  1  0  0  0
  2 79  1  0  0  0
  3  4  1  0  0  0
  3 80  1  0  0  0
  3 81  1  0  0  0
  4  5  1  0  0  0
  4 82  1  0  0  0
  4 83  1  0  0  0
  5  6  1  0  0  0
  5 26  1  0  0  0
  5 84  1  0  0  0
  6 25  1  0  0  0
  6 85  1  0  0  0
  6 86  1  0  0  0
  7  8  2  0  0  0
  7 26  1  0  0  0
  7 29  1  0  0  0
  8  9  1  0  0  0
  8 22  1  0  0  0
  9 10  1  0  0  0
  9 27  2  0  0  0
 10 11  2  0  0  0
 10 15  1  0  0  0
 11 12  1  0  0  0
 11 87  1  0  0  0
 12 13  2  0  0  0
 12 88  1  0  0  0
 13 14  1  0  0  0
 13 31  1  0  0  0
 14 15  2  0  0  0
 14 89  1  0  0  0
 15 90  1  0  0  0
 16 17  2  0  0  0
 16 21  1  0  0  0
 16 31  1  0  0  0
 17 18  1  0  0  0
 17 91  1  0  0  0
 18 19  2  0  0  0
 18 92  1  0  0  0
 19 20  1  0  0  0
 19 24  1  0  0  0
 20 21  2  0  0  0
 20 93  1  0  0  0
 21 23  1  0  0  0
 22 28  1  0  0  0
 22 32  2  0  0  0
 26 27  1  0  0  0
 28 94  1  0  0  0
 28 95  1  0  0  0
 29 96  1  0  0  0
 29 97  1  0  0  0
 33 34  1  0  0  0
 33 66  1  0  0  0
 33 70  2  0  0  0
 34 36  1  0  0  0
 34 59  1  0  0  0
 34 98  1  0  0  0
 35 44  2  0  0  0
 35 45  1  0  0  0
 35 68  1  0  0  0
 36 56  1  0  0  0
 36 99  1  0  0  0
 37 39  1  0  0  0
 37 47  1  0  0  0
 37 66  1  0  0  0
 37100  1  0  0  0
 38 43  2  0  0  0
 38 46  1  0  0  0
 38 47  1  0  0  0
 39 64  1  0  0  0
 39 67  2  0  0  0
 40 52  1  0  0  0
 40 53  2  0  0  0
 40 58  1  0  0  0
 41101  1  0  0  0
 41102  1  0  0  0
 41103  1  0  0  0
 41 48  1  0  0  0
 42 43  1  0  0  0
 42 66  1  0  0  0
 42104  1  0  0  0
 42105  1  0  0  0
 43 44  1  0  0  0
 44106  1  0  0  0
 45 46  2  0  0  0
 45107  1  0  0  0
 46108  1  0  0  0
 47109  1  0  0  0
 47110  1  0  0  0
 48 56  1  0  0  0
 48 65  1  0  0  0
 48111  1  0  0  0
 49 50  1  0  0  0
 49 53  1  0  0  0
 49 64  1  0  0  0
 49112  1  0  0  0
 50 51  1  0  0  0
 50113  1  0  0  0
 50114  1  0  0  0
 51 52  1  0  0  0
 51115  1  0  0  0
 51116  1  0  0  0
 52117  1  0  0  0
 52118  1  0  0  0
 53 54  1  0  0  0
 54 55  2  0  0  0
 54119  1  0  0  0
 55 57  1  0  0  0
 55120  1  0  0  0
 56 69  2  0  0  0
 57 58  2  0  0  0
 57121  1  0  0  0
 58122  1  0  0  0
 59 60  1  0  0  0
 59 61  1  0  0  0
 59 62  1  0  0  0
 60123  1  0  0  0
 60124  1  0  0  0
 60125  1  0  0  0
 61126  1  0  0  0
 61127  1  0  0  0
 61128  1  0  0  0
 62129  1  0  0  0
 62130  1  0  0  0
 62131  1  0  0  0
 63 65  1  0  0  0
 63132  1  0  0  0
 63133  1  0  0  0
 63134  1  0  0  0
 64135  1  0  0  0
 65136  1  0  0  0
 68 76  1  0  0  0
 71 73  1  0  0  0
 71 75  1  0  0  0
 71137  1  0  0  0
 71138  1  0  0  0
 72 74  1  0  0  0
 72 75  1  0  0  0
 72139  1  0  0  0
 72140  1  0  0  0
 73 77  1  0  0  0
 73141  1  0  0  0
 73142  1  0  0  0
 74 77  1  0  0  0
 74143  1  0  0  0
 74144  1  0  0  0
 75 76  1  0  0  0
 75145  1  0  0  0
 76146  1  0  0  0
 76147  1  0  0  0
M  ISO  4   1 100  68 101  76 101  77 100
M  END
> <chiral flag>
0

> <version>
0

> <s_m_source_file>
/data/baiqing/PycharmProjects/Reinvent-master-3.2/result/LINK_invent/BTK/process_docking_weight1_custom_sum_contain_oxygen_bond_distance_aromatic_linkinvent_7_9_3/rearranged_h_0179.sdf

> <i_m_source_file_index>
59

> <r_mmod_Potential_Energy-OPLS-2005>
3633.1357421875

> <r_mmod_Stretch_Energy-OPLS-2005>
1380.71545410156

> <r_mmod_Bend_Energy-OPLS-2005>
1037.18579101562

> <r_mmod_Torsional_Energy-OPLS-2005>
323.154144287109

> <r_mmod_Improper_Torsional_Energy-OPLS-2005>
5.75089359283447

> <r_mmod_Van_der_Waal_Energy-OPLS-2005>
121.949806213379

> <r_mmod_Electrostatic_Energy-OPLS-2005>
-266.214202880859

> <r_mmod_Solvation_Energy-OPLS-2005>
-212.046051025391

> <b_mmod_Minimization_Converged-OPLS-2005>
0

> <r_mmod_RMS_Derivative-OPLS-2005>
4.11379337310791

$$$$
59
                    3D
 Structure written by MMmdl.
154162  0  0  1  0            999 V2000
  -30.5189  -15.1500   20.3812 C   0  0  0  0  0  0
  -30.4260  -12.7307   19.5152 C   0  0  0  0  0  0
  -29.5281  -12.5632   18.2692 C   0  0  0  0  0  0
  -28.0604  -12.3369   18.6681 C   0  0  0  0  0  0
  -27.6110  -13.2788   19.8143 C   0  0  2  0  0  0
  -28.6455  -13.4153   20.9476 C   0  0  0  0  0  0
  -25.2411  -13.8273   20.5723 C   0  0  0  0  0  0
  -24.1771  -13.0442   20.9214 C   0  0  0  0  0  0
  -24.6440  -11.6956   20.8700 C   0  0  0  0  0  0
  -23.9139  -10.4324   21.0375 C   0  0  0  0  0  0
  -24.3673   -9.4249   21.9168 C   0  0  0  0  0  0
  -23.6349   -8.2276   22.0737 C   0  0  0  0  0  0
  -22.4334   -8.0286   21.3516 C   0  0  0  0  0  0
  -21.9981   -9.0277   20.4625 C   0  0  0  0  0  0
  -22.7309  -10.2160   20.3039 C   0  0  0  0  0  0
  -21.6880   -6.0752   22.5265 C   0  0  0  0  0  0
  -21.4070   -6.5660   23.8206 C   0  0  0  0  0  0
  -21.3693   -5.6790   24.9156 C   0  0  0  0  0  0
  -21.6055   -4.3049   24.7189 C   0  0  0  0  0  0
  -21.8809   -3.8153   23.4304 C   0  0  0  0  0  0
  -21.9215   -4.6983   22.3388 C   0  0  0  0  0  0
  -22.7778  -13.5166   21.1852 C   0  0  0  0  0  0
  -22.1645   -4.2185   21.0947 F   0  0  0  0  0  0
  -21.5633   -3.4511   25.7694 F   0  0  0  0  0  0
  -29.8926  -13.8823   20.3252 N   0  0  0  0  0  0
  -26.2820  -12.9565   20.3105 N   0  0  0  0  0  0
  -25.9351  -11.6664   20.5616 N   0  0  0  0  0  0
  -22.0428  -12.8189   22.0426 N   0  0  0  0  0  0
  -25.4031  -15.2024   20.4311 N   0  0  0  0  0  0
  -31.7443  -15.0902   20.2047 O   0  0  0  0  0  0
  -21.6659   -6.8901   21.4229 O   0  0  0  0  0  0
  -22.3448  -14.5435   20.6637 O   0  0  0  0  0  0
  -24.6567  -31.8330   23.1813 C   0  0  0  0  0  0
  -25.9289  -32.4633   23.8226 C   0  0  1  0  0  0
  -27.2182  -26.9923   20.1776 C   0  0  0  0  0  0
  -25.5980  -33.8445   24.2125 N   0  0  0  0  0  0
  -23.4688  -30.4503   21.5263 C   0  0  2  0  0  0
  -24.9247  -28.8534   20.1207 C   0  0  0  0  0  0
  -22.7632  -29.4494   22.4793 C   0  0  0  0  0  0
  -18.0318  -28.1389   22.8476 C   0  0  0  0  0  0
  -24.1506  -36.7234   23.2638 C   0  0  0  0  0  0
  -26.0369  -30.6724   21.3962 C   0  0  0  0  0  0
  -26.1127  -29.2669   20.7343 C   0  0  0  0  0  0
  -27.2628  -28.3607   20.7336 C   0  0  0  0  0  0
  -25.9926  -26.7169   19.5373 C   0  0  0  0  0  0
  -24.8842  -27.5924   19.5066 C   0  0  0  0  0  0
  -23.7105  -29.7767   20.1497 C   0  0  0  0  0  0
  -25.4140  -36.2977   24.0290 C   0  0  1  0  0  0
  -20.5944  -28.3743   23.1213 C   0  0  2  0  0  0
  -20.6789  -26.9431   22.5410 C   0  0  0  0  0  0
  -19.5762  -26.6353   21.5223 C   0  0  0  0  0  0
  -18.1943  -26.7914   22.1626 C   0  0  0  0  0  0
  -19.1570  -28.8878   23.2824 C   0  0  0  0  0  0
  -18.9480  -30.1468   23.8859 C   0  0  0  0  0  0
  -17.6470  -30.6575   24.0551 C   0  0  0  0  0  0
  -25.9096  -34.9367   23.5013 C   0  0  0  0  0  0
  -16.5373  -29.9059   23.6334 C   0  0  0  0  0  0
  -16.7301  -28.6487   23.0348 C   0  0  0  0  0  0
  -26.4527  -31.6552   25.0750 C   0  0  0  0  0  0
  -25.3657  -31.3837   26.1422 C   0  0  0  0  0  0
  -27.0377  -30.2897   24.6481 C   0  0  0  0  0  0
  -27.6002  -32.4341   25.7578 C   0  0  0  0  0  0
  -27.5572  -37.1794   24.8451 C   0  0  0  0  0  0
  -21.4313  -29.3040   22.3554 N   0  0  0  0  0  0
  -26.4276  -37.3721   23.9389 N   0  0  0  0  0  0
  -24.7415  -31.0085   22.0890 N   0  0  0  0  0  0
  -23.4221  -28.8037   23.2979 O   0  0  0  0  0  0
  -28.2152  -25.8973   20.2307 O   0  0  0  0  0  0
  -26.5691  -34.8880   22.4595 O   0  0  0  0  0  0
  -23.5660  -32.1216   23.6983 O   0  0  0  0  0  0
  -28.8409  -22.9136   20.1877 C   0  0  0  0  0  0
  -28.3049  -18.7130   19.8036 C   0  0  0  0  0  0
  -29.9804  -19.1831   21.3421 C   0  0  0  0  0  0
  -28.9474  -17.1927   19.5485 C   0  0  0  0  0  0
  -30.6714  -17.7210   20.9799 C   0  0  0  0  0  0
  -29.1860  -20.0223   20.2264 C   0  0  0  0  0  0
  -27.3705  -21.3544   21.4323 C   0  0  0  0  0  0
  -27.8213  -24.3160   20.2071 C   0  0  0  0  0  0
  -29.8807  -16.4804   20.5311 N   0  0  0  0  0  0
  -28.5132  -21.5133   20.5259 N   0  0  0  0  0  0
  -29.9770  -23.1151   19.7485 O   0  0  0  0  0  0
  -31.4525  -12.8956   19.1851 H   0  0  0  0  0  0
  -30.4565  -11.8110   20.1043 H   0  0  0  0  0  0
  -29.8834  -11.7377   17.6492 H   0  0  0  0  0  0
  -29.5912  -13.4611   17.6531 H   0  0  0  0  0  0
  -27.9457  -11.2953   18.9663 H   0  0  0  0  0  0
  -27.4217  -12.4792   17.7972 H   0  0  0  0  0  0
  -27.5392  -14.2599   19.3473 H   0  0  0  0  0  0
  -28.7741  -12.4766   21.4920 H   0  0  0  0  0  0
  -28.2987  -14.1516   21.6706 H   0  0  0  0  0  0
  -25.2816   -9.5738   22.4729 H   0  0  0  0  0  0
  -24.0061   -7.4710   22.7485 H   0  0  0  0  0  0
  -21.0912   -8.8826   19.8946 H   0  0  0  0  0  0
  -22.3786  -10.9691   19.6141 H   0  0  0  0  0  0
  -21.2065   -7.6169   23.9717 H   0  0  0  0  0  0
  -21.1528   -6.0505   25.9062 H   0  0  0  0  0  0
  -22.0564   -2.7618   23.2757 H   0  0  0  0  0  0
  -22.4082  -11.9947   22.4947 H   0  0  0  0  0  0
  -21.0989  -13.1183   22.2500 H   0  0  0  0  0  0
  -24.6385  -15.8435   20.6062 H   0  0  0  0  0  0
  -26.2569  -15.6666   20.1482 H   0  0  0  0  0  0
  -26.7395  -32.5215   23.0976 H   0  0  0  0  0  0
  -25.0063  -33.9530   25.0233 H   0  0  0  0  0  0
  -22.7786  -31.2812   21.3650 H   0  0  0  0  0  0
  -23.3755  -35.9577   23.3266 H   0  0  0  0  0  0
  -24.3586  -36.8917   22.2059 H   0  0  0  0  0  0
  -23.7292  -37.6423   23.6724 H   0  0  0  0  0  0
  -26.2067  -31.4333   20.6321 H   0  0  0  0  0  0
  -26.8964  -30.7268   22.0529 H   0  0  0  0  0  0
  -28.1714  -28.6845   21.2223 H   0  0  0  0  0  0
  -25.8411  -25.7541   19.0773 H   0  0  0  0  0  0
  -23.9755  -27.2580   19.0286 H   0  0  0  0  0  0
  -23.8754  -30.5543   19.4034 H   0  0  0  0  0  0
  -22.8201  -29.2410   19.8168 H   0  0  0  0  0  0
  -25.1354  -36.1738   25.0785 H   0  0  0  0  0  0
  -21.0060  -28.3321   24.1329 H   0  0  0  0  0  0
  -20.5662  -26.2362   23.3640 H   0  0  0  0  0  0
  -21.6645  -26.7388   22.1222 H   0  0  0  0  0  0
  -19.6910  -25.6242   21.1280 H   0  0  0  0  0  0
  -19.6681  -27.3132   20.6724 H   0  0  0  0  0  0
  -17.4221  -26.6674   21.4017 H   0  0  0  0  0  0
  -18.0327  -26.0051   22.9022 H   0  0  0  0  0  0
  -19.7951  -30.7279   24.2219 H   0  0  0  0  0  0
  -17.5024  -31.6253   24.5144 H   0  0  0  0  0  0
  -15.5362  -30.2935   23.7678 H   0  0  0  0  0  0
  -15.8706  -28.0783   22.7077 H   0  0  0  0  0  0
  -24.5836  -30.7172   25.7784 H   0  0  0  0  0  0
  -24.8841  -32.3062   26.4685 H   0  0  0  0  0  0
  -25.7885  -30.9131   27.0313 H   0  0  0  0  0  0
  -26.3022  -29.6599   24.1487 H   0  0  0  0  0  0
  -27.3866  -29.7250   25.5141 H   0  0  0  0  0  0
  -27.8990  -30.4020   23.9898 H   0  0  0  0  0  0
  -27.2540  -33.3661   26.2061 H   0  0  0  0  0  0
  -28.3893  -32.6878   25.0493 H   0  0  0  0  0  0
  -28.0588  -31.8540   26.5597 H   0  0  0  0  0  0
  -28.2557  -38.0122   24.7490 H   0  0  0  0  0  0
  -28.1090  -36.2639   24.6263 H   0  0  0  0  0  0
  -27.2290  -37.1437   25.8856 H   0  0  0  0  0  0
  -20.9537  -29.8796   21.6763 H   0  0  0  0  0  0
  -26.0100  -38.2772   24.1367 H   0  0  0  0  0  0
  -27.5350  -18.5480   20.5578 H   0  0  0  0  0  0
  -27.7405  -18.9836   18.9122 H   0  0  0  0  0  0
  -30.7651  -19.8349   21.7293 H   0  0  0  0  0  0
  -29.3050  -19.0191   22.1861 H   0  0  0  0  0  0
  -29.4864  -17.2256   18.6018 H   0  0  0  0  0  0
  -28.1180  -16.5103   19.3682 H   0  0  0  0  0  0
  -31.2584  -17.4198   21.8478 H   0  0  0  0  0  0
  -31.4082  -17.9024   20.1936 H   0  0  0  0  0  0
  -29.8848  -20.2112   19.4106 H   0  0  0  0  0  0
  -26.6300  -22.1454   21.3403 H   0  0  0  0  0  0
  -27.7244  -21.3457   22.4642 H   0  0  0  0  0  0
  -26.8273  -20.4292   21.2665 H   0  0  0  0  0  0
  -27.1023  -24.1877   21.0125 H   0  0  0  0  0  0
  -27.2491  -24.1676   19.2906 H   0  0  0  0  0  0
  1 25  1  0  0  0
  1 30  2  0  0  0
  1 79  1  0  0  0
  2  3  1  0  0  0
  2 25  1  0  0  0
  2 82  1  0  0  0
  2 83  1  0  0  0
  3  4  1  0  0  0
  3 84  1  0  0  0
  3 85  1  0  0  0
  4  5  1  0  0  0
  4 86  1  0  0  0
  4 87  1  0  0  0
  5  6  1  0  0  0
  5 26  1  0  0  0
  5 88  1  0  0  0
  6 25  1  0  0  0
  6 89  1  0  0  0
  6 90  1  0  0  0
  7  8  2  0  0  0
  7 26  1  0  0  0
  7 29  1  0  0  0
  8  9  1  0  0  0
  8 22  1  0  0  0
  9 10  1  0  0  0
  9 27  2  0  0  0
 10 11  2  0  0  0
 10 15  1  0  0  0
 11 12  1  0  0  0
 11 91  1  0  0  0
 12 13  2  0  0  0
 12 92  1  0  0  0
 13 14  1  0  0  0
 13 31  1  0  0  0
 14 15  2  0  0  0
 14 93  1  0  0  0
 15 94  1  0  0  0
 16 17  2  0  0  0
 16 21  1  0  0  0
 16 31  1  0  0  0
 17 18  1  0  0  0
 17 95  1  0  0  0
 18 19  2  0  0  0
 18 96  1  0  0  0
 19 20  1  0  0  0
 19 24  1  0  0  0
 20 21  2  0  0  0
 20 97  1  0  0  0
 21 23  1  0  0  0
 22 28  1  0  0  0
 22 32  2  0  0  0
 26 27  1  0  0  0
 28 98  1  0  0  0
 28 99  1  0  0  0
 29100  1  0  0  0
 29101  1  0  0  0
 33 34  1  0  0  0
 33 66  1  0  0  0
 33 70  2  0  0  0
 34 36  1  0  0  0
 34 59  1  0  0  0
 34102  1  0  0  0
 35 44  2  0  0  0
 35 45  1  0  0  0
 35 68  1  0  0  0
 36 56  1  0  0  0
 36103  1  0  0  0
 37 39  1  0  0  0
 37 47  1  0  0  0
 37 66  1  0  0  0
 37104  1  0  0  0
 38 43  2  0  0  0
 38 46  1  0  0  0
 38 47  1  0  0  0
 39 64  1  0  0  0
 39 67  2  0  0  0
 40 52  1  0  0  0
 40 53  2  0  0  0
 40 58  1  0  0  0
 41105  1  0  0  0
 41106  1  0  0  0
 41107  1  0  0  0
 41 48  1  0  0  0
 42 43  1  0  0  0
 42 66  1  0  0  0
 42108  1  0  0  0
 42109  1  0  0  0
 43 44  1  0  0  0
 44110  1  0  0  0
 45 46  2  0  0  0
 45111  1  0  0  0
 46112  1  0  0  0
 47113  1  0  0  0
 47114  1  0  0  0
 48 56  1  0  0  0
 48 65  1  0  0  0
 48115  1  0  0  0
 49 50  1  0  0  0
 49 53  1  0  0  0
 49 64  1  0  0  0
 49116  1  0  0  0
 50 51  1  0  0  0
 50117  1  0  0  0
 50118  1  0  0  0
 51 52  1  0  0  0
 51119  1  0  0  0
 51120  1  0  0  0
 52121  1  0  0  0
 52122  1  0  0  0
 53 54  1  0  0  0
 54 55  2  0  0  0
 54123  1  0  0  0
 55 57  1  0  0  0
 55124  1  0  0  0
 56 69  2  0  0  0
 57 58  2  0  0  0
 57125  1  0  0  0
 58126  1  0  0  0
 59 60  1  0  0  0
 59 61  1  0  0  0
 59 62  1  0  0  0
 60127  1  0  0  0
 60128  1  0  0  0
 60129  1  0  0  0
 61130  1  0  0  0
 61131  1  0  0  0
 61132  1  0  0  0
 62133  1  0  0  0
 62134  1  0  0  0
 62135  1  0  0  0
 63 65  1  0  0  0
 63136  1  0  0  0
 63137  1  0  0  0
 63138  1  0  0  0
 64139  1  0  0  0
 65140  1  0  0  0
 68 78  1  0  0  0
 71 78  1  0  0  0
 71 80  1  0  0  0
 71 81  2  0  0  0
 72 74  1  0  0  0
 72 76  1  0  0  0
 72141  1  0  0  0
 72142  1  0  0  0
 73 75  1  0  0  0
 73 76  1  0  0  0
 73143  1  0  0  0
 73144  1  0  0  0
 74 79  1  0  0  0
 74145  1  0  0  0
 74146  1  0  0  0
 75 79  1  0  0  0
 75147  1  0  0  0
 75148  1  0  0  0
 76 80  1  0  0  0
 76149  1  0  0  0
 77 80  1  0  0  0
 77150  1  0  0  0
 77151  1  0  0  0
 77152  1  0  0  0
 78153  1  0  0  0
 78154  1  0  0  0
M  ISO  4   1 100  68 101  78 101  79 100
M  END
> <chiral flag>
0

> <version>
0

> <s_m_source_file>
/data/baiqing/PycharmProjects/Reinvent-master-3.2/result/LINK_invent/BTK/process_docking_weight1_custom_sum_contain_oxygen_bond_distance_aromatic_linkinvent_7_9_3/rearranged_h_0179.sdf

> <i_m_source_file_index>
60

> <r_mmod_Potential_Energy-OPLS-2005>
1250.17651367188

> <r_mmod_Stretch_Energy-OPLS-2005>
454.365783691406

> <r_mmod_Bend_Energy-OPLS-2005>
422.987548828125

> <r_mmod_Torsional_Energy-OPLS-2005>
364.773834228516

> <r_mmod_Improper_Torsional_Energy-OPLS-2005>
7.0729775428772

> <r_mmod_Van_der_Waal_Energy-OPLS-2005>
120.858139038086

> <r_mmod_Electrostatic_Energy-OPLS-2005>
-236.756072998047

> <r_mmod_Solvation_Energy-OPLS-2005>
-236.829681396484

> <b_mmod_Minimization_Converged-OPLS-2005>
0

> <r_mmod_RMS_Derivative-OPLS-2005>
5.39922380447388

$$$$
60
                    3D
 Structure written by MMmdl.
152161  0  0  1  0            999 V2000
  -30.6060  -14.9946   20.4138 C   0  0  0  0  0  0
  -30.4141  -12.6314   19.5014 C   0  0  0  0  0  0
  -29.5072  -12.5201   18.2580 C   0  0  0  0  0  0
  -28.0472  -12.3047   18.6873 C   0  0  0  0  0  0
  -27.6158  -13.2654   19.8264 C   0  0  2  0  0  0
  -28.6569  -13.3716   20.9607 C   0  0  0  0  0  0
  -25.2410  -13.8257   20.5755 C   0  0  0  0  0  0
  -24.1747  -13.0457   20.9253 C   0  0  0  0  0  0
  -24.6388  -11.6956   20.8774 C   0  0  0  0  0  0
  -23.9090  -10.4309   21.0417 C   0  0  0  0  0  0
  -24.3647   -9.4218   21.9187 C   0  0  0  0  0  0
  -23.6314   -8.2250   22.0758 C   0  0  0  0  0  0
  -22.4296   -8.0293   21.3550 C   0  0  0  0  0  0
  -21.9926   -9.0270   20.4650 C   0  0  0  0  0  0
  -22.7258  -10.2143   20.3059 C   0  0  0  0  0  0
  -21.6853   -6.0752   22.5284 C   0  0  0  0  0  0
  -21.4011   -6.5661   23.8225 C   0  0  0  0  0  0
  -21.3652   -5.6812   24.9178 C   0  0  0  0  0  0
  -21.6032   -4.3065   24.7233 C   0  0  0  0  0  0
  -21.8814   -3.8165   23.4353 C   0  0  0  0  0  0
  -21.9193   -4.6982   22.3398 C   0  0  0  0  0  0
  -22.7764  -13.5211   21.1911 C   0  0  0  0  0  0
  -22.1662   -4.2160   21.0975 F   0  0  0  0  0  0
  -21.5617   -3.4547   25.7740 F   0  0  0  0  0  0
  -29.9192  -13.7768   20.3327 N   0  0  0  0  0  0
  -26.2833  -12.9522   20.3265 N   0  0  0  0  0  0
  -25.9324  -11.6634   20.5762 N   0  0  0  0  0  0
  -22.0440  -12.8179   22.0454 N   0  0  0  0  0  0
  -25.4078  -15.1985   20.4194 N   0  0  0  0  0  0
  -31.8198  -14.9240   20.1945 O   0  0  0  0  0  0
  -21.6645   -6.8903   21.4246 O   0  0  0  0  0  0
  -22.3435  -14.5513   20.6747 O   0  0  0  0  0  0
  -24.6480  -31.8421   23.1880 C   0  0  0  0  0  0
  -25.9246  -32.4681   23.8265 C   0  0  1  0  0  0
  -27.1982  -27.0938   20.1739 C   0  0  0  0  0  0
  -25.6010  -33.8495   24.2209 N   0  0  0  0  0  0
  -23.4520  -30.4637   21.5332 C   0  0  2  0  0  0
  -24.9001  -28.8907   20.1081 C   0  0  0  0  0  0
  -22.7580  -29.4558   22.4838 C   0  0  0  0  0  0
  -18.0287  -28.1441   22.8487 C   0  0  0  0  0  0
  -24.1475  -36.7224   23.2648 C   0  0  0  0  0  0
  -26.0103  -30.7023   21.3936 C   0  0  0  0  0  0
  -26.0784  -29.3092   20.7406 C   0  0  0  0  0  0
  -27.2285  -28.4273   20.7580 C   0  0  0  0  0  0
  -26.0045  -26.7999   19.4764 C   0  0  0  0  0  0
  -24.8801  -27.6499   19.4568 C   0  0  0  0  0  0
  -23.6801  -29.7991   20.1505 C   0  0  0  0  0  0
  -25.4111  -36.3021   24.0333 C   0  0  1  0  0  0
  -20.5903  -28.3752   23.1223 C   0  0  2  0  0  0
  -20.6807  -26.9455   22.5422 C   0  0  0  0  0  0
  -19.5784  -26.6412   21.5231 C   0  0  0  0  0  0
  -18.1941  -26.7992   22.1606 C   0  0  0  0  0  0
  -19.1552  -28.8912   23.2846 C   0  0  0  0  0  0
  -18.9475  -30.1512   23.8869 C   0  0  0  0  0  0
  -17.6478  -30.6636   24.0572 C   0  0  0  0  0  0
  -25.9062  -34.9407   23.5068 C   0  0  0  0  0  0
  -16.5356  -29.9127   23.6364 C   0  0  0  0  0  0
  -16.7273  -28.6558   23.0379 C   0  0  0  0  0  0
  -26.4550  -31.6563   25.0710 C   0  0  0  0  0  0
  -25.3732  -31.3847   26.1422 C   0  0  0  0  0  0
  -27.0400  -30.2937   24.6353 C   0  0  0  0  0  0
  -27.6132  -32.4305   25.7445 C   0  0  0  0  0  0
  -27.5564  -37.1758   24.8471 C   0  0  0  0  0  0
  -21.4262  -29.3067   22.3587 N   0  0  0  0  0  0
  -26.4262  -37.3747   23.9434 N   0  0  0  0  0  0
  -24.7233  -31.0258   22.0928 N   0  0  0  0  0  0
  -23.4207  -28.8098   23.2997 O   0  0  0  0  0  0
  -28.2047  -26.0502   20.2338 O   0  0  0  0  0  0
  -26.5621  -34.8919   22.4622 O   0  0  0  0  0  0
  -23.5592  -32.1311   23.7077 O   0  0  0  0  0  0
  -28.2221  -20.7670   19.6883 C   0  0  0  0  0  0
  -29.1787  -20.1531   20.5758 C   0  0  0  0  0  0
  -29.4709  -22.4747   21.3444 C   0  0  0  0  0  0
  -28.5033  -23.0866   20.4557 C   0  0  0  0  0  0
  -28.7517  -17.1168   20.6112 C   0  0  0  0  0  0
  -30.7025  -17.6461   20.0966 C   0  0  0  0  0  0
  -29.5491  -18.5146   20.7462 C   0  0  0  0  0  0
  -30.1603  -23.3141   22.4072 C   0  0  0  0  0  0
  -27.7731  -24.5894   20.6301 C   0  0  0  0  0  0
  -27.9089  -22.1376   19.6356 N   0  0  0  0  0  0
  -29.7955  -21.1029   21.3792 N   0  0  0  0  0  0
  -30.0363  -16.3228   20.4378 N   0  0  0  0  0  0
  -31.4482  -12.7533   19.1791 H   0  0  0  0  0  0
  -30.3993  -11.7048   20.0767 H   0  0  0  0  0  0
  -29.8349  -11.6963   17.6239 H   0  0  0  0  0  0
  -29.5863  -13.4257   17.6550 H   0  0  0  0  0  0
  -27.9583  -11.2716   19.0251 H   0  0  0  0  0  0
  -27.3772  -12.4043   17.8330 H   0  0  0  0  0  0
  -27.5562  -14.2508   19.3623 H   0  0  0  0  0  0
  -28.7618  -12.4296   21.5001 H   0  0  0  0  0  0
  -28.3464  -14.1209   21.6912 H   0  0  0  0  0  0
  -25.2809   -9.5672   22.4748 H   0  0  0  0  0  0
  -24.0019   -7.4631   22.7472 H   0  0  0  0  0  0
  -21.0860   -8.8795   19.8958 H   0  0  0  0  0  0
  -22.3741  -10.9681   19.6156 H   0  0  0  0  0  0
  -21.2013   -7.6176   23.9724 H   0  0  0  0  0  0
  -21.1459   -6.0545   25.9078 H   0  0  0  0  0  0
  -22.0595   -2.7628   23.2842 H   0  0  0  0  0  0
  -22.4083  -11.9832   22.4804 H   0  0  0  0  0  0
  -21.1053  -13.1159   22.2704 H   0  0  0  0  0  0
  -24.6428  -15.8542   20.5346 H   0  0  0  0  0  0
  -26.2635  -15.6365   20.1057 H   0  0  0  0  0  0
  -26.7297  -32.5269   23.0977 H   0  0  0  0  0  0
  -25.0274  -33.9606   25.0430 H   0  0  0  0  0  0
  -22.7576  -31.2919   21.3803 H   0  0  0  0  0  0
  -23.3769  -35.9527   23.3328 H   0  0  0  0  0  0
  -24.3559  -36.8814   22.2056 H   0  0  0  0  0  0
  -23.7181  -37.6420   23.6639 H   0  0  0  0  0  0
  -26.1777  -31.4529   20.6200 H   0  0  0  0  0  0
  -26.8792  -30.7469   22.0399 H   0  0  0  0  0  0
  -28.1201  -28.7449   21.2811 H   0  0  0  0  0  0
  -25.9139  -25.8649   18.9462 H   0  0  0  0  0  0
  -23.9871  -27.3343   18.9328 H   0  0  0  0  0  0
  -23.8220  -30.5782   19.3998 H   0  0  0  0  0  0
  -22.7925  -29.2486   19.8319 H   0  0  0  0  0  0
  -25.1290  -36.1853   25.0826 H   0  0  0  0  0  0
  -20.9963  -28.3342   24.1356 H   0  0  0  0  0  0
  -20.5733  -26.2363   23.3645 H   0  0  0  0  0  0
  -21.6659  -26.7502   22.1183 H   0  0  0  0  0  0
  -19.6952  -25.6315   21.1289 H   0  0  0  0  0  0
  -19.6750  -27.3205   20.6748 H   0  0  0  0  0  0
  -17.4239  -26.6769   21.3982 H   0  0  0  0  0  0
  -18.0292  -26.0138   22.8989 H   0  0  0  0  0  0
  -19.7947  -30.7344   24.2232 H   0  0  0  0  0  0
  -17.5035  -31.6313   24.5192 H   0  0  0  0  0  0
  -15.5368  -30.3039   23.7749 H   0  0  0  0  0  0
  -15.8653  -28.0876   22.7121 H   0  0  0  0  0  0
  -24.5887  -30.7198   25.7779 H   0  0  0  0  0  0
  -24.8954  -32.3087   26.4699 H   0  0  0  0  0  0
  -25.7990  -30.9123   27.0280 H   0  0  0  0  0  0
  -26.3023  -29.6656   24.1356 H   0  0  0  0  0  0
  -27.3981  -29.7249   25.4940 H   0  0  0  0  0  0
  -27.8949  -30.4167   23.9702 H   0  0  0  0  0  0
  -27.2816  -33.3726   26.1840 H   0  0  0  0  0  0
  -28.4013  -32.6661   25.0265 H   0  0  0  0  0  0
  -28.0723  -31.8524   26.5482 H   0  0  0  0  0  0
  -28.2591  -38.0041   24.7499 H   0  0  0  0  0  0
  -28.1029  -36.2578   24.6285 H   0  0  0  0  0  0
  -27.2312  -37.1385   25.8880 H   0  0  0  0  0  0
  -20.9486  -29.8731   21.6709 H   0  0  0  0  0  0
  -26.0136  -38.2811   24.1473 H   0  0  0  0  0  0
  -27.6602  -20.1418   19.0093 H   0  0  0  0  0  0
  -28.1068  -17.0776   19.7305 H   0  0  0  0  0  0
  -28.1766  -16.8581   21.5030 H   0  0  0  0  0  0
  -31.6729  -17.8060   20.5688 H   0  0  0  0  0  0
  -30.7897  -17.8110   19.0208 H   0  0  0  0  0  0
  -29.8138  -18.5266   21.8048 H   0  0  0  0  0  0
  -29.4469  -23.6185   23.1750 H   0  0  0  0  0  0
  -30.5994  -24.2148   21.9755 H   0  0  0  0  0  0
  -30.9631  -22.7579   22.8953 H   0  0  0  0  0  0
  -27.5951  -24.6718   21.7032 H   0  0  0  0  0  0
  -26.7730  -24.4182   20.2391 H   0  0  0  0  0  0
  1 25  1  0  0  0
  1 30  2  0  0  0
  1 82  1  0  0  0
  2  3  1  0  0  0
  2 25  1  0  0  0
  2 83  1  0  0  0
  2 84  1  0  0  0
  3  4  1  0  0  0
  3 85  1  0  0  0
  3 86  1  0  0  0
  4  5  1  0  0  0
  4 87  1  0  0  0
  4 88  1  0  0  0
  5  6  1  0  0  0
  5 26  1  0  0  0
  5 89  1  0  0  0
  6 25  1  0  0  0
  6 90  1  0  0  0
  6 91  1  0  0  0
  7  8  2  0  0  0
  7 26  1  0  0  0
  7 29  1  0  0  0
  8  9  1  0  0  0
  8 22  1  0  0  0
  9 10  1  0  0  0
  9 27  2  0  0  0
 10 11  2  0  0  0
 10 15  1  0  0  0
 11 12  1  0  0  0
 11 92  1  0  0  0
 12 13  2  0  0  0
 12 93  1  0  0  0
 13 14  1  0  0  0
 13 31  1  0  0  0
 14 15  2  0  0  0
 14 94  1  0  0  0
 15 95  1  0  0  0
 16 17  2  0  0  0
 16 21  1  0  0  0
 16 31  1  0  0  0
 17 18  1  0  0  0
 17 96  1  0  0  0
 18 19  2  0  0  0
 18 97  1  0  0  0
 19 20  1  0  0  0
 19 24  1  0  0  0
 20 21  2  0  0  0
 20 98  1  0  0  0
 21 23  1  0  0  0
 22 28  1  0  0  0
 22 32  2  0  0  0
 26 27  1  0  0  0
 28 99  1  0  0  0
 28100  1  0  0  0
 29101  1  0  0  0
 29102  1  0  0  0
 33 34  1  0  0  0
 33 66  1  0  0  0
 33 70  2  0  0  0
 34 36  1  0  0  0
 34 59  1  0  0  0
 34103  1  0  0  0
 35 44  2  0  0  0
 35 45  1  0  0  0
 35 68  1  0  0  0
 36 56  1  0  0  0
 36104  1  0  0  0
 37 39  1  0  0  0
 37 47  1  0  0  0
 37 66  1  0  0  0
 37105  1  0  0  0
 38 43  2  0  0  0
 38 46  1  0  0  0
 38 47  1  0  0  0
 39 64  1  0  0  0
 39 67  2  0  0  0
 40 52  1  0  0  0
 40 53  2  0  0  0
 40 58  1  0  0  0
 41106  1  0  0  0
 41107  1  0  0  0
 41108  1  0  0  0
 41 48  1  0  0  0
 42 43  1  0  0  0
 42 66  1  0  0  0
 42109  1  0  0  0
 42110  1  0  0  0
 43 44  1  0  0  0
 44111  1  0  0  0
 45 46  2  0  0  0
 45112  1  0  0  0
 46113  1  0  0  0
 47114  1  0  0  0
 47115  1  0  0  0
 48 56  1  0  0  0
 48 65  1  0  0  0
 48116  1  0  0  0
 49 50  1  0  0  0
 49 53  1  0  0  0
 49 64  1  0  0  0
 49117  1  0  0  0
 50 51  1  0  0  0
 50118  1  0  0  0
 50119  1  0  0  0
 51 52  1  0  0  0
 51120  1  0  0  0
 51121  1  0  0  0
 52122  1  0  0  0
 52123  1  0  0  0
 53 54  1  0  0  0
 54 55  2  0  0  0
 54124  1  0  0  0
 55 57  1  0  0  0
 55125  1  0  0  0
 56 69  2  0  0  0
 57 58  2  0  0  0
 57126  1  0  0  0
 58127  1  0  0  0
 59 60  1  0  0  0
 59 61  1  0  0  0
 59 62  1  0  0  0
 60128  1  0  0  0
 60129  1  0  0  0
 60130  1  0  0  0
 61131  1  0  0  0
 61132  1  0  0  0
 61133  1  0  0  0
 62134  1  0  0  0
 62135  1  0  0  0
 62136  1  0  0  0
 63 65  1  0  0  0
 63137  1  0  0  0
 63138  1  0  0  0
 63139  1  0  0  0
 64140  1  0  0  0
 65141  1  0  0  0
 68 79  1  0  0  0
 71 72  2  0  0  0
 71 80  1  0  0  0
 71142  1  0  0  0
 72 81  1  0  0  0
 72 77  1  0  0  0
 73 74  1  0  0  0
 73 78  1  0  0  0
 73 81  2  0  0  0
 74 79  1  0  0  0
 74 80  2  0  0  0
 75 77  1  0  0  0
 75 82  1  0  0  0
 75143  1  0  0  0
 75144  1  0  0  0
 76 77  1  0  0  0
 76 82  1  0  0  0
 76145  1  0  0  0
 76146  1  0  0  0
 77147  1  0  0  0
 78148  1  0  0  0
 78149  1  0  0  0
 78150  1  0  0  0
 79151  1  0  0  0
 79152  1  0  0  0
M  ISO  4   1 100  68 101  79 101  82 100
M  END
> <chiral flag>
0

> <version>
0

> <s_m_source_file>
/data/baiqing/PycharmProjects/Reinvent-master-3.2/result/LINK_invent/BTK/process_docking_weight1_custom_sum_contain_oxygen_bond_distance_aromatic_linkinvent_7_9_3/rearranged_h_0179.sdf

> <i_m_source_file_index>
61

> <r_mmod_Potential_Energy-OPLS-2005>
789.526184082031

> <r_mmod_Stretch_Energy-OPLS-2005>
273.151824951172

> <r_mmod_Bend_Energy-OPLS-2005>
347.813751220703

> <r_mmod_Torsional_Energy-OPLS-2005>
271.799468994141

> <r_mmod_Improper_Torsional_Energy-OPLS-2005>
9.86605739593506

> <r_mmod_Van_der_Waal_Energy-OPLS-2005>
131.73014831543

> <r_mmod_Electrostatic_Energy-OPLS-2005>
-255.206130981445

> <r_mmod_Solvation_Energy-OPLS-2005>
-228.188705444336

> <b_mmod_Minimization_Converged-OPLS-2005>
0

> <r_mmod_RMS_Derivative-OPLS-2005>
3.45877480506897

$$$$
61
                    3D
 Structure written by MMmdl.
164173  0  0  1  0            999 V2000
  -30.6715  -14.5712   20.5130 C   0  0  0  0  0  0
  -30.4219  -12.3517   19.4459 C   0  0  0  0  0  0
  -29.4970  -12.5034   18.2196 C   0  0  0  0  0  0
  -28.0184  -12.3578   18.6303 C   0  0  0  0  0  0
  -27.6526  -13.2185   19.8697 C   0  0  2  0  0  0
  -28.6979  -13.0591   20.9963 C   0  0  0  0  0  0
  -25.2549  -13.8181   20.5704 C   0  0  0  0  0  0
  -24.1824  -13.0434   20.9202 C   0  0  0  0  0  0
  -24.6406  -11.6912   20.8764 C   0  0  0  0  0  0
  -23.9077  -10.4291   21.0425 C   0  0  0  0  0  0
  -24.3628   -9.4203   21.9203 C   0  0  0  0  0  0
  -23.6305   -8.2237   22.0756 C   0  0  0  0  0  0
  -22.4286   -8.0285   21.3546 C   0  0  0  0  0  0
  -21.9931   -9.0258   20.4642 C   0  0  0  0  0  0
  -22.7255  -10.2139   20.3062 C   0  0  0  0  0  0
  -21.6844   -6.0764   22.5292 C   0  0  0  0  0  0
  -21.4009   -6.5663   23.8228 C   0  0  0  0  0  0
  -21.3659   -5.6806   24.9190 C   0  0  0  0  0  0
  -21.6042   -4.3073   24.7231 C   0  0  0  0  0  0
  -21.8815   -3.8175   23.4348 C   0  0  0  0  0  0
  -21.9186   -4.6993   22.3413 C   0  0  0  0  0  0
  -22.7848  -13.5223   21.1872 C   0  0  0  0  0  0
  -22.1648   -4.2185   21.0985 F   0  0  0  0  0  0
  -21.5625   -3.4552   25.7741 F   0  0  0  0  0  0
  -30.0148  -13.3745   20.4273 N   0  0  0  0  0  0
  -26.2991  -12.9367   20.3378 N   0  0  0  0  0  0
  -25.9335  -11.6517   20.5800 N   0  0  0  0  0  0
  -22.0496  -12.8201   22.0412 N   0  0  0  0  0  0
  -25.4245  -15.1897   20.4112 N   0  0  0  0  0  0
  -31.8425  -14.6856   20.1360 O   0  0  0  0  0  0
  -21.6624   -6.8904   21.4257 O   0  0  0  0  0  0
  -22.3536  -14.5537   20.6727 O   0  0  0  0  0  0
  -24.6226  -31.8637   23.2085 C   0  0  0  0  0  0
  -25.9097  -32.4800   23.8387 C   0  0  1  0  0  0
  -27.2179  -27.3732   20.1068 C   0  0  0  0  0  0
  -25.5939  -33.8602   24.2312 N   0  0  0  0  0  0
  -23.4133  -30.4888   21.5498 C   0  0  2  0  0  0
  -24.8596  -28.9573   20.1058 C   0  0  0  0  0  0
  -22.7444  -29.4647   22.4970 C   0  0  0  0  0  0
  -18.0273  -28.1389   22.8485 C   0  0  0  0  0  0
  -24.1486  -36.7287   23.2637 C   0  0  0  0  0  0
  -25.9498  -30.8103   21.3730 C   0  0  0  0  0  0
  -26.0267  -29.4451   20.7106 C   0  0  0  0  0  0
  -27.2143  -28.6621   20.7068 C   0  0  0  0  0  0
  -26.0402  -26.9336   19.4657 C   0  0  0  0  0  0
  -24.8654  -27.7040   19.4746 C   0  0  0  0  0  0
  -23.6234  -29.8274   20.1632 C   0  0  0  0  0  0
  -25.4112  -36.3089   24.0329 C   0  0  1  0  0  0
  -20.5869  -28.3684   23.1295 C   0  0  2  0  0  0
  -20.6774  -26.9416   22.5404 C   0  0  0  0  0  0
  -19.5750  -26.6385   21.5211 C   0  0  0  0  0  0
  -18.1920  -26.7939   22.1604 C   0  0  0  0  0  0
  -19.1525  -28.8851   23.2890 C   0  0  0  0  0  0
  -18.9453  -30.1452   23.8912 C   0  0  0  0  0  0
  -17.6456  -30.6597   24.0562 C   0  0  0  0  0  0
  -25.9048  -34.9461   23.5112 C   0  0  0  0  0  0
  -16.5343  -29.9092   23.6346 C   0  0  0  0  0  0
  -16.7258  -28.6504   23.0371 C   0  0  0  0  0  0
  -26.4500  -31.6600   25.0739 C   0  0  0  0  0  0
  -25.3750  -31.3706   26.1471 C   0  0  0  0  0  0
  -27.0345  -30.3032   24.6166 C   0  0  0  0  0  0
  -27.6065  -32.4327   25.7502 C   0  0  0  0  0  0
  -27.5580  -37.1799   24.8466 C   0  0  0  0  0  0
  -21.4164  -29.3051   22.3705 N   0  0  0  0  0  0
  -26.4291  -37.3781   23.9405 N   0  0  0  0  0  0
  -24.6799  -31.0687   22.1014 N   0  0  0  0  0  0
  -23.4177  -28.8187   23.3042 O   0  0  0  0  0  0
  -28.2924  -26.4922   20.1746 O   0  0  0  0  0  0
  -26.5598  -34.8918   22.4669 O   0  0  0  0  0  0
  -23.5405  -32.1424   23.7439 O   0  0  0  0  0  0
  -29.8851  -23.7227   21.5933 C   0  0  0  0  0  0
  -28.7396  -23.9779   20.8148 C   0  0  0  0  0  0
  -30.4164  -22.4115   21.6748 C   0  0  0  0  0  0
  -28.2188  -22.8650   20.0952 C   0  0  0  0  0  0
  -29.8005  -21.3547   20.9639 C   0  0  0  0  0  0
  -29.8542  -17.7735   22.0296 C   0  0  0  0  0  0
  -30.3051  -18.0196   19.6122 C   0  0  0  0  0  0
  -29.3591  -16.3080   21.7970 C   0  0  0  0  0  0
  -29.7412  -16.5872   19.3919 C   0  0  0  0  0  0
  -29.6767  -18.7421   20.8241 C   0  0  0  0  0  0
  -31.6174  -22.1591   22.5755 C   0  0  0  0  0  0
  -26.9974  -23.0087   19.2065 C   0  0  0  0  0  0
  -27.9744  -25.3223   20.9924 C   0  0  0  0  0  0
  -28.7318  -21.5984   20.1723 N   0  0  0  0  0  0
  -29.8786  -15.6898   20.5607 N   0  0  0  0  0  0
  -30.3326  -20.0447   21.0828 N   0  0  0  0  0  0
  -31.4655  -12.4531   19.1441 H   0  0  0  0  0  0
  -30.3318  -11.3534   19.8768 H   0  0  0  0  0  0
  -29.7491  -11.7630   17.4589 H   0  0  0  0  0  0
  -29.6542  -13.4800   17.7582 H   0  0  0  0  0  0
  -27.8399  -11.3042   18.8478 H   0  0  0  0  0  0
  -27.3669  -12.6100   17.7931 H   0  0  0  0  0  0
  -27.6734  -14.2574   19.5416 H   0  0  0  0  0  0
  -28.6918  -12.0396   21.3853 H   0  0  0  0  0  0
  -28.4592  -13.7038   21.8417 H   0  0  0  0  0  0
  -25.2779   -9.5658   22.4779 H   0  0  0  0  0  0
  -24.0015   -7.4620   22.7466 H   0  0  0  0  0  0
  -21.0873   -8.8777   19.8938 H   0  0  0  0  0  0
  -22.3738  -10.9680   19.6161 H   0  0  0  0  0  0
  -21.1995   -7.6167   23.9744 H   0  0  0  0  0  0
  -21.1480   -6.0539   25.9092 H   0  0  0  0  0  0
  -22.0593   -2.7638   23.2831 H   0  0  0  0  0  0
  -22.4103  -11.9836   22.4772 H   0  0  0  0  0  0
  -21.1109  -13.1207   22.2617 H   0  0  0  0  0  0
  -24.6596  -15.8463   20.5204 H   0  0  0  0  0  0
  -26.2855  -15.6278   20.1102 H   0  0  0  0  0  0
  -26.7170  -32.5474   23.1143 H   0  0  0  0  0  0
  -25.0137  -33.9767   25.0490 H   0  0  0  0  0  0
  -22.7054  -31.3082   21.4108 H   0  0  0  0  0  0
  -23.3762  -35.9605   23.3287 H   0  0  0  0  0  0
  -24.3578  -36.8927   22.2056 H   0  0  0  0  0  0
  -23.7221  -37.6476   23.6664 H   0  0  0  0  0  0
  -26.0771  -31.5789   20.6099 H   0  0  0  0  0  0
  -26.8315  -30.8557   22.0008 H   0  0  0  0  0  0
  -28.1072  -29.0224   21.1983 H   0  0  0  0  0  0
  -26.0145  -25.9663   18.9855 H   0  0  0  0  0  0
  -23.9709  -27.3252   18.9993 H   0  0  0  0  0  0
  -23.7296  -30.6049   19.4055 H   0  0  0  0  0  0
  -22.7454  -29.2494   19.8683 H   0  0  0  0  0  0
  -25.1300  -36.1947   25.0822 H   0  0  0  0  0  0
  -20.9946  -28.3252   24.1419 H   0  0  0  0  0  0
  -20.5684  -26.2294   23.3598 H   0  0  0  0  0  0
  -21.6646  -26.7468   22.1189 H   0  0  0  0  0  0
  -19.6915  -25.6291   21.1250 H   0  0  0  0  0  0
  -19.6700  -27.3196   20.6742 H   0  0  0  0  0  0
  -17.4196  -26.6700   21.3997 H   0  0  0  0  0  0
  -18.0307  -26.0072   22.8986 H   0  0  0  0  0  0
  -19.7926  -30.7271   24.2285 H   0  0  0  0  0  0
  -17.5010  -31.6291   24.5137 H   0  0  0  0  0  0
  -15.5348  -30.3001   23.7677 H   0  0  0  0  0  0
  -15.8650  -28.0830   22.7106 H   0  0  0  0  0  0
  -24.5936  -30.7049   25.7786 H   0  0  0  0  0  0
  -24.8936  -32.2863   26.4917 H   0  0  0  0  0  0
  -25.8095  -30.8860   27.0227 H   0  0  0  0  0  0
  -26.2912  -29.6771   24.1217 H   0  0  0  0  0  0
  -27.4096  -29.7295   25.4655 H   0  0  0  0  0  0
  -27.8759  -30.4329   23.9353 H   0  0  0  0  0  0
  -27.2696  -33.3642   26.2060 H   0  0  0  0  0  0
  -28.3891  -32.6866   25.0338 H   0  0  0  0  0  0
  -28.0718  -31.8466   26.5440 H   0  0  0  0  0  0
  -28.2594  -38.0103   24.7533 H   0  0  0  0  0  0
  -28.1089  -36.2638   24.6275 H   0  0  0  0  0  0
  -27.2297  -37.1428   25.8871 H   0  0  0  0  0  0
  -20.9331  -29.8760   21.6917 H   0  0  0  0  0  0
  -26.0179  -38.2853   24.1422 H   0  0  0  0  0  0
  -30.3166  -24.5179   22.1844 H   0  0  0  0  0  0
  -30.9117  -17.7279   22.2954 H   0  0  0  0  0  0
  -29.3468  -18.1847   22.9041 H   0  0  0  0  0  0
  -30.1490  -18.6140   18.7106 H   0  0  0  0  0  0
  -31.3866  -17.9517   19.7443 H   0  0  0  0  0  0
  -28.2702  -16.2954   21.7511 H   0  0  0  0  0  0
  -29.6321  -15.6993   22.6615 H   0  0  0  0  0  0
  -30.2177  -16.1449   18.5147 H   0  0  0  0  0  0
  -28.6809  -16.6528   19.1445 H   0  0  0  0  0  0
  -28.6125  -18.9026   20.6435 H   0  0  0  0  0  0
  -31.9097  -23.0585   23.1180 H   0  0  0  0  0  0
  -32.4749  -21.8302   21.9879 H   0  0  0  0  0  0
  -31.3885  -21.3908   23.3155 H   0  0  0  0  0  0
  -26.0985  -23.1549   19.8053 H   0  0  0  0  0  0
  -26.8443  -22.1259   18.5850 H   0  0  0  0  0  0
  -27.1142  -23.8615   18.5376 H   0  0  0  0  0  0
  -28.1332  -25.6358   22.0252 H   0  0  0  0  0  0
  -26.9128  -25.0754   20.9656 H   0  0  0  0  0  0
  -31.1703  -19.9859   21.6468 H   0  0  0  0  0  0
  1 25  1  0  0  0
  1 30  2  0  0  0
  1 85  1  0  0  0
  2  3  1  0  0  0
  2 25  1  0  0  0
  2 87  1  0  0  0
  2 88  1  0  0  0
  3  4  1  0  0  0
  3 89  1  0  0  0
  3 90  1  0  0  0
  4  5  1  0  0  0
  4 91  1  0  0  0
  4 92  1  0  0  0
  5  6  1  0  0  0
  5 26  1  0  0  0
  5 93  1  0  0  0
  6 25  1  0  0  0
  6 94  1  0  0  0
  6 95  1  0  0  0
  7  8  2  0  0  0
  7 26  1  0  0  0
  7 29  1  0  0  0
  8  9  1  0  0  0
  8 22  1  0  0  0
  9 10  1  0  0  0
  9 27  2  0  0  0
 10 11  2  0  0  0
 10 15  1  0  0  0
 11 12  1  0  0  0
 11 96  1  0  0  0
 12 13  2  0  0  0
 12 97  1  0  0  0
 13 14  1  0  0  0
 13 31  1  0  0  0
 14 15  2  0  0  0
 14 98  1  0  0  0
 15 99  1  0  0  0
 16 17  2  0  0  0
 16 21  1  0  0  0
 16 31  1  0  0  0
 17 18  1  0  0  0
 17100  1  0  0  0
 18 19  2  0  0  0
 18101  1  0  0  0
 19 20  1  0  0  0
 19 24  1  0  0  0
 20 21  2  0  0  0
 20102  1  0  0  0
 21 23  1  0  0  0
 22 28  1  0  0  0
 22 32  2  0  0  0
 26 27  1  0  0  0
 28103  1  0  0  0
 28104  1  0  0  0
 29105  1  0  0  0
 29106  1  0  0  0
 33 34  1  0  0  0
 33 66  1  0  0  0
 33 70  2  0  0  0
 34 36  1  0  0  0
 34 59  1  0  0  0
 34107  1  0  0  0
 35 44  2  0  0  0
 35 45  1  0  0  0
 35 68  1  0  0  0
 36 56  1  0  0  0
 36108  1  0  0  0
 37 39  1  0  0  0
 37 47  1  0  0  0
 37 66  1  0  0  0
 37109  1  0  0  0
 38 43  2  0  0  0
 38 46  1  0  0  0
 38 47  1  0  0  0
 39 64  1  0  0  0
 39 67  2  0  0  0
 40 52  1  0  0  0
 40 53  2  0  0  0
 40 58  1  0  0  0
 41110  1  0  0  0
 41111  1  0  0  0
 41112  1  0  0  0
 41 48  1  0  0  0
 42 43  1  0  0  0
 42 66  1  0  0  0
 42113  1  0  0  0
 42114  1  0  0  0
 43 44  1  0  0  0
 44115  1  0  0  0
 45 46  2  0  0  0
 45116  1  0  0  0
 46117  1  0  0  0
 47118  1  0  0  0
 47119  1  0  0  0
 48 56  1  0  0  0
 48 65  1  0  0  0
 48120  1  0  0  0
 49 50  1  0  0  0
 49 53  1  0  0  0
 49 64  1  0  0  0
 49121  1  0  0  0
 50 51  1  0  0  0
 50122  1  0  0  0
 50123  1  0  0  0
 51 52  1  0  0  0
 51124  1  0  0  0
 51125  1  0  0  0
 52126  1  0  0  0
 52127  1  0  0  0
 53 54  1  0  0  0
 54 55  2  0  0  0
 54128  1  0  0  0
 55 57  1  0  0  0
 55129  1  0  0  0
 56 69  2  0  0  0
 57 58  2  0  0  0
 57130  1  0  0  0
 58131  1  0  0  0
 59 60  1  0  0  0
 59 61  1  0  0  0
 59 62  1  0  0  0
 60132  1  0  0  0
 60133  1  0  0  0
 60134  1  0  0  0
 61135  1  0  0  0
 61136  1  0  0  0
 61137  1  0  0  0
 62138  1  0  0  0
 62139  1  0  0  0
 62140  1  0  0  0
 63 65  1  0  0  0
 63141  1  0  0  0
 63142  1  0  0  0
 63143  1  0  0  0
 64144  1  0  0  0
 65145  1  0  0  0
 68 83  1  0  0  0
 71 72  2  0  0  0
 71 73  1  0  0  0
 71146  1  0  0  0
 72 74  1  0  0  0
 72 83  1  0  0  0
 73 75  2  0  0  0
 73 81  1  0  0  0
 74 82  1  0  0  0
 74 84  2  0  0  0
 75 84  1  0  0  0
 75 86  1  0  0  0
 76 78  1  0  0  0
 76 80  1  0  0  0
 76147  1  0  0  0
 76148  1  0  0  0
 77 79  1  0  0  0
 77 80  1  0  0  0
 77149  1  0  0  0
 77150  1  0  0  0
 78 85  1  0  0  0
 78151  1  0  0  0
 78152  1  0  0  0
 79 85  1  0  0  0
 79153  1  0  0  0
 79154  1  0  0  0
 80 86  1  0  0  0
 80155  1  0  0  0
 81156  1  0  0  0
 81157  1  0  0  0
 81158  1  0  0  0
 82159  1  0  0  0
 82160  1  0  0  0
 82161  1  0  0  0
 83162  1  0  0  0
 83163  1  0  0  0
 86164  1  0  0  0
M  ISO  4   1 100  68 101  83 101  85 100
M  END
> <chiral flag>
0

> <version>
0

> <s_m_source_file>
/data/baiqing/PycharmProjects/Reinvent-master-3.2/result/LINK_invent/BTK/process_docking_weight1_custom_sum_contain_oxygen_bond_distance_aromatic_linkinvent_7_9_3/rearranged_h_0179.sdf

> <i_m_source_file_index>
62

> <r_mmod_Potential_Energy-OPLS-2005>
28.3380374908447

> <r_mmod_Stretch_Energy-OPLS-2005>
55.7180442810059

> <r_mmod_Bend_Energy-OPLS-2005>
135.826278686523

> <r_mmod_Torsional_Energy-OPLS-2005>
360.023956298828

> <r_mmod_Improper_Torsional_Energy-OPLS-2005>
17.6340026855469

> <r_mmod_Van_der_Waal_Energy-OPLS-2005>
146.491271972656

> <r_mmod_Electrostatic_Energy-OPLS-2005>
-502.757965087891

> <r_mmod_Solvation_Energy-OPLS-2005>
-219.616027832031

> <b_mmod_Minimization_Converged-OPLS-2005>
0

> <r_mmod_RMS_Derivative-OPLS-2005>
1.50194001197815

$$$$
62
                    3D
 Structure written by MMmdl.
161170  0  0  1  0            999 V2000
  -30.5636  -14.9408   20.3473 C   0  0  0  0  0  0
  -30.4416  -12.5680   19.4839 C   0  0  0  0  0  0
  -29.5166  -12.4594   18.2501 C   0  0  0  0  0  0
  -28.0440  -12.2797   18.6747 C   0  0  0  0  0  0
  -27.6181  -13.2169   19.8357 C   0  0  2  0  0  0
  -28.6774  -13.2983   20.9554 C   0  0  0  0  0  0
  -25.2473  -13.8113   20.5794 C   0  0  0  0  0  0
  -24.1748  -13.0387   20.9256 C   0  0  0  0  0  0
  -24.6332  -11.6860   20.8804 C   0  0  0  0  0  0
  -23.9014  -10.4260   21.0445 C   0  0  0  0  0  0
  -24.3576   -9.4176   21.9208 C   0  0  0  0  0  0
  -23.6263   -8.2211   22.0760 C   0  0  0  0  0  0
  -22.4250   -8.0257   21.3541 C   0  0  0  0  0  0
  -21.9885   -9.0228   20.4645 C   0  0  0  0  0  0
  -22.7201  -10.2111   20.3073 C   0  0  0  0  0  0
  -21.6842   -6.0720   22.5269 C   0  0  0  0  0  0
  -21.4004   -6.5626   23.8201 C   0  0  0  0  0  0
  -21.3658   -5.6786   24.9166 C   0  0  0  0  0  0
  -21.6045   -4.3050   24.7223 C   0  0  0  0  0  0
  -21.8821   -3.8136   23.4346 C   0  0  0  0  0  0
  -21.9191   -4.6949   22.3397 C   0  0  0  0  0  0
  -22.7777  -13.5195   21.1886 C   0  0  0  0  0  0
  -22.1664   -4.2134   21.0977 F   0  0  0  0  0  0
  -21.5637   -3.4540   25.7740 F   0  0  0  0  0  0
  -29.9463  -13.6899   20.3248 N   0  0  0  0  0  0
  -26.2849  -12.9259   20.3359 N   0  0  0  0  0  0
  -25.9258  -11.6433   20.5843 N   0  0  0  0  0  0
  -22.0406  -12.8204   22.0440 N   0  0  0  0  0  0
  -25.4198  -15.1845   20.4264 N   0  0  0  0  0  0
  -31.7960  -14.9612   20.2637 O   0  0  0  0  0  0
  -21.6620   -6.8854   21.4229 O   0  0  0  0  0  0
  -22.3493  -14.5511   20.6725 O   0  0  0  0  0  0
  -24.6398  -31.8475   23.1915 C   0  0  0  0  0  0
  -25.9183  -32.4717   23.8292 C   0  0  1  0  0  0
  -27.2219  -27.1701   20.1309 C   0  0  0  0  0  0
  -25.5946  -33.8523   24.2204 N   0  0  0  0  0  0
  -23.4411  -30.4678   21.5370 C   0  0  2  0  0  0
  -24.8903  -28.9046   20.1056 C   0  0  0  0  0  0
  -22.7546  -29.4562   22.4878 C   0  0  0  0  0  0
  -18.0301  -28.1394   22.8492 C   0  0  0  0  0  0
  -24.1486  -36.7265   23.2641 C   0  0  0  0  0  0
  -25.9953  -30.7297   21.3872 C   0  0  0  0  0  0
  -26.0656  -29.3459   20.7247 C   0  0  0  0  0  0
  -27.2267  -28.4912   20.7281 C   0  0  0  0  0  0
  -26.0139  -26.8219   19.4808 C   0  0  0  0  0  0
  -24.8761  -27.6553   19.4716 C   0  0  0  0  0  0
  -23.6634  -29.8002   20.1543 C   0  0  0  0  0  0
  -25.4121  -36.3048   24.0312 C   0  0  1  0  0  0
  -20.5909  -28.3718   23.1253 C   0  0  2  0  0  0
  -20.6782  -26.9427   22.5414 C   0  0  0  0  0  0
  -19.5755  -26.6384   21.5222 C   0  0  0  0  0  0
  -18.1933  -26.7937   22.1629 C   0  0  0  0  0  0
  -19.1556  -28.8875   23.2862 C   0  0  0  0  0  0
  -18.9472  -30.1475   23.8883 C   0  0  0  0  0  0
  -17.6469  -30.6598   24.0557 C   0  0  0  0  0  0
  -25.9070  -34.9420   23.5065 C   0  0  0  0  0  0
  -16.5360  -29.9090   23.6340 C   0  0  0  0  0  0
  -16.7286  -28.6503   23.0374 C   0  0  0  0  0  0
  -26.4518  -31.6583   25.0725 C   0  0  0  0  0  0
  -25.3703  -31.3761   26.1419 C   0  0  0  0  0  0
  -27.0391  -30.2986   24.6296 C   0  0  0  0  0  0
  -27.6046  -32.4352   25.7513 C   0  0  0  0  0  0
  -27.5579  -37.1787   24.8462 C   0  0  0  0  0  0
  -21.4244  -29.3045   22.3625 N   0  0  0  0  0  0
  -26.4287  -37.3759   23.9409 N   0  0  0  0  0  0
  -24.7116  -31.0352   22.0937 N   0  0  0  0  0  0
  -23.4204  -28.8110   23.3015 O   0  0  0  0  0  0
  -28.2912  -26.2157   20.2521 O   0  0  0  0  0  0
  -26.5655  -34.8915   22.4642 O   0  0  0  0  0  0
  -23.5524  -32.1345   23.7152 O   0  0  0  0  0  0
  -29.9209  -21.4739   21.1870 C   0  0  0  0  0  0
  -29.6751  -22.9013   20.9826 C   0  0  0  0  0  0
  -29.1817  -20.4734   20.4626 C   0  0  0  0  0  0
  -28.6643  -23.3506   20.0642 C   0  0  0  0  0  0
  -29.5578  -17.3030   18.0272 C   0  0  0  0  0  0
  -30.6463  -17.9843   18.8343 C   0  0  0  0  0  0
  -29.0084  -16.1973   18.9418 C   0  0  0  0  0  0
  -30.2292  -17.6671   20.2651 C   0  0  1  0  0  0
  -30.9616  -21.0197   22.2000 C   0  0  0  0  0  0
  -30.5019  -23.9328   21.7355 C   0  0  0  0  0  0
  -29.1650  -18.8529   20.7671 C   0  0  0  0  0  0
  -28.3792  -24.8738   19.4994 C   0  0  0  0  0  0
  -28.2477  -20.9864   19.5943 N   0  0  0  0  0  0
  -28.0169  -22.3250   19.4056 N   0  0  0  0  0  0
  -29.8071  -16.1488   20.1829 N   0  0  0  0  0  0
  -31.4711  -12.7287   19.1605 H   0  0  0  0  0  0
  -30.4455  -11.6360   20.0517 H   0  0  0  0  0  0
  -29.8227  -11.6164   17.6289 H   0  0  0  0  0  0
  -29.6267  -13.3377   17.6163 H   0  0  0  0  0  0
  -27.9249  -11.2413   18.9870 H   0  0  0  0  0  0
  -27.3830  -12.4142   17.8175 H   0  0  0  0  0  0
  -27.5255  -14.1942   19.3872 H   0  0  0  0  0  0
  -28.7752  -12.3454   21.4773 H   0  0  0  0  0  0
  -28.3861  -14.0377   21.7035 H   0  0  0  0  0  0
  -25.2714   -9.5659   22.4791 H   0  0  0  0  0  0
  -23.9966   -7.4601   22.7479 H   0  0  0  0  0  0
  -21.0823   -8.8744   19.8943 H   0  0  0  0  0  0
  -22.3659  -10.9659   19.6193 H   0  0  0  0  0  0
  -21.1989   -7.6132   23.9699 H   0  0  0  0  0  0
  -21.1487   -6.0519   25.9067 H   0  0  0  0  0  0
  -22.0607   -2.7598   23.2852 H   0  0  0  0  0  0
  -22.4019  -11.9859   22.4822 H   0  0  0  0  0  0
  -21.1031  -13.1246   22.2655 H   0  0  0  0  0  0
  -24.6580  -15.8419   20.5522 H   0  0  0  0  0  0
  -26.2873  -15.6301   20.1589 H   0  0  0  0  0  0
  -26.7245  -32.5333   23.1019 H   0  0  0  0  0  0
  -25.0075  -33.9651   25.0338 H   0  0  0  0  0  0
  -22.7418  -31.2930   21.3864 H   0  0  0  0  0  0
  -23.3761  -35.9583   23.3285 H   0  0  0  0  0  0
  -24.3569  -36.8924   22.2061 H   0  0  0  0  0  0
  -23.7232  -37.6449   23.6695 H   0  0  0  0  0  0
  -26.1486  -31.4879   20.6183 H   0  0  0  0  0  0
  -26.8661  -30.7768   22.0294 H   0  0  0  0  0  0
  -28.1192  -28.8203   21.2418 H   0  0  0  0  0  0
  -25.8766  -25.8634   19.0104 H   0  0  0  0  0  0
  -23.9748  -27.3099   18.9836 H   0  0  0  0  0  0
  -23.7906  -30.5756   19.3979 H   0  0  0  0  0  0
  -22.7793  -29.2377   19.8489 H   0  0  0  0  0  0
  -25.1308  -36.1878   25.0803 H   0  0  0  0  0  0
  -21.0002  -28.3305   24.1373 H   0  0  0  0  0  0
  -20.5691  -26.2327   23.3624 H   0  0  0  0  0  0
  -21.6647  -26.7444   22.1205 H   0  0  0  0  0  0
  -19.6913  -25.6290   21.1266 H   0  0  0  0  0  0
  -19.6691  -27.3181   20.6738 H   0  0  0  0  0  0
  -17.4207  -26.6704   21.4025 H   0  0  0  0  0  0
  -18.0318  -26.0078   22.9022 H   0  0  0  0  0  0
  -19.7943  -30.7298   24.2246 H   0  0  0  0  0  0
  -17.5020  -31.6279   24.5157 H   0  0  0  0  0  0
  -15.5361  -30.2984   23.7672 H   0  0  0  0  0  0
  -15.8685  -28.0810   22.7114 H   0  0  0  0  0  0
  -24.5885  -30.7110   25.7735 H   0  0  0  0  0  0
  -24.8886  -32.2943   26.4791 H   0  0  0  0  0  0
  -25.7984  -30.8971   27.0233 H   0  0  0  0  0  0
  -26.3013  -29.6714   24.1280 H   0  0  0  0  0  0
  -27.3992  -29.7279   25.4868 H   0  0  0  0  0  0
  -27.8920  -30.4242   23.9620 H   0  0  0  0  0  0
  -27.2640  -33.3671   26.2039 H   0  0  0  0  0  0
  -28.3885  -32.6894   25.0364 H   0  0  0  0  0  0
  -28.0683  -31.8516   26.5480 H   0  0  0  0  0  0
  -28.2578  -38.0102   24.7534 H   0  0  0  0  0  0
  -28.1097  -36.2634   24.6262 H   0  0  0  0  0  0
  -27.2296  -37.1402   25.8864 H   0  0  0  0  0  0
  -20.9441  -29.8765   21.6820 H   0  0  0  0  0  0
  -26.0156  -38.2822   24.1432 H   0  0  0  0  0  0
  -29.9531  -16.9027   17.0925 H   0  0  0  0  0  0
  -28.7629  -18.0047   17.7709 H   0  0  0  0  0  0
  -30.7306  -19.0501   18.6202 H   0  0  0  0  0  0
  -31.6139  -17.5284   18.6172 H   0  0  0  0  0  0
  -29.0240  -15.2750   18.3679 H   0  0  0  0  0  0
  -27.9689  -16.4058   19.1968 H   0  0  0  0  0  0
  -31.1168  -17.7411   20.8948 H   0  0  0  0  0  0
  -31.8654  -21.6263   22.1429 H   0  0  0  0  0  0
  -31.2662  -19.9873   22.0318 H   0  0  0  0  0  0
  -30.5604  -21.0916   23.2115 H   0  0  0  0  0  0
  -30.5439  -23.6967   22.7987 H   0  0  0  0  0  0
  -30.0845  -24.9353   21.6480 H   0  0  0  0  0  0
  -31.5201  -23.9607   21.3470 H   0  0  0  0  0  0
  -28.1864  -18.5399   20.4042 H   0  0  0  0  0  0
  -29.0735  -18.7574   21.8485 H   0  0  0  0  0  0
  -27.5526  -24.7707   18.8052 H   0  0  0  0  0  0
  -29.2198  -25.0389   18.8258 H   0  0  0  0  0  0
  1 25  1  0  0  0
  1 30  2  0  0  0
  1 85  1  0  0  0
  2  3  1  0  0  0
  2 25  1  0  0  0
  2 86  1  0  0  0
  2 87  1  0  0  0
  3  4  1  0  0  0
  3 88  1  0  0  0
  3 89  1  0  0  0
  4  5  1  0  0  0
  4 90  1  0  0  0
  4 91  1  0  0  0
  5  6  1  0  0  0
  5 26  1  0  0  0
  5 92  1  0  0  0
  6 25  1  0  0  0
  6 93  1  0  0  0
  6 94  1  0  0  0
  7  8  2  0  0  0
  7 26  1  0  0  0
  7 29  1  0  0  0
  8  9  1  0  0  0
  8 22  1  0  0  0
  9 10  1  0  0  0
  9 27  2  0  0  0
 10 11  2  0  0  0
 10 15  1  0  0  0
 11 12  1  0  0  0
 11 95  1  0  0  0
 12 13  2  0  0  0
 12 96  1  0  0  0
 13 14  1  0  0  0
 13 31  1  0  0  0
 14 15  2  0  0  0
 14 97  1  0  0  0
 15 98  1  0  0  0
 16 17  2  0  0  0
 16 21  1  0  0  0
 16 31  1  0  0  0
 17 18  1  0  0  0
 17 99  1  0  0  0
 18 19  2  0  0  0
 18100  1  0  0  0
 19 20  1  0  0  0
 19 24  1  0  0  0
 20 21  2  0  0  0
 20101  1  0  0  0
 21 23  1  0  0  0
 22 28  1  0  0  0
 22 32  2  0  0  0
 26 27  1  0  0  0
 28102  1  0  0  0
 28103  1  0  0  0
 29104  1  0  0  0
 29105  1  0  0  0
 33 34  1  0  0  0
 33 66  1  0  0  0
 33 70  2  0  0  0
 34 36  1  0  0  0
 34 59  1  0  0  0
 34106  1  0  0  0
 35 44  2  0  0  0
 35 45  1  0  0  0
 35 68  1  0  0  0
 36 56  1  0  0  0
 36107  1  0  0  0
 37 39  1  0  0  0
 37 47  1  0  0  0
 37 66  1  0  0  0
 37108  1  0  0  0
 38 43  2  0  0  0
 38 46  1  0  0  0
 38 47  1  0  0  0
 39 64  1  0  0  0
 39 67  2  0  0  0
 40 52  1  0  0  0
 40 53  2  0  0  0
 40 58  1  0  0  0
 41109  1  0  0  0
 41110  1  0  0  0
 41111  1  0  0  0
 41 48  1  0  0  0
 42 43  1  0  0  0
 42 66  1  0  0  0
 42112  1  0  0  0
 42113  1  0  0  0
 43 44  1  0  0  0
 44114  1  0  0  0
 45 46  2  0  0  0
 45115  1  0  0  0
 46116  1  0  0  0
 47117  1  0  0  0
 47118  1  0  0  0
 48 56  1  0  0  0
 48 65  1  0  0  0
 48119  1  0  0  0
 49 50  1  0  0  0
 49 53  1  0  0  0
 49 64  1  0  0  0
 49120  1  0  0  0
 50 51  1  0  0  0
 50121  1  0  0  0
 50122  1  0  0  0
 51 52  1  0  0  0
 51123  1  0  0  0
 51124  1  0  0  0
 52125  1  0  0  0
 52126  1  0  0  0
 53 54  1  0  0  0
 54 55  2  0  0  0
 54127  1  0  0  0
 55 57  1  0  0  0
 55128  1  0  0  0
 56 69  2  0  0  0
 57 58  2  0  0  0
 57129  1  0  0  0
 58130  1  0  0  0
 59 60  1  0  0  0
 59 61  1  0  0  0
 59 62  1  0  0  0
 60131  1  0  0  0
 60132  1  0  0  0
 60133  1  0  0  0
 61134  1  0  0  0
 61135  1  0  0  0
 61136  1  0  0  0
 62137  1  0  0  0
 62138  1  0  0  0
 62139  1  0  0  0
 63 65  1  0  0  0
 63140  1  0  0  0
 63141  1  0  0  0
 63142  1  0  0  0
 64143  1  0  0  0
 65144  1  0  0  0
 68 82  1  0  0  0
 71 72  2  0  0  0
 71 73  1  0  0  0
 71 79  1  0  0  0
 72 74  1  0  0  0
 72 80  1  0  0  0
 73 81  1  0  0  0
 73 83  2  0  0  0
 74 82  1  0  0  0
 74 84  2  0  0  0
 75 76  1  0  0  0
 75 77  1  0  0  0
 75145  1  0  0  0
 75146  1  0  0  0
 76 78  1  0  0  0
 76147  1  0  0  0
 76148  1  0  0  0
 77 85  1  0  0  0
 77149  1  0  0  0
 77150  1  0  0  0
 78 81  1  0  0  0
 78 85  1  0  0  0
 78151  1  0  0  0
 79152  1  0  0  0
 79153  1  0  0  0
 79154  1  0  0  0
 80155  1  0  0  0
 80156  1  0  0  0
 80157  1  0  0  0
 81158  1  0  0  0
 81159  1  0  0  0
 82160  1  0  0  0
 82161  1  0  0  0
 83 84  1  0  0  0
M  ISO  4   1 100  68 101  82 101  85 100
M  END
> <chiral flag>
0

> <version>
0

> <s_m_source_file>
/data/baiqing/PycharmProjects/Reinvent-master-3.2/result/LINK_invent/BTK/process_docking_weight1_custom_sum_contain_oxygen_bond_distance_aromatic_linkinvent_7_9_3/rearranged_h_0179.sdf

> <i_m_source_file_index>
63

> <r_mmod_Potential_Energy-OPLS-2005>
812.340148925781

> <r_mmod_Stretch_Energy-OPLS-2005>
225.316421508789

> <r_mmod_Bend_Energy-OPLS-2005>
307.595062255859

> <r_mmod_Torsional_Energy-OPLS-2005>
358.321624755859

> <r_mmod_Improper_Torsional_Energy-OPLS-2005>
13.7814064025879

> <r_mmod_Van_der_Waal_Energy-OPLS-2005>
138.564590454102

> <r_mmod_Electrostatic_Energy-OPLS-2005>
-194.677047729492

> <r_mmod_Solvation_Energy-OPLS-2005>
-221.140930175781

> <b_mmod_Minimization_Converged-OPLS-2005>
0

> <r_mmod_RMS_Derivative-OPLS-2005>
1.03434062004089

$$$$
63
                    3D
 Structure written by MMmdl.
166176  0  0  1  0            999 V2000
  -30.7163  -14.4793   20.4934 C   0  0  0  0  0  0
  -30.4044  -12.2953   19.4216 C   0  0  0  0  0  0
  -29.4810  -12.4744   18.2009 C   0  0  0  0  0  0
  -28.0041  -12.3486   18.6214 C   0  0  0  0  0  0
  -27.6509  -13.2113   19.8647 C   0  0  2  0  0  0
  -28.6992  -13.0544   20.9881 C   0  0  0  0  0  0
  -25.2565  -13.8169   20.5714 C   0  0  0  0  0  0
  -24.1824  -13.0443   20.9198 C   0  0  0  0  0  0
  -24.6387  -11.6903   20.8767 C   0  0  0  0  0  0
  -23.9065  -10.4278   21.0412 C   0  0  0  0  0  0
  -24.3618   -9.4202   21.9189 C   0  0  0  0  0  0
  -23.6296   -8.2240   22.0756 C   0  0  0  0  0  0
  -22.4275   -8.0283   21.3547 C   0  0  0  0  0  0
  -21.9912   -9.0255   20.4647 C   0  0  0  0  0  0
  -22.7242  -10.2132   20.3062 C   0  0  0  0  0  0
  -21.6855   -6.0743   22.5276 C   0  0  0  0  0  0
  -21.4005   -6.5643   23.8212 C   0  0  0  0  0  0
  -21.3657   -5.6793   24.9174 C   0  0  0  0  0  0
  -21.6052   -4.3058   24.7217 C   0  0  0  0  0  0
  -21.8817   -3.8155   23.4334 C   0  0  0  0  0  0
  -21.9190   -4.6971   22.3395 C   0  0  0  0  0  0
  -22.7850  -13.5242   21.1853 C   0  0  0  0  0  0
  -22.1669   -4.2158   21.0975 F   0  0  0  0  0  0
  -21.5621   -3.4543   25.7734 F   0  0  0  0  0  0
  -30.0219  -13.3155   20.4080 N   0  0  0  0  0  0
  -26.2984  -12.9341   20.3383 N   0  0  0  0  0  0
  -25.9319  -11.6497   20.5812 N   0  0  0  0  0  0
  -22.0511  -12.8213   22.0408 N   0  0  0  0  0  0
  -25.4267  -15.1889   20.4089 N   0  0  0  0  0  0
  -31.9159  -14.5434   20.2111 O   0  0  0  0  0  0
  -21.6643   -6.8887   21.4239 O   0  0  0  0  0  0
  -22.3535  -14.5556   20.6722 O   0  0  0  0  0  0
  -24.6139  -31.8699   23.2126 C   0  0  0  0  0  0
  -25.9043  -32.4829   23.8416 C   0  0  1  0  0  0
  -27.2233  -27.4520   20.0926 C   0  0  0  0  0  0
  -25.5903  -33.8635   24.2327 N   0  0  0  0  0  0
  -23.3991  -30.4978   21.5512 C   0  0  2  0  0  0
  -24.8433  -28.9723   20.1072 C   0  0  0  0  0  0
  -22.7410  -29.4681   22.4990 C   0  0  0  0  0  0
  -18.0272  -28.1370   22.8479 C   0  0  0  0  0  0
  -24.1493  -36.7326   23.2635 C   0  0  0  0  0  0
  -25.9290  -30.8424   21.3645 C   0  0  0  0  0  0
  -26.0040  -29.4829   20.7039 C   0  0  0  0  0  0
  -27.1982  -28.7299   20.6912 C   0  0  0  0  0  0
  -26.0489  -26.9617   19.4737 C   0  0  0  0  0  0
  -24.8627  -27.7134   19.4867 C   0  0  0  0  0  0
  -23.6040  -29.8357   20.1635 C   0  0  0  0  0  0
  -25.4109  -36.3120   24.0336 C   0  0  1  0  0  0
  -20.5858  -28.3653   23.1333 C   0  0  2  0  0  0
  -20.6756  -26.9386   22.5435 C   0  0  0  0  0  0
  -19.5746  -26.6374   21.5224 C   0  0  0  0  0  0
  -18.1920  -26.7918   22.1619 C   0  0  0  0  0  0
  -19.1519  -28.8827   23.2901 C   0  0  0  0  0  0
  -18.9462  -30.1433   23.8904 C   0  0  0  0  0  0
  -17.6469  -30.6573   24.0565 C   0  0  0  0  0  0
  -25.9046  -34.9489   23.5131 C   0  0  0  0  0  0
  -16.5352  -29.9083   23.6328 C   0  0  0  0  0  0
  -16.7265  -28.6507   23.0329 C   0  0  0  0  0  0
  -26.4435  -31.6610   25.0759 C   0  0  0  0  0  0
  -25.3694  -31.3790   26.1522 C   0  0  0  0  0  0
  -27.0215  -30.3035   24.6150 C   0  0  0  0  0  0
  -27.6049  -32.4286   25.7495 C   0  0  0  0  0  0
  -27.5584  -37.1796   24.8450 C   0  0  0  0  0  0
  -21.4137  -29.3036   22.3747 N   0  0  0  0  0  0
  -26.4283  -37.3803   23.9421 N   0  0  0  0  0  0
  -24.6645  -31.0839   22.1005 N   0  0  0  0  0  0
  -23.4198  -28.8214   23.3014 O   0  0  0  0  0  0
  -28.3760  -26.7000   20.1428 O   0  0  0  0  0  0
  -26.5614  -34.8928   22.4696 O   0  0  0  0  0  0
  -23.5340  -32.1441   23.7536 O   0  0  0  0  0  0
  -29.0948  -20.8424   20.6964 C   0  0  0  0  0  0
  -29.4035  -19.8850   19.7106 C   0  0  0  0  0  0
  -29.2844  -22.1905   20.3600 C   0  0  0  0  0  0
  -29.9355  -21.5928   18.2658 C   0  0  0  0  0  0
  -31.5650  -17.3382   21.3007 C   0  0  0  0  0  0
  -31.7095  -17.7590   19.8140 C   0  0  0  0  0  0
  -29.1385  -17.8656   21.2400 C   0  0  0  0  0  0
  -29.8090  -16.2207   19.1285 C   0  0  0  0  0  0
  -30.1622  -16.6979   21.4819 C   0  0  1  0  0  0
  -30.3192  -17.6814   19.1223 C   0  0  1  0  0  0
  -30.4401  -22.0071   16.9006 C   0  0  0  0  0  0
  -29.3543  -24.6135   20.9851 C   0  0  0  0  0  0
  -28.1737  -25.2880   20.2742 C   0  0  0  0  0  0
  -29.7920  -20.2944   18.4889 N   0  0  0  0  0  0
  -29.7081  -22.5580   19.1436 N   0  0  0  0  0  0
  -29.3695  -18.4786   19.9110 N   0  0  0  0  0  0
  -29.9681  -15.6135   20.4742 N   0  0  0  0  0  0
  -29.0756  -23.2089   21.2975 N   0  0  0  0  0  0
  -31.4504  -12.3677   19.1189 H   0  0  0  0  0  0
  -30.2834  -11.2976   19.8471 H   0  0  0  0  0  0
  -29.7129  -11.7267   17.4404 H   0  0  0  0  0  0
  -29.6512  -13.4457   17.7341 H   0  0  0  0  0  0
  -27.8141  -11.2954   18.8365 H   0  0  0  0  0  0
  -27.3486  -12.6077   17.7885 H   0  0  0  0  0  0
  -27.6723  -14.2483   19.5351 H   0  0  0  0  0  0
  -28.6708  -12.0483   21.4087 H   0  0  0  0  0  0
  -28.4861  -13.7392   21.8114 H   0  0  0  0  0  0
  -25.2756   -9.5676   22.4764 H   0  0  0  0  0  0
  -24.0004   -7.4629   22.7460 H   0  0  0  0  0  0
  -21.0857   -8.8778   19.8946 H   0  0  0  0  0  0
  -22.3710  -10.9677   19.6174 H   0  0  0  0  0  0
  -21.2001   -7.6152   23.9723 H   0  0  0  0  0  0
  -21.1480   -6.0523   25.9080 H   0  0  0  0  0  0
  -22.0598   -2.7615   23.2835 H   0  0  0  0  0  0
  -22.4132  -11.9862   22.4765 H   0  0  0  0  0  0
  -21.1135  -13.1217   22.2641 H   0  0  0  0  0  0
  -24.6549  -15.8388   20.5012 H   0  0  0  0  0  0
  -26.2819  -15.6281   20.0919 H   0  0  0  0  0  0
  -26.7117  -32.5515   23.1179 H   0  0  0  0  0  0
  -25.0026  -33.9804   25.0451 H   0  0  0  0  0  0
  -22.6869  -31.3146   21.4151 H   0  0  0  0  0  0
  -23.3756  -35.9649   23.3266 H   0  0  0  0  0  0
  -24.3595  -36.8999   22.2057 H   0  0  0  0  0  0
  -23.7240  -37.6519   23.6677 H   0  0  0  0  0  0
  -26.0513  -31.6141   20.6035 H   0  0  0  0  0  0
  -26.8142  -30.8850   21.9874 H   0  0  0  0  0  0
  -28.0919  -29.1160   21.1628 H   0  0  0  0  0  0
  -26.0366  -26.0015   18.9808 H   0  0  0  0  0  0
  -23.9737  -27.3204   19.0131 H   0  0  0  0  0  0
  -23.7041  -30.6146   19.4077 H   0  0  0  0  0  0
  -22.7290  -29.2561   19.8670 H   0  0  0  0  0  0
  -25.1263  -36.1976   25.0823 H   0  0  0  0  0  0
  -20.9933  -28.3207   24.1463 H   0  0  0  0  0  0
  -20.5681  -26.2244   23.3616 H   0  0  0  0  0  0
  -21.6623  -26.7441   22.1205 H   0  0  0  0  0  0
  -19.6931  -25.6303   21.1227 H   0  0  0  0  0  0
  -19.6708  -27.3207   20.6774 H   0  0  0  0  0  0
  -17.4198  -26.6673   21.4016 H   0  0  0  0  0  0
  -18.0305  -26.0062   22.9015 H   0  0  0  0  0  0
  -19.7945  -30.7236   24.2265 H   0  0  0  0  0  0
  -17.5027  -31.6249   24.5165 H   0  0  0  0  0  0
  -15.5353  -30.2977   23.7654 H   0  0  0  0  0  0
  -15.8664  -28.0837   22.7007 H   0  0  0  0  0  0
  -24.5872  -30.7093   25.7924 H   0  0  0  0  0  0
  -24.8852  -32.2971   26.4871 H   0  0  0  0  0  0
  -25.8031  -30.9067   27.0350 H   0  0  0  0  0  0
  -26.2756  -29.6856   24.1137 H   0  0  0  0  0  0
  -27.3895  -29.7221   25.4615 H   0  0  0  0  0  0
  -27.8635  -30.4315   23.9343 H   0  0  0  0  0  0
  -27.2767  -33.3695   26.1916 H   0  0  0  0  0  0
  -28.3938  -32.6653   25.0341 H   0  0  0  0  0  0
  -28.0584  -31.8465   26.5533 H   0  0  0  0  0  0
  -28.2562  -38.0124   24.7518 H   0  0  0  0  0  0
  -28.1106  -36.2657   24.6200 H   0  0  0  0  0  0
  -27.2313  -37.1366   25.8852 H   0  0  0  0  0  0
  -20.9283  -29.8774   21.6998 H   0  0  0  0  0  0
  -26.0178  -38.2884   24.1423 H   0  0  0  0  0  0
  -28.7552  -20.5722   21.6832 H   0  0  0  0  0  0
  -31.6563  -18.2139   21.9453 H   0  0  0  0  0  0
  -32.3690  -16.6672   21.6005 H   0  0  0  0  0  0
  -32.4123  -17.1007   19.2990 H   0  0  0  0  0  0
  -32.1297  -18.7634   19.7444 H   0  0  0  0  0  0
  -29.2488  -18.5940   22.0411 H   0  0  0  0  0  0
  -28.1152  -17.4913   21.2959 H   0  0  0  0  0  0
  -30.3537  -15.6644   18.3619 H   0  0  0  0  0  0
  -28.7617  -16.1829   18.8278 H   0  0  0  0  0  0
  -30.0426  -16.2974   22.4900 H   0  0  0  0  0  0
  -30.3865  -18.0118   18.0840 H   0  0  0  0  0  0
  -31.0825  -21.2363   16.4735 H   0  0  0  0  0  0
  -31.0214  -22.9276   16.9607 H   0  0  0  0  0  0
  -29.6052  -22.1735   16.2214 H   0  0  0  0  0  0
  -29.5573  -25.1325   21.9214 H   0  0  0  0  0  0
  -30.2605  -24.7091   20.3852 H   0  0  0  0  0  0
  -27.2788  -25.0896   20.8693 H   0  0  0  0  0  0
  -28.0168  -24.8445   19.2903 H   0  0  0  0  0  0
  -28.6584  -22.9867   22.1948 H   0  0  0  0  0  0
  1 25  1  0  0  0
  1 30  2  0  0  0
  1 87  1  0  0  0
  2  3  1  0  0  0
  2 25  1  0  0  0
  2 89  1  0  0  0
  2 90  1  0  0  0
  3  4  1  0  0  0
  3 91  1  0  0  0
  3 92  1  0  0  0
  4  5  1  0  0  0
  4 93  1  0  0  0
  4 94  1  0  0  0
  5  6  1  0  0  0
  5 26  1  0  0  0
  5 95  1  0  0  0
  6 25  1  0  0  0
  6 96  1  0  0  0
  6 97  1  0  0  0
  7  8  2  0  0  0
  7 26  1  0  0  0
  7 29  1  0  0  0
  8  9  1  0  0  0
  8 22  1  0  0  0
  9 10  1  0  0  0
  9 27  2  0  0  0
 10 11  2  0  0  0
 10 15  1  0  0  0
 11 12  1  0  0  0
 11 98  1  0  0  0
 12 13  2  0  0  0
 12 99  1  0  0  0
 13 14  1  0  0  0
 13 31  1  0  0  0
 14 15  2  0  0  0
 14100  1  0  0  0
 15101  1  0  0  0
 16 17  2  0  0  0
 16 21  1  0  0  0
 16 31  1  0  0  0
 17 18  1  0  0  0
 17102  1  0  0  0
 18 19  2  0  0  0
 18103  1  0  0  0
 19 20  1  0  0  0
 19 24  1  0  0  0
 20 21  2  0  0  0
 20104  1  0  0  0
 21 23  1  0  0  0
 22 28  1  0  0  0
 22 32  2  0  0  0
 26 27  1  0  0  0
 28105  1  0  0  0
 28106  1  0  0  0
 29107  1  0  0  0
 29108  1  0  0  0
 33 34  1  0  0  0
 33 66  1  0  0  0
 33 70  2  0  0  0
 34 36  1  0  0  0
 34 59  1  0  0  0
 34109  1  0  0  0
 35 44  2  0  0  0
 35 45  1  0  0  0
 35 68  1  0  0  0
 36 56  1  0  0  0
 36110  1  0  0  0
 37 39  1  0  0  0
 37 47  1  0  0  0
 37 66  1  0  0  0
 37111  1  0  0  0
 38 43  2  0  0  0
 38 46  1  0  0  0
 38 47  1  0  0  0
 39 64  1  0  0  0
 39 67  2  0  0  0
 40 52  1  0  0  0
 40 53  2  0  0  0
 40 58  1  0  0  0
 41112  1  0  0  0
 41113  1  0  0  0
 41114  1  0  0  0
 41 48  1  0  0  0
 42 43  1  0  0  0
 42 66  1  0  0  0
 42115  1  0  0  0
 42116  1  0  0  0
 43 44  1  0  0  0
 44117  1  0  0  0
 45 46  2  0  0  0
 45118  1  0  0  0
 46119  1  0  0  0
 47120  1  0  0  0
 47121  1  0  0  0
 48 56  1  0  0  0
 48 65  1  0  0  0
 48122  1  0  0  0
 49 50  1  0  0  0
 49 53  1  0  0  0
 49 64  1  0  0  0
 49123  1  0  0  0
 50 51  1  0  0  0
 50124  1  0  0  0
 50125  1  0  0  0
 51 52  1  0  0  0
 51126  1  0  0  0
 51127  1  0  0  0
 52128  1  0  0  0
 52129  1  0  0  0
 53 54  1  0  0  0
 54 55  2  0  0  0
 54130  1  0  0  0
 55 57  1  0  0  0
 55131  1  0  0  0
 56 69  2  0  0  0
 57 58  2  0  0  0
 57132  1  0  0  0
 58133  1  0  0  0
 59 60  1  0  0  0
 59 61  1  0  0  0
 59 62  1  0  0  0
 60134  1  0  0  0
 60135  1  0  0  0
 60136  1  0  0  0
 61137  1  0  0  0
 61138  1  0  0  0
 61139  1  0  0  0
 62140  1  0  0  0
 62141  1  0  0  0
 62142  1  0  0  0
 63 65  1  0  0  0
 63143  1  0  0  0
 63144  1  0  0  0
 63145  1  0  0  0
 64146  1  0  0  0
 65147  1  0  0  0
 68 83  1  0  0  0
 71 72  2  0  0  0
 71 73  1  0  0  0
 71148  1  0  0  0
 72 84  1  0  0  0
 72 86  1  0  0  0
 73 85  2  0  0  0
 73 88  1  0  0  0
 74 81  1  0  0  0
 74 84  2  0  0  0
 74 85  1  0  0  0
 75 76  1  0  0  0
 75149  1  0  0  0
 75150  1  0  0  0
 75 79  1  0  0  0
 76151  1  0  0  0
 76152  1  0  0  0
 76 80  1  0  0  0
 77 79  1  0  0  0
 77 86  1  0  0  0
 77153  1  0  0  0
 77154  1  0  0  0
 78 80  1  0  0  0
 78 87  1  0  0  0
 78155  1  0  0  0
 78156  1  0  0  0
 79 87  1  0  0  0
 79157  1  0  0  0
 80 86  1  0  0  0
 80158  1  0  0  0
 81159  1  0  0  0
 81160  1  0  0  0
 81161  1  0  0  0
 82 83  1  0  0  0
 82 88  1  0  0  0
 82162  1  0  0  0
 82163  1  0  0  0
 83164  1  0  0  0
 83165  1  0  0  0
 88166  1  0  0  0
M  ISO  4   1 100  68 101  83 101  87 100
M  END
> <chiral flag>
0

> <version>
0

> <s_m_source_file>
/data/baiqing/PycharmProjects/Reinvent-master-3.2/result/LINK_invent/BTK/process_docking_weight1_custom_sum_contain_oxygen_bond_distance_aromatic_linkinvent_7_9_3/rearranged_h_0179.sdf

> <i_m_source_file_index>
64

> <r_mmod_Potential_Energy-OPLS-2005>
-321.311309814453

> <r_mmod_Stretch_Energy-OPLS-2005>
43.9860496520996

> <r_mmod_Bend_Energy-OPLS-2005>
135.005722045898

> <r_mmod_Torsional_Energy-OPLS-2005>
406.084808349609

> <r_mmod_Improper_Torsional_Energy-OPLS-2005>
19.6676445007324

> <r_mmod_Van_der_Waal_Energy-OPLS-2005>
219.030166625977

> <r_mmod_Electrostatic_Energy-OPLS-2005>
-932.365478515625

> <r_mmod_Solvation_Energy-OPLS-2005>
-235.585983276367

> <b_mmod_Minimization_Converged-OPLS-2005>
0

> <r_mmod_RMS_Derivative-OPLS-2005>
2.92992186546326

$$$$
64
                    3D
 Structure written by MMmdl.
151159  0  0  1  0            999 V2000
  -30.3924  -15.3588   20.3637 C   0  0  0  0  0  0
  -30.4401  -12.8769   19.5167 C   0  0  0  0  0  0
  -29.5375  -12.5895   18.2892 C   0  0  0  0  0  0
  -28.0920  -12.2943   18.7262 C   0  0  0  0  0  0
  -27.6080  -13.2774   19.8200 C   0  0  2  0  0  0
  -28.6440  -13.4822   20.9463 C   0  0  0  0  0  0
  -25.2387  -13.8249   20.5771 C   0  0  0  0  0  0
  -24.1740  -13.0424   20.9274 C   0  0  0  0  0  0
  -24.6400  -11.6925   20.8768 C   0  0  0  0  0  0
  -23.9085  -10.4281   21.0409 C   0  0  0  0  0  0
  -24.3636   -9.4195   21.9183 C   0  0  0  0  0  0
  -23.6309   -8.2231   22.0752 C   0  0  0  0  0  0
  -22.4292   -8.0273   21.3538 C   0  0  0  0  0  0
  -21.9932   -9.0237   20.4631 C   0  0  0  0  0  0
  -22.7265  -10.2115   20.3044 C   0  0  0  0  0  0
  -21.6850   -6.0736   22.5278 C   0  0  0  0  0  0
  -21.4019   -6.5639   23.8213 C   0  0  0  0  0  0
  -21.3659   -5.6789   24.9174 C   0  0  0  0  0  0
  -21.6048   -4.3052   24.7226 C   0  0  0  0  0  0
  -21.8830   -3.8143   23.4350 C   0  0  0  0  0  0
  -21.9189   -4.6961   22.3404 C   0  0  0  0  0  0
  -22.7759  -13.5182   21.1902 C   0  0  0  0  0  0
  -22.1668   -4.2141   21.0986 F   0  0  0  0  0  0
  -21.5625   -3.4541   25.7740 F   0  0  0  0  0  0
  -29.8508  -14.0314   20.3008 N   0  0  0  0  0  0
  -26.2805  -12.9517   20.3222 N   0  0  0  0  0  0
  -25.9331  -11.6615   20.5705 N   0  0  0  0  0  0
  -22.0424  -12.8150   22.0457 N   0  0  0  0  0  0
  -25.4028  -15.1987   20.4247 N   0  0  0  0  0  0
  -31.6260  -15.3465   20.2150 O   0  0  0  0  0  0
  -21.6655   -6.8876   21.4236 O   0  0  0  0  0  0
  -22.3429  -14.5461   20.6716 O   0  0  0  0  0  0
  -24.6688  -31.8174   23.1631 C   0  0  0  0  0  0
  -25.9345  -32.4556   23.8116 C   0  0  1  0  0  0
  -27.2221  -26.8686   20.2006 C   0  0  0  0  0  0
  -25.5992  -33.8368   24.2030 N   0  0  0  0  0  0
  -23.4848  -30.4250   21.5160 C   0  0  2  0  0  0
  -24.9360  -28.7908   20.1245 C   0  0  0  0  0  0
  -22.7687  -29.4420   22.4792 C   0  0  0  0  0  0
  -18.0331  -28.1426   22.8472 C   0  0  0  0  0  0
  -24.1500  -36.7193   23.2650 C   0  0  0  0  0  0
  -26.0572  -30.6061   21.3993 C   0  0  0  0  0  0
  -26.1245  -29.1861   20.7521 C   0  0  0  0  0  0
  -27.2632  -28.2514   20.7534 C   0  0  0  0  0  0
  -25.9990  -26.6339   19.5325 C   0  0  0  0  0  0
  -24.9017  -27.5365   19.4924 C   0  0  0  0  0  0
  -23.7260  -29.7271   20.1488 C   0  0  0  0  0  0
  -25.4147  -36.2942   24.0293 C   0  0  1  0  0  0
  -20.5953  -28.3771   23.1188 C   0  0  2  0  0  0
  -20.6807  -26.9449   22.5409 C   0  0  0  0  0  0
  -19.5776  -26.6386   21.5221 C   0  0  0  0  0  0
  -18.1959  -26.7961   22.1627 C   0  0  0  0  0  0
  -19.1590  -28.8923   23.2815 C   0  0  0  0  0  0
  -18.9497  -30.1518   23.8841 C   0  0  0  0  0  0
  -17.6486  -30.6610   24.0562 C   0  0  0  0  0  0
  -25.9113  -34.9331   23.4990 C   0  0  0  0  0  0
  -16.5380  -29.9090   23.6355 C   0  0  0  0  0  0
  -16.7312  -28.6515   23.0367 C   0  0  0  0  0  0
  -26.4566  -31.6517   25.0665 C   0  0  0  0  0  0
  -25.3668  -31.3790   26.1304 C   0  0  0  0  0  0
  -27.0470  -30.2881   24.6433 C   0  0  0  0  0  0
  -27.6047  -32.4336   25.7480 C   0  0  0  0  0  0
  -27.5574  -37.1754   24.8463 C   0  0  0  0  0  0
  -21.4354  -29.3037   22.3522 N   0  0  0  0  0  0
  -26.4287  -37.3684   23.9400 N   0  0  0  0  0  0
  -24.7594  -30.9775   22.0799 N   0  0  0  0  0  0
  -23.4210  -28.8003   23.3064 O   0  0  0  0  0  0
  -28.2609  -25.7796   20.1498 O   0  0  0  0  0  0
  -26.5729  -34.8881   22.4589 O   0  0  0  0  0  0
  -23.5746  -32.1167   23.6705 O   0  0  0  0  0  0
  -30.9706  -18.6425   21.1411 C   0  0  0  0  0  0
  -30.5188  -21.0001   21.1603 C   0  0  0  0  0  0
  -29.2837  -20.9248   20.4589 C   0  0  0  0  0  0
  -29.7861  -18.2612   20.4752 C   0  0  0  0  0  0
  -31.1062  -22.3276   21.5953 C   0  0  0  0  0  0
  -27.1671  -22.0838   19.3332 C   0  0  0  0  0  0
  -28.2830  -24.1579   20.6077 C   0  0  0  0  0  0
  -28.5373  -22.4614   19.9103 C   0  0  1  0  0  0
  -31.3050  -19.9243   21.4707 N   0  0  0  0  0  0
  -28.9801  -19.4878   20.1394 N   0  0  0  0  0  0
  -29.5966  -16.6363   20.3347 N   0  0  0  0  0  0
  -31.4486  -13.1079   19.1717 H   0  0  0  0  0  0
  -30.5452  -11.9856   20.1385 H   0  0  0  0  0  0
  -29.9315  -11.7554   17.7070 H   0  0  0  0  0  0
  -29.5474  -13.4577   17.6297 H   0  0  0  0  0  0
  -28.0682  -11.2759   19.1163 H   0  0  0  0  0  0
  -27.4223  -12.3124   17.8655 H   0  0  0  0  0  0
  -27.5117  -14.2339   19.3048 H   0  0  0  0  0  0
  -28.8450  -12.5527   21.4812 H   0  0  0  0  0  0
  -28.2708  -14.1886   21.6891 H   0  0  0  0  0  0
  -25.2787   -9.5667   22.4750 H   0  0  0  0  0  0
  -24.0013   -7.4630   22.7490 H   0  0  0  0  0  0
  -21.0865   -8.8759   19.8932 H   0  0  0  0  0  0
  -22.3732  -10.9655   19.6152 H   0  0  0  0  0  0
  -21.2004   -7.6147   23.9702 H   0  0  0  0  0  0
  -21.1488   -6.0534   25.9074 H   0  0  0  0  0  0
  -22.0597   -2.7604   23.2859 H   0  0  0  0  0  0
  -22.4096  -11.9847   22.4866 H   0  0  0  0  0  0
  -21.1006  -13.1104   22.2611 H   0  0  0  0  0  0
  -24.6347  -15.8508   20.5470 H   0  0  0  0  0  0
  -26.2404  -15.6396   20.0699 H   0  0  0  0  0  0
  -26.7418  -32.5070   23.0830 H   0  0  0  0  0  0
  -25.0070  -33.9430   25.0136 H   0  0  0  0  0  0
  -22.8009  -31.2576   21.3367 H   0  0  0  0  0  0
  -23.3770  -35.9512   23.3277 H   0  0  0  0  0  0
  -24.3576  -36.8880   22.2066 H   0  0  0  0  0  0
  -23.7239  -37.6367   23.6735 H   0  0  0  0  0  0
  -26.2396  -31.3390   20.6127 H   0  0  0  0  0  0
  -26.9160  -30.6687   22.0548 H   0  0  0  0  0  0
  -28.1745  -28.5667   21.2424 H   0  0  0  0  0  0
  -25.8739  -25.6806   19.0382 H   0  0  0  0  0  0
  -24.0012  -27.2308   18.9776 H   0  0  0  0  0  0
  -23.8849  -30.4860   19.3820 H   0  0  0  0  0  0
  -22.8344  -29.1808   19.8368 H   0  0  0  0  0  0
  -25.1344  -36.1732   25.0780 H   0  0  0  0  0  0
  -21.0043  -28.3393   24.1309 H   0  0  0  0  0  0
  -20.5699  -26.2388   23.3654 H   0  0  0  0  0  0
  -21.6671  -26.7428   22.1199 H   0  0  0  0  0  0
  -19.6939  -25.6277   21.1287 H   0  0  0  0  0  0
  -19.6729  -27.3167   20.6726 H   0  0  0  0  0  0
  -17.4232  -26.6716   21.4029 H   0  0  0  0  0  0
  -18.0359  -26.0119   22.9034 H   0  0  0  0  0  0
  -19.7968  -30.7360   24.2179 H   0  0  0  0  0  0
  -17.5031  -31.6281   24.5180 H   0  0  0  0  0  0
  -15.5375  -30.2968   23.7717 H   0  0  0  0  0  0
  -15.8719  -28.0816   22.7106 H   0  0  0  0  0  0
  -24.5866  -30.7141   25.7579 H   0  0  0  0  0  0
  -24.8851  -32.3006   26.4580 H   0  0  0  0  0  0
  -25.7870  -30.9025   27.0172 H   0  0  0  0  0  0
  -26.3149  -29.6540   24.1424 H   0  0  0  0  0  0
  -27.3966  -29.7262   25.5101 H   0  0  0  0  0  0
  -27.9097  -30.4043   23.9875 H   0  0  0  0  0  0
  -27.2611  -33.3684   26.1923 H   0  0  0  0  0  0
  -28.3931  -32.6824   25.0362 H   0  0  0  0  0  0
  -28.0641  -31.8551   26.5506 H   0  0  0  0  0  0
  -28.2553  -38.0081   24.7520 H   0  0  0  0  0  0
  -28.1107  -36.2606   24.6286 H   0  0  0  0  0  0
  -27.2297  -37.1388   25.8867 H   0  0  0  0  0  0
  -20.9642  -29.8679   21.6588 H   0  0  0  0  0  0
  -26.0130  -38.2740   24.1408 H   0  0  0  0  0  0
  -31.6720  -17.8872   21.4650 H   0  0  0  0  0  0
  -32.0361  -22.1949   22.1511 H   0  0  0  0  0  0
  -30.4173  -22.8415   22.2625 H   0  0  0  0  0  0
  -31.3194  -22.9596   20.7331 H   0  0  0  0  0  0
  -27.2659  -21.3105   18.5710 H   0  0  0  0  0  0
  -26.6750  -22.9409   18.8717 H   0  0  0  0  0  0
  -26.5119  -21.7018   20.1152 H   0  0  0  0  0  0
  -29.1245  -24.2409   21.2881 H   0  0  0  0  0  0
  -27.4361  -24.0635   21.2873 H   0  0  0  0  0  0
  -29.1748  -22.6787   19.0533 H   0  0  0  0  0  0
  -28.6215  -16.4039   20.2399 H   0  0  0  0  0  0
  1 25  1  0  0  0
  1 30  2  0  0  0
  1 81  1  0  0  0
  2  3  1  0  0  0
  2 25  1  0  0  0
  2 82  1  0  0  0
  2 83  1  0  0  0
  3  4  1  0  0  0
  3 84  1  0  0  0
  3 85  1  0  0  0
  4  5  1  0  0  0
  4 86  1  0  0  0
  4 87  1  0  0  0
  5  6  1  0  0  0
  5 26  1  0  0  0
  5 88  1  0  0  0
  6 25  1  0  0  0
  6 89  1  0  0  0
  6 90  1  0  0  0
  7  8  2  0  0  0
  7 26  1  0  0  0
  7 29  1  0  0  0
  8  9  1  0  0  0
  8 22  1  0  0  0
  9 10  1  0  0  0
  9 27  2  0  0  0
 10 11  2  0  0  0
 10 15  1  0  0  0
 11 12  1  0  0  0
 11 91  1  0  0  0
 12 13  2  0  0  0
 12 92  1  0  0  0
 13 14  1  0  0  0
 13 31  1  0  0  0
 14 15  2  0  0  0
 14 93  1  0  0  0
 15 94  1  0  0  0
 16 17  2  0  0  0
 16 21  1  0  0  0
 16 31  1  0  0  0
 17 18  1  0  0  0
 17 95  1  0  0  0
 18 19  2  0  0  0
 18 96  1  0  0  0
 19 20  1  0  0  0
 19 24  1  0  0  0
 20 21  2  0  0  0
 20 97  1  0  0  0
 21 23  1  0  0  0
 22 28  1  0  0  0
 22 32  2  0  0  0
 26 27  1  0  0  0
 28 98  1  0  0  0
 28 99  1  0  0  0
 29100  1  0  0  0
 29101  1  0  0  0
 33 34  1  0  0  0
 33 66  1  0  0  0
 33 70  2  0  0  0
 34 36  1  0  0  0
 34 59  1  0  0  0
 34102  1  0  0  0
 35 44  2  0  0  0
 35 45  1  0  0  0
 35 68  1  0  0  0
 36 56  1  0  0  0
 36103  1  0  0  0
 37 39  1  0  0  0
 37 47  1  0  0  0
 37 66  1  0  0  0
 37104  1  0  0  0
 38 43  2  0  0  0
 38 46  1  0  0  0
 38 47  1  0  0  0
 39 64  1  0  0  0
 39 67  2  0  0  0
 40 52  1  0  0  0
 40 53  2  0  0  0
 40 58  1  0  0  0
 41105  1  0  0  0
 41106  1  0  0  0
 41107  1  0  0  0
 41 48  1  0  0  0
 42 43  1  0  0  0
 42 66  1  0  0  0
 42108  1  0  0  0
 42109  1  0  0  0
 43 44  1  0  0  0
 44110  1  0  0  0
 45 46  2  0  0  0
 45111  1  0  0  0
 46112  1  0  0  0
 47113  1  0  0  0
 47114  1  0  0  0
 48 56  1  0  0  0
 48 65  1  0  0  0
 48115  1  0  0  0
 49 50  1  0  0  0
 49 53  1  0  0  0
 49 64  1  0  0  0
 49116  1  0  0  0
 50 51  1  0  0  0
 50117  1  0  0  0
 50118  1  0  0  0
 51 52  1  0  0  0
 51119  1  0  0  0
 51120  1  0  0  0
 52121  1  0  0  0
 52122  1  0  0  0
 53 54  1  0  0  0
 54 55  2  0  0  0
 54123  1  0  0  0
 55 57  1  0  0  0
 55124  1  0  0  0
 56 69  2  0  0  0
 57 58  2  0  0  0
 57125  1  0  0  0
 58126  1  0  0  0
 59 60  1  0  0  0
 59 61  1  0  0  0
 59 62  1  0  0  0
 60127  1  0  0  0
 60128  1  0  0  0
 60129  1  0  0  0
 61130  1  0  0  0
 61131  1  0  0  0
 61132  1  0  0  0
 62133  1  0  0  0
 62134  1  0  0  0
 62135  1  0  0  0
 63 65  1  0  0  0
 63136  1  0  0  0
 63137  1  0  0  0
 63138  1  0  0  0
 64139  1  0  0  0
 65140  1  0  0  0
 68 77  1  0  0  0
 71 74  2  0  0  0
 71 79  1  0  0  0
 71141  1  0  0  0
 72 73  1  0  0  0
 72 75  1  0  0  0
 72 79  2  0  0  0
 73 78  1  0  0  0
 73 80  2  0  0  0
 74 80  1  0  0  0
 74 81  1  0  0  0
 75142  1  0  0  0
 75143  1  0  0  0
 75144  1  0  0  0
 76145  1  0  0  0
 76146  1  0  0  0
 76147  1  0  0  0
 76 78  1  0  0  0
 77 78  1  0  0  0
 77148  1  0  0  0
 77149  1  0  0  0
 78150  1  0  0  0
 81151  1  0  0  0
M  ISO  4   1 100  68 101  77 101  81 100
M  END
> <chiral flag>
0

> <version>
0

> <s_m_source_file>
/data/baiqing/PycharmProjects/Reinvent-master-3.2/result/LINK_invent/BTK/process_docking_weight1_custom_sum_contain_oxygen_bond_distance_aromatic_linkinvent_7_9_3/rearranged_h_0179.sdf

> <i_m_source_file_index>
65

> <r_mmod_Potential_Energy-OPLS-2005>
1552.61511230469

> <r_mmod_Stretch_Energy-OPLS-2005>
714.635925292969

> <r_mmod_Bend_Energy-OPLS-2005>
499.20849609375

> <r_mmod_Torsional_Energy-OPLS-2005>
250.387145996094

> <r_mmod_Improper_Torsional_Energy-OPLS-2005>
7.34836196899414

> <r_mmod_Van_der_Waal_Energy-OPLS-2005>
122.845031738281

> <r_mmod_Electrostatic_Energy-OPLS-2005>
-359.595794677734

> <r_mmod_Solvation_Energy-OPLS-2005>
-225.066970825195

> <b_mmod_Minimization_Converged-OPLS-2005>
0

> <r_mmod_RMS_Derivative-OPLS-2005>
2.1906795501709

$$$$
65
                    3D
 Structure written by MMmdl.
157166  0  0  1  0            999 V2000
  -30.6122  -14.9366   20.4255 C   0  0  0  0  0  0
  -30.4181  -12.5897   19.4941 C   0  0  0  0  0  0
  -29.5082  -12.5218   18.2499 C   0  0  0  0  0  0
  -28.0439  -12.3148   18.6739 C   0  0  0  0  0  0
  -27.6215  -13.2577   19.8321 C   0  0  2  0  0  0
  -28.6667  -13.3184   20.9654 C   0  0  0  0  0  0
  -25.2426  -13.8239   20.5736 C   0  0  0  0  0  0
  -24.1756  -13.0446   20.9244 C   0  0  0  0  0  0
  -24.6389  -11.6937   20.8768 C   0  0  0  0  0  0
  -23.9082  -10.4298   21.0411 C   0  0  0  0  0  0
  -24.3630   -9.4210   21.9186 C   0  0  0  0  0  0
  -23.6302   -8.2246   22.0754 C   0  0  0  0  0  0
  -22.4284   -8.0284   21.3544 C   0  0  0  0  0  0
  -21.9923   -9.0259   20.4646 C   0  0  0  0  0  0
  -22.7254  -10.2137   20.3058 C   0  0  0  0  0  0
  -21.6856   -6.0738   22.5278 C   0  0  0  0  0  0
  -21.4017   -6.5641   23.8212 C   0  0  0  0  0  0
  -21.3660   -5.6794   24.9174 C   0  0  0  0  0  0
  -21.6044   -4.3056   24.7224 C   0  0  0  0  0  0
  -21.8818   -3.8148   23.4346 C   0  0  0  0  0  0
  -21.9194   -4.6965   22.3402 C   0  0  0  0  0  0
  -22.7775  -13.5207   21.1890 C   0  0  0  0  0  0
  -22.1662   -4.2150   21.0980 F   0  0  0  0  0  0
  -21.5628   -3.4539   25.7737 F   0  0  0  0  0  0
  -29.9335  -13.7197   20.3437 N   0  0  0  0  0  0
  -26.2853  -12.9493   20.3260 N   0  0  0  0  0  0
  -25.9324  -11.6611   20.5760 N   0  0  0  0  0  0
  -22.0431  -12.8190   22.0446 N   0  0  0  0  0  0
  -25.4083  -15.1964   20.4159 N   0  0  0  0  0  0
  -31.8244  -14.8796   20.1873 O   0  0  0  0  0  0
  -21.6645   -6.8882   21.4240 O   0  0  0  0  0  0
  -22.3454  -14.5507   20.6730 O   0  0  0  0  0  0
  -24.6441  -31.8441   23.1887 C   0  0  0  0  0  0
  -25.9213  -32.4694   23.8275 C   0  0  1  0  0  0
  -27.2077  -27.1292   20.1483 C   0  0  0  0  0  0
  -25.5958  -33.8501   24.2190 N   0  0  0  0  0  0
  -23.4473  -30.4650   21.5346 C   0  0  2  0  0  0
  -24.8953  -28.8943   20.1078 C   0  0  0  0  0  0
  -22.7570  -29.4549   22.4855 C   0  0  0  0  0  0
  -18.0306  -28.1396   22.8478 C   0  0  0  0  0  0
  -24.1492  -36.7254   23.2642 C   0  0  0  0  0  0
  -26.0046  -30.7152   21.3895 C   0  0  0  0  0  0
  -26.0738  -29.3270   20.7289 C   0  0  0  0  0  0
  -27.2316  -28.4602   20.7333 C   0  0  0  0  0  0
  -26.0052  -26.8057   19.4804 C   0  0  0  0  0  0
  -24.8746  -27.6478   19.4676 C   0  0  0  0  0  0
  -23.6734  -29.7977   20.1527 C   0  0  0  0  0  0
  -25.4125  -36.3031   24.0315 C   0  0  1  0  0  0
  -20.5919  -28.3724   23.1233 C   0  0  2  0  0  0
  -20.6790  -26.9426   22.5402 C   0  0  0  0  0  0
  -19.5763  -26.6382   21.5212 C   0  0  0  0  0  0
  -18.1945  -26.7934   22.1625 C   0  0  0  0  0  0
  -19.1563  -28.8878   23.2847 C   0  0  0  0  0  0
  -18.9479  -30.1474   23.8874 C   0  0  0  0  0  0
  -17.6475  -30.6593   24.0559 C   0  0  0  0  0  0
  -25.9076  -34.9407   23.5060 C   0  0  0  0  0  0
  -16.5366  -29.9085   23.6337 C   0  0  0  0  0  0
  -16.7290  -28.6504   23.0358 C   0  0  0  0  0  0
  -26.4529  -31.6565   25.0720 C   0  0  0  0  0  0
  -25.3710  -31.3757   26.1412 C   0  0  0  0  0  0
  -27.0399  -30.2959   24.6311 C   0  0  0  0  0  0
  -27.6054  -32.4336   25.7509 C   0  0  0  0  0  0
  -27.5575  -37.1785   24.8465 C   0  0  0  0  0  0
  -21.4262  -29.3050   22.3604 N   0  0  0  0  0  0
  -26.4287  -37.3745   23.9407 N   0  0  0  0  0  0
  -24.7186  -31.0292   22.0925 N   0  0  0  0  0  0
  -23.4213  -28.8094   23.3004 O   0  0  0  0  0  0
  -28.2405  -26.1235   20.2350 O   0  0  0  0  0  0
  -26.5661  -34.8904   22.4639 O   0  0  0  0  0  0
  -23.5559  -32.1322   23.7103 O   0  0  0  0  0  0
  -30.5773  -21.2752   21.1520 C   0  0  0  0  0  0
  -30.8524  -22.6390   21.3468 C   0  0  0  0  0  0
  -29.3772  -20.9011   20.5483 C   0  0  0  0  0  0
  -28.8619  -23.3185   20.4050 C   0  0  0  0  0  0
  -29.8845  -18.7318   19.2860 C   0  0  0  0  0  0
  -30.6951  -17.3821   19.6581 C   0  0  0  0  0  0
  -28.9238  -16.8871   21.1644 C   0  0  0  0  0  0
  -29.0653  -18.4812   21.5073 C   0  0  2  0  0  0
  -27.9521  -18.8914   22.4824 C   0  0  0  0  0  0
  -27.9062  -24.6098   20.0266 C   0  0  0  0  0  0
  -30.0156  -23.6340   20.9836 N   0  0  0  0  0  0
  -28.5322  -21.9703   20.1773 N   0  0  0  0  0  0
  -29.1241  -19.4458   20.3535 N   0  0  0  0  0  0
  -29.9888  -16.2282   20.3304 N   0  0  0  0  0  0
  -31.4551  -12.7123   19.1782 H   0  0  0  0  0  0
  -30.3905  -11.6495   20.0474 H   0  0  0  0  0  0
  -29.8256  -11.7139   17.5892 H   0  0  0  0  0  0
  -29.5996  -13.4446   17.6748 H   0  0  0  0  0  0
  -27.9410  -11.2760   18.9897 H   0  0  0  0  0  0
  -27.3784  -12.4398   17.8189 H   0  0  0  0  0  0
  -27.5754  -14.2543   19.3916 H   0  0  0  0  0  0
  -28.7593  -12.3569   21.4726 H   0  0  0  0  0  0
  -28.3669  -14.0424   21.7235 H   0  0  0  0  0  0
  -25.2772   -9.5687   22.4766 H   0  0  0  0  0  0
  -24.0009   -7.4637   22.7474 H   0  0  0  0  0  0
  -21.0854   -8.8781   19.8952 H   0  0  0  0  0  0
  -22.3711  -10.9679   19.6171 H   0  0  0  0  0  0
  -21.2011   -7.6149   23.9715 H   0  0  0  0  0  0
  -21.1482   -6.0524   25.9077 H   0  0  0  0  0  0
  -22.0597   -2.7610   23.2845 H   0  0  0  0  0  0
  -22.4062  -11.9860   22.4839 H   0  0  0  0  0  0
  -21.1043  -13.1198   22.2648 H   0  0  0  0  0  0
  -24.6402  -15.8487   20.5299 H   0  0  0  0  0  0
  -26.2558  -15.6360   20.0822 H   0  0  0  0  0  0
  -26.7277  -32.5296   23.1001 H   0  0  0  0  0  0
  -25.0082  -33.9615   25.0321 H   0  0  0  0  0  0
  -22.7501  -31.2915   21.3818 H   0  0  0  0  0  0
  -23.3759  -35.9581   23.3292 H   0  0  0  0  0  0
  -24.3576  -36.8900   22.2059 H   0  0  0  0  0  0
  -23.7243  -37.6445   23.6688 H   0  0  0  0  0  0
  -26.1632  -31.4704   20.6185 H   0  0  0  0  0  0
  -26.8741  -30.7629   22.0335 H   0  0  0  0  0  0
  -28.1266  -28.7833   21.2463 H   0  0  0  0  0  0
  -25.8952  -25.8566   18.9787 H   0  0  0  0  0  0
  -23.9760  -27.3137   18.9670 H   0  0  0  0  0  0
  -23.8113  -30.5738   19.3990 H   0  0  0  0  0  0
  -22.7874  -29.2419   19.8405 H   0  0  0  0  0  0
  -25.1314  -36.1858   25.0807 H   0  0  0  0  0  0
  -21.0012  -28.3315   24.1354 H   0  0  0  0  0  0
  -20.5685  -26.2338   23.3623 H   0  0  0  0  0  0
  -21.6656  -26.7432   22.1200 H   0  0  0  0  0  0
  -19.6923  -25.6287   21.1258 H   0  0  0  0  0  0
  -19.6698  -27.3178   20.6731 H   0  0  0  0  0  0
  -17.4213  -26.6677   21.4030 H   0  0  0  0  0  0
  -18.0346  -26.0083   22.9029 H   0  0  0  0  0  0
  -19.7954  -30.7296   24.2233 H   0  0  0  0  0  0
  -17.5028  -31.6270   24.5165 H   0  0  0  0  0  0
  -15.5365  -30.2979   23.7674 H   0  0  0  0  0  0
  -15.8691  -28.0813   22.7088 H   0  0  0  0  0  0
  -24.5894  -30.7101   25.7731 H   0  0  0  0  0  0
  -24.8896  -32.2940   26.4783 H   0  0  0  0  0  0
  -25.7990  -30.8965   27.0226 H   0  0  0  0  0  0
  -26.3021  -29.6677   24.1307 H   0  0  0  0  0  0
  -27.3993  -29.7265   25.4893 H   0  0  0  0  0  0
  -27.8937  -30.4192   23.9646 H   0  0  0  0  0  0
  -27.2641  -33.3654   26.2031 H   0  0  0  0  0  0
  -28.3896  -32.6870   25.0362 H   0  0  0  0  0  0
  -28.0689  -31.8500   26.5474 H   0  0  0  0  0  0
  -28.2584  -38.0089   24.7512 H   0  0  0  0  0  0
  -28.1080  -36.2618   24.6294 H   0  0  0  0  0  0
  -27.2291  -37.1432   25.8868 H   0  0  0  0  0  0
  -20.9472  -29.8765   21.6785 H   0  0  0  0  0  0
  -26.0152  -38.2812   24.1411 H   0  0  0  0  0  0
  -31.2993  -20.5363   21.4676 H   0  0  0  0  0  0
  -31.7785  -22.9434   21.8117 H   0  0  0  0  0  0
  -29.1686  -18.4937   18.4984 H   0  0  0  0  0  0
  -30.5833  -19.4366   18.8318 H   0  0  0  0  0  0
  -31.5463  -17.6519   20.2858 H   0  0  0  0  0  0
  -31.1354  -17.0053   18.7331 H   0  0  0  0  0  0
  -27.9696  -16.7128   20.6674 H   0  0  0  0  0  0
  -28.8690  -16.3382   22.1055 H   0  0  0  0  0  0
  -30.0045  -18.6014   22.0506 H   0  0  0  0  0  0
  -26.9704  -18.8319   22.0110 H   0  0  0  0  0  0
  -28.0868  -19.9093   22.8491 H   0  0  0  0  0  0
  -27.9368  -18.2383   23.3557 H   0  0  0  0  0  0
  -26.9687  -24.4218   20.5507 H   0  0  0  0  0  0
  -27.6803  -24.4881   18.9673 H   0  0  0  0  0  0
  1 25  1  0  0  0
  1 30  2  0  0  0
  1 84  1  0  0  0
  2  3  1  0  0  0
  2 25  1  0  0  0
  2 85  1  0  0  0
  2 86  1  0  0  0
  3  4  1  0  0  0
  3 87  1  0  0  0
  3 88  1  0  0  0
  4  5  1  0  0  0
  4 89  1  0  0  0
  4 90  1  0  0  0
  5  6  1  0  0  0
  5 26  1  0  0  0
  5 91  1  0  0  0
  6 25  1  0  0  0
  6 92  1  0  0  0
  6 93  1  0  0  0
  7  8  2  0  0  0
  7 26  1  0  0  0
  7 29  1  0  0  0
  8  9  1  0  0  0
  8 22  1  0  0  0
  9 10  1  0  0  0
  9 27  2  0  0  0
 10 11  2  0  0  0
 10 15  1  0  0  0
 11 12  1  0  0  0
 11 94  1  0  0  0
 12 13  2  0  0  0
 12 95  1  0  0  0
 13 14  1  0  0  0
 13 31  1  0  0  0
 14 15  2  0  0  0
 14 96  1  0  0  0
 15 97  1  0  0  0
 16 17  2  0  0  0
 16 21  1  0  0  0
 16 31  1  0  0  0
 17 18  1  0  0  0
 17 98  1  0  0  0
 18 19  2  0  0  0
 18 99  1  0  0  0
 19 20  1  0  0  0
 19 24  1  0  0  0
 20 21  2  0  0  0
 20100  1  0  0  0
 21 23  1  0  0  0
 22 28  1  0  0  0
 22 32  2  0  0  0
 26 27  1  0  0  0
 28101  1  0  0  0
 28102  1  0  0  0
 29103  1  0  0  0
 29104  1  0  0  0
 33 34  1  0  0  0
 33 66  1  0  0  0
 33 70  2  0  0  0
 34 36  1  0  0  0
 34 59  1  0  0  0
 34105  1  0  0  0
 35 44  2  0  0  0
 35 45  1  0  0  0
 35 68  1  0  0  0
 36 56  1  0  0  0
 36106  1  0  0  0
 37 39  1  0  0  0
 37 47  1  0  0  0
 37 66  1  0  0  0
 37107  1  0  0  0
 38 43  2  0  0  0
 38 46  1  0  0  0
 38 47  1  0  0  0
 39 64  1  0  0  0
 39 67  2  0  0  0
 40 52  1  0  0  0
 40 53  2  0  0  0
 40 58  1  0  0  0
 41108  1  0  0  0
 41109  1  0  0  0
 41110  1  0  0  0
 41 48  1  0  0  0
 42 43  1  0  0  0
 42 66  1  0  0  0
 42111  1  0  0  0
 42112  1  0  0  0
 43 44  1  0  0  0
 44113  1  0  0  0
 45 46  2  0  0  0
 45114  1  0  0  0
 46115  1  0  0  0
 47116  1  0  0  0
 47117  1  0  0  0
 48 56  1  0  0  0
 48 65  1  0  0  0
 48118  1  0  0  0
 49 50  1  0  0  0
 49 53  1  0  0  0
 49 64  1  0  0  0
 49119  1  0  0  0
 50 51  1  0  0  0
 50120  1  0  0  0
 50121  1  0  0  0
 51 52  1  0  0  0
 51122  1  0  0  0
 51123  1  0  0  0
 52124  1  0  0  0
 52125  1  0  0  0
 53 54  1  0  0  0
 54 55  2  0  0  0
 54126  1  0  0  0
 55 57  1  0  0  0
 55127  1  0  0  0
 56 69  2  0  0  0
 57 58  2  0  0  0
 57128  1  0  0  0
 58129  1  0  0  0
 59 60  1  0  0  0
 59 61  1  0  0  0
 59 62  1  0  0  0
 60130  1  0  0  0
 60131  1  0  0  0
 60132  1  0  0  0
 61133  1  0  0  0
 61134  1  0  0  0
 61135  1  0  0  0
 62136  1  0  0  0
 62137  1  0  0  0
 62138  1  0  0  0
 63 65  1  0  0  0
 63139  1  0  0  0
 63140  1  0  0  0
 63141  1  0  0  0
 64142  1  0  0  0
 65143  1  0  0  0
 68 80  1  0  0  0
 71 72  2  0  0  0
 71 73  1  0  0  0
 71144  1  0  0  0
 72 81  1  0  0  0
 72145  1  0  0  0
 73 82  2  0  0  0
 73 83  1  0  0  0
 74 80  1  0  0  0
 74 81  2  0  0  0
 74 82  1  0  0  0
 75 76  1  0  0  0
 75 83  1  0  0  0
 75146  1  0  0  0
 75147  1  0  0  0
 76 84  1  0  0  0
 76148  1  0  0  0
 76149  1  0  0  0
 77 78  1  0  0  0
 77 84  1  0  0  0
 77150  1  0  0  0
 77151  1  0  0  0
 78 79  1  0  0  0
 78 83  1  0  0  0
 78152  1  0  0  0
 79153  1  0  0  0
 79154  1  0  0  0
 79155  1  0  0  0
 80156  1  0  0  0
 80157  1  0  0  0
M  ISO  4   1 100  68 101  80 101  84 100
M  END
> <chiral flag>
0

> <version>
0

> <s_m_source_file>
/data/baiqing/PycharmProjects/Reinvent-master-3.2/result/LINK_invent/BTK/process_docking_weight1_custom_sum_contain_oxygen_bond_distance_aromatic_linkinvent_7_9_3/rearranged_h_0179.sdf

> <i_m_source_file_index>
66

> <r_mmod_Potential_Energy-OPLS-2005>
172.806213378906

> <r_mmod_Stretch_Energy-OPLS-2005>
226.571243286133

> <r_mmod_Bend_Energy-OPLS-2005>
263.710205078125

> <r_mmod_Torsional_Energy-OPLS-2005>
354.623565673828

> <r_mmod_Improper_Torsional_Energy-OPLS-2005>
18.7777671813965

> <r_mmod_Van_der_Waal_Energy-OPLS-2005>
149.502883911133

> <r_mmod_Electrostatic_Energy-OPLS-2005>
-790.760681152344

> <r_mmod_Solvation_Energy-OPLS-2005>
-244.654388427734

> <b_mmod_Minimization_Converged-OPLS-2005>
0

> <r_mmod_RMS_Derivative-OPLS-2005>
0.0949149951338768

$$$$
66
                    3D
 Structure written by MMmdl.
152160  0  0  1  0            999 V2000
  -30.4303  -15.1984   20.3780 C   0  0  0  0  0  0
  -30.4465  -12.7529   19.5278 C   0  0  0  0  0  0
  -29.5372  -12.5696   18.2857 C   0  0  0  0  0  0
  -28.0805  -12.3036   18.7074 C   0  0  0  0  0  0
  -27.6195  -13.2639   19.8319 C   0  0  2  0  0  0
  -28.6546  -13.3895   20.9704 C   0  0  0  0  0  0
  -25.2410  -13.8228   20.5721 C   0  0  0  0  0  0
  -24.1751  -13.0433   20.9244 C   0  0  0  0  0  0
  -24.6386  -11.6923   20.8748 C   0  0  0  0  0  0
  -23.9072  -10.4286   21.0391 C   0  0  0  0  0  0
  -24.3622   -9.4207   21.9174 C   0  0  0  0  0  0
  -23.6292   -8.2244   22.0751 C   0  0  0  0  0  0
  -22.4277   -8.0275   21.3542 C   0  0  0  0  0  0
  -21.9909   -9.0247   20.4642 C   0  0  0  0  0  0
  -22.7240  -10.2125   20.3044 C   0  0  0  0  0  0
  -21.6856   -6.0726   22.5273 C   0  0  0  0  0  0
  -21.4024   -6.5630   23.8205 C   0  0  0  0  0  0
  -21.3663   -5.6787   24.9170 C   0  0  0  0  0  0
  -21.6043   -4.3048   24.7223 C   0  0  0  0  0  0
  -21.8819   -3.8137   23.4347 C   0  0  0  0  0  0
  -21.9197   -4.6949   22.3400 C   0  0  0  0  0  0
  -22.7771  -13.5192   21.1896 C   0  0  0  0  0  0
  -22.1660   -4.2130   21.0979 F   0  0  0  0  0  0
  -21.5627   -3.4535   25.7742 F   0  0  0  0  0  0
  -29.9006  -13.8815   20.3609 N   0  0  0  0  0  0
  -26.2841  -12.9482   20.3226 N   0  0  0  0  0  0
  -25.9325  -11.6597   20.5721 N   0  0  0  0  0  0
  -22.0434  -12.8177   22.0457 N   0  0  0  0  0  0
  -25.4038  -15.1963   20.4128 N   0  0  0  0  0  0
  -31.6413  -15.2467   20.1110 O   0  0  0  0  0  0
  -21.6645   -6.8871   21.4235 O   0  0  0  0  0  0
  -22.3446  -14.5492   20.6737 O   0  0  0  0  0  0
  -24.6583  -31.8276   23.1731 C   0  0  0  0  0  0
  -25.9287  -32.4606   23.8170 C   0  0  1  0  0  0
  -27.2233  -26.9731   20.1815 C   0  0  0  0  0  0
  -25.5973  -33.8416   24.2083 N   0  0  0  0  0  0
  -23.4709  -30.4390   21.5216 C   0  0  2  0  0  0
  -24.9249  -28.8322   20.1121 C   0  0  0  0  0  0
  -22.7638  -29.4454   22.4793 C   0  0  0  0  0  0
  -18.0315  -28.1402   22.8449 C   0  0  0  0  0  0
  -24.1494  -36.7224   23.2643 C   0  0  0  0  0  0
  -26.0366  -30.6491   21.3954 C   0  0  0  0  0  0
  -26.1071  -29.2432   20.7398 C   0  0  0  0  0  0
  -27.2530  -28.3348   20.7478 C   0  0  0  0  0  0
  -26.0113  -26.6997   19.5098 C   0  0  0  0  0  0
  -24.8995  -27.5800   19.4763 C   0  0  0  0  0  0
  -23.7085  -29.7551   20.1474 C   0  0  0  0  0  0
  -25.4130  -36.2975   24.0297 C   0  0  1  0  0  0
  -20.5936  -28.3744   23.1190 C   0  0  2  0  0  0
  -20.6795  -26.9429   22.5400 C   0  0  0  0  0  0
  -19.5780  -26.6372   21.5203 C   0  0  0  0  0  0
  -18.1955  -26.7932   22.1608 C   0  0  0  0  0  0
  -19.1577  -28.8892   23.2804 C   0  0  0  0  0  0
  -18.9489  -30.1482   23.8840 C   0  0  0  0  0  0
  -17.6488  -30.6594   24.0547 C   0  0  0  0  0  0
  -25.9092  -34.9357   23.5012 C   0  0  0  0  0  0
  -16.5379  -29.9082   23.6339 C   0  0  0  0  0  0
  -16.7302  -28.6505   23.0348 C   0  0  0  0  0  0
  -26.4555  -31.6535   25.0682 C   0  0  0  0  0  0
  -25.3688  -31.3786   26.1342 C   0  0  0  0  0  0
  -27.0437  -30.2896   24.6398 C   0  0  0  0  0  0
  -27.6036  -32.4357   25.7490 C   0  0  0  0  0  0
  -27.5576  -37.1763   24.8459 C   0  0  0  0  0  0
  -21.4313  -29.3040   22.3545 N   0  0  0  0  0  0
  -26.4278  -37.3709   23.9412 N   0  0  0  0  0  0
  -24.7427  -30.9975   22.0843 N   0  0  0  0  0  0
  -23.4196  -28.8015   23.3015 O   0  0  0  0  0  0
  -28.2464  -25.9037   20.2600 O   0  0  0  0  0  0
  -26.5703  -34.8884   22.4606 O   0  0  0  0  0  0
  -23.5670  -32.1229   23.6859 O   0  0  0  0  0  0
  -28.4091  -18.7516   20.9755 C   0  0  0  0  0  0
  -28.2085  -20.2212   20.9446 C   0  0  0  0  0  0
  -29.1162  -21.1736   20.3342 C   0  0  0  0  0  0
  -30.2079  -20.3415   19.8104 C   0  0  0  0  0  0
  -29.5319  -17.9919   20.4457 C   0  0  0  0  0  0
  -26.9850  -20.7843   21.6404 C   0  0  0  0  0  0
  -31.3661  -21.0412   19.1269 C   0  0  0  0  0  0
  -29.1208  -22.9222   20.4235 C   0  0  0  0  0  0
  -28.0200  -24.2889   20.1419 C   0  0  0  0  0  0
  -30.3875  -18.9249   19.8631 N   0  0  0  0  0  0
  -29.5843  -16.3892   20.5494 N   0  0  0  0  0  0
  -31.4687  -12.9518   19.2034 H   0  0  0  0  0  0
  -30.4995  -11.8309   20.1096 H   0  0  0  0  0  0
  -29.9036  -11.7539   17.6610 H   0  0  0  0  0  0
  -29.5781  -13.4702   17.6722 H   0  0  0  0  0  0
  -28.0219  -11.2730   19.0600 H   0  0  0  0  0  0
  -27.4141  -12.3702   17.8460 H   0  0  0  0  0  0
  -27.5507  -14.2428   19.3564 H   0  0  0  0  0  0
  -28.8012  -12.4364   21.4810 H   0  0  0  0  0  0
  -28.3058  -14.0927   21.7285 H   0  0  0  0  0  0
  -25.2761   -9.5688   22.4752 H   0  0  0  0  0  0
  -23.9998   -7.4638   22.7474 H   0  0  0  0  0  0
  -21.0843   -8.8760   19.8946 H   0  0  0  0  0  0
  -22.3689  -10.9661   19.6152 H   0  0  0  0  0  0
  -21.2022   -7.6138   23.9704 H   0  0  0  0  0  0
  -21.1485   -6.0518   25.9071 H   0  0  0  0  0  0
  -22.0596   -2.7595   23.2854 H   0  0  0  0  0  0
  -22.4077  -11.9854   22.4855 H   0  0  0  0  0  0
  -21.1038  -13.1167   22.2657 H   0  0  0  0  0  0
  -24.6219  -15.8357   20.5058 H   0  0  0  0  0  0
  -26.2251  -15.6349   20.0192 H   0  0  0  0  0  0
  -26.7345  -32.5155   23.0877 H   0  0  0  0  0  0
  -25.0050  -33.9500   25.0187 H   0  0  0  0  0  0
  -22.7809  -31.2687   21.3529 H   0  0  0  0  0  0
  -23.3762  -35.9549   23.3264 H   0  0  0  0  0  0
  -24.3572  -36.8925   22.2066 H   0  0  0  0  0  0
  -23.7249  -37.6398   23.6733 H   0  0  0  0  0  0
  -26.2090  -31.3931   20.6164 H   0  0  0  0  0  0
  -26.8990  -30.7060   22.0479 H   0  0  0  0  0  0
  -28.1511  -28.6492   21.2613 H   0  0  0  0  0  0
  -25.8912  -25.7400   19.0287 H   0  0  0  0  0  0
  -23.9996  -27.2584   18.9706 H   0  0  0  0  0  0
  -23.8597  -30.5247   19.3895 H   0  0  0  0  0  0
  -22.8190  -29.2080   19.8309 H   0  0  0  0  0  0
  -25.1324  -36.1769   25.0785 H   0  0  0  0  0  0
  -21.0016  -28.3356   24.1318 H   0  0  0  0  0  0
  -20.5689  -26.2352   23.3634 H   0  0  0  0  0  0
  -21.6659  -26.7417   22.1205 H   0  0  0  0  0  0
  -19.6943  -25.6270   21.1275 H   0  0  0  0  0  0
  -19.6736  -27.3139   20.6698 H   0  0  0  0  0  0
  -17.4226  -26.6662   21.4013 H   0  0  0  0  0  0
  -18.0359  -26.0091   22.9022 H   0  0  0  0  0  0
  -19.7972  -30.7299   24.2193 H   0  0  0  0  0  0
  -17.5048  -31.6272   24.5156 H   0  0  0  0  0  0
  -15.5378  -30.2964   23.7708 H   0  0  0  0  0  0
  -15.8698  -28.0817   22.7089 H   0  0  0  0  0  0
  -24.5876  -30.7127   25.7653 H   0  0  0  0  0  0
  -24.8860  -32.2988   26.4642 H   0  0  0  0  0  0
  -25.7911  -30.9034   27.0204 H   0  0  0  0  0  0
  -26.3086  -29.6581   24.1396 H   0  0  0  0  0  0
  -27.3954  -29.7253   25.5047 H   0  0  0  0  0  0
  -27.9035  -30.4059   23.9797 H   0  0  0  0  0  0
  -27.2584  -33.3704   26.1924 H   0  0  0  0  0  0
  -28.3913  -32.6866   25.0371 H   0  0  0  0  0  0
  -28.0626  -31.8590   26.5535 H   0  0  0  0  0  0
  -28.2547  -38.0100   24.7521 H   0  0  0  0  0  0
  -28.1124  -36.2627   24.6263 H   0  0  0  0  0  0
  -27.2297  -37.1366   25.8861 H   0  0  0  0  0  0
  -20.9557  -29.8738   21.6686 H   0  0  0  0  0  0
  -26.0131  -38.2765   24.1438 H   0  0  0  0  0  0
  -27.6414  -18.1703   21.4679 H   0  0  0  0  0  0
  -26.2878  -19.9999   21.9357 H   0  0  0  0  0  0
  -26.4526  -21.4752   20.9871 H   0  0  0  0  0  0
  -27.2823  -21.3259   22.5388 H   0  0  0  0  0  0
  -31.0040  -21.6778   18.3193 H   0  0  0  0  0  0
  -32.0707  -20.3307   18.6930 H   0  0  0  0  0  0
  -31.9109  -21.6606   19.8388 H   0  0  0  0  0  0
  -29.9870  -23.2038   19.8278 H   0  0  0  0  0  0
  -29.4598  -23.0874   21.4458 H   0  0  0  0  0  0
  -27.1603  -24.0990   20.7841 H   0  0  0  0  0  0
  -27.6425  -24.1458   19.1293 H   0  0  0  0  0  0
  -28.6777  -16.0495   20.8253 H   0  0  0  0  0  0
  1 25  1  0  0  0
  1 30  2  0  0  0
  1 81  1  0  0  0
  2  3  1  0  0  0
  2 25  1  0  0  0
  2 82  1  0  0  0
  2 83  1  0  0  0
  3  4  1  0  0  0
  3 84  1  0  0  0
  3 85  1  0  0  0
  4  5  1  0  0  0
  4 86  1  0  0  0
  4 87  1  0  0  0
  5  6  1  0  0  0
  5 26  1  0  0  0
  5 88  1  0  0  0
  6 25  1  0  0  0
  6 89  1  0  0  0
  6 90  1  0  0  0
  7  8  2  0  0  0
  7 26  1  0  0  0
  7 29  1  0  0  0
  8  9  1  0  0  0
  8 22  1  0  0  0
  9 10  1  0  0  0
  9 27  2  0  0  0
 10 11  2  0  0  0
 10 15  1  0  0  0
 11 12  1  0  0  0
 11 91  1  0  0  0
 12 13  2  0  0  0
 12 92  1  0  0  0
 13 14  1  0  0  0
 13 31  1  0  0  0
 14 15  2  0  0  0
 14 93  1  0  0  0
 15 94  1  0  0  0
 16 17  2  0  0  0
 16 21  1  0  0  0
 16 31  1  0  0  0
 17 18  1  0  0  0
 17 95  1  0  0  0
 18 19  2  0  0  0
 18 96  1  0  0  0
 19 20  1  0  0  0
 19 24  1  0  0  0
 20 21  2  0  0  0
 20 97  1  0  0  0
 21 23  1  0  0  0
 22 28  1  0  0  0
 22 32  2  0  0  0
 26 27  1  0  0  0
 28 98  1  0  0  0
 28 99  1  0  0  0
 29100  1  0  0  0
 29101  1  0  0  0
 33 34  1  0  0  0
 33 66  1  0  0  0
 33 70  2  0  0  0
 34 36  1  0  0  0
 34 59  1  0  0  0
 34102  1  0  0  0
 35 44  2  0  0  0
 35 45  1  0  0  0
 35 68  1  0  0  0
 36 56  1  0  0  0
 36103  1  0  0  0
 37 39  1  0  0  0
 37 47  1  0  0  0
 37 66  1  0  0  0
 37104  1  0  0  0
 38 43  2  0  0  0
 38 46  1  0  0  0
 38 47  1  0  0  0
 39 64  1  0  0  0
 39 67  2  0  0  0
 40 52  1  0  0  0
 40 53  2  0  0  0
 40 58  1  0  0  0
 41105  1  0  0  0
 41106  1  0  0  0
 41107  1  0  0  0
 41 48  1  0  0  0
 42 43  1  0  0  0
 42 66  1  0  0  0
 42108  1  0  0  0
 42109  1  0  0  0
 43 44  1  0  0  0
 44110  1  0  0  0
 45 46  2  0  0  0
 45111  1  0  0  0
 46112  1  0  0  0
 47113  1  0  0  0
 47114  1  0  0  0
 48 56  1  0  0  0
 48 65  1  0  0  0
 48115  1  0  0  0
 49 50  1  0  0  0
 49 53  1  0  0  0
 49 64  1  0  0  0
 49116  1  0  0  0
 50 51  1  0  0  0
 50117  1  0  0  0
 50118  1  0  0  0
 51 52  1  0  0  0
 51119  1  0  0  0
 51120  1  0  0  0
 52121  1  0  0  0
 52122  1  0  0  0
 53 54  1  0  0  0
 54 55  2  0  0  0
 54123  1  0  0  0
 55 57  1  0  0  0
 55124  1  0  0  0
 56 69  2  0  0  0
 57 58  2  0  0  0
 57125  1  0  0  0
 58126  1  0  0  0
 59 60  1  0  0  0
 59 61  1  0  0  0
 59 62  1  0  0  0
 60127  1  0  0  0
 60128  1  0  0  0
 60129  1  0  0  0
 61130  1  0  0  0
 61131  1  0  0  0
 61132  1  0  0  0
 62133  1  0  0  0
 62134  1  0  0  0
 62135  1  0  0  0
 63 65  1  0  0  0
 63136  1  0  0  0
 63137  1  0  0  0
 63138  1  0  0  0
 64139  1  0  0  0
 65140  1  0  0  0
 68 79  1  0  0  0
 71 72  2  0  0  0
 71 75  1  0  0  0
 71141  1  0  0  0
 72 73  1  0  0  0
 72 76  1  0  0  0
 73 74  2  0  0  0
 73 78  1  0  0  0
 74 77  1  0  0  0
 74 80  1  0  0  0
 75 80  2  0  0  0
 75 81  1  0  0  0
 76142  1  0  0  0
 76143  1  0  0  0
 76144  1  0  0  0
 77145  1  0  0  0
 77146  1  0  0  0
 77147  1  0  0  0
 78 79  1  0  0  0
 78148  1  0  0  0
 78149  1  0  0  0
 79150  1  0  0  0
 79151  1  0  0  0
 81152  1  0  0  0
M  ISO  4   1 100  68 101  79 101  81 100
M  END
> <chiral flag>
0

> <version>
0

> <s_m_source_file>
/data/baiqing/PycharmProjects/Reinvent-master-3.2/result/LINK_invent/BTK/process_docking_weight1_custom_sum_contain_oxygen_bond_distance_aromatic_linkinvent_7_9_3/rearranged_h_0179.sdf

> <i_m_source_file_index>
67

> <r_mmod_Potential_Energy-OPLS-2005>
873.646423339844

> <r_mmod_Stretch_Energy-OPLS-2005>
469.356811523438

> <r_mmod_Bend_Energy-OPLS-2005>
418.096466064453

> <r_mmod_Torsional_Energy-OPLS-2005>
206.963500976562

> <r_mmod_Improper_Torsional_Energy-OPLS-2005>
4.85232353210449

> <r_mmod_Van_der_Waal_Energy-OPLS-2005>
129.341293334961

> <r_mmod_Electrostatic_Energy-OPLS-2005>
-508.470947265625

> <r_mmod_Solvation_Energy-OPLS-2005>
-236.605758666992

> <b_mmod_Minimization_Converged-OPLS-2005>
0

> <r_mmod_RMS_Derivative-OPLS-2005>
1.04177498817444

$$$$
67
                    3D
 Structure written by MMmdl.
156165  0  0  1  0            999 V2000
  -30.5569  -14.9738   20.4164 C   0  0  0  0  0  0
  -30.4329  -12.6070   19.5042 C   0  0  0  0  0  0
  -29.5184  -12.5301   18.2607 C   0  0  0  0  0  0
  -28.0543  -12.3124   18.6830 C   0  0  0  0  0  0
  -27.6262  -13.2564   19.8375 C   0  0  2  0  0  0
  -28.6679  -13.3114   20.9744 C   0  0  0  0  0  0
  -25.2456  -13.8239   20.5743 C   0  0  0  0  0  0
  -24.1763  -13.0448   20.9216 C   0  0  0  0  0  0
  -24.6383  -11.6939   20.8742 C   0  0  0  0  0  0
  -23.9075  -10.4300   21.0393 C   0  0  0  0  0  0
  -24.3618   -9.4217   21.9178 C   0  0  0  0  0  0
  -23.6292   -8.2255   22.0750 C   0  0  0  0  0  0
  -22.4280   -8.0283   21.3534 C   0  0  0  0  0  0
  -21.9921   -9.0256   20.4640 C   0  0  0  0  0  0
  -22.7251  -10.2136   20.3046 C   0  0  0  0  0  0
  -21.6853   -6.0741   22.5273 C   0  0  0  0  0  0
  -21.4015   -6.5638   23.8211 C   0  0  0  0  0  0
  -21.3657   -5.6785   24.9168 C   0  0  0  0  0  0
  -21.6039   -4.3049   24.7217 C   0  0  0  0  0  0
  -21.8818   -3.8147   23.4340 C   0  0  0  0  0  0
  -21.9195   -4.6969   22.3396 C   0  0  0  0  0  0
  -22.7780  -13.5213   21.1879 C   0  0  0  0  0  0
  -22.1662   -4.2161   21.0969 F   0  0  0  0  0  0
  -21.5633   -3.4530   25.7728 F   0  0  0  0  0  0
  -29.9400  -13.7213   20.3695 N   0  0  0  0  0  0
  -26.2878  -12.9479   20.3271 N   0  0  0  0  0  0
  -25.9326  -11.6603   20.5750 N   0  0  0  0  0  0
  -22.0426  -12.8190   22.0422 N   0  0  0  0  0  0
  -25.4176  -15.1965   20.4249 N   0  0  0  0  0  0
  -31.7609  -14.9995   20.1355 O   0  0  0  0  0  0
  -21.6642   -6.8882   21.4234 O   0  0  0  0  0  0
  -22.3470  -14.5528   20.6739 O   0  0  0  0  0  0
  -24.6470  -31.8445   23.1889 C   0  0  0  0  0  0
  -25.9218  -32.4706   23.8302 C   0  0  1  0  0  0
  -27.2064  -27.0939   20.1605 C   0  0  0  0  0  0
  -25.5956  -33.8520   24.2210 N   0  0  0  0  0  0
  -23.4525  -30.4631   21.5369 C   0  0  2  0  0  0
  -24.9038  -28.8919   20.1107 C   0  0  0  0  0  0
  -22.7599  -29.4536   22.4886 C   0  0  0  0  0  0
  -18.0310  -28.1401   22.8491 C   0  0  0  0  0  0
  -24.1478  -36.7221   23.2635 C   0  0  0  0  0  0
  -26.0147  -30.7027   21.3993 C   0  0  0  0  0  0
  -26.0835  -29.3127   20.7364 C   0  0  0  0  0  0
  -27.2368  -28.4314   20.7445 C   0  0  0  0  0  0
  -26.0001  -26.7991   19.4815 C   0  0  0  0  0  0
  -24.8779  -27.6511   19.4656 C   0  0  0  0  0  0
  -23.6807  -29.7958   20.1555 C   0  0  0  0  0  0
  -25.4109  -36.3035   24.0329 C   0  0  1  0  0  0
  -20.5928  -28.3725   23.1250 C   0  0  2  0  0  0
  -20.6797  -26.9434   22.5402 C   0  0  0  0  0  0
  -19.5754  -26.6378   21.5227 C   0  0  0  0  0  0
  -18.1924  -26.7943   22.1621 C   0  0  0  0  0  0
  -19.1567  -28.8890   23.2848 C   0  0  0  0  0  0
  -18.9484  -30.1486   23.8874 C   0  0  0  0  0  0
  -17.6478  -30.6605   24.0559 C   0  0  0  0  0  0
  -25.9082  -34.9420   23.5075 C   0  0  0  0  0  0
  -16.5371  -29.9087   23.6354 C   0  0  0  0  0  0
  -16.7289  -28.6505   23.0385 C   0  0  0  0  0  0
  -26.4518  -31.6598   25.0766 C   0  0  0  0  0  0
  -25.3683  -31.3767   26.1442 C   0  0  0  0  0  0
  -27.0404  -30.3004   24.6367 C   0  0  0  0  0  0
  -27.6064  -32.4397   25.7520 C   0  0  0  0  0  0
  -27.5607  -37.1709   24.8428 C   0  0  0  0  0  0
  -21.4293  -29.3050   22.3638 N   0  0  0  0  0  0
  -26.4245  -37.3781   23.9498 N   0  0  0  0  0  0
  -24.7244  -31.0257   22.0946 N   0  0  0  0  0  0
  -23.4229  -28.8068   23.3035 O   0  0  0  0  0  0
  -28.2135  -26.0466   20.2601 O   0  0  0  0  0  0
  -26.5661  -34.8916   22.4654 O   0  0  0  0  0  0
  -23.5575  -32.1355   23.7072 O   0  0  0  0  0  0
  -28.4577  -22.3430   21.5297 C   0  0  0  0  0  0
  -28.7596  -20.9233   21.6695 C   0  0  0  0  0  0
  -28.5329  -23.0696   20.2961 C   0  0  0  0  0  0
  -29.1356  -20.0727   20.5701 C   0  0  0  0  0  0
  -28.9933  -22.1579   19.2680 C   0  0  0  0  0  0
  -29.2212  -17.1785   19.6779 C   0  0  0  0  0  0
  -30.4939  -17.4776   21.2090 C   0  0  0  0  0  0
  -29.3193  -18.4026   20.6914 C   0  0  0  0  0  0
  -28.6319  -20.3146   23.0574 C   0  0  0  0  0  0
  -29.1285  -22.6727   17.8491 C   0  0  0  0  0  0
  -27.7931  -24.5507   20.0246 C   0  0  0  0  0  0
  -29.2861  -20.7869   19.4004 N   0  0  0  0  0  0
  -29.8551  -16.2002   20.6672 N   0  0  0  0  0  0
  -31.4673  -12.7559   19.1901 H   0  0  0  0  0  0
  -30.4218  -11.6638   20.0529 H   0  0  0  0  0  0
  -29.8441  -11.7256   17.5999 H   0  0  0  0  0  0
  -29.6022  -13.4534   17.6857 H   0  0  0  0  0  0
  -27.9609  -11.2751   19.0055 H   0  0  0  0  0  0
  -27.3892  -12.4242   17.8259 H   0  0  0  0  0  0
  -27.5829  -14.2530   19.3970 H   0  0  0  0  0  0
  -28.7610  -12.3459   21.4742 H   0  0  0  0  0  0
  -28.3645  -14.0316   21.7360 H   0  0  0  0  0  0
  -25.2759   -9.5707   22.4758 H   0  0  0  0  0  0
  -24.0004   -7.4660   22.7481 H   0  0  0  0  0  0
  -21.0852   -8.8769   19.8949 H   0  0  0  0  0  0
  -22.3700  -10.9668   19.6156 H   0  0  0  0  0  0
  -21.1995   -7.6141   23.9718 H   0  0  0  0  0  0
  -21.1481   -6.0509   25.9070 H   0  0  0  0  0  0
  -22.0594   -2.7609   23.2828 H   0  0  0  0  0  0
  -22.4057  -11.9848   22.4793 H   0  0  0  0  0  0
  -21.1039  -13.1203   22.2626 H   0  0  0  0  0  0
  -24.6594  -15.8578   20.5552 H   0  0  0  0  0  0
  -26.2877  -15.6356   20.1505 H   0  0  0  0  0  0
  -26.7292  -32.5296   23.1036 H   0  0  0  0  0  0
  -25.0135  -33.9651   25.0379 H   0  0  0  0  0  0
  -22.7553  -31.2897   21.3818 H   0  0  0  0  0  0
  -23.3833  -35.9444   23.3132 H   0  0  0  0  0  0
  -24.3607  -36.9022   22.2085 H   0  0  0  0  0  0
  -23.7088  -37.6303   23.6776 H   0  0  0  0  0  0
  -26.1811  -31.4587   20.6311 H   0  0  0  0  0  0
  -26.8820  -30.7496   22.0457 H   0  0  0  0  0  0
  -28.1290  -28.7445   21.2686 H   0  0  0  0  0  0
  -25.8630  -25.8571   18.9753 H   0  0  0  0  0  0
  -23.9797  -27.3244   18.9605 H   0  0  0  0  0  0
  -23.8154  -30.5734   19.4028 H   0  0  0  0  0  0
  -22.7955  -29.2368   19.8442 H   0  0  0  0  0  0
  -25.1257  -36.1835   25.0809 H   0  0  0  0  0  0
  -20.9996  -28.3293   24.1378 H   0  0  0  0  0  0
  -20.5726  -26.2326   23.3609 H   0  0  0  0  0  0
  -21.6649  -26.7447   22.1166 H   0  0  0  0  0  0
  -19.6916  -25.6278   21.1269 H   0  0  0  0  0  0
  -19.6695  -27.3178   20.6752 H   0  0  0  0  0  0
  -17.4200  -26.6745   21.4002 H   0  0  0  0  0  0
  -18.0291  -26.0078   22.9008 H   0  0  0  0  0  0
  -19.7949  -30.7318   24.2229 H   0  0  0  0  0  0
  -17.5016  -31.6288   24.5145 H   0  0  0  0  0  0
  -15.5363  -30.2970   23.7708 H   0  0  0  0  0  0
  -15.8689  -28.0803   22.7145 H   0  0  0  0  0  0
  -24.5889  -30.7098   25.7722 H   0  0  0  0  0  0
  -24.8827  -32.2926   26.4833 H   0  0  0  0  0  0
  -25.7939  -30.8947   27.0249 H   0  0  0  0  0  0
  -26.3037  -29.6725   24.1337 H   0  0  0  0  0  0
  -27.3980  -29.7317   25.4955 H   0  0  0  0  0  0
  -27.8951  -30.4274   23.9729 H   0  0  0  0  0  0
  -27.2705  -33.3791   26.1938 H   0  0  0  0  0  0
  -28.3913  -32.6823   25.0341 H   0  0  0  0  0  0
  -28.0666  -31.8621   26.5543 H   0  0  0  0  0  0
  -28.2410  -38.0209   24.7818 H   0  0  0  0  0  0
  -28.1316  -36.2785   24.5815 H   0  0  0  0  0  0
  -27.2389  -37.0807   25.8816 H   0  0  0  0  0  0
  -20.9539  -29.8779   21.6812 H   0  0  0  0  0  0
  -26.0089  -38.2791   24.1716 H   0  0  0  0  0  0
  -28.0914  -22.8704   22.4002 H   0  0  0  0  0  0
  -29.8148  -17.3265   18.7723 H   0  0  0  0  0  0
  -28.1917  -16.9391   19.4076 H   0  0  0  0  0  0
  -30.5956  -17.5007   22.2942 H   0  0  0  0  0  0
  -31.4534  -17.7193   20.7463 H   0  0  0  0  0  0
  -28.4869  -18.2025   21.3682 H   0  0  0  0  0  0
  -28.8297  -21.0579   23.8306 H   0  0  0  0  0  0
  -29.3509  -19.5084   23.2063 H   0  0  0  0  0  0
  -27.6291  -19.9147   23.2126 H   0  0  0  0  0  0
  -29.7258  -23.5852   17.8359 H   0  0  0  0  0  0
  -28.1473  -22.8970   17.4298 H   0  0  0  0  0  0
  -29.6130  -21.9459   17.1965 H   0  0  0  0  0  0
  -26.8548  -24.4416   20.5694 H   0  0  0  0  0  0
  -27.5074  -24.5087   18.9758 H   0  0  0  0  0  0
  1 25  1  0  0  0
  1 30  2  0  0  0
  1 83  1  0  0  0
  2  3  1  0  0  0
  2 25  1  0  0  0
  2 84  1  0  0  0
  2 85  1  0  0  0
  3  4  1  0  0  0
  3 86  1  0  0  0
  3 87  1  0  0  0
  4  5  1  0  0  0
  4 88  1  0  0  0
  4 89  1  0  0  0
  5  6  1  0  0  0
  5 26  1  0  0  0
  5 90  1  0  0  0
  6 25  1  0  0  0
  6 91  1  0  0  0
  6 92  1  0  0  0
  7  8  2  0  0  0
  7 26  1  0  0  0
  7 29  1  0  0  0
  8  9  1  0  0  0
  8 22  1  0  0  0
  9 10  1  0  0  0
  9 27  2  0  0  0
 10 11  2  0  0  0
 10 15  1  0  0  0
 11 12  1  0  0  0
 11 93  1  0  0  0
 12 13  2  0  0  0
 12 94  1  0  0  0
 13 14  1  0  0  0
 13 31  1  0  0  0
 14 15  2  0  0  0
 14 95  1  0  0  0
 15 96  1  0  0  0
 16 17  2  0  0  0
 16 21  1  0  0  0
 16 31  1  0  0  0
 17 18  1  0  0  0
 17 97  1  0  0  0
 18 19  2  0  0  0
 18 98  1  0  0  0
 19 20  1  0  0  0
 19 24  1  0  0  0
 20 21  2  0  0  0
 20 99  1  0  0  0
 21 23  1  0  0  0
 22 28  1  0  0  0
 22 32  2  0  0  0
 26 27  1  0  0  0
 28100  1  0  0  0
 28101  1  0  0  0
 29102  1  0  0  0
 29103  1  0  0  0
 33 34  1  0  0  0
 33 66  1  0  0  0
 33 70  2  0  0  0
 34 36  1  0  0  0
 34 59  1  0  0  0
 34104  1  0  0  0
 35 44  2  0  0  0
 35 45  1  0  0  0
 35 68  1  0  0  0
 36 56  1  0  0  0
 36105  1  0  0  0
 37 39  1  0  0  0
 37 47  1  0  0  0
 37 66  1  0  0  0
 37106  1  0  0  0
 38 43  2  0  0  0
 38 46  1  0  0  0
 38 47  1  0  0  0
 39 64  1  0  0  0
 39 67  2  0  0  0
 40 52  1  0  0  0
 40 53  2  0  0  0
 40 58  1  0  0  0
 41107  1  0  0  0
 41108  1  0  0  0
 41109  1  0  0  0
 41 48  1  0  0  0
 42 43  1  0  0  0
 42 66  1  0  0  0
 42110  1  0  0  0
 42111  1  0  0  0
 43 44  1  0  0  0
 44112  1  0  0  0
 45 46  2  0  0  0
 45113  1  0  0  0
 46114  1  0  0  0
 47115  1  0  0  0
 47116  1  0  0  0
 48 56  1  0  0  0
 48 65  1  0  0  0
 48117  1  0  0  0
 49 50  1  0  0  0
 49 53  1  0  0  0
 49 64  1  0  0  0
 49118  1  0  0  0
 50 51  1  0  0  0
 50119  1  0  0  0
 50120  1  0  0  0
 51 52  1  0  0  0
 51121  1  0  0  0
 51122  1  0  0  0
 52123  1  0  0  0
 52124  1  0  0  0
 53 54  1  0  0  0
 54 55  2  0  0  0
 54125  1  0  0  0
 55 57  1  0  0  0
 55126  1  0  0  0
 56 69  2  0  0  0
 57 58  2  0  0  0
 57127  1  0  0  0
 58128  1  0  0  0
 59 60  1  0  0  0
 59 61  1  0  0  0
 59 62  1  0  0  0
 60129  1  0  0  0
 60130  1  0  0  0
 60131  1  0  0  0
 61132  1  0  0  0
 61133  1  0  0  0
 61134  1  0  0  0
 62135  1  0  0  0
 62136  1  0  0  0
 62137  1  0  0  0
 63 65  1  0  0  0
 63138  1  0  0  0
 63139  1  0  0  0
 63140  1  0  0  0
 64141  1  0  0  0
 65142  1  0  0  0
 68 81  1  0  0  0
 71 72  2  0  0  0
 71 73  1  0  0  0
 71143  1  0  0  0
 72 74  1  0  0  0
 72 79  1  0  0  0
 73 75  2  0  0  0
 73 81  1  0  0  0
 74 82  2  0  0  0
 74 78  1  0  0  0
 75 80  1  0  0  0
 75 82  1  0  0  0
 76 78  1  0  0  0
 76 83  1  0  0  0
 76144  1  0  0  0
 76145  1  0  0  0
 77 78  1  0  0  0
 77 83  1  0  0  0
 77146  1  0  0  0
 77147  1  0  0  0
 78148  1  0  0  0
 79149  1  0  0  0
 79150  1  0  0  0
 79151  1  0  0  0
 80152  1  0  0  0
 80153  1  0  0  0
 80154  1  0  0  0
 81155  1  0  0  0
 81156  1  0  0  0
M  ISO  4   1 100  68 101  81 101  83 100
M  END
> <chiral flag>
0

> <version>
0

> <s_m_source_file>
/data/baiqing/PycharmProjects/Reinvent-master-3.2/result/LINK_invent/BTK/process_docking_weight1_custom_sum_contain_oxygen_bond_distance_aromatic_linkinvent_7_9_3/rearranged_h_0179.sdf

> <i_m_source_file_index>
68

> <r_mmod_Potential_Energy-OPLS-2005>
546.39892578125

> <r_mmod_Stretch_Energy-OPLS-2005>
258.580017089844

> <r_mmod_Bend_Energy-OPLS-2005>
308.650665283203

> <r_mmod_Torsional_Energy-OPLS-2005>
278.406951904297

> <r_mmod_Improper_Torsional_Energy-OPLS-2005>
13.1593313217163

> <r_mmod_Van_der_Waal_Energy-OPLS-2005>
139.204788208008

> <r_mmod_Electrostatic_Energy-OPLS-2005>
-455.476898193359

> <r_mmod_Solvation_Energy-OPLS-2005>
-223.334274291992

> <b_mmod_Minimization_Converged-OPLS-2005>
0

> <r_mmod_RMS_Derivative-OPLS-2005>
2.40188980102539

$$$$
68
                    3D
 Structure written by MMmdl.
166175  0  0  1  0            999 V2000
  -30.6481  -14.5240   20.5780 C   0  0  0  0  0  0
  -30.4450  -12.3456   19.4207 C   0  0  0  0  0  0
  -29.5040  -12.5113   18.2070 C   0  0  0  0  0  0
  -28.0252  -12.3553   18.6213 C   0  0  0  0  0  0
  -27.6624  -13.1973   19.8734 C   0  0  2  0  0  0
  -28.7054  -12.9724   20.9928 C   0  0  0  0  0  0
  -25.2595  -13.8126   20.5670 C   0  0  0  0  0  0
  -24.1829  -13.0422   20.9154 C   0  0  0  0  0  0
  -24.6351  -11.6881   20.8691 C   0  0  0  0  0  0
  -23.8994  -10.4280   21.0382 C   0  0  0  0  0  0
  -24.3571   -9.4208   21.9155 C   0  0  0  0  0  0
  -23.6263   -8.2233   22.0729 C   0  0  0  0  0  0
  -22.4245   -8.0248   21.3534 C   0  0  0  0  0  0
  -21.9865   -9.0215   20.4636 C   0  0  0  0  0  0
  -22.7168  -10.2108   20.3032 C   0  0  0  0  0  0
  -21.6853   -6.0703   22.5270 C   0  0  0  0  0  0
  -21.4017   -6.5612   23.8201 C   0  0  0  0  0  0
  -21.3659   -5.6763   24.9164 C   0  0  0  0  0  0
  -21.6052   -4.3027   24.7224 C   0  0  0  0  0  0
  -21.8814   -3.8116   23.4340 C   0  0  0  0  0  0
  -21.9193   -4.6931   22.3396 C   0  0  0  0  0  0
  -22.7852  -13.5240   21.1831 C   0  0  0  0  0  0
  -22.1668   -4.2112   21.0970 F   0  0  0  0  0  0
  -21.5634   -3.4512   25.7747 F   0  0  0  0  0  0
  -30.0333  -13.3155   20.4468 N   0  0  0  0  0  0
  -26.3012  -12.9268   20.3315 N   0  0  0  0  0  0
  -25.9271  -11.6446   20.5701 N   0  0  0  0  0  0
  -22.0494  -12.8260   22.0411 N   0  0  0  0  0  0
  -25.4356  -15.1847   20.4118 N   0  0  0  0  0  0
  -31.7667  -14.7609   20.1124 O   0  0  0  0  0  0
  -21.6626   -6.8840   21.4226 O   0  0  0  0  0  0
  -22.3547  -14.5548   20.6670 O   0  0  0  0  0  0
  -24.6155  -31.8663   23.2109 C   0  0  0  0  0  0
  -25.9042  -32.4815   23.8409 C   0  0  1  0  0  0
  -27.2325  -27.4066   20.0915 C   0  0  0  0  0  0
  -25.5908  -33.8623   24.2346 N   0  0  0  0  0  0
  -23.4057  -30.4918   21.5497 C   0  0  2  0  0  0
  -24.8509  -28.9535   20.1126 C   0  0  0  0  0  0
  -22.7419  -29.4652   22.4965 C   0  0  0  0  0  0
  -18.0267  -28.1382   22.8485 C   0  0  0  0  0  0
  -24.1481  -36.7300   23.2646 C   0  0  0  0  0  0
  -25.9384  -30.8188   21.3721 C   0  0  0  0  0  0
  -26.0121  -29.4518   20.7168 C   0  0  0  0  0  0
  -27.2003  -28.6808   20.7142 C   0  0  0  0  0  0
  -26.0451  -26.9215   19.4984 C   0  0  0  0  0  0
  -24.8628  -27.6873   19.5035 C   0  0  0  0  0  0
  -23.6162  -29.8279   20.1627 C   0  0  0  0  0  0
  -25.4105  -36.3120   24.0355 C   0  0  1  0  0  0
  -20.5863  -28.3670   23.1306 C   0  0  2  0  0  0
  -20.6750  -26.9395   22.5429 C   0  0  0  0  0  0
  -19.5738  -26.6381   21.5209 C   0  0  0  0  0  0
  -18.1907  -26.7931   22.1604 C   0  0  0  0  0  0
  -19.1522  -28.8840   23.2892 C   0  0  0  0  0  0
  -18.9456  -30.1444   23.8904 C   0  0  0  0  0  0
  -17.6459  -30.6588   24.0557 C   0  0  0  0  0  0
  -25.9047  -34.9478   23.5151 C   0  0  0  0  0  0
  -16.5343  -29.9095   23.6324 C   0  0  0  0  0  0
  -16.7254  -28.6510   23.0346 C   0  0  0  0  0  0
  -26.4472  -31.6609   25.0746 C   0  0  0  0  0  0
  -25.3744  -31.3733   26.1508 C   0  0  0  0  0  0
  -27.0299  -30.3042   24.6154 C   0  0  0  0  0  0
  -27.6078  -32.4333   25.7449 C   0  0  0  0  0  0
  -27.5595  -37.1787   24.8459 C   0  0  0  0  0  0
  -21.4146  -29.3038   22.3702 N   0  0  0  0  0  0
  -26.4286  -37.3809   23.9438 N   0  0  0  0  0  0
  -24.6711  -31.0747   22.1015 N   0  0  0  0  0  0
  -23.4182  -28.8193   23.3009 O   0  0  0  0  0  0
  -28.3943  -26.6495   20.1134 O   0  0  0  0  0  0
  -26.5600  -34.8933   22.4708 O   0  0  0  0  0  0
  -23.5343  -32.1413   23.7496 O   0  0  0  0  0  0
  -28.5109  -22.0232   18.2674 C   0  0  0  0  0  0
  -28.7678  -24.2639   19.1941 C   0  0  0  0  0  0
  -28.2238  -23.4076   18.2043 C   0  0  0  0  0  0
  -29.3537  -21.5163   19.2744 C   0  0  0  0  0  0
  -29.5289  -23.6515   20.2263 C   0  0  0  0  0  0
  -31.3045  -17.6347   21.4513 C   0  0  0  0  0  0
  -30.9731  -19.1337   21.2356 C   0  0  0  0  0  0
  -29.3444  -17.7968   20.1198 C   0  0  0  0  0  0
  -29.9472  -16.9560   21.2645 C   0  0  1  0  0  0
  -30.1328  -24.4698   21.3515 C   0  0  0  0  0  0
  -27.0817  -23.1392   16.0973 C   0  0  0  0  0  0
  -28.6937  -25.8025   18.9849 C   0  0  0  0  0  0
  -29.8742  -20.0649   19.1648 C   0  0  0  0  0  0
  -29.8150  -22.3172   20.2647 N   0  0  0  0  0  0
  -29.8622  -15.4795   21.1264 N   0  0  0  0  0  0
  -29.7557  -19.2077   20.3816 N   0  3  2  0  0  0
  -27.4784  -23.9671   17.1857 O   0  0  0  0  0  0
  -31.4841  -12.4863   19.1168 H   0  0  0  0  0  0
  -30.3863  -11.3318   19.8195 H   0  0  0  0  0  0
  -29.7583  -11.7837   17.4355 H   0  0  0  0  0  0
  -29.6535  -13.4950   17.7583 H   0  0  0  0  0  0
  -27.8500  -11.2986   18.8292 H   0  0  0  0  0  0
  -27.3681  -12.6107   17.7896 H   0  0  0  0  0  0
  -27.7069  -14.2439   19.5751 H   0  0  0  0  0  0
  -28.6991  -11.9294   21.3098 H   0  0  0  0  0  0
  -28.4524  -13.5391   21.8903 H   0  0  0  0  0  0
  -25.2733   -9.5700   22.4697 H   0  0  0  0  0  0
  -23.9992   -7.4627   22.7440 H   0  0  0  0  0  0
  -21.0789   -8.8701   19.8966 H   0  0  0  0  0  0
  -22.3595  -10.9620   19.6125 H   0  0  0  0  0  0
  -21.2019   -7.6125   23.9692 H   0  0  0  0  0  0
  -21.1494   -6.0500   25.9067 H   0  0  0  0  0  0
  -22.0607   -2.7575   23.2841 H   0  0  0  0  0  0
  -22.4114  -11.9937   22.4839 H   0  0  0  0  0  0
  -21.1098  -13.1276   22.2591 H   0  0  0  0  0  0
  -24.6729  -15.8439   20.5252 H   0  0  0  0  0  0
  -26.2814  -15.6131   20.0586 H   0  0  0  0  0  0
  -26.7107  -32.5534   23.1169 H   0  0  0  0  0  0
  -25.0052  -33.9774   25.0487 H   0  0  0  0  0  0
  -22.6959  -31.3101   21.4142 H   0  0  0  0  0  0
  -23.3766  -35.9609   23.3290 H   0  0  0  0  0  0
  -24.3574  -36.8920   22.2063 H   0  0  0  0  0  0
  -23.7191  -37.6489   23.6654 H   0  0  0  0  0  0
  -26.0665  -31.5873   20.6088 H   0  0  0  0  0  0
  -26.8209  -30.8631   21.9986 H   0  0  0  0  0  0
  -28.0943  -29.0620   21.1878 H   0  0  0  0  0  0
  -26.0151  -25.9392   19.0486 H   0  0  0  0  0  0
  -23.9670  -27.2919   19.0450 H   0  0  0  0  0  0
  -23.7318  -30.6074   19.4082 H   0  0  0  0  0  0
  -22.7368  -29.2555   19.8619 H   0  0  0  0  0  0
  -25.1268  -36.1987   25.0843 H   0  0  0  0  0  0
  -20.9959  -28.3252   24.1427 H   0  0  0  0  0  0
  -20.5618  -26.2290   23.3633 H   0  0  0  0  0  0
  -21.6627  -26.7411   22.1251 H   0  0  0  0  0  0
  -19.6900  -25.6292   21.1241 H   0  0  0  0  0  0
  -19.6699  -27.3191   20.6738 H   0  0  0  0  0  0
  -17.4194  -26.6699   21.3978 H   0  0  0  0  0  0
  -18.0281  -26.0061   22.8987 H   0  0  0  0  0  0
  -19.7937  -30.7241   24.2293 H   0  0  0  0  0  0
  -17.5023  -31.6268   24.5163 H   0  0  0  0  0  0
  -15.5346  -30.3005   23.7645 H   0  0  0  0  0  0
  -15.8650  -28.0836   22.7057 H   0  0  0  0  0  0
  -24.5948  -30.7020   25.7881 H   0  0  0  0  0  0
  -24.8888  -32.2884   26.4915 H   0  0  0  0  0  0
  -25.8119  -30.8970   27.0292 H   0  0  0  0  0  0
  -26.2839  -29.6793   24.1231 H   0  0  0  0  0  0
  -27.4065  -29.7303   25.4632 H   0  0  0  0  0  0
  -27.8686  -30.4344   23.9312 H   0  0  0  0  0  0
  -27.2728  -33.3620   26.2080 H   0  0  0  0  0  0
  -28.3815  -32.6916   25.0206 H   0  0  0  0  0  0
  -28.0834  -31.8436   26.5294 H   0  0  0  0  0  0
  -28.2613  -38.0088   24.7546 H   0  0  0  0  0  0
  -28.1085  -36.2628   24.6212 H   0  0  0  0  0  0
  -27.2333  -37.1369   25.8866 H   0  0  0  0  0  0
  -20.9306  -29.8774   21.6936 H   0  0  0  0  0  0
  -26.0182  -38.2883   24.1477 H   0  0  0  0  0  0
  -28.1593  -21.3426   17.5060 H   0  0  0  0  0  0
  -31.7482  -17.4402   22.4281 H   0  0  0  0  0  0
  -32.0143  -17.3058   20.6925 H   0  0  0  0  0  0
  -31.8263  -19.6759   20.8255 H   0  0  0  0  0  0
  -30.7366  -19.6046   22.1918 H   0  0  0  0  0  0
  -28.2584  -17.7054   20.0697 H   0  0  0  0  0  0
  -29.7481  -17.4579   19.1641 H   0  0  0  0  0  0
  -29.3612  -17.1793   22.1580 H   0  0  0  0  0  0
  -29.3428  -24.9175   21.9546 H   0  0  0  0  0  0
  -30.7612  -25.2690   20.9602 H   0  0  0  0  0  0
  -30.7461  -23.8528   22.0077 H   0  0  0  0  0  0
  -26.5239  -23.7345   15.3745 H   0  0  0  0  0  0
  -26.4280  -22.3296   16.4251 H   0  0  0  0  0  0
  -27.9462  -22.7191   15.5791 H   0  0  0  0  0  0
  -28.0679  -26.0604   18.1317 H   0  0  0  0  0  0
  -29.6911  -26.0974   18.6590 H   0  0  0  0  0  0
  -30.9019  -20.0792   18.7994 H   0  0  0  0  0  0
  -29.3108  -19.5898   18.3616 H   0  0  0  0  0  0
  -28.9931  -15.0932   21.4681 H   0  0  0  0  0  0
  -29.0347  -19.6405   20.9397 H   0  0  0  0  0  0
  1 25  1  0  0  0
  1 30  2  0  0  0
  1 85  1  0  0  0
  2  3  1  0  0  0
  2 25  1  0  0  0
  2 88  1  0  0  0
  2 89  1  0  0  0
  3  4  1  0  0  0
  3 90  1  0  0  0
  3 91  1  0  0  0
  4  5  1  0  0  0
  4 92  1  0  0  0
  4 93  1  0  0  0
  5  6  1  0  0  0
  5 26  1  0  0  0
  5 94  1  0  0  0
  6 25  1  0  0  0
  6 95  1  0  0  0
  6 96  1  0  0  0
  7  8  2  0  0  0
  7 26  1  0  0  0
  7 29  1  0  0  0
  8  9  1  0  0  0
  8 22  1  0  0  0
  9 10  1  0  0  0
  9 27  2  0  0  0
 10 11  2  0  0  0
 10 15  1  0  0  0
 11 12  1  0  0  0
 11 97  1  0  0  0
 12 13  2  0  0  0
 12 98  1  0  0  0
 13 14  1  0  0  0
 13 31  1  0  0  0
 14 15  2  0  0  0
 14 99  1  0  0  0
 15100  1  0  0  0
 16 17  2  0  0  0
 16 21  1  0  0  0
 16 31  1  0  0  0
 17 18  1  0  0  0
 17101  1  0  0  0
 18 19  2  0  0  0
 18102  1  0  0  0
 19 20  1  0  0  0
 19 24  1  0  0  0
 20 21  2  0  0  0
 20103  1  0  0  0
 21 23  1  0  0  0
 22 28  1  0  0  0
 22 32  2  0  0  0
 26 27  1  0  0  0
 28104  1  0  0  0
 28105  1  0  0  0
 29106  1  0  0  0
 29107  1  0  0  0
 33 34  1  0  0  0
 33 66  1  0  0  0
 33 70  2  0  0  0
 34 36  1  0  0  0
 34 59  1  0  0  0
 34108  1  0  0  0
 35 44  2  0  0  0
 35 45  1  0  0  0
 35 68  1  0  0  0
 36 56  1  0  0  0
 36109  1  0  0  0
 37 39  1  0  0  0
 37 47  1  0  0  0
 37 66  1  0  0  0
 37110  1  0  0  0
 38 43  2  0  0  0
 38 46  1  0  0  0
 38 47  1  0  0  0
 39 64  1  0  0  0
 39 67  2  0  0  0
 40 52  1  0  0  0
 40 53  2  0  0  0
 40 58  1  0  0  0
 41111  1  0  0  0
 41112  1  0  0  0
 41113  1  0  0  0
 41 48  1  0  0  0
 42 43  1  0  0  0
 42 66  1  0  0  0
 42114  1  0  0  0
 42115  1  0  0  0
 43 44  1  0  0  0
 44116  1  0  0  0
 45 46  2  0  0  0
 45117  1  0  0  0
 46118  1  0  0  0
 47119  1  0  0  0
 47120  1  0  0  0
 48 56  1  0  0  0
 48 65  1  0  0  0
 48121  1  0  0  0
 49 50  1  0  0  0
 49 53  1  0  0  0
 49 64  1  0  0  0
 49122  1  0  0  0
 50 51  1  0  0  0
 50123  1  0  0  0
 50124  1  0  0  0
 51 52  1  0  0  0
 51125  1  0  0  0
 51126  1  0  0  0
 52127  1  0  0  0
 52128  1  0  0  0
 53 54  1  0  0  0
 54 55  2  0  0  0
 54129  1  0  0  0
 55 57  1  0  0  0
 55130  1  0  0  0
 56 69  2  0  0  0
 57 58  2  0  0  0
 57131  1  0  0  0
 58132  1  0  0  0
 59 60  1  0  0  0
 59 61  1  0  0  0
 59 62  1  0  0  0
 60133  1  0  0  0
 60134  1  0  0  0
 60135  1  0  0  0
 61136  1  0  0  0
 61137  1  0  0  0
 61138  1  0  0  0
 62139  1  0  0  0
 62140  1  0  0  0
 62141  1  0  0  0
 63 65  1  0  0  0
 63142  1  0  0  0
 63143  1  0  0  0
 63144  1  0  0  0
 64145  1  0  0  0
 65146  1  0  0  0
 68 82  1  0  0  0
 71 73  2  0  0  0
 71 74  1  0  0  0
 71147  1  0  0  0
 72 73  1  0  0  0
 72 75  2  0  0  0
 72 82  1  0  0  0
 73 87  1  0  0  0
 74 83  1  0  0  0
 74 84  2  0  0  0
 75 80  1  0  0  0
 75 84  1  0  0  0
 76 77  1  0  0  0
 76 79  1  0  0  0
 76148  1  0  0  0
 76149  1  0  0  0
 77 86  1  0  0  0
 77150  1  0  0  0
 77151  1  0  0  0
 78 79  1  0  0  0
 78 86  1  0  0  0
 78152  1  0  0  0
 78153  1  0  0  0
 79 85  1  0  0  0
 79154  1  0  0  0
 80155  1  0  0  0
 80156  1  0  0  0
 80157  1  0  0  0
 81 87  1  0  0  0
 81158  1  0  0  0
 81159  1  0  0  0
 81160  1  0  0  0
 82161  1  0  0  0
 82162  1  0  0  0
 83163  1  0  0  0
 83164  1  0  0  0
 83 86  1  0  0  0
 85165  1  0  0  0
 86166  1  0  0  0
M  CHG  1  86   1
M  ISO  4   1 100  68 101  82 101  85 100
M  END
> <chiral flag>
0

> <version>
0

> <s_m_source_file>
/data/baiqing/PycharmProjects/Reinvent-master-3.2/result/LINK_invent/BTK/process_docking_weight1_custom_sum_contain_oxygen_bond_distance_aromatic_linkinvent_7_9_3/rearranged_h_0179.sdf

> <i_m_source_file_index>
69

> <r_mmod_Potential_Energy-OPLS-2005>
-314.267547607422

> <r_mmod_Stretch_Energy-OPLS-2005>
47.3005599975586

> <r_mmod_Bend_Energy-OPLS-2005>
164.668273925781

> <r_mmod_Torsional_Energy-OPLS-2005>
273.722625732422

> <r_mmod_Improper_Torsional_Energy-OPLS-2005>
5.15190458297729

> <r_mmod_Van_der_Waal_Energy-OPLS-2005>
156.998382568359

> <r_mmod_Electrostatic_Energy-OPLS-2005>
-521.607971191406

> <r_mmod_Solvation_Energy-OPLS-2005>
-459.886108398438

> <b_mmod_Minimization_Converged-OPLS-2005>
0

> <r_mmod_RMS_Derivative-OPLS-2005>
2.56045460700989

$$$$
69
                    3D
 Structure written by MMmdl.
149158  0  0  1  0            999 V2000
  -30.3965  -15.3345   20.3813 C   0  0  0  0  0  0
  -30.4446  -12.8752   19.4884 C   0  0  0  0  0  0
  -29.5305  -12.5760   18.2723 C   0  0  0  0  0  0
  -28.0856  -12.2873   18.7197 C   0  0  0  0  0  0
  -27.6059  -13.2730   19.8126 C   0  0  2  0  0  0
  -28.6478  -13.4756   20.9290 C   0  0  0  0  0  0
  -25.2369  -13.8209   20.5751 C   0  0  0  0  0  0
  -24.1724  -13.0412   20.9264 C   0  0  0  0  0  0
  -24.6382  -11.6928   20.8759 C   0  0  0  0  0  0
  -23.9077  -10.4288   21.0390 C   0  0  0  0  0  0
  -24.3615   -9.4205   21.9181 C   0  0  0  0  0  0
  -23.6292   -8.2239   22.0764 C   0  0  0  0  0  0
  -22.4280   -8.0267   21.3531 C   0  0  0  0  0  0
  -21.9907   -9.0245   20.4634 C   0  0  0  0  0  0
  -22.7239  -10.2124   20.3045 C   0  0  0  0  0  0
  -21.6861   -6.0723   22.5273 C   0  0  0  0  0  0
  -21.4019   -6.5623   23.8201 C   0  0  0  0  0  0
  -21.3660   -5.6777   24.9161 C   0  0  0  0  0  0
  -21.6051   -4.3040   24.7214 C   0  0  0  0  0  0
  -21.8824   -3.8131   23.4334 C   0  0  0  0  0  0
  -21.9202   -4.6951   22.3389 C   0  0  0  0  0  0
  -22.7742  -13.5190   21.1888 C   0  0  0  0  0  0
  -22.1673   -4.2133   21.0962 F   0  0  0  0  0  0
  -21.5630   -3.4516   25.7719 F   0  0  0  0  0  0
  -29.8483  -14.0194   20.2691 N   0  0  0  0  0  0
  -26.2800  -12.9500   20.3206 N   0  0  0  0  0  0
  -25.9319  -11.6605   20.5694 N   0  0  0  0  0  0
  -22.0409  -12.8191   22.0445 N   0  0  0  0  0  0
  -25.3958  -15.1950   20.4182 N   0  0  0  0  0  0
  -31.6390  -15.3169   20.3195 O   0  0  0  0  0  0
  -21.6649   -6.8865   21.4237 O   0  0  0  0  0  0
  -22.3438  -14.5493   20.6730 O   0  0  0  0  0  0
  -24.6660  -31.8177   23.1665 C   0  0  0  0  0  0
  -25.9320  -32.4555   23.8150 C   0  0  1  0  0  0
  -27.2225  -26.8913   20.2085 C   0  0  0  0  0  0
  -25.5974  -33.8372   24.2044 N   0  0  0  0  0  0
  -23.4854  -30.4282   21.5146 C   0  0  2  0  0  0
  -24.9373  -28.8035   20.1173 C   0  0  0  0  0  0
  -22.7672  -29.4430   22.4739 C   0  0  0  0  0  0
  -18.0295  -28.1420   22.8421 C   0  0  0  0  0  0
  -24.1494  -36.7199   23.2652 C   0  0  0  0  0  0
  -26.0530  -30.6173   21.4001 C   0  0  0  0  0  0
  -26.1221  -29.2022   20.7489 C   0  0  0  0  0  0
  -27.2594  -28.2695   20.7627 C   0  0  0  0  0  0
  -26.0027  -26.6450   19.5377 C   0  0  0  0  0  0
  -24.9044  -27.5461   19.4913 C   0  0  0  0  0  0
  -23.7291  -29.7408   20.1434 C   0  0  0  0  0  0
  -25.4136  -36.2947   24.0298 C   0  0  1  0  0  0
  -20.5939  -28.3781   23.1074 C   0  0  2  0  0  0
  -20.6814  -26.9493   22.5189 C   0  0  0  0  0  0
  -19.5663  -26.6351   21.5171 C   0  0  0  0  0  0
  -18.1922  -26.7913   22.1667 C   0  0  0  0  0  0
  -19.1569  -28.8914   23.2755 C   0  0  0  0  0  0
  -18.9488  -30.1480   23.8839 C   0  0  0  0  0  0
  -17.6490  -30.6617   24.0540 C   0  0  0  0  0  0
  -25.9099  -34.9334   23.4998 C   0  0  0  0  0  0
  -16.5376  -29.9114   23.6326 C   0  0  0  0  0  0
  -16.7283  -28.6524   23.0351 C   0  0  0  0  0  0
  -26.4566  -31.6527   25.0703 C   0  0  0  0  0  0
  -25.3694  -31.3786   26.1359 C   0  0  0  0  0  0
  -27.0482  -30.2894   24.6462 C   0  0  0  0  0  0
  -27.6035  -32.4362   25.7517 C   0  0  0  0  0  0
  -27.5564  -37.1762   24.8470 C   0  0  0  0  0  0
  -21.4338  -29.3080   22.3439 N   0  0  0  0  0  0
  -26.4277  -37.3685   23.9397 N   0  0  0  0  0  0
  -24.7556  -30.9833   22.0809 N   0  0  0  0  0  0
  -23.4177  -28.8033   23.3040 O   0  0  0  0  0  0
  -28.2349  -25.7833   20.2607 O   0  0  0  0  0  0
  -26.5716  -34.8883   22.4591 O   0  0  0  0  0  0
  -23.5730  -32.1147   23.6764 O   0  0  0  0  0  0
  -29.4645  -19.5375   20.0503 C   0  0  0  0  0  0
  -28.8515  -20.8568   20.5831 C   0  0  0  0  0  0
  -29.3224  -18.1145   20.6425 C   0  0  0  0  0  0
  -27.9715  -19.3459   22.1616 C   0  0  0  0  0  0
  -28.2634  -23.3218   19.1276 C   0  0  0  0  0  0
  -28.9687  -22.6141   20.2803 C   0  0  1  0  0  0
  -27.9971  -24.1311   20.3838 C   0  0  1  0  0  0
  -27.0184  -19.1989   23.3320 C   0  0  0  0  0  0
  -28.1016  -20.5917   21.6734 N   0  0  0  0  0  0
  -28.5286  -18.1973   21.7335 N   0  0  0  0  0  0
  -29.6199  -16.5912   20.1361 N   0  0  0  0  0  0
  -31.4442  -13.1297   19.1314 H   0  0  0  0  0  0
  -30.5708  -11.9892   20.1136 H   0  0  0  0  0  0
  -29.9199  -11.7353   17.6977 H   0  0  0  0  0  0
  -29.5361  -13.4351   17.6007 H   0  0  0  0  0  0
  -28.0589  -11.2696   19.1104 H   0  0  0  0  0  0
  -27.4086  -12.3005   17.8653 H   0  0  0  0  0  0
  -27.5080  -14.2303   19.2996 H   0  0  0  0  0  0
  -28.8502  -12.5506   21.4687 H   0  0  0  0  0  0
  -28.2816  -14.1919   21.6681 H   0  0  0  0  0  0
  -25.2754   -9.5694   22.4758 H   0  0  0  0  0  0
  -23.9998   -7.4637   22.7492 H   0  0  0  0  0  0
  -21.0845   -8.8753   19.8941 H   0  0  0  0  0  0
  -22.3690  -10.9655   19.6151 H   0  0  0  0  0  0
  -21.2029   -7.6132   23.9683 H   0  0  0  0  0  0
  -21.1470   -6.0513   25.9054 H   0  0  0  0  0  0
  -22.0613   -2.7590   23.2832 H   0  0  0  0  0  0
  -22.4053  -11.9880   22.4846 H   0  0  0  0  0  0
  -21.1002  -13.1166   22.2598 H   0  0  0  0  0  0
  -24.6177  -15.8360   20.5272 H   0  0  0  0  0  0
  -26.2389  -15.6442   20.0891 H   0  0  0  0  0  0
  -26.7394  -32.5088   23.0871 H   0  0  0  0  0  0
  -25.0096  -33.9426   25.0187 H   0  0  0  0  0  0
  -22.7981  -31.2565   21.3415 H   0  0  0  0  0  0
  -23.3759  -35.9528   23.3292 H   0  0  0  0  0  0
  -24.3575  -36.8866   22.2071 H   0  0  0  0  0  0
  -23.7257  -37.6384   23.6730 H   0  0  0  0  0  0
  -26.2358  -31.3565   20.6189 H   0  0  0  0  0  0
  -26.9128  -30.6773   22.0583 H   0  0  0  0  0  0
  -28.1596  -28.5782   21.2759 H   0  0  0  0  0  0
  -25.8732  -25.6816   19.0668 H   0  0  0  0  0  0
  -24.0030  -27.2308   18.9811 H   0  0  0  0  0  0
  -23.8963  -30.5092   19.3871 H   0  0  0  0  0  0
  -22.8386  -29.2011   19.8170 H   0  0  0  0  0  0
  -25.1335  -36.1738   25.0793 H   0  0  0  0  0  0
  -21.0024  -28.3301   24.1211 H   0  0  0  0  0  0
  -20.6020  -26.2354   23.3396 H   0  0  0  0  0  0
  -21.6586  -26.7653   22.0664 H   0  0  0  0  0  0
  -19.6789  -25.6196   21.1356 H   0  0  0  0  0  0
  -19.6536  -27.3024   20.6583 H   0  0  0  0  0  0
  -17.4122  -26.6496   21.4186 H   0  0  0  0  0  0
  -18.0452  -26.0154   22.9201 H   0  0  0  0  0  0
  -19.7963  -30.7277   24.2186 H   0  0  0  0  0  0
  -17.5038  -31.6263   24.5225 H   0  0  0  0  0  0
  -15.5379  -30.2997   23.7679 H   0  0  0  0  0  0
  -15.8667  -28.0834   22.7083 H   0  0  0  0  0  0
  -24.5894  -30.7106   25.7675 H   0  0  0  0  0  0
  -24.8873  -32.2995   26.4654 H   0  0  0  0  0  0
  -25.7939  -30.9046   27.0218 H   0  0  0  0  0  0
  -26.3164  -29.6548   24.1445 H   0  0  0  0  0  0
  -27.3968  -29.7278   25.5138 H   0  0  0  0  0  0
  -27.9113  -30.4062   23.9904 H   0  0  0  0  0  0
  -27.2577  -33.3707   26.1941 H   0  0  0  0  0  0
  -28.3937  -32.6836   25.0422 H   0  0  0  0  0  0
  -28.0604  -31.8595   26.5565 H   0  0  0  0  0  0
  -28.2568  -38.0064   24.7480 H   0  0  0  0  0  0
  -28.1062  -36.2583   24.6338 H   0  0  0  0  0  0
  -27.2272  -37.1457   25.8870 H   0  0  0  0  0  0
  -20.9687  -29.8653   21.6427 H   0  0  0  0  0  0
  -26.0118  -38.2739   24.1403 H   0  0  0  0  0  0
  -30.0723  -19.6268   19.1602 H   0  0  0  0  0  0
  -27.3953  -22.8200   18.7031 H   0  0  0  0  0  0
  -28.9187  -23.7671   18.3838 H   0  0  0  0  0  0
  -30.0323  -22.8143   20.3871 H   0  0  0  0  0  0
  -27.0338  -23.9915   20.8728 H   0  0  0  0  0  0
  -27.5688  -19.0642   24.2632 H   0  0  0  0  0  0
  -26.3791  -20.0760   23.4436 H   0  0  0  0  0  0
  -26.3632  -18.3377   23.1934 H   0  0  0  0  0  0
  -28.7629  -16.2594   19.7253 H   0  0  0  0  0  0
  1 25  1  0  0  0
  1 30  2  0  0  0
  1 81  1  0  0  0
  2  3  1  0  0  0
  2 25  1  0  0  0
  2 82  1  0  0  0
  2 83  1  0  0  0
  3  4  1  0  0  0
  3 84  1  0  0  0
  3 85  1  0  0  0
  4  5  1  0  0  0
  4 86  1  0  0  0
  4 87  1  0  0  0
  5  6  1  0  0  0
  5 26  1  0  0  0
  5 88  1  0  0  0
  6 25  1  0  0  0
  6 89  1  0  0  0
  6 90  1  0  0  0
  7  8  2  0  0  0
  7 26  1  0  0  0
  7 29  1  0  0  0
  8  9  1  0  0  0
  8 22  1  0  0  0
  9 10  1  0  0  0
  9 27  2  0  0  0
 10 11  2  0  0  0
 10 15  1  0  0  0
 11 12  1  0  0  0
 11 91  1  0  0  0
 12 13  2  0  0  0
 12 92  1  0  0  0
 13 14  1  0  0  0
 13 31  1  0  0  0
 14 15  2  0  0  0
 14 93  1  0  0  0
 15 94  1  0  0  0
 16 17  2  0  0  0
 16 21  1  0  0  0
 16 31  1  0  0  0
 17 18  1  0  0  0
 17 95  1  0  0  0
 18 19  2  0  0  0
 18 96  1  0  0  0
 19 20  1  0  0  0
 19 24  1  0  0  0
 20 21  2  0  0  0
 20 97  1  0  0  0
 21 23  1  0  0  0
 22 28  1  0  0  0
 22 32  2  0  0  0
 26 27  1  0  0  0
 28 98  1  0  0  0
 28 99  1  0  0  0
 29100  1  0  0  0
 29101  1  0  0  0
 33 34  1  0  0  0
 33 66  1  0  0  0
 33 70  2  0  0  0
 34 36  1  0  0  0
 34 59  1  0  0  0
 34102  1  0  0  0
 35 44  2  0  0  0
 35 45  1  0  0  0
 35 68  1  0  0  0
 36 56  1  0  0  0
 36103  1  0  0  0
 37 39  1  0  0  0
 37 47  1  0  0  0
 37 66  1  0  0  0
 37104  1  0  0  0
 38 43  2  0  0  0
 38 46  1  0  0  0
 38 47  1  0  0  0
 39 64  1  0  0  0
 39 67  2  0  0  0
 40 52  1  0  0  0
 40 53  2  0  0  0
 40 58  1  0  0  0
 41105  1  0  0  0
 41106  1  0  0  0
 41107  1  0  0  0
 41 48  1  0  0  0
 42 43  1  0  0  0
 42 66  1  0  0  0
 42108  1  0  0  0
 42109  1  0  0  0
 43 44  1  0  0  0
 44110  1  0  0  0
 45 46  2  0  0  0
 45111  1  0  0  0
 46112  1  0  0  0
 47113  1  0  0  0
 47114  1  0  0  0
 48 56  1  0  0  0
 48 65  1  0  0  0
 48115  1  0  0  0
 49 50  1  0  0  0
 49 53  1  0  0  0
 49 64  1  0  0  0
 49116  1  0  0  0
 50 51  1  0  0  0
 50117  1  0  0  0
 50118  1  0  0  0
 51 52  1  0  0  0
 51119  1  0  0  0
 51120  1  0  0  0
 52121  1  0  0  0
 52122  1  0  0  0
 53 54  1  0  0  0
 54 55  2  0  0  0
 54123  1  0  0  0
 55 57  1  0  0  0
 55124  1  0  0  0
 56 69  2  0  0  0
 57 58  2  0  0  0
 57125  1  0  0  0
 58126  1  0  0  0
 59 60  1  0  0  0
 59 61  1  0  0  0
 59 62  1  0  0  0
 60127  1  0  0  0
 60128  1  0  0  0
 60129  1  0  0  0
 61130  1  0  0  0
 61131  1  0  0  0
 61132  1  0  0  0
 62133  1  0  0  0
 62134  1  0  0  0
 62135  1  0  0  0
 63 65  1  0  0  0
 63136  1  0  0  0
 63137  1  0  0  0
 63138  1  0  0  0
 64139  1  0  0  0
 65140  1  0  0  0
 68 77  1  0  0  0
 71 72  2  0  0  0
 71 73  1  0  0  0
 71141  1  0  0  0
 72 79  1  0  0  0
 72 76  1  0  0  0
 73 80  2  0  0  0
 73 81  1  0  0  0
 74 78  1  0  0  0
 74 79  2  0  0  0
 74 80  1  0  0  0
 75 76  1  0  0  0
 75 77  1  0  0  0
 75142  1  0  0  0
 75143  1  0  0  0
 76 77  1  0  0  0
 76144  1  0  0  0
 77145  1  0  0  0
 78146  1  0  0  0
 78147  1  0  0  0
 78148  1  0  0  0
 81149  1  0  0  0
M  ISO  4   1 100  68 101  77 101  81 100
M  END
> <chiral flag>
0

> <version>
0

> <s_m_source_file>
/data/baiqing/PycharmProjects/Reinvent-master-3.2/result/LINK_invent/BTK/process_docking_weight1_custom_sum_contain_oxygen_bond_distance_aromatic_linkinvent_7_9_3/rearranged_h_0179.sdf

> <i_m_source_file_index>
70

> <r_mmod_Potential_Energy-OPLS-2005>
1060.66784667969

> <r_mmod_Stretch_Energy-OPLS-2005>
635.810729980469

> <r_mmod_Bend_Energy-OPLS-2005>
459.56396484375

> <r_mmod_Torsional_Energy-OPLS-2005>
286.163177490234

> <r_mmod_Improper_Torsional_Energy-OPLS-2005>
18.2981491088867

> <r_mmod_Van_der_Waal_Energy-OPLS-2005>
128.497177124023

> <r_mmod_Electrostatic_Energy-OPLS-2005>
-759.713256835938

> <r_mmod_Solvation_Energy-OPLS-2005>
-238.223403930664

> <b_mmod_Minimization_Converged-OPLS-2005>
0

> <r_mmod_RMS_Derivative-OPLS-2005>
3.68168592453003

$$$$
70
                    3D
 Structure written by MMmdl.
153162  0  0  1  0            999 V2000
  -30.4118  -15.3395   20.3500 C   0  0  0  0  0  0
  -30.4334  -12.8555   19.5365 C   0  0  0  0  0  0
  -29.5373  -12.5814   18.2999 C   0  0  0  0  0  0
  -28.0937  -12.2833   18.7353 C   0  0  0  0  0  0
  -27.6068  -13.2758   19.8187 C   0  0  2  0  0  0
  -28.6335  -13.4936   20.9521 C   0  0  0  0  0  0
  -25.2378  -13.8241   20.5780 C   0  0  0  0  0  0
  -24.1725  -13.0430   20.9271 C   0  0  0  0  0  0
  -24.6366  -11.6925   20.8737 C   0  0  0  0  0  0
  -23.9056  -10.4287   21.0381 C   0  0  0  0  0  0
  -24.3605   -9.4204   21.9159 C   0  0  0  0  0  0
  -23.6284   -8.2239   22.0738 C   0  0  0  0  0  0
  -22.4267   -8.0270   21.3535 C   0  0  0  0  0  0
  -21.9892   -9.0235   20.4636 C   0  0  0  0  0  0
  -22.7218  -10.2120   20.3039 C   0  0  0  0  0  0
  -21.6858   -6.0711   22.5273 C   0  0  0  0  0  0
  -21.4010   -6.5616   23.8198 C   0  0  0  0  0  0
  -21.3660   -5.6780   24.9166 C   0  0  0  0  0  0
  -21.6049   -4.3040   24.7232 C   0  0  0  0  0  0
  -21.8821   -3.8127   23.4351 C   0  0  0  0  0  0
  -21.9198   -4.6940   22.3400 C   0  0  0  0  0  0
  -22.7747  -13.5189   21.1915 C   0  0  0  0  0  0
  -22.1668   -4.2116   21.0989 F   0  0  0  0  0  0
  -21.5633   -3.4528   25.7752 F   0  0  0  0  0  0
  -29.8593  -14.0174   20.3233 N   0  0  0  0  0  0
  -26.2780  -12.9510   20.3199 N   0  0  0  0  0  0
  -25.9305  -11.6616   20.5691 N   0  0  0  0  0  0
  -22.0402  -12.8170   22.0472 N   0  0  0  0  0  0
  -25.4031  -15.1980   20.4273 N   0  0  0  0  0  0
  -31.6365  -15.3082   20.1376 O   0  0  0  0  0  0
  -21.6643   -6.8858   21.4240 O   0  0  0  0  0  0
  -22.3428  -14.5496   20.6772 O   0  0  0  0  0  0
  -24.6655  -31.8188   23.1632 C   0  0  0  0  0  0
  -25.9320  -32.4557   23.8107 C   0  0  1  0  0  0
  -27.2267  -26.8907   20.1888 C   0  0  0  0  0  0
  -25.5966  -33.8368   24.2015 N   0  0  0  0  0  0
  -23.4828  -30.4240   21.5140 C   0  0  2  0  0  0
  -24.9382  -28.8002   20.1077 C   0  0  0  0  0  0
  -22.7680  -29.4403   22.4761 C   0  0  0  0  0  0
  -18.0323  -28.1405   22.8441 C   0  0  0  0  0  0
  -24.1489  -36.7214   23.2647 C   0  0  0  0  0  0
  -26.0504  -30.6092   21.4021 C   0  0  0  0  0  0
  -26.1199  -29.1953   20.7479 C   0  0  0  0  0  0
  -27.2541  -28.2592   20.7669 C   0  0  0  0  0  0
  -26.0192  -26.6587   19.4914 C   0  0  0  0  0  0
  -24.9151  -27.5556   19.4576 C   0  0  0  0  0  0
  -23.7243  -29.7309   20.1427 C   0  0  0  0  0  0
  -25.4129  -36.2945   24.0284 C   0  0  1  0  0  0
  -20.5939  -28.3753   23.1172 C   0  0  2  0  0  0
  -20.6795  -26.9424   22.5401 C   0  0  0  0  0  0
  -19.5787  -26.6361   21.5205 C   0  0  0  0  0  0
  -18.1961  -26.7939   22.1598 C   0  0  0  0  0  0
  -19.1582  -28.8900   23.2790 C   0  0  0  0  0  0
  -18.9506  -30.1489   23.8821 C   0  0  0  0  0  0
  -17.6507  -30.6600   24.0547 C   0  0  0  0  0  0
  -25.9096  -34.9335   23.4982 C   0  0  0  0  0  0
  -16.5390  -29.9081   23.6355 C   0  0  0  0  0  0
  -16.7311  -28.6508   23.0351 C   0  0  0  0  0  0
  -26.4551  -31.6532   25.0674 C   0  0  0  0  0  0
  -25.3654  -31.3803   26.1317 C   0  0  0  0  0  0
  -27.0483  -30.2897   24.6465 C   0  0  0  0  0  0
  -27.5994  -32.4398   25.7500 C   0  0  0  0  0  0
  -27.5566  -37.1749   24.8459 C   0  0  0  0  0  0
  -21.4339  -29.3038   22.3526 N   0  0  0  0  0  0
  -26.4274  -37.3683   23.9405 N   0  0  0  0  0  0
  -24.7536  -30.9794   22.0797 N   0  0  0  0  0  0
  -23.4216  -28.7985   23.3025 O   0  0  0  0  0  0
  -28.2316  -25.7796   20.3057 O   0  0  0  0  0  0
  -26.5732  -34.8880   22.4597 O   0  0  0  0  0  0
  -23.5720  -32.1183   23.6702 O   0  0  0  0  0  0
  -29.0062  -19.5060   20.5248 C   0  0  0  0  0  0
  -31.4066  -19.8672   19.4169 C   0  0  0  0  0  0
  -29.3520  -20.9971   20.2453 C   0  0  0  0  0  0
  -30.6469  -21.0238   19.7228 C   0  0  0  0  0  0
  -29.8614  -18.2322   20.2246 C   0  0  0  0  0  0
  -31.2310  -22.4123   19.7298 C   0  0  0  0  0  0
  -30.3955  -23.1872   20.7693 C   0  0  0  0  0  0
  -28.9332  -22.6619   20.7190 C   0  0  2  0  0  0
  -28.3397  -22.5728   22.1332 C   0  0  0  0  0  0
  -28.1234  -24.1364   20.0019 C   0  0  0  0  0  0
  -31.0358  -18.5758   19.6401 N   0  0  0  0  0  0
  -29.6427  -16.6278   20.4542 N   0  0  0  0  0  0
  -31.4505  -13.0621   19.1994 H   0  0  0  0  0  0
  -30.5119  -11.9646   20.1623 H   0  0  0  0  0  0
  -29.9346  -11.7485   17.7174 H   0  0  0  0  0  0
  -29.5469  -13.4513   17.6422 H   0  0  0  0  0  0
  -28.0754  -11.2695   19.1390 H   0  0  0  0  0  0
  -27.4226  -12.2820   17.8765 H   0  0  0  0  0  0
  -27.5091  -14.2275   19.2951 H   0  0  0  0  0  0
  -28.8168  -12.5735   21.5095 H   0  0  0  0  0  0
  -28.2560  -14.2232   21.6704 H   0  0  0  0  0  0
  -25.2747   -9.5690   22.4736 H   0  0  0  0  0  0
  -23.9994   -7.4635   22.7467 H   0  0  0  0  0  0
  -21.0821   -8.8747   19.8953 H   0  0  0  0  0  0
  -22.3654  -10.9651   19.6153 H   0  0  0  0  0  0
  -21.1989   -7.6124   23.9698 H   0  0  0  0  0  0
  -21.1483   -6.0508   25.9077 H   0  0  0  0  0  0
  -22.0600   -2.7586   23.2872 H   0  0  0  0  0  0
  -22.4051  -11.9854   22.4877 H   0  0  0  0  0  0
  -21.1001  -13.1164   22.2661 H   0  0  0  0  0  0
  -24.6379  -15.8491   20.5674 H   0  0  0  0  0  0
  -26.2425  -15.6439   20.0805 H   0  0  0  0  0  0
  -26.7404  -32.5066   23.0814 H   0  0  0  0  0  0
  -24.9999  -33.9414   25.0087 H   0  0  0  0  0  0
  -22.7997  -31.2568   21.3370 H   0  0  0  0  0  0
  -23.3745  -35.9547   23.3272 H   0  0  0  0  0  0
  -24.3549  -36.8930   22.2075 H   0  0  0  0  0  0
  -23.7270  -37.6382   23.6763 H   0  0  0  0  0  0
  -26.2346  -31.3467   20.6206 H   0  0  0  0  0  0
  -26.9079  -30.6657   22.0587 H   0  0  0  0  0  0
  -28.1415  -28.5519   21.3097 H   0  0  0  0  0  0
  -25.8922  -25.7062   18.9966 H   0  0  0  0  0  0
  -24.0187  -27.2480   18.9360 H   0  0  0  0  0  0
  -23.8773  -30.4944   19.3807 H   0  0  0  0  0  0
  -22.8345  -29.1824   19.8279 H   0  0  0  0  0  0
  -25.1332  -36.1719   25.0774 H   0  0  0  0  0  0
  -21.0007  -28.3376   24.1303 H   0  0  0  0  0  0
  -20.5698  -26.2359   23.3652 H   0  0  0  0  0  0
  -21.6670  -26.7425   22.1204 H   0  0  0  0  0  0
  -19.6960  -25.6254   21.1285 H   0  0  0  0  0  0
  -19.6744  -27.3130   20.6704 H   0  0  0  0  0  0
  -17.4240  -26.6670   21.3995 H   0  0  0  0  0  0
  -18.0348  -26.0091   22.8999 H   0  0  0  0  0  0
  -19.7986  -30.7293   24.2165 H   0  0  0  0  0  0
  -17.5074  -31.6272   24.5158 H   0  0  0  0  0  0
  -15.5391  -30.2963   23.7734 H   0  0  0  0  0  0
  -15.8703  -28.0826   22.7096 H   0  0  0  0  0  0
  -24.5814  -30.7211   25.7588 H   0  0  0  0  0  0
  -24.8874  -32.3025   26.4637 H   0  0  0  0  0  0
  -25.7828  -30.9004   27.0186 H   0  0  0  0  0  0
  -26.3187  -29.6516   24.1474 H   0  0  0  0  0  0
  -27.3994  -29.7324   25.5160 H   0  0  0  0  0  0
  -27.9116  -30.4050   23.9905 H   0  0  0  0  0  0
  -27.2506  -33.3729   26.1934 H   0  0  0  0  0  0
  -28.3849  -32.6942   25.0378 H   0  0  0  0  0  0
  -28.0619  -31.8669   26.5549 H   0  0  0  0  0  0
  -28.2538  -38.0084   24.7504 H   0  0  0  0  0  0
  -28.1112  -36.2605   24.6287 H   0  0  0  0  0  0
  -27.2285  -37.1381   25.8862 H   0  0  0  0  0  0
  -20.9617  -29.8747   21.6652 H   0  0  0  0  0  0
  -26.0120  -38.2734   24.1437 H   0  0  0  0  0  0
  -28.0714  -19.3330   21.0407 H   0  0  0  0  0  0
  -32.4115  -19.9855   19.0379 H   0  0  0  0  0  0
  -31.1353  -22.8527   18.7365 H   0  0  0  0  0  0
  -32.2903  -22.4025   19.9950 H   0  0  0  0  0  0
  -30.4976  -24.2675   20.6590 H   0  0  0  0  0  0
  -30.8170  -22.9527   21.7485 H   0  0  0  0  0  0
  -28.9419  -21.9396   22.7853 H   0  0  0  0  0  0
  -27.3315  -22.1607   22.1043 H   0  0  0  0  0  0
  -28.2755  -23.5581   22.5972 H   0  0  0  0  0  0
  -27.0558  -23.9214   20.0567 H   0  0  0  0  0  0
  -28.3430  -24.0790   18.9359 H   0  0  0  0  0  0
  -28.6805  -16.4253   20.6766 H   0  0  0  0  0  0
  1 25  1  0  0  0
  1 30  2  0  0  0
  1 82  1  0  0  0
  2  3  1  0  0  0
  2 25  1  0  0  0
  2 83  1  0  0  0
  2 84  1  0  0  0
  3  4  1  0  0  0
  3 85  1  0  0  0
  3 86  1  0  0  0
  4  5  1  0  0  0
  4 87  1  0  0  0
  4 88  1  0  0  0
  5  6  1  0  0  0
  5 26  1  0  0  0
  5 89  1  0  0  0
  6 25  1  0  0  0
  6 90  1  0  0  0
  6 91  1  0  0  0
  7  8  2  0  0  0
  7 26  1  0  0  0
  7 29  1  0  0  0
  8  9  1  0  0  0
  8 22  1  0  0  0
  9 10  1  0  0  0
  9 27  2  0  0  0
 10 11  2  0  0  0
 10 15  1  0  0  0
 11 12  1  0  0  0
 11 92  1  0  0  0
 12 13  2  0  0  0
 12 93  1  0  0  0
 13 14  1  0  0  0
 13 31  1  0  0  0
 14 15  2  0  0  0
 14 94  1  0  0  0
 15 95  1  0  0  0
 16 17  2  0  0  0
 16 21  1  0  0  0
 16 31  1  0  0  0
 17 18  1  0  0  0
 17 96  1  0  0  0
 18 19  2  0  0  0
 18 97  1  0  0  0
 19 20  1  0  0  0
 19 24  1  0  0  0
 20 21  2  0  0  0
 20 98  1  0  0  0
 21 23  1  0  0  0
 22 28  1  0  0  0
 22 32  2  0  0  0
 26 27  1  0  0  0
 28 99  1  0  0  0
 28100  1  0  0  0
 29101  1  0  0  0
 29102  1  0  0  0
 33 34  1  0  0  0
 33 66  1  0  0  0
 33 70  2  0  0  0
 34 36  1  0  0  0
 34 59  1  0  0  0
 34103  1  0  0  0
 35 44  2  0  0  0
 35 45  1  0  0  0
 35 68  1  0  0  0
 36 56  1  0  0  0
 36104  1  0  0  0
 37 39  1  0  0  0
 37 47  1  0  0  0
 37 66  1  0  0  0
 37105  1  0  0  0
 38 43  2  0  0  0
 38 46  1  0  0  0
 38 47  1  0  0  0
 39 64  1  0  0  0
 39 67  2  0  0  0
 40 52  1  0  0  0
 40 53  2  0  0  0
 40 58  1  0  0  0
 41106  1  0  0  0
 41107  1  0  0  0
 41108  1  0  0  0
 41 48  1  0  0  0
 42 43  1  0  0  0
 42 66  1  0  0  0
 42109  1  0  0  0
 42110  1  0  0  0
 43 44  1  0  0  0
 44111  1  0  0  0
 45 46  2  0  0  0
 45112  1  0  0  0
 46113  1  0  0  0
 47114  1  0  0  0
 47115  1  0  0  0
 48 56  1  0  0  0
 48 65  1  0  0  0
 48116  1  0  0  0
 49 50  1  0  0  0
 49 53  1  0  0  0
 49 64  1  0  0  0
 49117  1  0  0  0
 50 51  1  0  0  0
 50118  1  0  0  0
 50119  1  0  0  0
 51 52  1  0  0  0
 51120  1  0  0  0
 51121  1  0  0  0
 52122  1  0  0  0
 52123  1  0  0  0
 53 54  1  0  0  0
 54 55  2  0  0  0
 54124  1  0  0  0
 55 57  1  0  0  0
 55125  1  0  0  0
 56 69  2  0  0  0
 57 58  2  0  0  0
 57126  1  0  0  0
 58127  1  0  0  0
 59 60  1  0  0  0
 59 61  1  0  0  0
 59 62  1  0  0  0
 60128  1  0  0  0
 60129  1  0  0  0
 60130  1  0  0  0
 61131  1  0  0  0
 61132  1  0  0  0
 61133  1  0  0  0
 62134  1  0  0  0
 62135  1  0  0  0
 62136  1  0  0  0
 63 65  1  0  0  0
 63137  1  0  0  0
 63138  1  0  0  0
 63139  1  0  0  0
 64140  1  0  0  0
 65141  1  0  0  0
 68 80  1  0  0  0
 71 73  2  0  0  0
 71 75  1  0  0  0
 71142  1  0  0  0
 72 74  2  0  0  0
 72 81  1  0  0  0
 72143  1  0  0  0
 73 74  1  0  0  0
 73 78  1  0  0  0
 74 76  1  0  0  0
 75 81  2  0  0  0
 75 82  1  0  0  0
 76 77  1  0  0  0
 76144  1  0  0  0
 76145  1  0  0  0
 77 78  1  0  0  0
 77146  1  0  0  0
 77147  1  0  0  0
 78 79  1  0  0  0
 78 80  1  0  0  0
 79148  1  0  0  0
 79149  1  0  0  0
 79150  1  0  0  0
 80151  1  0  0  0
 80152  1  0  0  0
 82153  1  0  0  0
M  ISO  4   1 100  68 101  80 101  82 100
M  END
> <chiral flag>
0

> <version>
0

> <s_m_source_file>
/data/baiqing/PycharmProjects/Reinvent-master-3.2/result/LINK_invent/BTK/process_docking_weight1_custom_sum_contain_oxygen_bond_distance_aromatic_linkinvent_7_9_3/rearranged_h_0179.sdf

> <i_m_source_file_index>
71

> <r_mmod_Potential_Energy-OPLS-2005>
1360.3203125

> <r_mmod_Stretch_Energy-OPLS-2005>
658.571350097656

> <r_mmod_Bend_Energy-OPLS-2005>
530.800476074219

> <r_mmod_Torsional_Energy-OPLS-2005>
238.939788818359

> <r_mmod_Improper_Torsional_Energy-OPLS-2005>
9.31825637817383

> <r_mmod_Van_der_Waal_Energy-OPLS-2005>
124.636344909668

> <r_mmod_Electrostatic_Energy-OPLS-2005>
-490.07177734375

> <r_mmod_Solvation_Energy-OPLS-2005>
-239.936065673828

> <b_mmod_Minimization_Converged-OPLS-2005>
0

> <r_mmod_RMS_Derivative-OPLS-2005>
2.45971250534058

$$$$
71
                    3D
 Structure written by MMmdl.
162171  0  0  1  0            999 V2000
  -30.4575  -15.0496   20.3614 C   0  0  0  0  0  0
  -30.4305  -12.6460   19.5075 C   0  0  0  0  0  0
  -29.5084  -12.5066   18.2687 C   0  0  0  0  0  0
  -28.0554  -12.2580   18.7058 C   0  0  0  0  0  0
  -27.6098  -13.2339   19.8223 C   0  0  2  0  0  0
  -28.6434  -13.3331   20.9614 C   0  0  0  0  0  0
  -25.2470  -13.8175   20.5799 C   0  0  0  0  0  0
  -24.1758  -13.0485   20.9230 C   0  0  0  0  0  0
  -24.6325  -11.6923   20.8759 C   0  0  0  0  0  0
  -23.9020  -10.4290   21.0405 C   0  0  0  0  0  0
  -24.3627   -9.4187   21.9140 C   0  0  0  0  0  0
  -23.6319   -8.2218   22.0720 C   0  0  0  0  0  0
  -22.4290   -8.0258   21.3516 C   0  0  0  0  0  0
  -21.9908   -9.0207   20.4594 C   0  0  0  0  0  0
  -22.7214  -10.2093   20.3004 C   0  0  0  0  0  0
  -21.6832   -6.0760   22.5276 C   0  0  0  0  0  0
  -21.4027   -6.5661   23.8217 C   0  0  0  0  0  0
  -21.3653   -5.6784   24.9157 C   0  0  0  0  0  0
  -21.6025   -4.3056   24.7201 C   0  0  0  0  0  0
  -21.8813   -3.8170   23.4333 C   0  0  0  0  0  0
  -21.9199   -4.6990   22.3408 C   0  0  0  0  0  0
  -22.7779  -13.5235   21.1919 C   0  0  0  0  0  0
  -22.1638   -4.2206   21.0967 F   0  0  0  0  0  0
  -21.5637   -3.4521   25.7714 F   0  0  0  0  0  0
  -29.9032  -13.7654   20.3471 N   0  0  0  0  0  0
  -26.2790  -12.9334   20.3183 N   0  0  0  0  0  0
  -25.9234  -11.6499   20.5718 N   0  0  0  0  0  0
  -22.0455  -12.8187   22.0416 N   0  0  0  0  0  0
  -25.4372  -15.1917   20.4432 N   0  0  0  0  0  0
  -31.6723  -15.1098   20.1263 O   0  0  0  0  0  0
  -21.6626   -6.8895   21.4226 O   0  0  0  0  0  0
  -22.3468  -14.5546   20.6715 O   0  0  0  0  0  0
  -24.6365  -31.8409   23.1783 C   0  0  0  0  0  0
  -25.9147  -32.4627   23.8226 C   0  0  1  0  0  0
  -27.2168  -27.1094   20.1074 C   0  0  0  0  0  0
  -25.5928  -33.8435   24.2157 N   0  0  0  0  0  0
  -23.4503  -30.4554   21.5153 C   0  0  2  0  0  0
  -24.9110  -28.8843   20.0755 C   0  0  0  0  0  0
  -22.7561  -29.4541   22.4735 C   0  0  0  0  0  0
  -18.0417  -28.1296   22.8537 C   0  0  0  0  0  0
  -24.1505  -36.7298   23.2644 C   0  0  0  0  0  0
  -26.0045  -30.6869   21.4074 C   0  0  0  0  0  0
  -26.0711  -29.3016   20.7368 C   0  0  0  0  0  0
  -27.2126  -28.4141   20.7620 C   0  0  0  0  0  0
  -26.0749  -26.8354   19.3437 C   0  0  0  0  0  0
  -24.9404  -27.6786   19.3508 C   0  0  0  0  0  0
  -23.6870  -29.7847   20.1295 C   0  0  0  0  0  0
  -25.4114  -36.2987   24.0315 C   0  0  1  0  0  0
  -20.5990  -28.3754   23.1190 C   0  0  2  0  0  0
  -20.6938  -26.9487   22.5324 C   0  0  0  0  0  0
  -19.5861  -26.6388   21.5182 C   0  0  0  0  0  0
  -18.2204  -26.7692   22.1998 C   0  0  0  0  0  0
  -19.1651  -28.8883   23.2835 C   0  0  0  0  0  0
  -18.9573  -30.1509   23.8728 C   0  0  0  0  0  0
  -17.6582  -30.6660   24.0353 C   0  0  0  0  0  0
  -25.9103  -34.9359   23.5061 C   0  0  0  0  0  0
  -16.5464  -29.9103   23.6196 C   0  0  0  0  0  0
  -16.7387  -28.6449   23.0346 C   0  0  0  0  0  0
  -26.4515  -31.6472   25.0680 C   0  0  0  0  0  0
  -25.3744  -31.3629   26.1404 C   0  0  0  0  0  0
  -27.0367  -30.2852   24.6311 C   0  0  0  0  0  0
  -27.6059  -32.4264   25.7465 C   0  0  0  0  0  0
  -27.5570  -37.1770   24.8472 C   0  0  0  0  0  0
  -21.4250  -29.3088   22.3509 N   0  0  0  0  0  0
  -26.4265  -37.3711   23.9456 N   0  0  0  0  0  0
  -24.7142  -31.0239   22.0838 N   0  0  0  0  0  0
  -23.4139  -28.8103   23.2947 O   0  0  0  0  0  0
  -28.2278  -26.0916   20.2675 O   0  0  0  0  0  0
  -26.5708  -34.8866   22.4663 O   0  0  0  0  0  0
  -23.5456  -32.1310   23.6959 O   0  0  0  0  0  0
  -29.0426  -20.5125   19.8307 C   0  0  0  0  0  0
  -28.0968  -21.6212   20.1539 C   0  0  0  0  0  0
  -27.0296  -21.2135   20.9797 C   0  0  0  0  0  0
  -28.9170  -19.1163   20.3600 C   0  0  0  0  0  0
  -26.9558  -19.8762   21.4786 C   0  0  0  0  0  0
  -26.2147  -23.1984   19.8816 C   0  0  0  0  0  0
  -27.7227  -23.1250   19.5384 C   0  0  1  0  0  0
  -25.9972  -22.3565   21.1580 C   0  0  0  0  0  0
  -25.8061  -19.4183   22.3672 C   0  0  0  0  0  0
  -26.3950  -23.2171   22.3789 C   0  0  0  0  0  0
  -24.4907  -21.9794   21.2728 C   0  0  0  0  0  0
  -29.9244  -17.7932   20.1459 C   0  0  0  0  0  0
  -28.4384  -24.6813   19.5941 C   0  0  0  0  0  0
  -27.8558  -18.8862   21.1783 N   0  0  0  0  0  0
  -29.6478  -16.2397   20.4279 N   0  0  0  0  0  0
  -31.4553  -12.8206   19.1779 H   0  0  0  0  0  0
  -30.4530  -11.7234   20.0912 H   0  0  0  0  0  0
  -29.8534  -11.6881   17.6327 H   0  0  0  0  0  0
  -29.5598  -13.4206   17.6706 H   0  0  0  0  0  0
  -27.9968  -11.2307   19.0715 H   0  0  0  0  0  0
  -27.3741  -12.3056   17.8553 H   0  0  0  0  0  0
  -27.5436  -14.2068   19.3317 H   0  0  0  0  0  0
  -28.7591  -12.3792   21.4734 H   0  0  0  0  0  0
  -28.3179  -14.0608   21.7065 H   0  0  0  0  0  0
  -25.2741   -9.5717   22.4738 H   0  0  0  0  0  0
  -24.0007   -7.4631   22.7474 H   0  0  0  0  0  0
  -21.0832   -8.8742   19.8932 H   0  0  0  0  0  0
  -22.3630  -10.9670   19.6167 H   0  0  0  0  0  0
  -21.1995   -7.6149   23.9727 H   0  0  0  0  0  0
  -21.1492   -6.0512   25.9064 H   0  0  0  0  0  0
  -22.0615   -2.7644   23.2791 H   0  0  0  0  0  0
  -22.4066  -11.9813   22.4755 H   0  0  0  0  0  0
  -21.1117  -13.1265   22.2683 H   0  0  0  0  0  0
  -24.7117  -15.8699   20.6426 H   0  0  0  0  0  0
  -26.3254  -15.6183   20.2196 H   0  0  0  0  0  0
  -26.7149  -32.5250   23.0881 H   0  0  0  0  0  0
  -24.9791  -33.9459   25.0097 H   0  0  0  0  0  0
  -22.7596  -31.2886   21.3617 H   0  0  0  0  0  0
  -23.3713  -35.9703   23.3280 H   0  0  0  0  0  0
  -24.3548  -36.8970   22.2066 H   0  0  0  0  0  0
  -23.7337  -37.6489   23.6733 H   0  0  0  0  0  0
  -26.1801  -31.4434   20.6400 H   0  0  0  0  0  0
  -26.8551  -30.7166   22.0766 H   0  0  0  0  0  0
  -28.0778  -28.7001   21.3434 H   0  0  0  0  0  0
  -26.0442  -25.9323   18.7477 H   0  0  0  0  0  0
  -24.0992  -27.3825   18.7454 H   0  0  0  0  0  0
  -23.8421  -30.5637   19.3793 H   0  0  0  0  0  0
  -22.8065  -29.2266   19.8059 H   0  0  0  0  0  0
  -25.1276  -36.1777   25.0792 H   0  0  0  0  0  0
  -21.0133  -28.3375   24.1276 H   0  0  0  0  0  0
  -20.5919  -26.2375   23.3536 H   0  0  0  0  0  0
  -21.6879  -26.7634   22.1222 H   0  0  0  0  0  0
  -19.7154  -25.6375   21.1050 H   0  0  0  0  0  0
  -19.6508  -27.3241   20.6729 H   0  0  0  0  0  0
  -17.4222  -26.5674   21.4850 H   0  0  0  0  0  0
  -18.1371  -26.0123   22.9841 H   0  0  0  0  0  0
  -19.8032  -30.7441   24.1947 H   0  0  0  0  0  0
  -17.5208  -31.6377   24.4882 H   0  0  0  0  0  0
  -15.5469  -30.3097   23.7574 H   0  0  0  0  0  0
  -15.8791  -28.0654   22.7201 H   0  0  0  0  0  0
  -24.5949  -30.6969   25.7687 H   0  0  0  0  0  0
  -24.8943  -32.2800   26.4809 H   0  0  0  0  0  0
  -25.8035  -30.8763   27.0186 H   0  0  0  0  0  0
  -26.2934  -29.6560   24.1412 H   0  0  0  0  0  0
  -27.3988  -29.7156   25.4874 H   0  0  0  0  0  0
  -27.8868  -30.4015   23.9601 H   0  0  0  0  0  0
  -27.2631  -33.3608   26.1936 H   0  0  0  0  0  0
  -28.3888  -32.6757   25.0289 H   0  0  0  0  0  0
  -28.0747  -31.8506   26.5438 H   0  0  0  0  0  0
  -28.2514  -38.0107   24.7453 H   0  0  0  0  0  0
  -28.1073  -36.2606   24.6321 H   0  0  0  0  0  0
  -27.2300  -37.1492   25.8865 H   0  0  0  0  0  0
  -20.9442  -29.8832   21.6730 H   0  0  0  0  0  0
  -26.0091  -38.2760   24.1453 H   0  0  0  0  0  0
  -29.8518  -20.7256   19.1395 H   0  0  0  0  0  0
  -25.6561  -22.7341   19.0619 H   0  0  0  0  0  0
  -25.7930  -24.1945   19.9702 H   0  0  0  0  0  0
  -27.7569  -22.9112   18.4644 H   0  0  0  0  0  0
  -25.6219  -20.1194   23.1782 H   0  0  0  0  0  0
  -26.0037  -18.4502   22.8314 H   0  0  0  0  0  0
  -24.8881  -19.3132   21.7847 H   0  0  0  0  0  0
  -26.2700  -22.6978   23.3301 H   0  0  0  0  0  0
  -25.7946  -24.1296   22.4353 H   0  0  0  0  0  0
  -27.4380  -23.5285   22.3218 H   0  0  0  0  0  0
  -24.1530  -21.2947   20.4865 H   0  0  0  0  0  0
  -23.8512  -22.8660   21.2104 H   0  0  0  0  0  0
  -24.2269  -21.5378   22.2342 H   0  0  0  0  0  0
  -30.8165  -18.0335   20.7254 H   0  0  0  0  0  0
  -30.2669  -17.8554   19.1128 H   0  0  0  0  0  0
  -28.4621  -24.9671   18.5410 H   0  0  0  0  0  0
  -29.4871  -24.4713   19.8062 H   0  0  0  0  0  0
  -28.6697  -16.0642   20.6029 H   0  0  0  0  0  0
  1 25  1  0  0  0
  1 30  2  0  0  0
  1 85  1  0  0  0
  2  3  1  0  0  0
  2 25  1  0  0  0
  2 86  1  0  0  0
  2 87  1  0  0  0
  3  4  1  0  0  0
  3 88  1  0  0  0
  3 89  1  0  0  0
  4  5  1  0  0  0
  4 90  1  0  0  0
  4 91  1  0  0  0
  5  6  1  0  0  0
  5 26  1  0  0  0
  5 92  1  0  0  0
  6 25  1  0  0  0
  6 93  1  0  0  0
  6 94  1  0  0  0
  7  8  2  0  0  0
  7 26  1  0  0  0
  7 29  1  0  0  0
  8  9  1  0  0  0
  8 22  1  0  0  0
  9 10  1  0  0  0
  9 27  2  0  0  0
 10 11  2  0  0  0
 10 15  1  0  0  0
 11 12  1  0  0  0
 11 95  1  0  0  0
 12 13  2  0  0  0
 12 96  1  0  0  0
 13 14  1  0  0  0
 13 31  1  0  0  0
 14 15  2  0  0  0
 14 97  1  0  0  0
 15 98  1  0  0  0
 16 17  2  0  0  0
 16 21  1  0  0  0
 16 31  1  0  0  0
 17 18  1  0  0  0
 17 99  1  0  0  0
 18 19  2  0  0  0
 18100  1  0  0  0
 19 20  1  0  0  0
 19 24  1  0  0  0
 20 21  2  0  0  0
 20101  1  0  0  0
 21 23  1  0  0  0
 22 28  1  0  0  0
 22 32  2  0  0  0
 26 27  1  0  0  0
 28102  1  0  0  0
 28103  1  0  0  0
 29104  1  0  0  0
 29105  1  0  0  0
 33 34  1  0  0  0
 33 66  1  0  0  0
 33 70  2  0  0  0
 34 36  1  0  0  0
 34 59  1  0  0  0
 34106  1  0  0  0
 35 44  2  0  0  0
 35 45  1  0  0  0
 35 68  1  0  0  0
 36 56  1  0  0  0
 36107  1  0  0  0
 37 39  1  0  0  0
 37 47  1  0  0  0
 37 66  1  0  0  0
 37108  1  0  0  0
 38 43  2  0  0  0
 38 46  1  0  0  0
 38 47  1  0  0  0
 39 64  1  0  0  0
 39 67  2  0  0  0
 40 52  1  0  0  0
 40 53  2  0  0  0
 40 58  1  0  0  0
 41109  1  0  0  0
 41110  1  0  0  0
 41111  1  0  0  0
 41 48  1  0  0  0
 42 43  1  0  0  0
 42 66  1  0  0  0
 42112  1  0  0  0
 42113  1  0  0  0
 43 44  1  0  0  0
 44114  1  0  0  0
 45 46  2  0  0  0
 45115  1  0  0  0
 46116  1  0  0  0
 47117  1  0  0  0
 47118  1  0  0  0
 48 56  1  0  0  0
 48 65  1  0  0  0
 48119  1  0  0  0
 49 50  1  0  0  0
 49 53  1  0  0  0
 49 64  1  0  0  0
 49120  1  0  0  0
 50 51  1  0  0  0
 50121  1  0  0  0
 50122  1  0  0  0
 51 52  1  0  0  0
 51123  1  0  0  0
 51124  1  0  0  0
 52125  1  0  0  0
 52126  1  0  0  0
 53 54  1  0  0  0
 54 55  2  0  0  0
 54127  1  0  0  0
 55 57  1  0  0  0
 55128  1  0  0  0
 56 69  2  0  0  0
 57 58  2  0  0  0
 57129  1  0  0  0
 58130  1  0  0  0
 59 60  1  0  0  0
 59 61  1  0  0  0
 59 62  1  0  0  0
 60131  1  0  0  0
 60132  1  0  0  0
 60133  1  0  0  0
 61134  1  0  0  0
 61135  1  0  0  0
 61136  1  0  0  0
 62137  1  0  0  0
 62138  1  0  0  0
 62139  1  0  0  0
 63 65  1  0  0  0
 63140  1  0  0  0
 63141  1  0  0  0
 63142  1  0  0  0
 64143  1  0  0  0
 65144  1  0  0  0
 68 83  1  0  0  0
 71 72  2  0  0  0
 71 74  1  0  0  0
 71145  1  0  0  0
 72 73  1  0  0  0
 72 77  1  0  0  0
 73 75  2  0  0  0
 73 78  1  0  0  0
 74 82  1  0  0  0
 74 84  2  0  0  0
 75 79  1  0  0  0
 75 84  1  0  0  0
 76 77  1  0  0  0
 76 78  1  0  0  0
 76146  1  0  0  0
 76147  1  0  0  0
 77 83  1  0  0  0
 77148  1  0  0  0
 78 80  1  0  0  0
 78 81  1  0  0  0
 79149  1  0  0  0
 79150  1  0  0  0
 79151  1  0  0  0
 80152  1  0  0  0
 80153  1  0  0  0
 80154  1  0  0  0
 81155  1  0  0  0
 81156  1  0  0  0
 81157  1  0  0  0
 82 85  1  0  0  0
 82158  1  0  0  0
 82159  1  0  0  0
 83160  1  0  0  0
 83161  1  0  0  0
 85162  1  0  0  0
M  ISO  4   1 100  68 101  83 101  85 100
M  END
> <chiral flag>
0

> <version>
0

> <s_m_source_file>
/data/baiqing/PycharmProjects/Reinvent-master-3.2/result/LINK_invent/BTK/process_docking_weight1_custom_sum_contain_oxygen_bond_distance_aromatic_linkinvent_7_9_3/rearranged_h_0179.sdf

> <i_m_source_file_index>
72

> <r_mmod_Potential_Energy-OPLS-2005>
549.703735351562

> <r_mmod_Stretch_Energy-OPLS-2005>
312.487701416016

> <r_mmod_Bend_Energy-OPLS-2005>
443.055541992188

> <r_mmod_Torsional_Energy-OPLS-2005>
239.022872924805

> <r_mmod_Improper_Torsional_Energy-OPLS-2005>
7.99438810348511

> <r_mmod_Van_der_Waal_Energy-OPLS-2005>
124.691886901855

> <r_mmod_Electrostatic_Energy-OPLS-2005>
-625.197265625

> <r_mmod_Solvation_Energy-OPLS-2005>
-218.990814208984

> <b_mmod_Minimization_Converged-OPLS-2005>
0

> <r_mmod_RMS_Derivative-OPLS-2005>
10.1083812713623

$$$$
72
                    3D
 Structure written by MMmdl.
158167  0  0  1  0            999 V2000
  -30.6740  -14.6961   20.4669 C   0  0  0  0  0  0
  -30.4301  -12.4204   19.4713 C   0  0  0  0  0  0
  -29.5131  -12.4777   18.2306 C   0  0  0  0  0  0
  -28.0380  -12.3212   18.6573 C   0  0  0  0  0  0
  -27.6429  -13.2543   19.8375 C   0  0  2  0  0  0
  -28.6871  -13.1789   20.9754 C   0  0  0  0  0  0
  -25.2520  -13.8306   20.5680 C   0  0  0  0  0  0
  -24.1810  -13.0469   20.9238 C   0  0  0  0  0  0
  -24.6461  -11.6999   20.8807 C   0  0  0  0  0  0
  -23.9165  -10.4295   21.0462 C   0  0  0  0  0  0
  -24.3676   -9.4155   21.9203 C   0  0  0  0  0  0
  -23.6268   -8.2222   22.0789 C   0  0  0  0  0  0
  -22.4246   -8.0319   21.3582 C   0  0  0  0  0  0
  -21.9949   -9.0322   20.4678 C   0  0  0  0  0  0
  -22.7385  -10.2145   20.3057 C   0  0  0  0  0  0
  -21.6824   -6.0745   22.5295 C   0  0  0  0  0  0
  -21.4012   -6.5627   23.8254 C   0  0  0  0  0  0
  -21.3679   -5.6773   24.9209 C   0  0  0  0  0  0
  -21.6032   -4.3027   24.7242 C   0  0  0  0  0  0
  -21.8789   -3.8135   23.4364 C   0  0  0  0  0  0
  -21.9164   -4.6967   22.3420 C   0  0  0  0  0  0
  -22.7815  -13.5213   21.1876 C   0  0  0  0  0  0
  -22.1602   -4.2125   21.1001 F   0  0  0  0  0  0
  -21.5658   -3.4551   25.7769 F   0  0  0  0  0  0
  -29.9938  -13.4999   20.3892 N   0  0  0  0  0  0
  -26.2922  -12.9542   20.3213 N   0  0  0  0  0  0
  -25.9392  -11.6672   20.5797 N   0  0  0  0  0  0
  -22.0468  -12.8151   22.0485 N   0  0  0  0  0  0
  -25.4303  -15.2011   20.4070 N   0  0  0  0  0  0
  -31.8663  -14.7351   20.1536 O   0  0  0  0  0  0
  -21.6598   -6.8932   21.4274 O   0  0  0  0  0  0
  -22.3420  -14.5485   20.6749 O   0  0  0  0  0  0
  -24.6332  -31.8584   23.1974 C   0  0  0  0  0  0
  -25.9125  -32.4719   23.8401 C   0  0  1  0  0  0
  -27.2148  -27.3121   20.1001 C   0  0  0  0  0  0
  -25.5945  -33.8505   24.2265 N   0  0  0  0  0  0
  -23.4310  -30.4776   21.5351 C   0  0  2  0  0  0
  -24.8801  -28.9389   20.0984 C   0  0  0  0  0  0
  -22.7450  -29.4628   22.4926 C   0  0  0  0  0  0
  -18.0292  -28.1665   22.8144 C   0  0  0  0  0  0
  -24.1476  -36.7270   23.2641 C   0  0  0  0  0  0
  -25.9889  -30.7794   21.3882 C   0  0  0  0  0  0
  -26.0473  -29.4116   20.7151 C   0  0  0  0  0  0
  -27.2226  -28.5987   20.7147 C   0  0  0  0  0  0
  -26.0420  -26.8997   19.4438 C   0  0  0  0  0  0
  -24.8722  -27.6834   19.4644 C   0  0  0  0  0  0
  -23.6538  -29.8194   20.1471 C   0  0  0  0  0  0
  -25.4101  -36.3065   24.0328 C   0  0  1  0  0  0
  -20.5805  -28.3743   23.1332 C   0  0  2  0  0  0
  -20.6378  -26.9196   22.6102 C   0  0  0  0  0  0
  -19.5974  -26.6194   21.5378 C   0  0  0  0  0  0
  -18.1869  -26.8480   22.0810 C   0  0  0  0  0  0
  -19.1542  -28.9005   23.2768 C   0  0  0  0  0  0
  -18.9522  -30.1431   23.9158 C   0  0  0  0  0  0
  -17.6534  -30.6570   24.0930 C   0  0  0  0  0  0
  -25.9040  -34.9435   23.5118 C   0  0  0  0  0  0
  -16.5412  -29.9338   23.6276 C   0  0  0  0  0  0
  -16.7266  -28.6855   23.0060 C   0  0  0  0  0  0
  -26.4519  -31.6598   25.0832 C   0  0  0  0  0  0
  -25.3770  -31.3673   26.1573 C   0  0  0  0  0  0
  -27.0387  -30.3014   24.6344 C   0  0  0  0  0  0
  -27.6091  -32.4420   25.7508 C   0  0  0  0  0  0
  -27.5585  -37.1774   24.8476 C   0  0  0  0  0  0
  -21.4267  -29.2597   22.3289 N   0  0  0  0  0  0
  -26.4279  -37.3785   23.9400 N   0  0  0  0  0  0
  -24.6985  -31.0560   22.0943 N   0  0  0  0  0  0
  -23.4103  -28.8552   23.3351 O   0  0  0  0  0  0
  -28.2654  -26.3993   20.1367 O   0  0  0  0  0  0
  -26.5650  -34.8878   22.4730 O   0  0  0  0  0  0
  -23.5494  -32.1412   23.7233 O   0  0  0  0  0  0
  -27.7240  -23.0286   22.4919 C   0  0  0  0  0  0
  -27.6035  -25.3235   22.2422 C   0  0  0  0  0  0
  -28.2176  -22.8497   21.1641 C   0  0  0  0  0  0
  -28.1009  -25.2275   20.9105 C   0  0  0  0  0  0
  -29.6542  -18.2486   21.6543 C   0  0  0  0  0  0
  -30.2544  -18.2502   19.3064 C   0  0  0  0  0  0
  -29.4979  -16.6580   21.6313 C   0  0  0  0  0  0
  -29.8983  -16.7149   19.1936 C   0  0  0  0  0  0
  -29.3474  -19.0157   20.3202 C   0  0  0  0  0  0
  -28.2203  -21.3621   20.5893 C   0  0  0  0  0  0
  -27.4349  -24.2385   23.0403 N   0  0  0  0  0  0
  -28.4218  -23.9796   20.3731 N   0  0  0  0  0  0
  -29.9540  -15.8909   20.4355 N   0  0  0  0  0  0
  -29.4922  -20.5541   20.3373 N   0  3  0  0  0  0
  -31.4791  -12.5049   19.1683 H   0  0  0  0  0  0
  -30.3607  -11.4465   19.9623 H   0  0  0  0  0  0
  -29.7785  -11.6717   17.5471 H   0  0  0  0  0  0
  -29.6740  -13.4187   17.6988 H   0  0  0  0  0  0
  -27.9114  -11.2844   18.9665 H   0  0  0  0  0  0
  -27.3700  -12.4652   17.8097 H   0  0  0  0  0  0
  -27.6476  -14.2815   19.4566 H   0  0  0  0  0  0
  -28.6933  -12.1759   21.4078 H   0  0  0  0  0  0
  -28.4425  -13.8639   21.7901 H   0  0  0  0  0  0
  -25.2872   -9.5517   22.4761 H   0  0  0  0  0  0
  -23.9970   -7.4566   22.7493 H   0  0  0  0  0  0
  -21.0887   -8.8893   19.8946 H   0  0  0  0  0  0
  -22.3972  -10.9672   19.6076 H   0  0  0  0  0  0
  -21.1984   -7.6139   23.9759 H   0  0  0  0  0  0
  -21.1548   -6.0513   25.9121 H   0  0  0  0  0  0
  -22.0552   -2.7601   23.2888 H   0  0  0  0  0  0
  -22.4013  -11.9732   22.4735 H   0  0  0  0  0  0
  -21.1085  -13.1195   22.2784 H   0  0  0  0  0  0
  -24.6970  -15.8970   20.5268 H   0  0  0  0  0  0
  -26.2962  -15.6088   20.0734 H   0  0  0  0  0  0
  -26.7247  -32.5264   23.1210 H   0  0  0  0  0  0
  -25.0132  -33.9713   25.0437 H   0  0  0  0  0  0
  -22.7221  -31.2870   21.3642 H   0  0  0  0  0  0
  -23.3783  -35.9593   23.3356 H   0  0  0  0  0  0
  -24.3555  -36.8859   22.2060 H   0  0  0  0  0  0
  -23.7173  -37.6421   23.6668 H   0  0  0  0  0  0
  -26.1766  -31.5527   20.6360 H   0  0  0  0  0  0
  -26.8528  -30.7849   22.0459 H   0  0  0  0  0  0
  -28.1160  -28.9358   21.2218 H   0  0  0  0  0  0
  -26.0220  -25.9501   18.9265 H   0  0  0  0  0  0
  -23.9843  -27.3144   18.9783 H   0  0  0  0  0  0
  -23.7885  -30.5966   19.3904 H   0  0  0  0  0  0
  -22.7786  -29.2443   19.8191 H   0  0  0  0  0  0
  -25.1295  -36.1970   25.0826 H   0  0  0  0  0  0
  -20.9851  -28.3929   24.1508 H   0  0  0  0  0  0
  -20.4506  -26.2561   23.4604 H   0  0  0  0  0  0
  -21.6262  -26.6796   22.2279 H   0  0  0  0  0  0
  -19.7221  -25.5845   21.1917 H   0  0  0  0  0  0
  -19.7686  -27.2616   20.6728 H   0  0  0  0  0  0
  -17.4934  -26.8468   21.2365 H   0  0  0  0  0  0
  -17.8877  -26.0382   22.7489 H   0  0  0  0  0  0
  -19.8061  -30.6865   24.3045 H   0  0  0  0  0  0
  -17.5065  -31.5946   24.5974 H   0  0  0  0  0  0
  -15.5486  -30.3417   23.7453 H   0  0  0  0  0  0
  -15.8578  -28.1701   22.6259 H   0  0  0  0  0  0
  -24.5984  -30.6967   25.7900 H   0  0  0  0  0  0
  -24.8987  -32.2794   26.5117 H   0  0  0  0  0  0
  -25.8216  -30.8789   27.0246 H   0  0  0  0  0  0
  -26.2996  -29.6715   24.1377 H   0  0  0  0  0  0
  -27.4020  -29.7258   25.4844 H   0  0  0  0  0  0
  -27.8911  -30.4246   23.9673 H   0  0  0  0  0  0
  -27.2702  -33.3719   26.2049 H   0  0  0  0  0  0
  -28.3852  -32.6984   25.0292 H   0  0  0  0  0  0
  -28.0850  -31.8626   26.5405 H   0  0  0  0  0  0
  -28.2611  -38.0065   24.7555 H   0  0  0  0  0  0
  -28.1048  -36.2582   24.6294 H   0  0  0  0  0  0
  -27.2302  -37.1444   25.8877 H   0  0  0  0  0  0
  -20.9779  -29.6746   21.5339 H   0  0  0  0  0  0
  -26.0188  -38.2864   24.1405 H   0  0  0  0  0  0
  -27.4754  -22.1970   23.1380 H   0  0  0  0  0  0
  -27.3451  -26.2803   22.6823 H   0  0  0  0  0  0
  -30.6757  -18.4875   21.9664 H   0  0  0  0  0  0
  -29.0253  -18.6484   22.4529 H   0  0  0  0  0  0
  -30.1521  -18.6949   18.3159 H   0  0  0  0  0  0
  -31.3066  -18.3614   19.5758 H   0  0  0  0  0  0
  -28.4421  -16.4084   21.7352 H   0  0  0  0  0  0
  -29.9870  -16.2572   22.5197 H   0  0  0  0  0  0
  -30.5097  -16.2653   18.4106 H   0  0  0  0  0  0
  -28.8762  -16.6310   18.8340 H   0  0  0  0  0  0
  -28.3178  -18.8108   20.0273 H   0  0  0  0  0  0
  -27.5815  -21.3616   19.6959 H   0  0  0  0  0  0
  -27.6852  -20.7531   21.3271 H   0  0  0  0  0  0
  -29.7832  -20.8534   19.4162 H   0  0  0  0  0  0
  -30.2231  -20.8430   20.9631 H   0  0  0  0  0  0
  1 25  1  0  0  0
  1 30  2  0  0  0
  1 83  1  0  0  0
  2  3  1  0  0  0
  2 25  1  0  0  0
  2 85  1  0  0  0
  2 86  1  0  0  0
  3  4  1  0  0  0
  3 87  1  0  0  0
  3 88  1  0  0  0
  4  5  1  0  0  0
  4 89  1  0  0  0
  4 90  1  0  0  0
  5  6  1  0  0  0
  5 26  1  0  0  0
  5 91  1  0  0  0
  6 25  1  0  0  0
  6 92  1  0  0  0
  6 93  1  0  0  0
  7  8  2  0  0  0
  7 26  1  0  0  0
  7 29  1  0  0  0
  8  9  1  0  0  0
  8 22  1  0  0  0
  9 10  1  0  0  0
  9 27  2  0  0  0
 10 11  2  0  0  0
 10 15  1  0  0  0
 11 12  1  0  0  0
 11 94  1  0  0  0
 12 13  2  0  0  0
 12 95  1  0  0  0
 13 14  1  0  0  0
 13 31  1  0  0  0
 14 15  2  0  0  0
 14 96  1  0  0  0
 15 97  1  0  0  0
 16 17  2  0  0  0
 16 21  1  0  0  0
 16 31  1  0  0  0
 17 18  1  0  0  0
 17 98  1  0  0  0
 18 19  2  0  0  0
 18 99  1  0  0  0
 19 20  1  0  0  0
 19 24  1  0  0  0
 20 21  2  0  0  0
 20100  1  0  0  0
 21 23  1  0  0  0
 22 28  1  0  0  0
 22 32  2  0  0  0
 26 27  1  0  0  0
 28101  1  0  0  0
 28102  1  0  0  0
 29103  1  0  0  0
 29104  1  0  0  0
 33 34  1  0  0  0
 33 66  1  0  0  0
 33 70  2  0  0  0
 34 36  1  0  0  0
 34 59  1  0  0  0
 34105  1  0  0  0
 35 44  2  0  0  0
 35 45  1  0  0  0
 35 68  1  0  0  0
 36 56  1  0  0  0
 36106  1  0  0  0
 37 39  1  0  0  0
 37 47  1  0  0  0
 37 66  1  0  0  0
 37107  1  0  0  0
 38 43  2  0  0  0
 38 46  1  0  0  0
 38 47  1  0  0  0
 39 64  1  0  0  0
 39 67  2  0  0  0
 40 52  1  0  0  0
 40 53  2  0  0  0
 40 58  1  0  0  0
 41108  1  0  0  0
 41109  1  0  0  0
 41110  1  0  0  0
 41 48  1  0  0  0
 42 43  1  0  0  0
 42 66  1  0  0  0
 42111  1  0  0  0
 42112  1  0  0  0
 43 44  1  0  0  0
 44113  1  0  0  0
 45 46  2  0  0  0
 45114  1  0  0  0
 46115  1  0  0  0
 47116  1  0  0  0
 47117  1  0  0  0
 48 56  1  0  0  0
 48 65  1  0  0  0
 48118  1  0  0  0
 49 50  1  0  0  0
 49 53  1  0  0  0
 49 64  1  0  0  0
 49119  1  0  0  0
 50 51  1  0  0  0
 50120  1  0  0  0
 50121  1  0  0  0
 51 52  1  0  0  0
 51122  1  0  0  0
 51123  1  0  0  0
 52124  1  0  0  0
 52125  1  0  0  0
 53 54  1  0  0  0
 54 55  2  0  0  0
 54126  1  0  0  0
 55 57  1  0  0  0
 55127  1  0  0  0
 56 69  2  0  0  0
 57 58  2  0  0  0
 57128  1  0  0  0
 58129  1  0  0  0
 59 60  1  0  0  0
 59 61  1  0  0  0
 59 62  1  0  0  0
 60130  1  0  0  0
 60131  1  0  0  0
 60132  1  0  0  0
 61133  1  0  0  0
 61134  1  0  0  0
 61135  1  0  0  0
 62136  1  0  0  0
 62137  1  0  0  0
 62138  1  0  0  0
 63 65  1  0  0  0
 63139  1  0  0  0
 63140  1  0  0  0
 63141  1  0  0  0
 64142  1  0  0  0
 65143  1  0  0  0
 68 74  1  0  0  0
 71 73  2  0  0  0
 71 81  1  0  0  0
 71144  1  0  0  0
 72 74  1  0  0  0
 72 81  2  0  0  0
 72145  1  0  0  0
 73 80  1  0  0  0
 73 82  1  0  0  0
 74 82  2  0  0  0
 75 77  1  0  0  0
 75 79  1  0  0  0
 75146  1  0  0  0
 75147  1  0  0  0
 76 78  1  0  0  0
 76 79  1  0  0  0
 76148  1  0  0  0
 76149  1  0  0  0
 77 83  1  0  0  0
 77150  1  0  0  0
 77151  1  0  0  0
 78 83  1  0  0  0
 78152  1  0  0  0
 78153  1  0  0  0
 79 84  1  0  0  0
 79154  1  0  0  0
 80 84  1  0  0  0
 80155  1  0  0  0
 80156  1  0  0  0
 84157  1  0  0  0
 84158  1  0  0  0
M  CHG  1  84   1
M  ISO  4   1 100  68 101  74 101  83 100
M  END
> <chiral flag>
0

> <version>
0

> <s_m_source_file>
/data/baiqing/PycharmProjects/Reinvent-master-3.2/result/LINK_invent/BTK/process_docking_weight1_custom_sum_contain_oxygen_bond_distance_aromatic_linkinvent_7_9_3/rearranged_h_0179.sdf

> <i_m_source_file_index>
73

> <r_mmod_Potential_Energy-OPLS-2005>
234.750137329102

> <r_mmod_Stretch_Energy-OPLS-2005>
109.487869262695

> <r_mmod_Bend_Energy-OPLS-2005>
170.517959594727

> <r_mmod_Torsional_Energy-OPLS-2005>
355.247283935547

> <r_mmod_Improper_Torsional_Energy-OPLS-2005>
16.4011554718018

> <r_mmod_Van_der_Waal_Energy-OPLS-2005>
133.494155883789

> <r_mmod_Electrostatic_Energy-OPLS-2005>
-137.083694458008

> <r_mmod_Solvation_Energy-OPLS-2005>
-489.058929443359

> <b_mmod_Minimization_Converged-OPLS-2005>
0

> <r_mmod_RMS_Derivative-OPLS-2005>
15.668848991394

$$$$
73
                    3D
 Structure written by MMmdl.
154163  0  0  1  0            999 V2000
  -30.6313  -14.7380   20.4727 C   0  0  0  0  0  0
  -30.4325  -12.4558   19.4711 C   0  0  0  0  0  0
  -29.5087  -12.5068   18.2347 C   0  0  0  0  0  0
  -28.0360  -12.3302   18.6513 C   0  0  0  0  0  0
  -27.6426  -13.2326   19.8511 C   0  0  2  0  0  0
  -28.6891  -13.1710   20.9855 C   0  0  0  0  0  0
  -25.2514  -13.8199   20.5702 C   0  0  0  0  0  0
  -24.1806  -13.0442   20.9213 C   0  0  0  0  0  0
  -24.6398  -11.6921   20.8752 C   0  0  0  0  0  0
  -23.9074  -10.4295   21.0409 C   0  0  0  0  0  0
  -24.3623   -9.4208   21.9185 C   0  0  0  0  0  0
  -23.6296   -8.2244   22.0754 C   0  0  0  0  0  0
  -22.4278   -8.0283   21.3544 C   0  0  0  0  0  0
  -21.9917   -9.0258   20.4646 C   0  0  0  0  0  0
  -22.7247  -10.2136   20.3057 C   0  0  0  0  0  0
  -21.6854   -6.0737   22.5278 C   0  0  0  0  0  0
  -21.4015   -6.5640   23.8212 C   0  0  0  0  0  0
  -21.3660   -5.6792   24.9173 C   0  0  0  0  0  0
  -21.6044   -4.3055   24.7224 C   0  0  0  0  0  0
  -21.8819   -3.8147   23.4345 C   0  0  0  0  0  0
  -21.9193   -4.6964   22.3401 C   0  0  0  0  0  0
  -22.7826  -13.5222   21.1869 C   0  0  0  0  0  0
  -22.1661   -4.2150   21.0979 F   0  0  0  0  0  0
  -21.5628   -3.4539   25.7737 F   0  0  0  0  0  0
  -29.9902  -13.5206   20.4012 N   0  0  0  0  0  0
  -26.2945  -12.9409   20.3294 N   0  0  0  0  0  0
  -25.9330  -11.6550   20.5762 N   0  0  0  0  0  0
  -22.0471  -12.8210   22.0423 N   0  0  0  0  0  0
  -25.4197  -15.1925   20.4108 N   0  0  0  0  0  0
  -31.8189  -14.8244   20.1505 O   0  0  0  0  0  0
  -21.6641   -6.8881   21.4240 O   0  0  0  0  0  0
  -22.3511  -14.5527   20.6715 O   0  0  0  0  0  0
  -24.6345  -31.8558   23.2014 C   0  0  0  0  0  0
  -25.9166  -32.4757   23.8352 C   0  0  1  0  0  0
  -27.2074  -27.2409   20.1180 C   0  0  0  0  0  0
  -25.5956  -33.8560   24.2267 N   0  0  0  0  0  0
  -23.4311  -30.4837   21.5461 C   0  0  2  0  0  0
  -24.8764  -28.9416   20.1073 C   0  0  0  0  0  0
  -22.7521  -29.4611   22.4905 C   0  0  0  0  0  0
  -18.0296  -28.1388   22.8482 C   0  0  0  0  0  0
  -24.1490  -36.7279   23.2639 C   0  0  0  0  0  0
  -25.9831  -30.7603   21.3897 C   0  0  0  0  0  0
  -26.0527  -29.3850   20.7253 C   0  0  0  0  0  0
  -27.2201  -28.5469   20.7255 C   0  0  0  0  0  0
  -26.0066  -26.8965   19.4459 C   0  0  0  0  0  0
  -24.8605  -27.7053   19.4567 C   0  0  0  0  0  0
  -23.6499  -29.8300   20.1592 C   0  0  0  0  0  0
  -25.4118  -36.3069   24.0325 C   0  0  1  0  0  0
  -20.5904  -28.3707   23.1254 C   0  0  2  0  0  0
  -20.6786  -26.9421   22.5399 C   0  0  0  0  0  0
  -19.5758  -26.6383   21.5208 C   0  0  0  0  0  0
  -18.1938  -26.7930   22.1623 C   0  0  0  0  0  0
  -19.1551  -28.8864   23.2862 C   0  0  0  0  0  0
  -18.9471  -30.1463   23.8885 C   0  0  0  0  0  0
  -17.6470  -30.6590   24.0561 C   0  0  0  0  0  0
  -25.9063  -34.9440   23.5095 C   0  0  0  0  0  0
  -16.5361  -29.9085   23.6334 C   0  0  0  0  0  0
  -16.7282  -28.6501   23.0358 C   0  0  0  0  0  0
  -26.4517  -31.6585   25.0748 C   0  0  0  0  0  0
  -25.3725  -31.3742   26.1456 C   0  0  0  0  0  0
  -27.0373  -30.2995   24.6265 C   0  0  0  0  0  0
  -27.6062  -32.4335   25.7524 C   0  0  0  0  0  0
  -27.5579  -37.1798   24.8466 C   0  0  0  0  0  0
  -21.4225  -29.3055   22.3645 N   0  0  0  0  0  0
  -26.4291  -37.3770   23.9409 N   0  0  0  0  0  0
  -24.7021  -31.0508   22.1010 N   0  0  0  0  0  0
  -23.4212  -28.8131   23.2995 O   0  0  0  0  0  0
  -28.2606  -26.2810   20.2019 O   0  0  0  0  0  0
  -26.5628  -34.8913   22.4660 O   0  0  0  0  0  0
  -23.5488  -32.1394   23.7291 O   0  0  0  0  0  0
  -29.1957  -22.6942   19.1218 C   0  0  0  0  0  0
  -28.6927  -23.5046   20.1704 C   0  0  0  0  0  0
  -28.6579  -22.7778   21.3892 C   0  0  0  0  0  0
  -29.4960  -20.7638   20.4460 C   0  0  0  0  0  0
  -29.6091  -18.3985   21.6060 C   0  0  0  0  0  0
  -29.9676  -18.3247   19.5744 C   0  0  0  0  0  0
  -30.3733  -17.3377   20.7288 C   0  0  0  0  0  0
  -28.0847  -23.4003   22.6459 C   0  0  0  0  0  0
  -27.8868  -24.8553   19.8684 C   0  0  0  0  0  0
  -29.5807  -21.3855   19.2659 N   0  0  0  0  0  0
  -29.0606  -21.4658   21.5035 N   0  0  0  0  0  0
  -30.0303  -19.3913   20.5971 N   0  0  0  0  0  0
  -29.8895  -15.8846   20.7101 N   0  0  0  0  0  0
  -31.4730  -12.5777   19.1652 H   0  0  0  0  0  0
  -30.3773  -11.4801   19.9563 H   0  0  0  0  0  0
  -29.7904  -11.7325   17.5198 H   0  0  0  0  0  0
  -29.6335  -13.4604   17.7192 H   0  0  0  0  0  0
  -27.8955  -11.2820   18.9176 H   0  0  0  0  0  0
  -27.3766  -12.5185   17.8032 H   0  0  0  0  0  0
  -27.6361  -14.2533   19.4682 H   0  0  0  0  0  0
  -28.7248  -12.1749   21.4290 H   0  0  0  0  0  0
  -28.4253  -13.8558   21.7930 H   0  0  0  0  0  0
  -25.2765   -9.5683   22.4763 H   0  0  0  0  0  0
  -24.0003   -7.4635   22.7474 H   0  0  0  0  0  0
  -21.0848   -8.8778   19.8951 H   0  0  0  0  0  0
  -22.3706  -10.9676   19.6167 H   0  0  0  0  0  0
  -21.2008   -7.6148   23.9716 H   0  0  0  0  0  0
  -21.1481   -6.0522   25.9076 H   0  0  0  0  0  0
  -22.0598   -2.7610   23.2844 H   0  0  0  0  0  0
  -22.4091  -11.9872   22.4809 H   0  0  0  0  0  0
  -21.1088  -13.1231   22.2629 H   0  0  0  0  0  0
  -24.6483  -15.8427   20.5156 H   0  0  0  0  0  0
  -26.2595  -15.6310   20.0559 H   0  0  0  0  0  0
  -26.7230  -32.5396   23.1088 H   0  0  0  0  0  0
  -25.0110  -33.9698   25.0417 H   0  0  0  0  0  0
  -22.7283  -31.3075   21.4048 H   0  0  0  0  0  0
  -23.3757  -35.9607   23.3298 H   0  0  0  0  0  0
  -24.3580  -36.8906   22.2054 H   0  0  0  0  0  0
  -23.7238  -37.6477   23.6666 H   0  0  0  0  0  0
  -26.1315  -31.5232   20.6243 H   0  0  0  0  0  0
  -26.8570  -30.8018   22.0279 H   0  0  0  0  0  0
  -28.1125  -28.8765   21.2391 H   0  0  0  0  0  0
  -25.8897  -25.9682   18.9098 H   0  0  0  0  0  0
  -23.9649  -27.3649   18.9550 H   0  0  0  0  0  0
  -23.7777  -30.6122   19.4099 H   0  0  0  0  0  0
  -22.7667  -29.2688   19.8488 H   0  0  0  0  0  0
  -25.1299  -36.1916   25.0818 H   0  0  0  0  0  0
  -20.9995  -28.3284   24.1376 H   0  0  0  0  0  0
  -20.5689  -26.2317   23.3607 H   0  0  0  0  0  0
  -21.6651  -26.7443   22.1190 H   0  0  0  0  0  0
  -19.6919  -25.6291   21.1247 H   0  0  0  0  0  0
  -19.6692  -27.3185   20.6731 H   0  0  0  0  0  0
  -17.4205  -26.6676   21.4028 H   0  0  0  0  0  0
  -18.0341  -26.0072   22.9021 H   0  0  0  0  0  0
  -19.7947  -30.7281   24.2250 H   0  0  0  0  0  0
  -17.5025  -31.6270   24.5162 H   0  0  0  0  0  0
  -15.5361  -30.2984   23.7667 H   0  0  0  0  0  0
  -15.8681  -28.0817   22.7083 H   0  0  0  0  0  0
  -24.5914  -30.7076   25.7780 H   0  0  0  0  0  0
  -24.8900  -32.2912   26.4848 H   0  0  0  0  0  0
  -25.8030  -30.8944   27.0254 H   0  0  0  0  0  0
  -26.2975  -29.6734   24.1265 H   0  0  0  0  0  0
  -27.4012  -29.7269   25.4806 H   0  0  0  0  0  0
  -27.8872  -30.4258   23.9554 H   0  0  0  0  0  0
  -27.2667  -33.3649   26.2066 H   0  0  0  0  0  0
  -28.3891  -32.6872   25.0364 H   0  0  0  0  0  0
  -28.0708  -31.8483   26.5470 H   0  0  0  0  0  0
  -28.2592  -38.0099   24.7516 H   0  0  0  0  0  0
  -28.1079  -36.2630   24.6291 H   0  0  0  0  0  0
  -27.2295  -37.1444   25.8869 H   0  0  0  0  0  0
  -20.9411  -29.8799   21.6867 H   0  0  0  0  0  0
  -26.0168  -38.2842   24.1411 H   0  0  0  0  0  0
  -29.2175  -23.0731   18.1106 H   0  0  0  0  0  0
  -30.0368  -18.5664   22.5952 H   0  0  0  0  0  0
  -28.5252  -18.2703   21.6411 H   0  0  0  0  0  0
  -28.9597  -18.1789   19.1805 H   0  0  0  0  0  0
  -30.7094  -18.4289   18.7818 H   0  0  0  0  0  0
  -31.4486  -17.3952   20.9194 H   0  0  0  0  0  0
  -28.3865  -24.4444   22.7301 H   0  0  0  0  0  0
  -28.4294  -22.8806   23.5400 H   0  0  0  0  0  0
  -26.9959  -23.3591   22.6260 H   0  0  0  0  0  0
  -26.9208  -24.6561   20.3350 H   0  0  0  0  0  0
  -27.7145  -24.8350   18.7915 H   0  0  0  0  0  0
  -28.9120  -15.7377   20.9101 H   0  0  0  0  0  0
  1 25  1  0  0  0
  1 30  2  0  0  0
  1 83  1  0  0  0
  2  3  1  0  0  0
  2 25  1  0  0  0
  2 84  1  0  0  0
  2 85  1  0  0  0
  3  4  1  0  0  0
  3 86  1  0  0  0
  3 87  1  0  0  0
  4  5  1  0  0  0
  4 88  1  0  0  0
  4 89  1  0  0  0
  5  6  1  0  0  0
  5 26  1  0  0  0
  5 90  1  0  0  0
  6 25  1  0  0  0
  6 91  1  0  0  0
  6 92  1  0  0  0
  7  8  2  0  0  0
  7 26  1  0  0  0
  7 29  1  0  0  0
  8  9  1  0  0  0
  8 22  1  0  0  0
  9 10  1  0  0  0
  9 27  2  0  0  0
 10 11  2  0  0  0
 10 15  1  0  0  0
 11 12  1  0  0  0
 11 93  1  0  0  0
 12 13  2  0  0  0
 12 94  1  0  0  0
 13 14  1  0  0  0
 13 31  1  0  0  0
 14 15  2  0  0  0
 14 95  1  0  0  0
 15 96  1  0  0  0
 16 17  2  0  0  0
 16 21  1  0  0  0
 16 31  1  0  0  0
 17 18  1  0  0  0
 17 97  1  0  0  0
 18 19  2  0  0  0
 18 98  1  0  0  0
 19 20  1  0  0  0
 19 24  1  0  0  0
 20 21  2  0  0  0
 20 99  1  0  0  0
 21 23  1  0  0  0
 22 28  1  0  0  0
 22 32  2  0  0  0
 26 27  1  0  0  0
 28100  1  0  0  0
 28101  1  0  0  0
 29102  1  0  0  0
 29103  1  0  0  0
 33 34  1  0  0  0
 33 66  1  0  0  0
 33 70  2  0  0  0
 34 36  1  0  0  0
 34 59  1  0  0  0
 34104  1  0  0  0
 35 44  2  0  0  0
 35 45  1  0  0  0
 35 68  1  0  0  0
 36 56  1  0  0  0
 36105  1  0  0  0
 37 39  1  0  0  0
 37 47  1  0  0  0
 37 66  1  0  0  0
 37106  1  0  0  0
 38 43  2  0  0  0
 38 46  1  0  0  0
 38 47  1  0  0  0
 39 64  1  0  0  0
 39 67  2  0  0  0
 40 52  1  0  0  0
 40 53  2  0  0  0
 40 58  1  0  0  0
 41107  1  0  0  0
 41108  1  0  0  0
 41109  1  0  0  0
 41 48  1  0  0  0
 42 43  1  0  0  0
 42 66  1  0  0  0
 42110  1  0  0  0
 42111  1  0  0  0
 43 44  1  0  0  0
 44112  1  0  0  0
 45 46  2  0  0  0
 45113  1  0  0  0
 46114  1  0  0  0
 47115  1  0  0  0
 47116  1  0  0  0
 48 56  1  0  0  0
 48 65  1  0  0  0
 48117  1  0  0  0
 49 50  1  0  0  0
 49 53  1  0  0  0
 49 64  1  0  0  0
 49118  1  0  0  0
 50 51  1  0  0  0
 50119  1  0  0  0
 50120  1  0  0  0
 51 52  1  0  0  0
 51121  1  0  0  0
 51122  1  0  0  0
 52123  1  0  0  0
 52124  1  0  0  0
 53 54  1  0  0  0
 54 55  2  0  0  0
 54125  1  0  0  0
 55 57  1  0  0  0
 55126  1  0  0  0
 56 69  2  0  0  0
 57 58  2  0  0  0
 57127  1  0  0  0
 58128  1  0  0  0
 59 60  1  0  0  0
 59 61  1  0  0  0
 59 62  1  0  0  0
 60129  1  0  0  0
 60130  1  0  0  0
 60131  1  0  0  0
 61132  1  0  0  0
 61133  1  0  0  0
 61134  1  0  0  0
 62135  1  0  0  0
 62136  1  0  0  0
 62137  1  0  0  0
 63 65  1  0  0  0
 63138  1  0  0  0
 63139  1  0  0  0
 63140  1  0  0  0
 64141  1  0  0  0
 65142  1  0  0  0
 68 79  1  0  0  0
 71 72  2  0  0  0
 71 80  1  0  0  0
 71143  1  0  0  0
 72 73  1  0  0  0
 72 79  1  0  0  0
 73 78  1  0  0  0
 73 81  2  0  0  0
 74 80  2  0  0  0
 74 81  1  0  0  0
 74 82  1  0  0  0
 75 77  1  0  0  0
 75 82  1  0  0  0
 75144  1  0  0  0
 75145  1  0  0  0
 76 77  1  0  0  0
 76 82  1  0  0  0
 76146  1  0  0  0
 76147  1  0  0  0
 77 83  1  0  0  0
 77148  1  0  0  0
 78149  1  0  0  0
 78150  1  0  0  0
 78151  1  0  0  0
 79152  1  0  0  0
 79153  1  0  0  0
 83154  1  0  0  0
M  ISO  4   1 100  68 101  79 101  83 100
M  END
> <chiral flag>
0

> <version>
0

> <s_m_source_file>
/data/baiqing/PycharmProjects/Reinvent-master-3.2/result/LINK_invent/BTK/process_docking_weight1_custom_sum_contain_oxygen_bond_distance_aromatic_linkinvent_7_9_3/rearranged_h_0179.sdf

> <i_m_source_file_index>
74

> <r_mmod_Potential_Energy-OPLS-2005>
-282.262451171875

> <r_mmod_Stretch_Energy-OPLS-2005>
109.940895080566

> <r_mmod_Bend_Energy-OPLS-2005>
238.710250854492

> <r_mmod_Torsional_Energy-OPLS-2005>
242.837677001953

> <r_mmod_Improper_Torsional_Energy-OPLS-2005>
15.2755918502808

> <r_mmod_Van_der_Waal_Energy-OPLS-2005>
156.552490234375

> <r_mmod_Electrostatic_Energy-OPLS-2005>
-880.591430664062

> <r_mmod_Solvation_Energy-OPLS-2005>
-261.038269042969

> <b_mmod_Minimization_Converged-OPLS-2005>
0

> <r_mmod_RMS_Derivative-OPLS-2005>
0.208630159497261

$$$$
74
                    3D
 Structure written by MMmdl.
160169  0  0  1  0            999 V2000
  -30.6128  -14.7663   20.4408 C   0  0  0  0  0  0
  -30.4273  -12.4641   19.4860 C   0  0  0  0  0  0
  -29.5125  -12.5079   18.2422 C   0  0  0  0  0  0
  -28.0378  -12.3336   18.6518 C   0  0  0  0  0  0
  -27.6402  -13.2373   19.8498 C   0  0  2  0  0  0
  -28.6828  -13.1916   20.9886 C   0  0  0  0  0  0
  -25.2503  -13.8203   20.5696 C   0  0  0  0  0  0
  -24.1806  -13.0446   20.9205 C   0  0  0  0  0  0
  -24.6404  -11.6922   20.8752 C   0  0  0  0  0  0
  -23.9087  -10.4299   21.0411 C   0  0  0  0  0  0
  -24.3634   -9.4213   21.9190 C   0  0  0  0  0  0
  -23.6302   -8.2251   22.0760 C   0  0  0  0  0  0
  -22.4283   -8.0290   21.3547 C   0  0  0  0  0  0
  -21.9926   -9.0267   20.4651 C   0  0  0  0  0  0
  -22.7259  -10.2141   20.3062 C   0  0  0  0  0  0
  -21.6856   -6.0746   22.5283 C   0  0  0  0  0  0
  -21.4013   -6.5647   23.8216 C   0  0  0  0  0  0
  -21.3655   -5.6798   24.9175 C   0  0  0  0  0  0
  -21.6043   -4.3062   24.7225 C   0  0  0  0  0  0
  -21.8821   -3.8155   23.4345 C   0  0  0  0  0  0
  -21.9192   -4.6973   22.3402 C   0  0  0  0  0  0
  -22.7825  -13.5219   21.1864 C   0  0  0  0  0  0
  -22.1663   -4.2158   21.0981 F   0  0  0  0  0  0
  -21.5624   -3.4544   25.7738 F   0  0  0  0  0  0
  -29.9811  -13.5408   20.4049 N   0  0  0  0  0  0
  -26.2932  -12.9423   20.3277 N   0  0  0  0  0  0
  -25.9334  -11.6558   20.5757 N   0  0  0  0  0  0
  -22.0474  -12.8213   22.0416 N   0  0  0  0  0  0
  -25.4181  -15.1931   20.4108 N   0  0  0  0  0  0
  -31.8074  -14.8277   20.1367 O   0  0  0  0  0  0
  -21.6644   -6.8890   21.4244 O   0  0  0  0  0  0
  -22.3515  -14.5529   20.6714 O   0  0  0  0  0  0
  -24.6353  -31.8514   23.1950 C   0  0  0  0  0  0
  -25.9167  -32.4728   23.8306 C   0  0  1  0  0  0
  -27.2147  -27.2237   20.1293 C   0  0  0  0  0  0
  -25.5935  -33.8530   24.2221 N   0  0  0  0  0  0
  -23.4327  -30.4736   21.5397 C   0  0  2  0  0  0
  -24.8783  -28.9180   20.1078 C   0  0  0  0  0  0
  -22.7525  -29.4561   22.4891 C   0  0  0  0  0  0
  -18.0284  -28.1359   22.8476 C   0  0  0  0  0  0
  -24.1495  -36.7269   23.2643 C   0  0  0  0  0  0
  -25.9822  -30.7554   21.3790 C   0  0  0  0  0  0
  -26.0522  -29.3757   20.7183 C   0  0  0  0  0  0
  -27.2199  -28.5406   20.7162 C   0  0  0  0  0  0
  -26.0086  -26.8392   19.4986 C   0  0  0  0  0  0
  -24.8643  -27.6607   19.4881 C   0  0  0  0  0  0
  -23.6508  -29.8091   20.1559 C   0  0  0  0  0  0
  -25.4124  -36.3046   24.0318 C   0  0  1  0  0  0
  -20.5892  -28.3679   23.1250 C   0  0  2  0  0  0
  -20.6771  -26.9384   22.5412 C   0  0  0  0  0  0
  -19.5742  -26.6351   21.5213 C   0  0  0  0  0  0
  -18.1925  -26.7897   22.1623 C   0  0  0  0  0  0
  -19.1539  -28.8837   23.2855 C   0  0  0  0  0  0
  -18.9471  -30.1437   23.8870 C   0  0  0  0  0  0
  -17.6472  -30.6569   24.0545 C   0  0  0  0  0  0
  -25.9068  -34.9420   23.5076 C   0  0  0  0  0  0
  -16.5358  -29.9063   23.6329 C   0  0  0  0  0  0
  -16.7272  -28.6479   23.0349 C   0  0  0  0  0  0
  -26.4510  -31.6570   25.0719 C   0  0  0  0  0  0
  -25.3694  -31.3775   26.1417 C   0  0  0  0  0  0
  -27.0381  -30.2975   24.6261 C   0  0  0  0  0  0
  -27.6035  -32.4347   25.7504 C   0  0  0  0  0  0
  -27.5580  -37.1789   24.8462 C   0  0  0  0  0  0
  -21.4220  -29.3031   22.3645 N   0  0  0  0  0  0
  -26.4291  -37.3751   23.9404 N   0  0  0  0  0  0
  -24.7024  -31.0462   22.0936 N   0  0  0  0  0  0
  -23.4218  -28.8087   23.2985 O   0  0  0  0  0  0
  -28.3179  -26.3310   20.2214 O   0  0  0  0  0  0
  -26.5657  -34.8908   22.4656 O   0  0  0  0  0  0
  -23.5497  -32.1342   23.7237 O   0  0  0  0  0  0
  -30.1525  -19.5081   21.5694 C   0  0  0  0  0  0
  -29.7201  -20.8149   21.3992 C   0  0  0  0  0  0
  -29.7154  -18.7495   20.4301 C   0  0  0  0  0  0
  -29.9255  -22.0889   22.1830 C   0  0  0  0  0  0
  -29.7352  -23.4189   21.3722 C   0  0  0  0  0  0
  -28.3991  -22.1460   19.6408 C   0  0  0  0  0  0
  -28.4347  -23.5178   20.5209 C   0  0  1  0  0  0
  -27.2209  -23.5245   21.4719 C   0  0  0  0  0  0
  -30.0848  -17.1992   18.4028 C   0  0  0  0  0  0
  -28.3562  -24.9185   19.6615 C   0  0  0  0  0  0
  -30.2293  -17.3032   19.9340 C   0  0  2  0  0  0
  -28.9719  -19.6086   19.6634 N   0  0  0  0  0  0
  -28.9850  -20.8776   20.2450 N   0  0  0  0  0  0
  -29.8590  -15.9370   20.5392 N   0  0  0  0  0  0
  -31.4706  -12.5765   19.1866 H   0  0  0  0  0  0
  -30.3650  -11.4916   19.9778 H   0  0  0  0  0  0
  -29.7988  -11.7301   17.5325 H   0  0  0  0  0  0
  -29.6412  -13.4590   17.7233 H   0  0  0  0  0  0
  -27.8937  -11.2847   18.9156 H   0  0  0  0  0  0
  -27.3837  -12.5247   17.8002 H   0  0  0  0  0  0
  -27.6297  -14.2555   19.4599 H   0  0  0  0  0  0
  -28.7204  -12.2016   21.4465 H   0  0  0  0  0  0
  -28.4177  -13.8903   21.7836 H   0  0  0  0  0  0
  -25.2775   -9.5688   22.4769 H   0  0  0  0  0  0
  -24.0007   -7.4646   22.7487 H   0  0  0  0  0  0
  -21.0853   -8.8790   19.8961 H   0  0  0  0  0  0
  -22.3716  -10.9685   19.6176 H   0  0  0  0  0  0
  -21.2010   -7.6155   23.9720 H   0  0  0  0  0  0
  -21.1471   -6.0529   25.9078 H   0  0  0  0  0  0
  -22.0602   -2.7617   23.2844 H   0  0  0  0  0  0
  -22.4082  -11.9862   22.4792 H   0  0  0  0  0  0
  -21.1094  -13.1244   22.2632 H   0  0  0  0  0  0
  -24.6464  -15.8434   20.5176 H   0  0  0  0  0  0
  -26.2598  -15.6354   20.0648 H   0  0  0  0  0  0
  -26.7239  -32.5370   23.1046 H   0  0  0  0  0  0
  -25.0034  -33.9648   25.0334 H   0  0  0  0  0  0
  -22.7310  -31.2971   21.3931 H   0  0  0  0  0  0
  -23.3751  -35.9610   23.3304 H   0  0  0  0  0  0
  -24.3575  -36.8908   22.2060 H   0  0  0  0  0  0
  -23.7271  -37.6474   23.6680 H   0  0  0  0  0  0
  -26.1301  -31.5173   20.6120 H   0  0  0  0  0  0
  -26.8557  -30.7981   22.0184 H   0  0  0  0  0  0
  -28.1191  -28.8840   21.2095 H   0  0  0  0  0  0
  -25.8902  -25.8742   19.0361 H   0  0  0  0  0  0
  -23.9607  -27.3016   19.0132 H   0  0  0  0  0  0
  -23.7789  -30.5853   19.4013 H   0  0  0  0  0  0
  -22.7688  -29.2441   19.8501 H   0  0  0  0  0  0
  -25.1314  -36.1879   25.0811 H   0  0  0  0  0  0
  -20.9988  -28.3266   24.1363 H   0  0  0  0  0  0
  -20.5669  -26.2280   23.3625 H   0  0  0  0  0  0
  -21.6636  -26.7389   22.1207 H   0  0  0  0  0  0
  -19.6913  -25.6269   21.1230 H   0  0  0  0  0  0
  -19.6685  -27.3175   20.6755 H   0  0  0  0  0  0
  -17.4198  -26.6637   21.4021 H   0  0  0  0  0  0
  -18.0310  -26.0037   22.9015 H   0  0  0  0  0  0
  -19.7959  -30.7232   24.2239 H   0  0  0  0  0  0
  -17.5038  -31.6256   24.5137 H   0  0  0  0  0  0
  -15.5359  -30.2960   23.7670 H   0  0  0  0  0  0
  -15.8665  -28.0797   22.7075 H   0  0  0  0  0  0
  -24.5862  -30.7127   25.7753 H   0  0  0  0  0  0
  -24.8879  -32.2969   26.4765 H   0  0  0  0  0  0
  -25.7952  -30.9006   27.0252 H   0  0  0  0  0  0
  -26.3007  -29.6694   24.1250 H   0  0  0  0  0  0
  -27.3998  -29.7273   25.4832 H   0  0  0  0  0  0
  -27.8898  -30.4226   23.9569 H   0  0  0  0  0  0
  -27.2606  -33.3667   26.2016 H   0  0  0  0  0  0
  -28.3865  -32.6887   25.0343 H   0  0  0  0  0  0
  -28.0664  -31.8517   26.5479 H   0  0  0  0  0  0
  -28.2578  -38.0105   24.7507 H   0  0  0  0  0  0
  -28.1085  -36.2625   24.6277 H   0  0  0  0  0  0
  -27.2280  -37.1432   25.8860 H   0  0  0  0  0  0
  -20.9404  -29.8789   21.6876 H   0  0  0  0  0  0
  -26.0159  -38.2817   24.1410 H   0  0  0  0  0  0
  -30.7924  -19.1578   22.3675 H   0  0  0  0  0  0
  -30.9268  -22.0823   22.6131 H   0  0  0  0  0  0
  -29.2466  -22.0848   23.0356 H   0  0  0  0  0  0
  -30.5852  -23.5207   20.6966 H   0  0  0  0  0  0
  -29.7973  -24.2695   22.0526 H   0  0  0  0  0  0
  -28.9481  -22.3249   18.7162 H   0  0  0  0  0  0
  -27.3757  -21.9329   19.3310 H   0  0  0  0  0  0
  -27.1669  -22.6195   22.0764 H   0  0  0  0  0  0
  -26.2825  -23.6016   20.9218 H   0  0  0  0  0  0
  -27.2616  -24.3735   22.1553 H   0  0  0  0  0  0
  -30.5563  -18.0481   17.9079 H   0  0  0  0  0  0
  -29.0355  -17.1814   18.1089 H   0  0  0  0  0  0
  -30.5545  -16.2990   18.0046 H   0  0  0  0  0  0
  -27.5840  -24.7813   18.9117 H   0  0  0  0  0  0
  -29.2598  -24.9252   19.0519 H   0  0  0  0  0  0
  -31.3067  -17.3493   20.1028 H   0  0  0  0  0  0
  -28.8922  -15.8255   20.8022 H   0  0  0  0  0  0
  1 25  1  0  0  0
  1 30  2  0  0  0
  1 84  1  0  0  0
  2  3  1  0  0  0
  2 25  1  0  0  0
  2 85  1  0  0  0
  2 86  1  0  0  0
  3  4  1  0  0  0
  3 87  1  0  0  0
  3 88  1  0  0  0
  4  5  1  0  0  0
  4 89  1  0  0  0
  4 90  1  0  0  0
  5  6  1  0  0  0
  5 26  1  0  0  0
  5 91  1  0  0  0
  6 25  1  0  0  0
  6 92  1  0  0  0
  6 93  1  0  0  0
  7  8  2  0  0  0
  7 26  1  0  0  0
  7 29  1  0  0  0
  8  9  1  0  0  0
  8 22  1  0  0  0
  9 10  1  0  0  0
  9 27  2  0  0  0
 10 11  2  0  0  0
 10 15  1  0  0  0
 11 12  1  0  0  0
 11 94  1  0  0  0
 12 13  2  0  0  0
 12 95  1  0  0  0
 13 14  1  0  0  0
 13 31  1  0  0  0
 14 15  2  0  0  0
 14 96  1  0  0  0
 15 97  1  0  0  0
 16 17  2  0  0  0
 16 21  1  0  0  0
 16 31  1  0  0  0
 17 18  1  0  0  0
 17 98  1  0  0  0
 18 19  2  0  0  0
 18 99  1  0  0  0
 19 20  1  0  0  0
 19 24  1  0  0  0
 20 21  2  0  0  0
 20100  1  0  0  0
 21 23  1  0  0  0
 22 28  1  0  0  0
 22 32  2  0  0  0
 26 27  1  0  0  0
 28101  1  0  0  0
 28102  1  0  0  0
 29103  1  0  0  0
 29104  1  0  0  0
 33 34  1  0  0  0
 33 66  1  0  0  0
 33 70  2  0  0  0
 34 36  1  0  0  0
 34 59  1  0  0  0
 34105  1  0  0  0
 35 44  2  0  0  0
 35 45  1  0  0  0
 35 68  1  0  0  0
 36 56  1  0  0  0
 36106  1  0  0  0
 37 39  1  0  0  0
 37 47  1  0  0  0
 37 66  1  0  0  0
 37107  1  0  0  0
 38 43  2  0  0  0
 38 46  1  0  0  0
 38 47  1  0  0  0
 39 64  1  0  0  0
 39 67  2  0  0  0
 40 52  1  0  0  0
 40 53  2  0  0  0
 40 58  1  0  0  0
 41108  1  0  0  0
 41109  1  0  0  0
 41110  1  0  0  0
 41 48  1  0  0  0
 42 43  1  0  0  0
 42 66  1  0  0  0
 42111  1  0  0  0
 42112  1  0  0  0
 43 44  1  0  0  0
 44113  1  0  0  0
 45 46  2  0  0  0
 45114  1  0  0  0
 46115  1  0  0  0
 47116  1  0  0  0
 47117  1  0  0  0
 48 56  1  0  0  0
 48 65  1  0  0  0
 48118  1  0  0  0
 49 50  1  0  0  0
 49 53  1  0  0  0
 49 64  1  0  0  0
 49119  1  0  0  0
 50 51  1  0  0  0
 50120  1  0  0  0
 50121  1  0  0  0
 51 52  1  0  0  0
 51122  1  0  0  0
 51123  1  0  0  0
 52124  1  0  0  0
 52125  1  0  0  0
 53 54  1  0  0  0
 54 55  2  0  0  0
 54126  1  0  0  0
 55 57  1  0  0  0
 55127  1  0  0  0
 56 69  2  0  0  0
 57 58  2  0  0  0
 57128  1  0  0  0
 58129  1  0  0  0
 59 60  1  0  0  0
 59 61  1  0  0  0
 59 62  1  0  0  0
 60130  1  0  0  0
 60131  1  0  0  0
 60132  1  0  0  0
 61133  1  0  0  0
 61134  1  0  0  0
 61135  1  0  0  0
 62136  1  0  0  0
 62137  1  0  0  0
 62138  1  0  0  0
 63 65  1  0  0  0
 63139  1  0  0  0
 63140  1  0  0  0
 63141  1  0  0  0
 64142  1  0  0  0
 65143  1  0  0  0
 68 80  1  0  0  0
 71 72  2  0  0  0
 71 73  1  0  0  0
 71144  1  0  0  0
 72 74  1  0  0  0
 72 83  1  0  0  0
 73 81  1  0  0  0
 73 82  2  0  0  0
 74 75  1  0  0  0
 74145  1  0  0  0
 74146  1  0  0  0
 75 77  1  0  0  0
 75147  1  0  0  0
 75148  1  0  0  0
 76 77  1  0  0  0
 76 83  1  0  0  0
 76149  1  0  0  0
 76150  1  0  0  0
 77 78  1  0  0  0
 77 80  1  0  0  0
 78151  1  0  0  0
 78152  1  0  0  0
 78153  1  0  0  0
 79154  1  0  0  0
 79155  1  0  0  0
 79156  1  0  0  0
 79 81  1  0  0  0
 80157  1  0  0  0
 80158  1  0  0  0
 81 84  1  0  0  0
 81159  1  0  0  0
 82 83  1  0  0  0
 84160  1  0  0  0
M  ISO  4   1 100  68 101  80 101  84 100
M  END
> <chiral flag>
0

> <version>
0

> <s_m_source_file>
/data/baiqing/PycharmProjects/Reinvent-master-3.2/result/LINK_invent/BTK/process_docking_weight1_custom_sum_contain_oxygen_bond_distance_aromatic_linkinvent_7_9_3/rearranged_h_0179.sdf

> <i_m_source_file_index>
75

> <r_mmod_Potential_Energy-OPLS-2005>
149.274459838867

> <r_mmod_Stretch_Energy-OPLS-2005>
146.847518920898

> <r_mmod_Bend_Energy-OPLS-2005>
206.713073730469

> <r_mmod_Torsional_Energy-OPLS-2005>
246.05290222168

> <r_mmod_Improper_Torsional_Energy-OPLS-2005>
9.39018058776855

> <r_mmod_Van_der_Waal_Energy-OPLS-2005>
118.729164123535

> <r_mmod_Electrostatic_Energy-OPLS-2005>
-465.653137207031

> <r_mmod_Solvation_Energy-OPLS-2005>
-213.276748657227

> <b_mmod_Minimization_Converged-OPLS-2005>
0

> <r_mmod_RMS_Derivative-OPLS-2005>
1.81626844406128

$$$$
75
                    3D
 Structure written by MMmdl.
174183  0  0  1  0            999 V2000
  -30.4230  -15.7687   20.3500 C   0  0  0  0  0  0
  -30.3883  -13.2395   19.4552 C   0  0  0  0  0  0
  -29.5285  -12.6965   18.2883 C   0  0  0  0  0  0
  -28.1184  -12.3276   18.7630 C   0  0  0  0  0  0
  -27.5876  -13.3421   19.8017 C   0  0  2  0  0  0
  -28.6312  -13.7922   20.8630 C   0  0  0  0  0  0
  -25.2298  -13.8394   20.5966 C   0  0  0  0  0  0
  -24.1727  -13.0485   20.9425 C   0  0  0  0  0  0
  -24.6472  -11.7010   20.8810 C   0  0  0  0  0  0
  -23.9168  -10.4322   21.0369 C   0  0  0  0  0  0
  -24.3695   -9.4209   21.9113 C   0  0  0  0  0  0
  -23.6331   -8.2269   22.0714 C   0  0  0  0  0  0
  -22.4280   -8.0320   21.3563 C   0  0  0  0  0  0
  -21.9956   -9.0292   20.4641 C   0  0  0  0  0  0
  -22.7329  -10.2154   20.3019 C   0  0  0  0  0  0
  -21.6858   -6.0722   22.5285 C   0  0  0  0  0  0
  -21.4006   -6.5619   23.8217 C   0  0  0  0  0  0
  -21.3669   -5.6773   24.9184 C   0  0  0  0  0  0
  -21.6069   -4.3041   24.7234 C   0  0  0  0  0  0
  -21.8819   -3.8130   23.4358 C   0  0  0  0  0  0
  -21.9192   -4.6946   22.3409 C   0  0  0  0  0  0
  -22.7720  -13.5158   21.2039 C   0  0  0  0  0  0
  -22.1660   -4.2134   21.0983 F   0  0  0  0  0  0
  -21.5648   -3.4523   25.7742 F   0  0  0  0  0  0
  -29.7329  -14.4797   20.1144 N   0  0  0  0  0  0
  -26.2805  -12.9810   20.3383 N   0  0  0  0  0  0
  -25.9440  -11.6842   20.5768 N   0  0  0  0  0  0
  -22.0407  -12.8038   22.0544 N   0  0  0  0  0  0
  -25.3790  -15.2154   20.4469 N   0  0  0  0  0  0
  -31.5875  -15.3595   20.5275 O   0  0  0  0  0  0
  -21.6680   -6.8881   21.4251 O   0  0  0  0  0  0
  -22.3370  -14.5464   20.6918 O   0  0  0  0  0  0
  -24.6930  -31.7850   23.1405 C   0  0  0  0  0  0
  -25.9473  -32.4391   23.7970 C   0  0  1  0  0  0
  -27.2177  -26.5899   20.2096 C   0  0  0  0  0  0
  -25.6020  -33.8213   24.1834 N   0  0  0  0  0  0
  -23.5192  -30.3822   21.5006 C   0  0  2  0  0  0
  -24.9724  -28.6999   20.1172 C   0  0  0  0  0  0
  -22.7772  -29.4227   22.4681 C   0  0  0  0  0  0
  -18.0335  -28.1421   22.8443 C   0  0  0  0  0  0
  -24.1518  -36.7151   23.2652 C   0  0  0  0  0  0
  -26.1026  -30.4786   21.4175 C   0  0  0  0  0  0
  -26.1638  -29.0314   20.7732 C   0  0  0  0  0  0
  -27.2673  -28.0078   20.7842 C   0  0  0  0  0  0
  -25.9876  -26.4905   19.5068 C   0  0  0  0  0  0
  -24.9278  -27.4565   19.4632 C   0  0  0  0  0  0
  -23.7781  -29.6732   20.1377 C   0  0  0  0  0  0
  -25.4166  -36.2830   24.0238 C   0  0  1  0  0  0
  -20.5987  -28.3796   23.1132 C   0  0  2  0  0  0
  -20.6800  -26.9450   22.5408 C   0  0  0  0  0  0
  -19.5773  -26.6370   21.5217 C   0  0  0  0  0  0
  -18.1958  -26.7940   22.1614 C   0  0  0  0  0  0
  -19.1610  -28.8923   23.2775 C   0  0  0  0  0  0
  -18.9503  -30.1504   23.8832 C   0  0  0  0  0  0
  -17.6489  -30.6606   24.0544 C   0  0  0  0  0  0
  -25.9154  -34.9239   23.4887 C   0  0  0  0  0  0
  -16.5383  -29.9083   23.6343 C   0  0  0  0  0  0
  -16.7312  -28.6505   23.0364 C   0  0  0  0  0  0
  -26.4627  -31.6457   25.0628 C   0  0  0  0  0  0
  -25.3665  -31.3834   26.1233 C   0  0  0  0  0  0
  -27.0540  -30.2766   24.6557 C   0  0  0  0  0  0
  -27.6040  -32.4330   25.7497 C   0  0  0  0  0  0
  -27.5561  -37.1739   24.8454 C   0  0  0  0  0  0
  -21.4422  -29.3021   22.3461 N   0  0  0  0  0  0
  -26.4260  -37.3604   23.9405 N   0  0  0  0  0  0
  -24.7968  -30.9150   22.0770 N   0  0  0  0  0  0
  -23.4184  -28.7842   23.3063 O   0  0  0  0  0  0
  -28.1938  -25.3401   20.2373 O   0  0  0  0  0  0
  -26.5790  -34.8853   22.4513 O   0  0  0  0  0  0
  -23.5917  -32.0993   23.6314 O   0  0  0  0  0  0
  -33.9510  -19.6933   19.4298 C   0  0  0  0  0  0
  -33.6242  -20.7168   20.3404 C   0  0  0  0  0  0
  -33.7134  -18.3951   19.9471 C   0  0  0  0  0  0
  -32.9256  -20.1728   21.4449 C   0  0  0  0  0  0
  -34.1281  -18.2924   21.2834 C   0  0  0  0  0  0
  -29.3596  -19.0236   21.7684 C   0  0  0  0  0  0
  -30.6014  -19.2764   18.9685 C   0  0  0  0  0  0
  -31.2445  -17.8247   22.1088 C   0  0  2  0  0  0
  -32.1978  -18.0211   19.8778 C   0  0  2  0  0  0
  -35.2861  -17.4107   21.7505 C   0  0  0  0  0  0
  -31.2514  -16.5975   23.0705 C   0  0  0  0  0  0
  -32.9624  -17.5899   17.3135 C   0  0  0  0  0  0
  -31.4126  -19.7568   21.0547 C   0  0  0  0  0  0
  -32.3934  -17.0193   18.6297 C   0  0  0  0  0  0
  -29.1937  -21.8566   20.0953 C   0  0  0  0  0  0
  -28.0788  -23.5213   20.2165 C   0  0  0  0  0  0
  -33.6846  -19.2579   22.1133 N   0  0  0  0  0  0
  -30.0797  -17.4002   20.2717 N   0  0  0  0  0  0
  -29.2774  -20.0031   20.1329 N   0  3  2  0  0  0
  -31.3537  -13.5004   19.0249 H   0  0  0  0  0  0
  -30.6149  -12.4604   20.1819 H   0  0  0  0  0  0
  -30.0178  -11.8355   17.8324 H   0  0  0  0  0  0
  -29.4632  -13.4579   17.5082 H   0  0  0  0  0  0
  -28.1683  -11.3366   19.2123 H   0  0  0  0  0  0
  -27.4412  -12.2447   17.9125 H   0  0  0  0  0  0
  -27.3973  -14.2338   19.2057 H   0  0  0  0  0  0
  -28.9732  -12.9786   21.5030 H   0  0  0  0  0  0
  -28.1752  -14.5123   21.5404 H   0  0  0  0  0  0
  -25.2853   -9.5682   22.4653 H   0  0  0  0  0  0
  -24.0080   -7.4646   22.7389 H   0  0  0  0  0  0
  -21.0904   -8.8824   19.8907 H   0  0  0  0  0  0
  -22.3796  -10.9694   19.6117 H   0  0  0  0  0  0
  -21.1969   -7.6122   23.9730 H   0  0  0  0  0  0
  -21.1497   -6.0488   25.9097 H   0  0  0  0  0  0
  -22.0579   -2.7588   23.2872 H   0  0  0  0  0  0
  -22.4160  -11.9709   22.4868 H   0  0  0  0  0  0
  -21.0971  -13.0916   22.2776 H   0  0  0  0  0  0
  -24.5939  -15.8501   20.5559 H   0  0  0  0  0  0
  -26.2160  -15.6718   20.1135 H   0  0  0  0  0  0
  -26.7535  -32.4786   23.0655 H   0  0  0  0  0  0
  -25.0071  -33.9226   24.9916 H   0  0  0  0  0  0
  -22.8498  -31.2235   21.3035 H   0  0  0  0  0  0
  -23.3751  -35.9510   23.3217 H   0  0  0  0  0  0
  -24.3579  -36.8924   22.2088 H   0  0  0  0  0  0
  -23.7310  -37.6312   23.6800 H   0  0  0  0  0  0
  -26.3037  -31.1878   20.6140 H   0  0  0  0  0  0
  -26.9551  -30.5557   22.0792 H   0  0  0  0  0  0
  -28.1573  -28.2675   21.3360 H   0  0  0  0  0  0
  -25.7885  -25.5539   19.0015 H   0  0  0  0  0  0
  -24.0239  -27.1913   18.9304 H   0  0  0  0  0  0
  -23.9733  -30.4311   19.3766 H   0  0  0  0  0  0
  -22.8757  -29.1558   19.8048 H   0  0  0  0  0  0
  -25.1387  -36.1562   25.0701 H   0  0  0  0  0  0
  -21.0030  -28.3412   24.1272 H   0  0  0  0  0  0
  -20.5655  -26.2410   23.3675 H   0  0  0  0  0  0
  -21.6664  -26.7384   22.1247 H   0  0  0  0  0  0
  -19.6956  -25.6264   21.1294 H   0  0  0  0  0  0
  -19.6733  -27.3137   20.6713 H   0  0  0  0  0  0
  -17.4243  -26.6680   21.4014 H   0  0  0  0  0  0
  -18.0366  -26.0100   22.9020 H   0  0  0  0  0  0
  -19.7987  -30.7337   24.2173 H   0  0  0  0  0  0
  -17.5049  -31.6273   24.5174 H   0  0  0  0  0  0
  -15.5389  -30.2965   23.7704 H   0  0  0  0  0  0
  -15.8713  -28.0799   22.7117 H   0  0  0  0  0  0
  -24.5903  -30.7108   25.7567 H   0  0  0  0  0  0
  -24.8822  -32.3087   26.4342 H   0  0  0  0  0  0
  -25.7836  -30.9236   27.0199 H   0  0  0  0  0  0
  -26.3256  -29.6390   24.1534 H   0  0  0  0  0  0
  -27.3920  -29.7203   25.5306 H   0  0  0  0  0  0
  -27.9256  -30.3843   24.0103 H   0  0  0  0  0  0
  -27.2543  -33.3734   26.1764 H   0  0  0  0  0  0
  -28.4052  -32.6697   25.0486 H   0  0  0  0  0  0
  -28.0462  -31.8647   26.5687 H   0  0  0  0  0  0
  -28.2509  -38.0098   24.7464 H   0  0  0  0  0  0
  -28.1113  -36.2591   24.6297 H   0  0  0  0  0  0
  -27.2266  -37.1409   25.8856 H   0  0  0  0  0  0
  -20.9745  -29.8679   21.6539 H   0  0  0  0  0  0
  -26.0056  -38.2641   24.1391 H   0  0  0  0  0  0
  -34.0288  -19.8994   18.3740 H   0  0  0  0  0  0
  -33.4470  -21.7165   19.9712 H   0  0  0  0  0  0
  -29.1634  -19.6962   22.6013 H   0  0  0  0  0  0
  -28.4831  -18.3640   21.8010 H   0  0  0  0  0  0
  -30.0627  -18.6905   18.2242 H   0  0  0  0  0  0
  -31.0460  -20.0462   18.3329 H   0  0  0  0  0  0
  -31.7166  -18.4044   22.9003 H   0  0  0  0  0  0
  -35.3250  -16.4591   21.2166 H   0  0  0  0  0  0
  -35.2477  -17.2008   22.8209 H   0  0  0  0  0  0
  -36.2338  -17.9107   21.5611 H   0  0  0  0  0  0
  -30.5369  -15.8070   22.8599 H   0  0  0  0  0  0
  -31.0013  -16.8956   24.0899 H   0  0  0  0  0  0
  -32.2458  -16.1549   23.0993 H   0  0  0  0  0  0
  -32.8324  -16.8700   16.5052 H   0  0  0  0  0  0
  -34.0308  -17.7862   17.3806 H   0  0  0  0  0  0
  -32.4497  -18.5001   17.0000 H   0  0  0  0  0  0
  -31.3930  -20.6756   20.4598 H   0  0  0  0  0  0
  -31.1433  -20.2605   21.9938 H   0  0  0  0  0  0
  -31.4410  -16.6323   18.2830 H   0  0  0  0  0  0
  -33.0342  -16.1728   18.8818 H   0  0  0  0  0  0
  -30.0311  -22.1860   20.7064 H   0  0  0  0  0  0
  -29.5446  -22.0001   19.0676 H   0  0  0  0  0  0
  -27.5472  -23.3571   21.1546 H   0  0  0  0  0  0
  -27.2918  -23.3574   19.4779 H   0  0  0  0  0  0
  -29.1134  -17.5379   20.0250 H   0  0  0  0  0  0
  -28.4022  -19.7278   19.7015 H   0  0  0  0  0  0
  1 25  1  0  0  0
  1 30  2  0  0  0
  1 88  1  0  0  0
  2  3  1  0  0  0
  2 25  1  0  0  0
  2 90  1  0  0  0
  2 91  1  0  0  0
  3  4  1  0  0  0
  3 92  1  0  0  0
  3 93  1  0  0  0
  4  5  1  0  0  0
  4 94  1  0  0  0
  4 95  1  0  0  0
  5  6  1  0  0  0
  5 26  1  0  0  0
  5 96  1  0  0  0
  6 25  1  0  0  0
  6 97  1  0  0  0
  6 98  1  0  0  0
  7  8  2  0  0  0
  7 26  1  0  0  0
  7 29  1  0  0  0
  8  9  1  0  0  0
  8 22  1  0  0  0
  9 10  1  0  0  0
  9 27  2  0  0  0
 10 11  2  0  0  0
 10 15  1  0  0  0
 11 12  1  0  0  0
 11 99  1  0  0  0
 12 13  2  0  0  0
 12100  1  0  0  0
 13 14  1  0  0  0
 13 31  1  0  0  0
 14 15  2  0  0  0
 14101  1  0  0  0
 15102  1  0  0  0
 16 17  2  0  0  0
 16 21  1  0  0  0
 16 31  1  0  0  0
 17 18  1  0  0  0
 17103  1  0  0  0
 18 19  2  0  0  0
 18104  1  0  0  0
 19 20  1  0  0  0
 19 24  1  0  0  0
 20 21  2  0  0  0
 20105  1  0  0  0
 21 23  1  0  0  0
 22 28  1  0  0  0
 22 32  2  0  0  0
 26 27  1  0  0  0
 28106  1  0  0  0
 28107  1  0  0  0
 29108  1  0  0  0
 29109  1  0  0  0
 33 34  1  0  0  0
 33 66  1  0  0  0
 33 70  2  0  0  0
 34 36  1  0  0  0
 34 59  1  0  0  0
 34110  1  0  0  0
 35 44  2  0  0  0
 35 45  1  0  0  0
 35 68  1  0  0  0
 36 56  1  0  0  0
 36111  1  0  0  0
 37 39  1  0  0  0
 37 47  1  0  0  0
 37 66  1  0  0  0
 37112  1  0  0  0
 38 43  2  0  0  0
 38 46  1  0  0  0
 38 47  1  0  0  0
 39 64  1  0  0  0
 39 67  2  0  0  0
 40 52  1  0  0  0
 40 53  2  0  0  0
 40 58  1  0  0  0
 41113  1  0  0  0
 41114  1  0  0  0
 41115  1  0  0  0
 41 48  1  0  0  0
 42 43  1  0  0  0
 42 66  1  0  0  0
 42116  1  0  0  0
 42117  1  0  0  0
 43 44  1  0  0  0
 44118  1  0  0  0
 45 46  2  0  0  0
 45119  1  0  0  0
 46120  1  0  0  0
 47121  1  0  0  0
 47122  1  0  0  0
 48 56  1  0  0  0
 48 65  1  0  0  0
 48123  1  0  0  0
 49 50  1  0  0  0
 49 53  1  0  0  0
 49 64  1  0  0  0
 49124  1  0  0  0
 50 51  1  0  0  0
 50125  1  0  0  0
 50126  1  0  0  0
 51 52  1  0  0  0
 51127  1  0  0  0
 51128  1  0  0  0
 52129  1  0  0  0
 52130  1  0  0  0
 53 54  1  0  0  0
 54 55  2  0  0  0
 54131  1  0  0  0
 55 57  1  0  0  0
 55132  1  0  0  0
 56 69  2  0  0  0
 57 58  2  0  0  0
 57133  1  0  0  0
 58134  1  0  0  0
 59 60  1  0  0  0
 59 61  1  0  0  0
 59 62  1  0  0  0
 60135  1  0  0  0
 60136  1  0  0  0
 60137  1  0  0  0
 61138  1  0  0  0
 61139  1  0  0  0
 61140  1  0  0  0
 62141  1  0  0  0
 62142  1  0  0  0
 62143  1  0  0  0
 63 65  1  0  0  0
 63144  1  0  0  0
 63145  1  0  0  0
 63146  1  0  0  0
 64147  1  0  0  0
 65148  1  0  0  0
 68 86  1  0  0  0
 71 72  2  0  0  0
 71 73  1  0  0  0
 71149  1  0  0  0
 72 74  1  0  0  0
 72150  1  0  0  0
 73 75  2  0  0  0
 73 79  1  0  0  0
 74 83  1  0  0  0
 74 87  2  0  0  0
 75 80  1  0  0  0
 75 87  1  0  0  0
 76 78  1  0  0  0
 76 89  1  0  0  0
 76151  1  0  0  0
 76152  1  0  0  0
 77 79  1  0  0  0
 77 89  1  0  0  0
 77153  1  0  0  0
 77154  1  0  0  0
 78 79  1  0  0  0
 78 81  1  0  0  0
 78155  1  0  0  0
 79 84  1  0  0  0
 80156  1  0  0  0
 80157  1  0  0  0
 80158  1  0  0  0
 81159  1  0  0  0
 81160  1  0  0  0
 81161  1  0  0  0
 82 84  1  0  0  0
 82162  1  0  0  0
 82163  1  0  0  0
 82164  1  0  0  0
 83 88  1  0  0  0
 83165  1  0  0  0
 83166  1  0  0  0
 84167  1  0  0  0
 84168  1  0  0  0
 85 86  1  0  0  0
 85169  1  0  0  0
 85170  1  0  0  0
 85 89  1  0  0  0
 86171  1  0  0  0
 86172  1  0  0  0
 88173  1  0  0  0
 89174  1  0  0  0
M  CHG  1  89   1
M  ISO  4   1 100  68 101  86 101  88 100
M  END
> <chiral flag>
0

> <version>
0

> <s_m_source_file>
/data/baiqing/PycharmProjects/Reinvent-master-3.2/result/LINK_invent/BTK/process_docking_weight1_custom_sum_contain_oxygen_bond_distance_aromatic_linkinvent_7_9_3/rearranged_h_0179.sdf

> <i_m_source_file_index>
76

> <r_mmod_Potential_Energy-OPLS-2005>
10642.9912109375

> <r_mmod_Stretch_Energy-OPLS-2005>
6521.50830078125

> <r_mmod_Bend_Energy-OPLS-2005>
1072.46789550781

> <r_mmod_Torsional_Energy-OPLS-2005>
658.958557128906

> <r_mmod_Improper_Torsional_Energy-OPLS-2005>
55.3886985778809

> <r_mmod_Van_der_Waal_Energy-OPLS-2005>
2139.7958984375

> <r_mmod_Electrostatic_Energy-OPLS-2005>
-454.246429443359

> <r_mmod_Solvation_Energy-OPLS-2005>
-470.2998046875

> <b_mmod_Minimization_Converged-OPLS-2005>
0

> <r_mmod_RMS_Derivative-OPLS-2005>
11.4913835525513

$$$$
76
                    3D
 Structure written by MMmdl.
159168  0  0  1  0            999 V2000
  -30.4071  -15.3570   20.3505 C   0  0  0  0  0  0
  -30.4336  -12.8716   19.5386 C   0  0  0  0  0  0
  -29.5390  -12.5951   18.3024 C   0  0  0  0  0  0
  -28.0936  -12.2984   18.7333 C   0  0  0  0  0  0
  -27.6070  -13.2845   19.8228 C   0  0  2  0  0  0
  -28.6344  -13.5017   20.9557 C   0  0  0  0  0  0
  -25.2364  -13.8261   20.5763 C   0  0  0  0  0  0
  -24.1726  -13.0437   20.9267 C   0  0  0  0  0  0
  -24.6396  -11.6939   20.8764 C   0  0  0  0  0  0
  -23.9094  -10.4293   21.0403 C   0  0  0  0  0  0
  -24.3634   -9.4207   21.9185 C   0  0  0  0  0  0
  -23.6302   -8.2244   22.0754 C   0  0  0  0  0  0
  -22.4285   -8.0280   21.3541 C   0  0  0  0  0  0
  -21.9926   -9.0257   20.4643 C   0  0  0  0  0  0
  -22.7262  -10.2133   20.3053 C   0  0  0  0  0  0
  -21.6857   -6.0736   22.5278 C   0  0  0  0  0  0
  -21.4014   -6.5638   23.8209 C   0  0  0  0  0  0
  -21.3660   -5.6792   24.9170 C   0  0  0  0  0  0
  -21.6045   -4.3055   24.7223 C   0  0  0  0  0  0
  -21.8819   -3.8146   23.4344 C   0  0  0  0  0  0
  -21.9193   -4.6963   22.3401 C   0  0  0  0  0  0
  -22.7742  -13.5183   21.1912 C   0  0  0  0  0  0
  -22.1663   -4.2147   21.0979 F   0  0  0  0  0  0
  -21.5628   -3.4538   25.7736 F   0  0  0  0  0  0
  -29.8563  -14.0326   20.3255 N   0  0  0  0  0  0
  -26.2796  -12.9552   20.3230 N   0  0  0  0  0  0
  -25.9335  -11.6645   20.5720 N   0  0  0  0  0  0
  -22.0402  -12.8162   22.0463 N   0  0  0  0  0  0
  -25.3984  -15.1998   20.4201 N   0  0  0  0  0  0
  -31.6263  -15.3390   20.1190 O   0  0  0  0  0  0
  -21.6646   -6.8880   21.4241 O   0  0  0  0  0  0
  -22.3421  -14.5484   20.6750 O   0  0  0  0  0  0
  -24.6686  -31.8166   23.1653 C   0  0  0  0  0  0
  -25.9341  -32.4550   23.8138 C   0  0  1  0  0  0
  -27.2194  -26.8649   20.1879 C   0  0  0  0  0  0
  -25.5986  -33.8368   24.2034 N   0  0  0  0  0  0
  -23.4870  -30.4261   21.5149 C   0  0  2  0  0  0
  -24.9434  -28.8042   20.1086 C   0  0  0  0  0  0
  -22.7698  -29.4399   22.4748 C   0  0  0  0  0  0
  -18.0328  -28.1420   22.8463 C   0  0  0  0  0  0
  -24.1482  -36.7174   23.2650 C   0  0  0  0  0  0
  -26.0599  -30.6013   21.4080 C   0  0  0  0  0  0
  -26.1267  -29.1854   20.7522 C   0  0  0  0  0  0
  -27.2545  -28.2361   20.7715 C   0  0  0  0  0  0
  -26.0125  -26.6613   19.4776 C   0  0  0  0  0  0
  -24.9159  -27.5646   19.4497 C   0  0  0  0  0  0
  -23.7314  -29.7385   20.1426 C   0  0  0  0  0  0
  -25.4128  -36.2940   24.0297 C   0  0  1  0  0  0
  -20.5956  -28.3763   23.1172 C   0  0  2  0  0  0
  -20.6797  -26.9436   22.5403 C   0  0  0  0  0  0
  -19.5774  -26.6379   21.5217 C   0  0  0  0  0  0
  -18.1952  -26.7953   22.1619 C   0  0  0  0  0  0
  -19.1594  -28.8913   23.2803 C   0  0  0  0  0  0
  -18.9508  -30.1501   23.8843 C   0  0  0  0  0  0
  -17.6501  -30.6606   24.0559 C   0  0  0  0  0  0
  -25.9108  -34.9328   23.4989 C   0  0  0  0  0  0
  -16.5386  -29.9092   23.6357 C   0  0  0  0  0  0
  -16.7310  -28.6515   23.0369 C   0  0  0  0  0  0
  -26.4575  -31.6528   25.0695 C   0  0  0  0  0  0
  -25.3680  -31.3796   26.1333 C   0  0  0  0  0  0
  -27.0496  -30.2890   24.6480 C   0  0  0  0  0  0
  -27.6050  -32.4360   25.7499 C   0  0  0  0  0  0
  -27.5558  -37.1736   24.8471 C   0  0  0  0  0  0
  -21.4361  -29.3036   22.3505 N   0  0  0  0  0  0
  -26.4259  -37.3691   23.9425 N   0  0  0  0  0  0
  -24.7602  -30.9766   22.0825 N   0  0  0  0  0  0
  -23.4215  -28.7977   23.3021 O   0  0  0  0  0  0
  -28.1855  -25.7089   20.3138 O   0  0  0  0  0  0
  -26.5724  -34.8879   22.4589 O   0  0  0  0  0  0
  -23.5740  -32.1171   23.6702 O   0  0  0  0  0  0
  -28.9829  -21.1606   19.6728 C   0  0  0  0  0  0
  -28.5705  -22.4882   20.3759 C   0  0  0  0  0  0
  -29.2313  -19.9216   20.4360 C   0  0  0  0  0  0
  -28.5950  -21.9343   21.6598 C   0  0  0  0  0  0
  -28.6943  -20.6349   24.0838 C   0  0  0  0  0  0
  -29.0028  -19.8973   22.9658 C   0  0  0  0  0  0
  -28.3412  -21.9863   23.9388 C   0  0  0  0  0  0
  -29.1327  -21.1251   18.1826 C   0  0  0  0  0  0
  -29.3516  -18.4297   23.1169 C   0  0  0  0  0  0
  -27.9750  -22.8137   25.1526 C   0  0  0  0  0  0
  -27.9776  -24.1046   19.8725 C   0  0  0  0  0  0
  -29.9143  -18.3000   20.0773 C   0  0  0  0  0  0
  -28.2879  -22.6171   22.7779 N   0  0  0  0  0  0
  -28.9648  -20.4844   21.7202 N   0  0  0  0  0  0
  -29.6513  -16.6580   20.4316 N   0  0  0  0  0  0
  -31.4489  -13.0826   19.2014 H   0  0  0  0  0  0
  -30.5177  -11.9806   20.1633 H   0  0  0  0  0  0
  -29.9371  -11.7627   17.7205 H   0  0  0  0  0  0
  -29.5521  -13.4652   17.6444 H   0  0  0  0  0  0
  -28.0702  -11.2815   19.1268 H   0  0  0  0  0  0
  -27.4242  -12.3109   17.8724 H   0  0  0  0  0  0
  -27.5089  -14.2396   19.3049 H   0  0  0  0  0  0
  -28.8215  -12.5814   21.5107 H   0  0  0  0  0  0
  -28.2548  -14.2275   21.6761 H   0  0  0  0  0  0
  -25.2771   -9.5685   22.4769 H   0  0  0  0  0  0
  -24.0003   -7.4639   22.7480 H   0  0  0  0  0  0
  -21.0854   -8.8782   19.8950 H   0  0  0  0  0  0
  -22.3716  -10.9675   19.6167 H   0  0  0  0  0  0
  -21.2006   -7.6145   23.9711 H   0  0  0  0  0  0
  -21.1482   -6.0520   25.9073 H   0  0  0  0  0  0
  -22.0597   -2.7607   23.2845 H   0  0  0  0  0  0
  -22.4028  -11.9828   22.4849 H   0  0  0  0  0  0
  -21.1017  -13.1173   22.2671 H   0  0  0  0  0  0
  -24.6250  -15.8467   20.5286 H   0  0  0  0  0  0
  -26.2350  -15.6419   20.0638 H   0  0  0  0  0  0
  -26.7408  -32.5068   23.0844 H   0  0  0  0  0  0
  -25.0097  -33.9440   25.0162 H   0  0  0  0  0  0
  -22.8038  -31.2594   21.3382 H   0  0  0  0  0  0
  -23.3770  -35.9478   23.3276 H   0  0  0  0  0  0
  -24.3555  -36.8861   22.2072 H   0  0  0  0  0  0
  -23.7213  -37.6335   23.6739 H   0  0  0  0  0  0
  -26.2486  -31.3386   20.6267 H   0  0  0  0  0  0
  -26.9166  -30.6596   22.0670 H   0  0  0  0  0  0
  -28.1411  -28.5217   21.3197 H   0  0  0  0  0  0
  -25.8685  -25.7208   18.9670 H   0  0  0  0  0  0
  -24.0203  -27.2685   18.9205 H   0  0  0  0  0  0
  -23.8917  -30.5058   19.3841 H   0  0  0  0  0  0
  -22.8407  -29.1955   19.8218 H   0  0  0  0  0  0
  -25.1324  -36.1716   25.0786 H   0  0  0  0  0  0
  -21.0048  -28.3376   24.1297 H   0  0  0  0  0  0
  -20.5678  -26.2380   23.3649 H   0  0  0  0  0  0
  -21.6657  -26.7402   22.1207 H   0  0  0  0  0  0
  -19.6931  -25.6278   21.1275 H   0  0  0  0  0  0
  -19.6716  -27.3163   20.6727 H   0  0  0  0  0  0
  -17.4222  -26.6714   21.4016 H   0  0  0  0  0  0
  -18.0332  -26.0107   22.9024 H   0  0  0  0  0  0
  -19.7983  -30.7332   24.2181 H   0  0  0  0  0  0
  -17.5054  -31.6281   24.5170 H   0  0  0  0  0  0
  -15.5385  -30.2978   23.7720 H   0  0  0  0  0  0
  -15.8710  -28.0817   22.7118 H   0  0  0  0  0  0
  -24.5902  -30.7103   25.7637 H   0  0  0  0  0  0
  -24.8824  -32.2999   26.4590 H   0  0  0  0  0  0
  -25.7892  -30.9082   27.0222 H   0  0  0  0  0  0
  -26.3191  -29.6535   24.1464 H   0  0  0  0  0  0
  -27.3991  -29.7286   25.5162 H   0  0  0  0  0  0
  -27.9137  -30.4068   23.9938 H   0  0  0  0  0  0
  -27.2620  -33.3732   26.1894 H   0  0  0  0  0  0
  -28.3953  -32.6805   25.0389 H   0  0  0  0  0  0
  -28.0614  -31.8608   26.5566 H   0  0  0  0  0  0
  -28.2542  -38.0061   24.7533 H   0  0  0  0  0  0
  -28.1081  -36.2585   24.6274 H   0  0  0  0  0  0
  -27.2275  -37.1343   25.8871 H   0  0  0  0  0  0
  -20.9632  -29.8715   21.6613 H   0  0  0  0  0  0
  -26.0094  -38.2733   24.1475 H   0  0  0  0  0  0
  -28.7106  -20.1770   25.0709 H   0  0  0  0  0  0
  -28.8323  -22.0644   17.7189 H   0  0  0  0  0  0
  -28.5214  -20.3370   17.7414 H   0  0  0  0  0  0
  -30.1676  -20.9370   17.8955 H   0  0  0  0  0  0
  -29.3311  -18.1211   24.1621 H   0  0  0  0  0  0
  -30.3532  -18.2249   22.7406 H   0  0  0  0  0  0
  -28.6253  -17.8153   22.5871 H   0  0  0  0  0  0
  -28.4052  -22.3911   26.0608 H   0  0  0  0  0  0
  -26.8921  -22.8453   25.2741 H   0  0  0  0  0  0
  -28.3392  -23.8371   25.0568 H   0  0  0  0  0  0
  -26.8958  -23.9993   19.9416 H   0  0  0  0  0  0
  -28.1497  -24.1504   18.7977 H   0  0  0  0  0  0
  -30.9715  -18.4020   20.3261 H   0  0  0  0  0  0
  -29.9347  -18.2665   18.9874 H   0  0  0  0  0  0
  -28.6775  -16.4763   20.6246 H   0  0  0  0  0  0
  1 25  1  0  0  0
  1 30  2  0  0  0
  1 85  1  0  0  0
  2  3  1  0  0  0
  2 25  1  0  0  0
  2 86  1  0  0  0
  2 87  1  0  0  0
  3  4  1  0  0  0
  3 88  1  0  0  0
  3 89  1  0  0  0
  4  5  1  0  0  0
  4 90  1  0  0  0
  4 91  1  0  0  0
  5  6  1  0  0  0
  5 26  1  0  0  0
  5 92  1  0  0  0
  6 25  1  0  0  0
  6 93  1  0  0  0
  6 94  1  0  0  0
  7  8  2  0  0  0
  7 26  1  0  0  0
  7 29  1  0  0  0
  8  9  1  0  0  0
  8 22  1  0  0  0
  9 10  1  0  0  0
  9 27  2  0  0  0
 10 11  2  0  0  0
 10 15  1  0  0  0
 11 12  1  0  0  0
 11 95  1  0  0  0
 12 13  2  0  0  0
 12 96  1  0  0  0
 13 14  1  0  0  0
 13 31  1  0  0  0
 14 15  2  0  0  0
 14 97  1  0  0  0
 15 98  1  0  0  0
 16 17  2  0  0  0
 16 21  1  0  0  0
 16 31  1  0  0  0
 17 18  1  0  0  0
 17 99  1  0  0  0
 18 19  2  0  0  0
 18100  1  0  0  0
 19 20  1  0  0  0
 19 24  1  0  0  0
 20 21  2  0  0  0
 20101  1  0  0  0
 21 23  1  0  0  0
 22 28  1  0  0  0
 22 32  2  0  0  0
 26 27  1  0  0  0
 28102  1  0  0  0
 28103  1  0  0  0
 29104  1  0  0  0
 29105  1  0  0  0
 33 34  1  0  0  0
 33 66  1  0  0  0
 33 70  2  0  0  0
 34 36  1  0  0  0
 34 59  1  0  0  0
 34106  1  0  0  0
 35 44  2  0  0  0
 35 45  1  0  0  0
 35 68  1  0  0  0
 36 56  1  0  0  0
 36107  1  0  0  0
 37 39  1  0  0  0
 37 47  1  0  0  0
 37 66  1  0  0  0
 37108  1  0  0  0
 38 43  2  0  0  0
 38 46  1  0  0  0
 38 47  1  0  0  0
 39 64  1  0  0  0
 39 67  2  0  0  0
 40 52  1  0  0  0
 40 53  2  0  0  0
 40 58  1  0  0  0
 41109  1  0  0  0
 41110  1  0  0  0
 41111  1  0  0  0
 41 48  1  0  0  0
 42 43  1  0  0  0
 42 66  1  0  0  0
 42112  1  0  0  0
 42113  1  0  0  0
 43 44  1  0  0  0
 44114  1  0  0  0
 45 46  2  0  0  0
 45115  1  0  0  0
 46116  1  0  0  0
 47117  1  0  0  0
 47118  1  0  0  0
 48 56  1  0  0  0
 48 65  1  0  0  0
 48119  1  0  0  0
 49 50  1  0  0  0
 49 53  1  0  0  0
 49 64  1  0  0  0
 49120  1  0  0  0
 50 51  1  0  0  0
 50121  1  0  0  0
 50122  1  0  0  0
 51 52  1  0  0  0
 51123  1  0  0  0
 51124  1  0  0  0
 52125  1  0  0  0
 52126  1  0  0  0
 53 54  1  0  0  0
 54 55  2  0  0  0
 54127  1  0  0  0
 55 57  1  0  0  0
 55128  1  0  0  0
 56 69  2  0  0  0
 57 58  2  0  0  0
 57129  1  0  0  0
 58130  1  0  0  0
 59 60  1  0  0  0
 59 61  1  0  0  0
 59 62  1  0  0  0
 60131  1  0  0  0
 60132  1  0  0  0
 60133  1  0  0  0
 61134  1  0  0  0
 61135  1  0  0  0
 61136  1  0  0  0
 62137  1  0  0  0
 62138  1  0  0  0
 62139  1  0  0  0
 63 65  1  0  0  0
 63140  1  0  0  0
 63141  1  0  0  0
 63142  1  0  0  0
 64143  1  0  0  0
 65144  1  0  0  0
 68 81  1  0  0  0
 71 72  1  0  0  0
 71 73  2  0  0  0
 71 78  1  0  0  0
 72 74  2  0  0  0
 72 81  1  0  0  0
 73 82  1  0  0  0
 73 84  1  0  0  0
 74 83  1  0  0  0
 74 84  1  0  0  0
 75 76  2  0  0  0
 75 77  1  0  0  0
 75145  1  0  0  0
 76 79  1  0  0  0
 76 84  1  0  0  0
 77 80  1  0  0  0
 77 83  2  0  0  0
 78146  1  0  0  0
 78147  1  0  0  0
 78148  1  0  0  0
 79149  1  0  0  0
 79150  1  0  0  0
 79151  1  0  0  0
 80152  1  0  0  0
 80153  1  0  0  0
 80154  1  0  0  0
 81155  1  0  0  0
 81156  1  0  0  0
 82 85  1  0  0  0
 82157  1  0  0  0
 82158  1  0  0  0
 85159  1  0  0  0
M  ISO  4   1 100  68 101  81 101  85 100
M  END
> <chiral flag>
0

> <version>
0

> <s_m_source_file>
/data/baiqing/PycharmProjects/Reinvent-master-3.2/result/LINK_invent/BTK/process_docking_weight1_custom_sum_contain_oxygen_bond_distance_aromatic_linkinvent_7_9_3/rearranged_h_0179.sdf

> <i_m_source_file_index>
77

> <r_mmod_Potential_Energy-OPLS-2005>
1440.52014160156

> <r_mmod_Stretch_Energy-OPLS-2005>
683.280883789062

> <r_mmod_Bend_Energy-OPLS-2005>
490.175689697266

> <r_mmod_Torsional_Energy-OPLS-2005>
219.449966430664

> <r_mmod_Improper_Torsional_Energy-OPLS-2005>
6.88393115997314

> <r_mmod_Van_der_Waal_Energy-OPLS-2005>
127.833305358887

> <r_mmod_Electrostatic_Energy-OPLS-2005>
-423.3681640625

> <r_mmod_Solvation_Energy-OPLS-2005>
-228.709350585938

> <b_mmod_Minimization_Converged-OPLS-2005>
0

> <r_mmod_RMS_Derivative-OPLS-2005>
0.699307143688202

$$$$
77
                    3D
 Structure written by MMmdl.
164173  0  0  1  0            999 V2000
  -30.2342  -15.2740   21.2236 C   0  0  0  0  0  0
  -30.3915  -13.0737   19.6629 C   0  0  0  0  0  0
  -29.5593  -12.7240   18.4704 C   0  0  0  0  0  0
  -28.1472  -12.2850   18.6263 C   0  0  0  0  0  0
  -27.6411  -13.0172   19.9457 C   0  0  2  0  0  0
  -28.5815  -13.3417   21.0986 C   0  0  0  0  0  0
  -25.3411  -13.5589   20.8642 C   0  0  0  0  0  0
  -24.1032  -12.9953   21.1199 C   0  0  0  0  0  0
  -24.5516  -11.6343   20.9445 C   0  0  0  0  0  0
  -23.7894  -10.3934   21.0350 C   0  0  0  0  0  0
  -24.2665   -9.4553   21.8769 C   0  0  0  0  0  0
  -23.5461   -8.1881   22.0484 C   0  0  0  0  0  0
  -22.3204   -7.8802   21.3303 C   0  0  0  0  0  0
  -21.9630   -8.8111   20.4064 C   0  0  0  0  0  0
  -22.7024  -10.0206   20.2103 C   0  0  0  0  0  0
  -21.6592   -5.9639   22.5652 C   0  0  0  0  0  0
  -21.4335   -6.5039   23.8657 C   0  0  0  0  0  0
  -21.3752   -5.6186   24.9638 C   0  0  0  0  0  0
  -21.5866   -4.2569   24.7689 C   0  0  0  0  0  0
  -21.8550   -3.7520   23.5076 C   0  0  0  0  0  0
  -21.9335   -4.6020   22.3943 C   0  0  0  0  0  0
  -22.8451  -13.8414   21.5252 C   0  0  0  0  0  0
  -22.1505   -4.1418   21.1641 F   0  0  0  0  0  0
  -21.5499   -3.3966   25.8443 F   0  0  0  0  0  0
  -29.7380  -14.0492   20.6059 N   0  0  0  0  0  0
  -26.3324  -12.6739   20.4120 N   0  0  0  0  0  0
  -25.8928  -11.4448   20.7929 N   0  0  0  0  0  0
  -21.8230  -13.1207   22.0352 N   0  0  0  0  0  0
  -25.4107  -14.9695   20.6561 N   0  0  0  0  0  0
  -31.4796  -15.4273   20.9220 O   0  0  0  0  0  0
  -21.5531   -6.7443   21.4293 O   0  0  0  0  0  0
  -22.8578  -15.0823   21.3712 O   0  0  0  0  0  0
  -24.7639  -31.6784   23.0776 C   0  0  0  0  0  0
  -25.9763  -32.3618   23.7475 C   0  0  1  0  0  0
  -26.6008  -25.8473   20.5538 C   0  0  0  0  0  0
  -25.5989  -33.7555   24.1097 N   0  0  0  0  0  0
  -23.6135  -30.2302   21.4387 C   0  0  2  0  0  0
  -24.9496  -28.4662   20.1159 C   0  0  0  0  0  0
  -22.8024  -29.3541   22.4413 C   0  0  0  0  0  0
  -18.0261  -28.1463   22.8356 C   0  0  0  0  0  0
  -24.1443  -36.6666   23.2694 C   0  0  0  0  0  0
  -26.1905  -30.0117   21.5752 C   0  0  0  0  0  0
  -26.1063  -28.5606   20.9104 C   0  0  0  0  0  0
  -26.9123  -27.2401   21.1085 C   0  0  0  0  0  0
  -25.6816  -26.1096   19.5762 C   0  0  0  0  0  0
  -24.8643  -27.2478   19.3853 C   0  0  0  0  0  0
  -23.8537  -29.5395   20.0817 C   0  0  0  0  0  0
  -25.4195  -36.2322   24.0146 C   0  0  1  0  0  0
  -20.5902  -28.3754   23.0991 C   0  0  2  0  0  0
  -20.6620  -26.9326   22.5510 C   0  0  0  0  0  0
  -19.5720  -26.6263   21.5232 C   0  0  0  0  0  0
  -18.1842  -26.7967   22.1510 C   0  0  0  0  0  0
  -19.1544  -28.8981   23.2607 C   0  0  0  0  0  0
  -18.9525  -30.1537   23.8705 C   0  0  0  0  0  0
  -17.6541  -30.6654   24.0535 C   0  0  0  0  0  0
  -25.9309  -34.8832   23.4581 C   0  0  0  0  0  0
  -16.5385  -29.9152   23.6367 C   0  0  0  0  0  0
  -16.7258  -28.6553   23.0370 C   0  0  0  0  0  0
  -26.4805  -31.6407   25.0726 C   0  0  0  0  0  0
  -25.3556  -31.4052   26.1086 C   0  0  0  0  0  0
  -27.1057  -30.2662   24.7813 C   0  0  0  0  0  0
  -27.5973  -32.4739   25.7401 C   0  0  0  0  0  0
  -27.5484  -37.1454   24.8453 C   0  0  0  0  0  0
  -21.4603  -29.2695   22.3116 N   0  0  0  0  0  0
  -26.4151  -37.3286   23.9437 N   0  0  0  0  0  0
  -24.8941  -30.7291   22.0564 N   0  0  0  0  0  0
  -23.3927  -28.7354   23.3346 O   0  0  0  0  0  0
  -27.0583  -24.3400   20.8087 O   0  0  0  0  0  0
  -26.6278  -34.8625   22.4418 O   0  0  0  0  0  0
  -23.6496  -32.0370   23.4977 O   0  0  0  0  0  0
  -26.4256  -18.6104   24.5180 C   0  0  0  0  0  0
  -24.8887  -18.3067   24.1763 C   0  0  0  0  0  0
  -25.1997  -18.0265   22.8970 C   0  0  0  0  0  0
  -27.5878  -17.7972   23.7837 C   0  0  0  0  0  0
  -25.8462  -16.5271   23.3706 C   0  0  0  0  0  0
  -22.7810  -16.7046   24.3082 C   0  0  0  0  0  0
  -22.0550  -17.6744   23.4777 C   0  0  0  0  0  0
  -23.2251  -18.1014   24.5381 C   0  0  0  0  0  0
  -25.3957  -15.5935   24.6959 C   0  0  0  0  0  0
  -26.9591  -18.6772   20.3270 C   0  0  0  0  0  0
  -29.0795  -17.7390   22.9294 C   0  0  0  0  0  0
  -26.4827  -22.3722   20.7416 C   0  0  0  0  0  0
  -26.4819  -20.2279   21.2021 C   0  0  2  0  0  0
  -27.1855  -16.5561   23.4034 N   0  0  0  0  0  0
  -25.3333  -19.1283   21.8971 N   0  0  0  0  0  0
  -29.3261  -16.3016   21.9425 N   0  0  0  0  0  0
  -31.3142  -13.4905   19.2592 H   0  0  0  0  0  0
  -30.6662  -12.2395   20.2726 H   0  0  0  0  0  0
  -29.9856  -11.9365   17.8879 H   0  0  0  0  0  0
  -29.6052  -13.4892   17.7121 H   0  0  0  0  0  0
  -27.9077  -11.2339   18.6831 H   0  0  0  0  0  0
  -27.5052  -12.6223   17.7773 H   0  0  0  0  0  0
  -27.4452  -13.9425   19.3953 H   0  0  0  0  0  0
  -28.8189  -12.2894   21.2408 H   0  0  0  0  0  0
  -27.9501  -13.7651   21.9472 H   0  0  0  0  0  0
  -25.1272   -9.4895   22.5645 H   0  0  0  0  0  0
  -23.7969   -7.4648   22.7375 H   0  0  0  0  0  0
  -21.1281   -8.4725   19.7928 H   0  0  0  0  0  0
  -22.4747  -10.6989   19.4736 H   0  0  0  0  0  0
  -21.2391   -7.5601   24.0221 H   0  0  0  0  0  0
  -21.1828   -5.9933   25.9415 H   0  0  0  0  0  0
  -22.0174   -2.7213   23.3652 H   0  0  0  0  0  0
  -21.0280  -13.4948   22.4817 H   0  0  0  0  0  0
  -21.6574  -12.2178   21.5188 H   0  0  0  0  0  0
  -24.5710  -14.7185   20.2089 H   0  0  0  0  0  0
  -25.8171  -15.2365   19.6396 H   0  0  0  0  0  0
  -26.8079  -32.3733   23.0327 H   0  0  0  0  0  0
  -24.9401  -33.8281   24.8727 H   0  0  0  0  0  0
  -23.0021  -31.0818   21.1869 H   0  0  0  0  0  0
  -23.3845  -35.8837   23.3128 H   0  0  0  0  0  0
  -24.3401  -36.8692   22.2153 H   0  0  0  0  0  0
  -23.7075  -37.5615   23.7107 H   0  0  0  0  0  0
  -26.8276  -30.5944   20.9027 H   0  0  0  0  0  0
  -26.7779  -29.6589   22.4087 H   0  0  0  0  0  0
  -27.7410  -27.3371   21.8145 H   0  0  0  0  0  0
  -25.4476  -25.2605   18.9643 H   0  0  0  0  0  0
  -24.0073  -27.0968   18.7033 H   0  0  0  0  0  0
  -24.2065  -30.1947   19.3149 H   0  0  0  0  0  0
  -22.9656  -29.0112   19.7263 H   0  0  0  0  0  0
  -25.1477  -36.0819   25.0627 H   0  0  0  0  0  0
  -20.9848  -28.3486   24.1199 H   0  0  0  0  0  0
  -20.5222  -26.2459   23.3857 H   0  0  0  0  0  0
  -21.6498  -26.7037   22.1552 H   0  0  0  0  0  0
  -19.6863  -25.6120   21.1412 H   0  0  0  0  0  0
  -19.6799  -27.2914   20.6660 H   0  0  0  0  0  0
  -17.4162  -26.6706   21.3861 H   0  0  0  0  0  0
  -18.0165  -26.0153   22.8932 H   0  0  0  0  0  0
  -19.8033  -30.7327   24.1977 H   0  0  0  0  0  0
  -17.5149  -31.6321   24.5175 H   0  0  0  0  0  0
  -15.5400  -30.3073   23.7863 H   0  0  0  0  0  0
  -15.8583  -28.0897   22.7227 H   0  0  0  0  0  0
  -24.5895  -30.7249   25.7354 H   0  0  0  0  0  0
  -24.8649  -32.3371   26.3821 H   0  0  0  0  0  0
  -25.7479  -30.9647   27.0268 H   0  0  0  0  0  0
  -26.3596  -29.5266   24.4912 H   0  0  0  0  0  0
  -27.5735  -29.8546   25.6795 H   0  0  0  0  0  0
  -27.9035  -30.3264   24.0429 H   0  0  0  0  0  0
  -27.2322  -33.4364   26.0988 H   0  0  0  0  0  0
  -28.4123  -32.6770   25.0416 H   0  0  0  0  0  0
  -28.0284  -31.9663   26.6028 H   0  0  0  0  0  0
  -28.2354  -37.9880   24.7606 H   0  0  0  0  0  0
  -28.1118  -36.2397   24.6179 H   0  0  0  0  0  0
  -27.2197  -37.0903   25.8839 H   0  0  0  0  0  0
  -21.0101  -29.7944   21.5713 H   0  0  0  0  0  0
  -25.9818  -38.2219   24.1602 H   0  0  0  0  0  0
  -26.2568  -19.5490   24.9297 H   0  0  0  0  0  0
  -23.3597  -16.2026   23.6295 H   0  0  0  0  0  0
  -22.4573  -16.0960   25.1154 H   0  0  0  0  0  0
  -21.0132  -18.0345   23.6808 H   0  0  0  0  0  0
  -21.9812  -16.9393   22.6242 H   0  0  0  0  0  0
  -22.7903  -18.4907   25.5063 H   0  0  0  0  0  0
  -25.4999  -14.5749   24.9466 H   0  0  0  0  0  0
  -24.4713  -15.5190   25.0712 H   0  0  0  0  0  0
  -25.7112  -16.0330   25.5229 H   0  0  0  0  0  0
  -26.1912  -17.8900   20.2717 H   0  0  0  0  0  0
  -27.1949  -17.7184   20.8430 H   0  0  0  0  0  0
  -27.3433  -18.5295   19.1488 H   0  0  0  0  0  0
  -29.7779  -17.6407   23.7711 H   0  0  0  0  0  0
  -29.3927  -18.6641   22.3288 H   0  0  0  0  0  0
  -26.9991  -22.3958   19.8087 H   0  0  0  0  0  0
  -25.3145  -22.5710   20.6421 H   0  0  0  0  0  0
  -26.7889  -20.0451   20.1058 H   0  0  0  0  0  0
  -24.9770  -18.6799   21.0555 H   0  0  0  0  0  0
  -28.8747  -16.6141   21.1445 H   0  0  0  0  0  0
  1 25  1  0  0  0
  1 30  2  0  0  0
  1 86  1  0  0  0
  2  3  1  0  0  0
  2 25  1  0  0  0
  2 87  1  0  0  0
  2 88  1  0  0  0
  3  4  1  0  0  0
  3 89  1  0  0  0
  3 90  1  0  0  0
  4  5  1  0  0  0
  4 91  1  0  0  0
  4 92  1  0  0  0
  5  6  1  0  0  0
  5 26  1  0  0  0
  5 93  1  0  0  0
  6 25  1  0  0  0
  6 94  1  0  0  0
  6 95  1  0  0  0
  7  8  2  0  0  0
  7 26  1  0  0  0
  7 29  1  0  0  0
  8  9  1  0  0  0
  8 22  1  0  0  0
  9 10  1  0  0  0
  9 27  2  0  0  0
 10 11  2  0  0  0
 10 15  1  0  0  0
 11 12  1  0  0  0
 11 96  1  0  0  0
 12 13  2  0  0  0
 12 97  1  0  0  0
 13 14  1  0  0  0
 13 31  1  0  0  0
 14 15  2  0  0  0
 14 98  1  0  0  0
 15 99  1  0  0  0
 16 17  2  0  0  0
 16 21  1  0  0  0
 16 31  1  0  0  0
 17 18  1  0  0  0
 17100  1  0  0  0
 18 19  2  0  0  0
 18101  1  0  0  0
 19 20  1  0  0  0
 19 24  1  0  0  0
 20 21  2  0  0  0
 20102  1  0  0  0
 21 23  1  0  0  0
 22 28  1  0  0  0
 22 32  2  0  0  0
 26 27  1  0  0  0
 28103  1  0  0  0
 28104  1  0  0  0
 29105  1  0  0  0
 29106  1  0  0  0
 33 34  1  0  0  0
 33 66  1  0  0  0
 33 70  2  0  0  0
 34 36  1  0  0  0
 34 59  1  0  0  0
 34107  1  0  0  0
 35 44  2  0  0  0
 35 45  1  0  0  0
 35 68  1  0  0  0
 36 56  1  0  0  0
 36108  1  0  0  0
 37 39  1  0  0  0
 37 47  1  0  0  0
 37 66  1  0  0  0
 37109  1  0  0  0
 38 43  2  0  0  0
 38 46  1  0  0  0
 38 47  1  0  0  0
 39 64  1  0  0  0
 39 67  2  0  0  0
 40 52  1  0  0  0
 40 53  2  0  0  0
 40 58  1  0  0  0
 41110  1  0  0  0
 41111  1  0  0  0
 41112  1  0  0  0
 41 48  1  0  0  0
 42 43  1  0  0  0
 42 66  1  0  0  0
 42113  1  0  0  0
 42114  1  0  0  0
 43 44  1  0  0  0
 44115  1  0  0  0
 45 46  2  0  0  0
 45116  1  0  0  0
 46117  1  0  0  0
 47118  1  0  0  0
 47119  1  0  0  0
 48 56  1  0  0  0
 48 65  1  0  0  0
 48120  1  0  0  0
 49 50  1  0  0  0
 49 53  1  0  0  0
 49 64  1  0  0  0
 49121  1  0  0  0
 50 51  1  0  0  0
 50122  1  0  0  0
 50123  1  0  0  0
 51 52  1  0  0  0
 51124  1  0  0  0
 51125  1  0  0  0
 52126  1  0  0  0
 52127  1  0  0  0
 53 54  1  0  0  0
 54 55  2  0  0  0
 54128  1  0  0  0
 55 57  1  0  0  0
 55129  1  0  0  0
 56 69  2  0  0  0
 57 58  2  0  0  0
 57130  1  0  0  0
 58131  1  0  0  0
 59 60  1  0  0  0
 59 61  1  0  0  0
 59 62  1  0  0  0
 60132  1  0  0  0
 60133  1  0  0  0
 60134  1  0  0  0
 61135  1  0  0  0
 61136  1  0  0  0
 61137  1  0  0  0
 62138  1  0  0  0
 62139  1  0  0  0
 62140  1  0  0  0
 63 65  1  0  0  0
 63141  1  0  0  0
 63142  1  0  0  0
 63143  1  0  0  0
 64144  1  0  0  0
 65145  1  0  0  0
 68 82  1  0  0  0
 71 72  2  0  0  0
 71 74  1  0  0  0
 71146  1  0  0  0
 72 73  1  0  0  0
 72 78  1  0  0  0
 73 75  2  0  0  0
 73 85  1  0  0  0
 74 81  1  0  0  0
 74 84  2  0  0  0
 75 79  1  0  0  0
 75 84  1  0  0  0
 76 77  1  0  0  0
 76 78  1  0  0  0
 76147  1  0  0  0
 76148  1  0  0  0
 77 78  1  0  0  0
 77149  1  0  0  0
 77150  1  0  0  0
 78151  1  0  0  0
 79152  1  0  0  0
 79153  1  0  0  0
 79154  1  0  0  0
 80155  1  0  0  0
 80156  1  0  0  0
 80157  1  0  0  0
 80 83  1  0  0  0
 81 86  1  0  0  0
 81158  1  0  0  0
 81159  1  0  0  0
 82 83  1  0  0  0
 82160  1  0  0  0
 82161  1  0  0  0
 83 85  1  0  0  0
 83162  1  0  0  0
 85163  1  0  0  0
 86164  1  0  0  0
M  ISO  4   1 100  68 101  82 101  86 100
M  END
> <chiral flag>
0

> <version>
0

> <s_m_source_file>
/data/baiqing/PycharmProjects/Reinvent-master-3.2/result/LINK_invent/BTK/process_docking_weight1_custom_sum_contain_oxygen_bond_distance_aromatic_linkinvent_7_9_3/rearranged_h_0179.sdf

> <i_m_source_file_index>
78

> <r_mmod_Potential_Energy-OPLS-2005>
7480.17236328125

> <r_mmod_Stretch_Energy-OPLS-2005>
2568.18090820312

> <r_mmod_Bend_Energy-OPLS-2005>
2195.91577148438

> <r_mmod_Torsional_Energy-OPLS-2005>
718.538269042969

> <r_mmod_Improper_Torsional_Energy-OPLS-2005>
63.982551574707

> <r_mmod_Van_der_Waal_Energy-OPLS-2005>
293.268798828125

> <r_mmod_Electrostatic_Energy-OPLS-2005>
-619.38037109375

> <r_mmod_Solvation_Energy-OPLS-2005>
-250.409393310547

> <b_mmod_Minimization_Converged-OPLS-2005>
0

> <r_mmod_RMS_Derivative-OPLS-2005>
99.9990005493164

$$$$
78
                    3D
 Structure written by MMmdl.
150158  0  0  1  0            999 V2000
  -30.5516  -15.0624   20.4086 C   0  0  0  0  0  0
  -30.4319  -12.6631   19.5321 C   0  0  0  0  0  0
  -29.5274  -12.5608   18.2768 C   0  0  0  0  0  0
  -28.0653  -12.3171   18.7013 C   0  0  0  0  0  0
  -27.6250  -13.2708   19.8415 C   0  0  2  0  0  0
  -28.6636  -13.3713   20.9867 C   0  0  0  0  0  0
  -25.2442  -13.8274   20.5783 C   0  0  0  0  0  0
  -24.1777  -13.0452   20.9233 C   0  0  0  0  0  0
  -24.6386  -11.6940   20.8748 C   0  0  0  0  0  0
  -23.9093  -10.4297   21.0404 C   0  0  0  0  0  0
  -24.3646   -9.4225   21.9184 C   0  0  0  0  0  0
  -23.6310   -8.2276   22.0762 C   0  0  0  0  0  0
  -22.4293   -8.0302   21.3537 C   0  0  0  0  0  0
  -21.9936   -9.0297   20.4658 C   0  0  0  0  0  0
  -22.7277  -10.2160   20.3063 C   0  0  0  0  0  0
  -21.6867   -6.0753   22.5291 C   0  0  0  0  0  0
  -21.3999   -6.5636   23.8226 C   0  0  0  0  0  0
  -21.3652   -5.6793   24.9184 C   0  0  0  0  0  0
  -21.6047   -4.3061   24.7239 C   0  0  0  0  0  0
  -21.8821   -3.8150   23.4361 C   0  0  0  0  0  0
  -21.9182   -4.6971   22.3412 C   0  0  0  0  0  0
  -22.7804  -13.5220   21.1894 C   0  0  0  0  0  0
  -22.1664   -4.2155   21.1001 F   0  0  0  0  0  0
  -21.5626   -3.4535   25.7750 F   0  0  0  0  0  0
  -29.9359  -13.7953   20.3870 N   0  0  0  0  0  0
  -26.2868  -12.9567   20.3286 N   0  0  0  0  0  0
  -25.9323  -11.6653   20.5774 N   0  0  0  0  0  0
  -22.0411  -12.8214   22.0422 N   0  0  0  0  0  0
  -25.4116  -15.2018   20.4225 N   0  0  0  0  0  0
  -31.7092  -15.0791   19.9738 O   0  0  0  0  0  0
  -21.6637   -6.8908   21.4255 O   0  0  0  0  0  0
  -22.3478  -14.5524   20.6736 O   0  0  0  0  0  0
  -24.6488  -31.8346   23.1832 C   0  0  0  0  0  0
  -25.9230  -32.4661   23.8296 C   0  0  1  0  0  0
  -27.2366  -27.0570   20.1614 C   0  0  0  0  0  0
  -25.5979  -33.8465   24.2197 N   0  0  0  0  0  0
  -23.4648  -30.4459   21.5230 C   0  0  2  0  0  0
  -24.9212  -28.8493   20.1196 C   0  0  0  0  0  0
  -22.7589  -29.4534   22.4793 C   0  0  0  0  0  0
  -18.0325  -28.1339   22.8266 C   0  0  0  0  0  0
  -24.1476  -36.7231   23.2640 C   0  0  0  0  0  0
  -26.0263  -30.6753   21.4036 C   0  0  0  0  0  0
  -26.0976  -29.2756   20.7514 C   0  0  0  0  0  0
  -27.2494  -28.3942   20.7559 C   0  0  0  0  0  0
  -26.0385  -26.7545   19.4828 C   0  0  0  0  0  0
  -24.9070  -27.6031   19.4668 C   0  0  0  0  0  0
  -23.7081  -29.7680   20.1477 C   0  0  0  0  0  0
  -25.4116  -36.3021   24.0315 C   0  0  1  0  0  0
  -20.5880  -28.3781   23.1154 C   0  0  2  0  0  0
  -20.6898  -26.9482   22.5414 C   0  0  0  0  0  0
  -19.5961  -26.6299   21.5246 C   0  0  0  0  0  0
  -18.2045  -26.7902   22.1386 C   0  0  0  0  0  0
  -19.1501  -28.8847   23.2757 C   0  0  0  0  0  0
  -18.9302  -30.1344   23.8977 C   0  0  0  0  0  0
  -17.6265  -30.6427   24.0632 C   0  0  0  0  0  0
  -25.9086  -34.9380   23.5094 C   0  0  0  0  0  0
  -16.5233  -29.8949   23.6131 C   0  0  0  0  0  0
  -16.7263  -28.6437   23.0067 C   0  0  0  0  0  0
  -26.4555  -31.6552   25.0739 C   0  0  0  0  0  0
  -25.3745  -31.3745   26.1429 C   0  0  0  0  0  0
  -27.0424  -30.2947   24.6357 C   0  0  0  0  0  0
  -27.6087  -32.4339   25.7513 C   0  0  0  0  0  0
  -27.5575  -37.1770   24.8467 C   0  0  0  0  0  0
  -21.4267  -29.3110   22.3561 N   0  0  0  0  0  0
  -26.4286  -37.3748   23.9437 N   0  0  0  0  0  0
  -24.7325  -31.0081   22.0920 N   0  0  0  0  0  0
  -23.4124  -28.8045   23.2998 O   0  0  0  0  0  0
  -28.3175  -26.0790   20.1631 O   0  0  0  0  0  0
  -26.5660  -34.8896   22.4652 O   0  0  0  0  0  0
  -23.5579  -32.1326   23.6957 O   0  0  0  0  0  0
  -28.5846  -23.4017   20.0815 C   0  0  0  0  0  0
  -28.3210  -24.6536   20.1331 C   0  0  0  0  0  0
  -29.6531  -19.1760   20.1639 C   0  0  0  0  0  0
  -30.0384  -17.6923   22.9684 C   0  0  0  0  0  0
  -28.7619  -17.9550   22.1796 C   0  0  0  0  0  0
  -30.5216  -16.3610   22.4004 C   0  0  0  0  0  0
  -29.1862  -17.6411   20.7255 C   0  0  2  0  0  0
  -29.2793  -21.9494   19.8362 C   0  0  0  0  0  0
  -30.0230  -16.2632   21.0148 N   0  0  0  0  0  0
  -28.9352  -20.4344   20.2875 N   0  0  0  0  0  0
  -30.7367  -19.2010   19.5746 O   0  0  0  0  0  0
  -31.4748  -12.7925   19.2344 H   0  0  0  0  0  0
  -30.4128  -11.7290   20.0887 H   0  0  0  0  0  0
  -29.8671  -11.7471   17.6253 H   0  0  0  0  0  0
  -29.6003  -13.4809   17.6876 H   0  0  0  0  0  0
  -27.9908  -11.2829   19.0389 H   0  0  0  0  0  0
  -27.4001  -12.4056   17.8408 H   0  0  0  0  0  0
  -27.5744  -14.2572   19.3788 H   0  0  0  0  0  0
  -28.7729  -12.4261   21.5206 H   0  0  0  0  0  0
  -28.3420  -14.1108   21.7263 H   0  0  0  0  0  0
  -25.2776   -9.5695   22.4770 H   0  0  0  0  0  0
  -24.0001   -7.4662   22.7488 H   0  0  0  0  0  0
  -21.0854   -8.8823   19.8988 H   0  0  0  0  0  0
  -22.3721  -10.9703   19.6191 H   0  0  0  0  0  0
  -21.1991   -7.6133   23.9737 H   0  0  0  0  0  0
  -21.1466   -6.0512   25.9095 H   0  0  0  0  0  0
  -22.0599   -2.7606   23.2861 H   0  0  0  0  0  0
  -22.3965  -11.9874   22.4872 H   0  0  0  0  0  0
  -21.1046  -13.1327   22.2594 H   0  0  0  0  0  0
  -24.6487  -15.8558   20.5522 H   0  0  0  0  0  0
  -26.2711  -15.6533   20.1407 H   0  0  0  0  0  0
  -26.7300  -32.5269   23.1018 H   0  0  0  0  0  0
  -25.0138  -33.9657   25.0359 H   0  0  0  0  0  0
  -22.7782  -31.2748   21.3516 H   0  0  0  0  0  0
  -23.3776  -35.9523   23.3241 H   0  0  0  0  0  0
  -24.3590  -36.8928   22.2077 H   0  0  0  0  0  0
  -23.7198  -37.6386   23.6721 H   0  0  0  0  0  0
  -26.1863  -31.4229   20.6268 H   0  0  0  0  0  0
  -26.8943  -30.7443   22.0520 H   0  0  0  0  0  0
  -28.1497  -28.7159   21.2576 H   0  0  0  0  0  0
  -25.9735  -25.8064   18.9749 H   0  0  0  0  0  0
  -24.0224  -27.2707   18.9429 H   0  0  0  0  0  0
  -23.8861  -30.5413   19.3960 H   0  0  0  0  0  0
  -22.8250  -29.2198   19.8208 H   0  0  0  0  0  0
  -25.1285  -36.1829   25.0813 H   0  0  0  0  0  0
  -20.9847  -28.3392   24.1294 H   0  0  0  0  0  0
  -20.5977  -26.2424   23.3704 H   0  0  0  0  0  0
  -21.6709  -26.7638   22.1054 H   0  0  0  0  0  0
  -19.7248  -25.6167   21.1462 H   0  0  0  0  0  0
  -19.7053  -27.2960   20.6698 H   0  0  0  0  0  0
  -17.4473  -26.6687   21.3633 H   0  0  0  0  0  0
  -18.0373  -26.0016   22.8710 H   0  0  0  0  0  0
  -19.7723  -30.7081   24.2599 H   0  0  0  0  0  0
  -17.4720  -31.5963   24.5497 H   0  0  0  0  0  0
  -15.5224  -30.2822   23.7361 H   0  0  0  0  0  0
  -15.8677  -28.0820   22.6600 H   0  0  0  0  0  0
  -24.5924  -30.7090   25.7763 H   0  0  0  0  0  0
  -24.8921  -32.2903   26.4834 H   0  0  0  0  0  0
  -25.8019  -30.8939   27.0241 H   0  0  0  0  0  0
  -26.3054  -29.6646   24.1366 H   0  0  0  0  0  0
  -27.4029  -29.7253   25.4940 H   0  0  0  0  0  0
  -27.8964  -30.4165   23.9700 H   0  0  0  0  0  0
  -27.2691  -33.3674   26.2019 H   0  0  0  0  0  0
  -28.3911  -32.6873   25.0343 H   0  0  0  0  0  0
  -28.0746  -31.8529   26.5486 H   0  0  0  0  0  0
  -28.2540  -38.0122   24.7562 H   0  0  0  0  0  0
  -28.1127  -36.2647   24.6197 H   0  0  0  0  0  0
  -27.2320  -37.1292   25.8883 H   0  0  0  0  0  0
  -20.9447  -29.8856   21.6766 H   0  0  0  0  0  0
  -26.0105  -38.2793   24.1500 H   0  0  0  0  0  0
  -29.8989  -17.6852   24.0488 H   0  0  0  0  0  0
  -30.7961  -18.4510   22.7631 H   0  0  0  0  0  0
  -28.3957  -18.9664   22.3420 H   0  0  0  0  0  0
  -27.9709  -17.2862   22.5340 H   0  0  0  0  0  0
  -30.1228  -15.5364   22.9939 H   0  0  0  0  0  0
  -31.6145  -16.2758   22.4378 H   0  0  0  0  0  0
  -28.2996  -17.3979   20.1375 H   0  0  0  0  0  0
  -30.2827  -22.1031   20.2347 H   0  0  0  0  0  0
  -29.4477  -21.8861   18.7531 H   0  0  0  0  0  0
  -28.0439  -20.3507   20.7590 H   0  0  0  0  0  0
  1 25  1  0  0  0
  1 30  2  0  0  0
  1 79  1  0  0  0
  2  3  1  0  0  0
  2 25  1  0  0  0
  2 82  1  0  0  0
  2 83  1  0  0  0
  3  4  1  0  0  0
  3 84  1  0  0  0
  3 85  1  0  0  0
  4  5  1  0  0  0
  4 86  1  0  0  0
  4 87  1  0  0  0
  5  6  1  0  0  0
  5 26  1  0  0  0
  5 88  1  0  0  0
  6 25  1  0  0  0
  6 89  1  0  0  0
  6 90  1  0  0  0
  7  8  2  0  0  0
  7 26  1  0  0  0
  7 29  1  0  0  0
  8  9  1  0  0  0
  8 22  1  0  0  0
  9 10  1  0  0  0
  9 27  2  0  0  0
 10 11  2  0  0  0
 10 15  1  0  0  0
 11 12  1  0  0  0
 11 91  1  0  0  0
 12 13  2  0  0  0
 12 92  1  0  0  0
 13 14  1  0  0  0
 13 31  1  0  0  0
 14 15  2  0  0  0
 14 93  1  0  0  0
 15 94  1  0  0  0
 16 17  2  0  0  0
 16 21  1  0  0  0
 16 31  1  0  0  0
 17 18  1  0  0  0
 17 95  1  0  0  0
 18 19  2  0  0  0
 18 96  1  0  0  0
 19 20  1  0  0  0
 19 24  1  0  0  0
 20 21  2  0  0  0
 20 97  1  0  0  0
 21 23  1  0  0  0
 22 28  1  0  0  0
 22 32  2  0  0  0
 26 27  1  0  0  0
 28 98  1  0  0  0
 28 99  1  0  0  0
 29100  1  0  0  0
 29101  1  0  0  0
 33 34  1  0  0  0
 33 66  1  0  0  0
 33 70  2  0  0  0
 34 36  1  0  0  0
 34 59  1  0  0  0
 34102  1  0  0  0
 35 44  2  0  0  0
 35 45  1  0  0  0
 35 68  1  0  0  0
 36 56  1  0  0  0
 36103  1  0  0  0
 37 39  1  0  0  0
 37 47  1  0  0  0
 37 66  1  0  0  0
 37104  1  0  0  0
 38 43  2  0  0  0
 38 46  1  0  0  0
 38 47  1  0  0  0
 39 64  1  0  0  0
 39 67  2  0  0  0
 40 52  1  0  0  0
 40 53  2  0  0  0
 40 58  1  0  0  0
 41105  1  0  0  0
 41106  1  0  0  0
 41107  1  0  0  0
 41 48  1  0  0  0
 42 43  1  0  0  0
 42 66  1  0  0  0
 42108  1  0  0  0
 42109  1  0  0  0
 43 44  1  0  0  0
 44110  1  0  0  0
 45 46  2  0  0  0
 45111  1  0  0  0
 46112  1  0  0  0
 47113  1  0  0  0
 47114  1  0  0  0
 48 56  1  0  0  0
 48 65  1  0  0  0
 48115  1  0  0  0
 49 50  1  0  0  0
 49 53  1  0  0  0
 49 64  1  0  0  0
 49116  1  0  0  0
 50 51  1  0  0  0
 50117  1  0  0  0
 50118  1  0  0  0
 51 52  1  0  0  0
 51119  1  0  0  0
 51120  1  0  0  0
 52121  1  0  0  0
 52122  1  0  0  0
 53 54  1  0  0  0
 54 55  2  0  0  0
 54123  1  0  0  0
 55 57  1  0  0  0
 55124  1  0  0  0
 56 69  2  0  0  0
 57 58  2  0  0  0
 57125  1  0  0  0
 58126  1  0  0  0
 59 60  1  0  0  0
 59 61  1  0  0  0
 59 62  1  0  0  0
 60127  1  0  0  0
 60128  1  0  0  0
 60129  1  0  0  0
 61130  1  0  0  0
 61131  1  0  0  0
 61132  1  0  0  0
 62133  1  0  0  0
 62134  1  0  0  0
 62135  1  0  0  0
 63 65  1  0  0  0
 63136  1  0  0  0
 63137  1  0  0  0
 63138  1  0  0  0
 64139  1  0  0  0
 65140  1  0  0  0
 68 72  1  0  0  0
 71 72  3  0  0  0
 71 78  1  0  0  0
 73 80  1  0  0  0
 73 81  2  0  0  0
 73 77  1  0  0  0
 74 75  1  0  0  0
 74 76  1  0  0  0
 74141  1  0  0  0
 74142  1  0  0  0
 75 77  1  0  0  0
 75143  1  0  0  0
 75144  1  0  0  0
 76 79  1  0  0  0
 76145  1  0  0  0
 76146  1  0  0  0
 77 79  1  0  0  0
 77147  1  0  0  0
 78 80  1  0  0  0
 78148  1  0  0  0
 78149  1  0  0  0
 80150  1  0  0  0
M  ISO  4   1 100  68 101  72 101  79 100
M  END
> <chiral flag>
0

> <version>
0

> <s_m_source_file>
/data/baiqing/PycharmProjects/Reinvent-master-3.2/result/LINK_invent/BTK/process_docking_weight1_custom_sum_contain_oxygen_bond_distance_aromatic_linkinvent_7_9_3/rearranged_h_0179.sdf

> <i_m_source_file_index>
79

> <r_mmod_Potential_Energy-OPLS-2005>
801.797302246094

> <r_mmod_Stretch_Energy-OPLS-2005>
353.735137939453

> <r_mmod_Bend_Energy-OPLS-2005>
401.801147460938

> <r_mmod_Torsional_Energy-OPLS-2005>
273.729187011719

> <r_mmod_Improper_Torsional_Energy-OPLS-2005>
3.1515645980835

> <r_mmod_Van_der_Waal_Energy-OPLS-2005>
111.680290222168

> <r_mmod_Electrostatic_Energy-OPLS-2005>
-365.811737060547

> <r_mmod_Solvation_Energy-OPLS-2005>
-243.891632080078

> <b_mmod_Minimization_Converged-OPLS-2005>
0

> <r_mmod_RMS_Derivative-OPLS-2005>
9.78373050689697

$$$$
79
                    3D
 Structure written by MMmdl.
153162  0  0  1  0            999 V2000
  -30.3961  -15.3671   20.3531 C   0  0  0  0  0  0
  -30.4350  -12.8771   19.5461 C   0  0  0  0  0  0
  -29.5420  -12.5995   18.3076 C   0  0  0  0  0  0
  -28.0949  -12.3031   18.7333 C   0  0  0  0  0  0
  -27.6088  -13.2855   19.8265 C   0  0  2  0  0  0
  -28.6345  -13.5000   20.9624 C   0  0  0  0  0  0
  -25.2370  -13.8264   20.5765 C   0  0  0  0  0  0
  -24.1734  -13.0439   20.9269 C   0  0  0  0  0  0
  -24.6407  -11.6941   20.8771 C   0  0  0  0  0  0
  -23.9105  -10.4298   21.0411 C   0  0  0  0  0  0
  -24.3648   -9.4208   21.9187 C   0  0  0  0  0  0
  -23.6316   -8.2246   22.0754 C   0  0  0  0  0  0
  -22.4294   -8.0290   21.3548 C   0  0  0  0  0  0
  -21.9938   -9.0267   20.4648 C   0  0  0  0  0  0
  -22.7277  -10.2143   20.3059 C   0  0  0  0  0  0
  -21.6859   -6.0750   22.5283 C   0  0  0  0  0  0
  -21.4015   -6.5651   23.8219 C   0  0  0  0  0  0
  -21.3653   -5.6800   24.9178 C   0  0  0  0  0  0
  -21.6039   -4.3062   24.7226 C   0  0  0  0  0  0
  -21.8818   -3.8160   23.4347 C   0  0  0  0  0  0
  -21.9196   -4.6979   22.3404 C   0  0  0  0  0  0
  -22.7751  -13.5186   21.1916 C   0  0  0  0  0  0
  -22.1664   -4.2166   21.0984 F   0  0  0  0  0  0
  -21.5623   -3.4542   25.7737 F   0  0  0  0  0  0
  -29.8573  -14.0360   20.3383 N   0  0  0  0  0  0
  -26.2808  -12.9558   20.3243 N   0  0  0  0  0  0
  -25.9347  -11.6653   20.5733 N   0  0  0  0  0  0
  -22.0415  -12.8160   22.0466 N   0  0  0  0  0  0
  -25.3984  -15.2000   20.4194 N   0  0  0  0  0  0
  -31.6096  -15.3596   20.0919 O   0  0  0  0  0  0
  -21.6647   -6.8894   21.4246 O   0  0  0  0  0  0
  -22.3433  -14.5491   20.6759 O   0  0  0  0  0  0
  -24.6688  -31.8160   23.1645 C   0  0  0  0  0  0
  -25.9338  -32.4544   23.8142 C   0  0  1  0  0  0
  -27.2204  -26.8575   20.1950 C   0  0  0  0  0  0
  -25.5981  -33.8365   24.2032 N   0  0  0  0  0  0
  -23.4878  -30.4241   21.5129 C   0  0  2  0  0  0
  -24.9447  -28.7997   20.1076 C   0  0  0  0  0  0
  -22.7700  -29.4395   22.4739 C   0  0  0  0  0  0
  -18.0331  -28.1417   22.8465 C   0  0  0  0  0  0
  -24.1486  -36.7176   23.2654 C   0  0  0  0  0  0
  -26.0602  -30.5980   21.4082 C   0  0  0  0  0  0
  -26.1262  -29.1810   20.7539 C   0  0  0  0  0  0
  -27.2527  -28.2303   20.7767 C   0  0  0  0  0  0
  -26.0154  -26.6524   19.4829 C   0  0  0  0  0  0
  -24.9191  -27.5581   19.4507 C   0  0  0  0  0  0
  -23.7332  -29.7351   20.1405 C   0  0  0  0  0  0
  -25.4127  -36.2935   24.0299 C   0  0  1  0  0  0
  -20.5961  -28.3766   23.1169 C   0  0  2  0  0  0
  -20.6798  -26.9440   22.5402 C   0  0  0  0  0  0
  -19.5771  -26.6377   21.5218 C   0  0  0  0  0  0
  -18.1954  -26.7948   22.1624 C   0  0  0  0  0  0
  -19.1595  -28.8914   23.2803 C   0  0  0  0  0  0
  -18.9505  -30.1502   23.8843 C   0  0  0  0  0  0
  -17.6499  -30.6605   24.0558 C   0  0  0  0  0  0
  -25.9104  -34.9325   23.4988 C   0  0  0  0  0  0
  -16.5389  -29.9091   23.6354 C   0  0  0  0  0  0
  -16.7312  -28.6513   23.0368 C   0  0  0  0  0  0
  -26.4570  -31.6525   25.0705 C   0  0  0  0  0  0
  -25.3684  -31.3802   26.1355 C   0  0  0  0  0  0
  -27.0488  -30.2882   24.6506 C   0  0  0  0  0  0
  -27.6044  -32.4364   25.7502 C   0  0  0  0  0  0
  -27.5552  -37.1743   24.8474 C   0  0  0  0  0  0
  -21.4362  -29.3038   22.3500 N   0  0  0  0  0  0
  -26.4261  -37.3684   23.9415 N   0  0  0  0  0  0
  -24.7602  -30.9754   22.0816 N   0  0  0  0  0  0
  -23.4213  -28.7981   23.3021 O   0  0  0  0  0  0
  -28.1944  -25.7090   20.3347 O   0  0  0  0  0  0
  -26.5727  -34.8880   22.4593 O   0  0  0  0  0  0
  -23.5738  -32.1168   23.6683 O   0  0  0  0  0  0
  -28.9571  -19.9328   22.0222 C   0  0  0  0  0  0
  -28.6146  -21.1582   22.6459 C   0  0  0  0  0  0
  -28.4394  -22.3797   21.9709 C   0  0  0  0  0  0
  -29.1682  -19.8634   20.6325 C   0  0  0  0  0  0
  -28.5776  -22.5238   20.5752 C   0  0  0  0  0  0
  -28.3819  -21.3202   24.1261 C   0  0  0  0  0  0
  -28.0488  -23.4801   22.9284 C   0  0  0  0  0  0
  -27.8606  -22.7658   24.2845 C   0  0  0  0  0  0
  -29.7552  -18.2973   20.0269 C   0  0  0  0  0  0
  -28.0866  -24.0923   19.8727 C   0  0  0  0  0  0
  -28.9497  -21.1972   19.9679 N   0  0  0  0  0  0
  -29.6276  -16.6561   20.4639 N   0  0  0  0  0  0
  -31.4506  -13.0893   19.2096 H   0  0  0  0  0  0
  -30.5205  -11.9851   20.1690 H   0  0  0  0  0  0
  -29.9413  -11.7661   17.7275 H   0  0  0  0  0  0
  -29.5576  -13.4693   17.6489 H   0  0  0  0  0  0
  -28.0662  -11.2838   19.1199 H   0  0  0  0  0  0
  -27.4280  -12.3230   17.8704 H   0  0  0  0  0  0
  -27.5118  -14.2426   19.3121 H   0  0  0  0  0  0
  -28.8233  -12.5785   21.5147 H   0  0  0  0  0  0
  -28.2516  -14.2221   21.6855 H   0  0  0  0  0  0
  -25.2787   -9.5686   22.4773 H   0  0  0  0  0  0
  -24.0021   -7.4638   22.7473 H   0  0  0  0  0  0
  -21.0865   -8.8799   19.8954 H   0  0  0  0  0  0
  -22.3736  -10.9689   19.6178 H   0  0  0  0  0  0
  -21.2006   -7.6159   23.9729 H   0  0  0  0  0  0
  -21.1469   -6.0527   25.9080 H   0  0  0  0  0  0
  -22.0599   -2.7622   23.2844 H   0  0  0  0  0  0
  -22.4052  -11.9823   22.4839 H   0  0  0  0  0  0
  -21.1032  -13.1172   22.2684 H   0  0  0  0  0  0
  -24.6224  -15.8453   20.5241 H   0  0  0  0  0  0
  -26.2343  -15.6426   20.0614 H   0  0  0  0  0  0
  -26.7409  -32.5058   23.0854 H   0  0  0  0  0  0
  -25.0082  -33.9441   25.0152 H   0  0  0  0  0  0
  -22.8053  -31.2575   21.3352 H   0  0  0  0  0  0
  -23.3762  -35.9494   23.3299 H   0  0  0  0  0  0
  -24.3556  -36.8841   22.2072 H   0  0  0  0  0  0
  -23.7233  -37.6350   23.6728 H   0  0  0  0  0  0
  -26.2506  -31.3347   20.6264 H   0  0  0  0  0  0
  -26.9160  -30.6562   22.0686 H   0  0  0  0  0  0
  -28.1374  -28.5166   21.3278 H   0  0  0  0  0  0
  -25.8714  -25.7088   18.9783 H   0  0  0  0  0  0
  -24.0243  -27.2613   18.9204 H   0  0  0  0  0  0
  -23.8927  -30.5021   19.3817 H   0  0  0  0  0  0
  -22.8422  -29.1920   19.8202 H   0  0  0  0  0  0
  -25.1326  -36.1715   25.0790 H   0  0  0  0  0  0
  -21.0055  -28.3383   24.1290 H   0  0  0  0  0  0
  -20.5671  -26.2393   23.3652 H   0  0  0  0  0  0
  -21.6659  -26.7397   22.1212 H   0  0  0  0  0  0
  -19.6930  -25.6273   21.1281 H   0  0  0  0  0  0
  -19.6706  -27.3166   20.6731 H   0  0  0  0  0  0
  -17.4218  -26.6702   21.4032 H   0  0  0  0  0  0
  -18.0343  -26.0102   22.9033 H   0  0  0  0  0  0
  -19.7985  -30.7333   24.2183 H   0  0  0  0  0  0
  -17.5053  -31.6281   24.5169 H   0  0  0  0  0  0
  -15.5386  -30.2976   23.7706 H   0  0  0  0  0  0
  -15.8714  -28.0812   22.7114 H   0  0  0  0  0  0
  -24.5875  -30.7143   25.7663 H   0  0  0  0  0  0
  -24.8872  -32.3015   26.4647 H   0  0  0  0  0  0
  -25.7907  -30.9051   27.0223 H   0  0  0  0  0  0
  -26.3180  -29.6527   24.1493 H   0  0  0  0  0  0
  -27.3965  -29.7279   25.5197 H   0  0  0  0  0  0
  -27.9142  -30.4038   23.9980 H   0  0  0  0  0  0
  -27.2597  -33.3723   26.1914 H   0  0  0  0  0  0
  -28.3934  -32.6836   25.0388 H   0  0  0  0  0  0
  -28.0632  -31.8611   26.5553 H   0  0  0  0  0  0
  -28.2558  -38.0048   24.7492 H   0  0  0  0  0  0
  -28.1051  -36.2566   24.6324 H   0  0  0  0  0  0
  -27.2272  -37.1414   25.8881 H   0  0  0  0  0  0
  -20.9631  -29.8718   21.6612 H   0  0  0  0  0  0
  -26.0099  -38.2736   24.1428 H   0  0  0  0  0  0
  -29.0907  -19.0424   22.6225 H   0  0  0  0  0  0
  -29.3223  -21.1777   24.6592 H   0  0  0  0  0  0
  -27.6654  -20.5862   24.4965 H   0  0  0  0  0  0
  -27.1347  -23.9830   22.6101 H   0  0  0  0  0  0
  -28.8470  -24.2219   22.9799 H   0  0  0  0  0  0
  -28.3460  -23.2957   25.1051 H   0  0  0  0  0  0
  -26.7956  -22.7296   24.5189 H   0  0  0  0  0  0
  -30.8318  -18.4504   19.9530 H   0  0  0  0  0  0
  -29.4244  -18.3004   18.9883 H   0  0  0  0  0  0
  -27.0233  -23.9378   19.6981 H   0  0  0  0  0  0
  -28.5205  -24.0781   18.8732 H   0  0  0  0  0  0
  -28.6798  -16.4589   20.7480 H   0  0  0  0  0  0
  1 25  1  0  0  0
  1 30  2  0  0  0
  1 82  1  0  0  0
  2  3  1  0  0  0
  2 25  1  0  0  0
  2 83  1  0  0  0
  2 84  1  0  0  0
  3  4  1  0  0  0
  3 85  1  0  0  0
  3 86  1  0  0  0
  4  5  1  0  0  0
  4 87  1  0  0  0
  4 88  1  0  0  0
  5  6  1  0  0  0
  5 26  1  0  0  0
  5 89  1  0  0  0
  6 25  1  0  0  0
  6 90  1  0  0  0
  6 91  1  0  0  0
  7  8  2  0  0  0
  7 26  1  0  0  0
  7 29  1  0  0  0
  8  9  1  0  0  0
  8 22  1  0  0  0
  9 10  1  0  0  0
  9 27  2  0  0  0
 10 11  2  0  0  0
 10 15  1  0  0  0
 11 12  1  0  0  0
 11 92  1  0  0  0
 12 13  2  0  0  0
 12 93  1  0  0  0
 13 14  1  0  0  0
 13 31  1  0  0  0
 14 15  2  0  0  0
 14 94  1  0  0  0
 15 95  1  0  0  0
 16 17  2  0  0  0
 16 21  1  0  0  0
 16 31  1  0  0  0
 17 18  1  0  0  0
 17 96  1  0  0  0
 18 19  2  0  0  0
 18 97  1  0  0  0
 19 20  1  0  0  0
 19 24  1  0  0  0
 20 21  2  0  0  0
 20 98  1  0  0  0
 21 23  1  0  0  0
 22 28  1  0  0  0
 22 32  2  0  0  0
 26 27  1  0  0  0
 28 99  1  0  0  0
 28100  1  0  0  0
 29101  1  0  0  0
 29102  1  0  0  0
 33 34  1  0  0  0
 33 66  1  0  0  0
 33 70  2  0  0  0
 34 36  1  0  0  0
 34 59  1  0  0  0
 34103  1  0  0  0
 35 44  2  0  0  0
 35 45  1  0  0  0
 35 68  1  0  0  0
 36 56  1  0  0  0
 36104  1  0  0  0
 37 39  1  0  0  0
 37 47  1  0  0  0
 37 66  1  0  0  0
 37105  1  0  0  0
 38 43  2  0  0  0
 38 46  1  0  0  0
 38 47  1  0  0  0
 39 64  1  0  0  0
 39 67  2  0  0  0
 40 52  1  0  0  0
 40 53  2  0  0  0
 40 58  1  0  0  0
 41106  1  0  0  0
 41107  1  0  0  0
 41108  1  0  0  0
 41 48  1  0  0  0
 42 43  1  0  0  0
 42 66  1  0  0  0
 42109  1  0  0  0
 42110  1  0  0  0
 43 44  1  0  0  0
 44111  1  0  0  0
 45 46  2  0  0  0
 45112  1  0  0  0
 46113  1  0  0  0
 47114  1  0  0  0
 47115  1  0  0  0
 48 56  1  0  0  0
 48 65  1  0  0  0
 48116  1  0  0  0
 49 50  1  0  0  0
 49 53  1  0  0  0
 49 64  1  0  0  0
 49117  1  0  0  0
 50 51  1  0  0  0
 50118  1  0  0  0
 50119  1  0  0  0
 51 52  1  0  0  0
 51120  1  0  0  0
 51121  1  0  0  0
 52122  1  0  0  0
 52123  1  0  0  0
 53 54  1  0  0  0
 54 55  2  0  0  0
 54124  1  0  0  0
 55 57  1  0  0  0
 55125  1  0  0  0
 56 69  2  0  0  0
 57 58  2  0  0  0
 57126  1  0  0  0
 58127  1  0  0  0
 59 60  1  0  0  0
 59 61  1  0  0  0
 59 62  1  0  0  0
 60128  1  0  0  0
 60129  1  0  0  0
 60130  1  0  0  0
 61131  1  0  0  0
 61132  1  0  0  0
 61133  1  0  0  0
 62134  1  0  0  0
 62135  1  0  0  0
 62136  1  0  0  0
 63 65  1  0  0  0
 63137  1  0  0  0
 63138  1  0  0  0
 63139  1  0  0  0
 64140  1  0  0  0
 65141  1  0  0  0
 68 80  1  0  0  0
 71 72  2  0  0  0
 71 74  1  0  0  0
 71142  1  0  0  0
 72 73  1  0  0  0
 72 76  1  0  0  0
 73 75  2  0  0  0
 73 77  1  0  0  0
 74 79  1  0  0  0
 74 81  2  0  0  0
 75 80  1  0  0  0
 75 81  1  0  0  0
 76 78  1  0  0  0
 76143  1  0  0  0
 76144  1  0  0  0
 77 78  1  0  0  0
 77145  1  0  0  0
 77146  1  0  0  0
 78147  1  0  0  0
 78148  1  0  0  0
 79 82  1  0  0  0
 79149  1  0  0  0
 79150  1  0  0  0
 80151  1  0  0  0
 80152  1  0  0  0
 82153  1  0  0  0
M  ISO  4   1 100  68 101  80 101  82 100
M  END
> <chiral flag>
0

> <version>
0

> <s_m_source_file>
/data/baiqing/PycharmProjects/Reinvent-master-3.2/result/LINK_invent/BTK/process_docking_weight1_custom_sum_contain_oxygen_bond_distance_aromatic_linkinvent_7_9_3/rearranged_h_0179.sdf

> <i_m_source_file_index>
80

> <r_mmod_Potential_Energy-OPLS-2005>
1330.99230957031

> <r_mmod_Stretch_Energy-OPLS-2005>
698.630615234375

> <r_mmod_Bend_Energy-OPLS-2005>
509.521118164062

> <r_mmod_Torsional_Energy-OPLS-2005>
232.790878295898

> <r_mmod_Improper_Torsional_Energy-OPLS-2005>
5.76216459274292

> <r_mmod_Van_der_Waal_Energy-OPLS-2005>
118.600204467773

> <r_mmod_Electrostatic_Energy-OPLS-2005>
-567.219665527344

> <r_mmod_Solvation_Energy-OPLS-2005>
-242.972427368164

> <b_mmod_Minimization_Converged-OPLS-2005>
0

> <r_mmod_RMS_Derivative-OPLS-2005>
0.914521872997284

$$$$
80
                    3D
 Structure written by MMmdl.
159168  0  0  1  0            999 V2000
  -30.6043  -14.9734   20.4137 C   0  0  0  0  0  0
  -30.4213  -12.6133   19.4973 C   0  0  0  0  0  0
  -29.5114  -12.5220   18.2544 C   0  0  0  0  0  0
  -28.0486  -12.3081   18.6808 C   0  0  0  0  0  0
  -27.6206  -13.2608   19.8286 C   0  0  2  0  0  0
  -28.6655  -13.3516   20.9600 C   0  0  0  0  0  0
  -25.2444  -13.8257   20.5737 C   0  0  0  0  0  0
  -24.1764  -13.0458   20.9226 C   0  0  0  0  0  0
  -24.6391  -11.6947   20.8756 C   0  0  0  0  0  0
  -23.9093  -10.4306   21.0401 C   0  0  0  0  0  0
  -24.3635   -9.4222   21.9178 C   0  0  0  0  0  0
  -23.6292   -8.2263   22.0759 C   0  0  0  0  0  0
  -22.4275   -8.0301   21.3552 C   0  0  0  0  0  0
  -21.9925   -9.0273   20.4647 C   0  0  0  0  0  0
  -22.7264  -10.2141   20.3058 C   0  0  0  0  0  0
  -21.6854   -6.0738   22.5270 C   0  0  0  0  0  0
  -21.4008   -6.5638   23.8203 C   0  0  0  0  0  0
  -21.3657   -5.6789   24.9163 C   0  0  0  0  0  0
  -21.6039   -4.3049   24.7214 C   0  0  0  0  0  0
  -21.8829   -3.8145   23.4335 C   0  0  0  0  0  0
  -21.9197   -4.6963   22.3386 C   0  0  0  0  0  0
  -22.7790  -13.5221   21.1867 C   0  0  0  0  0  0
  -22.1666   -4.2155   21.0959 F   0  0  0  0  0  0
  -21.5631   -3.4525   25.7724 F   0  0  0  0  0  0
  -29.9298  -13.7519   20.3328 N   0  0  0  0  0  0
  -26.2861  -12.9498   20.3262 N   0  0  0  0  0  0
  -25.9332  -11.6620   20.5766 N   0  0  0  0  0  0
  -22.0467  -12.8195   22.0425 N   0  0  0  0  0  0
  -25.4143  -15.1977   20.4173 N   0  0  0  0  0  0
  -31.8177  -14.9195   20.1878 O   0  0  0  0  0  0
  -21.6642   -6.8892   21.4241 O   0  0  0  0  0  0
  -22.3469  -14.5528   20.6728 O   0  0  0  0  0  0
  -24.6491  -31.8416   23.1878 C   0  0  0  0  0  0
  -25.9242  -32.4681   23.8275 C   0  0  1  0  0  0
  -27.2097  -27.0981   20.1395 C   0  0  0  0  0  0
  -25.5971  -33.8489   24.2179 N   0  0  0  0  0  0
  -23.4546  -30.4636   21.5352 C   0  0  2  0  0  0
  -24.9023  -28.8922   20.1097 C   0  0  0  0  0  0
  -22.7597  -29.4537   22.4847 C   0  0  0  0  0  0
  -18.0301  -28.1407   22.8485 C   0  0  0  0  0  0
  -24.1456  -36.7210   23.2651 C   0  0  0  0  0  0
  -26.0175  -30.7008   21.3970 C   0  0  0  0  0  0
  -26.0854  -29.3114   20.7315 C   0  0  0  0  0  0
  -27.2403  -28.4314   20.7316 C   0  0  0  0  0  0
  -25.9991  -26.8027   19.4685 C   0  0  0  0  0  0
  -24.8746  -27.6505   19.4654 C   0  0  0  0  0  0
  -23.6829  -29.8005   20.1547 C   0  0  0  0  0  0
  -25.4102  -36.3016   24.0317 C   0  0  1  0  0  0
  -20.5927  -28.3741   23.1214 C   0  0  2  0  0  0
  -20.6799  -26.9440   22.5397 C   0  0  0  0  0  0
  -19.5755  -26.6385   21.5221 C   0  0  0  0  0  0
  -18.1932  -26.7945   22.1623 C   0  0  0  0  0  0
  -19.1567  -28.8890   23.2831 C   0  0  0  0  0  0
  -18.9488  -30.1490   23.8849 C   0  0  0  0  0  0
  -17.6486  -30.6609   24.0557 C   0  0  0  0  0  0
  -25.9068  -34.9401   23.5050 C   0  0  0  0  0  0
  -16.5372  -29.9100   23.6354 C   0  0  0  0  0  0
  -16.7287  -28.6517   23.0378 C   0  0  0  0  0  0
  -26.4546  -31.6589   25.0744 C   0  0  0  0  0  0
  -25.3710  -31.3806   26.1432 C   0  0  0  0  0  0
  -27.0445  -30.2977   24.6401 C   0  0  0  0  0  0
  -27.6053  -32.4403   25.7508 C   0  0  0  0  0  0
  -27.5552  -37.1755   24.8474 C   0  0  0  0  0  0
  -21.4283  -29.3052   22.3579 N   0  0  0  0  0  0
  -26.4249  -37.3750   23.9440 N   0  0  0  0  0  0
  -24.7273  -31.0238   22.0936 N   0  0  0  0  0  0
  -23.4227  -28.8067   23.2994 O   0  0  0  0  0  0
  -28.2220  -26.0555   20.2158 O   0  0  0  0  0  0
  -26.5652  -34.8909   22.4625 O   0  0  0  0  0  0
  -23.5593  -32.1322   23.7054 O   0  0  0  0  0  0
  -29.7689  -20.9884   19.3637 C   0  0  0  0  0  0
  -28.4182  -20.8719   21.2525 C   0  0  0  0  0  0
  -29.2543  -20.1007   20.3736 C   0  0  0  0  0  0
  -29.4533  -22.4169   19.2484 C   0  0  0  0  0  0
  -28.5809  -23.0900   20.1867 C   0  0  0  0  0  0
  -28.8709  -17.1257   20.8439 C   0  0  0  0  0  0
  -30.5477  -17.5359   19.6707 C   0  0  0  0  0  0
  -29.6777  -18.4913   20.5832 C   0  0  0  0  0  0
  -31.5697  -22.9812   17.9026 C   0  0  0  0  0  0
  -27.8098  -24.5613   19.9572 C   0  0  0  0  0  0
  -30.0563  -23.2231   18.0847 C   0  0  1  0  0  0
  -28.0996  -22.2310   21.1581 N   0  0  0  0  0  0
  -29.9911  -16.2681   20.2856 N   0  0  0  0  0  0
  -29.3265  -22.9995   16.8210 N   0  3  0  0  0  0
  -31.4552  -12.7445   19.1754 H   0  0  0  0  0  0
  -30.4035  -11.6814   20.0652 H   0  0  0  0  0  0
  -29.8352  -11.7100   17.6021 H   0  0  0  0  0  0
  -29.5931  -13.4395   17.6712 H   0  0  0  0  0  0
  -27.9527  -11.2717   19.0093 H   0  0  0  0  0  0
  -27.3819  -12.4175   17.8233 H   0  0  0  0  0  0
  -27.5671  -14.2500   19.3729 H   0  0  0  0  0  0
  -28.7643  -12.4041   21.4919 H   0  0  0  0  0  0
  -28.3628  -14.0974   21.6958 H   0  0  0  0  0  0
  -25.2777   -9.5681   22.4750 H   0  0  0  0  0  0
  -23.9996   -7.4655   22.7479 H   0  0  0  0  0  0
  -21.0863   -8.8799   19.8940 H   0  0  0  0  0  0
  -22.3739  -10.9683   19.6161 H   0  0  0  0  0  0
  -21.2004   -7.6144   23.9710 H   0  0  0  0  0  0
  -21.1461   -6.0509   25.9068 H   0  0  0  0  0  0
  -22.0609   -2.7608   23.2828 H   0  0  0  0  0  0
  -22.4081  -11.9841   22.4781 H   0  0  0  0  0  0
  -21.1089  -13.1224   22.2666 H   0  0  0  0  0  0
  -24.6545  -15.8595   20.5363 H   0  0  0  0  0  0
  -26.2728  -15.6305   20.0995 H   0  0  0  0  0  0
  -26.7319  -32.5277   23.1013 H   0  0  0  0  0  0
  -25.0154  -33.9594   25.0352 H   0  0  0  0  0  0
  -22.7598  -31.2913   21.3813 H   0  0  0  0  0  0
  -23.3758  -35.9493   23.3271 H   0  0  0  0  0  0
  -24.3535  -36.8890   22.2074 H   0  0  0  0  0  0
  -23.7166  -37.6365   23.6728 H   0  0  0  0  0  0
  -26.1879  -31.4576   20.6304 H   0  0  0  0  0  0
  -26.8821  -30.7417   22.0480 H   0  0  0  0  0  0
  -28.1383  -28.7444   21.2467 H   0  0  0  0  0  0
  -25.8621  -25.8663   18.9523 H   0  0  0  0  0  0
  -23.9731  -27.3237   18.9645 H   0  0  0  0  0  0
  -23.8232  -30.5771   19.4025 H   0  0  0  0  0  0
  -22.7956  -29.2492   19.8401 H   0  0  0  0  0  0
  -25.1281  -36.1821   25.0805 H   0  0  0  0  0  0
  -21.0007  -28.3348   24.1340 H   0  0  0  0  0  0
  -20.5718  -26.2347   23.3623 H   0  0  0  0  0  0
  -21.6660  -26.7452   22.1177 H   0  0  0  0  0  0
  -19.6908  -25.6287   21.1276 H   0  0  0  0  0  0
  -19.6694  -27.3163   20.6730 H   0  0  0  0  0  0
  -17.4211  -26.6705   21.4015 H   0  0  0  0  0  0
  -18.0295  -26.0090   22.9016 H   0  0  0  0  0  0
  -19.7970  -30.7315   24.2193 H   0  0  0  0  0  0
  -17.5051  -31.6283   24.5168 H   0  0  0  0  0  0
  -15.5378  -30.2990   23.7726 H   0  0  0  0  0  0
  -15.8685  -28.0832   22.7127 H   0  0  0  0  0  0
  -24.5826  -30.7237   25.7740 H   0  0  0  0  0  0
  -24.8977  -32.3005   26.4872 H   0  0  0  0  0  0
  -25.7957  -30.8942   27.0222 H   0  0  0  0  0  0
  -26.3112  -29.6656   24.1383 H   0  0  0  0  0  0
  -27.4009  -29.7328   25.5031 H   0  0  0  0  0  0
  -27.9028  -30.4198   23.9786 H   0  0  0  0  0  0
  -27.2650  -33.3783   26.1914 H   0  0  0  0  0  0
  -28.3928  -32.6860   25.0364 H   0  0  0  0  0  0
  -28.0646  -31.8656   26.5564 H   0  0  0  0  0  0
  -28.2565  -38.0060   24.7574 H   0  0  0  0  0  0
  -28.1064  -36.2605   24.6254 H   0  0  0  0  0  0
  -27.2272  -37.1342   25.8873 H   0  0  0  0  0  0
  -20.9502  -29.8798   21.6783 H   0  0  0  0  0  0
  -26.0097  -38.2786   24.1536 H   0  0  0  0  0  0
  -30.4342  -20.5499   18.6341 H   0  0  0  0  0  0
  -27.9655  -20.3698   22.0955 H   0  0  0  0  0  0
  -27.9591  -17.0614   20.2509 H   0  0  0  0  0  0
  -28.6477  -16.9527   21.8977 H   0  0  0  0  0  0
  -31.6205  -17.6798   19.8105 H   0  0  0  0  0  0
  -30.3014  -17.6253   18.6118 H   0  0  0  0  0  0
  -30.2760  -18.5996   21.4900 H   0  0  0  0  0  0
  -32.1121  -23.1708   18.8293 H   0  0  0  0  0  0
  -31.9852  -23.6471   17.1459 H   0  0  0  0  0  0
  -31.8005  -21.9630   17.5880 H   0  0  0  0  0  0
  -26.8667  -24.4318   20.4893 H   0  0  0  0  0  0
  -27.5425  -24.5282   18.9014 H   0  0  0  0  0  0
  -29.9488  -24.2823   18.3209 H   0  0  0  0  0  0
  -29.4331  -22.0583   16.4886 H   0  0  0  0  0  0
  -29.6787  -23.6171   16.1102 H   0  0  0  0  0  0
  -28.3458  -23.1873   16.9197 H   0  0  0  0  0  0
  1 25  1  0  0  0
  1 30  2  0  0  0
  1 83  1  0  0  0
  2  3  1  0  0  0
  2 25  1  0  0  0
  2 85  1  0  0  0
  2 86  1  0  0  0
  3  4  1  0  0  0
  3 87  1  0  0  0
  3 88  1  0  0  0
  4  5  1  0  0  0
  4 89  1  0  0  0
  4 90  1  0  0  0
  5  6  1  0  0  0
  5 26  1  0  0  0
  5 91  1  0  0  0
  6 25  1  0  0  0
  6 92  1  0  0  0
  6 93  1  0  0  0
  7  8  2  0  0  0
  7 26  1  0  0  0
  7 29  1  0  0  0
  8  9  1  0  0  0
  8 22  1  0  0  0
  9 10  1  0  0  0
  9 27  2  0  0  0
 10 11  2  0  0  0
 10 15  1  0  0  0
 11 12  1  0  0  0
 11 94  1  0  0  0
 12 13  2  0  0  0
 12 95  1  0  0  0
 13 14  1  0  0  0
 13 31  1  0  0  0
 14 15  2  0  0  0
 14 96  1  0  0  0
 15 97  1  0  0  0
 16 17  2  0  0  0
 16 21  1  0  0  0
 16 31  1  0  0  0
 17 18  1  0  0  0
 17 98  1  0  0  0
 18 19  2  0  0  0
 18 99  1  0  0  0
 19 20  1  0  0  0
 19 24  1  0  0  0
 20 21  2  0  0  0
 20100  1  0  0  0
 21 23  1  0  0  0
 22 28  1  0  0  0
 22 32  2  0  0  0
 26 27  1  0  0  0
 28101  1  0  0  0
 28102  1  0  0  0
 29103  1  0  0  0
 29104  1  0  0  0
 33 34  1  0  0  0
 33 66  1  0  0  0
 33 70  2  0  0  0
 34 36  1  0  0  0
 34 59  1  0  0  0
 34105  1  0  0  0
 35 44  2  0  0  0
 35 45  1  0  0  0
 35 68  1  0  0  0
 36 56  1  0  0  0
 36106  1  0  0  0
 37 39  1  0  0  0
 37 47  1  0  0  0
 37 66  1  0  0  0
 37107  1  0  0  0
 38 43  2  0  0  0
 38 46  1  0  0  0
 38 47  1  0  0  0
 39 64  1  0  0  0
 39 67  2  0  0  0
 40 52  1  0  0  0
 40 53  2  0  0  0
 40 58  1  0  0  0
 41108  1  0  0  0
 41109  1  0  0  0
 41110  1  0  0  0
 41 48  1  0  0  0
 42 43  1  0  0  0
 42 66  1  0  0  0
 42111  1  0  0  0
 42112  1  0  0  0
 43 44  1  0  0  0
 44113  1  0  0  0
 45 46  2  0  0  0
 45114  1  0  0  0
 46115  1  0  0  0
 47116  1  0  0  0
 47117  1  0  0  0
 48 56  1  0  0  0
 48 65  1  0  0  0
 48118  1  0  0  0
 49 50  1  0  0  0
 49 53  1  0  0  0
 49 64  1  0  0  0
 49119  1  0  0  0
 50 51  1  0  0  0
 50120  1  0  0  0
 50121  1  0  0  0
 51 52  1  0  0  0
 51122  1  0  0  0
 51123  1  0  0  0
 52124  1  0  0  0
 52125  1  0  0  0
 53 54  1  0  0  0
 54 55  2  0  0  0
 54126  1  0  0  0
 55 57  1  0  0  0
 55127  1  0  0  0
 56 69  2  0  0  0
 57 58  2  0  0  0
 57128  1  0  0  0
 58129  1  0  0  0
 59 60  1  0  0  0
 59 61  1  0  0  0
 59 62  1  0  0  0
 60130  1  0  0  0
 60131  1  0  0  0
 60132  1  0  0  0
 61133  1  0  0  0
 61134  1  0  0  0
 61135  1  0  0  0
 62136  1  0  0  0
 62137  1  0  0  0
 62138  1  0  0  0
 63 65  1  0  0  0
 63139  1  0  0  0
 63140  1  0  0  0
 63141  1  0  0  0
 64142  1  0  0  0
 65143  1  0  0  0
 68 80  1  0  0  0
 71 73  2  0  0  0
 71 74  1  0  0  0
 71144  1  0  0  0
 72 73  1  0  0  0
 72 82  2  0  0  0
 72145  1  0  0  0
 73 78  1  0  0  0
 74 75  2  0  0  0
 74 81  1  0  0  0
 75 80  1  0  0  0
 75 82  1  0  0  0
 76 78  1  0  0  0
 76 83  1  0  0  0
 76146  1  0  0  0
 76147  1  0  0  0
 77 78  1  0  0  0
 77 83  1  0  0  0
 77148  1  0  0  0
 77149  1  0  0  0
 78150  1  0  0  0
 79151  1  0  0  0
 79152  1  0  0  0
 79153  1  0  0  0
 79 81  1  0  0  0
 80154  1  0  0  0
 80155  1  0  0  0
 81 84  1  0  0  0
 81156  1  0  0  0
 84157  1  0  0  0
 84158  1  0  0  0
 84159  1  0  0  0
M  CHG  1  84   1
M  ISO  4   1 100  68 101  80 101  83 100
M  END
> <chiral flag>
0

> <version>
0

> <s_m_source_file>
/data/baiqing/PycharmProjects/Reinvent-master-3.2/result/LINK_invent/BTK/process_docking_weight1_custom_sum_contain_oxygen_bond_distance_aromatic_linkinvent_7_9_3/rearranged_h_0179.sdf

> <i_m_source_file_index>
81

> <r_mmod_Potential_Energy-OPLS-2005>
346.887298583984

> <r_mmod_Stretch_Energy-OPLS-2005>
255.24153137207

> <r_mmod_Bend_Energy-OPLS-2005>
328.525024414062

> <r_mmod_Torsional_Energy-OPLS-2005>
263.710968017578

> <r_mmod_Improper_Torsional_Energy-OPLS-2005>
17.9906711578369

> <r_mmod_Van_der_Waal_Energy-OPLS-2005>
133.835983276367

> <r_mmod_Electrostatic_Energy-OPLS-2005>
-356.514404296875

> <r_mmod_Solvation_Energy-OPLS-2005>
-522.180114746094

> <b_mmod_Minimization_Converged-OPLS-2005>
0

> <r_mmod_RMS_Derivative-OPLS-2005>
2.20220923423767

$$$$
81
                    3D
 Structure written by MMmdl.
168178  0  0  1  0            999 V2000
  -30.5978  -14.8975   20.4306 C   0  0  0  0  0  0
  -30.4242  -12.5582   19.4944 C   0  0  0  0  0  0
  -29.5144  -12.5287   18.2481 C   0  0  0  0  0  0
  -28.0459  -12.3253   18.6626 C   0  0  0  0  0  0
  -27.6276  -13.2536   19.8349 C   0  0  2  0  0  0
  -28.6700  -13.2864   20.9719 C   0  0  0  0  0  0
  -25.2468  -13.8232   20.5712 C   0  0  0  0  0  0
  -24.1784  -13.0445   20.9210 C   0  0  0  0  0  0
  -24.6405  -11.6931   20.8743 C   0  0  0  0  0  0
  -23.9092  -10.4296   21.0391 C   0  0  0  0  0  0
  -24.3639   -9.4210   21.9170 C   0  0  0  0  0  0
  -23.6315   -8.2244   22.0741 C   0  0  0  0  0  0
  -22.4299   -8.0278   21.3531 C   0  0  0  0  0  0
  -21.9931   -9.0256   20.4634 C   0  0  0  0  0  0
  -22.7260  -10.2137   20.3044 C   0  0  0  0  0  0
  -21.6854   -6.0744   22.5286 C   0  0  0  0  0  0
  -21.4012   -6.5648   23.8219 C   0  0  0  0  0  0
  -21.3657   -5.6795   24.9179 C   0  0  0  0  0  0
  -21.6050   -4.3064   24.7227 C   0  0  0  0  0  0
  -21.8816   -3.8153   23.4345 C   0  0  0  0  0  0
  -21.9194   -4.6969   22.3406 C   0  0  0  0  0  0
  -22.7809  -13.5223   21.1879 C   0  0  0  0  0  0
  -22.1657   -4.2157   21.0979 F   0  0  0  0  0  0
  -21.5635   -3.4544   25.7735 F   0  0  0  0  0  0
  -29.9485  -13.6690   20.3661 N   0  0  0  0  0  0
  -26.2891  -12.9469   20.3243 N   0  0  0  0  0  0
  -25.9340  -11.6595   20.5724 N   0  0  0  0  0  0
  -22.0461  -12.8214   22.0431 N   0  0  0  0  0  0
  -25.4172  -15.1952   20.4152 N   0  0  0  0  0  0
  -31.8048  -14.8974   20.1629 O   0  0  0  0  0  0
  -21.6648   -6.8883   21.4243 O   0  0  0  0  0  0
  -22.3484  -14.5517   20.6712 O   0  0  0  0  0  0
  -24.6431  -31.8464   23.1920 C   0  0  0  0  0  0
  -25.9212  -32.4700   23.8300 C   0  0  1  0  0  0
  -27.2065  -27.1443   20.1414 C   0  0  0  0  0  0
  -25.5966  -33.8510   24.2210 N   0  0  0  0  0  0
  -23.4453  -30.4695   21.5384 C   0  0  2  0  0  0
  -24.8919  -28.9058   20.1091 C   0  0  0  0  0  0
  -22.7572  -29.4565   22.4875 C   0  0  0  0  0  0
  -18.0304  -28.1395   22.8479 C   0  0  0  0  0  0
  -24.1491  -36.7261   23.2636 C   0  0  0  0  0  0
  -26.0027  -30.7213   21.3925 C   0  0  0  0  0  0
  -26.0710  -29.3351   20.7319 C   0  0  0  0  0  0
  -27.2288  -28.4689   20.7368 C   0  0  0  0  0  0
  -26.0031  -26.8315   19.4627 C   0  0  0  0  0  0
  -24.8700  -27.6665   19.4608 C   0  0  0  0  0  0
  -23.6693  -29.8059   20.1559 C   0  0  0  0  0  0
  -25.4122  -36.3033   24.0313 C   0  0  1  0  0  0
  -20.5918  -28.3721   23.1241 C   0  0  2  0  0  0
  -20.6788  -26.9421   22.5412 C   0  0  0  0  0  0
  -19.5763  -26.6373   21.5221 C   0  0  0  0  0  0
  -18.1942  -26.7939   22.1619 C   0  0  0  0  0  0
  -19.1562  -28.8877   23.2852 C   0  0  0  0  0  0
  -18.9472  -30.1475   23.8868 C   0  0  0  0  0  0
  -17.6469  -30.6588   24.0561 C   0  0  0  0  0  0
  -25.9076  -34.9407   23.5062 C   0  0  0  0  0  0
  -16.5360  -29.9079   23.6341 C   0  0  0  0  0  0
  -16.7289  -28.6502   23.0354 C   0  0  0  0  0  0
  -26.4526  -31.6566   25.0744 C   0  0  0  0  0  0
  -25.3705  -31.3796   26.1444 C   0  0  0  0  0  0
  -27.0366  -30.2943   24.6344 C   0  0  0  0  0  0
  -27.6060  -32.4331   25.7525 C   0  0  0  0  0  0
  -27.5585  -37.1778   24.8450 C   0  0  0  0  0  0
  -21.4265  -29.3052   22.3619 N   0  0  0  0  0  0
  -26.4281  -37.3748   23.9413 N   0  0  0  0  0  0
  -24.7169  -31.0333   22.0955 N   0  0  0  0  0  0
  -23.4227  -28.8097   23.3008 O   0  0  0  0  0  0
  -28.2327  -26.1301   20.2288 O   0  0  0  0  0  0
  -26.5657  -34.8900   22.4640 O   0  0  0  0  0  0
  -23.5554  -32.1336   23.7148 O   0  0  0  0  0  0
  -28.4613  -22.0224   20.0603 C   0  0  0  0  0  0
  -29.4469  -21.1168   20.5460 C   0  0  0  0  0  0
  -30.3484  -22.0800   21.1333 C   0  0  0  0  0  0
  -29.9032  -23.3594   20.9981 C   0  0  0  0  0  0
  -30.7739  -24.3981   21.5739 C   0  0  0  0  0  0
  -31.8696  -23.5422   22.2668 C   0  0  0  0  0  0
  -29.2171  -18.5052   21.6395 C   0  0  0  0  0  0
  -29.4431  -18.5768   19.2667 C   0  0  0  0  0  0
  -29.8265  -17.0036   21.6804 C   0  0  0  0  0  0
  -30.1178  -17.1098   19.2910 C   0  0  0  0  0  0
  -29.7275  -19.4767   20.5119 C   0  0  0  0  0  0
  -31.6791  -22.0429   21.8406 C   0  0  0  0  0  0
  -32.7979  -21.6268   20.8676 C   0  0  0  0  0  0
  -31.6495  -21.1105   23.0642 C   0  0  0  0  0  0
  -27.8423  -24.6903   19.9335 C   0  0  0  0  0  0
  -28.7091  -23.4387   20.3195 N   0  0  0  0  0  0
  -29.8954  -16.1434   20.4391 N   0  0  0  0  0  0
  -31.4639  -12.6820   19.1875 H   0  0  0  0  0  0
  -30.3850  -11.6062   20.0260 H   0  0  0  0  0  0
  -29.8291  -11.7387   17.5647 H   0  0  0  0  0  0
  -29.6130  -13.4664   17.6992 H   0  0  0  0  0  0
  -27.9314  -11.2824   18.9585 H   0  0  0  0  0  0
  -27.3857  -12.4712   17.8059 H   0  0  0  0  0  0
  -27.5909  -14.2578   19.4108 H   0  0  0  0  0  0
  -28.7443  -12.3205   21.4723 H   0  0  0  0  0  0
  -28.3819  -14.0146   21.7307 H   0  0  0  0  0  0
  -25.2775   -9.5701   22.4757 H   0  0  0  0  0  0
  -24.0028   -7.4640   22.7466 H   0  0  0  0  0  0
  -21.0860   -8.8774   19.8950 H   0  0  0  0  0  0
  -22.3705  -10.9679   19.6163 H   0  0  0  0  0  0
  -21.1993   -7.6156   23.9728 H   0  0  0  0  0  0
  -21.1486   -6.0522   25.9083 H   0  0  0  0  0  0
  -22.0597   -2.7619   23.2839 H   0  0  0  0  0  0
  -22.4074  -11.9877   22.4833 H   0  0  0  0  0  0
  -21.1066  -13.1205   22.2610 H   0  0  0  0  0  0
  -24.6580  -15.8561   20.5343 H   0  0  0  0  0  0
  -26.2837  -15.6339   20.1293 H   0  0  0  0  0  0
  -26.7281  -32.5303   23.1036 H   0  0  0  0  0  0
  -25.0098  -33.9630   25.0346 H   0  0  0  0  0  0
  -22.7468  -31.2953   21.3877 H   0  0  0  0  0  0
  -23.3762  -35.9578   23.3244 H   0  0  0  0  0  0
  -24.3590  -36.8951   22.2062 H   0  0  0  0  0  0
  -23.7225  -37.6433   23.6711 H   0  0  0  0  0  0
  -26.1592  -31.4761   20.6207 H   0  0  0  0  0  0
  -26.8732  -30.7686   22.0349 H   0  0  0  0  0  0
  -28.1212  -28.7883   21.2567 H   0  0  0  0  0  0
  -25.8814  -25.8959   18.9401 H   0  0  0  0  0  0
  -23.9720  -27.3364   18.9570 H   0  0  0  0  0  0
  -23.8029  -30.5820   19.4012 H   0  0  0  0  0  0
  -22.7847  -29.2471   19.8465 H   0  0  0  0  0  0
  -25.1305  -36.1854   25.0803 H   0  0  0  0  0  0
  -21.0011  -28.3300   24.1363 H   0  0  0  0  0  0
  -20.5674  -26.2338   23.3634 H   0  0  0  0  0  0
  -21.6650  -26.7425   22.1203 H   0  0  0  0  0  0
  -19.6921  -25.6275   21.1266 H   0  0  0  0  0  0
  -19.6707  -27.3169   20.6740 H   0  0  0  0  0  0
  -17.4222  -26.6706   21.4008 H   0  0  0  0  0  0
  -18.0317  -26.0077   22.9008 H   0  0  0  0  0  0
  -19.7946  -30.7306   24.2215 H   0  0  0  0  0  0
  -17.5015  -31.6265   24.5165 H   0  0  0  0  0  0
  -15.5359  -30.2966   23.7680 H   0  0  0  0  0  0
  -15.8691  -28.0811   22.7081 H   0  0  0  0  0  0
  -24.5855  -30.7179   25.7774 H   0  0  0  0  0  0
  -24.8938  -32.3001   26.4828 H   0  0  0  0  0  0
  -25.7969  -30.8985   27.0254 H   0  0  0  0  0  0
  -26.2978  -29.6685   24.1325 H   0  0  0  0  0  0
  -27.3913  -29.7241   25.4943 H   0  0  0  0  0  0
  -27.8922  -30.4151   23.9697 H   0  0  0  0  0  0
  -27.2647  -33.3643   26.2063 H   0  0  0  0  0  0
  -28.3894  -32.6875   25.0372 H   0  0  0  0  0  0
  -28.0699  -31.8482   26.5481 H   0  0  0  0  0  0
  -28.2555  -38.0119   24.7534 H   0  0  0  0  0  0
  -28.1125  -36.2650   24.6212 H   0  0  0  0  0  0
  -27.2313  -37.1339   25.8852 H   0  0  0  0  0  0
  -20.9477  -29.8793   21.6817 H   0  0  0  0  0  0
  -26.0143  -38.2804   24.1448 H   0  0  0  0  0  0
  -27.5621  -21.7743   19.5121 H   0  0  0  0  0  0
  -30.2379  -25.0326   22.2809 H   0  0  0  0  0  0
  -31.1931  -25.0252   20.7862 H   0  0  0  0  0  0
  -31.7368  -23.6363   23.3459 H   0  0  0  0  0  0
  -32.8711  -23.9188   22.0551 H   0  0  0  0  0  0
  -29.4129  -18.9674   22.6076 H   0  0  0  0  0  0
  -28.1296  -18.4448   21.5772 H   0  0  0  0  0  0
  -28.3647  -18.4793   19.1273 H   0  0  0  0  0  0
  -29.8019  -19.0981   18.3788 H   0  0  0  0  0  0
  -29.2717  -16.4386   22.4318 H   0  0  0  0  0  0
  -30.8435  -17.0741   22.0725 H   0  0  0  0  0  0
  -31.1949  -17.2590   19.1990 H   0  0  0  0  0  0
  -29.8268  -16.5929   18.3754 H   0  0  0  0  0  0
  -30.8106  -19.4422   20.6047 H   0  0  0  0  0  0
  -32.8242  -22.2799   19.9948 H   0  0  0  0  0  0
  -32.6745  -20.6078   20.5055 H   0  0  0  0  0  0
  -33.7765  -21.6814   21.3454 H   0  0  0  0  0  0
  -30.8751  -21.4079   23.7723 H   0  0  0  0  0  0
  -32.6039  -21.1229   23.5917 H   0  0  0  0  0  0
  -31.4537  -20.0776   22.7817 H   0  0  0  0  0  0
  -26.8780  -24.5086   20.4100 H   0  0  0  0  0  0
  -27.6959  -24.6173   18.8547 H   0  0  0  0  0  0
  1 25  1  0  0  0
  1 30  2  0  0  0
  1 87  1  0  0  0
  2  3  1  0  0  0
  2 25  1  0  0  0
  2 88  1  0  0  0
  2 89  1  0  0  0
  3  4  1  0  0  0
  3 90  1  0  0  0
  3 91  1  0  0  0
  4  5  1  0  0  0
  4 92  1  0  0  0
  4 93  1  0  0  0
  5  6  1  0  0  0
  5 26  1  0  0  0
  5 94  1  0  0  0
  6 25  1  0  0  0
  6 95  1  0  0  0
  6 96  1  0  0  0
  7  8  2  0  0  0
  7 26  1  0  0  0
  7 29  1  0  0  0
  8  9  1  0  0  0
  8 22  1  0  0  0
  9 10  1  0  0  0
  9 27  2  0  0  0
 10 11  2  0  0  0
 10 15  1  0  0  0
 11 12  1  0  0  0
 11 97  1  0  0  0
 12 13  2  0  0  0
 12 98  1  0  0  0
 13 14  1  0  0  0
 13 31  1  0  0  0
 14 15  2  0  0  0
 14 99  1  0  0  0
 15100  1  0  0  0
 16 17  2  0  0  0
 16 21  1  0  0  0
 16 31  1  0  0  0
 17 18  1  0  0  0
 17101  1  0  0  0
 18 19  2  0  0  0
 18102  1  0  0  0
 19 20  1  0  0  0
 19 24  1  0  0  0
 20 21  2  0  0  0
 20103  1  0  0  0
 21 23  1  0  0  0
 22 28  1  0  0  0
 22 32  2  0  0  0
 26 27  1  0  0  0
 28104  1  0  0  0
 28105  1  0  0  0
 29106  1  0  0  0
 29107  1  0  0  0
 33 34  1  0  0  0
 33 66  1  0  0  0
 33 70  2  0  0  0
 34 36  1  0  0  0
 34 59  1  0  0  0
 34108  1  0  0  0
 35 44  2  0  0  0
 35 45  1  0  0  0
 35 68  1  0  0  0
 36 56  1  0  0  0
 36109  1  0  0  0
 37 39  1  0  0  0
 37 47  1  0  0  0
 37 66  1  0  0  0
 37110  1  0  0  0
 38 43  2  0  0  0
 38 46  1  0  0  0
 38 47  1  0  0  0
 39 64  1  0  0  0
 39 67  2  0  0  0
 40 52  1  0  0  0
 40 53  2  0  0  0
 40 58  1  0  0  0
 41111  1  0  0  0
 41112  1  0  0  0
 41113  1  0  0  0
 41 48  1  0  0  0
 42 43  1  0  0  0
 42 66  1  0  0  0
 42114  1  0  0  0
 42115  1  0  0  0
 43 44  1  0  0  0
 44116  1  0  0  0
 45 46  2  0  0  0
 45117  1  0  0  0
 46118  1  0  0  0
 47119  1  0  0  0
 47120  1  0  0  0
 48 56  1  0  0  0
 48 65  1  0  0  0
 48121  1  0  0  0
 49 50  1  0  0  0
 49 53  1  0  0  0
 49 64  1  0  0  0
 49122  1  0  0  0
 50 51  1  0  0  0
 50123  1  0  0  0
 50124  1  0  0  0
 51 52  1  0  0  0
 51125  1  0  0  0
 51126  1  0  0  0
 52127  1  0  0  0
 52128  1  0  0  0
 53 54  1  0  0  0
 54 55  2  0  0  0
 54129  1  0  0  0
 55 57  1  0  0  0
 55130  1  0  0  0
 56 69  2  0  0  0
 57 58  2  0  0  0
 57131  1  0  0  0
 58132  1  0  0  0
 59 60  1  0  0  0
 59 61  1  0  0  0
 59 62  1  0  0  0
 60133  1  0  0  0
 60134  1  0  0  0
 60135  1  0  0  0
 61136  1  0  0  0
 61137  1  0  0  0
 61138  1  0  0  0
 62139  1  0  0  0
 62140  1  0  0  0
 62141  1  0  0  0
 63 65  1  0  0  0
 63142  1  0  0  0
 63143  1  0  0  0
 63144  1  0  0  0
 64145  1  0  0  0
 65146  1  0  0  0
 68 85  1  0  0  0
 71 72  2  0  0  0
 71 86  1  0  0  0
 71147  1  0  0  0
 72 73  1  0  0  0
 72 81  1  0  0  0
 73 74  2  0  0  0
 73 82  1  0  0  0
 74 75  1  0  0  0
 74 86  1  0  0  0
 75 76  1  0  0  0
 75148  1  0  0  0
 75149  1  0  0  0
 76 82  1  0  0  0
 76150  1  0  0  0
 76151  1  0  0  0
 77 79  1  0  0  0
 77 81  1  0  0  0
 77152  1  0  0  0
 77153  1  0  0  0
 78 80  1  0  0  0
 78 81  1  0  0  0
 78154  1  0  0  0
 78155  1  0  0  0
 79 87  1  0  0  0
 79156  1  0  0  0
 79157  1  0  0  0
 80 87  1  0  0  0
 80158  1  0  0  0
 80159  1  0  0  0
 81160  1  0  0  0
 82 83  1  0  0  0
 82 84  1  0  0  0
 83161  1  0  0  0
 83162  1  0  0  0
 83163  1  0  0  0
 84164  1  0  0  0
 84165  1  0  0  0
 84166  1  0  0  0
 85 86  1  0  0  0
 85167  1  0  0  0
 85168  1  0  0  0
M  ISO  4   1 100  68 101  85 101  87 100
M  END
> <chiral flag>
0

> <version>
0

> <s_m_source_file>
/data/baiqing/PycharmProjects/Reinvent-master-3.2/result/LINK_invent/BTK/process_docking_weight1_custom_sum_contain_oxygen_bond_distance_aromatic_linkinvent_7_9_3/rearranged_h_0179.sdf

> <i_m_source_file_index>
82

> <r_mmod_Potential_Energy-OPLS-2005>
694.749145507812

> <r_mmod_Stretch_Energy-OPLS-2005>
215.241333007812

> <r_mmod_Bend_Energy-OPLS-2005>
358.67919921875

> <r_mmod_Torsional_Energy-OPLS-2005>
344.661804199219

> <r_mmod_Improper_Torsional_Energy-OPLS-2005>
13.4682807922363

> <r_mmod_Van_der_Waal_Energy-OPLS-2005>
112.010765075684

> <r_mmod_Electrostatic_Energy-OPLS-2005>
-331.88330078125

> <r_mmod_Solvation_Energy-OPLS-2005>
-193.791442871094

> <b_mmod_Minimization_Converged-OPLS-2005>
0

> <r_mmod_RMS_Derivative-OPLS-2005>
1.75618302822113

$$$$
82
                    3D
 Structure written by MMmdl.
154163  0  0  1  0            999 V2000
  -30.3024  -15.6675   20.3240 C   0  0  0  0  0  0
  -30.4240  -13.1079   19.5272 C   0  0  0  0  0  0
  -29.5510  -12.6579   18.3203 C   0  0  0  0  0  0
  -28.1270  -12.2996   18.7690 C   0  0  0  0  0  0
  -27.5963  -13.3107   19.8095 C   0  0  2  0  0  0
  -28.6148  -13.6625   20.9202 C   0  0  0  0  0  0
  -25.2344  -13.8285   20.5812 C   0  0  0  0  0  0
  -24.1730  -13.0434   20.9297 C   0  0  0  0  0  0
  -24.6435  -11.6950   20.8773 C   0  0  0  0  0  0
  -23.9133  -10.4297   21.0408 C   0  0  0  0  0  0
  -24.3666   -9.4205   21.9186 C   0  0  0  0  0  0
  -23.6325   -8.2250   22.0754 C   0  0  0  0  0  0
  -22.4304   -8.0299   21.3549 C   0  0  0  0  0  0
  -21.9956   -9.0273   20.4642 C   0  0  0  0  0  0
  -22.7304  -10.2142   20.3052 C   0  0  0  0  0  0
  -21.6860   -6.0757   22.5284 C   0  0  0  0  0  0
  -21.4021   -6.5653   23.8219 C   0  0  0  0  0  0
  -21.3658   -5.6801   24.9179 C   0  0  0  0  0  0
  -21.6045   -4.3064   24.7225 C   0  0  0  0  0  0
  -21.8815   -3.8161   23.4344 C   0  0  0  0  0  0
  -21.9196   -4.6981   22.3403 C   0  0  0  0  0  0
  -22.7737  -13.5165   21.1924 C   0  0  0  0  0  0
  -22.1662   -4.2170   21.0981 F   0  0  0  0  0  0
  -21.5623   -3.4544   25.7735 F   0  0  0  0  0  0
  -29.7789  -14.2969   20.2531 N   0  0  0  0  0  0
  -26.2797  -12.9624   20.3245 N   0  0  0  0  0  0
  -25.9383  -11.6690   20.5702 N   0  0  0  0  0  0
  -22.0403  -12.8136   22.0470 N   0  0  0  0  0  0
  -25.3924  -15.2033   20.4268 N   0  0  0  0  0  0
  -31.5416  -15.5922   20.2058 O   0  0  0  0  0  0
  -21.6651   -6.8905   21.4247 O   0  0  0  0  0  0
  -22.3407  -14.5464   20.6761 O   0  0  0  0  0  0
  -24.6884  -31.7962   23.1480 C   0  0  0  0  0  0
  -25.9453  -32.4457   23.8033 C   0  0  1  0  0  0
  -27.2354  -26.6670   20.2206 C   0  0  0  0  0  0
  -25.6018  -33.8277   24.1938 N   0  0  0  0  0  0
  -23.5158  -30.3961   21.5032 C   0  0  2  0  0  0
  -24.9740  -28.7260   20.1233 C   0  0  0  0  0  0
  -22.7785  -29.4305   22.4701 C   0  0  0  0  0  0
  -18.0348  -28.1435   22.8461 C   0  0  0  0  0  0
  -24.1492  -36.7140   23.2648 C   0  0  0  0  0  0
  -26.0979  -30.5187   21.4156 C   0  0  0  0  0  0
  -26.1648  -29.0774   20.7701 C   0  0  0  0  0  0
  -27.2795  -28.0789   20.7806 C   0  0  0  0  0  0
  -26.0064  -26.5323   19.5219 C   0  0  0  0  0  0
  -24.9358  -27.4794   19.4755 C   0  0  0  0  0  0
  -23.7721  -29.6866   20.1415 C   0  0  0  0  0  0
  -25.4145  -36.2889   24.0278 C   0  0  1  0  0  0
  -20.5984  -28.3801   23.1138 C   0  0  2  0  0  0
  -20.6805  -26.9454   22.5408 C   0  0  0  0  0  0
  -19.5779  -26.6386   21.5222 C   0  0  0  0  0  0
  -18.1970  -26.7961   22.1630 C   0  0  0  0  0  0
  -19.1612  -28.8944   23.2776 C   0  0  0  0  0  0
  -18.9511  -30.1526   23.8824 C   0  0  0  0  0  0
  -17.6499  -30.6615   24.0558 C   0  0  0  0  0  0
  -25.9128  -34.9283   23.4940 C   0  0  0  0  0  0
  -16.5388  -29.9094   23.6352 C   0  0  0  0  0  0
  -16.7326  -28.6515   23.0367 C   0  0  0  0  0  0
  -26.4608  -31.6492   25.0663 C   0  0  0  0  0  0
  -25.3661  -31.3842   26.1277 C   0  0  0  0  0  0
  -27.0534  -30.2822   24.6587 C   0  0  0  0  0  0
  -27.6061  -32.4338   25.7487 C   0  0  0  0  0  0
  -27.5565  -37.1730   24.8463 C   0  0  0  0  0  0
  -21.4427  -29.3037   22.3452 N   0  0  0  0  0  0
  -26.4267  -37.3658   23.9412 N   0  0  0  0  0  0
  -24.7914  -30.9373   22.0749 N   0  0  0  0  0  0
  -23.4211  -28.7915   23.3071 O   0  0  0  0  0  0
  -28.2148  -25.4458   20.2587 O   0  0  0  0  0  0
  -26.5761  -34.8866   22.4556 O   0  0  0  0  0  0
  -23.5898  -32.1045   23.6419 O   0  0  0  0  0  0
  -29.0162  -21.0671   18.9067 C   0  0  0  0  0  0
  -28.6608  -20.2518   20.9146 C   0  0  0  0  0  0
  -31.1396  -20.9217   19.7814 C   0  0  0  0  0  0
  -30.0837  -19.8885   19.2452 C   0  0  1  0  0  0
  -29.6740  -18.8432   20.4228 C   0  0  2  0  0  0
  -28.9505  -21.9164   20.2357 C   0  0  2  0  0  0
  -30.8364  -22.3444   21.8245 C   0  0  0  0  0  0
  -28.0337  -23.6712   20.3081 C   0  0  0  0  0  0
  -29.5467  -17.0457   20.3421 N   0  0  0  0  0  0
  -30.4207  -22.0902   20.4269 N   0  3  1  0  0  0
  -31.4118  -13.3795   19.1526 H   0  0  0  0  0  0
  -30.5989  -12.2745   20.2100 H   0  0  0  0  0  0
  -30.0101  -11.8095   17.8115 H   0  0  0  0  0  0
  -29.5079  -13.4668   17.5894 H   0  0  0  0  0  0
  -28.1597  -11.3047   19.2145 H   0  0  0  0  0  0
  -27.4561  -12.2346   17.9114 H   0  0  0  0  0  0
  -27.4521  -14.2259   19.2337 H   0  0  0  0  0  0
  -28.8879  -12.7895   21.5155 H   0  0  0  0  0  0
  -28.1767  -14.3821   21.6133 H   0  0  0  0  0  0
  -25.2808   -9.5679   22.4771 H   0  0  0  0  0  0
  -24.0032   -7.4639   22.7475 H   0  0  0  0  0  0
  -21.0890   -8.8806   19.8943 H   0  0  0  0  0  0
  -22.3772  -10.9688   19.6164 H   0  0  0  0  0  0
  -21.2014   -7.6163   23.9730 H   0  0  0  0  0  0
  -21.1478   -6.0530   25.9084 H   0  0  0  0  0  0
  -22.0592   -2.7625   23.2839 H   0  0  0  0  0  0
  -22.4046  -11.9811   22.4863 H   0  0  0  0  0  0
  -21.1008  -13.1121   22.2663 H   0  0  0  0  0  0
  -24.6198  -15.8505   20.5437 H   0  0  0  0  0  0
  -26.2336  -15.6490   20.0862 H   0  0  0  0  0  0
  -26.7540  -32.4928   23.0746 H   0  0  0  0  0  0
  -25.0096  -33.9297   25.0050 H   0  0  0  0  0  0
  -22.8436  -31.2346   21.3090 H   0  0  0  0  0  0
  -23.3771  -35.9450   23.3262 H   0  0  0  0  0  0
  -24.3551  -36.8840   22.2070 H   0  0  0  0  0  0
  -23.7235  -37.6303   23.6740 H   0  0  0  0  0  0
  -26.3022  -31.2392   20.6227 H   0  0  0  0  0  0
  -26.9483  -30.5897   22.0806 H   0  0  0  0  0  0
  -28.1791  -28.3609   21.3089 H   0  0  0  0  0  0
  -25.8342  -25.5938   19.0143 H   0  0  0  0  0  0
  -24.0391  -27.2012   18.9386 H   0  0  0  0  0  0
  -23.9506  -30.4426   19.3759 H   0  0  0  0  0  0
  -22.8756  -29.1544   19.8185 H   0  0  0  0  0  0
  -25.1354  -36.1638   25.0765 H   0  0  0  0  0  0
  -21.0067  -28.3431   24.1264 H   0  0  0  0  0  0
  -20.5669  -26.2428   23.3676 H   0  0  0  0  0  0
  -21.6666  -26.7388   22.1229 H   0  0  0  0  0  0
  -19.6925  -25.6278   21.1305 H   0  0  0  0  0  0
  -19.6719  -27.3149   20.6715 H   0  0  0  0  0  0
  -17.4236  -26.6704   21.4037 H   0  0  0  0  0  0
  -18.0347  -26.0123   22.9046 H   0  0  0  0  0  0
  -19.7980  -30.7366   24.2153 H   0  0  0  0  0  0
  -17.5049  -31.6284   24.5176 H   0  0  0  0  0  0
  -15.5386  -30.2977   23.7717 H   0  0  0  0  0  0
  -15.8723  -28.0817   22.7119 H   0  0  0  0  0  0
  -24.5864  -30.7166   25.7591 H   0  0  0  0  0  0
  -24.8838  -32.3086   26.4465 H   0  0  0  0  0  0
  -25.7835  -30.9165   27.0206 H   0  0  0  0  0  0
  -26.3259  -29.6442   24.1564 H   0  0  0  0  0  0
  -27.3925  -29.7262   25.5336 H   0  0  0  0  0  0
  -27.9253  -30.3926   24.0140 H   0  0  0  0  0  0
  -27.2613  -33.3719   26.1846 H   0  0  0  0  0  0
  -28.4000  -32.6766   25.0411 H   0  0  0  0  0  0
  -28.0586  -31.8603   26.5587 H   0  0  0  0  0  0
  -28.2545  -38.0061   24.7527 H   0  0  0  0  0  0
  -28.1097  -36.2584   24.6263 H   0  0  0  0  0  0
  -27.2278  -37.1342   25.8863 H   0  0  0  0  0  0
  -20.9743  -29.8678   21.6493 H   0  0  0  0  0  0
  -26.0084  -38.2700   24.1432 H   0  0  0  0  0  0
  -28.0458  -20.6765   18.5921 H   0  0  0  0  0  0
  -29.3655  -21.6814   18.0735 H   0  0  0  0  0  0
  -28.6878  -20.3142   22.0030 H   0  0  0  0  0  0
  -27.6203  -19.9888   20.7123 H   0  0  0  0  0  0
  -31.7103  -21.3199   18.9407 H   0  0  0  0  0  0
  -31.8780  -20.4659   20.4427 H   0  0  0  0  0  0
  -30.4471  -19.3671   18.3594 H   0  0  0  0  0  0
  -30.5013  -18.8699   21.1329 H   0  0  0  0  0  0
  -31.8979  -22.5904   21.8644 H   0  0  0  0  0  0
  -30.6776  -21.4732   22.4595 H   0  0  0  0  0  0
  -30.2856  -23.1816   22.2524 H   0  0  0  0  0  0
  -27.5547  -23.5950   21.2843 H   0  0  0  0  0  0
  -27.2023  -23.5241   19.6196 H   0  0  0  0  0  0
  -28.5636  -16.8124   20.3417 H   0  0  0  0  0  0
  -30.6947  -22.9110   19.9036 H   0  0  0  0  0  0
  1 25  1  0  0  0
  1 30  2  0  0  0
  1 79  1  0  0  0
  2  3  1  0  0  0
  2 25  1  0  0  0
  2 81  1  0  0  0
  2 82  1  0  0  0
  3  4  1  0  0  0
  3 83  1  0  0  0
  3 84  1  0  0  0
  4  5  1  0  0  0
  4 85  1  0  0  0
  4 86  1  0  0  0
  5  6  1  0  0  0
  5 26  1  0  0  0
  5 87  1  0  0  0
  6 25  1  0  0  0
  6 88  1  0  0  0
  6 89  1  0  0  0
  7  8  2  0  0  0
  7 26  1  0  0  0
  7 29  1  0  0  0
  8  9  1  0  0  0
  8 22  1  0  0  0
  9 10  1  0  0  0
  9 27  2  0  0  0
 10 11  2  0  0  0
 10 15  1  0  0  0
 11 12  1  0  0  0
 11 90  1  0  0  0
 12 13  2  0  0  0
 12 91  1  0  0  0
 13 14  1  0  0  0
 13 31  1  0  0  0
 14 15  2  0  0  0
 14 92  1  0  0  0
 15 93  1  0  0  0
 16 17  2  0  0  0
 16 21  1  0  0  0
 16 31  1  0  0  0
 17 18  1  0  0  0
 17 94  1  0  0  0
 18 19  2  0  0  0
 18 95  1  0  0  0
 19 20  1  0  0  0
 19 24  1  0  0  0
 20 21  2  0  0  0
 20 96  1  0  0  0
 21 23  1  0  0  0
 22 28  1  0  0  0
 22 32  2  0  0  0
 26 27  1  0  0  0
 28 97  1  0  0  0
 28 98  1  0  0  0
 29 99  1  0  0  0
 29100  1  0  0  0
 33 34  1  0  0  0
 33 66  1  0  0  0
 33 70  2  0  0  0
 34 36  1  0  0  0
 34 59  1  0  0  0
 34101  1  0  0  0
 35 44  2  0  0  0
 35 45  1  0  0  0
 35 68  1  0  0  0
 36 56  1  0  0  0
 36102  1  0  0  0
 37 39  1  0  0  0
 37 47  1  0  0  0
 37 66  1  0  0  0
 37103  1  0  0  0
 38 43  2  0  0  0
 38 46  1  0  0  0
 38 47  1  0  0  0
 39 64  1  0  0  0
 39 67  2  0  0  0
 40 52  1  0  0  0
 40 53  2  0  0  0
 40 58  1  0  0  0
 41104  1  0  0  0
 41105  1  0  0  0
 41106  1  0  0  0
 41 48  1  0  0  0
 42 43  1  0  0  0
 42 66  1  0  0  0
 42107  1  0  0  0
 42108  1  0  0  0
 43 44  1  0  0  0
 44109  1  0  0  0
 45 46  2  0  0  0
 45110  1  0  0  0
 46111  1  0  0  0
 47112  1  0  0  0
 47113  1  0  0  0
 48 56  1  0  0  0
 48 65  1  0  0  0
 48114  1  0  0  0
 49 50  1  0  0  0
 49 53  1  0  0  0
 49 64  1  0  0  0
 49115  1  0  0  0
 50 51  1  0  0  0
 50116  1  0  0  0
 50117  1  0  0  0
 51 52  1  0  0  0
 51118  1  0  0  0
 51119  1  0  0  0
 52120  1  0  0  0
 52121  1  0  0  0
 53 54  1  0  0  0
 54 55  2  0  0  0
 54122  1  0  0  0
 55 57  1  0  0  0
 55123  1  0  0  0
 56 69  2  0  0  0
 57 58  2  0  0  0
 57124  1  0  0  0
 58125  1  0  0  0
 59 60  1  0  0  0
 59 61  1  0  0  0
 59 62  1  0  0  0
 60126  1  0  0  0
 60127  1  0  0  0
 60128  1  0  0  0
 61129  1  0  0  0
 61130  1  0  0  0
 61131  1  0  0  0
 62132  1  0  0  0
 62133  1  0  0  0
 62134  1  0  0  0
 63 65  1  0  0  0
 63135  1  0  0  0
 63136  1  0  0  0
 63137  1  0  0  0
 64138  1  0  0  0
 65139  1  0  0  0
 68 78  1  0  0  0
 71 74  1  0  0  0
 71 76  1  0  0  0
 71140  1  0  0  0
 71141  1  0  0  0
 72 75  1  0  0  0
 72 76  1  0  0  0
 72142  1  0  0  0
 72143  1  0  0  0
 73 80  1  0  0  0
 73144  1  0  0  0
 73145  1  0  0  0
 73 74  1  0  0  0
 74 75  1  0  0  0
 74146  1  0  0  0
 75 79  1  0  0  0
 75147  1  0  0  0
 76 78  1  0  0  0
 76 80  1  0  0  0
 77148  1  0  0  0
 77149  1  0  0  0
 77150  1  0  0  0
 77 80  1  0  0  0
 78151  1  0  0  0
 78152  1  0  0  0
 79153  1  0  0  0
 80154  1  0  0  0
M  CHG  1  80   1
M  ISO  4   1 100  68 101  78 101  79 100
M  END
> <chiral flag>
0

> <version>
0

> <s_m_source_file>
/data/baiqing/PycharmProjects/Reinvent-master-3.2/result/LINK_invent/BTK/process_docking_weight1_custom_sum_contain_oxygen_bond_distance_aromatic_linkinvent_7_9_3/rearranged_h_0179.sdf

> <i_m_source_file_index>
83

> <r_mmod_Potential_Energy-OPLS-2005>
2701.47045898438

> <r_mmod_Stretch_Energy-OPLS-2005>
1138.76782226562

> <r_mmod_Bend_Energy-OPLS-2005>
832.302673339844

> <r_mmod_Torsional_Energy-OPLS-2005>
322.377746582031

> <r_mmod_Improper_Torsional_Energy-OPLS-2005>
3.70719456672668

> <r_mmod_Van_der_Waal_Energy-OPLS-2005>
118.49144744873

> <r_mmod_Electrostatic_Energy-OPLS-2005>
-222.144119262695

> <r_mmod_Solvation_Energy-OPLS-2005>
-447.251861572266

> <b_mmod_Minimization_Converged-OPLS-2005>
0

> <r_mmod_RMS_Derivative-OPLS-2005>
1.39447712898254

$$$$
83
                    3D
 Structure written by MMmdl.
169178  0  0  1  0            999 V2000
  -30.5403  -14.9524   20.3756 C   0  0  0  0  0  0
  -30.4306  -12.5854   19.4844 C   0  0  0  0  0  0
  -29.5100  -12.5025   18.2466 C   0  0  0  0  0  0
  -28.0466  -12.2946   18.6775 C   0  0  0  0  0  0
  -27.6215  -13.2461   19.8277 C   0  0  2  0  0  0
  -28.6662  -13.3015   20.9590 C   0  0  0  0  0  0
  -25.2454  -13.8210   20.5729 C   0  0  0  0  0  0
  -24.1759  -13.0439   20.9229 C   0  0  0  0  0  0
  -24.6378  -11.6921   20.8766 C   0  0  0  0  0  0
  -23.9072  -10.4293   21.0427 C   0  0  0  0  0  0
  -24.3624   -9.4205   21.9213 C   0  0  0  0  0  0
  -23.6286   -8.2243   22.0767 C   0  0  0  0  0  0
  -22.4264   -8.0285   21.3550 C   0  0  0  0  0  0
  -21.9900   -9.0257   20.4658 C   0  0  0  0  0  0
  -22.7238  -10.2133   20.3072 C   0  0  0  0  0  0
  -21.6860   -6.0737   22.5288 C   0  0  0  0  0  0
  -21.4007   -6.5643   23.8213 C   0  0  0  0  0  0
  -21.3651   -5.6803   24.9171 C   0  0  0  0  0  0
  -21.6027   -4.3059   24.7234 C   0  0  0  0  0  0
  -21.8824   -3.8140   23.4361 C   0  0  0  0  0  0
  -21.9190   -4.6961   22.3413 C   0  0  0  0  0  0
  -22.7780  -13.5217   21.1879 C   0  0  0  0  0  0
  -22.1656   -4.2141   21.0999 F   0  0  0  0  0  0
  -21.5629   -3.4543   25.7750 F   0  0  0  0  0  0
  -29.9297  -13.7015   20.3361 N   0  0  0  0  0  0
  -26.2855  -12.9439   20.3229 N   0  0  0  0  0  0
  -25.9311  -11.6569   20.5746 N   0  0  0  0  0  0
  -22.0462  -12.8178   22.0439 N   0  0  0  0  0  0
  -25.4175  -15.1936   20.4171 N   0  0  0  0  0  0
  -31.7633  -14.9718   20.1843 O   0  0  0  0  0  0
  -21.6633   -6.8875   21.4240 O   0  0  0  0  0  0
  -22.3470  -14.5542   20.6761 O   0  0  0  0  0  0
  -24.6445  -31.8417   23.1848 C   0  0  0  0  0  0
  -25.9223  -32.4675   23.8248 C   0  0  1  0  0  0
  -27.2060  -27.1328   20.1474 C   0  0  0  0  0  0
  -25.5977  -33.8487   24.2164 N   0  0  0  0  0  0
  -23.4453  -30.4619   21.5307 C   0  0  2  0  0  0
  -24.8902  -28.8811   20.1142 C   0  0  0  0  0  0
  -22.7559  -29.4541   22.4837 C   0  0  0  0  0  0
  -18.0297  -28.1364   22.8475 C   0  0  0  0  0  0
  -24.1503  -36.7244   23.2654 C   0  0  0  0  0  0
  -26.0023  -30.7166   21.3803 C   0  0  0  0  0  0
  -26.0720  -29.3259   20.7237 C   0  0  0  0  0  0
  -27.2362  -28.4723   20.7106 C   0  0  0  0  0  0
  -25.9973  -26.7776   19.5181 C   0  0  0  0  0  0
  -24.8667  -27.6208   19.4947 C   0  0  0  0  0  0
  -23.6720  -29.7895   20.1512 C   0  0  0  0  0  0
  -25.4121  -36.2994   24.0317 C   0  0  1  0  0  0
  -20.5918  -28.3696   23.1230 C   0  0  2  0  0  0
  -20.6786  -26.9399   22.5385 C   0  0  0  0  0  0
  -19.5764  -26.6345   21.5194 C   0  0  0  0  0  0
  -18.1933  -26.7918   22.1593 C   0  0  0  0  0  0
  -19.1554  -28.8843   23.2852 C   0  0  0  0  0  0
  -18.9487  -30.1445   23.8865 C   0  0  0  0  0  0
  -17.6481  -30.6582   24.0559 C   0  0  0  0  0  0
  -25.9081  -34.9387   23.5021 C   0  0  0  0  0  0
  -16.5365  -29.9066   23.6338 C   0  0  0  0  0  0
  -16.7279  -28.6484   23.0350 C   0  0  0  0  0  0
  -26.4537  -31.6553   25.0702 C   0  0  0  0  0  0
  -25.3727  -31.3728   26.1395 C   0  0  0  0  0  0
  -27.0435  -30.2960   24.6302 C   0  0  0  0  0  0
  -27.6088  -32.4323   25.7469 C   0  0  0  0  0  0
  -27.5558  -37.1764   24.8464 C   0  0  0  0  0  0
  -21.4253  -29.3052   22.3617 N   0  0  0  0  0  0
  -26.4262  -37.3717   23.9421 N   0  0  0  0  0  0
  -24.7176  -31.0289   22.0870 N   0  0  0  0  0  0
  -23.4223  -28.8065   23.2961 O   0  0  0  0  0  0
  -28.2744  -26.1740   20.1222 O   0  0  0  0  0  0
  -26.5659  -34.8896   22.4600 O   0  0  0  0  0  0
  -23.5570  -32.1267   23.7073 O   0  0  0  0  0  0
  -27.3850  -23.4831   19.7966 C   0  0  0  0  0  0
  -29.3220  -23.6135   20.3450 C   0  0  0  0  0  0
  -29.9043  -17.2940   21.3094 C   0  0  0  0  0  0
  -29.8815  -16.9587   19.0046 C   0  0  0  0  0  0
  -28.3673  -22.3260   20.3526 C   0  0  2  0  0  0
  -28.1325  -24.6745   20.5303 C   0  0  1  0  0  0
  -29.0870  -18.7066   21.1574 C   0  0  2  0  0  0
  -29.1070  -18.3707   18.7851 C   0  0  2  0  0  0
  -27.5961  -18.5230   21.5112 C   0  0  0  0  0  0
  -30.7314  -19.4322   17.0528 C   0  0  0  0  0  0
  -28.9186  -17.8578   16.2427 C   0  0  0  0  0  0
  -28.5055  -20.8544   19.5356 C   0  0  0  0  0  0
  -29.3157  -18.8876   17.3210 C   0  0  0  0  0  0
  -29.7955  -16.1781   20.2883 N   0  0  0  0  0  0
  -29.2649  -19.4689   19.8522 N   0  3  1  0  0  0
  -31.4634  -12.7359   19.1655 H   0  0  0  0  0  0
  -30.4251  -11.6458   20.0385 H   0  0  0  0  0  0
  -29.8274  -11.6872   17.5957 H   0  0  0  0  0  0
  -29.5929  -13.4178   17.6592 H   0  0  0  0  0  0
  -27.9485  -11.2591   19.0055 H   0  0  0  0  0  0
  -27.3756  -12.4070   17.8255 H   0  0  0  0  0  0
  -27.5782  -14.2409   19.3840 H   0  0  0  0  0  0
  -28.7624  -12.3372   21.4601 H   0  0  0  0  0  0
  -28.3710  -14.0255   21.7201 H   0  0  0  0  0  0
  -25.2777   -9.5658   22.4783 H   0  0  0  0  0  0
  -23.9995   -7.4628   22.7472 H   0  0  0  0  0  0
  -21.0840   -8.8769   19.8959 H   0  0  0  0  0  0
  -22.3710  -10.9675   19.6175 H   0  0  0  0  0  0
  -21.1992   -7.6159   23.9707 H   0  0  0  0  0  0
  -21.1463   -6.0539   25.9078 H   0  0  0  0  0  0
  -22.0608   -2.7601   23.2867 H   0  0  0  0  0  0
  -22.4091  -11.9803   22.4768 H   0  0  0  0  0  0
  -21.1089  -13.1190   22.2696 H   0  0  0  0  0  0
  -24.6556  -15.8524   20.5337 H   0  0  0  0  0  0
  -26.2787  -15.6287   20.1160 H   0  0  0  0  0  0
  -26.7282  -32.5244   23.0967 H   0  0  0  0  0  0
  -25.0178  -33.9633   25.0356 H   0  0  0  0  0  0
  -22.7497  -31.2884   21.3728 H   0  0  0  0  0  0
  -23.3774  -35.9575   23.3269 H   0  0  0  0  0  0
  -24.3589  -36.8898   22.2070 H   0  0  0  0  0  0
  -23.7252  -37.6427   23.6717 H   0  0  0  0  0  0
  -26.1583  -31.4709   20.6074 H   0  0  0  0  0  0
  -26.8760  -30.7666   22.0172 H   0  0  0  0  0  0
  -28.1464  -28.8181   21.1786 H   0  0  0  0  0  0
  -25.9202  -25.8109   19.0422 H   0  0  0  0  0  0
  -23.9655  -27.2755   19.0041 H   0  0  0  0  0  0
  -23.8103  -30.5659   19.3970 H   0  0  0  0  0  0
  -22.7876  -29.2359   19.8327 H   0  0  0  0  0  0
  -25.1305  -36.1787   25.0813 H   0  0  0  0  0  0
  -21.0006  -28.3248   24.1346 H   0  0  0  0  0  0
  -20.5653  -26.2313   23.3604 H   0  0  0  0  0  0
  -21.6645  -26.7369   22.1189 H   0  0  0  0  0  0
  -19.6953  -25.6248   21.1237 H   0  0  0  0  0  0
  -19.6717  -27.3155   20.6730 H   0  0  0  0  0  0
  -17.4208  -26.6680   21.3987 H   0  0  0  0  0  0
  -18.0329  -26.0036   22.8959 H   0  0  0  0  0  0
  -19.7956  -30.7262   24.2241 H   0  0  0  0  0  0
  -17.5029  -31.6261   24.5133 H   0  0  0  0  0  0
  -15.5372  -30.2963   23.7686 H   0  0  0  0  0  0
  -15.8671  -28.0792   22.7097 H   0  0  0  0  0  0
  -24.5955  -30.7019   25.7686 H   0  0  0  0  0  0
  -24.8894  -32.2921   26.4734 H   0  0  0  0  0  0
  -25.8019  -30.8940   27.0217 H   0  0  0  0  0  0
  -26.3059  -29.6639   24.1349 H   0  0  0  0  0  0
  -27.4097  -29.7270   25.4869 H   0  0  0  0  0  0
  -27.8927  -30.4186   23.9577 H   0  0  0  0  0  0
  -27.2707  -33.3678   26.1927 H   0  0  0  0  0  0
  -28.3953  -32.6778   25.0320 H   0  0  0  0  0  0
  -28.0715  -31.8531   26.5461 H   0  0  0  0  0  0
  -28.2518  -38.0114   24.7497 H   0  0  0  0  0  0
  -28.1079  -36.2622   24.6245 H   0  0  0  0  0  0
  -27.2286  -37.1325   25.8873 H   0  0  0  0  0  0
  -20.9445  -29.8809   21.6837 H   0  0  0  0  0  0
  -26.0099  -38.2761   24.1469 H   0  0  0  0  0  0
  -26.3446  -23.3605   20.0983 H   0  0  0  0  0  0
  -27.4322  -23.5762   18.7087 H   0  0  0  0  0  0
  -29.8437  -23.7323   19.3926 H   0  0  0  0  0  0
  -30.0446  -23.6172   21.1614 H   0  0  0  0  0  0
  -29.6573  -16.8579   22.2789 H   0  0  0  0  0  0
  -30.9659  -17.5370   21.3827 H   0  0  0  0  0  0
  -30.9393  -17.1091   18.7792 H   0  0  0  0  0  0
  -29.5283  -16.2605   18.2461 H   0  0  0  0  0  0
  -28.0815  -22.1308   21.3880 H   0  0  0  0  0  0
  -27.8140  -24.6746   21.5755 H   0  0  0  0  0  0
  -29.4963  -19.3715   21.9208 H   0  0  0  0  0  0
  -28.0498  -18.1095   18.8179 H   0  0  0  0  0  0
  -27.0780  -17.8753   20.8058 H   0  0  0  0  0  0
  -27.0709  -19.4785   21.5296 H   0  0  0  0  0  0
  -27.4816  -18.0768   22.4995 H   0  0  0  0  0  0
  -31.0037  -20.2241   17.7493 H   0  0  0  0  0  0
  -30.8006  -19.8598   16.0519 H   0  0  0  0  0  0
  -31.4893  -18.6531   17.1229 H   0  0  0  0  0  0
  -27.9310  -17.4358   16.4392 H   0  0  0  0  0  0
  -29.6304  -17.0358   16.1657 H   0  0  0  0  0  0
  -28.8721  -18.3209   15.2552 H   0  0  0  0  0  0
  -28.8979  -21.1700   18.5722 H   0  0  0  0  0  0
  -27.4845  -20.5387   19.3134 H   0  0  0  0  0  0
  -28.6109  -19.6972   17.1411 H   0  0  0  0  0  0
  -30.2429  -19.7184   19.8371 H   0  0  0  0  0  0
  1 25  1  0  0  0
  1 30  2  0  0  0
  1 84  1  0  0  0
  2  3  1  0  0  0
  2 25  1  0  0  0
  2 86  1  0  0  0
  2 87  1  0  0  0
  3  4  1  0  0  0
  3 88  1  0  0  0
  3 89  1  0  0  0
  4  5  1  0  0  0
  4 90  1  0  0  0
  4 91  1  0  0  0
  5  6  1  0  0  0
  5 26  1  0  0  0
  5 92  1  0  0  0
  6 25  1  0  0  0
  6 93  1  0  0  0
  6 94  1  0  0  0
  7  8  2  0  0  0
  7 26  1  0  0  0
  7 29  1  0  0  0
  8  9  1  0  0  0
  8 22  1  0  0  0
  9 10  1  0  0  0
  9 27  2  0  0  0
 10 11  2  0  0  0
 10 15  1  0  0  0
 11 12  1  0  0  0
 11 95  1  0  0  0
 12 13  2  0  0  0
 12 96  1  0  0  0
 13 14  1  0  0  0
 13 31  1  0  0  0
 14 15  2  0  0  0
 14 97  1  0  0  0
 15 98  1  0  0  0
 16 17  2  0  0  0
 16 21  1  0  0  0
 16 31  1  0  0  0
 17 18  1  0  0  0
 17 99  1  0  0  0
 18 19  2  0  0  0
 18100  1  0  0  0
 19 20  1  0  0  0
 19 24  1  0  0  0
 20 21  2  0  0  0
 20101  1  0  0  0
 21 23  1  0  0  0
 22 28  1  0  0  0
 22 32  2  0  0  0
 26 27  1  0  0  0
 28102  1  0  0  0
 28103  1  0  0  0
 29104  1  0  0  0
 29105  1  0  0  0
 33 34  1  0  0  0
 33 66  1  0  0  0
 33 70  2  0  0  0
 34 36  1  0  0  0
 34 59  1  0  0  0
 34106  1  0  0  0
 35 44  2  0  0  0
 35 45  1  0  0  0
 35 68  1  0  0  0
 36 56  1  0  0  0
 36107  1  0  0  0
 37 39  1  0  0  0
 37 47  1  0  0  0
 37 66  1  0  0  0
 37108  1  0  0  0
 38 43  2  0  0  0
 38 46  1  0  0  0
 38 47  1  0  0  0
 39 64  1  0  0  0
 39 67  2  0  0  0
 40 52  1  0  0  0
 40 53  2  0  0  0
 40 58  1  0  0  0
 41109  1  0  0  0
 41110  1  0  0  0
 41111  1  0  0  0
 41 48  1  0  0  0
 42 43  1  0  0  0
 42 66  1  0  0  0
 42112  1  0  0  0
 42113  1  0  0  0
 43 44  1  0  0  0
 44114  1  0  0  0
 45 46  2  0  0  0
 45115  1  0  0  0
 46116  1  0  0  0
 47117  1  0  0  0
 47118  1  0  0  0
 48 56  1  0  0  0
 48 65  1  0  0  0
 48119  1  0  0  0
 49 50  1  0  0  0
 49 53  1  0  0  0
 49 64  1  0  0  0
 49120  1  0  0  0
 50 51  1  0  0  0
 50121  1  0  0  0
 50122  1  0  0  0
 51 52  1  0  0  0
 51123  1  0  0  0
 51124  1  0  0  0
 52125  1  0  0  0
 52126  1  0  0  0
 53 54  1  0  0  0
 54 55  2  0  0  0
 54127  1  0  0  0
 55 57  1  0  0  0
 55128  1  0  0  0
 56 69  2  0  0  0
 57 58  2  0  0  0
 57129  1  0  0  0
 58130  1  0  0  0
 59 60  1  0  0  0
 59 61  1  0  0  0
 59 62  1  0  0  0
 60131  1  0  0  0
 60132  1  0  0  0
 60133  1  0  0  0
 61134  1  0  0  0
 61135  1  0  0  0
 61136  1  0  0  0
 62137  1  0  0  0
 62138  1  0  0  0
 62139  1  0  0  0
 63 65  1  0  0  0
 63140  1  0  0  0
 63141  1  0  0  0
 63142  1  0  0  0
 64143  1  0  0  0
 65144  1  0  0  0
 68 76  1  0  0  0
 71 75  1  0  0  0
 71 76  1  0  0  0
 71145  1  0  0  0
 71146  1  0  0  0
 72 75  1  0  0  0
 72 76  1  0  0  0
 72147  1  0  0  0
 72148  1  0  0  0
 73 77  1  0  0  0
 73 84  1  0  0  0
 73149  1  0  0  0
 73150  1  0  0  0
 74 84  1  0  0  0
 74151  1  0  0  0
 74152  1  0  0  0
 74 78  1  0  0  0
 75 82  1  0  0  0
 75153  1  0  0  0
 76154  1  0  0  0
 77 79  1  0  0  0
 77 85  1  0  0  0
 77155  1  0  0  0
 78 83  1  0  0  0
 78 85  1  0  0  0
 78156  1  0  0  0
 79157  1  0  0  0
 79158  1  0  0  0
 79159  1  0  0  0
 80160  1  0  0  0
 80161  1  0  0  0
 80162  1  0  0  0
 80 83  1  0  0  0
 81 83  1  0  0  0
 81163  1  0  0  0
 81164  1  0  0  0
 81165  1  0  0  0
 82166  1  0  0  0
 82167  1  0  0  0
 82 85  1  0  0  0
 83168  1  0  0  0
 85169  1  0  0  0
M  CHG  1  85   1
M  ISO  4   1 100  68 101  76 101  84 100
M  END
> <chiral flag>
0

> <version>
0

> <s_m_source_file>
/data/baiqing/PycharmProjects/Reinvent-master-3.2/result/LINK_invent/BTK/process_docking_weight1_custom_sum_contain_oxygen_bond_distance_aromatic_linkinvent_7_9_3/rearranged_h_0179.sdf

> <i_m_source_file_index>
84

> <r_mmod_Potential_Energy-OPLS-2005>
748.57861328125

> <r_mmod_Stretch_Energy-OPLS-2005>
245.072570800781

> <r_mmod_Bend_Energy-OPLS-2005>
371.044586181641

> <r_mmod_Torsional_Energy-OPLS-2005>
440.874267578125

> <r_mmod_Improper_Torsional_Energy-OPLS-2005>
13.739595413208

> <r_mmod_Van_der_Waal_Energy-OPLS-2005>
115.435272216797

> <r_mmod_Electrostatic_Energy-OPLS-2005>
-211.625839233398

> <r_mmod_Solvation_Energy-OPLS-2005>
-419.632446289062

> <b_mmod_Minimization_Converged-OPLS-2005>
0

> <r_mmod_RMS_Derivative-OPLS-2005>
3.74999618530273

$$$$
84
                    3D
 Structure written by MMmdl.
155164  0  0  1  0            999 V2000
  -30.5724  -14.8892   20.4258 C   0  0  0  0  0  0
  -30.4310  -12.5488   19.4942 C   0  0  0  0  0  0
  -29.5151  -12.5130   18.2508 C   0  0  0  0  0  0
  -28.0467  -12.3111   18.6690 C   0  0  0  0  0  0
  -27.6285  -13.2429   19.8377 C   0  0  2  0  0  0
  -28.6697  -13.2605   20.9762 C   0  0  0  0  0  0
  -25.2447  -13.8168   20.5677 C   0  0  0  0  0  0
  -24.1770  -13.0414   20.9239 C   0  0  0  0  0  0
  -24.6383  -11.6904   20.8770 C   0  0  0  0  0  0
  -23.9065  -10.4282   21.0419 C   0  0  0  0  0  0
  -24.3618   -9.4198   21.9191 C   0  0  0  0  0  0
  -23.6300   -8.2231   22.0757 C   0  0  0  0  0  0
  -22.4281   -8.0273   21.3549 C   0  0  0  0  0  0
  -21.9914   -9.0243   20.4648 C   0  0  0  0  0  0
  -22.7240  -10.2122   20.3063 C   0  0  0  0  0  0
  -21.6852   -6.0738   22.5286 C   0  0  0  0  0  0
  -21.4008   -6.5643   23.8220 C   0  0  0  0  0  0
  -21.3656   -5.6798   24.9180 C   0  0  0  0  0  0
  -21.6041   -4.3059   24.7230 C   0  0  0  0  0  0
  -21.8820   -3.8152   23.4355 C   0  0  0  0  0  0
  -21.9189   -4.6969   22.3409 C   0  0  0  0  0  0
  -22.7797  -13.5198   21.1888 C   0  0  0  0  0  0
  -22.1663   -4.2153   21.0989 F   0  0  0  0  0  0
  -21.5624   -3.4542   25.7744 F   0  0  0  0  0  0
  -29.9502  -13.6486   20.3761 N   0  0  0  0  0  0
  -26.2876  -12.9408   20.3240 N   0  0  0  0  0  0
  -25.9314  -11.6544   20.5751 N   0  0  0  0  0  0
  -22.0445  -12.8191   22.0446 N   0  0  0  0  0  0
  -25.4087  -15.1868   20.4008 N   0  0  0  0  0  0
  -31.7774  -14.9319   20.1601 O   0  0  0  0  0  0
  -21.6641   -6.8875   21.4248 O   0  0  0  0  0  0
  -22.3491  -14.5506   20.6730 O   0  0  0  0  0  0
  -24.6385  -31.8460   23.1889 C   0  0  0  0  0  0
  -25.9175  -32.4704   23.8266 C   0  0  1  0  0  0
  -27.2214  -27.1764   20.1542 C   0  0  0  0  0  0
  -25.5939  -33.8510   24.2184 N   0  0  0  0  0  0
  -23.4401  -30.4644   21.5335 C   0  0  2  0  0  0
  -24.8894  -28.8897   20.1156 C   0  0  0  0  0  0
  -22.7536  -29.4558   22.4874 C   0  0  0  0  0  0
  -18.0300  -28.1391   22.8479 C   0  0  0  0  0  0
  -24.1497  -36.7260   23.2640 C   0  0  0  0  0  0
  -25.9917  -30.7349   21.3784 C   0  0  0  0  0  0
  -26.0653  -29.3472   20.7248 C   0  0  0  0  0  0
  -27.2358  -28.5077   20.7217 C   0  0  0  0  0  0
  -26.0207  -26.8005   19.5189 C   0  0  0  0  0  0
  -24.8766  -27.6277   19.4989 C   0  0  0  0  0  0
  -23.6643  -29.7879   20.1547 C   0  0  0  0  0  0
  -25.4127  -36.3035   24.0313 C   0  0  1  0  0  0
  -20.5909  -28.3709   23.1247 C   0  0  2  0  0  0
  -20.6787  -26.9418   22.5404 C   0  0  0  0  0  0
  -19.5765  -26.6377   21.5210 C   0  0  0  0  0  0
  -18.1945  -26.7930   22.1621 C   0  0  0  0  0  0
  -19.1555  -28.8868   23.2858 C   0  0  0  0  0  0
  -18.9475  -30.1469   23.8876 C   0  0  0  0  0  0
  -17.6473  -30.6590   24.0567 C   0  0  0  0  0  0
  -25.9070  -34.9412   23.5055 C   0  0  0  0  0  0
  -16.5365  -29.9086   23.6342 C   0  0  0  0  0  0
  -16.7285  -28.6504   23.0356 C   0  0  0  0  0  0
  -26.4522  -31.6559   25.0687 C   0  0  0  0  0  0
  -25.3714  -31.3740   26.1383 C   0  0  0  0  0  0
  -27.0382  -30.2958   24.6239 C   0  0  0  0  0  0
  -27.6051  -32.4323   25.7472 C   0  0  0  0  0  0
  -27.5583  -37.1781   24.8463 C   0  0  0  0  0  0
  -21.4234  -29.3039   22.3621 N   0  0  0  0  0  0
  -26.4290  -37.3747   23.9410 N   0  0  0  0  0  0
  -24.7096  -31.0356   22.0894 N   0  0  0  0  0  0
  -23.4196  -28.8110   23.3014 O   0  0  0  0  0  0
  -28.3073  -26.2457   20.1577 O   0  0  0  0  0  0
  -26.5660  -34.8908   22.4637 O   0  0  0  0  0  0
  -23.5519  -32.1308   23.7143 O   0  0  0  0  0  0
  -30.6114  -20.1951   20.6523 C   0  0  0  0  0  0
  -29.7468  -19.0788   20.4354 C   0  0  0  0  0  0
  -28.4353  -19.5788   20.1385 C   0  0  0  0  0  0
  -29.0421  -21.9191   20.2078 C   0  0  0  0  0  0
  -25.9259  -19.0691   19.4145 C   0  0  0  0  0  0
  -26.0889  -18.7112   20.8775 C   0  0  0  0  0  0
  -27.2763  -18.6403   19.9468 C   0  0  0  0  0  0
  -30.4044  -17.5576   20.4757 C   0  0  0  0  0  0
  -28.8090  -23.4741   19.7211 C   0  0  0  0  0  0
  -28.1395  -24.7558   20.5401 C   0  0  0  0  0  0
  -30.2803  -21.5294   20.5492 N   0  0  0  0  0  0
  -28.1277  -20.9383   20.0162 N   0  0  0  0  0  0
  -29.8382  -16.0968   20.5583 N   0  0  0  0  0  0
  -31.4683  -12.6897   19.1854 H   0  0  0  0  0  0
  -30.4057  -11.5934   20.0215 H   0  0  0  0  0  0
  -29.8265  -11.7151   17.5752 H   0  0  0  0  0  0
  -29.6143  -13.4448   17.6917 H   0  0  0  0  0  0
  -27.9368  -11.2696   18.9745 H   0  0  0  0  0  0
  -27.3836  -12.4480   17.8141 H   0  0  0  0  0  0
  -27.5963  -14.2478   19.4153 H   0  0  0  0  0  0
  -28.7426  -12.2852   21.4600 H   0  0  0  0  0  0
  -28.3790  -13.9716   21.7514 H   0  0  0  0  0  0
  -25.2759   -9.5678   22.4768 H   0  0  0  0  0  0
  -24.0014   -7.4615   22.7469 H   0  0  0  0  0  0
  -21.0850   -8.8751   19.8949 H   0  0  0  0  0  0
  -22.3695  -10.9660   19.6177 H   0  0  0  0  0  0
  -21.2003   -7.6150   23.9724 H   0  0  0  0  0  0
  -21.1478   -6.0528   25.9082 H   0  0  0  0  0  0
  -22.0601   -2.7615   23.2852 H   0  0  0  0  0  0
  -22.4070  -11.9857   22.4835 H   0  0  0  0  0  0
  -21.1056  -13.1198   22.2636 H   0  0  0  0  0  0
  -24.6265  -15.8257   20.4862 H   0  0  0  0  0  0
  -26.2344  -15.6154   20.0079 H   0  0  0  0  0  0
  -26.7237  -32.5326   23.0997 H   0  0  0  0  0  0
  -25.0068  -33.9637   25.0318 H   0  0  0  0  0  0
  -22.7402  -31.2878   21.3779 H   0  0  0  0  0  0
  -23.3762  -35.9590   23.3282 H   0  0  0  0  0  0
  -24.3586  -36.8911   22.2059 H   0  0  0  0  0  0
  -23.7249  -37.6448   23.6692 H   0  0  0  0  0  0
  -26.1386  -31.4905   20.6054 H   0  0  0  0  0  0
  -26.8653  -30.7873   22.0167 H   0  0  0  0  0  0
  -28.1389  -28.8594   21.2007 H   0  0  0  0  0  0
  -25.9572  -25.8335   19.0403 H   0  0  0  0  0  0
  -23.9781  -27.2698   19.0157 H   0  0  0  0  0  0
  -23.7954  -30.5584   19.3940 H   0  0  0  0  0  0
  -22.7812  -29.2238   19.8495 H   0  0  0  0  0  0
  -25.1320  -36.1860   25.0805 H   0  0  0  0  0  0
  -21.0009  -28.3298   24.1365 H   0  0  0  0  0  0
  -20.5688  -26.2321   23.3616 H   0  0  0  0  0  0
  -21.6656  -26.7435   22.1200 H   0  0  0  0  0  0
  -19.6933  -25.6283   21.1249 H   0  0  0  0  0  0
  -19.6713  -27.3183   20.6738 H   0  0  0  0  0  0
  -17.4220  -26.6678   21.4020 H   0  0  0  0  0  0
  -18.0346  -26.0074   22.9018 H   0  0  0  0  0  0
  -19.7952  -30.7295   24.2221 H   0  0  0  0  0  0
  -17.5030  -31.6269   24.5171 H   0  0  0  0  0  0
  -15.5364  -30.2988   23.7670 H   0  0  0  0  0  0
  -15.8682  -28.0823   22.7075 H   0  0  0  0  0  0
  -24.5903  -30.7085   25.7696 H   0  0  0  0  0  0
  -24.8899  -32.2922   26.4751 H   0  0  0  0  0  0
  -25.7996  -30.8943   27.0192 H   0  0  0  0  0  0
  -26.2983  -29.6676   24.1262 H   0  0  0  0  0  0
  -27.4026  -29.7263   25.4798 H   0  0  0  0  0  0
  -27.8881  -30.4196   23.9523 H   0  0  0  0  0  0
  -27.2637  -33.3641   26.1997 H   0  0  0  0  0  0
  -28.3890  -32.6850   25.0320 H   0  0  0  0  0  0
  -28.0690  -31.8481   26.5430 H   0  0  0  0  0  0
  -28.2573  -38.0104   24.7526 H   0  0  0  0  0  0
  -28.1102  -36.2626   24.6264 H   0  0  0  0  0  0
  -27.2300  -37.1401   25.8865 H   0  0  0  0  0  0
  -20.9426  -29.8742   21.6805 H   0  0  0  0  0  0
  -26.0151  -38.2809   24.1425 H   0  0  0  0  0  0
  -31.6493  -20.0111   20.8886 H   0  0  0  0  0  0
  -25.7675  -20.1173   19.1695 H   0  0  0  0  0  0
  -25.3816  -18.3607   18.7935 H   0  0  0  0  0  0
  -25.6469  -17.7790   21.2177 H   0  0  0  0  0  0
  -26.0576  -19.5284   21.5956 H   0  0  0  0  0  0
  -27.6233  -17.6552   19.6435 H   0  0  0  0  0  0
  -31.1097  -17.6013   21.3075 H   0  0  0  0  0  0
  -31.0464  -17.5397   19.5931 H   0  0  0  0  0  0
  -28.2740  -23.4020   18.7742 H   0  0  0  0  0  0
  -29.8030  -23.8141   19.4315 H   0  0  0  0  0  0
  -28.5570  -24.7027   21.5454 H   0  0  0  0  0  0
  -27.0803  -24.5418   20.6819 H   0  0  0  0  0  0
  -28.8513  -15.9885   20.7383 H   0  0  0  0  0  0
  1 25  1  0  0  0
  1 30  2  0  0  0
  1 83  1  0  0  0
  2  3  1  0  0  0
  2 25  1  0  0  0
  2 84  1  0  0  0
  2 85  1  0  0  0
  3  4  1  0  0  0
  3 86  1  0  0  0
  3 87  1  0  0  0
  4  5  1  0  0  0
  4 88  1  0  0  0
  4 89  1  0  0  0
  5  6  1  0  0  0
  5 26  1  0  0  0
  5 90  1  0  0  0
  6 25  1  0  0  0
  6 91  1  0  0  0
  6 92  1  0  0  0
  7  8  2  0  0  0
  7 26  1  0  0  0
  7 29  1  0  0  0
  8  9  1  0  0  0
  8 22  1  0  0  0
  9 10  1  0  0  0
  9 27  2  0  0  0
 10 11  2  0  0  0
 10 15  1  0  0  0
 11 12  1  0  0  0
 11 93  1  0  0  0
 12 13  2  0  0  0
 12 94  1  0  0  0
 13 14  1  0  0  0
 13 31  1  0  0  0
 14 15  2  0  0  0
 14 95  1  0  0  0
 15 96  1  0  0  0
 16 17  2  0  0  0
 16 21  1  0  0  0
 16 31  1  0  0  0
 17 18  1  0  0  0
 17 97  1  0  0  0
 18 19  2  0  0  0
 18 98  1  0  0  0
 19 20  1  0  0  0
 19 24  1  0  0  0
 20 21  2  0  0  0
 20 99  1  0  0  0
 21 23  1  0  0  0
 22 28  1  0  0  0
 22 32  2  0  0  0
 26 27  1  0  0  0
 28100  1  0  0  0
 28101  1  0  0  0
 29102  1  0  0  0
 29103  1  0  0  0
 33 34  1  0  0  0
 33 66  1  0  0  0
 33 70  2  0  0  0
 34 36  1  0  0  0
 34 59  1  0  0  0
 34104  1  0  0  0
 35 44  2  0  0  0
 35 45  1  0  0  0
 35 68  1  0  0  0
 36 56  1  0  0  0
 36105  1  0  0  0
 37 39  1  0  0  0
 37 47  1  0  0  0
 37 66  1  0  0  0
 37106  1  0  0  0
 38 43  2  0  0  0
 38 46  1  0  0  0
 38 47  1  0  0  0
 39 64  1  0  0  0
 39 67  2  0  0  0
 40 52  1  0  0  0
 40 53  2  0  0  0
 40 58  1  0  0  0
 41107  1  0  0  0
 41108  1  0  0  0
 41109  1  0  0  0
 41 48  1  0  0  0
 42 43  1  0  0  0
 42 66  1  0  0  0
 42110  1  0  0  0
 42111  1  0  0  0
 43 44  1  0  0  0
 44112  1  0  0  0
 45 46  2  0  0  0
 45113  1  0  0  0
 46114  1  0  0  0
 47115  1  0  0  0
 47116  1  0  0  0
 48 56  1  0  0  0
 48 65  1  0  0  0
 48117  1  0  0  0
 49 50  1  0  0  0
 49 53  1  0  0  0
 49 64  1  0  0  0
 49118  1  0  0  0
 50 51  1  0  0  0
 50119  1  0  0  0
 50120  1  0  0  0
 51 52  1  0  0  0
 51121  1  0  0  0
 51122  1  0  0  0
 52123  1  0  0  0
 52124  1  0  0  0
 53 54  1  0  0  0
 54 55  2  0  0  0
 54125  1  0  0  0
 55 57  1  0  0  0
 55126  1  0  0  0
 56 69  2  0  0  0
 57 58  2  0  0  0
 57127  1  0  0  0
 58128  1  0  0  0
 59 60  1  0  0  0
 59 61  1  0  0  0
 59 62  1  0  0  0
 60129  1  0  0  0
 60130  1  0  0  0
 60131  1  0  0  0
 61132  1  0  0  0
 61133  1  0  0  0
 61134  1  0  0  0
 62135  1  0  0  0
 62136  1  0  0  0
 62137  1  0  0  0
 63 65  1  0  0  0
 63138  1  0  0  0
 63139  1  0  0  0
 63140  1  0  0  0
 64141  1  0  0  0
 65142  1  0  0  0
 68 80  1  0  0  0
 71 72  2  0  0  0
 71 81  1  0  0  0
 71143  1  0  0  0
 72 73  1  0  0  0
 72 78  1  0  0  0
 73 82  2  0  0  0
 73 77  1  0  0  0
 74 79  1  0  0  0
 74 81  2  0  0  0
 74 82  1  0  0  0
 75 76  1  0  0  0
 75 77  1  0  0  0
 75144  1  0  0  0
 75145  1  0  0  0
 76 77  1  0  0  0
 76146  1  0  0  0
 76147  1  0  0  0
 77148  1  0  0  0
 78 83  1  0  0  0
 78149  1  0  0  0
 78150  1  0  0  0
 79 80  1  0  0  0
 79151  1  0  0  0
 79152  1  0  0  0
 80153  1  0  0  0
 80154  1  0  0  0
 83155  1  0  0  0
M  ISO  4   1 100  68 101  80 101  83 100
M  END
> <chiral flag>
0

> <version>
0

> <s_m_source_file>
/data/baiqing/PycharmProjects/Reinvent-master-3.2/result/LINK_invent/BTK/process_docking_weight1_custom_sum_contain_oxygen_bond_distance_aromatic_linkinvent_7_9_3/rearranged_h_0179.sdf

> <i_m_source_file_index>
85

> <r_mmod_Potential_Energy-OPLS-2005>
93.5606079101562

> <r_mmod_Stretch_Energy-OPLS-2005>
204.120071411133

> <r_mmod_Bend_Energy-OPLS-2005>
282.839935302734

> <r_mmod_Torsional_Energy-OPLS-2005>
239.955078125

> <r_mmod_Improper_Torsional_Energy-OPLS-2005>
6.94858169555664

> <r_mmod_Van_der_Waal_Energy-OPLS-2005>
133.633026123047

> <r_mmod_Electrostatic_Energy-OPLS-2005>
-690.724426269531

> <r_mmod_Solvation_Energy-OPLS-2005>
-234.762954711914

> <b_mmod_Minimization_Converged-OPLS-2005>
0

> <r_mmod_RMS_Derivative-OPLS-2005>
0.970120906829834

$$$$
85
                    3D
 Structure written by MMmdl.
156165  0  0  1  0            999 V2000
  -30.4687  -15.2084   20.3795 C   0  0  0  0  0  0
  -30.4349  -12.7695   19.5218 C   0  0  0  0  0  0
  -29.5307  -12.5789   18.2794 C   0  0  0  0  0  0
  -28.0753  -12.3144   18.7013 C   0  0  0  0  0  0
  -27.6130  -13.2759   19.8251 C   0  0  2  0  0  0
  -28.6487  -13.4256   20.9602 C   0  0  0  0  0  0
  -25.2386  -13.8252   20.5752 C   0  0  0  0  0  0
  -24.1741  -13.0439   20.9252 C   0  0  0  0  0  0
  -24.6398  -11.6934   20.8752 C   0  0  0  0  0  0
  -23.9099  -10.4291   21.0399 C   0  0  0  0  0  0
  -24.3639   -9.4205   21.9185 C   0  0  0  0  0  0
  -23.6303   -8.2244   22.0753 C   0  0  0  0  0  0
  -22.4285   -8.0278   21.3539 C   0  0  0  0  0  0
  -21.9931   -9.0255   20.4638 C   0  0  0  0  0  0
  -22.7267  -10.2133   20.3051 C   0  0  0  0  0  0
  -21.6861   -6.0734   22.5277 C   0  0  0  0  0  0
  -21.4013   -6.5635   23.8208 C   0  0  0  0  0  0
  -21.3664   -5.6787   24.9170 C   0  0  0  0  0  0
  -21.6050   -4.3050   24.7222 C   0  0  0  0  0  0
  -21.8819   -3.8142   23.4343 C   0  0  0  0  0  0
  -21.9195   -4.6959   22.3399 C   0  0  0  0  0  0
  -22.7755  -13.5176   21.1896 C   0  0  0  0  0  0
  -22.1664   -4.2147   21.0975 F   0  0  0  0  0  0
  -21.5636   -3.4532   25.7734 F   0  0  0  0  0  0
  -29.8897  -13.9131   20.3385 N   0  0  0  0  0  0
  -26.2816  -12.9532   20.3212 N   0  0  0  0  0  0
  -25.9334  -11.6633   20.5703 N   0  0  0  0  0  0
  -22.0421  -12.8154   22.0445 N   0  0  0  0  0  0
  -25.4006  -15.1995   20.4211 N   0  0  0  0  0  0
  -31.6863  -15.2058   20.1562 O   0  0  0  0  0  0
  -21.6640   -6.8882   21.4239 O   0  0  0  0  0  0
  -22.3439  -14.5479   20.6731 O   0  0  0  0  0  0
  -24.6598  -31.8277   23.1739 C   0  0  0  0  0  0
  -25.9298  -32.4609   23.8186 C   0  0  1  0  0  0
  -27.2154  -26.9638   20.1735 C   0  0  0  0  0  0
  -25.5979  -33.8424   24.2092 N   0  0  0  0  0  0
  -23.4728  -30.4420   21.5222 C   0  0  2  0  0  0
  -24.9261  -28.8403   20.1093 C   0  0  0  0  0  0
  -22.7652  -29.4464   22.4784 C   0  0  0  0  0  0
  -18.0324  -28.1407   22.8469 C   0  0  0  0  0  0
  -24.1483  -36.7210   23.2645 C   0  0  0  0  0  0
  -26.0404  -30.6455   21.3999 C   0  0  0  0  0  0
  -26.1091  -29.2391   20.7441 C   0  0  0  0  0  0
  -27.2494  -28.3204   20.7561 C   0  0  0  0  0  0
  -26.0045  -26.7169   19.4848 C   0  0  0  0  0  0
  -24.8971  -27.5979   19.4607 C   0  0  0  0  0  0
  -23.7104  -29.7627   20.1465 C   0  0  0  0  0  0
  -25.4126  -36.2976   24.0298 C   0  0  1  0  0  0
  -20.5950  -28.3752   23.1185 C   0  0  2  0  0  0
  -20.6801  -26.9437   22.5394 C   0  0  0  0  0  0
  -19.5772  -26.6382   21.5205 C   0  0  0  0  0  0
  -18.1953  -26.7943   22.1617 C   0  0  0  0  0  0
  -19.1586  -28.8900   23.2814 C   0  0  0  0  0  0
  -18.9505  -30.1488   23.8849 C   0  0  0  0  0  0
  -17.6500  -30.6600   24.0558 C   0  0  0  0  0  0
  -25.9096  -34.9365   23.5011 C   0  0  0  0  0  0
  -16.5386  -29.9089   23.6349 C   0  0  0  0  0  0
  -16.7309  -28.6512   23.0363 C   0  0  0  0  0  0
  -26.4556  -31.6543   25.0703 C   0  0  0  0  0  0
  -25.3684  -31.3787   26.1358 C   0  0  0  0  0  0
  -27.0458  -30.2917   24.6414 C   0  0  0  0  0  0
  -27.6044  -32.4354   25.7510 C   0  0  0  0  0  0
  -27.5566  -37.1756   24.8465 C   0  0  0  0  0  0
  -21.4327  -29.3053   22.3534 N   0  0  0  0  0  0
  -26.4267  -37.3716   23.9429 N   0  0  0  0  0  0
  -24.7452  -30.9976   22.0858 N   0  0  0  0  0  0
  -23.4215  -28.8032   23.3011 O   0  0  0  0  0  0
  -28.2007  -25.8530   20.2605 O   0  0  0  0  0  0
  -26.5708  -34.8892   22.4606 O   0  0  0  0  0  0
  -23.5677  -32.1242   23.6843 O   0  0  0  0  0  0
  -29.1036  -22.0571   21.3296 C   0  0  0  0  0  0
  -29.5110  -20.6299   21.4411 C   0  0  0  0  0  0
  -28.5568  -22.7197   20.1591 C   0  0  0  0  0  0
  -29.3915  -19.6345   20.3785 C   0  0  0  0  0  0
  -28.4781  -21.6443   19.1648 C   0  0  0  0  0  0
  -29.7154  -18.9857   23.4926 C   0  0  0  0  0  0
  -29.4041  -20.3532   24.0497 C   0  0  0  0  0  0
  -30.1474  -20.2224   22.7384 C   0  0  0  0  0  0
  -27.8714  -21.9642   17.8116 C   0  0  0  0  0  0
  -27.8159  -24.2932   19.9928 C   0  0  0  0  0  0
  -30.1498  -18.0670   20.2974 C   0  0  0  0  0  0
  -28.8722  -20.2786   19.2614 N   0  0  0  0  0  0
  -29.7300  -16.4800   20.4633 N   0  0  0  0  0  0
  -31.4586  -12.9594   19.1958 H   0  0  0  0  0  0
  -30.4815  -11.8538   20.1144 H   0  0  0  0  0  0
  -29.8966  -11.7620   17.6571 H   0  0  0  0  0  0
  -29.5737  -13.4787   17.6632 H   0  0  0  0  0  0
  -28.0133  -11.2833   19.0508 H   0  0  0  0  0  0
  -27.4110  -12.3865   17.8391 H   0  0  0  0  0  0
  -27.5349  -14.2512   19.3425 H   0  0  0  0  0  0
  -28.8009  -12.4834   21.4895 H   0  0  0  0  0  0
  -28.2981  -14.1462   21.7007 H   0  0  0  0  0  0
  -25.2786   -9.5674   22.4758 H   0  0  0  0  0  0
  -24.0008   -7.4638   22.7479 H   0  0  0  0  0  0
  -21.0865   -8.8777   19.8939 H   0  0  0  0  0  0
  -22.3731  -10.9670   19.6152 H   0  0  0  0  0  0
  -21.1999   -7.6144   23.9705 H   0  0  0  0  0  0
  -21.1490   -6.0518   25.9073 H   0  0  0  0  0  0
  -22.0596   -2.7605   23.2836 H   0  0  0  0  0  0
  -22.4063  -11.9826   22.4833 H   0  0  0  0  0  0
  -21.1023  -13.1135   22.2628 H   0  0  0  0  0  0
  -24.6280  -15.8453   20.5425 H   0  0  0  0  0  0
  -26.2369  -15.6459   20.0695 H   0  0  0  0  0  0
  -26.7370  -32.5162   23.0903 H   0  0  0  0  0  0
  -25.0070  -33.9512   25.0206 H   0  0  0  0  0  0
  -22.7835  -31.2719   21.3548 H   0  0  0  0  0  0
  -23.3764  -35.9516   23.3249 H   0  0  0  0  0  0
  -24.3567  -36.8923   22.2074 H   0  0  0  0  0  0
  -23.7213  -37.6365   23.6745 H   0  0  0  0  0  0
  -26.2146  -31.3877   20.6191 H   0  0  0  0  0  0
  -26.9025  -30.7031   22.0522 H   0  0  0  0  0  0
  -28.1410  -28.6206   21.2882 H   0  0  0  0  0  0
  -25.8656  -25.7736   18.9789 H   0  0  0  0  0  0
  -23.9991  -27.2872   18.9438 H   0  0  0  0  0  0
  -23.8618  -30.5328   19.3897 H   0  0  0  0  0  0
  -22.8212  -29.2147   19.8299 H   0  0  0  0  0  0
  -25.1314  -36.1758   25.0784 H   0  0  0  0  0  0
  -21.0040  -28.3359   24.1305 H   0  0  0  0  0  0
  -20.5681  -26.2373   23.3633 H   0  0  0  0  0  0
  -21.6663  -26.7412   22.1198 H   0  0  0  0  0  0
  -19.6930  -25.6282   21.1263 H   0  0  0  0  0  0
  -19.6706  -27.3163   20.6708 H   0  0  0  0  0  0
  -17.4225  -26.6690   21.4024 H   0  0  0  0  0  0
  -18.0347  -26.0092   22.9016 H   0  0  0  0  0  0
  -19.7984  -30.7315   24.2186 H   0  0  0  0  0  0
  -17.5063  -31.6272   24.5174 H   0  0  0  0  0  0
  -15.5387  -30.2983   23.7703 H   0  0  0  0  0  0
  -15.8709  -28.0820   22.7102 H   0  0  0  0  0  0
  -24.5868  -30.7141   25.7659 H   0  0  0  0  0  0
  -24.8877  -32.2994   26.4673 H   0  0  0  0  0  0
  -25.7916  -30.9017   27.0207 H   0  0  0  0  0  0
  -26.3129  -29.6590   24.1396 H   0  0  0  0  0  0
  -27.3981  -29.7278   25.5060 H   0  0  0  0  0  0
  -27.9068  -30.4110   23.9833 H   0  0  0  0  0  0
  -27.2613  -33.3719   26.1914 H   0  0  0  0  0  0
  -28.3943  -32.6805   25.0401 H   0  0  0  0  0  0
  -28.0598  -31.8589   26.5569 H   0  0  0  0  0  0
  -28.2524  -38.0102   24.7552 H   0  0  0  0  0  0
  -28.1108  -36.2633   24.6228 H   0  0  0  0  0  0
  -27.2293  -37.1321   25.8862 H   0  0  0  0  0  0
  -20.9567  -29.8767   21.6693 H   0  0  0  0  0  0
  -26.0100  -38.2755   24.1477 H   0  0  0  0  0  0
  -29.2145  -22.6696   22.2137 H   0  0  0  0  0  0
  -28.8800  -18.4064   23.1042 H   0  0  0  0  0  0
  -30.4884  -18.4102   23.9996 H   0  0  0  0  0  0
  -29.9665  -20.6627   24.9294 H   0  0  0  0  0  0
  -28.3629  -20.6684   24.0291 H   0  0  0  0  0  0
  -31.2061  -20.4776   22.7437 H   0  0  0  0  0  0
  -28.3806  -22.8119   17.3524 H   0  0  0  0  0  0
  -26.8142  -22.2075   17.9155 H   0  0  0  0  0  0
  -27.9488  -21.1245   17.1202 H   0  0  0  0  0  0
  -26.8645  -24.1660   20.5095 H   0  0  0  0  0  0
  -27.5419  -24.3200   18.9407 H   0  0  0  0  0  0
  -31.0009  -18.1655   20.9706 H   0  0  0  0  0  0
  -30.6151  -18.0852   19.3117 H   0  0  0  0  0  0
  -28.7387  -16.3552   20.6030 H   0  0  0  0  0  0
  1 25  1  0  0  0
  1 30  2  0  0  0
  1 83  1  0  0  0
  2  3  1  0  0  0
  2 25  1  0  0  0
  2 84  1  0  0  0
  2 85  1  0  0  0
  3  4  1  0  0  0
  3 86  1  0  0  0
  3 87  1  0  0  0
  4  5  1  0  0  0
  4 88  1  0  0  0
  4 89  1  0  0  0
  5  6  1  0  0  0
  5 26  1  0  0  0
  5 90  1  0  0  0
  6 25  1  0  0  0
  6 91  1  0  0  0
  6 92  1  0  0  0
  7  8  2  0  0  0
  7 26  1  0  0  0
  7 29  1  0  0  0
  8  9  1  0  0  0
  8 22  1  0  0  0
  9 10  1  0  0  0
  9 27  2  0  0  0
 10 11  2  0  0  0
 10 15  1  0  0  0
 11 12  1  0  0  0
 11 93  1  0  0  0
 12 13  2  0  0  0
 12 94  1  0  0  0
 13 14  1  0  0  0
 13 31  1  0  0  0
 14 15  2  0  0  0
 14 95  1  0  0  0
 15 96  1  0  0  0
 16 17  2  0  0  0
 16 21  1  0  0  0
 16 31  1  0  0  0
 17 18  1  0  0  0
 17 97  1  0  0  0
 18 19  2  0  0  0
 18 98  1  0  0  0
 19 20  1  0  0  0
 19 24  1  0  0  0
 20 21  2  0  0  0
 20 99  1  0  0  0
 21 23  1  0  0  0
 22 28  1  0  0  0
 22 32  2  0  0  0
 26 27  1  0  0  0
 28100  1  0  0  0
 28101  1  0  0  0
 29102  1  0  0  0
 29103  1  0  0  0
 33 34  1  0  0  0
 33 66  1  0  0  0
 33 70  2  0  0  0
 34 36  1  0  0  0
 34 59  1  0  0  0
 34104  1  0  0  0
 35 44  2  0  0  0
 35 45  1  0  0  0
 35 68  1  0  0  0
 36 56  1  0  0  0
 36105  1  0  0  0
 37 39  1  0  0  0
 37 47  1  0  0  0
 37 66  1  0  0  0
 37106  1  0  0  0
 38 43  2  0  0  0
 38 46  1  0  0  0
 38 47  1  0  0  0
 39 64  1  0  0  0
 39 67  2  0  0  0
 40 52  1  0  0  0
 40 53  2  0  0  0
 40 58  1  0  0  0
 41107  1  0  0  0
 41108  1  0  0  0
 41109  1  0  0  0
 41 48  1  0  0  0
 42 43  1  0  0  0
 42 66  1  0  0  0
 42110  1  0  0  0
 42111  1  0  0  0
 43 44  1  0  0  0
 44112  1  0  0  0
 45 46  2  0  0  0
 45113  1  0  0  0
 46114  1  0  0  0
 47115  1  0  0  0
 47116  1  0  0  0
 48 56  1  0  0  0
 48 65  1  0  0  0
 48117  1  0  0  0
 49 50  1  0  0  0
 49 53  1  0  0  0
 49 64  1  0  0  0
 49118  1  0  0  0
 50 51  1  0  0  0
 50119  1  0  0  0
 50120  1  0  0  0
 51 52  1  0  0  0
 51121  1  0  0  0
 51122  1  0  0  0
 52123  1  0  0  0
 52124  1  0  0  0
 53 54  1  0  0  0
 54 55  2  0  0  0
 54125  1  0  0  0
 55 57  1  0  0  0
 55126  1  0  0  0
 56 69  2  0  0  0
 57 58  2  0  0  0
 57127  1  0  0  0
 58128  1  0  0  0
 59 60  1  0  0  0
 59 61  1  0  0  0
 59 62  1  0  0  0
 60129  1  0  0  0
 60130  1  0  0  0
 60131  1  0  0  0
 61132  1  0  0  0
 61133  1  0  0  0
 61134  1  0  0  0
 62135  1  0  0  0
 62136  1  0  0  0
 62137  1  0  0  0
 63 65  1  0  0  0
 63138  1  0  0  0
 63139  1  0  0  0
 63140  1  0  0  0
 64141  1  0  0  0
 65142  1  0  0  0
 68 80  1  0  0  0
 71 72  2  0  0  0
 71 73  1  0  0  0
 71143  1  0  0  0
 72 74  1  0  0  0
 72 78  1  0  0  0
 73 75  2  0  0  0
 73 80  1  0  0  0
 74 81  1  0  0  0
 74 82  2  0  0  0
 75 79  1  0  0  0
 75 82  1  0  0  0
 76 77  1  0  0  0
 76 78  1  0  0  0
 76144  1  0  0  0
 76145  1  0  0  0
 77 78  1  0  0  0
 77146  1  0  0  0
 77147  1  0  0  0
 78148  1  0  0  0
 79149  1  0  0  0
 79150  1  0  0  0
 79151  1  0  0  0
 80152  1  0  0  0
 80153  1  0  0  0
 81 83  1  0  0  0
 81154  1  0  0  0
 81155  1  0  0  0
 83156  1  0  0  0
M  ISO  4   1 100  68 101  80 101  83 100
M  END
> <chiral flag>
0

> <version>
0

> <s_m_source_file>
/data/baiqing/PycharmProjects/Reinvent-master-3.2/result/LINK_invent/BTK/process_docking_weight1_custom_sum_contain_oxygen_bond_distance_aromatic_linkinvent_7_9_3/rearranged_h_0179.sdf

> <i_m_source_file_index>
86

> <r_mmod_Potential_Energy-OPLS-2005>
892.568969726562

> <r_mmod_Stretch_Energy-OPLS-2005>
466.371429443359

> <r_mmod_Bend_Energy-OPLS-2005>
425.242065429688

> <r_mmod_Torsional_Energy-OPLS-2005>
252.065185546875

> <r_mmod_Improper_Torsional_Energy-OPLS-2005>
8.86398601531982

> <r_mmod_Van_der_Waal_Energy-OPLS-2005>
131.040451049805

> <r_mmod_Electrostatic_Energy-OPLS-2005>
-571.209655761719

> <r_mmod_Solvation_Energy-OPLS-2005>
-226.24772644043

> <b_mmod_Minimization_Converged-OPLS-2005>
0

> <r_mmod_RMS_Derivative-OPLS-2005>
1.32313370704651

$$$$
86
                    3D
 Structure written by MMmdl.
154163  0  0  1  0            999 V2000
  -30.5748  -14.9083   20.3706 C   0  0  0  0  0  0
  -30.4260  -12.5555   19.4742 C   0  0  0  0  0  0
  -29.5102  -12.5170   18.2290 C   0  0  0  0  0  0
  -28.0441  -12.3050   18.6598 C   0  0  0  0  0  0
  -27.6271  -13.2379   19.8237 C   0  0  2  0  0  0
  -28.6704  -13.2945   20.9555 C   0  0  0  0  0  0
  -25.2472  -13.8194   20.5664 C   0  0  0  0  0  0
  -24.1787  -13.0418   20.9211 C   0  0  0  0  0  0
  -24.6385  -11.6888   20.8718 C   0  0  0  0  0  0
  -23.9088  -10.4258   21.0384 C   0  0  0  0  0  0
  -24.3625   -9.4179   21.9159 C   0  0  0  0  0  0
  -23.6262   -8.2223   22.0768 C   0  0  0  0  0  0
  -22.4237   -8.0272   21.3560 C   0  0  0  0  0  0
  -21.9872   -9.0256   20.4651 C   0  0  0  0  0  0
  -22.7243  -10.2107   20.3047 C   0  0  0  0  0  0
  -21.6882   -6.0682   22.5255 C   0  0  0  0  0  0
  -21.4028   -6.5598   23.8167 C   0  0  0  0  0  0
  -21.3666   -5.6772   24.9141 C   0  0  0  0  0  0
  -21.6030   -4.3028   24.7236 C   0  0  0  0  0  0
  -21.8826   -3.8097   23.4360 C   0  0  0  0  0  0
  -21.9211   -4.6899   22.3397 C   0  0  0  0  0  0
  -22.7831  -13.5200   21.1898 C   0  0  0  0  0  0
  -22.1689   -4.2057   21.1000 F   0  0  0  0  0  0
  -21.5631   -3.4531   25.7759 F   0  0  0  0  0  0
  -29.9434  -13.6746   20.3301 N   0  0  0  0  0  0
  -26.2880  -12.9407   20.3179 N   0  0  0  0  0  0
  -25.9315  -11.6548   20.5690 N   0  0  0  0  0  0
  -22.0479  -12.8191   22.0453 N   0  0  0  0  0  0
  -25.4171  -15.1899   20.3965 N   0  0  0  0  0  0
  -31.7927  -14.9149   20.1599 O   0  0  0  0  0  0
  -21.6655   -6.8823   21.4208 O   0  0  0  0  0  0
  -22.3531  -14.5509   20.6776 O   0  0  0  0  0  0
  -24.6438  -31.8482   23.1876 C   0  0  0  0  0  0
  -25.9219  -32.4696   23.8270 C   0  0  1  0  0  0
  -27.1918  -27.1688   20.1294 C   0  0  0  0  0  0
  -25.5989  -33.8501   24.2202 N   0  0  0  0  0  0
  -23.4440  -30.4688   21.5319 C   0  0  2  0  0  0
  -24.8850  -28.9023   20.1081 C   0  0  0  0  0  0
  -22.7575  -29.4577   22.4855 C   0  0  0  0  0  0
  -18.0338  -28.1369   22.8476 C   0  0  0  0  0  0
  -24.1492  -36.7264   23.2642 C   0  0  0  0  0  0
  -25.9971  -30.7334   21.3797 C   0  0  0  0  0  0
  -26.0652  -29.3464   20.7188 C   0  0  0  0  0  0
  -27.2300  -28.4961   20.7092 C   0  0  0  0  0  0
  -25.9869  -26.8150   19.4943 C   0  0  0  0  0  0
  -24.8555  -27.6478   19.4847 C   0  0  0  0  0  0
  -23.6645  -29.8012   20.1482 C   0  0  0  0  0  0
  -25.4121  -36.3049   24.0313 C   0  0  1  0  0  0
  -20.5949  -28.3715   23.1227 C   0  0  2  0  0  0
  -20.6864  -26.9442   22.5361 C   0  0  0  0  0  0
  -19.5862  -26.6468   21.5161 C   0  0  0  0  0  0
  -18.2001  -26.7955   22.1537 C   0  0  0  0  0  0
  -19.1583  -28.8839   23.2888 C   0  0  0  0  0  0
  -18.9496  -30.1426   23.8937 C   0  0  0  0  0  0
  -17.6493  -30.6555   24.0585 C   0  0  0  0  0  0
  -25.9067  -34.9422   23.5059 C   0  0  0  0  0  0
  -16.5397  -29.9025   23.6342 C   0  0  0  0  0  0
  -16.7329  -28.6448   23.0361 C   0  0  0  0  0  0
  -26.4522  -31.6582   25.0739 C   0  0  0  0  0  0
  -25.3710  -31.3795   26.1454 C   0  0  0  0  0  0
  -27.0396  -30.2986   24.6324 C   0  0  0  0  0  0
  -27.6049  -32.4363   25.7532 C   0  0  0  0  0  0
  -27.5570  -37.1782   24.8459 C   0  0  0  0  0  0
  -21.4264  -29.3075   22.3629 N   0  0  0  0  0  0
  -26.4287  -37.3747   23.9394 N   0  0  0  0  0  0
  -24.7145  -31.0366   22.0890 N   0  0  0  0  0  0
  -23.4238  -28.8111   23.2981 O   0  0  0  0  0  0
  -28.2226  -26.1801   20.1237 O   0  0  0  0  0  0
  -26.5637  -34.8923   22.4633 O   0  0  0  0  0  0
  -23.5565  -32.1354   23.7090 O   0  0  0  0  0  0
  -28.5075  -22.0192   20.3461 C   0  0  0  0  0  0
  -28.2501  -23.3567   19.7826 C   0  0  0  0  0  0
  -28.5599  -20.8310   19.5001 C   0  0  0  0  0  0
  -28.0851  -22.2792   17.7322 C   0  0  0  0  0  0
  -28.8353  -16.9415   20.8688 C   0  0  0  0  0  0
  -30.2655  -17.3676   19.4042 C   0  0  0  0  0  0
  -29.4681  -18.3166   20.3760 C   0  0  0  0  0  0
  -27.6888  -22.3890   16.2639 C   0  0  0  0  0  0
  -27.9057  -24.7399   20.5871 C   0  0  0  0  0  0
  -28.0531  -23.4106   18.4444 N   0  0  0  0  0  0
  -28.3249  -21.0468   18.1929 N   0  0  0  0  0  0
  -29.8633  -16.1210   20.1486 N   0  0  0  0  0  0
  -28.5189  -19.3948   19.8057 N   0  0  0  0  0  0
  -31.4701  -12.6764   19.1761 H   0  0  0  0  0  0
  -30.3862  -11.6134   20.0189 H   0  0  0  0  0  0
  -29.8217  -11.7236   17.5415 H   0  0  0  0  0  0
  -29.6077  -13.4580   17.6861 H   0  0  0  0  0  0
  -27.9379  -11.2649   18.9726 H   0  0  0  0  0  0
  -27.3628  -12.4338   17.8140 H   0  0  0  0  0  0
  -27.5833  -14.2375   19.3882 H   0  0  0  0  0  0
  -28.7546  -12.3419   21.4758 H   0  0  0  0  0  0
  -28.3696  -14.0381   21.6980 H   0  0  0  0  0  0
  -25.2788   -9.5645   22.4716 H   0  0  0  0  0  0
  -23.9933   -7.4603   22.7513 H   0  0  0  0  0  0
  -21.0784   -8.8814   19.8942 H   0  0  0  0  0  0
  -22.3736  -10.9637   19.6137 H   0  0  0  0  0  0
  -21.2042   -7.6109   23.9641 H   0  0  0  0  0  0
  -21.1492   -6.0515   25.9034 H   0  0  0  0  0  0
  -22.0606   -2.7551   23.2911 H   0  0  0  0  0  0
  -22.4154  -11.9828   22.4721 H   0  0  0  0  0  0
  -21.1067  -13.1142   22.2677 H   0  0  0  0  0  0
  -24.6395  -15.8394   20.4598 H   0  0  0  0  0  0
  -26.2532  -15.6006   20.0053 H   0  0  0  0  0  0
  -26.7305  -32.5307   23.1014 H   0  0  0  0  0  0
  -25.0189  -33.9614   25.0392 H   0  0  0  0  0  0
  -22.7465  -31.2953   21.3768 H   0  0  0  0  0  0
  -23.3767  -35.9575   23.3303 H   0  0  0  0  0  0
  -24.3594  -36.8897   22.2060 H   0  0  0  0  0  0
  -23.7244  -37.6447   23.6688 H   0  0  0  0  0  0
  -26.1588  -31.4941   20.6128 H   0  0  0  0  0  0
  -26.8669  -30.7751   22.0217 H   0  0  0  0  0  0
  -28.1358  -28.8311   21.1941 H   0  0  0  0  0  0
  -25.9128  -25.8483   19.0116 H   0  0  0  0  0  0
  -23.9524  -27.3023   18.9992 H   0  0  0  0  0  0
  -23.7980  -30.5753   19.3928 H   0  0  0  0  0  0
  -22.7826  -29.2355   19.8440 H   0  0  0  0  0  0
  -25.1293  -36.1870   25.0792 H   0  0  0  0  0  0
  -21.0059  -28.3313   24.1338 H   0  0  0  0  0  0
  -20.5767  -26.2304   23.3529 H   0  0  0  0  0  0
  -21.6701  -26.7475   22.1094 H   0  0  0  0  0  0
  -19.7133  -25.6435   21.1071 H   0  0  0  0  0  0
  -19.6831  -27.3368   20.6751 H   0  0  0  0  0  0
  -18.0349  -26.0051   22.8817 H   0  0  0  0  0  0
  -17.4314  -26.6784   21.3868 H   0  0  0  0  0  0
  -19.7997  -30.7229   24.2293 H   0  0  0  0  0  0
  -17.5041  -31.6243   24.5139 H   0  0  0  0  0  0
  -15.5383  -30.2923   23.7585 H   0  0  0  0  0  0
  -15.8757  -28.0777   22.6988 H   0  0  0  0  0  0
  -24.5846  -30.7185   25.7788 H   0  0  0  0  0  0
  -24.8973  -32.3004   26.4868 H   0  0  0  0  0  0
  -25.8015  -30.8971   27.0244 H   0  0  0  0  0  0
  -26.3029  -29.6714   24.1294 H   0  0  0  0  0  0
  -27.3974  -29.7279   25.4898 H   0  0  0  0  0  0
  -27.8942  -30.4222   23.9671 H   0  0  0  0  0  0
  -27.2599  -33.3648   26.2084 H   0  0  0  0  0  0
  -28.3870  -32.6947   25.0392 H   0  0  0  0  0  0
  -28.0706  -31.8533   26.5477 H   0  0  0  0  0  0
  -28.2560  -38.0096   24.7473 H   0  0  0  0  0  0
  -28.1074  -36.2614   24.6290 H   0  0  0  0  0  0
  -27.2288  -37.1438   25.8862 H   0  0  0  0  0  0
  -20.9475  -29.8828   21.6845 H   0  0  0  0  0  0
  -26.0167  -38.2808   24.1398 H   0  0  0  0  0  0
  -28.5616  -21.9025   21.4231 H   0  0  0  0  0  0
  -27.8260  -16.7836   20.4931 H   0  0  0  0  0  0
  -28.8568  -16.8289   21.9561 H   0  0  0  0  0  0
  -31.3353  -17.5768   19.4116 H   0  0  0  0  0  0
  -29.8947  -17.3776   18.3786 H   0  0  0  0  0  0
  -30.1211  -18.7401   21.1404 H   0  0  0  0  0  0
  -27.7136  -23.4198   15.9125 H   0  0  0  0  0  0
  -26.6760  -22.0093   16.1078 H   0  0  0  0  0  0
  -28.3541  -21.8155   15.6154 H   0  0  0  0  0  0
  -28.3318  -24.6332   21.5859 H   0  0  0  0  0  0
  -26.8317  -24.6758   20.7709 H   0  0  0  0  0  0
  -28.0415  -18.9728   19.0180 H   0  0  0  0  0  0
  1 25  1  0  0  0
  1 30  2  0  0  0
  1 82  1  0  0  0
  2  3  1  0  0  0
  2 25  1  0  0  0
  2 84  1  0  0  0
  2 85  1  0  0  0
  3  4  1  0  0  0
  3 86  1  0  0  0
  3 87  1  0  0  0
  4  5  1  0  0  0
  4 88  1  0  0  0
  4 89  1  0  0  0
  5  6  1  0  0  0
  5 26  1  0  0  0
  5 90  1  0  0  0
  6 25  1  0  0  0
  6 91  1  0  0  0
  6 92  1  0  0  0
  7  8  2  0  0  0
  7 26  1  0  0  0
  7 29  1  0  0  0
  8  9  1  0  0  0
  8 22  1  0  0  0
  9 10  1  0  0  0
  9 27  2  0  0  0
 10 11  2  0  0  0
 10 15  1  0  0  0
 11 12  1  0  0  0
 11 93  1  0  0  0
 12 13  2  0  0  0
 12 94  1  0  0  0
 13 14  1  0  0  0
 13 31  1  0  0  0
 14 15  2  0  0  0
 14 95  1  0  0  0
 15 96  1  0  0  0
 16 17  2  0  0  0
 16 21  1  0  0  0
 16 31  1  0  0  0
 17 18  1  0  0  0
 17 97  1  0  0  0
 18 19  2  0  0  0
 18 98  1  0  0  0
 19 20  1  0  0  0
 19 24  1  0  0  0
 20 21  2  0  0  0
 20 99  1  0  0  0
 21 23  1  0  0  0
 22 28  1  0  0  0
 22 32  2  0  0  0
 26 27  1  0  0  0
 28100  1  0  0  0
 28101  1  0  0  0
 29102  1  0  0  0
 29103  1  0  0  0
 33 34  1  0  0  0
 33 66  1  0  0  0
 33 70  2  0  0  0
 34 36  1  0  0  0
 34 59  1  0  0  0
 34104  1  0  0  0
 35 44  2  0  0  0
 35 45  1  0  0  0
 35 68  1  0  0  0
 36 56  1  0  0  0
 36105  1  0  0  0
 37 39  1  0  0  0
 37 47  1  0  0  0
 37 66  1  0  0  0
 37106  1  0  0  0
 38 43  2  0  0  0
 38 46  1  0  0  0
 38 47  1  0  0  0
 39 64  1  0  0  0
 39 67  2  0  0  0
 40 52  1  0  0  0
 40 53  2  0  0  0
 40 58  1  0  0  0
 41107  1  0  0  0
 41108  1  0  0  0
 41109  1  0  0  0
 41 48  1  0  0  0
 42 43  1  0  0  0
 42 66  1  0  0  0
 42110  1  0  0  0
 42111  1  0  0  0
 43 44  1  0  0  0
 44112  1  0  0  0
 45 46  2  0  0  0
 45113  1  0  0  0
 46114  1  0  0  0
 47115  1  0  0  0
 47116  1  0  0  0
 48 56  1  0  0  0
 48 65  1  0  0  0
 48117  1  0  0  0
 49 50  1  0  0  0
 49 53  1  0  0  0
 49 64  1  0  0  0
 49118  1  0  0  0
 50 51  1  0  0  0
 50119  1  0  0  0
 50120  1  0  0  0
 51 52  1  0  0  0
 51121  1  0  0  0
 51122  1  0  0  0
 52123  1  0  0  0
 52124  1  0  0  0
 53 54  1  0  0  0
 54 55  2  0  0  0
 54125  1  0  0  0
 55 57  1  0  0  0
 55126  1  0  0  0
 56 69  2  0  0  0
 57 58  2  0  0  0
 57127  1  0  0  0
 58128  1  0  0  0
 59 60  1  0  0  0
 59 61  1  0  0  0
 59 62  1  0  0  0
 60129  1  0  0  0
 60130  1  0  0  0
 60131  1  0  0  0
 61132  1  0  0  0
 61133  1  0  0  0
 61134  1  0  0  0
 62135  1  0  0  0
 62136  1  0  0  0
 62137  1  0  0  0
 63 65  1  0  0  0
 63138  1  0  0  0
 63139  1  0  0  0
 63140  1  0  0  0
 64141  1  0  0  0
 65142  1  0  0  0
 68 79  1  0  0  0
 71 72  2  0  0  0
 71 73  1  0  0  0
 71143  1  0  0  0
 72 79  1  0  0  0
 72 80  1  0  0  0
 73 81  2  0  0  0
 73 83  1  0  0  0
 74 78  1  0  0  0
 74 80  2  0  0  0
 74 81  1  0  0  0
 75 77  1  0  0  0
 75 82  1  0  0  0
 75144  1  0  0  0
 75145  1  0  0  0
 76 77  1  0  0  0
 76 82  1  0  0  0
 76146  1  0  0  0
 76147  1  0  0  0
 77 83  1  0  0  0
 77148  1  0  0  0
 78149  1  0  0  0
 78150  1  0  0  0
 78151  1  0  0  0
 79152  1  0  0  0
 79153  1  0  0  0
 83154  1  0  0  0
M  ISO  4   1 100  68 101  79 101  82 100
M  END
> <chiral flag>
0

> <version>
0

> <s_m_source_file>
/data/baiqing/PycharmProjects/Reinvent-master-3.2/result/LINK_invent/BTK/process_docking_weight1_custom_sum_contain_oxygen_bond_distance_aromatic_linkinvent_7_9_3/rearranged_h_0179.sdf

> <i_m_source_file_index>
87

> <r_mmod_Potential_Energy-OPLS-2005>
0.837464272975922

> <r_mmod_Stretch_Energy-OPLS-2005>
176.56201171875

> <r_mmod_Bend_Energy-OPLS-2005>
284.3203125

> <r_mmod_Torsional_Energy-OPLS-2005>
306.628845214844

> <r_mmod_Improper_Torsional_Energy-OPLS-2005>
26.0135822296143

> <r_mmod_Van_der_Waal_Energy-OPLS-2005>
130.300201416016

> <r_mmod_Electrostatic_Energy-OPLS-2005>
-861.035339355469

> <r_mmod_Solvation_Energy-OPLS-2005>
-233.654495239258

> <b_mmod_Minimization_Converged-OPLS-2005>
0

> <r_mmod_RMS_Derivative-OPLS-2005>
6.9321117401123

$$$$
87
                    3D
 Structure written by MMmdl.
162171  0  0  1  0            999 V2000
  -30.6605  -14.7120   20.4643 C   0  0  0  0  0  0
  -30.4221  -12.4387   19.4710 C   0  0  0  0  0  0
  -29.5061  -12.5046   18.2319 C   0  0  0  0  0  0
  -28.0320  -12.3376   18.6464 C   0  0  0  0  0  0
  -27.6399  -13.2372   19.8496 C   0  0  2  0  0  0
  -28.6864  -13.1866   20.9832 C   0  0  0  0  0  0
  -25.2512  -13.8218   20.5717 C   0  0  0  0  0  0
  -24.1802  -13.0451   20.9200 C   0  0  0  0  0  0
  -24.6401  -11.6927   20.8739 C   0  0  0  0  0  0
  -23.9083  -10.4301   21.0399 C   0  0  0  0  0  0
  -24.3631   -9.4215   21.9182 C   0  0  0  0  0  0
  -23.6306   -8.2246   22.0755 C   0  0  0  0  0  0
  -22.4288   -8.0287   21.3543 C   0  0  0  0  0  0
  -21.9919   -9.0261   20.4649 C   0  0  0  0  0  0
  -22.7249  -10.2140   20.3056 C   0  0  0  0  0  0
  -21.6852   -6.0743   22.5282 C   0  0  0  0  0  0
  -21.4008   -6.5646   23.8218 C   0  0  0  0  0  0
  -21.3657   -5.6792   24.9175 C   0  0  0  0  0  0
  -21.6047   -4.3057   24.7221 C   0  0  0  0  0  0
  -21.8818   -3.8152   23.4339 C   0  0  0  0  0  0
  -21.9192   -4.6970   22.3397 C   0  0  0  0  0  0
  -22.7825  -13.5230   21.1860 C   0  0  0  0  0  0
  -22.1666   -4.2161   21.0972 F   0  0  0  0  0  0
  -21.5628   -3.4537   25.7731 F   0  0  0  0  0  0
  -29.9868  -13.5139   20.3915 N   0  0  0  0  0  0
  -26.2938  -12.9432   20.3296 N   0  0  0  0  0  0
  -25.9338  -11.6569   20.5759 N   0  0  0  0  0  0
  -22.0472  -12.8220   22.0417 N   0  0  0  0  0  0
  -25.4230  -15.1941   20.4180 N   0  0  0  0  0  0
  -31.8574  -14.7498   20.1621 O   0  0  0  0  0  0
  -21.6647   -6.8888   21.4244 O   0  0  0  0  0  0
  -22.3510  -14.5531   20.6699 O   0  0  0  0  0  0
  -24.6300  -31.8567   23.1998 C   0  0  0  0  0  0
  -25.9131  -32.4764   23.8344 C   0  0  1  0  0  0
  -27.2228  -27.2861   20.1083 C   0  0  0  0  0  0
  -25.5937  -33.8567   24.2267 N   0  0  0  0  0  0
  -23.4255  -30.4806   21.5427 C   0  0  2  0  0  0
  -24.8706  -28.9316   20.1067 C   0  0  0  0  0  0
  -22.7500  -29.4617   22.4914 C   0  0  0  0  0  0
  -18.0291  -28.1393   22.8482 C   0  0  0  0  0  0
  -24.1487  -36.7280   23.2637 C   0  0  0  0  0  0
  -25.9702  -30.7745   21.3782 C   0  0  0  0  0  0
  -26.0414  -29.3995   20.7177 C   0  0  0  0  0  0
  -27.2156  -28.5840   20.7182 C   0  0  0  0  0  0
  -26.0201  -26.8701   19.4940 C   0  0  0  0  0  0
  -24.8634  -27.6721   19.4887 C   0  0  0  0  0  0
  -23.6413  -29.8166   20.1576 C   0  0  0  0  0  0
  -25.4109  -36.3073   24.0330 C   0  0  1  0  0  0
  -20.5899  -28.3707   23.1272 C   0  0  2  0  0  0
  -20.6781  -26.9423   22.5417 C   0  0  0  0  0  0
  -19.5758  -26.6391   21.5222 C   0  0  0  0  0  0
  -18.1936  -26.7941   22.1618 C   0  0  0  0  0  0
  -19.1547  -28.8864   23.2873 C   0  0  0  0  0  0
  -18.9463  -30.1463   23.8895 C   0  0  0  0  0  0
  -17.6461  -30.6595   24.0562 C   0  0  0  0  0  0
  -25.9056  -34.9445   23.5101 C   0  0  0  0  0  0
  -16.5354  -29.9088   23.6333 C   0  0  0  0  0  0
  -16.7282  -28.6508   23.0356 C   0  0  0  0  0  0
  -26.4493  -31.6592   25.0737 C   0  0  0  0  0  0
  -25.3712  -31.3751   26.1465 C   0  0  0  0  0  0
  -27.0336  -30.3005   24.6237 C   0  0  0  0  0  0
  -27.6055  -32.4333   25.7500 C   0  0  0  0  0  0
  -27.5588  -37.1781   24.8448 C   0  0  0  0  0  0
  -21.4211  -29.3046   22.3656 N   0  0  0  0  0  0
  -26.4275  -37.3781   23.9433 N   0  0  0  0  0  0
  -24.6942  -31.0556   22.0958 N   0  0  0  0  0  0
  -23.4204  -28.8169   23.3018 O   0  0  0  0  0  0
  -28.3124  -26.3935   20.1904 O   0  0  0  0  0  0
  -26.5635  -34.8918   22.4674 O   0  0  0  0  0  0
  -23.5456  -32.1385   23.7302 O   0  0  0  0  0  0
  -29.0782  -23.0627   18.2215 C   0  0  0  0  0  0
  -28.7842  -23.8929   19.2904 C   0  0  0  0  0  0
  -29.0507  -21.7131   19.9210 C   0  0  0  0  0  0
  -28.9492  -18.1238   19.5845 C   0  0  0  0  0  0
  -29.8335  -18.2807   21.8245 C   0  0  0  0  0  0
  -29.6385  -16.7035   19.4205 C   0  0  0  0  0  0
  -30.5075  -16.8581   21.6749 C   0  0  0  0  0  0
  -29.7116  -19.1088   20.5133 C   0  0  0  0  0  0
  -29.2003  -23.4219   16.7695 C   0  0  0  0  0  0
  -28.4611  -23.3271   21.7730 C   0  0  0  0  0  0
  -28.5817  -25.4521   19.0852 C   0  0  0  0  0  0
  -29.2603  -21.7352   18.6166 N   0  0  0  0  0  0
  -28.7509  -22.9816   20.3951 N   0  0  0  0  0  0
  -29.9674  -15.9111   20.6499 N   0  0  0  0  0  0
  -29.1433  -20.5044   20.6914 N   0  0  0  0  0  0
  -31.4663  -12.5381   19.1706 H   0  0  0  0  0  0
  -30.3472  -11.4661   19.9599 H   0  0  0  0  0  0
  -29.7837  -11.7310   17.5147 H   0  0  0  0  0  0
  -29.6403  -13.4606   17.7220 H   0  0  0  0  0  0
  -27.8805  -11.2893   18.9046 H   0  0  0  0  0  0
  -27.3763  -12.5376   17.7984 H   0  0  0  0  0  0
  -27.6297  -14.2579   19.4675 H   0  0  0  0  0  0
  -28.7142  -12.2009   21.4488 H   0  0  0  0  0  0
  -28.4324  -13.8966   21.7719 H   0  0  0  0  0  0
  -25.2775   -9.5693   22.4758 H   0  0  0  0  0  0
  -24.0021   -7.4632   22.7467 H   0  0  0  0  0  0
  -21.0849   -8.8777   19.8955 H   0  0  0  0  0  0
  -22.3706  -10.9678   19.6164 H   0  0  0  0  0  0
  -21.1999   -7.6157   23.9723 H   0  0  0  0  0  0
  -21.1482   -6.0524   25.9081 H   0  0  0  0  0  0
  -22.0597   -2.7618   23.2828 H   0  0  0  0  0  0
  -22.4088  -11.9879   22.4801 H   0  0  0  0  0  0
  -21.1089  -13.1244   22.2615 H   0  0  0  0  0  0
  -24.6625  -15.8540   20.5418 H   0  0  0  0  0  0
  -26.2908  -15.6352   20.1411 H   0  0  0  0  0  0
  -26.7205  -32.5412   23.1087 H   0  0  0  0  0  0
  -25.0061  -33.9706   25.0398 H   0  0  0  0  0  0
  -22.7215  -31.3033   21.4001 H   0  0  0  0  0  0
  -23.3772  -35.9587   23.3244 H   0  0  0  0  0  0
  -24.3587  -36.8962   22.2065 H   0  0  0  0  0  0
  -23.7210  -37.6451   23.6693 H   0  0  0  0  0  0
  -26.1126  -31.5375   20.6118 H   0  0  0  0  0  0
  -26.8462  -30.8176   22.0138 H   0  0  0  0  0  0
  -28.1091  -28.9352   21.2155 H   0  0  0  0  0  0
  -25.9352  -25.8868   19.0549 H   0  0  0  0  0  0
  -23.9618  -27.2989   19.0219 H   0  0  0  0  0  0
  -23.7611  -30.5943   19.4023 H   0  0  0  0  0  0
  -22.7594  -29.2496   19.8547 H   0  0  0  0  0  0
  -25.1286  -36.1906   25.0824 H   0  0  0  0  0  0
  -20.9990  -28.3285   24.1396 H   0  0  0  0  0  0
  -20.5680  -26.2324   23.3626 H   0  0  0  0  0  0
  -21.6648  -26.7451   22.1213 H   0  0  0  0  0  0
  -19.6917  -25.6299   21.1262 H   0  0  0  0  0  0
  -19.6703  -27.3194   20.6746 H   0  0  0  0  0  0
  -17.4215  -26.6706   21.4006 H   0  0  0  0  0  0
  -18.0306  -26.0086   22.9011 H   0  0  0  0  0  0
  -19.7934  -30.7280   24.2268 H   0  0  0  0  0  0
  -17.5015  -31.6275   24.5167 H   0  0  0  0  0  0
  -15.5349  -30.2984   23.7674 H   0  0  0  0  0  0
  -15.8681  -28.0833   22.7063 H   0  0  0  0  0  0
  -24.5877  -30.7117   25.7789 H   0  0  0  0  0  0
  -24.8917  -32.2925   26.4890 H   0  0  0  0  0  0
  -25.8021  -30.8919   27.0242 H   0  0  0  0  0  0
  -26.2924  -29.6757   24.1245 H   0  0  0  0  0  0
  -27.3987  -29.7275   25.4770 H   0  0  0  0  0  0
  -27.8816  -30.4269   23.9503 H   0  0  0  0  0  0
  -27.2671  -33.3634   26.2074 H   0  0  0  0  0  0
  -28.3854  -32.6897   25.0315 H   0  0  0  0  0  0
  -28.0739  -31.8469   26.5413 H   0  0  0  0  0  0
  -28.2553  -38.0132   24.7576 H   0  0  0  0  0  0
  -28.1142  -36.2673   24.6149 H   0  0  0  0  0  0
  -27.2332  -37.1273   25.8853 H   0  0  0  0  0  0
  -20.9400  -29.8742   21.6837 H   0  0  0  0  0  0
  -26.0148  -38.2846   24.1479 H   0  0  0  0  0  0
  -27.9331  -17.9846   19.9575 H   0  0  0  0  0  0
  -28.8408  -18.5763   18.5980 H   0  0  0  0  0  0
  -30.4071  -18.8534   22.5548 H   0  0  0  0  0  0
  -28.8426  -18.1534   22.2642 H   0  0  0  0  0  0
  -30.5644  -16.8470   18.8599 H   0  0  0  0  0  0
  -29.0078  -16.0881   18.7779 H   0  0  0  0  0  0
  -30.4668  -16.3572   22.6437 H   0  0  0  0  0  0
  -31.5685  -17.0156   21.4726 H   0  0  0  0  0  0
  -30.7143  -19.2475   20.1049 H   0  0  0  0  0  0
  -29.5140  -24.4555   16.6253 H   0  0  0  0  0  0
  -28.2470  -23.2944   16.2549 H   0  0  0  0  0  0
  -29.9306  -22.7934   16.2596 H   0  0  0  0  0  0
  -28.1580  -24.3703   21.8495 H   0  0  0  0  0  0
  -29.3475  -23.1674   22.3871 H   0  0  0  0  0  0
  -27.6501  -22.7012   22.1464 H   0  0  0  0  0  0
  -27.8935  -25.6036   18.2555 H   0  0  0  0  0  0
  -29.5231  -25.8234   18.6796 H   0  0  0  0  0  0
  -28.9054  -20.6800   21.6611 H   0  0  0  0  0  0
  1 25  1  0  0  0
  1 30  2  0  0  0
  1 84  1  0  0  0
  2  3  1  0  0  0
  2 25  1  0  0  0
  2 86  1  0  0  0
  2 87  1  0  0  0
  3  4  1  0  0  0
  3 88  1  0  0  0
  3 89  1  0  0  0
  4  5  1  0  0  0
  4 90  1  0  0  0
  4 91  1  0  0  0
  5  6  1  0  0  0
  5 26  1  0  0  0
  5 92  1  0  0  0
  6 25  1  0  0  0
  6 93  1  0  0  0
  6 94  1  0  0  0
  7  8  2  0  0  0
  7 26  1  0  0  0
  7 29  1  0  0  0
  8  9  1  0  0  0
  8 22  1  0  0  0
  9 10  1  0  0  0
  9 27  2  0  0  0
 10 11  2  0  0  0
 10 15  1  0  0  0
 11 12  1  0  0  0
 11 95  1  0  0  0
 12 13  2  0  0  0
 12 96  1  0  0  0
 13 14  1  0  0  0
 13 31  1  0  0  0
 14 15  2  0  0  0
 14 97  1  0  0  0
 15 98  1  0  0  0
 16 17  2  0  0  0
 16 21  1  0  0  0
 16 31  1  0  0  0
 17 18  1  0  0  0
 17 99  1  0  0  0
 18 19  2  0  0  0
 18100  1  0  0  0
 19 20  1  0  0  0
 19 24  1  0  0  0
 20 21  2  0  0  0
 20101  1  0  0  0
 21 23  1  0  0  0
 22 28  1  0  0  0
 22 32  2  0  0  0
 26 27  1  0  0  0
 28102  1  0  0  0
 28103  1  0  0  0
 29104  1  0  0  0
 29105  1  0  0  0
 33 34  1  0  0  0
 33 66  1  0  0  0
 33 70  2  0  0  0
 34 36  1  0  0  0
 34 59  1  0  0  0
 34106  1  0  0  0
 35 44  2  0  0  0
 35 45  1  0  0  0
 35 68  1  0  0  0
 36 56  1  0  0  0
 36107  1  0  0  0
 37 39  1  0  0  0
 37 47  1  0  0  0
 37 66  1  0  0  0
 37108  1  0  0  0
 38 43  2  0  0  0
 38 46  1  0  0  0
 38 47  1  0  0  0
 39 64  1  0  0  0
 39 67  2  0  0  0
 40 52  1  0  0  0
 40 53  2  0  0  0
 40 58  1  0  0  0
 41109  1  0  0  0
 41110  1  0  0  0
 41111  1  0  0  0
 41 48  1  0  0  0
 42 43  1  0  0  0
 42 66  1  0  0  0
 42112  1  0  0  0
 42113  1  0  0  0
 43 44  1  0  0  0
 44114  1  0  0  0
 45 46  2  0  0  0
 45115  1  0  0  0
 46116  1  0  0  0
 47117  1  0  0  0
 47118  1  0  0  0
 48 56  1  0  0  0
 48 65  1  0  0  0
 48119  1  0  0  0
 49 50  1  0  0  0
 49 53  1  0  0  0
 49 64  1  0  0  0
 49120  1  0  0  0
 50 51  1  0  0  0
 50121  1  0  0  0
 50122  1  0  0  0
 51 52  1  0  0  0
 51123  1  0  0  0
 51124  1  0  0  0
 52125  1  0  0  0
 52126  1  0  0  0
 53 54  1  0  0  0
 54 55  2  0  0  0
 54127  1  0  0  0
 55 57  1  0  0  0
 55128  1  0  0  0
 56 69  2  0  0  0
 57 58  2  0  0  0
 57129  1  0  0  0
 58130  1  0  0  0
 59 60  1  0  0  0
 59 61  1  0  0  0
 59 62  1  0  0  0
 60131  1  0  0  0
 60132  1  0  0  0
 60133  1  0  0  0
 61134  1  0  0  0
 61135  1  0  0  0
 61136  1  0  0  0
 62137  1  0  0  0
 62138  1  0  0  0
 62139  1  0  0  0
 63 65  1  0  0  0
 63140  1  0  0  0
 63141  1  0  0  0
 63142  1  0  0  0
 64143  1  0  0  0
 65144  1  0  0  0
 68 81  1  0  0  0
 71 72  2  0  0  0
 71 79  1  0  0  0
 71 82  1  0  0  0
 72 81  1  0  0  0
 72 83  1  0  0  0
 73 82  2  0  0  0
 73 83  1  0  0  0
 73 85  1  0  0  0
 74 76  1  0  0  0
 74 78  1  0  0  0
 74145  1  0  0  0
 74146  1  0  0  0
 75 77  1  0  0  0
 75 78  1  0  0  0
 75147  1  0  0  0
 75148  1  0  0  0
 76 84  1  0  0  0
 76149  1  0  0  0
 76150  1  0  0  0
 77 84  1  0  0  0
 77151  1  0  0  0
 77152  1  0  0  0
 78 85  1  0  0  0
 78153  1  0  0  0
 79154  1  0  0  0
 79155  1  0  0  0
 79156  1  0  0  0
 80 83  1  0  0  0
 80157  1  0  0  0
 80158  1  0  0  0
 80159  1  0  0  0
 81160  1  0  0  0
 81161  1  0  0  0
 85162  1  0  0  0
M  ISO  4   1 100  68 101  81 101  84 100
M  END
> <chiral flag>
0

> <version>
0

> <s_m_source_file>
/data/baiqing/PycharmProjects/Reinvent-master-3.2/result/LINK_invent/BTK/process_docking_weight1_custom_sum_contain_oxygen_bond_distance_aromatic_linkinvent_7_9_3/rearranged_h_0179.sdf

> <i_m_source_file_index>
88

> <r_mmod_Potential_Energy-OPLS-2005>
248.29216003418

> <r_mmod_Stretch_Energy-OPLS-2005>
103.089874267578

> <r_mmod_Bend_Energy-OPLS-2005>
222.687225341797

> <r_mmod_Torsional_Energy-OPLS-2005>
320.673309326172

> <r_mmod_Improper_Torsional_Energy-OPLS-2005>
10.2138586044312

> <r_mmod_Van_der_Waal_Energy-OPLS-2005>
117.472618103027

> <r_mmod_Electrostatic_Energy-OPLS-2005>
-380.385162353516

> <r_mmod_Solvation_Energy-OPLS-2005>
-221.688034057617

> <b_mmod_Minimization_Converged-OPLS-2005>
0

> <r_mmod_RMS_Derivative-OPLS-2005>
1.40423667430878

$$$$
88
                    3D
 Structure written by MMmdl.
160169  0  0  1  0            999 V2000
  -30.6059  -14.7440   20.4649 C   0  0  0  0  0  0
  -30.4273  -12.4520   19.4848 C   0  0  0  0  0  0
  -29.5107  -12.5030   18.2422 C   0  0  0  0  0  0
  -28.0382  -12.3207   18.6558 C   0  0  0  0  0  0
  -27.6394  -13.2289   19.8497 C   0  0  2  0  0  0
  -28.6765  -13.1648   20.9930 C   0  0  0  0  0  0
  -25.2487  -13.8170   20.5675 C   0  0  0  0  0  0
  -24.1784  -13.0429   20.9187 C   0  0  0  0  0  0
  -24.6362  -11.6898   20.8731 C   0  0  0  0  0  0
  -23.9052  -10.4281   21.0399 C   0  0  0  0  0  0
  -24.3612   -9.4200   21.9180 C   0  0  0  0  0  0
  -23.6293   -8.2238   22.0744 C   0  0  0  0  0  0
  -22.4278   -8.0270   21.3534 C   0  0  0  0  0  0
  -21.9912   -9.0239   20.4637 C   0  0  0  0  0  0
  -22.7227  -10.2123   20.3047 C   0  0  0  0  0  0
  -21.6850   -6.0732   22.5270 C   0  0  0  0  0  0
  -21.4018   -6.5635   23.8206 C   0  0  0  0  0  0
  -21.3660   -5.6783   24.9165 C   0  0  0  0  0  0
  -21.6048   -4.3047   24.7217 C   0  0  0  0  0  0
  -21.8814   -3.8142   23.4335 C   0  0  0  0  0  0
  -21.9194   -4.6960   22.3394 C   0  0  0  0  0  0
  -22.7810  -13.5205   21.1864 C   0  0  0  0  0  0
  -22.1660   -4.2149   21.0965 F   0  0  0  0  0  0
  -21.5636   -3.4532   25.7725 F   0  0  0  0  0  0
  -29.9822  -13.5154   20.4215 N   0  0  0  0  0  0
  -26.2907  -12.9376   20.3247 N   0  0  0  0  0  0
  -25.9284  -11.6515   20.5720 N   0  0  0  0  0  0
  -22.0465  -12.8214   22.0423 N   0  0  0  0  0  0
  -25.4196  -15.1902   20.4096 N   0  0  0  0  0  0
  -31.7833  -14.8359   20.1063 O   0  0  0  0  0  0
  -21.6624   -6.8882   21.4233 O   0  0  0  0  0  0
  -22.3499  -14.5506   20.6692 O   0  0  0  0  0  0
  -24.6313  -31.8550   23.1953 C   0  0  0  0  0  0
  -25.9155  -32.4751   23.8297 C   0  0  1  0  0  0
  -27.2229  -27.2651   20.1466 C   0  0  0  0  0  0
  -25.5944  -33.8550   24.2232 N   0  0  0  0  0  0
  -23.4281  -30.4765   21.5384 C   0  0  2  0  0  0
  -24.8759  -28.9181   20.1132 C   0  0  0  0  0  0
  -22.7498  -29.4616   22.4897 C   0  0  0  0  0  0
  -18.0285  -28.1403   22.8492 C   0  0  0  0  0  0
  -24.1493  -36.7259   23.2645 C   0  0  0  0  0  0
  -25.9722  -30.7731   21.3706 C   0  0  0  0  0  0
  -26.0472  -29.3945   20.7158 C   0  0  0  0  0  0
  -27.2261  -28.5822   20.7130 C   0  0  0  0  0  0
  -26.0334  -26.8509   19.5107 C   0  0  0  0  0  0
  -24.8744  -27.6553   19.4980 C   0  0  0  0  0  0
  -23.6464  -29.8053   20.1558 C   0  0  0  0  0  0
  -25.4125  -36.3054   24.0322 C   0  0  1  0  0  0
  -20.5898  -28.3705   23.1266 C   0  0  2  0  0  0
  -20.6778  -26.9423   22.5410 C   0  0  0  0  0  0
  -19.5752  -26.6398   21.5212 C   0  0  0  0  0  0
  -18.1929  -26.7943   22.1622 C   0  0  0  0  0  0
  -19.1551  -28.8864   23.2876 C   0  0  0  0  0  0
  -18.9474  -30.1466   23.8895 C   0  0  0  0  0  0
  -17.6475  -30.6601   24.0569 C   0  0  0  0  0  0
  -25.9070  -34.9430   23.5073 C   0  0  0  0  0  0
  -16.5363  -29.9104   23.6341 C   0  0  0  0  0  0
  -16.7271  -28.6523   23.0360 C   0  0  0  0  0  0
  -26.4528  -31.6577   25.0689 C   0  0  0  0  0  0
  -25.3737  -31.3731   26.1394 C   0  0  0  0  0  0
  -27.0396  -30.2998   24.6189 C   0  0  0  0  0  0
  -27.6076  -32.4315   25.7469 C   0  0  0  0  0  0
  -27.5567  -37.1782   24.8472 C   0  0  0  0  0  0
  -21.4205  -29.3051   22.3645 N   0  0  0  0  0  0
  -26.4287  -37.3760   23.9408 N   0  0  0  0  0  0
  -24.6963  -31.0528   22.0913 N   0  0  0  0  0  0
  -23.4184  -28.8152   23.2996 O   0  0  0  0  0  0
  -28.3265  -26.3857   20.1800 O   0  0  0  0  0  0
  -26.5644  -34.8914   22.4643 O   0  0  0  0  0  0
  -23.5462  -32.1357   23.7257 O   0  0  0  0  0  0
  -29.4816  -19.8707   19.9964 C   0  0  0  0  0  0
  -29.6749  -18.6836   20.8047 C   0  0  0  0  0  0
  -29.5271  -18.9053   22.2011 C   0  0  0  0  0  0
  -29.1668  -21.1752   20.5436 C   0  0  0  0  0  0
  -29.1839  -20.2097   22.6691 C   0  0  0  0  0  0
  -29.0587  -22.4615   19.6855 C   0  0  0  0  0  0
  -28.7266  -23.8072   19.7126 C   0  0  0  0  0  0
  -29.5457  -22.5727   18.2428 C   0  0  0  0  0  0
  -29.0243  -24.0319   18.2488 C   0  0  0  0  0  0
  -29.7728  -17.7844   23.2115 C   0  0  0  0  0  0
  -29.0477  -20.4988   24.1549 C   0  0  0  0  0  0
  -30.1888  -17.2997   20.1765 C   0  0  0  0  0  0
  -28.1433  -24.9570   20.6270 C   0  0  0  0  0  0
  -29.0088  -21.2973   21.8752 N   0  0  0  0  0  0
  -29.8484  -15.8887   20.6691 N   0  0  0  0  0  0
  -31.4698  -12.5678   19.1815 H   0  0  0  0  0  0
  -30.3666  -11.4733   19.9631 H   0  0  0  0  0  0
  -29.7973  -11.7285   17.5281 H   0  0  0  0  0  0
  -29.6350  -13.4573   17.7282 H   0  0  0  0  0  0
  -27.9089  -11.2750   18.9371 H   0  0  0  0  0  0
  -27.3769  -12.4881   17.8048 H   0  0  0  0  0  0
  -27.6312  -14.2485   19.4626 H   0  0  0  0  0  0
  -28.7037  -12.1648   21.4296 H   0  0  0  0  0  0
  -28.4034  -13.8454   21.7991 H   0  0  0  0  0  0
  -25.2767   -9.5668   22.4741 H   0  0  0  0  0  0
  -23.9999   -7.4625   22.7453 H   0  0  0  0  0  0
  -21.0851   -8.8752   19.8941 H   0  0  0  0  0  0
  -22.3691  -10.9662   19.6145 H   0  0  0  0  0  0
  -21.2003   -7.6144   23.9708 H   0  0  0  0  0  0
  -21.1498   -6.0512   25.9065 H   0  0  0  0  0  0
  -22.0601   -2.7611   23.2818 H   0  0  0  0  0  0
  -22.4103  -11.9905   22.4866 H   0  0  0  0  0  0
  -21.1065  -13.1223   22.2578 H   0  0  0  0  0  0
  -24.6511  -15.8433   20.5114 H   0  0  0  0  0  0
  -26.2653  -15.6301   20.0715 H   0  0  0  0  0  0
  -26.7226  -32.5415   23.1035 H   0  0  0  0  0  0
  -25.0085  -33.9691   25.0372 H   0  0  0  0  0  0
  -22.7261  -31.2995   21.3900 H   0  0  0  0  0  0
  -23.3759  -35.9589   23.3319 H   0  0  0  0  0  0
  -24.3571  -36.8867   22.2055 H   0  0  0  0  0  0
  -23.7249  -37.6461   23.6668 H   0  0  0  0  0  0
  -26.1139  -31.5373   20.6039 H   0  0  0  0  0  0
  -26.8473  -30.8199   22.0066 H   0  0  0  0  0  0
  -28.1278  -28.9439   21.1856 H   0  0  0  0  0  0
  -25.9956  -25.8830   19.0300 H   0  0  0  0  0  0
  -23.9744  -27.2896   19.0222 H   0  0  0  0  0  0
  -23.7730  -30.5794   19.3987 H   0  0  0  0  0  0
  -22.7646  -29.2388   19.8507 H   0  0  0  0  0  0
  -25.1317  -36.1884   25.0816 H   0  0  0  0  0  0
  -21.0001  -28.3296   24.1380 H   0  0  0  0  0  0
  -20.5673  -26.2318   23.3622 H   0  0  0  0  0  0
  -21.6644  -26.7439   22.1211 H   0  0  0  0  0  0
  -19.6916  -25.6310   21.1240 H   0  0  0  0  0  0
  -19.6696  -27.3211   20.6750 H   0  0  0  0  0  0
  -17.4202  -26.6693   21.4026 H   0  0  0  0  0  0
  -18.0324  -26.0088   22.9019 H   0  0  0  0  0  0
  -19.7956  -30.7281   24.2262 H   0  0  0  0  0  0
  -17.5038  -31.6281   24.5171 H   0  0  0  0  0  0
  -15.5372  -30.3003   23.7684 H   0  0  0  0  0  0
  -15.8670  -28.0843   22.7081 H   0  0  0  0  0  0
  -24.5927  -30.7082   25.7695 H   0  0  0  0  0  0
  -24.8925  -32.2906   26.4791 H   0  0  0  0  0  0
  -25.8033  -30.8914   27.0184 H   0  0  0  0  0  0
  -26.2991  -29.6711   24.1237 H   0  0  0  0  0  0
  -27.4113  -29.7302   25.4717 H   0  0  0  0  0  0
  -27.8842  -30.4280   23.9415 H   0  0  0  0  0  0
  -27.2697  -33.3628   26.2026 H   0  0  0  0  0  0
  -28.3900  -32.6846   25.0301 H   0  0  0  0  0  0
  -28.0737  -31.8454   26.5401 H   0  0  0  0  0  0
  -28.2600  -38.0062   24.7493 H   0  0  0  0  0  0
  -28.1037  -36.2585   24.6329 H   0  0  0  0  0  0
  -27.2273  -37.1463   25.8874 H   0  0  0  0  0  0
  -20.9390  -29.8746   21.6832 H   0  0  0  0  0  0
  -26.0155  -38.2829   24.1406 H   0  0  0  0  0  0
  -29.6203  -19.7837   18.9281 H   0  0  0  0  0  0
  -29.0442  -21.9470   17.5037 H   0  0  0  0  0  0
  -30.6248  -22.5204   18.0889 H   0  0  0  0  0  0
  -29.7939  -24.7685   18.0075 H   0  0  0  0  0  0
  -28.1605  -24.1746   17.5986 H   0  0  0  0  0  0
  -30.2467  -18.1532   24.1211 H   0  0  0  0  0  0
  -30.4420  -17.0128   22.8417 H   0  0  0  0  0  0
  -28.8301  -17.3149   23.4922 H   0  0  0  0  0  0
  -28.5158  -19.6980   24.6671 H   0  0  0  0  0  0
  -28.5117  -21.4288   24.3451 H   0  0  0  0  0  0
  -30.0343  -20.5911   24.6095 H   0  0  0  0  0  0
  -31.2766  -17.3859   20.1700 H   0  0  0  0  0  0
  -29.9021  -17.3154   19.1250 H   0  0  0  0  0  0
  -27.0851  -24.7433   20.7735 H   0  0  0  0  0  0
  -28.5898  -24.8550   21.6162 H   0  0  0  0  0  0
  -28.8979  -15.7581   20.9826 H   0  0  0  0  0  0
  1 25  1  0  0  0
  1 30  2  0  0  0
  1 85  1  0  0  0
  2  3  1  0  0  0
  2 25  1  0  0  0
  2 86  1  0  0  0
  2 87  1  0  0  0
  3  4  1  0  0  0
  3 88  1  0  0  0
  3 89  1  0  0  0
  4  5  1  0  0  0
  4 90  1  0  0  0
  4 91  1  0  0  0
  5  6  1  0  0  0
  5 26  1  0  0  0
  5 92  1  0  0  0
  6 25  1  0  0  0
  6 93  1  0  0  0
  6 94  1  0  0  0
  7  8  2  0  0  0
  7 26  1  0  0  0
  7 29  1  0  0  0
  8  9  1  0  0  0
  8 22  1  0  0  0
  9 10  1  0  0  0
  9 27  2  0  0  0
 10 11  2  0  0  0
 10 15  1  0  0  0
 11 12  1  0  0  0
 11 95  1  0  0  0
 12 13  2  0  0  0
 12 96  1  0  0  0
 13 14  1  0  0  0
 13 31  1  0  0  0
 14 15  2  0  0  0
 14 97  1  0  0  0
 15 98  1  0  0  0
 16 17  2  0  0  0
 16 21  1  0  0  0
 16 31  1  0  0  0
 17 18  1  0  0  0
 17 99  1  0  0  0
 18 19  2  0  0  0
 18100  1  0  0  0
 19 20  1  0  0  0
 19 24  1  0  0  0
 20 21  2  0  0  0
 20101  1  0  0  0
 21 23  1  0  0  0
 22 28  1  0  0  0
 22 32  2  0  0  0
 26 27  1  0  0  0
 28102  1  0  0  0
 28103  1  0  0  0
 29104  1  0  0  0
 29105  1  0  0  0
 33 34  1  0  0  0
 33 66  1  0  0  0
 33 70  2  0  0  0
 34 36  1  0  0  0
 34 59  1  0  0  0
 34106  1  0  0  0
 35 44  2  0  0  0
 35 45  1  0  0  0
 35 68  1  0  0  0
 36 56  1  0  0  0
 36107  1  0  0  0
 37 39  1  0  0  0
 37 47  1  0  0  0
 37 66  1  0  0  0
 37108  1  0  0  0
 38 43  2  0  0  0
 38 46  1  0  0  0
 38 47  1  0  0  0
 39 64  1  0  0  0
 39 67  2  0  0  0
 40 52  1  0  0  0
 40 53  2  0  0  0
 40 58  1  0  0  0
 41109  1  0  0  0
 41110  1  0  0  0
 41111  1  0  0  0
 41 48  1  0  0  0
 42 43  1  0  0  0
 42 66  1  0  0  0
 42112  1  0  0  0
 42113  1  0  0  0
 43 44  1  0  0  0
 44114  1  0  0  0
 45 46  2  0  0  0
 45115  1  0  0  0
 46116  1  0  0  0
 47117  1  0  0  0
 47118  1  0  0  0
 48 56  1  0  0  0
 48 65  1  0  0  0
 48119  1  0  0  0
 49 50  1  0  0  0
 49 53  1  0  0  0
 49 64  1  0  0  0
 49120  1  0  0  0
 50 51  1  0  0  0
 50121  1  0  0  0
 50122  1  0  0  0
 51 52  1  0  0  0
 51123  1  0  0  0
 51124  1  0  0  0
 52125  1  0  0  0
 52126  1  0  0  0
 53 54  1  0  0  0
 54 55  2  0  0  0
 54127  1  0  0  0
 55 57  1  0  0  0
 55128  1  0  0  0
 56 69  2  0  0  0
 57 58  2  0  0  0
 57129  1  0  0  0
 58130  1  0  0  0
 59 60  1  0  0  0
 59 61  1  0  0  0
 59 62  1  0  0  0
 60131  1  0  0  0
 60132  1  0  0  0
 60133  1  0  0  0
 61134  1  0  0  0
 61135  1  0  0  0
 61136  1  0  0  0
 62137  1  0  0  0
 62138  1  0  0  0
 62139  1  0  0  0
 63 65  1  0  0  0
 63140  1  0  0  0
 63141  1  0  0  0
 63142  1  0  0  0
 64143  1  0  0  0
 65144  1  0  0  0
 68 83  1  0  0  0
 71 72  2  0  0  0
 71 74  1  0  0  0
 71145  1  0  0  0
 72 73  1  0  0  0
 72 82  1  0  0  0
 73 75  2  0  0  0
 73 80  1  0  0  0
 74 76  1  0  0  0
 74 84  2  0  0  0
 75 81  1  0  0  0
 75 84  1  0  0  0
 76 77  2  0  0  0
 76 78  1  0  0  0
 77 79  1  0  0  0
 77 83  1  0  0  0
 78 79  1  0  0  0
 78146  1  0  0  0
 78147  1  0  0  0
 79148  1  0  0  0
 79149  1  0  0  0
 80150  1  0  0  0
 80151  1  0  0  0
 80152  1  0  0  0
 81153  1  0  0  0
 81154  1  0  0  0
 81155  1  0  0  0
 82 85  1  0  0  0
 82156  1  0  0  0
 82157  1  0  0  0
 83158  1  0  0  0
 83159  1  0  0  0
 85160  1  0  0  0
M  ISO  4   1 100  68 101  83 101  85 100
M  END
> <chiral flag>
0

> <version>
0

> <s_m_source_file>
/data/baiqing/PycharmProjects/Reinvent-master-3.2/result/LINK_invent/BTK/process_docking_weight1_custom_sum_contain_oxygen_bond_distance_aromatic_linkinvent_7_9_3/rearranged_h_0179.sdf

> <i_m_source_file_index>
89

> <r_mmod_Potential_Energy-OPLS-2005>
-66.9555740356445

> <r_mmod_Stretch_Energy-OPLS-2005>
119.001174926758

> <r_mmod_Bend_Energy-OPLS-2005>
214.004302978516

> <r_mmod_Torsional_Energy-OPLS-2005>
223.259490966797

> <r_mmod_Improper_Torsional_Energy-OPLS-2005>
7.13901424407959

> <r_mmod_Van_der_Waal_Energy-OPLS-2005>
139.302734375

> <r_mmod_Electrostatic_Energy-OPLS-2005>
-632.535766601562

> <r_mmod_Solvation_Energy-OPLS-2005>
-219.646881103516

> <b_mmod_Minimization_Converged-OPLS-2005>
0

> <r_mmod_RMS_Derivative-OPLS-2005>
2.79959392547607

$$$$
89
                    3D
 Structure written by MMmdl.
155164  0  0  1  0            999 V2000
  -30.5215  -14.9860   20.3996 C   0  0  0  0  0  0
  -30.4415  -12.6084   19.5087 C   0  0  0  0  0  0
  -29.5274  -12.5325   18.2627 C   0  0  0  0  0  0
  -28.0601  -12.3140   18.6772 C   0  0  0  0  0  0
  -27.6288  -13.2507   19.8364 C   0  0  2  0  0  0
  -28.6687  -13.2930   20.9761 C   0  0  0  0  0  0
  -25.2462  -13.8215   20.5707 C   0  0  0  0  0  0
  -24.1780  -13.0439   20.9221 C   0  0  0  0  0  0
  -24.6401  -11.6926   20.8750 C   0  0  0  0  0  0
  -23.9090  -10.4293   21.0409 C   0  0  0  0  0  0
  -24.3635   -9.4205   21.9185 C   0  0  0  0  0  0
  -23.6304   -8.2243   22.0760 C   0  0  0  0  0  0
  -22.4282   -8.0288   21.3550 C   0  0  0  0  0  0
  -21.9923   -9.0262   20.4651 C   0  0  0  0  0  0
  -22.7259  -10.2138   20.3058 C   0  0  0  0  0  0
  -21.6851   -6.0745   22.5279 C   0  0  0  0  0  0
  -21.4015   -6.5646   23.8213 C   0  0  0  0  0  0
  -21.3662   -5.6793   24.9169 C   0  0  0  0  0  0
  -21.6042   -4.3054   24.7216 C   0  0  0  0  0  0
  -21.8818   -3.8154   23.4333 C   0  0  0  0  0  0
  -21.9192   -4.6975   22.3394 C   0  0  0  0  0  0
  -22.7798  -13.5217   21.1853 C   0  0  0  0  0  0
  -22.1662   -4.2166   21.0969 F   0  0  0  0  0  0
  -21.5627   -3.4535   25.7726 F   0  0  0  0  0  0
  -29.9410  -13.7154   20.3766 N   0  0  0  0  0  0
  -26.2883  -12.9450   20.3223 N   0  0  0  0  0  0
  -25.9333  -11.6579   20.5722 N   0  0  0  0  0  0
  -22.0443  -12.8229   22.0417 N   0  0  0  0  0  0
  -25.4115  -15.1946   20.4132 N   0  0  0  0  0  0
  -31.7259  -15.0482   20.1256 O   0  0  0  0  0  0
  -21.6639   -6.8893   21.4245 O   0  0  0  0  0  0
  -22.3489  -14.5518   20.6685 O   0  0  0  0  0  0
  -24.6461  -31.8428   23.1852 C   0  0  0  0  0  0
  -25.9220  -32.4675   23.8262 C   0  0  1  0  0  0
  -27.2069  -27.1020   20.1452 C   0  0  0  0  0  0
  -25.5964  -33.8486   24.2169 N   0  0  0  0  0  0
  -23.4495  -30.4627   21.5334 C   0  0  2  0  0  0
  -24.8958  -28.8855   20.1085 C   0  0  0  0  0  0
  -22.7581  -29.4552   22.4866 C   0  0  0  0  0  0
  -18.0307  -28.1394   22.8480 C   0  0  0  0  0  0
  -24.1497  -36.7245   23.2643 C   0  0  0  0  0  0
  -26.0095  -30.7038   21.3907 C   0  0  0  0  0  0
  -26.0768  -29.3129   20.7287 C   0  0  0  0  0  0
  -27.2329  -28.4382   20.7283 C   0  0  0  0  0  0
  -25.9972  -26.7869   19.4872 C   0  0  0  0  0  0
  -24.8708  -27.6371   19.4723 C   0  0  0  0  0  0
  -23.6750  -29.7930   20.1528 C   0  0  0  0  0  0
  -25.4130  -36.3017   24.0308 C   0  0  1  0  0  0
  -20.5921  -28.3729   23.1243 C   0  0  2  0  0  0
  -20.6801  -26.9436   22.5411 C   0  0  0  0  0  0
  -19.5769  -26.6382   21.5228 C   0  0  0  0  0  0
  -18.1944  -26.7931   22.1629 C   0  0  0  0  0  0
  -19.1562  -28.8881   23.2846 C   0  0  0  0  0  0
  -18.9478  -30.1479   23.8868 C   0  0  0  0  0  0
  -17.6472  -30.6591   24.0562 C   0  0  0  0  0  0
  -25.9086  -34.9395   23.5046 C   0  0  0  0  0  0
  -16.5364  -29.9081   23.6341 C   0  0  0  0  0  0
  -16.7291  -28.6499   23.0364 C   0  0  0  0  0  0
  -26.4520  -31.6553   25.0717 C   0  0  0  0  0  0
  -25.3698  -31.3760   26.1410 C   0  0  0  0  0  0
  -27.0379  -30.2931   24.6334 C   0  0  0  0  0  0
  -27.6035  -32.4341   25.7503 C   0  0  0  0  0  0
  -27.5575  -37.1779   24.8461 C   0  0  0  0  0  0
  -21.4271  -29.3044   22.3606 N   0  0  0  0  0  0
  -26.4286  -37.3736   23.9401 N   0  0  0  0  0  0
  -24.7219  -31.0260   22.0905 N   0  0  0  0  0  0
  -23.4214  -28.8127   23.3045 O   0  0  0  0  0  0
  -28.2466  -26.0905   20.2032 O   0  0  0  0  0  0
  -26.5681  -34.8895   22.4630 O   0  0  0  0  0  0
  -23.5573  -32.1335   23.7047 O   0  0  0  0  0  0
  -29.5789  -20.7936   20.2855 C   0  0  0  0  0  0
  -30.9307  -21.2162   20.1523 C   0  0  0  0  0  0
  -30.3836  -23.5081   20.0324 C   0  0  0  0  0  0
  -28.9950  -23.2686   20.1652 C   0  0  0  0  0  0
  -29.0280  -18.3223   19.2299 C   0  0  0  0  0  0
  -29.2177  -19.1622   20.4592 C   0  0  1  0  0  0
  -30.0314  -17.6840   20.1817 C   0  0  1  0  0  0
  -32.0905  -20.2442   20.1155 C   0  0  0  0  0  0
  -30.9500  -24.9033   19.8453 C   0  0  0  0  0  0
  -27.9317  -24.5509   20.0699 C   0  0  0  0  0  0
  -28.6295  -21.8768   20.2802 N   0  0  0  0  0  0
  -31.3073  -22.5157   20.0318 N   0  0  0  0  0  0
  -29.7287  -16.1740   20.4962 N   0  0  0  0  0  0
  -31.4750  -12.7701   19.1983 H   0  0  0  0  0  0
  -30.4394  -11.6621   20.0522 H   0  0  0  0  0  0
  -29.8554  -11.7306   17.6000 H   0  0  0  0  0  0
  -29.6124  -13.4570   17.6892 H   0  0  0  0  0  0
  -27.9575  -11.2738   18.9893 H   0  0  0  0  0  0
  -27.3998  -12.4402   17.8182 H   0  0  0  0  0  0
  -27.5875  -14.2501   19.4021 H   0  0  0  0  0  0
  -28.7618  -12.3203   21.4609 H   0  0  0  0  0  0
  -28.3609  -13.9969   21.7507 H   0  0  0  0  0  0
  -25.2786   -9.5679   22.4751 H   0  0  0  0  0  0
  -24.0011   -7.4639   22.7482 H   0  0  0  0  0  0
  -21.0852   -8.8791   19.8957 H   0  0  0  0  0  0
  -22.3727  -10.9679   19.6164 H   0  0  0  0  0  0
  -21.2009   -7.6156   23.9722 H   0  0  0  0  0  0
  -21.1484   -6.0518   25.9074 H   0  0  0  0  0  0
  -22.0596   -2.7620   23.2817 H   0  0  0  0  0  0
  -22.4075  -11.9923   22.4853 H   0  0  0  0  0  0
  -21.1055  -13.1258   22.2588 H   0  0  0  0  0  0
  -24.6367  -15.8402   20.5198 H   0  0  0  0  0  0
  -26.2440  -15.6356   20.0458 H   0  0  0  0  0  0
  -26.7290  -32.5257   23.0994 H   0  0  0  0  0  0
  -25.0083  -33.9610   25.0296 H   0  0  0  0  0  0
  -22.7516  -31.2886   21.3798 H   0  0  0  0  0  0
  -23.3761  -35.9576   23.3286 H   0  0  0  0  0  0
  -24.3597  -36.8899   22.2064 H   0  0  0  0  0  0
  -23.7249  -37.6429   23.6704 H   0  0  0  0  0  0
  -26.1762  -31.4601   20.6224 H   0  0  0  0  0  0
  -26.8755  -30.7494   22.0391 H   0  0  0  0  0  0
  -28.1315  -28.7616   21.2337 H   0  0  0  0  0  0
  -25.8767  -25.8393   18.9871 H   0  0  0  0  0  0
  -23.9691  -27.3057   18.9746 H   0  0  0  0  0  0
  -23.8103  -30.5687   19.3980 H   0  0  0  0  0  0
  -22.7869  -29.2386   19.8440 H   0  0  0  0  0  0
  -25.1320  -36.1839   25.0801 H   0  0  0  0  0  0
  -21.0006  -28.3325   24.1369 H   0  0  0  0  0  0
  -20.5731  -26.2347   23.3632 H   0  0  0  0  0  0
  -21.6666  -26.7462   22.1195 H   0  0  0  0  0  0
  -19.6943  -25.6289   21.1272 H   0  0  0  0  0  0
  -19.6698  -27.3184   20.6750 H   0  0  0  0  0  0
  -17.4226  -26.6686   21.4017 H   0  0  0  0  0  0
  -18.0325  -26.0076   22.9026 H   0  0  0  0  0  0
  -19.7956  -30.7305   24.2215 H   0  0  0  0  0  0
  -17.5025  -31.6269   24.5169 H   0  0  0  0  0  0
  -15.5363  -30.2976   23.7673 H   0  0  0  0  0  0
  -15.8692  -28.0805   22.7099 H   0  0  0  0  0  0
  -24.5890  -30.7086   25.7742 H   0  0  0  0  0  0
  -24.8875  -32.2949   26.4757 H   0  0  0  0  0  0
  -25.7987  -30.8997   27.0235 H   0  0  0  0  0  0
  -26.2999  -29.6652   24.1326 H   0  0  0  0  0  0
  -27.3938  -29.7237   25.4930 H   0  0  0  0  0  0
  -27.8940  -30.4124   23.9690 H   0  0  0  0  0  0
  -27.2600  -33.3665   26.1998 H   0  0  0  0  0  0
  -28.3879  -32.6868   25.0358 H   0  0  0  0  0  0
  -28.0665  -31.8531   26.5485 H   0  0  0  0  0  0
  -28.2571  -38.0094   24.7514 H   0  0  0  0  0  0
  -28.1091  -36.2621   24.6278 H   0  0  0  0  0  0
  -27.2303  -37.1414   25.8867 H   0  0  0  0  0  0
  -20.9495  -29.8710   21.6736 H   0  0  0  0  0  0
  -26.0142  -38.2798   24.1407 H   0  0  0  0  0  0
  -29.4398  -18.7057   18.2981 H   0  0  0  0  0  0
  -28.0529  -17.8529   19.1190 H   0  0  0  0  0  0
  -28.4338  -19.1017   21.2119 H   0  0  0  0  0  0
  -31.0736  -17.8103   19.9080 H   0  0  0  0  0  0
  -32.0399  -19.5440   20.9478 H   0  0  0  0  0  0
  -33.0478  -20.7610   20.1895 H   0  0  0  0  0  0
  -32.0892  -19.6975   19.1723 H   0  0  0  0  0  0
  -30.5132  -25.3793   18.9671 H   0  0  0  0  0  0
  -32.0311  -24.8820   19.7060 H   0  0  0  0  0  0
  -30.7431  -25.5234   20.7170 H   0  0  0  0  0  0
  -27.1373  -24.3360   20.7842 H   0  0  0  0  0  0
  -27.4814  -24.4189   19.0869 H   0  0  0  0  0  0
  -28.7652  -15.9869   20.7312 H   0  0  0  0  0  0
  1 25  1  0  0  0
  1 30  2  0  0  0
  1 83  1  0  0  0
  2  3  1  0  0  0
  2 25  1  0  0  0
  2 84  1  0  0  0
  2 85  1  0  0  0
  3  4  1  0  0  0
  3 86  1  0  0  0
  3 87  1  0  0  0
  4  5  1  0  0  0
  4 88  1  0  0  0
  4 89  1  0  0  0
  5  6  1  0  0  0
  5 26  1  0  0  0
  5 90  1  0  0  0
  6 25  1  0  0  0
  6 91  1  0  0  0
  6 92  1  0  0  0
  7  8  2  0  0  0
  7 26  1  0  0  0
  7 29  1  0  0  0
  8  9  1  0  0  0
  8 22  1  0  0  0
  9 10  1  0  0  0
  9 27  2  0  0  0
 10 11  2  0  0  0
 10 15  1  0  0  0
 11 12  1  0  0  0
 11 93  1  0  0  0
 12 13  2  0  0  0
 12 94  1  0  0  0
 13 14  1  0  0  0
 13 31  1  0  0  0
 14 15  2  0  0  0
 14 95  1  0  0  0
 15 96  1  0  0  0
 16 17  2  0  0  0
 16 21  1  0  0  0
 16 31  1  0  0  0
 17 18  1  0  0  0
 17 97  1  0  0  0
 18 19  2  0  0  0
 18 98  1  0  0  0
 19 20  1  0  0  0
 19 24  1  0  0  0
 20 21  2  0  0  0
 20 99  1  0  0  0
 21 23  1  0  0  0
 22 28  1  0  0  0
 22 32  2  0  0  0
 26 27  1  0  0  0
 28100  1  0  0  0
 28101  1  0  0  0
 29102  1  0  0  0
 29103  1  0  0  0
 33 34  1  0  0  0
 33 66  1  0  0  0
 33 70  2  0  0  0
 34 36  1  0  0  0
 34 59  1  0  0  0
 34104  1  0  0  0
 35 44  2  0  0  0
 35 45  1  0  0  0
 35 68  1  0  0  0
 36 56  1  0  0  0
 36105  1  0  0  0
 37 39  1  0  0  0
 37 47  1  0  0  0
 37 66  1  0  0  0
 37106  1  0  0  0
 38 43  2  0  0  0
 38 46  1  0  0  0
 38 47  1  0  0  0
 39 64  1  0  0  0
 39 67  2  0  0  0
 40 52  1  0  0  0
 40 53  2  0  0  0
 40 58  1  0  0  0
 41107  1  0  0  0
 41108  1  0  0  0
 41109  1  0  0  0
 41 48  1  0  0  0
 42 43  1  0  0  0
 42 66  1  0  0  0
 42110  1  0  0  0
 42111  1  0  0  0
 43 44  1  0  0  0
 44112  1  0  0  0
 45 46  2  0  0  0
 45113  1  0  0  0
 46114  1  0  0  0
 47115  1  0  0  0
 47116  1  0  0  0
 48 56  1  0  0  0
 48 65  1  0  0  0
 48117  1  0  0  0
 49 50  1  0  0  0
 49 53  1  0  0  0
 49 64  1  0  0  0
 49118  1  0  0  0
 50 51  1  0  0  0
 50119  1  0  0  0
 50120  1  0  0  0
 51 52  1  0  0  0
 51121  1  0  0  0
 51122  1  0  0  0
 52123  1  0  0  0
 52124  1  0  0  0
 53 54  1  0  0  0
 54 55  2  0  0  0
 54125  1  0  0  0
 55 57  1  0  0  0
 55126  1  0  0  0
 56 69  2  0  0  0
 57 58  2  0  0  0
 57127  1  0  0  0
 58128  1  0  0  0
 59 60  1  0  0  0
 59 61  1  0  0  0
 59 62  1  0  0  0
 60129  1  0  0  0
 60130  1  0  0  0
 60131  1  0  0  0
 61132  1  0  0  0
 61133  1  0  0  0
 61134  1  0  0  0
 62135  1  0  0  0
 62136  1  0  0  0
 62137  1  0  0  0
 63 65  1  0  0  0
 63138  1  0  0  0
 63139  1  0  0  0
 63140  1  0  0  0
 64141  1  0  0  0
 65142  1  0  0  0
 68 80  1  0  0  0
 71 72  2  0  0  0
 71 81  1  0  0  0
 71 76  1  0  0  0
 72 78  1  0  0  0
 72 82  1  0  0  0
 73 74  1  0  0  0
 73 79  1  0  0  0
 73 82  2  0  0  0
 74 80  1  0  0  0
 74 81  2  0  0  0
 75 76  1  0  0  0
 75 77  1  0  0  0
 75143  1  0  0  0
 75144  1  0  0  0
 76 77  1  0  0  0
 76145  1  0  0  0
 77 83  1  0  0  0
 77146  1  0  0  0
 78147  1  0  0  0
 78148  1  0  0  0
 78149  1  0  0  0
 79150  1  0  0  0
 79151  1  0  0  0
 79152  1  0  0  0
 80153  1  0  0  0
 80154  1  0  0  0
 83155  1  0  0  0
M  ISO  4   1 100  68 101  80 101  83 100
M  END
> <chiral flag>
0

> <version>
0

> <s_m_source_file>
/data/baiqing/PycharmProjects/Reinvent-master-3.2/result/LINK_invent/BTK/process_docking_weight1_custom_sum_contain_oxygen_bond_distance_aromatic_linkinvent_7_9_3/rearranged_h_0179.sdf

> <i_m_source_file_index>
90

> <r_mmod_Potential_Energy-OPLS-2005>
665.073120117188

> <r_mmod_Stretch_Energy-OPLS-2005>
322.326782226562

> <r_mmod_Bend_Energy-OPLS-2005>
263.275665283203

> <r_mmod_Torsional_Energy-OPLS-2005>
256.223114013672

> <r_mmod_Improper_Torsional_Energy-OPLS-2005>
5.51795244216919

> <r_mmod_Van_der_Waal_Energy-OPLS-2005>
134.234405517578

> <r_mmod_Electrostatic_Energy-OPLS-2005>
-309.910339355469

> <r_mmod_Solvation_Energy-OPLS-2005>
-228.687042236328

> <b_mmod_Minimization_Converged-OPLS-2005>
0

> <r_mmod_RMS_Derivative-OPLS-2005>
1.3972647190094

$$$$
90
                    3D
 Structure written by MMmdl.
149158  0  0  1  0            999 V2000
  -30.5206  -15.1424   20.3701 C   0  0  0  0  0  0
  -30.4380  -12.7146   19.5231 C   0  0  0  0  0  0
  -29.5354  -12.5485   18.2767 C   0  0  0  0  0  0
  -28.0714  -12.3144   18.6912 C   0  0  0  0  0  0
  -27.6167  -13.2745   19.8220 C   0  0  2  0  0  0
  -28.6576  -13.4108   20.9553 C   0  0  0  0  0  0
  -25.2394  -13.8269   20.5708 C   0  0  0  0  0  0
  -24.1728  -13.0455   20.9214 C   0  0  0  0  0  0
  -24.6358  -11.6949   20.8692 C   0  0  0  0  0  0
  -23.9040  -10.4302   21.0345 C   0  0  0  0  0  0
  -24.3607   -9.4231   21.9132 C   0  0  0  0  0  0
  -23.6301   -8.2256   22.0714 C   0  0  0  0  0  0
  -22.4282   -8.0265   21.3516 C   0  0  0  0  0  0
  -21.9888   -9.0224   20.4616 C   0  0  0  0  0  0
  -22.7192  -10.2122   20.3009 C   0  0  0  0  0  0
  -21.6882   -6.0698   22.5235 C   0  0  0  0  0  0
  -21.4043   -6.5606   23.8162 C   0  0  0  0  0  0
  -21.3670   -5.6760   24.9124 C   0  0  0  0  0  0
  -21.6061   -4.3021   24.7186 C   0  0  0  0  0  0
  -21.8826   -3.8105   23.4305 C   0  0  0  0  0  0
  -21.9213   -4.6923   22.3362 C   0  0  0  0  0  0
  -22.7744  -13.5185   21.1901 C   0  0  0  0  0  0
  -22.1680   -4.2096   21.0947 F   0  0  0  0  0  0
  -21.5635   -3.4517   25.7708 F   0  0  0  0  0  0
  -29.9107  -13.8659   20.3323 N   0  0  0  0  0  0
  -26.2828  -12.9543   20.3199 N   0  0  0  0  0  0
  -25.9302  -11.6652   20.5681 N   0  0  0  0  0  0
  -22.0430  -12.8168   22.0485 N   0  0  0  0  0  0
  -25.4103  -15.2000   20.4177 N   0  0  0  0  0  0
  -31.7378  -15.1228   20.1463 O   0  0  0  0  0  0
  -21.6671   -6.8842   21.4199 O   0  0  0  0  0  0
  -22.3395  -14.5458   20.6703 O   0  0  0  0  0  0
  -24.6584  -31.8270   23.1726 C   0  0  0  0  0  0
  -25.9291  -32.4605   23.8172 C   0  0  1  0  0  0
  -27.2311  -26.9983   20.1605 C   0  0  0  0  0  0
  -25.5974  -33.8418   24.2079 N   0  0  0  0  0  0
  -23.4686  -30.4419   21.5212 C   0  0  2  0  0  0
  -24.9205  -28.8408   20.1099 C   0  0  0  0  0  0
  -22.7632  -29.4469   22.4801 C   0  0  0  0  0  0
  -18.0311  -28.1402   22.8454 C   0  0  0  0  0  0
  -24.1505  -36.7225   23.2653 C   0  0  0  0  0  0
  -26.0332  -30.6596   21.3885 C   0  0  0  0  0  0
  -26.1043  -29.2553   20.7352 C   0  0  0  0  0  0
  -27.2560  -28.3551   20.7351 C   0  0  0  0  0  0
  -26.0150  -26.7203   19.4956 C   0  0  0  0  0  0
  -24.8980  -27.5920   19.4713 C   0  0  0  0  0  0
  -23.7027  -29.7602   20.1457 C   0  0  0  0  0  0
  -25.4137  -36.2973   24.0304 C   0  0  1  0  0  0
  -20.5932  -28.3751   23.1201 C   0  0  2  0  0  0
  -20.6804  -26.9449   22.5394 C   0  0  0  0  0  0
  -19.5793  -26.6378   21.5199 C   0  0  0  0  0  0
  -18.1964  -26.7933   22.1599 C   0  0  0  0  0  0
  -19.1564  -28.8892   23.2816 C   0  0  0  0  0  0
  -18.9486  -30.1470   23.8882 C   0  0  0  0  0  0
  -17.6484  -30.6605   24.0551 C   0  0  0  0  0  0
  -25.9102  -34.9362   23.5014 C   0  0  0  0  0  0
  -16.5375  -29.9097   23.6339 C   0  0  0  0  0  0
  -16.7287  -28.6504   23.0375 C   0  0  0  0  0  0
  -26.4563  -31.6527   25.0674 C   0  0  0  0  0  0
  -25.3719  -31.3721   26.1341 C   0  0  0  0  0  0
  -27.0429  -30.2905   24.6331 C   0  0  0  0  0  0
  -27.6074  -32.4311   25.7475 C   0  0  0  0  0  0
  -27.5573  -37.1754   24.8462 C   0  0  0  0  0  0
  -21.4305  -29.3050   22.3543 N   0  0  0  0  0  0
  -26.4268  -37.3710   23.9423 N   0  0  0  0  0  0
  -24.7412  -31.0012   22.0818 N   0  0  0  0  0  0
  -23.4196  -28.8047   23.3033 O   0  0  0  0  0  0
  -28.2624  -25.9376   20.2085 O   0  0  0  0  0  0
  -26.5695  -34.8895   22.4604 O   0  0  0  0  0  0
  -23.5668  -32.1216   23.6862 O   0  0  0  0  0  0
  -30.9361  -20.8913   19.9007 C   0  0  0  0  0  0
  -30.3756  -23.1968   19.8586 C   0  0  0  0  0  0
  -29.6184  -20.4533   20.1814 C   0  0  0  0  0  0
  -29.0071  -22.9807   20.1371 C   0  0  0  0  0  0
  -29.8283  -17.5377   19.3420 C   0  0  0  0  0  0
  -30.1038  -17.6574   21.2941 C   0  0  0  0  0  0
  -29.4037  -18.7491   20.3265 C   0  0  0  0  0  0
  -27.9620  -24.3431   20.1490 C   0  0  0  0  0  0
  -31.2980  -22.1992   19.7512 N   0  0  0  0  0  0
  -28.6669  -21.5586   20.2903 N   0  0  0  0  0  0
  -29.8051  -16.4232   20.4125 N   0  0  0  0  0  0
  -31.4712  -12.8710   19.2106 H   0  0  0  0  0  0
  -30.4522  -11.7966   20.1137 H   0  0  0  0  0  0
  -29.8858  -11.7146   17.6641 H   0  0  0  0  0  0
  -29.6069  -13.4458   17.6595 H   0  0  0  0  0  0
  -27.9880  -11.2823   19.0355 H   0  0  0  0  0  0
  -27.4116  -12.3997   17.8267 H   0  0  0  0  0  0
  -27.5429  -14.2546   19.3479 H   0  0  0  0  0  0
  -28.7920  -12.4670   21.4862 H   0  0  0  0  0  0
  -28.3218  -14.1401   21.6946 H   0  0  0  0  0  0
  -25.2747   -9.5742   22.4693 H   0  0  0  0  0  0
  -24.0013   -7.4655   22.7430 H   0  0  0  0  0  0
  -21.0805   -8.8718   19.8937 H   0  0  0  0  0  0
  -22.3601  -10.9646   19.6116 H   0  0  0  0  0  0
  -21.2044   -7.6112   23.9655 H   0  0  0  0  0  0
  -21.1510   -6.0489   25.9033 H   0  0  0  0  0  0
  -22.0610   -2.7564   23.2816 H   0  0  0  0  0  0
  -22.4118  -11.9882   22.4913 H   0  0  0  0  0  0
  -21.1004  -13.1113   22.2627 H   0  0  0  0  0  0
  -24.6503  -15.8611   20.5365 H   0  0  0  0  0  0
  -26.2734  -15.6390   20.1198 H   0  0  0  0  0  0
  -26.7354  -32.5166   23.0875 H   0  0  0  0  0  0
  -25.0081  -33.9495   25.0196 H   0  0  0  0  0  0
  -22.7816  -31.2748   21.3546 H   0  0  0  0  0  0
  -23.3749  -35.9576   23.3274 H   0  0  0  0  0  0
  -24.3607  -36.8905   22.2085 H   0  0  0  0  0  0
  -23.7278  -37.6416   23.6713 H   0  0  0  0  0  0
  -26.2014  -31.4037   20.6094 H   0  0  0  0  0  0
  -26.8979  -30.7194   22.0369 H   0  0  0  0  0  0
  -28.1568  -28.6774   21.2393 H   0  0  0  0  0  0
  -25.8922  -25.7749   18.9904 H   0  0  0  0  0  0
  -24.0020  -27.2724   18.9560 H   0  0  0  0  0  0
  -23.8483  -30.5282   19.3862 H   0  0  0  0  0  0
  -22.8153  -29.2093   19.8308 H   0  0  0  0  0  0
  -25.1323  -36.1770   25.0787 H   0  0  0  0  0  0
  -21.0008  -28.3360   24.1331 H   0  0  0  0  0  0
  -20.5693  -26.2381   23.3626 H   0  0  0  0  0  0
  -21.6678  -26.7458   22.1211 H   0  0  0  0  0  0
  -19.6981  -25.6276   21.1277 H   0  0  0  0  0  0
  -19.6738  -27.3153   20.6707 H   0  0  0  0  0  0
  -17.4229  -26.6639   21.4005 H   0  0  0  0  0  0
  -18.0391  -26.0084   22.9013 H   0  0  0  0  0  0
  -19.7965  -30.7249   24.2284 H   0  0  0  0  0  0
  -17.5055  -31.6302   24.5124 H   0  0  0  0  0  0
  -15.5380  -30.3007   23.7673 H   0  0  0  0  0  0
  -15.8678  -28.0801   22.7157 H   0  0  0  0  0  0
  -24.5946  -30.7025   25.7621 H   0  0  0  0  0  0
  -24.8863  -32.2908   26.4663 H   0  0  0  0  0  0
  -25.7997  -30.8958   27.0177 H   0  0  0  0  0  0
  -26.3053  -29.6600   24.1348 H   0  0  0  0  0  0
  -27.4006  -29.7242   25.4938 H   0  0  0  0  0  0
  -27.8983  -30.4083   23.9671 H   0  0  0  0  0  0
  -27.2652  -33.3647   26.1940 H   0  0  0  0  0  0
  -28.3935  -32.6807   25.0335 H   0  0  0  0  0  0
  -28.0671  -31.8511   26.5484 H   0  0  0  0  0  0
  -28.2524  -38.0105   24.7522 H   0  0  0  0  0  0
  -28.1105  -36.2625   24.6221 H   0  0  0  0  0  0
  -27.2295  -37.1324   25.8861 H   0  0  0  0  0  0
  -20.9544  -29.8749   21.6691 H   0  0  0  0  0  0
  -26.0105  -38.2761   24.1436 H   0  0  0  0  0  0
  -31.7386  -20.1729   19.7900 H   0  0  0  0  0  0
  -30.7457  -24.1990   19.6912 H   0  0  0  0  0  0
  -30.8207  -17.6847   18.9064 H   0  0  0  0  0  0
  -29.1162  -17.3910   18.5300 H   0  0  0  0  0  0
  -31.1738  -17.8383   21.4204 H   0  0  0  0  0  0
  -29.6488  -17.6263   22.2840 H   0  0  0  0  0  0
  -28.3304  -18.6519   20.4904 H   0  0  0  0  0  0
  -27.3781  -24.2005   19.2409 H   0  0  0  0  0  0
  -27.2659  -24.1548   20.9684 H   0  0  0  0  0  0
  1 25  1  0  0  0
  1 30  2  0  0  0
  1 81  1  0  0  0
  2  3  1  0  0  0
  2 25  1  0  0  0
  2 82  1  0  0  0
  2 83  1  0  0  0
  3  4  1  0  0  0
  3 84  1  0  0  0
  3 85  1  0  0  0
  4  5  1  0  0  0
  4 86  1  0  0  0
  4 87  1  0  0  0
  5  6  1  0  0  0
  5 26  1  0  0  0
  5 88  1  0  0  0
  6 25  1  0  0  0
  6 89  1  0  0  0
  6 90  1  0  0  0
  7  8  2  0  0  0
  7 26  1  0  0  0
  7 29  1  0  0  0
  8  9  1  0  0  0
  8 22  1  0  0  0
  9 10  1  0  0  0
  9 27  2  0  0  0
 10 11  2  0  0  0
 10 15  1  0  0  0
 11 12  1  0  0  0
 11 91  1  0  0  0
 12 13  2  0  0  0
 12 92  1  0  0  0
 13 14  1  0  0  0
 13 31  1  0  0  0
 14 15  2  0  0  0
 14 93  1  0  0  0
 15 94  1  0  0  0
 16 17  2  0  0  0
 16 21  1  0  0  0
 16 31  1  0  0  0
 17 18  1  0  0  0
 17 95  1  0  0  0
 18 19  2  0  0  0
 18 96  1  0  0  0
 19 20  1  0  0  0
 19 24  1  0  0  0
 20 21  2  0  0  0
 20 97  1  0  0  0
 21 23  1  0  0  0
 22 28  1  0  0  0
 22 32  2  0  0  0
 26 27  1  0  0  0
 28 98  1  0  0  0
 28 99  1  0  0  0
 29100  1  0  0  0
 29101  1  0  0  0
 33 34  1  0  0  0
 33 66  1  0  0  0
 33 70  2  0  0  0
 34 36  1  0  0  0
 34 59  1  0  0  0
 34102  1  0  0  0
 35 44  2  0  0  0
 35 45  1  0  0  0
 35 68  1  0  0  0
 36 56  1  0  0  0
 36103  1  0  0  0
 37 39  1  0  0  0
 37 47  1  0  0  0
 37 66  1  0  0  0
 37104  1  0  0  0
 38 43  2  0  0  0
 38 46  1  0  0  0
 38 47  1  0  0  0
 39 64  1  0  0  0
 39 67  2  0  0  0
 40 52  1  0  0  0
 40 53  2  0  0  0
 40 58  1  0  0  0
 41105  1  0  0  0
 41106  1  0  0  0
 41107  1  0  0  0
 41 48  1  0  0  0
 42 43  1  0  0  0
 42 66  1  0  0  0
 42108  1  0  0  0
 42109  1  0  0  0
 43 44  1  0  0  0
 44110  1  0  0  0
 45 46  2  0  0  0
 45111  1  0  0  0
 46112  1  0  0  0
 47113  1  0  0  0
 47114  1  0  0  0
 48 56  1  0  0  0
 48 65  1  0  0  0
 48115  1  0  0  0
 49 50  1  0  0  0
 49 53  1  0  0  0
 49 64  1  0  0  0
 49116  1  0  0  0
 50 51  1  0  0  0
 50117  1  0  0  0
 50118  1  0  0  0
 51 52  1  0  0  0
 51119  1  0  0  0
 51120  1  0  0  0
 52121  1  0  0  0
 52122  1  0  0  0
 53 54  1  0  0  0
 54 55  2  0  0  0
 54123  1  0  0  0
 55 57  1  0  0  0
 55124  1  0  0  0
 56 69  2  0  0  0
 57 58  2  0  0  0
 57125  1  0  0  0
 58126  1  0  0  0
 59 60  1  0  0  0
 59 61  1  0  0  0
 59 62  1  0  0  0
 60127  1  0  0  0
 60128  1  0  0  0
 60129  1  0  0  0
 61130  1  0  0  0
 61131  1  0  0  0
 61132  1  0  0  0
 62133  1  0  0  0
 62134  1  0  0  0
 62135  1  0  0  0
 63 65  1  0  0  0
 63136  1  0  0  0
 63137  1  0  0  0
 63138  1  0  0  0
 64139  1  0  0  0
 65140  1  0  0  0
 68 78  1  0  0  0
 71 73  2  0  0  0
 71 79  1  0  0  0
 71141  1  0  0  0
 72 74  1  0  0  0
 72 79  2  0  0  0
 72142  1  0  0  0
 73 80  1  0  0  0
 73 77  1  0  0  0
 74 78  1  0  0  0
 74 80  2  0  0  0
 75 77  1  0  0  0
 75 81  1  0  0  0
 75143  1  0  0  0
 75144  1  0  0  0
 76 77  1  0  0  0
 76 81  1  0  0  0
 76145  1  0  0  0
 76146  1  0  0  0
 77147  1  0  0  0
 78148  1  0  0  0
 78149  1  0  0  0
M  ISO  4   1 100  68 101  78 101  81 100
M  END
> <chiral flag>
0

> <version>
0

> <s_m_source_file>
/data/baiqing/PycharmProjects/Reinvent-master-3.2/result/LINK_invent/BTK/process_docking_weight1_custom_sum_contain_oxygen_bond_distance_aromatic_linkinvent_7_9_3/rearranged_h_0179.sdf

> <i_m_source_file_index>
91

> <r_mmod_Potential_Energy-OPLS-2005>
1067.89123535156

> <r_mmod_Stretch_Energy-OPLS-2005>
423.429901123047

> <r_mmod_Bend_Energy-OPLS-2005>
354.962432861328

> <r_mmod_Torsional_Energy-OPLS-2005>
269.161102294922

> <r_mmod_Improper_Torsional_Energy-OPLS-2005>
12.6771821975708

> <r_mmod_Van_der_Waal_Energy-OPLS-2005>
124.706359863281

> <r_mmod_Electrostatic_Energy-OPLS-2005>
-237.559173583984

> <r_mmod_Solvation_Energy-OPLS-2005>
-221.492767333984

> <b_mmod_Minimization_Converged-OPLS-2005>
0

> <r_mmod_RMS_Derivative-OPLS-2005>
3.53677749633789

$$$$
91
                    3D
 Structure written by MMmdl.
161170  0  0  1  0            999 V2000
  -30.6617  -14.6151   20.5020 C   0  0  0  0  0  0
  -30.4329  -12.3841   19.4413 C   0  0  0  0  0  0
  -29.5029  -12.5045   18.2143 C   0  0  0  0  0  0
  -28.0257  -12.3471   18.6271 C   0  0  0  0  0  0
  -27.6490  -13.2168   19.8566 C   0  0  2  0  0  0
  -28.6990  -13.0900   20.9837 C   0  0  0  0  0  0
  -25.2550  -13.8170   20.5687 C   0  0  0  0  0  0
  -24.1820  -13.0430   20.9194 C   0  0  0  0  0  0
  -24.6392  -11.6907   20.8728 C   0  0  0  0  0  0
  -23.9062  -10.4289   21.0390 C   0  0  0  0  0  0
  -24.3618   -9.4214   21.9166 C   0  0  0  0  0  0
  -23.6311   -8.2234   22.0738 C   0  0  0  0  0  0
  -22.4293   -8.0268   21.3535 C   0  0  0  0  0  0
  -21.9929   -9.0224   20.4631 C   0  0  0  0  0  0
  -22.7239  -10.2104   20.3040 C   0  0  0  0  0  0
  -21.6850   -6.0729   22.5284 C   0  0  0  0  0  0
  -21.3989   -6.5641   23.8210 C   0  0  0  0  0  0
  -21.3658   -5.6793   24.9174 C   0  0  0  0  0  0
  -21.6052   -4.3059   24.7228 C   0  0  0  0  0  0
  -21.8809   -3.8147   23.4346 C   0  0  0  0  0  0
  -21.9187   -4.6957   22.3403 C   0  0  0  0  0  0
  -22.7847  -13.5227   21.1844 C   0  0  0  0  0  0
  -22.1657   -4.2134   21.0989 F   0  0  0  0  0  0
  -21.5654   -3.4548   25.7744 F   0  0  0  0  0  0
  -30.0122  -13.4148   20.4080 N   0  0  0  0  0  0
  -26.2965  -12.9348   20.3292 N   0  0  0  0  0  0
  -25.9312  -11.6503   20.5718 N   0  0  0  0  0  0
  -22.0484  -12.8226   22.0382 N   0  0  0  0  0  0
  -25.4278  -15.1881   20.4157 N   0  0  0  0  0  0
  -31.8412  -14.7440   20.1676 O   0  0  0  0  0  0
  -21.6642   -6.8874   21.4251 O   0  0  0  0  0  0
  -22.3549  -14.5525   20.6669 O   0  0  0  0  0  0
  -24.6218  -31.8624   23.2047 C   0  0  0  0  0  0
  -25.9093  -32.4801   23.8358 C   0  0  1  0  0  0
  -27.2194  -27.3766   20.0960 C   0  0  0  0  0  0
  -25.5946  -33.8599   24.2285 N   0  0  0  0  0  0
  -23.4123  -30.4859   21.5449 C   0  0  2  0  0  0
  -24.8604  -28.9533   20.1048 C   0  0  0  0  0  0
  -22.7451  -29.4613   22.4938 C   0  0  0  0  0  0
  -18.0261  -28.1375   22.8476 C   0  0  0  0  0  0
  -24.1490  -36.7305   23.2624 C   0  0  0  0  0  0
  -25.9488  -30.8146   21.3638 C   0  0  0  0  0  0
  -26.0270  -29.4458   20.7065 C   0  0  0  0  0  0
  -27.2167  -28.6652   20.6980 C   0  0  0  0  0  0
  -26.0402  -26.9275   19.4664 C   0  0  0  0  0  0
  -24.8652  -27.6990   19.4778 C   0  0  0  0  0  0
  -23.6229  -29.8225   20.1584 C   0  0  0  0  0  0
  -25.4109  -36.3090   24.0313 C   0  0  1  0  0  0
  -20.5870  -28.3662   23.1314 C   0  0  2  0  0  0
  -20.6761  -26.9400   22.5412 C   0  0  0  0  0  0
  -19.5749  -26.6390   21.5204 C   0  0  0  0  0  0
  -18.1916  -26.7930   22.1602 C   0  0  0  0  0  0
  -19.1517  -28.8838   23.2897 C   0  0  0  0  0  0
  -18.9442  -30.1439   23.8904 C   0  0  0  0  0  0
  -17.6453  -30.6596   24.0534 C   0  0  0  0  0  0
  -25.9051  -34.9468   23.5088 C   0  0  0  0  0  0
  -16.5343  -29.9076   23.6327 C   0  0  0  0  0  0
  -16.7255  -28.6494   23.0351 C   0  0  0  0  0  0
  -26.4504  -31.6601   25.0713 C   0  0  0  0  0  0
  -25.3760  -31.3720   26.1458 C   0  0  0  0  0  0
  -27.0317  -30.3021   24.6128 C   0  0  0  0  0  0
  -27.6074  -32.4315   25.7499 C   0  0  0  0  0  0
  -27.5593  -37.1779   24.8433 C   0  0  0  0  0  0
  -21.4163  -29.3026   22.3723 N   0  0  0  0  0  0
  -26.4261  -37.3815   23.9443 N   0  0  0  0  0  0
  -24.6793  -31.0691   22.0964 N   0  0  0  0  0  0
  -23.4225  -28.8142   23.2964 O   0  0  0  0  0  0
  -28.2988  -26.5066   20.1395 O   0  0  0  0  0  0
  -26.5586  -34.8935   22.4632 O   0  0  0  0  0  0
  -23.5400  -32.1396   23.7410 O   0  0  0  0  0  0
  -29.8382  -22.4672   19.4145 C   0  0  0  0  0  0
  -29.7708  -21.4455   20.4079 C   0  0  0  0  0  0
  -28.5778  -22.9371   21.7405 C   0  0  0  0  0  0
  -28.6811  -23.9747   20.7608 C   0  0  0  0  0  0
  -29.9828  -16.5881   21.9076 C   0  0  0  0  0  0
  -29.3160  -16.4861   19.5652 C   0  0  0  0  0  0
  -30.5659  -18.0272   21.6708 C   0  0  0  0  0  0
  -29.9322  -17.9025   19.3296 C   0  0  0  0  0  0
  -27.8688  -23.1733   23.0600 C   0  0  0  0  0  0
  -30.5962  -20.1290   20.2772 C   0  0  0  0  0  0
  -28.0539  -25.3783   21.0350 C   0  0  0  0  0  0
  -29.3016  -23.7156   19.5797 N   0  0  0  0  0  0
  -29.1170  -21.6913   21.5715 N   0  0  0  0  0  0
  -29.8843  -15.7300   20.7053 N   0  0  0  0  0  0
  -29.9451  -18.7833   20.5373 N   0  3  0  0  0  0
  -31.4738  -12.5054   19.1357 H   0  0  0  0  0  0
  -30.3653  -11.3890   19.8864 H   0  0  0  0  0  0
  -29.7669  -11.7526   17.4690 H   0  0  0  0  0  0
  -29.6475  -13.4724   17.7323 H   0  0  0  0  0  0
  -27.8571  -11.2946   18.8571 H   0  0  0  0  0  0
  -27.3720  -12.5775   17.7851 H   0  0  0  0  0  0
  -27.6564  -14.2468   19.5107 H   0  0  0  0  0  0
  -28.7091  -12.0765   21.3892 H   0  0  0  0  0  0
  -28.4560  -13.7516   21.8173 H   0  0  0  0  0  0
  -25.2737   -9.5702   22.4760 H   0  0  0  0  0  0
  -24.0015   -7.4636   22.7449 H   0  0  0  0  0  0
  -21.0851   -8.8723   19.8958 H   0  0  0  0  0  0
  -22.3670  -10.9634   19.6159 H   0  0  0  0  0  0
  -21.1954   -7.6140   23.9712 H   0  0  0  0  0  0
  -21.1514   -6.0519   25.9079 H   0  0  0  0  0  0
  -22.0600   -2.7607   23.2832 H   0  0  0  0  0  0
  -22.4101  -11.9878   22.4776 H   0  0  0  0  0  0
  -21.1078  -13.1226   22.2556 H   0  0  0  0  0  0
  -24.6632  -15.8461   20.5299 H   0  0  0  0  0  0
  -26.2886  -15.6244   20.1162 H   0  0  0  0  0  0
  -26.7162  -32.5489   23.1117 H   0  0  0  0  0  0
  -25.0114  -33.9752   25.0443 H   0  0  0  0  0  0
  -22.7023  -31.3030   21.4052 H   0  0  0  0  0  0
  -23.3795  -35.9592   23.3195 H   0  0  0  0  0  0
  -24.3623  -36.9020   22.2065 H   0  0  0  0  0  0
  -23.7192  -37.6454   23.6709 H   0  0  0  0  0  0
  -26.0653  -31.5826   20.5966 H   0  0  0  0  0  0
  -26.8364  -30.8642   21.9844 H   0  0  0  0  0  0
  -28.1137  -29.0343   21.1764 H   0  0  0  0  0  0
  -26.0212  -25.9579   18.9868 H   0  0  0  0  0  0
  -23.9679  -27.3208   19.0056 H   0  0  0  0  0  0
  -23.7258  -30.5978   19.3983 H   0  0  0  0  0  0
  -22.7488  -29.2369   19.8638 H   0  0  0  0  0  0
  -25.1284  -36.1897   25.0798 H   0  0  0  0  0  0
  -20.9938  -28.3201   24.1447 H   0  0  0  0  0  0
  -20.5666  -26.2246   23.3582 H   0  0  0  0  0  0
  -21.6621  -26.7441   22.1199 H   0  0  0  0  0  0
  -19.6906  -25.6298   21.1221 H   0  0  0  0  0  0
  -19.6722  -27.3193   20.6732 H   0  0  0  0  0  0
  -17.4201  -26.6676   21.3988 H   0  0  0  0  0  0
  -18.0324  -26.0074   22.8998 H   0  0  0  0  0  0
  -19.7920  -30.7230   24.2308 H   0  0  0  0  0  0
  -17.5009  -31.6281   24.5110 H   0  0  0  0  0  0
  -15.5335  -30.2972   23.7690 H   0  0  0  0  0  0
  -15.8646  -28.0819   22.7075 H   0  0  0  0  0  0
  -24.5923  -30.7082   25.7793 H   0  0  0  0  0  0
  -24.8976  -32.2876   26.4929 H   0  0  0  0  0  0
  -25.8106  -30.8872   27.0205 H   0  0  0  0  0  0
  -26.2845  -29.6804   24.1176 H   0  0  0  0  0  0
  -27.4042  -29.7252   25.4608 H   0  0  0  0  0  0
  -27.8718  -30.4314   23.9302 H   0  0  0  0  0  0
  -27.2686  -33.3601   26.2101 H   0  0  0  0  0  0
  -28.3899  -32.6881   25.0345 H   0  0  0  0  0  0
  -28.0731  -31.8422   26.5412 H   0  0  0  0  0  0
  -28.2489  -38.0194   24.7650 H   0  0  0  0  0  0
  -28.1202  -36.2739   24.6017 H   0  0  0  0  0  0
  -27.2346  -37.1117   25.8830 H   0  0  0  0  0  0
  -20.9324  -29.8772   21.6972 H   0  0  0  0  0  0
  -26.0125  -38.2850   24.1576 H   0  0  0  0  0  0
  -30.3757  -22.2951   18.4934 H   0  0  0  0  0  0
  -28.9782  -16.6776   22.3276 H   0  0  0  0  0  0
  -30.5695  -16.0873   22.6795 H   0  0  0  0  0  0
  -29.4084  -15.9077   18.6436 H   0  0  0  0  0  0
  -28.2431  -16.5894   19.7362 H   0  0  0  0  0  0
  -31.6384  -17.9375   21.4877 H   0  0  0  0  0  0
  -30.4690  -18.6109   22.5899 H   0  0  0  0  0  0
  -29.4001  -18.4062   18.5196 H   0  0  0  0  0  0
  -30.9572  -17.7692   18.9791 H   0  0  0  0  0  0
  -26.8503  -23.5224   22.8894 H   0  0  0  0  0  0
  -28.3948  -23.9281   23.6440 H   0  0  0  0  0  0
  -27.8117  -22.2665   23.6621 H   0  0  0  0  0  0
  -31.4532  -20.2562   20.9405 H   0  0  0  0  0  0
  -31.0393  -20.1293   19.2806 H   0  0  0  0  0  0
  -28.4025  -25.7059   22.0130 H   0  0  0  0  0  0
  -26.9836  -25.1996   21.1604 H   0  0  0  0  0  0
  -28.9888  -18.9870   20.7894 H   0  0  0  0  0  0
  1 25  1  0  0  0
  1 30  2  0  0  0
  1 84  1  0  0  0
  2  3  1  0  0  0
  2 25  1  0  0  0
  2 86  1  0  0  0
  2 87  1  0  0  0
  3  4  1  0  0  0
  3 88  1  0  0  0
  3 89  1  0  0  0
  4  5  1  0  0  0
  4 90  1  0  0  0
  4 91  1  0  0  0
  5  6  1  0  0  0
  5 26  1  0  0  0
  5 92  1  0  0  0
  6 25  1  0  0  0
  6 93  1  0  0  0
  6 94  1  0  0  0
  7  8  2  0  0  0
  7 26  1  0  0  0
  7 29  1  0  0  0
  8  9  1  0  0  0
  8 22  1  0  0  0
  9 10  1  0  0  0
  9 27  2  0  0  0
 10 11  2  0  0  0
 10 15  1  0  0  0
 11 12  1  0  0  0
 11 95  1  0  0  0
 12 13  2  0  0  0
 12 96  1  0  0  0
 13 14  1  0  0  0
 13 31  1  0  0  0
 14 15  2  0  0  0
 14 97  1  0  0  0
 15 98  1  0  0  0
 16 17  2  0  0  0
 16 21  1  0  0  0
 16 31  1  0  0  0
 17 18  1  0  0  0
 17 99  1  0  0  0
 18 19  2  0  0  0
 18100  1  0  0  0
 19 20  1  0  0  0
 19 24  1  0  0  0
 20 21  2  0  0  0
 20101  1  0  0  0
 21 23  1  0  0  0
 22 28  1  0  0  0
 22 32  2  0  0  0
 26 27  1  0  0  0
 28102  1  0  0  0
 28103  1  0  0  0
 29104  1  0  0  0
 29105  1  0  0  0
 33 34  1  0  0  0
 33 66  1  0  0  0
 33 70  2  0  0  0
 34 36  1  0  0  0
 34 59  1  0  0  0
 34106  1  0  0  0
 35 44  2  0  0  0
 35 45  1  0  0  0
 35 68  1  0  0  0
 36 56  1  0  0  0
 36107  1  0  0  0
 37 39  1  0  0  0
 37 47  1  0  0  0
 37 66  1  0  0  0
 37108  1  0  0  0
 38 43  2  0  0  0
 38 46  1  0  0  0
 38 47  1  0  0  0
 39 64  1  0  0  0
 39 67  2  0  0  0
 40 52  1  0  0  0
 40 53  2  0  0  0
 40 58  1  0  0  0
 41109  1  0  0  0
 41110  1  0  0  0
 41111  1  0  0  0
 41 48  1  0  0  0
 42 43  1  0  0  0
 42 66  1  0  0  0
 42112  1  0  0  0
 42113  1  0  0  0
 43 44  1  0  0  0
 44114  1  0  0  0
 45 46  2  0  0  0
 45115  1  0  0  0
 46116  1  0  0  0
 47117  1  0  0  0
 47118  1  0  0  0
 48 56  1  0  0  0
 48 65  1  0  0  0
 48119  1  0  0  0
 49 50  1  0  0  0
 49 53  1  0  0  0
 49 64  1  0  0  0
 49120  1  0  0  0
 50 51  1  0  0  0
 50121  1  0  0  0
 50122  1  0  0  0
 51 52  1  0  0  0
 51123  1  0  0  0
 51124  1  0  0  0
 52125  1  0  0  0
 52126  1  0  0  0
 53 54  1  0  0  0
 54 55  2  0  0  0
 54127  1  0  0  0
 55 57  1  0  0  0
 55128  1  0  0  0
 56 69  2  0  0  0
 57 58  2  0  0  0
 57129  1  0  0  0
 58130  1  0  0  0
 59 60  1  0  0  0
 59 61  1  0  0  0
 59 62  1  0  0  0
 60131  1  0  0  0
 60132  1  0  0  0
 60133  1  0  0  0
 61134  1  0  0  0
 61135  1  0  0  0
 61136  1  0  0  0
 62137  1  0  0  0
 62138  1  0  0  0
 62139  1  0  0  0
 63 65  1  0  0  0
 63140  1  0  0  0
 63141  1  0  0  0
 63142  1  0  0  0
 64143  1  0  0  0
 65144  1  0  0  0
 68 81  1  0  0  0
 71 72  2  0  0  0
 71 82  1  0  0  0
 71145  1  0  0  0
 72 80  1  0  0  0
 72 83  1  0  0  0
 73 74  1  0  0  0
 73 79  1  0  0  0
 73 83  2  0  0  0
 74 81  1  0  0  0
 74 82  2  0  0  0
 75 77  1  0  0  0
 75 84  1  0  0  0
 75146  1  0  0  0
 75147  1  0  0  0
 76 78  1  0  0  0
 76 84  1  0  0  0
 76148  1  0  0  0
 76149  1  0  0  0
 77 85  1  0  0  0
 77150  1  0  0  0
 77151  1  0  0  0
 78 85  1  0  0  0
 78152  1  0  0  0
 78153  1  0  0  0
 79154  1  0  0  0
 79155  1  0  0  0
 79156  1  0  0  0
 80157  1  0  0  0
 80158  1  0  0  0
 80 85  1  0  0  0
 81159  1  0  0  0
 81160  1  0  0  0
 85161  1  0  0  0
M  CHG  1  85   1
M  ISO  4   1 100  68 101  81 101  84 100
M  END
> <chiral flag>
0

> <version>
0

> <s_m_source_file>
/data/baiqing/PycharmProjects/Reinvent-master-3.2/result/LINK_invent/BTK/process_docking_weight1_custom_sum_contain_oxygen_bond_distance_aromatic_linkinvent_7_9_3/rearranged_h_0179.sdf

> <i_m_source_file_index>
92

> <r_mmod_Potential_Energy-OPLS-2005>
164.267730712891

> <r_mmod_Stretch_Energy-OPLS-2005>
66.2424774169922

> <r_mmod_Bend_Energy-OPLS-2005>
126.86644744873

> <r_mmod_Torsional_Energy-OPLS-2005>
423.509918212891

> <r_mmod_Improper_Torsional_Energy-OPLS-2005>
8.8983154296875

> <r_mmod_Van_der_Waal_Energy-OPLS-2005>
147.421310424805

> <r_mmod_Electrostatic_Energy-OPLS-2005>
-198.339447021484

> <r_mmod_Solvation_Energy-OPLS-2005>
-450.588226318359

> <b_mmod_Minimization_Converged-OPLS-2005>
0

> <r_mmod_RMS_Derivative-OPLS-2005>
3.68018794059753

$$$$
92
                    3D
 Structure written by MMmdl.
157167  0  0  1  0            999 V2000
  -29.8441  -16.6316   20.2752 C   0  0  0  0  0  0
  -30.3246  -13.8313   19.5739 C   0  0  0  0  0  0
  -29.5963  -12.9820   18.4444 C   0  0  0  0  0  0
  -28.2667  -12.3900   18.9168 C   0  0  0  0  0  0
  -27.5777  -13.4286   19.8100 C   0  0  2  0  0  0
  -28.4888  -14.1443   20.8722 C   0  0  0  0  0  0
  -25.2111  -13.8314   20.5567 C   0  0  0  0  0  0
  -24.1679  -13.0395   20.9279 C   0  0  0  0  0  0
  -24.6591  -11.6976   20.8751 C   0  0  0  0  0  0
  -23.9290  -10.4302   21.0379 C   0  0  0  0  0  0
  -24.3762   -9.4207   21.9188 C   0  0  0  0  0  0
  -23.6376   -8.2261   22.0763 C   0  0  0  0  0  0
  -22.4351   -8.0317   21.3548 C   0  0  0  0  0  0
  -22.0049   -9.0308   20.4649 C   0  0  0  0  0  0
  -22.7437  -10.2156   20.3051 C   0  0  0  0  0  0
  -21.6878   -6.0778   22.5289 C   0  0  0  0  0  0
  -21.4025   -6.5669   23.8226 C   0  0  0  0  0  0
  -21.3662   -5.6808   24.9183 C   0  0  0  0  0  0
  -21.6047   -4.3070   24.7218 C   0  0  0  0  0  0
  -21.8815   -3.8179   23.4335 C   0  0  0  0  0  0
  -21.9193   -4.7005   22.3400 C   0  0  0  0  0  0
  -22.7663  -13.5068   21.1880 C   0  0  0  0  0  0
  -22.1670   -4.2194   21.0977 F   0  0  0  0  0  0
  -21.5618   -3.4548   25.7727 F   0  0  0  0  0  0
  -29.5206  -15.0659   20.2177 N   0  0  0  0  0  0
  -26.2810  -12.9980   20.3295 N   0  0  0  0  0  0
  -25.9599  -11.6930   20.5652 N   0  0  0  0  0  0
  -22.0379  -12.8056   22.0486 N   0  0  0  0  0  0
  -25.3376  -15.1944   20.3365 N   0  0  0  0  0  0
  -31.1001  -16.4659   20.1319 O   0  0  0  0  0  0
  -21.6674   -6.8935   21.4254 O   0  0  0  0  0  0
  -22.3310  -14.5349   20.6718 O   0  0  0  0  0  0
  -24.7445  -31.7199   23.0970 C   0  0  0  0  0  0
  -25.9704  -32.4086   23.7770 C   0  0  1  0  0  0
  -27.2718  -26.0345   20.2858 C   0  0  0  0  0  0
  -25.5996  -33.7944   24.1578 N   0  0  0  0  0  0
  -23.6018  -30.2859   21.4697 C   0  0  2  0  0  0
  -25.0694  -28.4768   20.1507 C   0  0  0  0  0  0
  -22.7996  -29.3896   22.4575 C   0  0  0  0  0  0
  -18.0364  -28.1555   22.8435 C   0  0  0  0  0  0
  -24.1492  -36.6999   23.2674 C   0  0  0  0  0  0
  -26.2022  -30.2337   21.4620 C   0  0  0  0  0  0
  -26.2669  -28.7180   20.8327 C   0  0  0  0  0  0
  -27.3197  -27.5508   20.8432 C   0  0  0  0  0  0
  -26.0406  -26.1780   19.5307 C   0  0  0  0  0  0
  -25.0378  -27.2395   19.4695 C   0  0  0  0  0  0
  -23.8958  -29.5120   20.1392 C   0  0  0  0  0  0
  -25.4160  -36.2674   24.0235 C   0  0  1  0  0  0
  -20.5992  -28.3926   23.1131 C   0  0  2  0  0  0
  -20.6801  -26.9474   22.5714 C   0  0  0  0  0  0
  -19.5873  -26.6183   21.5477 C   0  0  0  0  0  0
  -18.1938  -26.8116   22.1523 C   0  0  0  0  0  0
  -19.1624  -28.9070   23.2751 C   0  0  0  0  0  0
  -18.9544  -30.1663   23.8787 C   0  0  0  0  0  0
  -17.6524  -30.6748   24.0471 C   0  0  0  0  0  0
  -25.9170  -34.9075   23.4797 C   0  0  0  0  0  0
  -16.5427  -29.9225   23.6273 C   0  0  0  0  0  0
  -16.7338  -28.6597   23.0384 C   0  0  0  0  0  0
  -26.4686  -31.6395   25.0648 C   0  0  0  0  0  0
  -25.3593  -31.3872   26.1151 C   0  0  0  0  0  0
  -27.0721  -30.2682   24.6967 C   0  0  0  0  0  0
  -27.6017  -32.4403   25.7502 C   0  0  0  0  0  0
  -27.5542  -37.1651   24.8464 C   0  0  0  0  0  0
  -21.4579  -29.3053   22.3375 N   0  0  0  0  0  0
  -26.4241  -37.3503   23.9396 N   0  0  0  0  0  0
  -24.8821  -30.7949   22.0642 N   0  0  0  0  0  0
  -23.4112  -28.7566   23.3211 O   0  0  0  0  0  0
  -28.2314  -24.5669   20.2394 O   0  0  0  0  0  0
  -26.5916  -34.8798   22.4490 O   0  0  0  0  0  0
  -23.6331  -32.0564   23.5494 O   0  0  0  0  0  0
  -28.4589  -20.3179   20.3583 C   0  0  0  0  0  0
  -28.8566  -18.4370   20.3965 C   0  0  0  0  0  0
  -27.0324  -20.4112   20.3985 C   0  0  0  0  0  0
  -26.6281  -18.3056   21.1973 C   0  0  0  0  0  0
  -24.2090  -17.6057   22.0799 C   0  0  0  0  0  0
  -24.9481  -18.2707   23.2259 C   0  0  0  0  0  0
  -25.8263  -22.5987   21.2389 C   0  0  0  0  0  0
  -26.2364  -21.6783   20.1044 C   0  0  2  0  0  0
  -25.7229  -17.5557   22.1438 C   0  0  0  0  0  0
  -24.7609  -21.8871   20.4555 C   0  0  2  0  0  0
  -23.8431  -22.6804   19.5368 C   0  0  0  0  0  0
  -28.7540  -22.5024   20.3594 C   0  0  0  0  0  0
  -27.8018  -17.7924   20.9435 N   0  0  0  0  0  0
  -26.1949  -19.4613   20.7978 N   0  0  0  0  0  0
  -31.2253  -14.2329   19.1112 H   0  0  0  0  0  0
  -30.7072  -13.1717   20.3563 H   0  0  0  0  0  0
  -30.2500  -12.1914   18.0768 H   0  0  0  0  0  0
  -29.4131  -13.6367   17.5924 H   0  0  0  0  0  0
  -28.4620  -11.4842   19.4936 H   0  0  0  0  0  0
  -27.6387  -12.1039   18.0730 H   0  0  0  0  0  0
  -27.3294  -14.2187   19.0997 H   0  0  0  0  0  0
  -28.9281  -13.4323   21.5725 H   0  0  0  0  0  0
  -27.8622  -14.7912   21.4857 H   0  0  0  0  0  0
  -25.2887   -9.5650   22.4801 H   0  0  0  0  0  0
  -24.0051   -7.4659   22.7508 H   0  0  0  0  0  0
  -21.0971   -8.8890   19.8945 H   0  0  0  0  0  0
  -22.3934  -10.9713   19.6169 H   0  0  0  0  0  0
  -21.2035   -7.6179   23.9749 H   0  0  0  0  0  0
  -21.1476   -6.0532   25.9086 H   0  0  0  0  0  0
  -22.0580   -2.7639   23.2825 H   0  0  0  0  0  0
  -22.4041  -11.9765   22.4905 H   0  0  0  0  0  0
  -21.0984  -13.1040   22.2680 H   0  0  0  0  0  0
  -24.5303  -15.8048   20.3713 H   0  0  0  0  0  0
  -26.1716  -15.6380   19.9724 H   0  0  0  0  0  0
  -26.7860  -32.4455   23.0547 H   0  0  0  0  0  0
  -24.9939  -33.8874   24.9595 H   0  0  0  0  0  0
  -22.9656  -31.1376   21.2173 H   0  0  0  0  0  0
  -23.3785  -35.9298   23.3211 H   0  0  0  0  0  0
  -24.3546  -36.8834   22.2118 H   0  0  0  0  0  0
  -23.7233  -37.6109   23.6885 H   0  0  0  0  0  0
  -26.4537  -30.9043   20.6402 H   0  0  0  0  0  0
  -27.0384  -30.3421   22.1397 H   0  0  0  0  0  0
  -28.2222  -27.7827   21.3956 H   0  0  0  0  0  0
  -25.7888  -25.3088   18.9395 H   0  0  0  0  0  0
  -24.1679  -27.0417   18.8622 H   0  0  0  0  0  0
  -24.1231  -30.2384   19.3580 H   0  0  0  0  0  0
  -22.9897  -29.0083   19.8044 H   0  0  0  0  0  0
  -25.1405  -36.1353   25.0723 H   0  0  0  0  0  0
  -20.9984  -28.3724   24.1308 H   0  0  0  0  0  0
  -20.5499  -26.2657   23.4118 H   0  0  0  0  0  0
  -21.6674  -26.7232   22.1680 H   0  0  0  0  0  0
  -19.7048  -25.5936   21.1977 H   0  0  0  0  0  0
  -19.7024  -27.2594   20.6751 H   0  0  0  0  0  0
  -17.4436  -26.7240   21.3633 H   0  0  0  0  0  0
  -17.9777  -26.0270   22.8780 H   0  0  0  0  0  0
  -19.8001  -30.7532   24.2096 H   0  0  0  0  0  0
  -17.5057  -31.6446   24.5012 H   0  0  0  0  0  0
  -15.5423  -30.3109   23.7613 H   0  0  0  0  0  0
  -15.8744  -28.0877   22.7173 H   0  0  0  0  0  0
  -24.5854  -30.7147   25.7431 H   0  0  0  0  0  0
  -24.8710  -32.3139   26.4174 H   0  0  0  0  0  0
  -25.7643  -30.9302   27.0188 H   0  0  0  0  0  0
  -26.3530  -29.6102   24.2085 H   0  0  0  0  0  0
  -27.4041  -29.7380   25.5903 H   0  0  0  0  0  0
  -27.9543  -30.3692   24.0645 H   0  0  0  0  0  0
  -27.2484  -33.3858   26.1622 H   0  0  0  0  0  0
  -28.4059  -32.6711   25.0501 H   0  0  0  0  0  0
  -28.0418  -31.8845   26.5793 H   0  0  0  0  0  0
  -28.2485  -38.0017   24.7510 H   0  0  0  0  0  0
  -28.1114  -36.2523   24.6279 H   0  0  0  0  0  0
  -27.2255  -37.1255   25.8870 H   0  0  0  0  0  0
  -21.0053  -29.8782   21.6390 H   0  0  0  0  0  0
  -26.0012  -38.2523   24.1423 H   0  0  0  0  0  0
  -23.7516  -18.2459   21.3269 H   0  0  0  0  0  0
  -23.6754  -16.6823   22.2952 H   0  0  0  0  0  0
  -24.9245  -17.7966   24.2014 H   0  0  0  0  0  0
  -24.9632  -19.3595   23.2371 H   0  0  0  0  0  0
  -25.8995  -23.6744   21.0946 H   0  0  0  0  0  0
  -26.0138  -22.2484   22.2531 H   0  0  0  0  0  0
  -26.5356  -22.1046   19.1471 H   0  0  0  0  0  0
  -26.1830  -16.6146   22.4371 H   0  0  0  0  0  0
  -24.2334  -21.1207   21.0269 H   0  0  0  0  0  0
  -23.2874  -23.4236   20.1088 H   0  0  0  0  0  0
  -23.1374  -22.0105   19.0415 H   0  0  0  0  0  0
  -24.4219  -23.2031   18.7719 H   0  0  0  0  0  0
  -29.6436  -22.5357   19.7326 H   0  0  0  0  0  0
  -29.1554  -22.5539   21.3728 H   0  0  0  0  0  0
  1 25  1  0  0  0
  1 30  2  0  0  0
  1 72  1  0  0  0
  2  3  1  0  0  0
  2 25  1  0  0  0
  2 85  1  0  0  0
  2 86  1  0  0  0
  3  4  1  0  0  0
  3 87  1  0  0  0
  3 88  1  0  0  0
  4  5  1  0  0  0
  4 89  1  0  0  0
  4 90  1  0  0  0
  5  6  1  0  0  0
  5 26  1  0  0  0
  5 91  1  0  0  0
  6 25  1  0  0  0
  6 92  1  0  0  0
  6 93  1  0  0  0
  7  8  2  0  0  0
  7 26  1  0  0  0
  7 29  1  0  0  0
  8  9  1  0  0  0
  8 22  1  0  0  0
  9 10  1  0  0  0
  9 27  2  0  0  0
 10 11  2  0  0  0
 10 15  1  0  0  0
 11 12  1  0  0  0
 11 94  1  0  0  0
 12 13  2  0  0  0
 12 95  1  0  0  0
 13 14  1  0  0  0
 13 31  1  0  0  0
 14 15  2  0  0  0
 14 96  1  0  0  0
 15 97  1  0  0  0
 16 17  2  0  0  0
 16 21  1  0  0  0
 16 31  1  0  0  0
 17 18  1  0  0  0
 17 98  1  0  0  0
 18 19  2  0  0  0
 18 99  1  0  0  0
 19 20  1  0  0  0
 19 24  1  0  0  0
 20 21  2  0  0  0
 20100  1  0  0  0
 21 23  1  0  0  0
 22 28  1  0  0  0
 22 32  2  0  0  0
 26 27  1  0  0  0
 28101  1  0  0  0
 28102  1  0  0  0
 29103  1  0  0  0
 29104  1  0  0  0
 33 34  1  0  0  0
 33 66  1  0  0  0
 33 70  2  0  0  0
 34 36  1  0  0  0
 34 59  1  0  0  0
 34105  1  0  0  0
 35 44  2  0  0  0
 35 45  1  0  0  0
 35 68  1  0  0  0
 36 56  1  0  0  0
 36106  1  0  0  0
 37 39  1  0  0  0
 37 47  1  0  0  0
 37 66  1  0  0  0
 37107  1  0  0  0
 38 43  2  0  0  0
 38 46  1  0  0  0
 38 47  1  0  0  0
 39 64  1  0  0  0
 39 67  2  0  0  0
 40 52  1  0  0  0
 40 53  2  0  0  0
 40 58  1  0  0  0
 41108  1  0  0  0
 41109  1  0  0  0
 41110  1  0  0  0
 41 48  1  0  0  0
 42 43  1  0  0  0
 42 66  1  0  0  0
 42111  1  0  0  0
 42112  1  0  0  0
 43 44  1  0  0  0
 44113  1  0  0  0
 45 46  2  0  0  0
 45114  1  0  0  0
 46115  1  0  0  0
 47116  1  0  0  0
 47117  1  0  0  0
 48 56  1  0  0  0
 48 65  1  0  0  0
 48118  1  0  0  0
 49 50  1  0  0  0
 49 53  1  0  0  0
 49 64  1  0  0  0
 49119  1  0  0  0
 50 51  1  0  0  0
 50120  1  0  0  0
 50121  1  0  0  0
 51 52  1  0  0  0
 51122  1  0  0  0
 51123  1  0  0  0
 52124  1  0  0  0
 52125  1  0  0  0
 53 54  1  0  0  0
 54 55  2  0  0  0
 54126  1  0  0  0
 55 57  1  0  0  0
 55127  1  0  0  0
 56 69  2  0  0  0
 57 58  2  0  0  0
 57128  1  0  0  0
 58129  1  0  0  0
 59 60  1  0  0  0
 59 61  1  0  0  0
 59 62  1  0  0  0
 60130  1  0  0  0
 60131  1  0  0  0
 60132  1  0  0  0
 61133  1  0  0  0
 61134  1  0  0  0
 61135  1  0  0  0
 62136  1  0  0  0
 62137  1  0  0  0
 62138  1  0  0  0
 63 65  1  0  0  0
 63139  1  0  0  0
 63140  1  0  0  0
 63141  1  0  0  0
 64142  1  0  0  0
 65143  1  0  0  0
 68 82  1  0  0  0
 71 72  1  0  0  0
 71 73  2  0  0  0
 71 82  1  0  0  0
 72 83  2  0  0  0
 73 84  1  0  0  0
 73 78  1  0  0  0
 74 83  1  0  0  0
 74 84  2  0  0  0
 74 79  1  0  0  0
 75 76  1  0  0  0
 75 79  1  0  0  0
 75144  1  0  0  0
 75145  1  0  0  0
 76 79  1  0  0  0
 76146  1  0  0  0
 76147  1  0  0  0
 77 78  1  0  0  0
 77 80  1  0  0  0
 77148  1  0  0  0
 77149  1  0  0  0
 78 80  1  0  0  0
 78150  1  0  0  0
 79151  1  0  0  0
 80 81  1  0  0  0
 80152  1  0  0  0
 81153  1  0  0  0
 81154  1  0  0  0
 81155  1  0  0  0
 82156  1  0  0  0
 82157  1  0  0  0
M  ISO  4   1 100  68 101  72 100  82 101
M  END
> <chiral flag>
0

> <version>
0

> <s_m_source_file>
/data/baiqing/PycharmProjects/Reinvent-master-3.2/result/LINK_invent/BTK/process_docking_weight1_custom_sum_contain_oxygen_bond_distance_aromatic_linkinvent_7_9_3/rearranged_h_0179.sdf

> <i_m_source_file_index>
93

> <r_mmod_Potential_Energy-OPLS-2005>
7278.89013671875

> <r_mmod_Stretch_Energy-OPLS-2005>
3156.14306640625

> <r_mmod_Bend_Energy-OPLS-2005>
1504.94189453125

> <r_mmod_Torsional_Energy-OPLS-2005>
328.019073486328

> <r_mmod_Improper_Torsional_Energy-OPLS-2005>
4.40372800827026

> <r_mmod_Van_der_Waal_Energy-OPLS-2005>
136.99787902832

> <r_mmod_Electrostatic_Energy-OPLS-2005>
-624.608154296875

> <r_mmod_Solvation_Energy-OPLS-2005>
-198.359313964844

> <b_mmod_Minimization_Converged-OPLS-2005>
0

> <r_mmod_RMS_Derivative-OPLS-2005>
5.06430912017822

$$$$
93
                    3D
 Structure written by MMmdl.
156164  0  0  1  0            999 V2000
  -30.5965  -14.7857   20.4596 C   0  0  0  0  0  0
  -30.4384  -12.4857   19.4613 C   0  0  0  0  0  0
  -29.5074  -12.5157   18.2281 C   0  0  0  0  0  0
  -28.0354  -12.3315   18.6474 C   0  0  0  0  0  0
  -27.6394  -13.2346   19.8456 C   0  0  2  0  0  0
  -28.6905  -13.1825   20.9757 C   0  0  0  0  0  0
  -25.2511  -13.8189   20.5696 C   0  0  0  0  0  0
  -24.1812  -13.0432   20.9224 C   0  0  0  0  0  0
  -24.6410  -11.6915   20.8756 C   0  0  0  0  0  0
  -23.9068  -10.4293   21.0423 C   0  0  0  0  0  0
  -24.3621   -9.4203   21.9196 C   0  0  0  0  0  0
  -23.6304   -8.2232   22.0755 C   0  0  0  0  0  0
  -22.4280   -8.0269   21.3549 C   0  0  0  0  0  0
  -21.9910   -9.0245   20.4651 C   0  0  0  0  0  0
  -22.7236  -10.2133   20.3070 C   0  0  0  0  0  0
  -21.6856   -6.0726   22.5279 C   0  0  0  0  0  0
  -21.4013   -6.5634   23.8208 C   0  0  0  0  0  0
  -21.3665   -5.6789   24.9175 C   0  0  0  0  0  0
  -21.6053   -4.3052   24.7231 C   0  0  0  0  0  0
  -21.8815   -3.8139   23.4353 C   0  0  0  0  0  0
  -21.9196   -4.6954   22.3405 C   0  0  0  0  0  0
  -22.7831  -13.5210   21.1886 C   0  0  0  0  0  0
  -22.1654   -4.2138   21.0981 F   0  0  0  0  0  0
  -21.5646   -3.4544   25.7747 F   0  0  0  0  0  0
  -29.9839  -13.5512   20.3838 N   0  0  0  0  0  0
  -26.2941  -12.9407   20.3283 N   0  0  0  0  0  0
  -25.9341  -11.6542   20.5744 N   0  0  0  0  0  0
  -22.0486  -12.8196   22.0446 N   0  0  0  0  0  0
  -25.4176  -15.1911   20.4054 N   0  0  0  0  0  0
  -31.7954  -14.8956   20.1939 O   0  0  0  0  0  0
  -21.6644   -6.8868   21.4238 O   0  0  0  0  0  0
  -22.3511  -14.5516   20.6733 O   0  0  0  0  0  0
  -24.6352  -31.8532   23.1969 C   0  0  0  0  0  0
  -25.9159  -32.4743   23.8325 C   0  0  1  0  0  0
  -27.2196  -27.2341   20.1311 C   0  0  0  0  0  0
  -25.5942  -33.8545   24.2250 N   0  0  0  0  0  0
  -23.4331  -30.4772   21.5420 C   0  0  2  0  0  0
  -24.8808  -28.9241   20.1099 C   0  0  0  0  0  0
  -22.7520  -29.4597   22.4901 C   0  0  0  0  0  0
  -18.0300  -28.1384   22.8483 C   0  0  0  0  0  0
  -24.1494  -36.7281   23.2639 C   0  0  0  0  0  0
  -25.9833  -30.7567   21.3828 C   0  0  0  0  0  0
  -26.0555  -29.3788   20.7221 C   0  0  0  0  0  0
  -27.2275  -28.5485   20.7197 C   0  0  0  0  0  0
  -26.0175  -26.8631   19.4820 C   0  0  0  0  0  0
  -24.8691  -27.6752   19.4773 C   0  0  0  0  0  0
  -23.6528  -29.8133   20.1587 C   0  0  0  0  0  0
  -25.4119  -36.3064   24.0327 C   0  0  1  0  0  0
  -20.5909  -28.3703   23.1257 C   0  0  2  0  0  0
  -20.6788  -26.9418   22.5409 C   0  0  0  0  0  0
  -19.5762  -26.6382   21.5214 C   0  0  0  0  0  0
  -18.1939  -26.7925   22.1623 C   0  0  0  0  0  0
  -19.1553  -28.8858   23.2866 C   0  0  0  0  0  0
  -18.9471  -30.1458   23.8887 C   0  0  0  0  0  0
  -17.6469  -30.6584   24.0560 C   0  0  0  0  0  0
  -25.9057  -34.9429   23.5090 C   0  0  0  0  0  0
  -16.5360  -29.9079   23.6333 C   0  0  0  0  0  0
  -16.7286  -28.6496   23.0350 C   0  0  0  0  0  0
  -26.4508  -31.6562   25.0720 C   0  0  0  0  0  0
  -25.3715  -31.3718   26.1424 C   0  0  0  0  0  0
  -27.0364  -30.2975   24.6227 C   0  0  0  0  0  0
  -27.6060  -32.4304   25.7495 C   0  0  0  0  0  0
  -27.5584  -37.1798   24.8461 C   0  0  0  0  0  0
  -21.4226  -29.3047   22.3638 N   0  0  0  0  0  0
  -26.4295  -37.3765   23.9401 N   0  0  0  0  0  0
  -24.7032  -31.0475   22.0963 N   0  0  0  0  0  0
  -23.4198  -28.8132   23.3011 O   0  0  0  0  0  0
  -28.2959  -26.3027   20.1978 O   0  0  0  0  0  0
  -26.5639  -34.8910   22.4665 O   0  0  0  0  0  0
  -23.5491  -32.1366   23.7244 O   0  0  0  0  0  0
  -29.7159  -23.3464   18.2030 C   0  0  0  0  0  0
  -29.9108  -20.6589   17.9161 C   0  0  0  0  0  0
  -29.4050  -22.5737   19.3453 C   0  0  0  0  0  0
  -29.5969  -21.0964   19.2399 C   0  0  0  0  0  0
  -30.0921  -22.7591   16.9963 C   0  0  0  0  0  0
  -30.4220  -23.6049   15.7829 C   0  0  0  0  0  0
  -28.9186  -23.5285   20.5150 C   0  0  0  0  0  0
  -30.0769  -17.3959   20.9472 C   0  0  0  0  0  0
  -27.9622  -24.8211   20.1576 C   0  0  0  0  0  0
  -29.7710  -18.5919   19.8832 C   0  0  0  0  0  0
  -30.1546  -21.4339   16.8422 N   0  0  0  0  0  0
  -29.7950  -15.9075   20.6396 N   0  0  0  0  0  0
  -29.5413  -20.0612   20.2439 O   0  0  0  0  0  0
  -31.4755  -12.6279   19.1532 H   0  0  0  0  0  0
  -30.3987  -11.5117   19.9519 H   0  0  0  0  0  0
  -29.7921  -11.7404   17.5152 H   0  0  0  0  0  0
  -29.6219  -13.4667   17.7083 H   0  0  0  0  0  0
  -27.9014  -11.2826   18.9117 H   0  0  0  0  0  0
  -27.3734  -12.5153   17.7996 H   0  0  0  0  0  0
  -27.6237  -14.2531   19.4569 H   0  0  0  0  0  0
  -28.7424  -12.1863   21.4166 H   0  0  0  0  0  0
  -28.4218  -13.8630   21.7861 H   0  0  0  0  0  0
  -25.2761   -9.5679   22.4776 H   0  0  0  0  0  0
  -24.0011   -7.4620   22.7475 H   0  0  0  0  0  0
  -21.0847   -8.8758   19.8948 H   0  0  0  0  0  0
  -22.3695  -10.9669   19.6177 H   0  0  0  0  0  0
  -21.1986   -7.6141   23.9702 H   0  0  0  0  0  0
  -21.1506   -6.0532   25.9082 H   0  0  0  0  0  0
  -22.0593   -2.7597   23.2859 H   0  0  0  0  0  0
  -22.4095  -11.9826   22.4779 H   0  0  0  0  0  0
  -21.1113  -13.1223   22.2676 H   0  0  0  0  0  0
  -24.6449  -15.8405   20.5030 H   0  0  0  0  0  0
  -26.2549  -15.6281   20.0426 H   0  0  0  0  0  0
  -26.7221  -32.5383   23.1055 H   0  0  0  0  0  0
  -25.0071  -33.9671   25.0384 H   0  0  0  0  0  0
  -22.7316  -31.3013   21.3952 H   0  0  0  0  0  0
  -23.3764  -35.9606   23.3283 H   0  0  0  0  0  0
  -24.3593  -36.8925   22.2060 H   0  0  0  0  0  0
  -23.7240  -37.6472   23.6676 H   0  0  0  0  0  0
  -26.1284  -31.5180   20.6150 H   0  0  0  0  0  0
  -26.8581  -30.8029   22.0201 H   0  0  0  0  0  0
  -28.1229  -28.8908   21.2183 H   0  0  0  0  0  0
  -25.9216  -25.9158   18.9774 H   0  0  0  0  0  0
  -23.9718  -27.3207   18.9893 H   0  0  0  0  0  0
  -23.7803  -30.5904   19.4043 H   0  0  0  0  0  0
  -22.7704  -29.2500   19.8518 H   0  0  0  0  0  0
  -25.1306  -36.1913   25.0823 H   0  0  0  0  0  0
  -21.0003  -28.3291   24.1377 H   0  0  0  0  0  0
  -20.5693  -26.2318   23.3618 H   0  0  0  0  0  0
  -21.6653  -26.7440   22.1198 H   0  0  0  0  0  0
  -19.6926  -25.6292   21.1247 H   0  0  0  0  0  0
  -19.6696  -27.3191   20.6742 H   0  0  0  0  0  0
  -17.4215  -26.6680   21.4020 H   0  0  0  0  0  0
  -18.0335  -26.0067   22.9016 H   0  0  0  0  0  0
  -19.7943  -30.7285   24.2244 H   0  0  0  0  0  0
  -17.5015  -31.6261   24.5164 H   0  0  0  0  0  0
  -15.5356  -30.2970   23.7657 H   0  0  0  0  0  0
  -15.8688  -28.0809   22.7065 H   0  0  0  0  0  0
  -24.5904  -30.7055   25.7741 H   0  0  0  0  0  0
  -24.8883  -32.2887   26.4814 H   0  0  0  0  0  0
  -25.8015  -30.8914   27.0220 H   0  0  0  0  0  0
  -26.2961  -29.6706   24.1246 H   0  0  0  0  0  0
  -27.4032  -29.7254   25.4759 H   0  0  0  0  0  0
  -27.8840  -30.4239   23.9487 H   0  0  0  0  0  0
  -27.2674  -33.3624   26.2027 H   0  0  0  0  0  0
  -28.3889  -32.6827   25.0330 H   0  0  0  0  0  0
  -28.0692  -31.8447   26.5440 H   0  0  0  0  0  0
  -28.2591  -38.0107   24.7526 H   0  0  0  0  0  0
  -28.1096  -36.2644   24.6267 H   0  0  0  0  0  0
  -27.2304  -37.1415   25.8863 H   0  0  0  0  0  0
  -20.9413  -29.8769   21.6841 H   0  0  0  0  0  0
  -26.0177  -38.2841   24.1397 H   0  0  0  0  0  0
  -29.6611  -24.4265   18.2425 H   0  0  0  0  0  0
  -29.9980  -19.6218   17.6443 H   0  0  0  0  0  0
  -30.5623  -24.6497   16.0607 H   0  0  0  0  0  0
  -29.6136  -23.5560   15.0524 H   0  0  0  0  0  0
  -31.3431  -23.2673   15.3074 H   0  0  0  0  0  0
  -29.7970  -23.8763   21.0578 H   0  0  0  0  0  0
  -28.3792  -22.8926   21.2175 H   0  0  0  0  0  0
  -29.4757  -17.6121   21.8292 H   0  0  0  0  0  0
  -31.1102  -17.4874   21.2860 H   0  0  0  0  0  0
  -27.1266  -24.7286   20.8530 H   0  0  0  0  0  0
  -27.5239  -24.6030   19.1864 H   0  0  0  0  0  0
  -28.9180  -18.2851   19.2777 H   0  0  0  0  0  0
  -30.6465  -18.5372   19.2374 H   0  0  0  0  0  0
  -28.8189  -15.6658   20.7258 H   0  0  0  0  0  0
  1 25  1  0  0  0
  1 30  2  0  0  0
  1 82  1  0  0  0
  2  3  1  0  0  0
  2 25  1  0  0  0
  2 84  1  0  0  0
  2 85  1  0  0  0
  3  4  1  0  0  0
  3 86  1  0  0  0
  3 87  1  0  0  0
  4  5  1  0  0  0
  4 88  1  0  0  0
  4 89  1  0  0  0
  5  6  1  0  0  0
  5 26  1  0  0  0
  5 90  1  0  0  0
  6 25  1  0  0  0
  6 91  1  0  0  0
  6 92  1  0  0  0
  7  8  2  0  0  0
  7 26  1  0  0  0
  7 29  1  0  0  0
  8  9  1  0  0  0
  8 22  1  0  0  0
  9 10  1  0  0  0
  9 27  2  0  0  0
 10 11  2  0  0  0
 10 15  1  0  0  0
 11 12  1  0  0  0
 11 93  1  0  0  0
 12 13  2  0  0  0
 12 94  1  0  0  0
 13 14  1  0  0  0
 13 31  1  0  0  0
 14 15  2  0  0  0
 14 95  1  0  0  0
 15 96  1  0  0  0
 16 17  2  0  0  0
 16 21  1  0  0  0
 16 31  1  0  0  0
 17 18  1  0  0  0
 17 97  1  0  0  0
 18 19  2  0  0  0
 18 98  1  0  0  0
 19 20  1  0  0  0
 19 24  1  0  0  0
 20 21  2  0  0  0
 20 99  1  0  0  0
 21 23  1  0  0  0
 22 28  1  0  0  0
 22 32  2  0  0  0
 26 27  1  0  0  0
 28100  1  0  0  0
 28101  1  0  0  0
 29102  1  0  0  0
 29103  1  0  0  0
 33 34  1  0  0  0
 33 66  1  0  0  0
 33 70  2  0  0  0
 34 36  1  0  0  0
 34 59  1  0  0  0
 34104  1  0  0  0
 35 44  2  0  0  0
 35 45  1  0  0  0
 35 68  1  0  0  0
 36 56  1  0  0  0
 36105  1  0  0  0
 37 39  1  0  0  0
 37 47  1  0  0  0
 37 66  1  0  0  0
 37106  1  0  0  0
 38 43  2  0  0  0
 38 46  1  0  0  0
 38 47  1  0  0  0
 39 64  1  0  0  0
 39 67  2  0  0  0
 40 52  1  0  0  0
 40 53  2  0  0  0
 40 58  1  0  0  0
 41107  1  0  0  0
 41108  1  0  0  0
 41109  1  0  0  0
 41 48  1  0  0  0
 42 43  1  0  0  0
 42 66  1  0  0  0
 42110  1  0  0  0
 42111  1  0  0  0
 43 44  1  0  0  0
 44112  1  0  0  0
 45 46  2  0  0  0
 45113  1  0  0  0
 46114  1  0  0  0
 47115  1  0  0  0
 47116  1  0  0  0
 48 56  1  0  0  0
 48 65  1  0  0  0
 48117  1  0  0  0
 49 50  1  0  0  0
 49 53  1  0  0  0
 49 64  1  0  0  0
 49118  1  0  0  0
 50 51  1  0  0  0
 50119  1  0  0  0
 50120  1  0  0  0
 51 52  1  0  0  0
 51121  1  0  0  0
 51122  1  0  0  0
 52123  1  0  0  0
 52124  1  0  0  0
 53 54  1  0  0  0
 54 55  2  0  0  0
 54125  1  0  0  0
 55 57  1  0  0  0
 55126  1  0  0  0
 56 69  2  0  0  0
 57 58  2  0  0  0
 57127  1  0  0  0
 58128  1  0  0  0
 59 60  1  0  0  0
 59 61  1  0  0  0
 59 62  1  0  0  0
 60129  1  0  0  0
 60130  1  0  0  0
 60131  1  0  0  0
 61132  1  0  0  0
 61133  1  0  0  0
 61134  1  0  0  0
 62135  1  0  0  0
 62136  1  0  0  0
 62137  1  0  0  0
 63 65  1  0  0  0
 63138  1  0  0  0
 63139  1  0  0  0
 63140  1  0  0  0
 64141  1  0  0  0
 65142  1  0  0  0
 68 79  1  0  0  0
 71 73  2  0  0  0
 71 75  1  0  0  0
 71143  1  0  0  0
 72 74  2  0  0  0
 72 81  1  0  0  0
 72144  1  0  0  0
 73 74  1  0  0  0
 73 77  1  0  0  0
 74 83  1  0  0  0
 75 76  1  0  0  0
 75 81  2  0  0  0
 76145  1  0  0  0
 76146  1  0  0  0
 76147  1  0  0  0
 77 79  1  0  0  0
 77148  1  0  0  0
 77149  1  0  0  0
 78 80  1  0  0  0
 78 82  1  0  0  0
 78150  1  0  0  0
 78151  1  0  0  0
 79152  1  0  0  0
 79153  1  0  0  0
 80 83  1  0  0  0
 80154  1  0  0  0
 80155  1  0  0  0
 82156  1  0  0  0
M  ISO  4   1 100  68 101  79 101  82 100
M  END
> <chiral flag>
0

> <version>
0

> <s_m_source_file>
/data/baiqing/PycharmProjects/Reinvent-master-3.2/result/LINK_invent/BTK/process_docking_weight1_custom_sum_contain_oxygen_bond_distance_aromatic_linkinvent_7_9_3/rearranged_h_0179.sdf

> <i_m_source_file_index>
94

> <r_mmod_Potential_Energy-OPLS-2005>
169.769836425781

> <r_mmod_Stretch_Energy-OPLS-2005>
167.846267700195

> <r_mmod_Bend_Energy-OPLS-2005>
236.744110107422

> <r_mmod_Torsional_Energy-OPLS-2005>
224.191116333008

> <r_mmod_Improper_Torsional_Energy-OPLS-2005>
4.65826749801636

> <r_mmod_Van_der_Waal_Energy-OPLS-2005>
158.87158203125

> <r_mmod_Electrostatic_Energy-OPLS-2005>
-497.057800292969

> <r_mmod_Solvation_Energy-OPLS-2005>
-232.143936157227

> <b_mmod_Minimization_Converged-OPLS-2005>
0

> <r_mmod_RMS_Derivative-OPLS-2005>
1.77461075782776

$$$$
94
                    3D
 Structure written by MMmdl.
172181  0  0  1  0            999 V2000
  -30.7590  -14.4166   20.6390 C   0  0  0  0  0  0
  -30.4169  -12.2998   19.4164 C   0  0  0  0  0  0
  -29.4936  -12.5053   18.2002 C   0  0  0  0  0  0
  -28.0116  -12.3811   18.6031 C   0  0  0  0  0  0
  -27.6643  -13.2099   19.8694 C   0  0  2  0  0  0
  -28.7026  -12.9885   20.9917 C   0  0  0  0  0  0
  -25.2620  -13.8169   20.5633 C   0  0  0  0  0  0
  -24.1879  -13.0462   20.9124 C   0  0  0  0  0  0
  -24.6428  -11.6915   20.8709 C   0  0  0  0  0  0
  -23.9107  -10.4306   21.0411 C   0  0  0  0  0  0
  -24.3653   -9.4215   21.9194 C   0  0  0  0  0  0
  -23.6322   -8.2266   22.0772 C   0  0  0  0  0  0
  -22.4300   -8.0313   21.3572 C   0  0  0  0  0  0
  -21.9940   -9.0277   20.4658 C   0  0  0  0  0  0
  -22.7282  -10.2150   20.3058 C   0  0  0  0  0  0
  -21.6870   -6.0756   22.5302 C   0  0  0  0  0  0
  -21.4020   -6.5653   23.8233 C   0  0  0  0  0  0
  -21.3638   -5.6802   24.9188 C   0  0  0  0  0  0
  -21.6041   -4.3067   24.7239 C   0  0  0  0  0  0
  -21.8820   -3.8163   23.4360 C   0  0  0  0  0  0
  -21.9198   -4.6985   22.3418 C   0  0  0  0  0  0
  -22.7898  -13.5262   21.1771 C   0  0  0  0  0  0
  -22.1674   -4.2173   21.1000 F   0  0  0  0  0  0
  -21.5609   -3.4552   25.7741 F   0  0  0  0  0  0
  -30.0421  -13.2775   20.4487 N   0  0  0  0  0  0
  -26.3050  -12.9339   20.3305 N   0  0  0  0  0  0
  -25.9363  -11.6495   20.5742 N   0  0  0  0  0  0
  -22.0521  -12.8279   22.0310 N   0  0  0  0  0  0
  -25.4358  -15.1892   20.4061 N   0  0  0  0  0  0
  -31.8259  -14.6430   20.0619 O   0  0  0  0  0  0
  -21.6662   -6.8908   21.4268 O   0  0  0  0  0  0
  -22.3601  -14.5571   20.6614 O   0  0  0  0  0  0
  -24.6130  -31.8662   23.2127 C   0  0  0  0  0  0
  -25.8982  -32.4838   23.8394 C   0  0  1  0  0  0
  -27.2111  -27.4200   20.0764 C   0  0  0  0  0  0
  -25.5844  -33.8641   24.2297 N   0  0  0  0  0  0
  -23.4012  -30.4928   21.5579 C   0  0  2  0  0  0
  -24.8398  -28.9694   20.1023 C   0  0  0  0  0  0
  -22.7422  -29.4614   22.5012 C   0  0  0  0  0  0
  -18.0261  -28.1377   22.8460 C   0  0  0  0  0  0
  -24.1488  -36.7355   23.2632 C   0  0  0  0  0  0
  -25.9313  -30.8256   21.3653 C   0  0  0  0  0  0
  -26.0026  -29.4628   20.7051 C   0  0  0  0  0  0
  -27.1929  -28.6952   20.6872 C   0  0  0  0  0  0
  -26.0276  -26.9522   19.4549 C   0  0  0  0  0  0
  -24.8473  -27.7167   19.4708 C   0  0  0  0  0  0
  -23.6018  -29.8364   20.1675 C   0  0  0  0  0  0
  -25.4114  -36.3146   24.0325 C   0  0  1  0  0  0
  -20.5868  -28.3622   23.1337 C   0  0  2  0  0  0
  -20.6780  -26.9361   22.5436 C   0  0  0  0  0  0
  -19.5766  -26.6373   21.5219 C   0  0  0  0  0  0
  -18.1919  -26.7923   22.1607 C   0  0  0  0  0  0
  -19.1524  -28.8817   23.2885 C   0  0  0  0  0  0
  -18.9459  -30.1422   23.8878 C   0  0  0  0  0  0
  -17.6466  -30.6566   24.0548 C   0  0  0  0  0  0
  -25.9038  -34.9493   23.5139 C   0  0  0  0  0  0
  -16.5347  -29.9061   23.6341 C   0  0  0  0  0  0
  -16.7261  -28.6509   23.0309 C   0  0  0  0  0  0
  -26.4405  -31.6647   25.0727 C   0  0  0  0  0  0
  -25.3685  -31.3755   26.1501 C   0  0  0  0  0  0
  -27.0205  -30.3107   24.6050 C   0  0  0  0  0  0
  -27.5966  -32.4388   25.7517 C   0  0  0  0  0  0
  -27.5587  -37.1824   24.8446 C   0  0  0  0  0  0
  -21.4156  -29.2979   22.3752 N   0  0  0  0  0  0
  -26.4316  -37.3805   23.9380 N   0  0  0  0  0  0
  -24.6679  -31.0746   22.1036 N   0  0  0  0  0  0
  -23.4196  -28.8114   23.3024 O   0  0  0  0  0  0
  -28.3754  -26.6750   20.1120 O   0  0  0  0  0  0
  -26.5611  -34.8924   22.4704 O   0  0  0  0  0  0
  -23.5329  -32.1367   23.7554 O   0  0  0  0  0  0
  -30.1926  -16.6913   24.3063 C   0  0  0  0  0  0
  -31.3703  -16.2802   23.4017 C   0  0  0  0  0  0
  -29.1773  -17.4273   23.4091 C   0  0  0  0  0  0
  -28.6353  -20.8017   21.6862 C   0  0  0  0  0  0
  -30.8706  -21.1338   20.4971 C   0  0  0  0  0  0
  -28.7575  -22.3487   21.7661 C   0  0  0  0  0  0
  -30.1326  -22.2073   19.6712 C   0  0  0  0  0  0
  -30.8969  -16.5440   21.9609 C   0  0  2  0  0  0
  -29.8902  -17.7295   22.0701 C   0  0  2  0  0  0
  -29.8876  -20.0916   21.0932 C   0  0  1  0  0  0
  -31.0784  -19.6619   23.2687 C   0  0  0  0  0  0
  -29.3967  -24.4554   20.5609 C   0  0  0  0  0  0
  -28.2369  -25.2563   19.9321 C   0  0  0  0  0  0
  -30.2383  -15.3079   21.4971 N   0  0  0  0  0  0
  -29.1316  -22.9836   20.4651 N   0  3  2  0  0  0
  -30.5635  -19.0848   21.9921 N   0  3  1  0  0  0
  -31.4616  -12.3861   19.1136 H   0  0  0  0  0  0
  -30.3119  -11.2897   19.8153 H   0  0  0  0  0  0
  -29.7313  -11.7776   17.4223 H   0  0  0  0  0  0
  -29.6706  -13.4896   17.7636 H   0  0  0  0  0  0
  -27.7950  -11.3250   18.7725 H   0  0  0  0  0  0
  -27.3741  -12.6867   17.7723 H   0  0  0  0  0  0
  -27.7122  -14.2594   19.5782 H   0  0  0  0  0  0
  -28.6648  -11.9545   21.3369 H   0  0  0  0  0  0
  -28.4528  -13.5936   21.8631 H   0  0  0  0  0  0
  -25.2817   -9.5690   22.4758 H   0  0  0  0  0  0
  -24.0027   -7.4668   22.7507 H   0  0  0  0  0  0
  -21.0873   -8.8824   19.8974 H   0  0  0  0  0  0
  -22.3778  -10.9691   19.6159 H   0  0  0  0  0  0
  -21.2032   -7.6164   23.9748 H   0  0  0  0  0  0
  -21.1436   -6.0527   25.9086 H   0  0  0  0  0  0
  -22.0608   -2.7635   23.2866 H   0  0  0  0  0  0
  -22.4142  -11.9943   22.4703 H   0  0  0  0  0  0
  -21.1147  -13.1318   22.2483 H   0  0  0  0  0  0
  -24.6685  -15.8430   20.5062 H   0  0  0  0  0  0
  -26.2932  -15.6260   20.0924 H   0  0  0  0  0  0
  -26.7009  -32.5532   23.1117 H   0  0  0  0  0  0
  -24.9983  -33.9811   25.0445 H   0  0  0  0  0  0
  -22.6892  -31.3099   21.4267 H   0  0  0  0  0  0
  -23.3742  -35.9699   23.3322 H   0  0  0  0  0  0
  -24.3564  -36.8992   22.2043 H   0  0  0  0  0  0
  -23.7270  -37.6572   23.6658 H   0  0  0  0  0  0
  -26.0360  -31.5919   20.5968 H   0  0  0  0  0  0
  -26.8232  -30.8789   21.9779 H   0  0  0  0  0  0
  -28.0913  -29.0602   21.1622 H   0  0  0  0  0  0
  -25.9858  -26.0041   18.9403 H   0  0  0  0  0  0
  -23.9566  -27.3457   18.9800 H   0  0  0  0  0  0
  -23.6979  -30.6164   19.4126 H   0  0  0  0  0  0
  -22.7216  -29.2582   19.8796 H   0  0  0  0  0  0
  -25.1287  -36.2019   25.0820 H   0  0  0  0  0  0
  -20.9902  -28.3191   24.1484 H   0  0  0  0  0  0
  -20.5743  -26.2181   23.3605 H   0  0  0  0  0  0
  -21.6633  -26.7471   22.1174 H   0  0  0  0  0  0
  -19.6946  -25.6290   21.1226 H   0  0  0  0  0  0
  -19.6754  -27.3217   20.6784 H   0  0  0  0  0  0
  -17.4212  -26.6669   21.3981 H   0  0  0  0  0  0
  -18.0268  -26.0085   22.9020 H   0  0  0  0  0  0
  -19.7948  -30.7218   24.2245 H   0  0  0  0  0  0
  -17.5033  -31.6252   24.5141 H   0  0  0  0  0  0
  -15.5338  -30.2929   23.7711 H   0  0  0  0  0  0
  -15.8677  -28.0834   22.6974 H   0  0  0  0  0  0
  -24.5891  -30.7031   25.7901 H   0  0  0  0  0  0
  -24.8783  -32.2880   26.4902 H   0  0  0  0  0  0
  -25.8041  -30.9021   27.0304 H   0  0  0  0  0  0
  -26.2719  -29.6955   24.1034 H   0  0  0  0  0  0
  -27.3913  -29.7248   25.4465 H   0  0  0  0  0  0
  -27.8579  -30.4455   23.9205 H   0  0  0  0  0  0
  -27.2583  -33.3724   26.2023 H   0  0  0  0  0  0
  -28.3819  -32.6920   25.0391 H   0  0  0  0  0  0
  -28.0553  -31.8556   26.5512 H   0  0  0  0  0  0
  -28.2579  -38.0139   24.7496 H   0  0  0  0  0  0
  -28.1101  -36.2660   24.6280 H   0  0  0  0  0  0
  -27.2266  -37.1495   25.8836 H   0  0  0  0  0  0
  -20.9302  -29.8746   21.7029 H   0  0  0  0  0  0
  -26.0219  -38.2882   24.1407 H   0  0  0  0  0  0
  -30.5303  -17.3317   25.1211 H   0  0  0  0  0  0
  -29.7333  -15.8165   24.7716 H   0  0  0  0  0  0
  -31.6727  -15.2444   23.5765 H   0  0  0  0  0  0
  -32.2593  -16.8760   23.6164 H   0  0  0  0  0  0
  -28.7265  -18.2938   23.8929 H   0  0  0  0  0  0
  -28.3483  -16.7479   23.2053 H   0  0  0  0  0  0
  -27.7788  -20.5703   21.0501 H   0  0  0  0  0  0
  -28.3687  -20.4012   22.6634 H   0  0  0  0  0  0
  -31.4495  -21.6500   21.2626 H   0  0  0  0  0  0
  -31.5935  -20.6317   19.8549 H   0  0  0  0  0  0
  -29.4896  -22.6137   22.5295 H   0  0  0  0  0  0
  -27.8088  -22.7749   22.0985 H   0  0  0  0  0  0
  -29.5944  -21.7159   18.8590 H   0  0  0  0  0  0
  -30.8583  -22.8580   19.1812 H   0  0  0  0  0  0
  -31.7382  -16.7992   21.3099 H   0  0  0  0  0  0
  -29.1655  -17.6555   21.2570 H   0  0  0  0  0  0
  -29.5249  -19.5312   20.2296 H   0  0  0  0  0  0
  -31.7647  -18.9909   23.7793 H   0  0  0  0  0  0
  -30.2828  -19.9215   23.9661 H   0  0  0  0  0  0
  -31.6554  -20.5669   23.0972 H   0  0  0  0  0  0
  -29.5284  -24.7566   21.6031 H   0  0  0  0  0  0
  -30.3227  -24.7382   20.0605 H   0  0  0  0  0  0
  -27.3188  -24.9018   20.4018 H   0  0  0  0  0  0
  -28.1696  -25.0389   18.8633 H   0  0  0  0  0  0
  -29.3601  -15.0628   21.9261 H   0  0  0  0  0  0
  -28.2982  -22.9312   19.8961 H   0  0  0  0  0  0
  -31.4030  -18.8642   21.4742 H   0  0  0  0  0  0
  1 25  1  0  0  0
  1 30  2  0  0  0
  1 84  1  0  0  0
  2  3  1  0  0  0
  2 25  1  0  0  0
  2 87  1  0  0  0
  2 88  1  0  0  0
  3  4  1  0  0  0
  3 89  1  0  0  0
  3 90  1  0  0  0
  4  5  1  0  0  0
  4 91  1  0  0  0
  4 92  1  0  0  0
  5  6  1  0  0  0
  5 26  1  0  0  0
  5 93  1  0  0  0
  6 25  1  0  0  0
  6 94  1  0  0  0
  6 95  1  0  0  0
  7  8  2  0  0  0
  7 26  1  0  0  0
  7 29  1  0  0  0
  8  9  1  0  0  0
  8 22  1  0  0  0
  9 10  1  0  0  0
  9 27  2  0  0  0
 10 11  2  0  0  0
 10 15  1  0  0  0
 11 12  1  0  0  0
 11 96  1  0  0  0
 12 13  2  0  0  0
 12 97  1  0  0  0
 13 14  1  0  0  0
 13 31  1  0  0  0
 14 15  2  0  0  0
 14 98  1  0  0  0
 15 99  1  0  0  0
 16 17  2  0  0  0
 16 21  1  0  0  0
 16 31  1  0  0  0
 17 18  1  0  0  0
 17100  1  0  0  0
 18 19  2  0  0  0
 18101  1  0  0  0
 19 20  1  0  0  0
 19 24  1  0  0  0
 20 21  2  0  0  0
 20102  1  0  0  0
 21 23  1  0  0  0
 22 28  1  0  0  0
 22 32  2  0  0  0
 26 27  1  0  0  0
 28103  1  0  0  0
 28104  1  0  0  0
 29105  1  0  0  0
 29106  1  0  0  0
 33 34  1  0  0  0
 33 66  1  0  0  0
 33 70  2  0  0  0
 34 36  1  0  0  0
 34 59  1  0  0  0
 34107  1  0  0  0
 35 44  2  0  0  0
 35 45  1  0  0  0
 35 68  1  0  0  0
 36 56  1  0  0  0
 36108  1  0  0  0
 37 39  1  0  0  0
 37 47  1  0  0  0
 37 66  1  0  0  0
 37109  1  0  0  0
 38 43  2  0  0  0
 38 46  1  0  0  0
 38 47  1  0  0  0
 39 64  1  0  0  0
 39 67  2  0  0  0
 40 52  1  0  0  0
 40 53  2  0  0  0
 40 58  1  0  0  0
 41110  1  0  0  0
 41111  1  0  0  0
 41112  1  0  0  0
 41 48  1  0  0  0
 42 43  1  0  0  0
 42 66  1  0  0  0
 42113  1  0  0  0
 42114  1  0  0  0
 43 44  1  0  0  0
 44115  1  0  0  0
 45 46  2  0  0  0
 45116  1  0  0  0
 46117  1  0  0  0
 47118  1  0  0  0
 47119  1  0  0  0
 48 56  1  0  0  0
 48 65  1  0  0  0
 48120  1  0  0  0
 49 50  1  0  0  0
 49 53  1  0  0  0
 49 64  1  0  0  0
 49121  1  0  0  0
 50 51  1  0  0  0
 50122  1  0  0  0
 50123  1  0  0  0
 51 52  1  0  0  0
 51124  1  0  0  0
 51125  1  0  0  0
 52126  1  0  0  0
 52127  1  0  0  0
 53 54  1  0  0  0
 54 55  2  0  0  0
 54128  1  0  0  0
 55 57  1  0  0  0
 55129  1  0  0  0
 56 69  2  0  0  0
 57 58  2  0  0  0
 57130  1  0  0  0
 58131  1  0  0  0
 59 60  1  0  0  0
 59 61  1  0  0  0
 59 62  1  0  0  0
 60132  1  0  0  0
 60133  1  0  0  0
 60134  1  0  0  0
 61135  1  0  0  0
 61136  1  0  0  0
 61137  1  0  0  0
 62138  1  0  0  0
 62139  1  0  0  0
 62140  1  0  0  0
 63 65  1  0  0  0
 63141  1  0  0  0
 63142  1  0  0  0
 63143  1  0  0  0
 64144  1  0  0  0
 65145  1  0  0  0
 68 83  1  0  0  0
 71 72  1  0  0  0
 71 73  1  0  0  0
 71146  1  0  0  0
 71147  1  0  0  0
 72 78  1  0  0  0
 72148  1  0  0  0
 72149  1  0  0  0
 73150  1  0  0  0
 73151  1  0  0  0
 73 79  1  0  0  0
 74 76  1  0  0  0
 74152  1  0  0  0
 74153  1  0  0  0
 74 80  1  0  0  0
 75 77  1  0  0  0
 75 80  1  0  0  0
 75154  1  0  0  0
 75155  1  0  0  0
 76 85  1  0  0  0
 76156  1  0  0  0
 76157  1  0  0  0
 77 85  1  0  0  0
 77158  1  0  0  0
 77159  1  0  0  0
 78 79  1  0  0  0
 78 84  1  0  0  0
 78160  1  0  0  0
 79 86  1  0  0  0
 79161  1  0  0  0
 80 86  1  0  0  0
 80162  1  0  0  0
 81163  1  0  0  0
 81164  1  0  0  0
 81165  1  0  0  0
 81 86  1  0  0  0
 82 83  1  0  0  0
 82166  1  0  0  0
 82167  1  0  0  0
 82 85  1  0  0  0
 83168  1  0  0  0
 83169  1  0  0  0
 84170  1  0  0  0
 85171  1  0  0  0
 86172  1  0  0  0
M  CHG  2  85   1  86   1
M  ISO  4   1 100  68 101  83 101  84 100
M  END
> <chiral flag>
0

> <version>
0

> <s_m_source_file>
/data/baiqing/PycharmProjects/Reinvent-master-3.2/result/LINK_invent/BTK/process_docking_weight1_custom_sum_contain_oxygen_bond_distance_aromatic_linkinvent_7_9_3/rearranged_h_0179.sdf

> <i_m_source_file_index>
95

> <r_mmod_Potential_Energy-OPLS-2005>
-144.874923706055

> <r_mmod_Stretch_Energy-OPLS-2005>
44.7973442077637

> <r_mmod_Bend_Energy-OPLS-2005>
139.376556396484

> <r_mmod_Torsional_Energy-OPLS-2005>
343.687438964844

> <r_mmod_Improper_Torsional_Energy-OPLS-2005>
1.74790632724762

> <r_mmod_Van_der_Waal_Energy-OPLS-2005>
155.040313720703

> <r_mmod_Electrostatic_Energy-OPLS-2005>
95.5908126831055

> <r_mmod_Solvation_Energy-OPLS-2005>
-937.367248535156

> <b_mmod_Minimization_Converged-OPLS-2005>
0

> <r_mmod_RMS_Derivative-OPLS-2005>
4.4885401725769

$$$$
95
                    3D
 Structure written by MMmdl.
158167  0  0  1  0            999 V2000
  -30.5983  -14.9872   20.4145 C   0  0  0  0  0  0
  -30.4107  -12.6234   19.4975 C   0  0  0  0  0  0
  -29.5046  -12.5356   18.2513 C   0  0  0  0  0  0
  -28.0438  -12.3142   18.6779 C   0  0  0  0  0  0
  -27.6147  -13.2660   19.8261 C   0  0  2  0  0  0
  -28.6580  -13.3598   20.9591 C   0  0  0  0  0  0
  -25.2396  -13.8251   20.5736 C   0  0  0  0  0  0
  -24.1737  -13.0448   20.9240 C   0  0  0  0  0  0
  -24.6379  -11.6942   20.8768 C   0  0  0  0  0  0
  -23.9071  -10.4296   21.0410 C   0  0  0  0  0  0
  -24.3612   -9.4213   21.9193 C   0  0  0  0  0  0
  -23.6283   -8.2249   22.0766 C   0  0  0  0  0  0
  -22.4271   -8.0281   21.3553 C   0  0  0  0  0  0
  -21.9910   -9.0251   20.4651 C   0  0  0  0  0  0
  -22.7238  -10.2132   20.3062 C   0  0  0  0  0  0
  -21.6846   -6.0731   22.5272 C   0  0  0  0  0  0
  -21.4016   -6.5635   23.8202 C   0  0  0  0  0  0
  -21.3661   -5.6791   24.9167 C   0  0  0  0  0  0
  -21.6042   -4.3053   24.7220 C   0  0  0  0  0  0
  -21.8816   -3.8140   23.4339 C   0  0  0  0  0  0
  -21.9191   -4.6958   22.3396 C   0  0  0  0  0  0
  -22.7762  -13.5218   21.1862 C   0  0  0  0  0  0
  -22.1658   -4.2141   21.0975 F   0  0  0  0  0  0
  -21.5621   -3.4537   25.7733 F   0  0  0  0  0  0
  -29.9197  -13.7656   20.3324 N   0  0  0  0  0  0
  -26.2818  -12.9516   20.3243 N   0  0  0  0  0  0
  -25.9316  -11.6626   20.5754 N   0  0  0  0  0  0
  -22.0410  -12.8223   22.0424 N   0  0  0  0  0  0
  -25.4052  -15.1978   20.4156 N   0  0  0  0  0  0
  -31.8108  -14.9273   20.1872 O   0  0  0  0  0  0
  -21.6642   -6.8877   21.4241 O   0  0  0  0  0  0
  -22.3453  -14.5522   20.6704 O   0  0  0  0  0  0
  -24.6491  -31.8416   23.1859 C   0  0  0  0  0  0
  -25.9240  -32.4693   23.8261 C   0  0  1  0  0  0
  -27.1974  -27.0837   20.1551 C   0  0  0  0  0  0
  -25.5968  -33.8498   24.2163 N   0  0  0  0  0  0
  -23.4548  -30.4601   21.5359 C   0  0  2  0  0  0
  -24.9011  -28.8856   20.1095 C   0  0  0  0  0  0
  -22.7613  -29.4503   22.4851 C   0  0  0  0  0  0
  -18.0308  -28.1382   22.8460 C   0  0  0  0  0  0
  -24.1493  -36.7242   23.2640 C   0  0  0  0  0  0
  -26.0154  -30.6954   21.3953 C   0  0  0  0  0  0
  -26.0827  -29.3027   20.7367 C   0  0  0  0  0  0
  -27.2340  -28.4182   20.7447 C   0  0  0  0  0  0
  -26.0005  -26.7996   19.4605 C   0  0  0  0  0  0
  -24.8758  -27.6484   19.4541 C   0  0  0  0  0  0
  -23.6829  -29.7953   20.1540 C   0  0  0  0  0  0
  -25.4131  -36.3025   24.0303 C   0  0  1  0  0  0
  -20.5923  -28.3711   23.1222 C   0  0  2  0  0  0
  -20.6794  -26.9414   22.5391 C   0  0  0  0  0  0
  -19.5764  -26.6367   21.5198 C   0  0  0  0  0  0
  -18.1942  -26.7917   22.1606 C   0  0  0  0  0  0
  -19.1567  -28.8868   23.2820 C   0  0  0  0  0  0
  -18.9486  -30.1466   23.8843 C   0  0  0  0  0  0
  -17.6484  -30.6581   24.0541 C   0  0  0  0  0  0
  -25.9089  -34.9414   23.5042 C   0  0  0  0  0  0
  -16.5369  -29.9080   23.6329 C   0  0  0  0  0  0
  -16.7290  -28.6500   23.0339 C   0  0  0  0  0  0
  -26.4513  -31.6594   25.0743 C   0  0  0  0  0  0
  -25.3650  -31.3786   26.1406 C   0  0  0  0  0  0
  -27.0384  -30.2993   24.6363 C   0  0  0  0  0  0
  -27.6041  -32.4381   25.7506 C   0  0  0  0  0  0
  -27.5567  -37.1783   24.8464 C   0  0  0  0  0  0
  -21.4294  -29.3047   22.3622 N   0  0  0  0  0  0
  -26.4274  -37.3759   23.9416 N   0  0  0  0  0  0
  -24.7272  -31.0207   22.0940 N   0  0  0  0  0  0
  -23.4237  -28.8024   23.2996 O   0  0  0  0  0  0
  -28.2015  -26.0323   20.2062 O   0  0  0  0  0  0
  -26.5683  -34.8915   22.4635 O   0  0  0  0  0  0
  -23.5597  -32.1315   23.7041 O   0  0  0  0  0  0
  -29.5085  -21.1513   21.4845 C   0  0  0  0  0  0
  -29.1903  -20.1350   20.5072 C   0  0  0  0  0  0
  -28.5100  -23.0565   20.3309 C   0  0  0  0  0  0
  -28.2092  -22.0420   19.3255 C   0  0  0  0  0  0
  -28.7889  -17.1190   20.7608 C   0  0  0  0  0  0
  -30.6000  -17.6025   19.8439 C   0  0  0  0  0  0
  -29.5937  -18.5083   20.6591 C   0  0  0  0  0  0
  -25.9207  -21.9196   18.2378 C   0  0  0  0  0  0
  -28.0112  -21.9083   16.7820 C   0  0  0  0  0  0
  -27.7460  -24.5458   20.4761 C   0  0  0  0  0  0
  -27.3740  -22.4015   18.0943 C   0  0  0  0  0  0
  -29.1800  -22.5137   21.4117 N   0  0  0  0  0  0
  -28.5345  -20.6703   19.4162 N   0  0  0  0  0  0
  -30.0027  -16.3011   20.3517 N   0  0  0  0  0  0
  -31.4476  -12.7486   19.1820 H   0  0  0  0  0  0
  -30.3842  -11.6905   20.0615 H   0  0  0  0  0  0
  -29.8304  -11.7289   17.5927 H   0  0  0  0  0  0
  -29.5831  -13.4578   17.6733 H   0  0  0  0  0  0
  -27.9540  -11.2792   19.0074 H   0  0  0  0  0  0
  -27.3748  -12.4219   17.8223 H   0  0  0  0  0  0
  -27.5582  -14.2545   19.3701 H   0  0  0  0  0  0
  -28.7596  -12.4122   21.4905 H   0  0  0  0  0  0
  -28.3538  -14.1058   21.6951 H   0  0  0  0  0  0
  -25.2746   -9.5690   22.4790 H   0  0  0  0  0  0
  -23.9972   -7.4653   22.7518 H   0  0  0  0  0  0
  -21.0831   -8.8773   19.8980 H   0  0  0  0  0  0
  -22.3679  -10.9669   19.6185 H   0  0  0  0  0  0
  -21.2025   -7.6146   23.9703 H   0  0  0  0  0  0
  -21.1479   -6.0524   25.9069 H   0  0  0  0  0  0
  -22.0595   -2.7601   23.2840 H   0  0  0  0  0  0
  -22.3992  -11.9867   22.4808 H   0  0  0  0  0  0
  -21.1047  -13.1290   22.2645 H   0  0  0  0  0  0
  -24.6366  -15.8515   20.5211 H   0  0  0  0  0  0
  -26.2534  -15.6330   20.0776 H   0  0  0  0  0  0
  -26.7318  -32.5267   23.0987 H   0  0  0  0  0  0
  -25.0086  -33.9613   25.0290 H   0  0  0  0  0  0
  -22.7565  -31.2862   21.3832 H   0  0  0  0  0  0
  -23.3789  -35.9538   23.3263 H   0  0  0  0  0  0
  -24.3549  -36.8945   22.2059 H   0  0  0  0  0  0
  -23.7226  -37.6406   23.6730 H   0  0  0  0  0  0
  -26.1785  -31.4441   20.6193 H   0  0  0  0  0  0
  -26.8842  -30.7435   22.0396 H   0  0  0  0  0  0
  -28.1323  -28.7275   21.2617 H   0  0  0  0  0  0
  -25.8950  -25.8768   18.9118 H   0  0  0  0  0  0
  -23.9813  -27.3315   18.9360 H   0  0  0  0  0  0
  -23.8298  -30.5739   19.4045 H   0  0  0  0  0  0
  -22.7934  -29.2467   19.8391 H   0  0  0  0  0  0
  -25.1328  -36.1816   25.0791 H   0  0  0  0  0  0
  -20.9979  -28.3299   24.1354 H   0  0  0  0  0  0
  -20.5683  -26.2325   23.3610 H   0  0  0  0  0  0
  -21.6659  -26.7407   22.1194 H   0  0  0  0  0  0
  -19.6925  -25.6274   21.1259 H   0  0  0  0  0  0
  -19.6710  -27.3141   20.6701 H   0  0  0  0  0  0
  -17.4218  -26.6653   21.4013 H   0  0  0  0  0  0
  -18.0321  -26.0063   22.9000 H   0  0  0  0  0  0
  -19.7956  -30.7280   24.2201 H   0  0  0  0  0  0
  -17.5039  -31.6249   24.5172 H   0  0  0  0  0  0
  -15.5368  -30.2961   23.7699 H   0  0  0  0  0  0
  -15.8678  -28.0815   22.7066 H   0  0  0  0  0  0
  -24.5810  -30.7187   25.7676 H   0  0  0  0  0  0
  -24.8840  -32.2964   26.4799 H   0  0  0  0  0  0
  -25.7863  -30.8933   27.0216 H   0  0  0  0  0  0
  -26.3012  -29.6706   24.1365 H   0  0  0  0  0  0
  -27.3978  -29.7317   25.4949 H   0  0  0  0  0  0
  -27.8929  -30.4242   23.9713 H   0  0  0  0  0  0
  -27.2688  -33.3786   26.1888 H   0  0  0  0  0  0
  -28.3921  -32.6785   25.0358 H   0  0  0  0  0  0
  -28.0622  -31.8628   26.5555 H   0  0  0  0  0  0
  -28.2574  -38.0095   24.7534 H   0  0  0  0  0  0
  -28.1087  -36.2623   24.6283 H   0  0  0  0  0  0
  -27.2268  -37.1414   25.8863 H   0  0  0  0  0  0
  -20.9514  -29.8841   21.6861 H   0  0  0  0  0  0
  -26.0128  -38.2816   24.1462 H   0  0  0  0  0  0
  -30.0351  -20.8643   22.3840 H   0  0  0  0  0  0
  -27.9761  -17.0576   20.0367 H   0  0  0  0  0  0
  -28.4149  -16.9138   21.7650 H   0  0  0  0  0  0
  -31.6415  -17.7688   20.1248 H   0  0  0  0  0  0
  -30.4848  -17.7254   18.7660 H   0  0  0  0  0  0
  -30.0667  -18.5699   21.6418 H   0  0  0  0  0  0
  -25.4537  -22.3395   19.1296 H   0  0  0  0  0  0
  -25.8665  -20.8335   18.3203 H   0  0  0  0  0  0
  -25.3205  -22.2169   17.3774 H   0  0  0  0  0  0
  -29.0227  -22.2980   16.6643 H   0  0  0  0  0  0
  -27.4335  -22.2336   15.9167 H   0  0  0  0  0  0
  -28.0650  -20.8194   16.7452 H   0  0  0  0  0  0
  -27.4596  -24.5760   21.5269 H   0  0  0  0  0  0
  -26.7936  -24.3765   19.9857 H   0  0  0  0  0  0
  -27.3489  -23.4879   18.0079 H   0  0  0  0  0  0
  1 25  1  0  0  0
  1 30  2  0  0  0
  1 84  1  0  0  0
  2  3  1  0  0  0
  2 25  1  0  0  0
  2 85  1  0  0  0
  2 86  1  0  0  0
  3  4  1  0  0  0
  3 87  1  0  0  0
  3 88  1  0  0  0
  4  5  1  0  0  0
  4 89  1  0  0  0
  4 90  1  0  0  0
  5  6  1  0  0  0
  5 26  1  0  0  0
  5 91  1  0  0  0
  6 25  1  0  0  0
  6 92  1  0  0  0
  6 93  1  0  0  0
  7  8  2  0  0  0
  7 26  1  0  0  0
  7 29  1  0  0  0
  8  9  1  0  0  0
  8 22  1  0  0  0
  9 10  1  0  0  0
  9 27  2  0  0  0
 10 11  2  0  0  0
 10 15  1  0  0  0
 11 12  1  0  0  0
 11 94  1  0  0  0
 12 13  2  0  0  0
 12 95  1  0  0  0
 13 14  1  0  0  0
 13 31  1  0  0  0
 14 15  2  0  0  0
 14 96  1  0  0  0
 15 97  1  0  0  0
 16 17  2  0  0  0
 16 21  1  0  0  0
 16 31  1  0  0  0
 17 18  1  0  0  0
 17 98  1  0  0  0
 18 19  2  0  0  0
 18 99  1  0  0  0
 19 20  1  0  0  0
 19 24  1  0  0  0
 20 21  2  0  0  0
 20100  1  0  0  0
 21 23  1  0  0  0
 22 28  1  0  0  0
 22 32  2  0  0  0
 26 27  1  0  0  0
 28101  1  0  0  0
 28102  1  0  0  0
 29103  1  0  0  0
 29104  1  0  0  0
 33 34  1  0  0  0
 33 66  1  0  0  0
 33 70  2  0  0  0
 34 36  1  0  0  0
 34 59  1  0  0  0
 34105  1  0  0  0
 35 44  2  0  0  0
 35 45  1  0  0  0
 35 68  1  0  0  0
 36 56  1  0  0  0
 36106  1  0  0  0
 37 39  1  0  0  0
 37 47  1  0  0  0
 37 66  1  0  0  0
 37107  1  0  0  0
 38 43  2  0  0  0
 38 46  1  0  0  0
 38 47  1  0  0  0
 39 64  1  0  0  0
 39 67  2  0  0  0
 40 52  1  0  0  0
 40 53  2  0  0  0
 40 58  1  0  0  0
 41108  1  0  0  0
 41109  1  0  0  0
 41110  1  0  0  0
 41 48  1  0  0  0
 42 43  1  0  0  0
 42 66  1  0  0  0
 42111  1  0  0  0
 42112  1  0  0  0
 43 44  1  0  0  0
 44113  1  0  0  0
 45 46  2  0  0  0
 45114  1  0  0  0
 46115  1  0  0  0
 47116  1  0  0  0
 47117  1  0  0  0
 48 56  1  0  0  0
 48 65  1  0  0  0
 48118  1  0  0  0
 49 50  1  0  0  0
 49 53  1  0  0  0
 49 64  1  0  0  0
 49119  1  0  0  0
 50 51  1  0  0  0
 50120  1  0  0  0
 50121  1  0  0  0
 51 52  1  0  0  0
 51122  1  0  0  0
 51123  1  0  0  0
 52124  1  0  0  0
 52125  1  0  0  0
 53 54  1  0  0  0
 54 55  2  0  0  0
 54126  1  0  0  0
 55 57  1  0  0  0
 55127  1  0  0  0
 56 69  2  0  0  0
 57 58  2  0  0  0
 57128  1  0  0  0
 58129  1  0  0  0
 59 60  1  0  0  0
 59 61  1  0  0  0
 59 62  1  0  0  0
 60130  1  0  0  0
 60131  1  0  0  0
 60132  1  0  0  0
 61133  1  0  0  0
 61134  1  0  0  0
 61135  1  0  0  0
 62136  1  0  0  0
 62137  1  0  0  0
 62138  1  0  0  0
 63 65  1  0  0  0
 63139  1  0  0  0
 63140  1  0  0  0
 63141  1  0  0  0
 64142  1  0  0  0
 65143  1  0  0  0
 68 80  1  0  0  0
 71 72  2  0  0  0
 71 82  1  0  0  0
 71144  1  0  0  0
 72 83  1  0  0  0
 72 77  1  0  0  0
 73 74  1  0  0  0
 73 80  1  0  0  0
 73 82  2  0  0  0
 74 81  1  0  0  0
 74 83  2  0  0  0
 75 77  1  0  0  0
 75 84  1  0  0  0
 75145  1  0  0  0
 75146  1  0  0  0
 76 77  1  0  0  0
 76 84  1  0  0  0
 76147  1  0  0  0
 76148  1  0  0  0
 77149  1  0  0  0
 78150  1  0  0  0
 78151  1  0  0  0
 78152  1  0  0  0
 78 81  1  0  0  0
 79 81  1  0  0  0
 79153  1  0  0  0
 79154  1  0  0  0
 79155  1  0  0  0
 80156  1  0  0  0
 80157  1  0  0  0
 81158  1  0  0  0
M  ISO  4   1 100  68 101  80 101  84 100
M  END
> <chiral flag>
0

> <version>
0

> <s_m_source_file>
/data/baiqing/PycharmProjects/Reinvent-master-3.2/result/LINK_invent/BTK/process_docking_weight1_custom_sum_contain_oxygen_bond_distance_aromatic_linkinvent_7_9_3/rearranged_h_0179.sdf

> <i_m_source_file_index>
96

> <r_mmod_Potential_Energy-OPLS-2005>
781.815673828125

> <r_mmod_Stretch_Energy-OPLS-2005>
273.0205078125

> <r_mmod_Bend_Energy-OPLS-2005>
345.142578125

> <r_mmod_Torsional_Energy-OPLS-2005>
254.241806030273

> <r_mmod_Improper_Torsional_Energy-OPLS-2005>
14.4995126724243

> <r_mmod_Van_der_Waal_Energy-OPLS-2005>
133.978591918945

> <r_mmod_Electrostatic_Energy-OPLS-2005>
-253.826370239258

> <r_mmod_Solvation_Energy-OPLS-2005>
-223.592651367188

> <b_mmod_Minimization_Converged-OPLS-2005>
0

> <r_mmod_RMS_Derivative-OPLS-2005>
2.07431292533875

$$$$
96
                    3D
 Structure written by MMmdl.
162171  0  0  1  0            999 V2000
  -30.6894  -14.5888   20.4895 C   0  0  0  0  0  0
  -30.4113  -12.3597   19.4544 C   0  0  0  0  0  0
  -29.4950  -12.4937   18.2220 C   0  0  0  0  0  0
  -28.0176  -12.3441   18.6344 C   0  0  0  0  0  0
  -27.6425  -13.2236   19.8581 C   0  0  2  0  0  0
  -28.6888  -13.1136   20.9884 C   0  0  0  0  0  0
  -25.2503  -13.8190   20.5697 C   0  0  0  0  0  0
  -24.1773  -13.0439   20.9187 C   0  0  0  0  0  0
  -24.6353  -11.6918   20.8741 C   0  0  0  0  0  0
  -23.9028  -10.4291   21.0401 C   0  0  0  0  0  0
  -24.3588   -9.4207   21.9180 C   0  0  0  0  0  0
  -23.6266   -8.2240   22.0752 C   0  0  0  0  0  0
  -22.4253   -8.0274   21.3537 C   0  0  0  0  0  0
  -21.9884   -9.0238   20.4643 C   0  0  0  0  0  0
  -22.7208  -10.2124   20.3053 C   0  0  0  0  0  0
  -21.6845   -6.0722   22.5267 C   0  0  0  0  0  0
  -21.4006   -6.5628   23.8201 C   0  0  0  0  0  0
  -21.3650   -5.6784   24.9165 C   0  0  0  0  0  0
  -21.6042   -4.3049   24.7218 C   0  0  0  0  0  0
  -21.8826   -3.8142   23.4341 C   0  0  0  0  0  0
  -21.9192   -4.6955   22.3395 C   0  0  0  0  0  0
  -22.7800  -13.5230   21.1859 C   0  0  0  0  0  0
  -22.1665   -4.2141   21.0973 F   0  0  0  0  0  0
  -21.5624   -3.4538   25.7734 F   0  0  0  0  0  0
  -30.0040  -13.4075   20.4079 N   0  0  0  0  0  0
  -26.2922  -12.9376   20.3336 N   0  0  0  0  0  0
  -25.9281  -11.6524   20.5773 N   0  0  0  0  0  0
  -22.0450  -12.8222   22.0428 N   0  0  0  0  0  0
  -25.4232  -15.1901   20.4141 N   0  0  0  0  0  0
  -31.8798  -14.6562   20.1675 O   0  0  0  0  0  0
  -21.6630   -6.8865   21.4228 O   0  0  0  0  0  0
  -22.3486  -14.5539   20.6723 O   0  0  0  0  0  0
  -24.6218  -31.8587   23.2075 C   0  0  0  0  0  0
  -25.9088  -32.4756   23.8359 C   0  0  1  0  0  0
  -27.2257  -27.3471   20.0968 C   0  0  0  0  0  0
  -25.5911  -33.8561   24.2273 N   0  0  0  0  0  0
  -23.4114  -30.4826   21.5495 C   0  0  2  0  0  0
  -24.8569  -28.9411   20.1082 C   0  0  0  0  0  0
  -22.7428  -29.4596   22.4969 C   0  0  0  0  0  0
  -18.0252  -28.1350   22.8508 C   0  0  0  0  0  0
  -24.1461  -36.7244   23.2657 C   0  0  0  0  0  0
  -25.9519  -30.7909   21.3823 C   0  0  0  0  0  0
  -26.0208  -29.4237   20.7174 C   0  0  0  0  0  0
  -27.2031  -28.6337   20.7110 C   0  0  0  0  0  0
  -26.0332  -26.8956   19.4880 C   0  0  0  0  0  0
  -24.8648  -27.6804   19.4881 C   0  0  0  0  0  0
  -23.6225  -29.8175   20.1629 C   0  0  0  0  0  0
  -25.4099  -36.3063   24.0340 C   0  0  1  0  0  0
  -20.5854  -28.3640   23.1297 C   0  0  2  0  0  0
  -20.6730  -26.9358   22.5431 C   0  0  0  0  0  0
  -19.5706  -26.6349   21.5223 C   0  0  0  0  0  0
  -18.1880  -26.7901   22.1626 C   0  0  0  0  0  0
  -19.1513  -28.8815   23.2890 C   0  0  0  0  0  0
  -18.9457  -30.1432   23.8893 C   0  0  0  0  0  0
  -17.6463  -30.6569   24.0562 C   0  0  0  0  0  0
  -25.9051  -34.9436   23.5107 C   0  0  0  0  0  0
  -16.5349  -29.9068   23.6358 C   0  0  0  0  0  0
  -16.7248  -28.6479   23.0392 C   0  0  0  0  0  0
  -26.4493  -31.6588   25.0731 C   0  0  0  0  0  0
  -25.3733  -31.3731   26.1464 C   0  0  0  0  0  0
  -27.0384  -30.3016   24.6225 C   0  0  0  0  0  0
  -27.6026  -32.4378   25.7487 C   0  0  0  0  0  0
  -27.5569  -37.1757   24.8471 C   0  0  0  0  0  0
  -21.4147  -29.2996   22.3693 N   0  0  0  0  0  0
  -26.4257  -37.3780   23.9450 N   0  0  0  0  0  0
  -24.6787  -31.0617   22.1016 N   0  0  0  0  0  0
  -23.4167  -28.8137   23.3032 O   0  0  0  0  0  0
  -28.3725  -26.5515   20.1492 O   0  0  0  0  0  0
  -26.5630  -34.8905   22.4679 O   0  0  0  0  0  0
  -23.5403  -32.1374   23.7445 O   0  0  0  0  0  0
  -29.0988  -22.8673   18.9803 C   0  0  0  0  0  0
  -28.5720  -23.9445   19.7670 C   0  0  0  0  0  0
  -28.0218  -22.3619   21.3794 C   0  0  0  0  0  0
  -28.5542  -21.2873   20.5980 C   0  0  0  0  0  0
  -28.7014  -17.7756   19.7404 C   0  0  0  0  0  0
  -29.6838  -17.9658   21.9728 C   0  0  0  0  0  0
  -29.6047  -16.5200   19.4905 C   0  0  0  0  0  0
  -30.5602  -16.7081   21.6823 C   0  0  0  0  0  0
  -29.3344  -18.8004   20.7158 C   0  0  0  0  0  0
  -29.6854  -23.0956   17.5987 C   0  0  0  0  0  0
  -28.5739  -25.4212   19.2365 C   0  0  0  0  0  0
  -29.1041  -21.5608   19.3929 N   0  0  0  0  0  0
  -28.0343  -23.6661   20.9856 N   0  0  0  0  0  0
  -29.9835  -15.7506   20.7057 N   0  0  0  0  0  0
  -27.4306  -22.1195   22.6129 N   0  0  0  0  0  0
  -28.4536  -19.9458   21.0638 N   0  0  0  0  0  0
  -31.4582  -12.4411   19.1591 H   0  0  0  0  0  0
  -30.3065  -11.3743   19.9106 H   0  0  0  0  0  0
  -29.7529  -11.7434   17.4737 H   0  0  0  0  0  0
  -29.6482  -13.4653   17.7505 H   0  0  0  0  0  0
  -27.8472  -11.2929   18.8696 H   0  0  0  0  0  0
  -27.3656  -12.5762   17.7914 H   0  0  0  0  0  0
  -27.6466  -14.2534   19.5052 H   0  0  0  0  0  0
  -28.6841  -12.1127   21.4223 H   0  0  0  0  0  0
  -28.4520  -13.8035   21.8003 H   0  0  0  0  0  0
  -25.2728   -9.5684   22.4766 H   0  0  0  0  0  0
  -23.9975   -7.4628   22.7475 H   0  0  0  0  0  0
  -21.0820   -8.8747   19.8945 H   0  0  0  0  0  0
  -22.3656  -10.9657   19.6167 H   0  0  0  0  0  0
  -21.2002   -7.6139   23.9697 H   0  0  0  0  0  0
  -21.1460   -6.0517   25.9058 H   0  0  0  0  0  0
  -22.0618   -2.7603   23.2845 H   0  0  0  0  0  0
  -22.4051  -11.9865   22.4791 H   0  0  0  0  0  0
  -21.1080  -13.1268   22.2672 H   0  0  0  0  0  0
  -24.6642  -15.8538   20.5259 H   0  0  0  0  0  0
  -26.2926  -15.6268   20.1357 H   0  0  0  0  0  0
  -26.7138  -32.5410   23.1088 H   0  0  0  0  0  0
  -25.0062  -33.9705   25.0425 H   0  0  0  0  0  0
  -22.7011  -31.3009   21.4126 H   0  0  0  0  0  0
  -23.3762  -35.9532   23.3287 H   0  0  0  0  0  0
  -24.3563  -36.8912   22.2080 H   0  0  0  0  0  0
  -23.7146  -37.6398   23.6716 H   0  0  0  0  0  0
  -26.0979  -31.5631   20.6262 H   0  0  0  0  0  0
  -26.8270  -30.8235   22.0198 H   0  0  0  0  0  0
  -28.0962  -29.0033   21.1959 H   0  0  0  0  0  0
  -25.9697  -25.9176   19.0347 H   0  0  0  0  0  0
  -23.9699  -27.2980   19.0175 H   0  0  0  0  0  0
  -23.7286  -30.5964   19.4068 H   0  0  0  0  0  0
  -22.7446  -29.2401   19.8674 H   0  0  0  0  0  0
  -25.1281  -36.1896   25.0831 H   0  0  0  0  0  0
  -20.9957  -28.3227   24.1413 H   0  0  0  0  0  0
  -20.5601  -26.2257   23.3637 H   0  0  0  0  0  0
  -21.6594  -26.7345   22.1241 H   0  0  0  0  0  0
  -19.6855  -25.6264   21.1231 H   0  0  0  0  0  0
  -19.6651  -27.3178   20.6769 H   0  0  0  0  0  0
  -17.4161  -26.6695   21.4010 H   0  0  0  0  0  0
  -18.0244  -26.0005   22.8980 H   0  0  0  0  0  0
  -19.7939  -30.7239   24.2246 H   0  0  0  0  0  0
  -17.5026  -31.6260   24.5145 H   0  0  0  0  0  0
  -15.5354  -30.2978   23.7682 H   0  0  0  0  0  0
  -15.8643  -28.0797   22.7141 H   0  0  0  0  0  0
  -24.5954  -30.7004   25.7832 H   0  0  0  0  0  0
  -24.8862  -32.2893   26.4814 H   0  0  0  0  0  0
  -25.8083  -30.9002   27.0276 H   0  0  0  0  0  0
  -26.2989  -29.6705   24.1275 H   0  0  0  0  0  0
  -27.4112  -29.7329   25.4755 H   0  0  0  0  0  0
  -27.8834  -30.4307   23.9453 H   0  0  0  0  0  0
  -27.2607  -33.3716   26.1967 H   0  0  0  0  0  0
  -28.3864  -32.6890   25.0327 H   0  0  0  0  0  0
  -28.0643  -31.8567   26.5479 H   0  0  0  0  0  0
  -28.2560  -38.0087   24.7614 H   0  0  0  0  0  0
  -28.1097  -36.2630   24.6190 H   0  0  0  0  0  0
  -27.2304  -37.1281   25.8874 H   0  0  0  0  0  0
  -20.9316  -29.8735   21.6926 H   0  0  0  0  0  0
  -26.0125  -38.2823   24.1564 H   0  0  0  0  0  0
  -27.7376  -17.4396   20.1264 H   0  0  0  0  0  0
  -28.4908  -18.2579   18.7853 H   0  0  0  0  0  0
  -30.1986  -18.5976   22.6980 H   0  0  0  0  0  0
  -28.7651  -17.6332   22.4600 H   0  0  0  0  0  0
  -30.5178  -16.8373   18.9811 H   0  0  0  0  0  0
  -29.0984  -15.8572   18.7876 H   0  0  0  0  0  0
  -30.7435  -16.1843   22.6219 H   0  0  0  0  0  0
  -31.5391  -17.0391   21.3287 H   0  0  0  0  0  0
  -30.2534  -19.1911   20.2769 H   0  0  0  0  0  0
  -30.6060  -23.6766   17.6557 H   0  0  0  0  0  0
  -28.9761  -23.6246   16.9618 H   0  0  0  0  0  0
  -29.9218  -22.1508   17.1075 H   0  0  0  0  0  0
  -27.9417  -25.4875   18.3524 H   0  0  0  0  0  0
  -29.5766  -25.5817   18.8420 H   0  0  0  0  0  0
  -27.0464  -21.1949   22.7583 H   0  0  0  0  0  0
  -26.8228  -22.8527   22.9532 H   0  0  0  0  0  0
  -28.0895  -19.9274   22.0094 H   0  0  0  0  0  0
  1 25  1  0  0  0
  1 30  2  0  0  0
  1 84  1  0  0  0
  2  3  1  0  0  0
  2 25  1  0  0  0
  2 87  1  0  0  0
  2 88  1  0  0  0
  3  4  1  0  0  0
  3 89  1  0  0  0
  3 90  1  0  0  0
  4  5  1  0  0  0
  4 91  1  0  0  0
  4 92  1  0  0  0
  5  6  1  0  0  0
  5 26  1  0  0  0
  5 93  1  0  0  0
  6 25  1  0  0  0
  6 94  1  0  0  0
  6 95  1  0  0  0
  7  8  2  0  0  0
  7 26  1  0  0  0
  7 29  1  0  0  0
  8  9  1  0  0  0
  8 22  1  0  0  0
  9 10  1  0  0  0
  9 27  2  0  0  0
 10 11  2  0  0  0
 10 15  1  0  0  0
 11 12  1  0  0  0
 11 96  1  0  0  0
 12 13  2  0  0  0
 12 97  1  0  0  0
 13 14  1  0  0  0
 13 31  1  0  0  0
 14 15  2  0  0  0
 14 98  1  0  0  0
 15 99  1  0  0  0
 16 17  2  0  0  0
 16 21  1  0  0  0
 16 31  1  0  0  0
 17 18  1  0  0  0
 17100  1  0  0  0
 18 19  2  0  0  0
 18101  1  0  0  0
 19 20  1  0  0  0
 19 24  1  0  0  0
 20 21  2  0  0  0
 20102  1  0  0  0
 21 23  1  0  0  0
 22 28  1  0  0  0
 22 32  2  0  0  0
 26 27  1  0  0  0
 28103  1  0  0  0
 28104  1  0  0  0
 29105  1  0  0  0
 29106  1  0  0  0
 33 34  1  0  0  0
 33 66  1  0  0  0
 33 70  2  0  0  0
 34 36  1  0  0  0
 34 59  1  0  0  0
 34107  1  0  0  0
 35 44  2  0  0  0
 35 45  1  0  0  0
 35 68  1  0  0  0
 36 56  1  0  0  0
 36108  1  0  0  0
 37 39  1  0  0  0
 37 47  1  0  0  0
 37 66  1  0  0  0
 37109  1  0  0  0
 38 43  2  0  0  0
 38 46  1  0  0  0
 38 47  1  0  0  0
 39 64  1  0  0  0
 39 67  2  0  0  0
 40 52  1  0  0  0
 40 53  2  0  0  0
 40 58  1  0  0  0
 41110  1  0  0  0
 41111  1  0  0  0
 41112  1  0  0  0
 41 48  1  0  0  0
 42 43  1  0  0  0
 42 66  1  0  0  0
 42113  1  0  0  0
 42114  1  0  0  0
 43 44  1  0  0  0
 44115  1  0  0  0
 45 46  2  0  0  0
 45116  1  0  0  0
 46117  1  0  0  0
 47118  1  0  0  0
 47119  1  0  0  0
 48 56  1  0  0  0
 48 65  1  0  0  0
 48120  1  0  0  0
 49 50  1  0  0  0
 49 53  1  0  0  0
 49 64  1  0  0  0
 49121  1  0  0  0
 50 51  1  0  0  0
 50122  1  0  0  0
 50123  1  0  0  0
 51 52  1  0  0  0
 51124  1  0  0  0
 51125  1  0  0  0
 52126  1  0  0  0
 52127  1  0  0  0
 53 54  1  0  0  0
 54 55  2  0  0  0
 54128  1  0  0  0
 55 57  1  0  0  0
 55129  1  0  0  0
 56 69  2  0  0  0
 57 58  2  0  0  0
 57130  1  0  0  0
 58131  1  0  0  0
 59 60  1  0  0  0
 59 61  1  0  0  0
 59 62  1  0  0  0
 60132  1  0  0  0
 60133  1  0  0  0
 60134  1  0  0  0
 61135  1  0  0  0
 61136  1  0  0  0
 61137  1  0  0  0
 62138  1  0  0  0
 62139  1  0  0  0
 62140  1  0  0  0
 63 65  1  0  0  0
 63141  1  0  0  0
 63142  1  0  0  0
 63143  1  0  0  0
 64144  1  0  0  0
 65145  1  0  0  0
 68 81  1  0  0  0
 71 72  2  0  0  0
 71 80  1  0  0  0
 71 82  1  0  0  0
 72 81  1  0  0  0
 72 83  1  0  0  0
 73 74  1  0  0  0
 73 83  2  0  0  0
 73 85  1  0  0  0
 74 82  2  0  0  0
 74 86  1  0  0  0
 75 77  1  0  0  0
 75 79  1  0  0  0
 75146  1  0  0  0
 75147  1  0  0  0
 76 78  1  0  0  0
 76 79  1  0  0  0
 76148  1  0  0  0
 76149  1  0  0  0
 77 84  1  0  0  0
 77150  1  0  0  0
 77151  1  0  0  0
 78 84  1  0  0  0
 78152  1  0  0  0
 78153  1  0  0  0
 79 86  1  0  0  0
 79154  1  0  0  0
 80155  1  0  0  0
 80156  1  0  0  0
 80157  1  0  0  0
 81158  1  0  0  0
 81159  1  0  0  0
 85160  1  0  0  0
 85161  1  0  0  0
 86162  1  0  0  0
M  ISO  4   1 100  68 101  81 101  84 100
M  END
> <chiral flag>
0

> <version>
0

> <s_m_source_file>
/data/baiqing/PycharmProjects/Reinvent-master-3.2/result/LINK_invent/BTK/process_docking_weight1_custom_sum_contain_oxygen_bond_distance_aromatic_linkinvent_7_9_3/rearranged_h_0179.sdf

> <i_m_source_file_index>
97

> <r_mmod_Potential_Energy-OPLS-2005>
137.794982910156

> <r_mmod_Stretch_Energy-OPLS-2005>
66.9370803833008

> <r_mmod_Bend_Energy-OPLS-2005>
160.929901123047

> <r_mmod_Torsional_Energy-OPLS-2005>
320.749572753906

> <r_mmod_Improper_Torsional_Energy-OPLS-2005>
16.6908149719238

> <r_mmod_Van_der_Waal_Energy-OPLS-2005>
152.458557128906

> <r_mmod_Electrostatic_Energy-OPLS-2005>
-390.835327148438

> <r_mmod_Solvation_Energy-OPLS-2005>
-228.325439453125

> <b_mmod_Minimization_Converged-OPLS-2005>
0

> <r_mmod_RMS_Derivative-OPLS-2005>
2.14199233055115

$$$$
97
                    3D
 Structure written by MMmdl.
152161  0  0  1  0            999 V2000
  -30.4691  -15.1041   20.3810 C   0  0  0  0  0  0
  -30.4332  -12.6878   19.5152 C   0  0  0  0  0  0
  -29.5366  -12.5601   18.2630 C   0  0  0  0  0  0
  -28.0618  -12.3460   18.6610 C   0  0  0  0  0  0
  -27.6172  -13.2736   19.8252 C   0  0  2  0  0  0
  -28.6518  -13.3496   20.9628 C   0  0  0  0  0  0
  -25.2387  -13.8238   20.5668 C   0  0  0  0  0  0
  -24.1750  -13.0398   20.9197 C   0  0  0  0  0  0
  -24.6423  -11.6907   20.8731 C   0  0  0  0  0  0
  -23.9117  -10.4260   21.0395 C   0  0  0  0  0  0
  -24.3666   -9.4165   21.9165 C   0  0  0  0  0  0
  -23.6307   -8.2221   22.0760 C   0  0  0  0  0  0
  -22.4274   -8.0298   21.3563 C   0  0  0  0  0  0
  -21.9920   -9.0278   20.4656 C   0  0  0  0  0  0
  -22.7284  -10.2130   20.3048 C   0  0  0  0  0  0
  -21.6839   -6.0742   22.5275 C   0  0  0  0  0  0
  -21.4013   -6.5648   23.8211 C   0  0  0  0  0  0
  -21.3653   -5.6803   24.9176 C   0  0  0  0  0  0
  -21.6037   -4.3066   24.7229 C   0  0  0  0  0  0
  -21.8808   -3.8155   23.4351 C   0  0  0  0  0  0
  -21.9174   -4.6965   22.3400 C   0  0  0  0  0  0
  -22.7761  -13.5152   21.1837 C   0  0  0  0  0  0
  -22.1641   -4.2155   21.0974 F   0  0  0  0  0  0
  -21.5619   -3.4542   25.7739 F   0  0  0  0  0  0
  -29.9025  -13.8148   20.3511 N   0  0  0  0  0  0
  -26.2826  -12.9513   20.3161 N   0  0  0  0  0  0
  -25.9361  -11.6616   20.5679 N   0  0  0  0  0  0
  -22.0405  -12.8194   22.0432 N   0  0  0  0  0  0
  -25.3920  -15.1977   20.4083 N   0  0  0  0  0  0
  -31.6878  -15.1296   20.1471 O   0  0  0  0  0  0
  -21.6628   -6.8907   21.4255 O   0  0  0  0  0  0
  -22.3410  -14.5407   20.6629 O   0  0  0  0  0  0
  -24.6580  -31.8339   23.1729 C   0  0  0  0  0  0
  -25.9303  -32.4629   23.8173 C   0  0  1  0  0  0
  -27.2083  -27.0105   20.1625 C   0  0  0  0  0  0
  -25.6000  -33.8450   24.2095 N   0  0  0  0  0  0
  -23.4656  -30.4509   21.5231 C   0  0  2  0  0  0
  -24.9143  -28.8511   20.1137 C   0  0  0  0  0  0
  -22.7640  -29.4524   22.4821 C   0  0  0  0  0  0
  -18.0328  -28.1438   22.8480 C   0  0  0  0  0  0
  -24.1495  -36.7223   23.2631 C   0  0  0  0  0  0
  -26.0297  -30.6701   21.3844 C   0  0  0  0  0  0
  -26.0995  -29.2652   20.7355 C   0  0  0  0  0  0
  -27.2502  -28.3659   20.7335 C   0  0  0  0  0  0
  -25.9979  -26.7355   19.4935 C   0  0  0  0  0  0
  -24.8831  -27.6045   19.4711 C   0  0  0  0  0  0
  -23.6984  -29.7718   20.1474 C   0  0  0  0  0  0
  -25.4133  -36.2990   24.0291 C   0  0  1  0  0  0
  -20.5948  -28.3780   23.1202 C   0  0  2  0  0  0
  -20.6805  -26.9476   22.5411 C   0  0  0  0  0  0
  -19.5765  -26.6396   21.5235 C   0  0  0  0  0  0
  -18.1947  -26.7961   22.1658 C   0  0  0  0  0  0
  -19.1586  -28.8939   23.2827 C   0  0  0  0  0  0
  -18.9481  -30.1519   23.8866 C   0  0  0  0  0  0
  -17.6472  -30.6614   24.0575 C   0  0  0  0  0  0
  -25.9111  -34.9374   23.5016 C   0  0  0  0  0  0
  -16.5375  -29.9104   23.6329 C   0  0  0  0  0  0
  -16.7308  -28.6540   23.0333 C   0  0  0  0  0  0
  -26.4545  -31.6513   25.0658 C   0  0  0  0  0  0
  -25.3685  -31.3794   26.1326 C   0  0  0  0  0  0
  -27.0352  -30.2863   24.6285 C   0  0  0  0  0  0
  -27.6070  -32.4256   25.7479 C   0  0  0  0  0  0
  -27.5573  -37.1781   24.8456 C   0  0  0  0  0  0
  -21.4326  -29.3064   22.3566 N   0  0  0  0  0  0
  -26.4269  -37.3730   23.9406 N   0  0  0  0  0  0
  -24.7385  -31.0095   22.0809 N   0  0  0  0  0  0
  -23.4211  -28.8092   23.3050 O   0  0  0  0  0  0
  -28.2194  -25.9405   20.1650 O   0  0  0  0  0  0
  -26.5702  -34.8895   22.4592 O   0  0  0  0  0  0
  -23.5676  -32.1264   23.6888 O   0  0  0  0  0  0
  -28.5217  -21.5258   20.5447 C   0  0  0  0  0  0
  -29.1928  -20.3065   19.9791 C   0  0  0  0  0  0
  -28.6563  -22.9277   20.0018 C   0  0  0  0  0  0
  -30.0045  -21.8589   18.4108 C   0  0  0  0  0  0
  -29.2902  -17.3414   19.4201 C   0  0  0  0  0  0
  -30.1831  -17.6639   21.1734 C   0  0  0  0  0  0
  -29.1758  -18.6343   20.3752 C   0  0  0  0  0  0
  -30.7790  -22.0161   17.1148 C   0  0  0  0  0  0
  -27.8884  -24.3881   20.4680 C   0  0  0  0  0  0
  -29.9441  -20.6057   18.8947 N   0  0  0  0  0  0
  -29.4264  -22.9757   18.8909 N   0  0  0  0  0  0
  -29.7123  -16.3483   20.5182 N   0  0  0  0  0  0
  -31.4697  -12.8532   19.2154 H   0  0  0  0  0  0
  -30.4404  -11.7527   20.0763 H   0  0  0  0  0  0
  -29.8819  -11.7433   17.6287 H   0  0  0  0  0  0
  -29.6296  -13.4678   17.6633 H   0  0  0  0  0  0
  -27.9405  -11.3026   18.9507 H   0  0  0  0  0  0
  -27.4164  -12.4983   17.7932 H   0  0  0  0  0  0
  -27.5620  -14.2739   19.3926 H   0  0  0  0  0  0
  -28.7721  -12.3770   21.4474 H   0  0  0  0  0  0
  -28.3318  -14.0533   21.7333 H   0  0  0  0  0  0
  -25.2828   -9.5599   22.4717 H   0  0  0  0  0  0
  -23.9994   -7.4588   22.7458 H   0  0  0  0  0  0
  -21.0833   -8.8825   19.8974 H   0  0  0  0  0  0
  -22.3760  -10.9684   19.6159 H   0  0  0  0  0  0
  -21.2038   -7.6160   23.9726 H   0  0  0  0  0  0
  -21.1474   -6.0533   25.9084 H   0  0  0  0  0  0
  -22.0590   -2.7617   23.2841 H   0  0  0  0  0  0
  -22.4065  -11.9987   22.5028 H   0  0  0  0  0  0
  -21.0985  -13.1195   22.2517 H   0  0  0  0  0  0
  -24.6004  -15.8264   20.4892 H   0  0  0  0  0  0
  -26.2295  -15.6537   20.0720 H   0  0  0  0  0  0
  -26.7407  -32.5209   23.0938 H   0  0  0  0  0  0
  -25.0155  -33.9547   25.0240 H   0  0  0  0  0  0
  -22.7763  -31.2814   21.3564 H   0  0  0  0  0  0
  -23.3762  -35.9558   23.3282 H   0  0  0  0  0  0
  -24.3582  -36.8874   22.2054 H   0  0  0  0  0  0
  -23.7237  -37.6408   23.6680 H   0  0  0  0  0  0
  -26.1950  -31.4119   20.6011 H   0  0  0  0  0  0
  -26.9011  -30.7385   22.0235 H   0  0  0  0  0  0
  -28.1608  -28.6821   21.2206 H   0  0  0  0  0  0
  -25.8962  -25.7921   18.9781 H   0  0  0  0  0  0
  -23.9859  -27.2857   18.9586 H   0  0  0  0  0  0
  -23.8551  -30.5369   19.3853 H   0  0  0  0  0  0
  -22.8086  -29.2250   19.8281 H   0  0  0  0  0  0
  -25.1330  -36.1815   25.0781 H   0  0  0  0  0  0
  -21.0067  -28.3426   24.1315 H   0  0  0  0  0  0
  -20.5677  -26.2444   23.3682 H   0  0  0  0  0  0
  -21.6666  -26.7441   22.1231 H   0  0  0  0  0  0
  -19.6898  -25.6286   21.1308 H   0  0  0  0  0  0
  -19.6654  -27.3191   20.6747 H   0  0  0  0  0  0
  -17.4210  -26.6711   21.4063 H   0  0  0  0  0  0
  -18.0322  -26.0110   22.9064 H   0  0  0  0  0  0
  -19.7946  -30.7351   24.2203 H   0  0  0  0  0  0
  -17.5013  -31.6265   24.5232 H   0  0  0  0  0  0
  -15.5375  -30.3000   23.7622 H   0  0  0  0  0  0
  -15.8716  -28.0844   22.7021 H   0  0  0  0  0  0
  -24.5996  -30.6945   25.7736 H   0  0  0  0  0  0
  -24.8695  -32.2984   26.4413 H   0  0  0  0  0  0
  -25.7966  -30.9299   27.0292 H   0  0  0  0  0  0
  -26.2950  -29.6629   24.1252 H   0  0  0  0  0  0
  -27.3869  -29.7141   25.4877 H   0  0  0  0  0  0
  -27.8924  -30.4026   23.9657 H   0  0  0  0  0  0
  -27.2721  -33.3696   26.1793 H   0  0  0  0  0  0
  -28.4065  -32.6541   25.0418 H   0  0  0  0  0  0
  -28.0489  -31.8481   26.5609 H   0  0  0  0  0  0
  -28.2570  -38.0092   24.7526 H   0  0  0  0  0  0
  -28.1085  -36.2626   24.6266 H   0  0  0  0  0  0
  -27.2301  -37.1432   25.8857 H   0  0  0  0  0  0
  -20.9600  -29.8806   21.6738 H   0  0  0  0  0  0
  -26.0126  -38.2798   24.1378 H   0  0  0  0  0  0
  -27.8682  -21.3930   21.3991 H   0  0  0  0  0  0
  -28.3469  -17.0913   18.9333 H   0  0  0  0  0  0
  -30.0600  -17.4749   18.6575 H   0  0  0  0  0  0
  -30.0173  -17.6977   22.2529 H   0  0  0  0  0  0
  -31.2286  -17.8915   20.9677 H   0  0  0  0  0  0
  -28.2043  -18.5367   20.8586 H   0  0  0  0  0  0
  -31.6347  -21.3401   17.0773 H   0  0  0  0  0  0
  -31.1622  -23.0282   17.0007 H   0  0  0  0  0  0
  -30.1378  -21.7972   16.2603 H   0  0  0  0  0  0
  -26.8399  -24.2399   20.2195 H   0  0  0  0  0  0
  -27.8896  -24.3346   21.5582 H   0  0  0  0  0  0
  1 25  1  0  0  0
  1 30  2  0  0  0
  1 82  1  0  0  0
  2  3  1  0  0  0
  2 25  1  0  0  0
  2 83  1  0  0  0
  2 84  1  0  0  0
  3  4  1  0  0  0
  3 85  1  0  0  0
  3 86  1  0  0  0
  4  5  1  0  0  0
  4 87  1  0  0  0
  4 88  1  0  0  0
  5  6  1  0  0  0
  5 26  1  0  0  0
  5 89  1  0  0  0
  6 25  1  0  0  0
  6 90  1  0  0  0
  6 91  1  0  0  0
  7  8  2  0  0  0
  7 26  1  0  0  0
  7 29  1  0  0  0
  8  9  1  0  0  0
  8 22  1  0  0  0
  9 10  1  0  0  0
  9 27  2  0  0  0
 10 11  2  0  0  0
 10 15  1  0  0  0
 11 12  1  0  0  0
 11 92  1  0  0  0
 12 13  2  0  0  0
 12 93  1  0  0  0
 13 14  1  0  0  0
 13 31  1  0  0  0
 14 15  2  0  0  0
 14 94  1  0  0  0
 15 95  1  0  0  0
 16 17  2  0  0  0
 16 21  1  0  0  0
 16 31  1  0  0  0
 17 18  1  0  0  0
 17 96  1  0  0  0
 18 19  2  0  0  0
 18 97  1  0  0  0
 19 20  1  0  0  0
 19 24  1  0  0  0
 20 21  2  0  0  0
 20 98  1  0  0  0
 21 23  1  0  0  0
 22 28  1  0  0  0
 22 32  2  0  0  0
 26 27  1  0  0  0
 28 99  1  0  0  0
 28100  1  0  0  0
 29101  1  0  0  0
 29102  1  0  0  0
 33 34  1  0  0  0
 33 66  1  0  0  0
 33 70  2  0  0  0
 34 36  1  0  0  0
 34 59  1  0  0  0
 34103  1  0  0  0
 35 44  2  0  0  0
 35 45  1  0  0  0
 35 68  1  0  0  0
 36 56  1  0  0  0
 36104  1  0  0  0
 37 39  1  0  0  0
 37 47  1  0  0  0
 37 66  1  0  0  0
 37105  1  0  0  0
 38 43  2  0  0  0
 38 46  1  0  0  0
 38 47  1  0  0  0
 39 64  1  0  0  0
 39 67  2  0  0  0
 40 52  1  0  0  0
 40 53  2  0  0  0
 40 58  1  0  0  0
 41106  1  0  0  0
 41107  1  0  0  0
 41108  1  0  0  0
 41 48  1  0  0  0
 42 43  1  0  0  0
 42 66  1  0  0  0
 42109  1  0  0  0
 42110  1  0  0  0
 43 44  1  0  0  0
 44111  1  0  0  0
 45 46  2  0  0  0
 45112  1  0  0  0
 46113  1  0  0  0
 47114  1  0  0  0
 47115  1  0  0  0
 48 56  1  0  0  0
 48 65  1  0  0  0
 48116  1  0  0  0
 49 50  1  0  0  0
 49 53  1  0  0  0
 49 64  1  0  0  0
 49117  1  0  0  0
 50 51  1  0  0  0
 50118  1  0  0  0
 50119  1  0  0  0
 51 52  1  0  0  0
 51120  1  0  0  0
 51121  1  0  0  0
 52122  1  0  0  0
 52123  1  0  0  0
 53 54  1  0  0  0
 54 55  2  0  0  0
 54124  1  0  0  0
 55 57  1  0  0  0
 55125  1  0  0  0
 56 69  2  0  0  0
 57 58  2  0  0  0
 57126  1  0  0  0
 58127  1  0  0  0
 59 60  1  0  0  0
 59 61  1  0  0  0
 59 62  1  0  0  0
 60128  1  0  0  0
 60129  1  0  0  0
 60130  1  0  0  0
 61131  1  0  0  0
 61132  1  0  0  0
 61133  1  0  0  0
 62134  1  0  0  0
 62135  1  0  0  0
 62136  1  0  0  0
 63 65  1  0  0  0
 63137  1  0  0  0
 63138  1  0  0  0
 63139  1  0  0  0
 64140  1  0  0  0
 65141  1  0  0  0
 68 79  1  0  0  0
 71 72  2  0  0  0
 71 73  1  0  0  0
 71142  1  0  0  0
 72 80  1  0  0  0
 72 77  1  0  0  0
 73 79  1  0  0  0
 73 81  2  0  0  0
 74 78  1  0  0  0
 74 80  2  0  0  0
 74 81  1  0  0  0
 75 77  1  0  0  0
 75 82  1  0  0  0
 75143  1  0  0  0
 75144  1  0  0  0
 76 77  1  0  0  0
 76 82  1  0  0  0
 76145  1  0  0  0
 76146  1  0  0  0
 77147  1  0  0  0
 78148  1  0  0  0
 78149  1  0  0  0
 78150  1  0  0  0
 79151  1  0  0  0
 79152  1  0  0  0
M  ISO  4   1 100  68 101  79 101  82 100
M  END
> <chiral flag>
0

> <version>
0

> <s_m_source_file>
/data/baiqing/PycharmProjects/Reinvent-master-3.2/result/LINK_invent/BTK/process_docking_weight1_custom_sum_contain_oxygen_bond_distance_aromatic_linkinvent_7_9_3/rearranged_h_0179.sdf

> <i_m_source_file_index>
98

> <r_mmod_Potential_Energy-OPLS-2005>
508.634979248047

> <r_mmod_Stretch_Energy-OPLS-2005>
377.104675292969

> <r_mmod_Bend_Energy-OPLS-2005>
342.3291015625

> <r_mmod_Torsional_Energy-OPLS-2005>
274.774688720703

> <r_mmod_Improper_Torsional_Energy-OPLS-2005>
10.730993270874

> <r_mmod_Van_der_Waal_Energy-OPLS-2005>
132.306671142578

> <r_mmod_Electrostatic_Energy-OPLS-2005>
-706.251953125

> <r_mmod_Solvation_Energy-OPLS-2005>
-240.799499511719

> <b_mmod_Minimization_Converged-OPLS-2005>
0

> <r_mmod_RMS_Derivative-OPLS-2005>
4.84475708007812

$$$$
