0
                    3D
 Structure written by MMmdl.
156164  0  0  1  0            999 V2000
  -30.4873  -15.0519   20.4125 C   0  0  0  0  0  0
  -30.4383  -12.6690   19.4928 C   0  0  0  0  0  0
  -29.5198  -12.5487   18.2534 C   0  0  0  0  0  0
  -28.0564  -12.3166   18.6767 C   0  0  0  0  0  0
  -27.6188  -13.2573   19.8298 C   0  0  2  0  0  0
  -28.6617  -13.3263   20.9640 C   0  0  0  0  0  0
  -25.2410  -13.8240   20.5720 C   0  0  0  0  0  0
  -24.1751  -13.0437   20.9253 C   0  0  0  0  0  0
  -24.6385  -11.6932   20.8762 C   0  0  0  0  0  0
  -23.9080  -10.4287   21.0397 C   0  0  0  0  0  0
  -24.3630   -9.4191   21.9171 C   0  0  0  0  0  0
  -23.6296   -8.2233   22.0738 C   0  0  0  0  0  0
  -22.4276   -8.0279   21.3539 C   0  0  0  0  0  0
  -21.9922   -9.0245   20.4639 C   0  0  0  0  0  0
  -22.7255  -10.2119   20.3041 C   0  0  0  0  0  0
  -21.6850   -6.0724   22.5275 C   0  0  0  0  0  0
  -21.4016   -6.5632   23.8198 C   0  0  0  0  0  0
  -21.3659   -5.6788   24.9175 C   0  0  0  0  0  0
  -21.6046   -4.3054   24.7229 C   0  0  0  0  0  0
  -21.8822   -3.8135   23.4354 C   0  0  0  0  0  0
  -21.9193   -4.6947   22.3404 C   0  0  0  0  0  0
  -22.7767  -13.5182   21.1924 C   0  0  0  0  0  0
  -22.1659   -4.2134   21.0981 F   0  0  0  0  0  0
  -21.5635   -3.4536   25.7743 F   0  0  0  0  0  0
  -29.9132  -13.7777   20.3462 N   0  0  0  0  0  0
  -26.2826  -12.9477   20.3223 N   0  0  0  0  0  0
  -25.9313  -11.6604   20.5739 N   0  0  0  0  0  0
  -22.0429  -12.8139   22.0473 N   0  0  0  0  0  0
  -25.4053  -15.1974   20.4155 N   0  0  0  0  0  0
  -31.7089  -15.0982   20.2190 O   0  0  0  0  0  0
  -21.6645   -6.8869   21.4237 O   0  0  0  0  0  0
  -22.3439  -14.5474   20.6761 O   0  0  0  0  0  0
  -24.6480  -31.8380   23.1826 C   0  0  0  0  0  0
  -25.9231  -32.4658   23.8241 C   0  0  1  0  0  0
  -27.2097  -27.0569   20.1971 C   0  0  0  0  0  0
  -25.5953  -33.8465   24.2163 N   0  0  0  0  0  0
  -23.4532  -30.4499   21.5327 C   0  0  2  0  0  0
  -24.9013  -28.8499   20.1297 C   0  0  0  0  0  0
  -22.7567  -29.4488   22.4887 C   0  0  0  0  0  0
  -18.0314  -28.1348   22.8500 C   0  0  0  0  0  0
  -24.1495  -36.7235   23.2645 C   0  0  0  0  0  0
  -26.0117  -30.6880   21.3886 C   0  0  0  0  0  0
  -26.0814  -29.2863   20.7451 C   0  0  0  0  0  0
  -27.2383  -28.4108   20.7476 C   0  0  0  0  0  0
  -26.0023  -26.7246   19.5530 C   0  0  0  0  0  0
  -24.8779  -27.5854   19.5172 C   0  0  0  0  0  0
  -23.6856  -29.7680   20.1567 C   0  0  0  0  0  0
  -25.4131  -36.3007   24.0313 C   0  0  1  0  0  0
  -20.5921  -28.3638   23.1205 C   0  0  2  0  0  0
  -20.6796  -26.9375   22.5332 C   0  0  0  0  0  0
  -19.5701  -26.6274   21.5243 C   0  0  0  0  0  0
  -18.1914  -26.7856   22.1689 C   0  0  0  0  0  0
  -19.1585  -28.8816   23.2855 C   0  0  0  0  0  0
  -18.9538  -30.1390   23.8952 C   0  0  0  0  0  0
  -17.6551  -30.6550   24.0611 C   0  0  0  0  0  0
  -25.9077  -34.9381   23.5056 C   0  0  0  0  0  0
  -16.5427  -29.9094   23.6355 C   0  0  0  0  0  0
  -16.7318  -28.6494   23.0391 C   0  0  0  0  0  0
  -26.4531  -31.6550   25.0713 C   0  0  0  0  0  0
  -25.3685  -31.3757   26.1388 C   0  0  0  0  0  0
  -27.0428  -30.2953   24.6326 C   0  0  0  0  0  0
  -27.6054  -32.4327   25.7509 C   0  0  0  0  0  0
  -27.5575  -37.1782   24.8471 C   0  0  0  0  0  0
  -21.4258  -29.3011   22.3639 N   0  0  0  0  0  0
  -26.4294  -37.3731   23.9395 N   0  0  0  0  0  0
  -24.7247  -31.0156   22.0900 N   0  0  0  0  0  0
  -23.4182  -28.8057   23.3082 O   0  0  0  0  0  0
  -28.3098  -26.1122   20.1214 O   0  0  0  0  0  0
  -26.5673  -34.8883   22.4639 O   0  0  0  0  0  0
  -23.5584  -32.1292   23.7016 O   0  0  0  0  0  0
  -28.5911  -21.5046   20.1128 C   0  0  0  0  0  0
  -28.7205  -20.7244   18.9062 C   0  0  0  0  0  0
  -29.0152  -20.4524   20.9936 C   0  0  0  0  0  0
  -28.3737  -21.1913   17.5233 C   0  0  0  0  0  0
  -29.1313  -20.5508   22.4793 C   0  0  0  0  0  0
  -26.5611  -22.9107   20.8876 C   0  0  0  0  0  0
  -28.4940  -24.6048   20.6071 C   0  0  0  0  0  0
  -30.0680  -17.7923   20.8040 C   0  0  0  0  0  0
  -27.8956  -23.0687   20.1441 C   0  0  1  0  0  0
  -29.1453  -19.4434   19.0366 N   0  0  0  0  0  0
  -29.3349  -19.1638   20.3473 N   0  0  0  0  0  0
  -29.6993  -16.2580   20.5011 N   0  0  0  0  0  0
  -31.4662  -12.8539   19.1761 H   0  0  0  0  0  0
  -30.4652  -11.7315   20.0499 H   0  0  0  0  0  0
  -29.8549  -11.7329   17.6113 H   0  0  0  0  0  0
  -29.5862  -13.4586   17.6558 H   0  0  0  0  0  0
  -27.9727  -11.2786   18.9993 H   0  0  0  0  0  0
  -27.3865  -12.4227   17.8215 H   0  0  0  0  0  0
  -27.5652  -14.2497   19.3806 H   0  0  0  0  0  0
  -28.7829  -12.3580   21.4525 H   0  0  0  0  0  0
  -28.3471  -14.0292   21.7381 H   0  0  0  0  0  0
  -25.2763   -9.5666   22.4769 H   0  0  0  0  0  0
  -23.9997   -7.4620   22.7455 H   0  0  0  0  0  0
  -21.0850   -8.8753   19.8944 H   0  0  0  0  0  0
  -22.3696  -10.9658   19.6154 H   0  0  0  0  0  0
  -21.2001   -7.6137   23.9701 H   0  0  0  0  0  0
  -21.1486   -6.0523   25.9073 H   0  0  0  0  0  0
  -22.0602   -2.7599   23.2854 H   0  0  0  0  0  0
  -22.4063  -11.9811   22.4865 H   0  0  0  0  0  0
  -21.1025  -13.1121   22.2685 H   0  0  0  0  0  0
  -24.6331  -15.8468   20.5242 H   0  0  0  0  0  0
  -26.2415  -15.6393   20.0555 H   0  0  0  0  0  0
  -26.7297  -32.5251   23.0960 H   0  0  0  0  0  0
  -25.0087  -33.9588   25.0304 H   0  0  0  0  0  0
  -22.7561  -31.2754   21.3729 H   0  0  0  0  0  0
  -23.3761  -35.9564   23.3308 H   0  0  0  0  0  0
  -24.3576  -36.8873   22.2058 H   0  0  0  0  0  0
  -23.7247  -37.6426   23.6691 H   0  0  0  0  0  0
  -26.1694  -31.4336   20.6078 H   0  0  0  0  0  0
  -26.8807  -30.7491   22.0312 H   0  0  0  0  0  0
  -28.1522  -28.7533   21.2133 H   0  0  0  0  0  0
  -25.9215  -25.7588   19.0744 H   0  0  0  0  0  0
  -23.9763  -27.2463   19.0274 H   0  0  0  0  0  0
  -23.8389  -30.5394   19.4009 H   0  0  0  0  0  0
  -22.7961  -29.2180   19.8429 H   0  0  0  0  0  0
  -25.1326  -36.1836   25.0812 H   0  0  0  0  0  0
  -21.0027  -28.3086   24.1307 H   0  0  0  0  0  0
  -20.5822  -26.2257   23.3540 H   0  0  0  0  0  0
  -21.6641  -26.7429   22.1062 H   0  0  0  0  0  0
  -19.6848  -25.6134   21.1392 H   0  0  0  0  0  0
  -19.6573  -27.3023   20.6726 H   0  0  0  0  0  0
  -17.4135  -26.6611   21.4139 H   0  0  0  0  0  0
  -18.0361  -25.9954   22.9047 H   0  0  0  0  0  0
  -19.8024  -30.7088   24.2486 H   0  0  0  0  0  0
  -17.5144  -31.6186   24.5302 H   0  0  0  0  0  0
  -15.5438  -30.3018   23.7736 H   0  0  0  0  0  0
  -15.8712  -28.0784   22.7178 H   0  0  0  0  0  0
  -24.5884  -30.7091   25.7692 H   0  0  0  0  0  0
  -24.8843  -32.2942   26.4714 H   0  0  0  0  0  0
  -25.7926  -30.8991   27.0233 H   0  0  0  0  0  0
  -26.3079  -29.6651   24.1304 H   0  0  0  0  0  0
  -27.4015  -29.7277   25.4919 H   0  0  0  0  0  0
  -27.8982  -30.4200   23.9686 H   0  0  0  0  0  0
  -27.2654  -33.3663   26.2003 H   0  0  0  0  0  0
  -28.3907  -32.6825   25.0364 H   0  0  0  0  0  0
  -28.0667  -31.8501   26.5492 H   0  0  0  0  0  0
  -28.2597  -38.0077   24.7501 H   0  0  0  0  0  0
  -28.1071  -36.2599   24.6328 H   0  0  0  0  0  0
  -27.2287  -37.1468   25.8877 H   0  0  0  0  0  0
  -20.9425  -29.8745   21.6860 H   0  0  0  0  0  0
  -26.0154  -38.2806   24.1379 H   0  0  0  0  0  0
  -28.8664  -22.1372   17.2980 H   0  0  0  0  0  0
  -27.2984  -21.3412   17.4252 H   0  0  0  0  0  0
  -28.6789  -20.4742   16.7605 H   0  0  0  0  0  0
  -29.1499  -21.5905   22.8060 H   0  0  0  0  0  0
  -30.0486  -20.0788   22.8288 H   0  0  0  0  0  0
  -28.2886  -20.0581   22.9661 H   0  0  0  0  0  0
  -25.9713  -23.8268   20.8675 H   0  0  0  0  0  0
  -26.7320  -22.6563   21.9334 H   0  0  0  0  0  0
  -25.9518  -22.1210   20.4478 H   0  0  0  0  0  0
  -29.5642  -24.4889   20.4400 H   0  0  0  0  0  0
  -28.4235  -24.6497   21.6939 H   0  0  0  0  0  0
  -31.1071  -17.9045   20.4953 H   0  0  0  0  0  0
  -30.1134  -17.8422   21.8917 H   0  0  0  0  0  0
  -27.6137  -23.2657   19.1098 H   0  0  0  0  0  0
  -28.7064  -16.0759   20.5172 H   0  0  0  0  0  0
  1 25  1  0  0  0
  1 30  2  0  0  0
  1 82  1  0  0  0
  2  3  1  0  0  0
  2 25  1  0  0  0
  2 83  1  0  0  0
  2 84  1  0  0  0
  3  4  1  0  0  0
  3 85  1  0  0  0
  3 86  1  0  0  0
  4  5  1  0  0  0
  4 87  1  0  0  0
  4 88  1  0  0  0
  5  6  1  0  0  0
  5 26  1  0  0  0
  5 89  1  0  0  0
  6 25  1  0  0  0
  6 90  1  0  0  0
  6 91  1  0  0  0
  7  8  2  0  0  0
  7 26  1  0  0  0
  7 29  1  0  0  0
  8  9  1  0  0  0
  8 22  1  0  0  0
  9 10  1  0  0  0
  9 27  2  0  0  0
 10 11  2  0  0  0
 10 15  1  0  0  0
 11 12  1  0  0  0
 11 92  1  0  0  0
 12 13  2  0  0  0
 12 93  1  0  0  0
 13 14  1  0  0  0
 13 31  1  0  0  0
 14 15  2  0  0  0
 14 94  1  0  0  0
 15 95  1  0  0  0
 16 17  2  0  0  0
 16 21  1  0  0  0
 16 31  1  0  0  0
 17 18  1  0  0  0
 17 96  1  0  0  0
 18 19  2  0  0  0
 18 97  1  0  0  0
 19 20  1  0  0  0
 19 24  1  0  0  0
 20 21  2  0  0  0
 20 98  1  0  0  0
 21 23  1  0  0  0
 22 28  1  0  0  0
 22 32  2  0  0  0
 26 27  1  0  0  0
 28 99  1  0  0  0
 28100  1  0  0  0
 29101  1  0  0  0
 29102  1  0  0  0
 33 34  1  0  0  0
 33 66  1  0  0  0
 33 70  2  0  0  0
 34 36  1  0  0  0
 34 59  1  0  0  0
 34103  1  0  0  0
 35 44  2  0  0  0
 35 45  1  0  0  0
 35 68  1  0  0  0
 36 56  1  0  0  0
 36104  1  0  0  0
 37 39  1  0  0  0
 37 47  1  0  0  0
 37 66  1  0  0  0
 37105  1  0  0  0
 38 43  2  0  0  0
 38 46  1  0  0  0
 38 47  1  0  0  0
 39 64  1  0  0  0
 39 67  2  0  0  0
 40 52  1  0  0  0
 40 53  2  0  0  0
 40 58  1  0  0  0
 41106  1  0  0  0
 41107  1  0  0  0
 41108  1  0  0  0
 41 48  1  0  0  0
 42 43  1  0  0  0
 42 66  1  0  0  0
 42109  1  0  0  0
 42110  1  0  0  0
 43 44  1  0  0  0
 44111  1  0  0  0
 45 46  2  0  0  0
 45112  1  0  0  0
 46113  1  0  0  0
 47114  1  0  0  0
 47115  1  0  0  0
 48 56  1  0  0  0
 48 65  1  0  0  0
 48116  1  0  0  0
 49 50  1  0  0  0
 49 53  1  0  0  0
 49 64  1  0  0  0
 49117  1  0  0  0
 50 51  1  0  0  0
 50118  1  0  0  0
 50119  1  0  0  0
 51 52  1  0  0  0
 51120  1  0  0  0
 51121  1  0  0  0
 52122  1  0  0  0
 52123  1  0  0  0
 53 54  1  0  0  0
 54 55  2  0  0  0
 54124  1  0  0  0
 55 57  1  0  0  0
 55125  1  0  0  0
 56 69  2  0  0  0
 57 58  2  0  0  0
 57126  1  0  0  0
 58127  1  0  0  0
 59 60  1  0  0  0
 59 61  1  0  0  0
 59 62  1  0  0  0
 60128  1  0  0  0
 60129  1  0  0  0
 60130  1  0  0  0
 61131  1  0  0  0
 61132  1  0  0  0
 61133  1  0  0  0
 62134  1  0  0  0
 62135  1  0  0  0
 62136  1  0  0  0
 63 65  1  0  0  0
 63137  1  0  0  0
 63138  1  0  0  0
 63139  1  0  0  0
 64140  1  0  0  0
 65141  1  0  0  0
 68 77  1  0  0  0
 71 72  1  0  0  0
 71 73  2  0  0  0
 71 79  1  0  0  0
 72 74  1  0  0  0
 72 80  2  0  0  0
 73 75  1  0  0  0
 73 81  1  0  0  0
 74142  1  0  0  0
 74143  1  0  0  0
 74144  1  0  0  0
 75145  1  0  0  0
 75146  1  0  0  0
 75147  1  0  0  0
 76148  1  0  0  0
 76149  1  0  0  0
 76150  1  0  0  0
 76 79  1  0  0  0
 77 79  1  0  0  0
 77151  1  0  0  0
 77152  1  0  0  0
 78 81  1  0  0  0
 78 82  1  0  0  0
 78153  1  0  0  0
 78154  1  0  0  0
 79155  1  0  0  0
 80 81  1  0  0  0
 82156  1  0  0  0
M  ISO  4   1 100  68 101  77 101  82 100
M  END
> <chiral flag>
0

> <version>
0

> <s_m_source_file>
/data/baiqing/PycharmProjects/Reinvent-master-3.2/result/LINK_invent/BTK/process_docking_weight1_custom_sum_contain_oxygen_bond_distance_aromatic_linkinvent_7_9_3/rearranged_h_0110.sdf

> <i_m_source_file_index>
1

> <r_mmod_Potential_Energy-OPLS-2005>
656.51171875

> <r_mmod_Stretch_Energy-OPLS-2005>
339.468780517578

> <r_mmod_Bend_Energy-OPLS-2005>
388.241241455078

> <r_mmod_Torsional_Energy-OPLS-2005>
242.374725341797

> <r_mmod_Improper_Torsional_Energy-OPLS-2005>
7.53932952880859

> <r_mmod_Van_der_Waal_Energy-OPLS-2005>
98.3278045654297

> <r_mmod_Electrostatic_Energy-OPLS-2005>
-454.276031494141

> <r_mmod_Solvation_Energy-OPLS-2005>
-224.459915161133

> <b_mmod_Minimization_Converged-OPLS-2005>
0

> <r_mmod_RMS_Derivative-OPLS-2005>
2.87871384620667

$$$$
1
                    3D
 Structure written by MMmdl.
168176  0  0  1  0            999 V2000
  -30.5941  -14.8300   20.3958 C   0  0  0  0  0  0
  -30.4257  -12.5060   19.4576 C   0  0  0  0  0  0
  -29.4991  -12.4871   18.2226 C   0  0  0  0  0  0
  -28.0255  -12.3226   18.6413 C   0  0  0  0  0  0
  -27.6258  -13.2435   19.8257 C   0  0  2  0  0  0
  -28.6775  -13.2400   20.9513 C   0  0  0  0  0  0
  -25.2461  -13.8219   20.5713 C   0  0  0  0  0  0
  -24.1773  -13.0443   20.9198 C   0  0  0  0  0  0
  -24.6376  -11.6923   20.8719 C   0  0  0  0  0  0
  -23.9055  -10.4294   21.0394 C   0  0  0  0  0  0
  -24.3613   -9.4216   21.9177 C   0  0  0  0  0  0
  -23.6291   -8.2246   22.0750 C   0  0  0  0  0  0
  -22.4265   -8.0275   21.3551 C   0  0  0  0  0  0
  -21.9900   -9.0243   20.4640 C   0  0  0  0  0  0
  -22.7223  -10.2128   20.3046 C   0  0  0  0  0  0
  -21.6856   -6.0721   22.5275 C   0  0  0  0  0  0
  -21.4026   -6.5626   23.8209 C   0  0  0  0  0  0
  -21.3664   -5.6784   24.9175 C   0  0  0  0  0  0
  -21.6045   -4.3046   24.7219 C   0  0  0  0  0  0
  -21.8832   -3.8129   23.4341 C   0  0  0  0  0  0
  -21.9205   -4.6947   22.3397 C   0  0  0  0  0  0
  -22.7795  -13.5192   21.1888 C   0  0  0  0  0  0
  -22.1675   -4.2136   21.0979 F   0  0  0  0  0  0
  -21.5622   -3.4532   25.7731 F   0  0  0  0  0  0
  -29.9535  -13.6064   20.3315 N   0  0  0  0  0  0
  -26.2875  -12.9447   20.3217 N   0  0  0  0  0  0
  -25.9303  -11.6576   20.5703 N   0  0  0  0  0  0
  -22.0481  -12.8141   22.0446 N   0  0  0  0  0  0
  -25.4156  -15.1951   20.4181 N   0  0  0  0  0  0
  -31.8290  -14.8329   20.3280 O   0  0  0  0  0  0
  -21.6644   -6.8865   21.4237 O   0  0  0  0  0  0
  -22.3458  -14.5509   20.6767 O   0  0  0  0  0  0
  -24.6409  -31.8498   23.1953 C   0  0  0  0  0  0
  -25.9202  -32.4718   23.8305 C   0  0  1  0  0  0
  -27.2089  -27.1883   20.1128 C   0  0  0  0  0  0
  -25.5966  -33.8525   24.2223 N   0  0  0  0  0  0
  -23.4383  -30.4782   21.5425 C   0  0  2  0  0  0
  -24.8784  -28.9179   20.1169 C   0  0  0  0  0  0
  -22.7534  -29.4601   22.4892 C   0  0  0  0  0  0
  -18.0298  -28.1389   22.8486 C   0  0  0  0  0  0
  -24.1493  -36.7269   23.2637 C   0  0  0  0  0  0
  -25.9951  -30.7398   21.3855 C   0  0  0  0  0  0
  -26.0627  -29.3594   20.7193 C   0  0  0  0  0  0
  -27.2312  -28.5125   20.6988 C   0  0  0  0  0  0
  -25.9732  -26.8279   19.5212 C   0  0  0  0  0  0
  -24.8425  -27.6604   19.5082 C   0  0  0  0  0  0
  -23.6588  -29.8187   20.1595 C   0  0  0  0  0  0
  -25.4118  -36.3045   24.0315 C   0  0  1  0  0  0
  -20.5909  -28.3713   23.1249 C   0  0  2  0  0  0
  -20.6794  -26.9422   22.5400 C   0  0  0  0  0  0
  -19.5764  -26.6385   21.5211 C   0  0  0  0  0  0
  -18.1943  -26.7931   22.1621 C   0  0  0  0  0  0
  -19.1553  -28.8864   23.2867 C   0  0  0  0  0  0
  -18.9469  -30.1466   23.8883 C   0  0  0  0  0  0
  -17.6464  -30.6588   24.0561 C   0  0  0  0  0  0
  -25.9071  -34.9419   23.5069 C   0  0  0  0  0  0
  -16.5361  -29.9074   23.6342 C   0  0  0  0  0  0
  -16.7288  -28.6494   23.0365 C   0  0  0  0  0  0
  -26.4530  -31.6566   25.0727 C   0  0  0  0  0  0
  -25.3730  -31.3717   26.1424 C   0  0  0  0  0  0
  -27.0397  -30.2971   24.6286 C   0  0  0  0  0  0
  -27.6053  -32.4325   25.7524 C   0  0  0  0  0  0
  -27.5583  -37.1789   24.8454 C   0  0  0  0  0  0
  -21.4229  -29.3056   22.3622 N   0  0  0  0  0  0
  -26.4283  -37.3757   23.9411 N   0  0  0  0  0  0
  -24.7115  -31.0403   22.0966 N   0  0  0  0  0  0
  -23.4208  -28.8132   23.3008 O   0  0  0  0  0  0
  -28.2916  -26.2406   20.1333 O   0  0  0  0  0  0
  -26.5642  -34.8904   22.4639 O   0  0  0  0  0  0
  -23.5540  -32.1345   23.7215 O   0  0  0  0  0  0
  -29.9180  -19.6951   21.6730 C   0  0  0  0  0  0
  -28.9865  -19.8336   19.3914 C   0  0  0  0  0  0
  -30.4570  -18.2752   21.1486 C   0  0  0  0  0  0
  -28.5471  -18.2958   19.5668 C   0  0  0  0  0  0
  -29.0142  -20.6242   20.7392 C   0  0  2  0  0  0
  -29.4151  -17.3061   20.4905 C   0  0  1  0  0  0
  -28.0552  -24.9440   18.1023 C   0  0  0  0  0  0
  -30.2193  -16.1517   18.4386 C   0  0  0  0  0  0
  -29.2116  -23.8276   22.9005 C   0  0  0  0  0  0
  -29.1521  -23.5023   19.8336 C   0  0  0  0  0  0
  -29.2234  -22.2749   20.9320 C   0  0  1  0  0  0
  -28.1095  -24.7903   19.6474 C   0  0  1  0  0  0
  -29.9236  -15.9592   19.8704 N   0  0  0  0  0  0
  -28.5900  -22.6796   22.2079 N   0  3  0  0  0  0
  -31.4616  -12.6481   19.1424 H   0  0  0  0  0  0
  -30.3926  -11.5518   19.9863 H   0  0  0  0  0  0
  -29.7859  -11.6819   17.5443 H   0  0  0  0  0  0
  -29.6170  -13.4125   17.6586 H   0  0  0  0  0  0
  -27.8754  -11.2785   18.9156 H   0  0  0  0  0  0
  -27.3709  -12.5041   17.7875 H   0  0  0  0  0  0
  -27.5954  -14.2533   19.4142 H   0  0  0  0  0  0
  -28.7357  -12.2600   21.4276 H   0  0  0  0  0  0
  -28.4079  -13.9554   21.7296 H   0  0  0  0  0  0
  -25.2775   -9.5684   22.4729 H   0  0  0  0  0  0
  -24.0016   -7.4628   22.7453 H   0  0  0  0  0  0
  -21.0841   -8.8742   19.8924 H   0  0  0  0  0  0
  -22.3688  -10.9655   19.6132 H   0  0  0  0  0  0
  -21.2027   -7.6140   23.9699 H   0  0  0  0  0  0
  -21.1477   -6.0521   25.9082 H   0  0  0  0  0  0
  -22.0609   -2.7588   23.2843 H   0  0  0  0  0  0
  -22.4136  -11.9788   22.4784 H   0  0  0  0  0  0
  -21.1101  -13.1121   22.2700 H   0  0  0  0  0  0
  -24.6491  -15.8488   20.5357 H   0  0  0  0  0  0
  -26.2734  -15.6419   20.1195 H   0  0  0  0  0  0
  -26.7259  -32.5340   23.1024 H   0  0  0  0  0  0
  -25.0103  -33.9641   25.0365 H   0  0  0  0  0  0
  -22.7387  -31.3042   21.3977 H   0  0  0  0  0  0
  -23.3768  -35.9590   23.3252 H   0  0  0  0  0  0
  -24.3594  -36.8950   22.2066 H   0  0  0  0  0  0
  -23.7236  -37.6443   23.6702 H   0  0  0  0  0  0
  -26.1511  -31.5017   20.6201 H   0  0  0  0  0  0
  -26.8656  -30.7787   22.0288 H   0  0  0  0  0  0
  -28.1407  -28.8556   21.1720 H   0  0  0  0  0  0
  -25.8220  -25.8633   19.0662 H   0  0  0  0  0  0
  -23.9304  -27.3074   19.0462 H   0  0  0  0  0  0
  -23.7967  -30.5979   19.4089 H   0  0  0  0  0  0
  -22.7717  -29.2653   19.8473 H   0  0  0  0  0  0
  -25.1304  -36.1866   25.0810 H   0  0  0  0  0  0
  -21.0009  -28.3298   24.1369 H   0  0  0  0  0  0
  -20.5700  -26.2319   23.3608 H   0  0  0  0  0  0
  -21.6660  -26.7441   22.1191 H   0  0  0  0  0  0
  -19.6925  -25.6290   21.1252 H   0  0  0  0  0  0
  -19.6702  -27.3187   20.6731 H   0  0  0  0  0  0
  -17.4215  -26.6687   21.4022 H   0  0  0  0  0  0
  -18.0336  -26.0070   22.9008 H   0  0  0  0  0  0
  -19.7937  -30.7294   24.2250 H   0  0  0  0  0  0
  -17.5008  -31.6269   24.5159 H   0  0  0  0  0  0
  -15.5353  -30.2970   23.7666 H   0  0  0  0  0  0
  -15.8690  -28.0805   22.7089 H   0  0  0  0  0  0
  -24.5922  -30.7055   25.7728 H   0  0  0  0  0  0
  -24.8914  -32.2888   26.4823 H   0  0  0  0  0  0
  -25.8039  -30.8900   27.0212 H   0  0  0  0  0  0
  -26.3012  -29.6689   24.1296 H   0  0  0  0  0  0
  -27.4016  -29.7266   25.4846 H   0  0  0  0  0  0
  -27.8911  -30.4200   23.9592 H   0  0  0  0  0  0
  -27.2629  -33.3627   26.2065 H   0  0  0  0  0  0
  -28.3894  -32.6882   25.0387 H   0  0  0  0  0  0
  -28.0684  -31.8478   26.5481 H   0  0  0  0  0  0
  -28.2546  -38.0136   24.7550 H   0  0  0  0  0  0
  -28.1133  -36.2667   24.6213 H   0  0  0  0  0  0
  -27.2307  -37.1349   25.8855 H   0  0  0  0  0  0
  -20.9414  -29.8773   21.6819 H   0  0  0  0  0  0
  -26.0145  -38.2815   24.1449 H   0  0  0  0  0  0
  -30.8011  -20.2570   21.9773 H   0  0  0  0  0  0
  -29.3769  -19.5235   22.6040 H   0  0  0  0  0  0
  -28.2852  -20.3230   18.7143 H   0  0  0  0  0  0
  -29.9576  -19.8942   18.8970 H   0  0  0  0  0  0
  -30.9525  -17.7580   21.9721 H   0  0  0  0  0  0
  -31.2464  -18.4623   20.4197 H   0  0  0  0  0  0
  -28.3699  -17.8844   18.5754 H   0  0  0  0  0  0
  -27.5437  -18.3179   19.9949 H   0  0  0  0  0  0
  -27.9904  -20.4701   21.0830 H   0  0  0  0  0  0
  -28.7510  -16.9829   21.2951 H   0  0  0  0  0  0
  -27.6041  -24.0669   17.6363 H   0  0  0  0  0  0
  -29.0600  -25.0535   17.6936 H   0  0  0  0  0  0
  -27.5055  -25.8084   17.7389 H   0  0  0  0  0  0
  -29.3071  -16.0834   17.8460 H   0  0  0  0  0  0
  -30.8979  -15.4067   18.0168 H   0  0  0  0  0  0
  -30.6896  -17.1197   18.2618 H   0  0  0  0  0  0
  -28.7074  -24.0022   23.8514 H   0  0  0  0  0  0
  -29.1408  -24.7438   22.3152 H   0  0  0  0  0  0
  -30.2634  -23.6366   23.1152 H   0  0  0  0  0  0
  -29.1603  -22.9514   18.8918 H   0  0  0  0  0  0
  -30.1408  -23.9626   19.8379 H   0  0  0  0  0  0
  -30.2920  -22.2914   21.1515 H   0  0  0  0  0  0
  -27.1431  -24.4397   20.0098 H   0  0  0  0  0  0
  -27.6123  -22.8685   22.0572 H   0  0  0  0  0  0
  -28.6425  -21.8973   22.8399 H   0  0  0  0  0  0
  1 25  1  0  0  0
  1 30  2  0  0  0
  1 83  1  0  0  0
  2  3  1  0  0  0
  2 25  1  0  0  0
  2 85  1  0  0  0
  2 86  1  0  0  0
  3  4  1  0  0  0
  3 87  1  0  0  0
  3 88  1  0  0  0
  4  5  1  0  0  0
  4 89  1  0  0  0
  4 90  1  0  0  0
  5  6  1  0  0  0
  5 26  1  0  0  0
  5 91  1  0  0  0
  6 25  1  0  0  0
  6 92  1  0  0  0
  6 93  1  0  0  0
  7  8  2  0  0  0
  7 26  1  0  0  0
  7 29  1  0  0  0
  8  9  1  0  0  0
  8 22  1  0  0  0
  9 10  1  0  0  0
  9 27  2  0  0  0
 10 11  2  0  0  0
 10 15  1  0  0  0
 11 12  1  0  0  0
 11 94  1  0  0  0
 12 13  2  0  0  0
 12 95  1  0  0  0
 13 14  1  0  0  0
 13 31  1  0  0  0
 14 15  2  0  0  0
 14 96  1  0  0  0
 15 97  1  0  0  0
 16 17  2  0  0  0
 16 21  1  0  0  0
 16 31  1  0  0  0
 17 18  1  0  0  0
 17 98  1  0  0  0
 18 19  2  0  0  0
 18 99  1  0  0  0
 19 20  1  0  0  0
 19 24  1  0  0  0
 20 21  2  0  0  0
 20100  1  0  0  0
 21 23  1  0  0  0
 22 28  1  0  0  0
 22 32  2  0  0  0
 26 27  1  0  0  0
 28101  1  0  0  0
 28102  1  0  0  0
 29103  1  0  0  0
 29104  1  0  0  0
 33 34  1  0  0  0
 33 66  1  0  0  0
 33 70  2  0  0  0
 34 36  1  0  0  0
 34 59  1  0  0  0
 34105  1  0  0  0
 35 44  2  0  0  0
 35 45  1  0  0  0
 35 68  1  0  0  0
 36 56  1  0  0  0
 36106  1  0  0  0
 37 39  1  0  0  0
 37 47  1  0  0  0
 37 66  1  0  0  0
 37107  1  0  0  0
 38 43  2  0  0  0
 38 46  1  0  0  0
 38 47  1  0  0  0
 39 64  1  0  0  0
 39 67  2  0  0  0
 40 52  1  0  0  0
 40 53  2  0  0  0
 40 58  1  0  0  0
 41108  1  0  0  0
 41109  1  0  0  0
 41110  1  0  0  0
 41 48  1  0  0  0
 42 43  1  0  0  0
 42 66  1  0  0  0
 42111  1  0  0  0
 42112  1  0  0  0
 43 44  1  0  0  0
 44113  1  0  0  0
 45 46  2  0  0  0
 45114  1  0  0  0
 46115  1  0  0  0
 47116  1  0  0  0
 47117  1  0  0  0
 48 56  1  0  0  0
 48 65  1  0  0  0
 48118  1  0  0  0
 49 50  1  0  0  0
 49 53  1  0  0  0
 49 64  1  0  0  0
 49119  1  0  0  0
 50 51  1  0  0  0
 50120  1  0  0  0
 50121  1  0  0  0
 51 52  1  0  0  0
 51122  1  0  0  0
 51123  1  0  0  0
 52124  1  0  0  0
 52125  1  0  0  0
 53 54  1  0  0  0
 54 55  2  0  0  0
 54126  1  0  0  0
 55 57  1  0  0  0
 55127  1  0  0  0
 56 69  2  0  0  0
 57 58  2  0  0  0
 57128  1  0  0  0
 58129  1  0  0  0
 59 60  1  0  0  0
 59 61  1  0  0  0
 59 62  1  0  0  0
 60130  1  0  0  0
 60131  1  0  0  0
 60132  1  0  0  0
 61133  1  0  0  0
 61134  1  0  0  0
 61135  1  0  0  0
 62136  1  0  0  0
 62137  1  0  0  0
 62138  1  0  0  0
 63 65  1  0  0  0
 63139  1  0  0  0
 63140  1  0  0  0
 63141  1  0  0  0
 64142  1  0  0  0
 65143  1  0  0  0
 68 82  1  0  0  0
 71 73  1  0  0  0
 71144  1  0  0  0
 71145  1  0  0  0
 71 75  1  0  0  0
 72 74  1  0  0  0
 72 75  1  0  0  0
 72146  1  0  0  0
 72147  1  0  0  0
 73 76  1  0  0  0
 73148  1  0  0  0
 73149  1  0  0  0
 74 76  1  0  0  0
 74150  1  0  0  0
 74151  1  0  0  0
 75 81  1  0  0  0
 75152  1  0  0  0
 76 83  1  0  0  0
 76153  1  0  0  0
 77154  1  0  0  0
 77155  1  0  0  0
 77156  1  0  0  0
 77 82  1  0  0  0
 78 83  1  0  0  0
 78157  1  0  0  0
 78158  1  0  0  0
 78159  1  0  0  0
 79 84  1  0  0  0
 79160  1  0  0  0
 79161  1  0  0  0
 79162  1  0  0  0
 80 82  1  0  0  0
 80163  1  0  0  0
 80164  1  0  0  0
 80 81  1  0  0  0
 81 84  1  0  0  0
 81165  1  0  0  0
 82166  1  0  0  0
 84167  1  0  0  0
 84168  1  0  0  0
M  CHG  1  84   1
M  ISO  4   1 100  68 101  82 101  83 100
M  END
> <chiral flag>
0

> <version>
0

> <s_m_source_file>
/data/baiqing/PycharmProjects/Reinvent-master-3.2/result/LINK_invent/BTK/process_docking_weight1_custom_sum_contain_oxygen_bond_distance_aromatic_linkinvent_7_9_3/rearranged_h_0110.sdf

> <i_m_source_file_index>
2

> <r_mmod_Potential_Energy-OPLS-2005>
592.135986328125

> <r_mmod_Stretch_Energy-OPLS-2005>
202.263366699219

> <r_mmod_Bend_Energy-OPLS-2005>
320.209197998047

> <r_mmod_Torsional_Energy-OPLS-2005>
398.645751953125

> <r_mmod_Improper_Torsional_Energy-OPLS-2005>
26.7727947235107

> <r_mmod_Van_der_Waal_Energy-OPLS-2005>
141.16242980957

> <r_mmod_Electrostatic_Energy-OPLS-2005>
-201.819885253906

> <r_mmod_Solvation_Energy-OPLS-2005>
-434.500946044922

> <b_mmod_Minimization_Converged-OPLS-2005>
0

> <r_mmod_RMS_Derivative-OPLS-2005>
2.07817769050598

$$$$
2
                    3D
 Structure written by MMmdl.
162170  0  0  1  0            999 V2000
  -30.5886  -14.7971   20.4431 C   0  0  0  0  0  0
  -30.4330  -12.4874   19.4815 C   0  0  0  0  0  0
  -29.5125  -12.5082   18.2408 C   0  0  0  0  0  0
  -28.0403  -12.3217   18.6551 C   0  0  0  0  0  0
  -27.6368  -13.2326   19.8447 C   0  0  2  0  0  0
  -28.6797  -13.1949   20.9826 C   0  0  0  0  0  0
  -25.2499  -13.8193   20.5688 C   0  0  0  0  0  0
  -24.1806  -13.0444   20.9255 C   0  0  0  0  0  0
  -24.6391  -11.6919   20.8776 C   0  0  0  0  0  0
  -23.9068  -10.4294   21.0423 C   0  0  0  0  0  0
  -24.3620   -9.4204   21.9194 C   0  0  0  0  0  0
  -23.6294   -8.2240   22.0757 C   0  0  0  0  0  0
  -22.4277   -8.0281   21.3545 C   0  0  0  0  0  0
  -21.9915   -9.0257   20.4650 C   0  0  0  0  0  0
  -22.7244  -10.2137   20.3066 C   0  0  0  0  0  0
  -21.6852   -6.0736   22.5278 C   0  0  0  0  0  0
  -21.4014   -6.5640   23.8212 C   0  0  0  0  0  0
  -21.3658   -5.6793   24.9174 C   0  0  0  0  0  0
  -21.6043   -4.3055   24.7225 C   0  0  0  0  0  0
  -21.8819   -3.8147   23.4346 C   0  0  0  0  0  0
  -21.9193   -4.6964   22.3402 C   0  0  0  0  0  0
  -22.7828  -13.5230   21.1890 C   0  0  0  0  0  0
  -22.1661   -4.2150   21.0979 F   0  0  0  0  0  0
  -21.5628   -3.4539   25.7737 F   0  0  0  0  0  0
  -29.9730  -13.5621   20.3954 N   0  0  0  0  0  0
  -26.2906  -12.9394   20.3239 N   0  0  0  0  0  0
  -25.9313  -11.6542   20.5747 N   0  0  0  0  0  0
  -22.0459  -12.8220   22.0430 N   0  0  0  0  0  0
  -25.4187  -15.1909   20.3990 N   0  0  0  0  0  0
  -31.7825  -14.8836   20.1437 O   0  0  0  0  0  0
  -21.6641   -6.8879   21.4240 O   0  0  0  0  0  0
  -22.3535  -14.5537   20.6720 O   0  0  0  0  0  0
  -24.6341  -31.8507   23.1925 C   0  0  0  0  0  0
  -25.9152  -32.4727   23.8288 C   0  0  1  0  0  0
  -27.2252  -27.2261   20.1282 C   0  0  0  0  0  0
  -25.5934  -33.8531   24.2214 N   0  0  0  0  0  0
  -23.4317  -30.4708   21.5369 C   0  0  2  0  0  0
  -24.8771  -28.9053   20.1098 C   0  0  0  0  0  0
  -22.7512  -29.4580   22.4897 C   0  0  0  0  0  0
  -18.0292  -28.1388   22.8483 C   0  0  0  0  0  0
  -24.1490  -36.7271   23.2644 C   0  0  0  0  0  0
  -25.9785  -30.7535   21.3736 C   0  0  0  0  0  0
  -26.0491  -29.3719   20.7156 C   0  0  0  0  0  0
  -27.2206  -28.5460   20.7079 C   0  0  0  0  0  0
  -26.0193  -26.8206   19.5192 C   0  0  0  0  0  0
  -24.8690  -27.6392   19.5017 C   0  0  0  0  0  0
  -23.6503  -29.7983   20.1549 C   0  0  0  0  0  0
  -25.4119  -36.3052   24.0322 C   0  0  1  0  0  0
  -20.5896  -28.3700   23.1264 C   0  0  2  0  0  0
  -20.6777  -26.9414   22.5409 C   0  0  0  0  0  0
  -19.5755  -26.6381   21.5211 C   0  0  0  0  0  0
  -18.1935  -26.7929   22.1622 C   0  0  0  0  0  0
  -19.1546  -28.8860   23.2869 C   0  0  0  0  0  0
  -18.9469  -30.1460   23.8889 C   0  0  0  0  0  0
  -17.6469  -30.6589   24.0562 C   0  0  0  0  0  0
  -25.9063  -34.9427   23.5074 C   0  0  0  0  0  0
  -16.5359  -29.9086   23.6332 C   0  0  0  0  0  0
  -16.7279  -28.6503   23.0353 C   0  0  0  0  0  0
  -26.4506  -31.6573   25.0701 C   0  0  0  0  0  0
  -25.3719  -31.3736   26.1417 C   0  0  0  0  0  0
  -27.0360  -30.2986   24.6212 C   0  0  0  0  0  0
  -27.6049  -32.4327   25.7480 C   0  0  0  0  0  0
  -27.5576  -37.1791   24.8467 C   0  0  0  0  0  0
  -21.4215  -29.3043   22.3649 N   0  0  0  0  0  0
  -26.4288  -37.3759   23.9410 N   0  0  0  0  0  0
  -24.7010  -31.0446   22.0907 N   0  0  0  0  0  0
  -23.4200  -28.8132   23.3015 O   0  0  0  0  0  0
  -28.3614  -26.3759   20.2032 O   0  0  0  0  0  0
  -26.5646  -34.8916   22.4651 O   0  0  0  0  0  0
  -23.5485  -32.1340   23.7209 O   0  0  0  0  0  0
  -28.2263  -21.0231   19.5036 C   0  0  0  0  0  0
  -29.4203  -21.3323   21.6006 C   0  0  0  0  0  0
  -28.9144  -19.5811   19.3408 C   0  0  0  0  0  0
  -30.1173  -19.9102   21.4124 C   0  0  0  0  0  0
  -29.0106  -22.1295   20.3080 C   0  0  2  0  0  0
  -29.3371  -18.7722   20.6397 C   0  0  2  0  0  0
  -28.1837  -24.7568   18.2362 C   0  0  0  0  0  0
  -28.2782  -23.5885   20.5883 C   0  0  0  0  0  0
  -30.2621  -17.4201   20.3802 C   0  0  0  0  0  0
  -28.5550  -24.9437   19.7159 C   0  0  2  0  0  0
  -29.8177  -15.9533   20.6014 N   0  0  0  0  0  0
  -28.1372  -18.3886   21.4069 N   0  3  0  0  0  0
  -31.4729  -12.6196   19.1777 H   0  0  0  0  0  0
  -30.3897  -11.5179   19.9803 H   0  0  0  0  0  0
  -29.8057  -11.7266   17.5385 H   0  0  0  0  0  0
  -29.6284  -13.4553   17.7115 H   0  0  0  0  0  0
  -27.9089  -11.2751   18.9323 H   0  0  0  0  0  0
  -27.3812  -12.4947   17.8037 H   0  0  0  0  0  0
  -27.6232  -14.2478   19.4483 H   0  0  0  0  0  0
  -28.7291  -12.2036   21.4354 H   0  0  0  0  0  0
  -28.4056  -13.8845   21.7827 H   0  0  0  0  0  0
  -25.2763   -9.5678   22.4773 H   0  0  0  0  0  0
  -24.0002   -7.4629   22.7473 H   0  0  0  0  0  0
  -21.0849   -8.8777   19.8954 H   0  0  0  0  0  0
  -22.3702  -10.9680   19.6180 H   0  0  0  0  0  0
  -21.2007   -7.6149   23.9716 H   0  0  0  0  0  0
  -21.1480   -6.0524   25.9077 H   0  0  0  0  0  0
  -22.0599   -2.7610   23.2845 H   0  0  0  0  0  0
  -22.4068  -11.9879   22.4819 H   0  0  0  0  0  0
  -21.1071  -13.1244   22.2619 H   0  0  0  0  0  0
  -24.5969  -15.7860   20.4010 H   0  0  0  0  0  0
  -26.1518  -15.5433   19.7984 H   0  0  0  0  0  0
  -26.7214  -32.5357   23.1021 H   0  0  0  0  0  0
  -25.0067  -33.9658   25.0351 H   0  0  0  0  0  0
  -22.7300  -31.2940   21.3868 H   0  0  0  0  0  0
  -23.3754  -35.9603   23.3303 H   0  0  0  0  0  0
  -24.3575  -36.8900   22.2059 H   0  0  0  0  0  0
  -23.7241  -37.6468   23.6676 H   0  0  0  0  0  0
  -26.1206  -31.5124   20.6029 H   0  0  0  0  0  0
  -26.8549  -30.8025   22.0085 H   0  0  0  0  0  0
  -28.1208  -28.9031   21.1882 H   0  0  0  0  0  0
  -25.9260  -25.8412   19.0842 H   0  0  0  0  0  0
  -23.9659  -27.2689   19.0360 H   0  0  0  0  0  0
  -23.7783  -30.5721   19.3969 H   0  0  0  0  0  0
  -22.7668  -29.2347   19.8499 H   0  0  0  0  0  0
  -25.1304  -36.1889   25.0814 H   0  0  0  0  0  0
  -20.9989  -28.3281   24.1385 H   0  0  0  0  0  0
  -20.5668  -26.2314   23.3617 H   0  0  0  0  0  0
  -21.6647  -26.7428   22.1210 H   0  0  0  0  0  0
  -19.6919  -25.6289   21.1247 H   0  0  0  0  0  0
  -19.6695  -27.3188   20.6739 H   0  0  0  0  0  0
  -17.4204  -26.6675   21.4026 H   0  0  0  0  0  0
  -18.0336  -26.0071   22.9018 H   0  0  0  0  0  0
  -19.7947  -30.7276   24.2256 H   0  0  0  0  0  0
  -17.5025  -31.6271   24.5161 H   0  0  0  0  0  0
  -15.5361  -30.2988   23.7660 H   0  0  0  0  0  0
  -15.8677  -28.0821   22.7073 H   0  0  0  0  0  0
  -24.5907  -30.7068   25.7748 H   0  0  0  0  0  0
  -24.8897  -32.2910   26.4806 H   0  0  0  0  0  0
  -25.8030  -30.8943   27.0215 H   0  0  0  0  0  0
  -26.2950  -29.6722   24.1231 H   0  0  0  0  0  0
  -27.4027  -29.7262   25.4742 H   0  0  0  0  0  0
  -27.8831  -30.4253   23.9467 H   0  0  0  0  0  0
  -27.2647  -33.3639   26.2023 H   0  0  0  0  0  0
  -28.3877  -32.6867   25.0321 H   0  0  0  0  0  0
  -28.0697  -31.8476   26.5424 H   0  0  0  0  0  0
  -28.2590  -38.0090   24.7507 H   0  0  0  0  0  0
  -28.1071  -36.2618   24.6298 H   0  0  0  0  0  0
  -27.2294  -37.1445   25.8871 H   0  0  0  0  0  0
  -20.9405  -29.8761   21.6846 H   0  0  0  0  0  0
  -26.0159  -38.2830   24.1412 H   0  0  0  0  0  0
  -27.2473  -20.8885   19.9648 H   0  0  0  0  0  0
  -28.0152  -21.4150   18.5078 H   0  0  0  0  0  0
  -30.0959  -21.9601   22.1832 H   0  0  0  0  0  0
  -28.5387  -21.2109   22.2311 H   0  0  0  0  0  0
  -29.8097  -19.7228   18.7335 H   0  0  0  0  0  0
  -28.2661  -18.9520   18.7297 H   0  0  0  0  0  0
  -30.4036  -19.5343   22.3955 H   0  0  0  0  0  0
  -31.0636  -20.0794   20.8958 H   0  0  0  0  0  0
  -29.9328  -22.3433   19.7654 H   0  0  0  0  0  0
  -28.7849  -23.9620   17.7933 H   0  0  0  0  0  0
  -28.3698  -25.6635   17.6604 H   0  0  0  0  0  0
  -27.1454  -24.4626   18.0974 H   0  0  0  0  0  0
  -28.5523  -23.8624   21.6074 H   0  0  0  0  0  0
  -27.2011  -23.4288   20.6414 H   0  0  0  0  0  0
  -31.1544  -17.5301   20.9986 H   0  0  0  0  0  0
  -30.6492  -17.4768   19.3620 H   0  0  0  0  0  0
  -29.6453  -24.9492   19.6884 H   0  0  0  0  0  0
  -28.8413  -15.7837   20.7803 H   0  0  0  0  0  0
  -27.6049  -19.2011   21.6606 H   0  0  0  0  0  0
  -28.3967  -17.9120   22.2531 H   0  0  0  0  0  0
  -27.5390  -17.7884   20.8686 H   0  0  0  0  0  0
  1 25  1  0  0  0
  1 30  2  0  0  0
  1 81  1  0  0  0
  2  3  1  0  0  0
  2 25  1  0  0  0
  2 83  1  0  0  0
  2 84  1  0  0  0
  3  4  1  0  0  0
  3 85  1  0  0  0
  3 86  1  0  0  0
  4  5  1  0  0  0
  4 87  1  0  0  0
  4 88  1  0  0  0
  5  6  1  0  0  0
  5 26  1  0  0  0
  5 89  1  0  0  0
  6 25  1  0  0  0
  6 90  1  0  0  0
  6 91  1  0  0  0
  7  8  2  0  0  0
  7 26  1  0  0  0
  7 29  1  0  0  0
  8  9  1  0  0  0
  8 22  1  0  0  0
  9 10  1  0  0  0
  9 27  2  0  0  0
 10 11  2  0  0  0
 10 15  1  0  0  0
 11 12  1  0  0  0
 11 92  1  0  0  0
 12 13  2  0  0  0
 12 93  1  0  0  0
 13 14  1  0  0  0
 13 31  1  0  0  0
 14 15  2  0  0  0
 14 94  1  0  0  0
 15 95  1  0  0  0
 16 17  2  0  0  0
 16 21  1  0  0  0
 16 31  1  0  0  0
 17 18  1  0  0  0
 17 96  1  0  0  0
 18 19  2  0  0  0
 18 97  1  0  0  0
 19 20  1  0  0  0
 19 24  1  0  0  0
 20 21  2  0  0  0
 20 98  1  0  0  0
 21 23  1  0  0  0
 22 28  1  0  0  0
 22 32  2  0  0  0
 26 27  1  0  0  0
 28 99  1  0  0  0
 28100  1  0  0  0
 29101  1  0  0  0
 29102  1  0  0  0
 33 34  1  0  0  0
 33 66  1  0  0  0
 33 70  2  0  0  0
 34 36  1  0  0  0
 34 59  1  0  0  0
 34103  1  0  0  0
 35 44  2  0  0  0
 35 45  1  0  0  0
 35 68  1  0  0  0
 36 56  1  0  0  0
 36104  1  0  0  0
 37 39  1  0  0  0
 37 47  1  0  0  0
 37 66  1  0  0  0
 37105  1  0  0  0
 38 43  2  0  0  0
 38 46  1  0  0  0
 38 47  1  0  0  0
 39 64  1  0  0  0
 39 67  2  0  0  0
 40 52  1  0  0  0
 40 53  2  0  0  0
 40 58  1  0  0  0
 41106  1  0  0  0
 41107  1  0  0  0
 41108  1  0  0  0
 41 48  1  0  0  0
 42 43  1  0  0  0
 42 66  1  0  0  0
 42109  1  0  0  0
 42110  1  0  0  0
 43 44  1  0  0  0
 44111  1  0  0  0
 45 46  2  0  0  0
 45112  1  0  0  0
 46113  1  0  0  0
 47114  1  0  0  0
 47115  1  0  0  0
 48 56  1  0  0  0
 48 65  1  0  0  0
 48116  1  0  0  0
 49 50  1  0  0  0
 49 53  1  0  0  0
 49 64  1  0  0  0
 49117  1  0  0  0
 50 51  1  0  0  0
 50118  1  0  0  0
 50119  1  0  0  0
 51 52  1  0  0  0
 51120  1  0  0  0
 51121  1  0  0  0
 52122  1  0  0  0
 52123  1  0  0  0
 53 54  1  0  0  0
 54 55  2  0  0  0
 54124  1  0  0  0
 55 57  1  0  0  0
 55125  1  0  0  0
 56 69  2  0  0  0
 57 58  2  0  0  0
 57126  1  0  0  0
 58127  1  0  0  0
 59 60  1  0  0  0
 59 61  1  0  0  0
 59 62  1  0  0  0
 60128  1  0  0  0
 60129  1  0  0  0
 60130  1  0  0  0
 61131  1  0  0  0
 61132  1  0  0  0
 61133  1  0  0  0
 62134  1  0  0  0
 62135  1  0  0  0
 62136  1  0  0  0
 63 65  1  0  0  0
 63137  1  0  0  0
 63138  1  0  0  0
 63139  1  0  0  0
 64140  1  0  0  0
 65141  1  0  0  0
 68 80  1  0  0  0
 71 73  1  0  0  0
 71 75  1  0  0  0
 71142  1  0  0  0
 71143  1  0  0  0
 72 74  1  0  0  0
 72 75  1  0  0  0
 72144  1  0  0  0
 72145  1  0  0  0
 73 76  1  0  0  0
 73146  1  0  0  0
 73147  1  0  0  0
 74 76  1  0  0  0
 74148  1  0  0  0
 74149  1  0  0  0
 75 78  1  0  0  0
 75150  1  0  0  0
 76 79  1  0  0  0
 76 82  1  0  0  0
 77151  1  0  0  0
 77152  1  0  0  0
 77153  1  0  0  0
 77 80  1  0  0  0
 78 80  1  0  0  0
 78154  1  0  0  0
 78155  1  0  0  0
 79 81  1  0  0  0
 79156  1  0  0  0
 79157  1  0  0  0
 80158  1  0  0  0
 81159  1  0  0  0
 82160  1  0  0  0
 82161  1  0  0  0
 82162  1  0  0  0
M  CHG  1  82   1
M  ISO  4   1 100  68 101  80 101  81 100
M  END
> <chiral flag>
0

> <version>
0

> <s_m_source_file>
/data/baiqing/PycharmProjects/Reinvent-master-3.2/result/LINK_invent/BTK/process_docking_weight1_custom_sum_contain_oxygen_bond_distance_aromatic_linkinvent_7_9_3/rearranged_h_0110.sdf

> <i_m_source_file_index>
3

> <r_mmod_Potential_Energy-OPLS-2005>
44.6416244506836

> <r_mmod_Stretch_Energy-OPLS-2005>
159.693237304688

> <r_mmod_Bend_Energy-OPLS-2005>
245.519317626953

> <r_mmod_Torsional_Energy-OPLS-2005>
294.62060546875

> <r_mmod_Improper_Torsional_Energy-OPLS-2005>
7.70027446746826

> <r_mmod_Van_der_Waal_Energy-OPLS-2005>
115.490203857422

> <r_mmod_Electrostatic_Energy-OPLS-2005>
-378.2841796875

> <r_mmod_Solvation_Energy-OPLS-2005>
-504.568786621094

> <b_mmod_Minimization_Converged-OPLS-2005>
0

> <r_mmod_RMS_Derivative-OPLS-2005>
0.315864235162735

$$$$
3
                    3D
 Structure written by MMmdl.
166174  0  0  1  0            999 V2000
  -30.6681  -14.6839   20.4733 C   0  0  0  0  0  0
  -30.4213  -12.4143   19.4834 C   0  0  0  0  0  0
  -29.5084  -12.4947   18.2421 C   0  0  0  0  0  0
  -28.0331  -12.3356   18.6522 C   0  0  0  0  0  0
  -27.6457  -13.2346   19.8566 C   0  0  2  0  0  0
  -28.6885  -13.1670   20.9956 C   0  0  0  0  0  0
  -25.2525  -13.8218   20.5706 C   0  0  0  0  0  0
  -24.1818  -13.0454   20.9218 C   0  0  0  0  0  0
  -24.6417  -11.6935   20.8772 C   0  0  0  0  0  0
  -23.9085  -10.4309   21.0423 C   0  0  0  0  0  0
  -24.3625   -9.4219   21.9197 C   0  0  0  0  0  0
  -23.6303   -8.2252   22.0756 C   0  0  0  0  0  0
  -22.4283   -8.0293   21.3548 C   0  0  0  0  0  0
  -21.9922   -9.0271   20.4650 C   0  0  0  0  0  0
  -22.7255  -10.2152   20.3070 C   0  0  0  0  0  0
  -21.6857   -6.0744   22.5285 C   0  0  0  0  0  0
  -21.4015   -6.5646   23.8218 C   0  0  0  0  0  0
  -21.3661   -5.6795   24.9179 C   0  0  0  0  0  0
  -21.6041   -4.3059   24.7227 C   0  0  0  0  0  0
  -21.8818   -3.8153   23.4349 C   0  0  0  0  0  0
  -21.9192   -4.6971   22.3407 C   0  0  0  0  0  0
  -22.7836  -13.5236   21.1863 C   0  0  0  0  0  0
  -22.1659   -4.2157   21.0983 F   0  0  0  0  0  0
  -21.5629   -3.4543   25.7739 F   0  0  0  0  0  0
  -30.0000  -13.4840   20.4182 N   0  0  0  0  0  0
  -26.2960  -12.9431   20.3315 N   0  0  0  0  0  0
  -25.9351  -11.6572   20.5783 N   0  0  0  0  0  0
  -22.0475  -12.8236   22.0419 N   0  0  0  0  0  0
  -25.4215  -15.1939   20.4106 N   0  0  0  0  0  0
  -31.8498  -14.7308   20.1271 O   0  0  0  0  0  0
  -21.6643   -6.8890   21.4246 O   0  0  0  0  0  0
  -22.3523  -14.5539   20.6703 O   0  0  0  0  0  0
  -24.6312  -31.8590   23.2044 C   0  0  0  0  0  0
  -25.9144  -32.4777   23.8375 C   0  0  1  0  0  0
  -27.2048  -27.2739   20.1179 C   0  0  0  0  0  0
  -25.5946  -33.8579   24.2292 N   0  0  0  0  0  0
  -23.4261  -30.4877   21.5486 C   0  0  2  0  0  0
  -24.8699  -28.9512   20.1084 C   0  0  0  0  0  0
  -22.7507  -29.4623   22.4923 C   0  0  0  0  0  0
  -18.0294  -28.1386   22.8485 C   0  0  0  0  0  0
  -24.1491  -36.7286   23.2638 C   0  0  0  0  0  0
  -25.9755  -30.7764   21.3851 C   0  0  0  0  0  0
  -26.0455  -29.4033   20.7217 C   0  0  0  0  0  0
  -27.2179  -28.5782   20.7180 C   0  0  0  0  0  0
  -26.0041  -26.9084   19.4572 C   0  0  0  0  0  0
  -24.8538  -27.7101   19.4659 C   0  0  0  0  0  0
  -23.6423  -29.8362   20.1610 C   0  0  0  0  0  0
  -25.4116  -36.3081   24.0329 C   0  0  1  0  0  0
  -20.5902  -28.3702   23.1269 C   0  0  2  0  0  0
  -20.6787  -26.9422   22.5405 C   0  0  0  0  0  0
  -19.5758  -26.6385   21.5214 C   0  0  0  0  0  0
  -18.1939  -26.7925   22.1628 C   0  0  0  0  0  0
  -19.1550  -28.8859   23.2870 C   0  0  0  0  0  0
  -18.9465  -30.1459   23.8892 C   0  0  0  0  0  0
  -17.6464  -30.6586   24.0560 C   0  0  0  0  0  0
  -25.9055  -34.9451   23.5106 C   0  0  0  0  0  0
  -16.5355  -29.9081   23.6333 C   0  0  0  0  0  0
  -16.7280  -28.6499   23.0353 C   0  0  0  0  0  0
  -26.4510  -31.6587   25.0750 C   0  0  0  0  0  0
  -25.3732  -31.3727   26.1466 C   0  0  0  0  0  0
  -27.0354  -30.3001   24.6228 C   0  0  0  0  0  0
  -27.6071  -32.4323   25.7517 C   0  0  0  0  0  0
  -27.5579  -37.1805   24.8468 C   0  0  0  0  0  0
  -21.4215  -29.3058   22.3668 N   0  0  0  0  0  0
  -26.4292  -37.3779   23.9409 N   0  0  0  0  0  0
  -24.6968  -31.0576   22.1019 N   0  0  0  0  0  0
  -23.4215  -28.8143   23.2996 O   0  0  0  0  0  0
  -28.2666  -26.3351   20.1989 O   0  0  0  0  0  0
  -26.5628  -34.8915   22.4676 O   0  0  0  0  0  0
  -23.5463  -32.1406   23.7346 O   0  0  0  0  0  0
  -26.3899  -22.3016   20.2355 C   0  0  0  0  0  0
  -25.8266  -21.0835   19.8085 C   0  0  0  0  0  0
  -27.7595  -22.2192   20.2607 C   0  0  0  0  0  0
  -26.8666  -20.2342   19.5916 C   0  0  0  0  0  0
  -24.3632  -20.8115   19.5721 C   0  0  0  0  0  0
  -26.7577  -18.9051   18.9042 C   0  0  0  0  0  0
  -31.6492  -17.7050   20.9505 C   0  0  0  0  0  0
  -30.4406  -17.3363   18.7690 C   0  0  0  0  0  0
  -28.6418  -23.5128   20.4403 C   0  0  0  0  0  0
  -29.2455  -18.4447   20.7613 C   0  0  0  0  0  0
  -29.3274  -19.9842   20.2004 C   0  0  0  0  0  0
  -27.8591  -24.8925   20.0859 C   0  0  0  0  0  0
  -30.3029  -17.3041   20.3080 C   0  0  0  0  0  0
  -28.0543  -20.8040   20.0889 N   0  0  0  0  0  0
  -29.9492  -15.8524   20.6809 N   0  0  0  0  0  0
  -31.4671  -12.5026   19.1837 H   0  0  0  0  0  0
  -30.3344  -11.4384   19.9627 H   0  0  0  0  0  0
  -29.7814  -11.7217   17.5224 H   0  0  0  0  0  0
  -29.6512  -13.4509   17.7360 H   0  0  0  0  0  0
  -27.8783  -11.2874   18.9117 H   0  0  0  0  0  0
  -27.3793  -12.5374   17.8031 H   0  0  0  0  0  0
  -27.6434  -14.2575   19.4795 H   0  0  0  0  0  0
  -28.7058  -12.1774   21.4540 H   0  0  0  0  0  0
  -28.4349  -13.8690   21.7914 H   0  0  0  0  0  0
  -25.2764   -9.5699   22.4775 H   0  0  0  0  0  0
  -24.0017   -7.4644   22.7477 H   0  0  0  0  0  0
  -21.0848   -8.8798   19.8956 H   0  0  0  0  0  0
  -22.3715  -10.9696   19.6186 H   0  0  0  0  0  0
  -21.2005   -7.6152   23.9725 H   0  0  0  0  0  0
  -21.1480   -6.0523   25.9081 H   0  0  0  0  0  0
  -22.0592   -2.7615   23.2846 H   0  0  0  0  0  0
  -22.4063  -11.9896   22.4823 H   0  0  0  0  0  0
  -21.1098  -13.1281   22.2608 H   0  0  0  0  0  0
  -24.6535  -15.8462   20.5217 H   0  0  0  0  0  0
  -26.2678  -15.6302   20.0697 H   0  0  0  0  0  0
  -26.7213  -32.5426   23.1121 H   0  0  0  0  0  0
  -25.0091  -33.9726   25.0435 H   0  0  0  0  0  0
  -22.7210  -31.3103   21.4104 H   0  0  0  0  0  0
  -23.3756  -35.9616   23.3302 H   0  0  0  0  0  0
  -24.3585  -36.8903   22.2054 H   0  0  0  0  0  0
  -23.7241  -37.6486   23.6656 H   0  0  0  0  0  0
  -26.1175  -31.5413   20.6202 H   0  0  0  0  0  0
  -26.8526  -30.8188   22.0190 H   0  0  0  0  0  0
  -28.1125  -28.9153   21.2231 H   0  0  0  0  0  0
  -25.8924  -25.9712   18.9369 H   0  0  0  0  0  0
  -23.9567  -27.3609   18.9729 H   0  0  0  0  0  0
  -23.7684  -30.6188   19.4122 H   0  0  0  0  0  0
  -22.7598  -29.2733   19.8511 H   0  0  0  0  0  0
  -25.1297  -36.1935   25.0822 H   0  0  0  0  0  0
  -20.9989  -28.3276   24.1391 H   0  0  0  0  0  0
  -20.5693  -26.2314   23.3611 H   0  0  0  0  0  0
  -21.6652  -26.7452   22.1192 H   0  0  0  0  0  0
  -19.6918  -25.6296   21.1243 H   0  0  0  0  0  0
  -19.6679  -27.3198   20.6744 H   0  0  0  0  0  0
  -17.4206  -26.6670   21.4031 H   0  0  0  0  0  0
  -18.0336  -26.0069   22.9029 H   0  0  0  0  0  0
  -19.7936  -30.7276   24.2259 H   0  0  0  0  0  0
  -17.5012  -31.6265   24.5163 H   0  0  0  0  0  0
  -15.5352  -30.2978   23.7653 H   0  0  0  0  0  0
  -15.8680  -28.0808   22.7075 H   0  0  0  0  0  0
  -24.5921  -30.7061   25.7791 H   0  0  0  0  0  0
  -24.8906  -32.2890   26.4875 H   0  0  0  0  0  0
  -25.8049  -30.8918   27.0252 H   0  0  0  0  0  0
  -26.2938  -29.6755   24.1235 H   0  0  0  0  0  0
  -27.4016  -29.7254   25.4746 H   0  0  0  0  0  0
  -27.8828  -30.4274   23.9488 H   0  0  0  0  0  0
  -27.2687  -33.3631   26.2085 H   0  0  0  0  0  0
  -28.3884  -32.6878   25.0343 H   0  0  0  0  0  0
  -28.0738  -31.8453   26.5438 H   0  0  0  0  0  0
  -28.2603  -38.0097   24.7514 H   0  0  0  0  0  0
  -28.1068  -36.2631   24.6296 H   0  0  0  0  0  0
  -27.2297  -37.1456   25.8871 H   0  0  0  0  0  0
  -20.9397  -29.8799   21.6894 H   0  0  0  0  0  0
  -26.0169  -38.2850   24.1412 H   0  0  0  0  0  0
  -25.7989  -23.1865   20.4205 H   0  0  0  0  0  0
  -24.0348  -19.9531   20.1595 H   0  0  0  0  0  0
  -24.1750  -20.6005   18.5195 H   0  0  0  0  0  0
  -23.7559  -21.6699   19.8616 H   0  0  0  0  0  0
  -26.3652  -18.1392   19.5734 H   0  0  0  0  0  0
  -27.7078  -18.5763   18.4879 H   0  0  0  0  0  0
  -26.0675  -18.9677   18.0626 H   0  0  0  0  0  0
  -31.9041  -18.7395   20.7152 H   0  0  0  0  0  0
  -32.4846  -17.1026   20.5960 H   0  0  0  0  0  0
  -31.6149  -17.6179   22.0371 H   0  0  0  0  0  0
  -30.7860  -18.2994   18.3984 H   0  0  0  0  0  0
  -29.4948  -17.1066   18.2784 H   0  0  0  0  0  0
  -31.1694  -16.6107   18.4093 H   0  0  0  0  0  0
  -29.5324  -23.4341   19.8154 H   0  0  0  0  0  0
  -28.9978  -23.5620   21.4694 H   0  0  0  0  0  0
  -28.2618  -18.0221   20.6176 H   0  0  0  0  0  0
  -29.2918  -18.5192   21.8485 H   0  0  0  0  0  0
  -29.7614  -19.9947   19.2042 H   0  0  0  0  0  0
  -30.0286  -20.5437   20.8196 H   0  0  0  0  0  0
  -26.9712  -24.8564   20.7144 H   0  0  0  0  0  0
  -27.5500  -24.7470   19.0506 H   0  0  0  0  0  0
  -28.9933  -15.7002   20.9661 H   0  0  0  0  0  0
  1 25  1  0  0  0
  1 30  2  0  0  0
  1 85  1  0  0  0
  2  3  1  0  0  0
  2 25  1  0  0  0
  2 86  1  0  0  0
  2 87  1  0  0  0
  3  4  1  0  0  0
  3 88  1  0  0  0
  3 89  1  0  0  0
  4  5  1  0  0  0
  4 90  1  0  0  0
  4 91  1  0  0  0
  5  6  1  0  0  0
  5 26  1  0  0  0
  5 92  1  0  0  0
  6 25  1  0  0  0
  6 93  1  0  0  0
  6 94  1  0  0  0
  7  8  2  0  0  0
  7 26  1  0  0  0
  7 29  1  0  0  0
  8  9  1  0  0  0
  8 22  1  0  0  0
  9 10  1  0  0  0
  9 27  2  0  0  0
 10 11  2  0  0  0
 10 15  1  0  0  0
 11 12  1  0  0  0
 11 95  1  0  0  0
 12 13  2  0  0  0
 12 96  1  0  0  0
 13 14  1  0  0  0
 13 31  1  0  0  0
 14 15  2  0  0  0
 14 97  1  0  0  0
 15 98  1  0  0  0
 16 17  2  0  0  0
 16 21  1  0  0  0
 16 31  1  0  0  0
 17 18  1  0  0  0
 17 99  1  0  0  0
 18 19  2  0  0  0
 18100  1  0  0  0
 19 20  1  0  0  0
 19 24  1  0  0  0
 20 21  2  0  0  0
 20101  1  0  0  0
 21 23  1  0  0  0
 22 28  1  0  0  0
 22 32  2  0  0  0
 26 27  1  0  0  0
 28102  1  0  0  0
 28103  1  0  0  0
 29104  1  0  0  0
 29105  1  0  0  0
 33 34  1  0  0  0
 33 66  1  0  0  0
 33 70  2  0  0  0
 34 36  1  0  0  0
 34 59  1  0  0  0
 34106  1  0  0  0
 35 44  2  0  0  0
 35 45  1  0  0  0
 35 68  1  0  0  0
 36 56  1  0  0  0
 36107  1  0  0  0
 37 39  1  0  0  0
 37 47  1  0  0  0
 37 66  1  0  0  0
 37108  1  0  0  0
 38 43  2  0  0  0
 38 46  1  0  0  0
 38 47  1  0  0  0
 39 64  1  0  0  0
 39 67  2  0  0  0
 40 52  1  0  0  0
 40 53  2  0  0  0
 40 58  1  0  0  0
 41109  1  0  0  0
 41110  1  0  0  0
 41111  1  0  0  0
 41 48  1  0  0  0
 42 43  1  0  0  0
 42 66  1  0  0  0
 42112  1  0  0  0
 42113  1  0  0  0
 43 44  1  0  0  0
 44114  1  0  0  0
 45 46  2  0  0  0
 45115  1  0  0  0
 46116  1  0  0  0
 47117  1  0  0  0
 47118  1  0  0  0
 48 56  1  0  0  0
 48 65  1  0  0  0
 48119  1  0  0  0
 49 50  1  0  0  0
 49 53  1  0  0  0
 49 64  1  0  0  0
 49120  1  0  0  0
 50 51  1  0  0  0
 50121  1  0  0  0
 50122  1  0  0  0
 51 52  1  0  0  0
 51123  1  0  0  0
 51124  1  0  0  0
 52125  1  0  0  0
 52126  1  0  0  0
 53 54  1  0  0  0
 54 55  2  0  0  0
 54127  1  0  0  0
 55 57  1  0  0  0
 55128  1  0  0  0
 56 69  2  0  0  0
 57 58  2  0  0  0
 57129  1  0  0  0
 58130  1  0  0  0
 59 60  1  0  0  0
 59 61  1  0  0  0
 59 62  1  0  0  0
 60131  1  0  0  0
 60132  1  0  0  0
 60133  1  0  0  0
 61134  1  0  0  0
 61135  1  0  0  0
 61136  1  0  0  0
 62137  1  0  0  0
 62138  1  0  0  0
 62139  1  0  0  0
 63 65  1  0  0  0
 63140  1  0  0  0
 63141  1  0  0  0
 63142  1  0  0  0
 64143  1  0  0  0
 65144  1  0  0  0
 68 82  1  0  0  0
 71 72  1  0  0  0
 71 73  2  0  0  0
 71145  1  0  0  0
 72 74  2  0  0  0
 72 75  1  0  0  0
 73 79  1  0  0  0
 73 84  1  0  0  0
 74 76  1  0  0  0
 74 84  1  0  0  0
 75146  1  0  0  0
 75147  1  0  0  0
 75148  1  0  0  0
 76149  1  0  0  0
 76150  1  0  0  0
 76151  1  0  0  0
 77152  1  0  0  0
 77153  1  0  0  0
 77154  1  0  0  0
 77 83  1  0  0  0
 78 83  1  0  0  0
 78155  1  0  0  0
 78156  1  0  0  0
 78157  1  0  0  0
 79 82  1  0  0  0
 79158  1  0  0  0
 79159  1  0  0  0
 80 81  1  0  0  0
 80 83  1  0  0  0
 80160  1  0  0  0
 80161  1  0  0  0
 81 84  1  0  0  0
 81162  1  0  0  0
 81163  1  0  0  0
 82164  1  0  0  0
 82165  1  0  0  0
 83 85  1  0  0  0
 85166  1  0  0  0
M  ISO  4   1 100  68 101  82 101  85 100
M  END
> <chiral flag>
0

> <version>
0

> <s_m_source_file>
/data/baiqing/PycharmProjects/Reinvent-master-3.2/result/LINK_invent/BTK/process_docking_weight1_custom_sum_contain_oxygen_bond_distance_aromatic_linkinvent_7_9_3/rearranged_h_0110.sdf

> <i_m_source_file_index>
4

> <r_mmod_Potential_Energy-OPLS-2005>
235.619934082031

> <r_mmod_Stretch_Energy-OPLS-2005>
135.495803833008

> <r_mmod_Bend_Energy-OPLS-2005>
209.336608886719

> <r_mmod_Torsional_Energy-OPLS-2005>
243.320449829102

> <r_mmod_Improper_Torsional_Energy-OPLS-2005>
6.78308868408203

> <r_mmod_Van_der_Waal_Energy-OPLS-2005>
142.108245849609

> <r_mmod_Electrostatic_Energy-OPLS-2005>
-370.107879638672

> <r_mmod_Solvation_Energy-OPLS-2005>
-207.168579101562

> <b_mmod_Minimization_Converged-OPLS-2005>
0

> <r_mmod_RMS_Derivative-OPLS-2005>
1.28366839885712

$$$$
4
                    3D
 Structure written by MMmdl.
171179  0  0  1  0            999 V2000
  -30.6267  -14.7293   20.4389 C   0  0  0  0  0  0
  -30.4252  -12.4371   19.4841 C   0  0  0  0  0  0
  -29.5127  -12.5009   18.2407 C   0  0  0  0  0  0
  -28.0380  -12.3282   18.6522 C   0  0  0  0  0  0
  -27.6421  -13.2323   19.8507 C   0  0  2  0  0  0
  -28.6842  -13.1714   20.9890 C   0  0  0  0  0  0
  -25.2511  -13.8203   20.5684 C   0  0  0  0  0  0
  -24.1801  -13.0441   20.9191 C   0  0  0  0  0  0
  -24.6399  -11.6921   20.8744 C   0  0  0  0  0  0
  -23.9082  -10.4295   21.0409 C   0  0  0  0  0  0
  -24.3629   -9.4209   21.9187 C   0  0  0  0  0  0
  -23.6297   -8.2249   22.0761 C   0  0  0  0  0  0
  -22.4280   -8.0290   21.3552 C   0  0  0  0  0  0
  -21.9918   -9.0262   20.4643 C   0  0  0  0  0  0
  -22.7260  -10.2137   20.3049 C   0  0  0  0  0  0
  -21.6851   -6.0742   22.5281 C   0  0  0  0  0  0
  -21.4018   -6.5641   23.8213 C   0  0  0  0  0  0
  -21.3662   -5.6795   24.9176 C   0  0  0  0  0  0
  -21.6040   -4.3056   24.7222 C   0  0  0  0  0  0
  -21.8821   -3.8152   23.4345 C   0  0  0  0  0  0
  -21.9194   -4.6969   22.3399 C   0  0  0  0  0  0
  -22.7819  -13.5221   21.1842 C   0  0  0  0  0  0
  -22.1660   -4.2160   21.0975 F   0  0  0  0  0  0
  -21.5629   -3.4532   25.7735 F   0  0  0  0  0  0
  -29.9874  -13.5111   20.4066 N   0  0  0  0  0  0
  -26.2936  -12.9408   20.3276 N   0  0  0  0  0  0
  -25.9323  -11.6552   20.5746 N   0  0  0  0  0  0
  -22.0467  -12.8217   22.0406 N   0  0  0  0  0  0
  -25.4196  -15.1922   20.4107 N   0  0  0  0  0  0
  -31.8151  -14.7999   20.1122 O   0  0  0  0  0  0
  -21.6642   -6.8886   21.4243 O   0  0  0  0  0  0
  -22.3505  -14.5531   20.6704 O   0  0  0  0  0  0
  -24.6307  -31.8546   23.1931 C   0  0  0  0  0  0
  -25.9122  -32.4736   23.8307 C   0  0  1  0  0  0
  -27.2249  -27.2630   20.1411 C   0  0  0  0  0  0
  -25.5916  -33.8534   24.2248 N   0  0  0  0  0  0
  -23.4286  -30.4725   21.5377 C   0  0  2  0  0  0
  -24.8748  -28.9056   20.1219 C   0  0  0  0  0  0
  -22.7512  -29.4562   22.4893 C   0  0  0  0  0  0
  -18.0286  -28.1377   22.8439 C   0  0  0  0  0  0
  -24.1491  -36.7292   23.2641 C   0  0  0  0  0  0
  -25.9708  -30.7695   21.3708 C   0  0  0  0  0  0
  -26.0458  -29.3860   20.7250 C   0  0  0  0  0  0
  -27.2262  -28.5775   20.7172 C   0  0  0  0  0  0
  -26.0318  -26.8379   19.5252 C   0  0  0  0  0  0
  -24.8722  -27.6391   19.5141 C   0  0  0  0  0  0
  -23.6485  -29.7972   20.1579 C   0  0  0  0  0  0
  -25.4120  -36.3063   24.0330 C   0  0  1  0  0  0
  -20.5892  -28.3670   23.1258 C   0  0  2  0  0  0
  -20.6771  -26.9391   22.5405 C   0  0  0  0  0  0
  -19.5769  -26.6375   21.5186 C   0  0  0  0  0  0
  -18.1940  -26.7914   22.1589 C   0  0  0  0  0  0
  -19.1536  -28.8840   23.2827 C   0  0  0  0  0  0
  -18.9476  -30.1449   23.8846 C   0  0  0  0  0  0
  -17.6475  -30.6570   24.0551 C   0  0  0  0  0  0
  -25.9054  -34.9420   23.5100 C   0  0  0  0  0  0
  -16.5358  -29.9076   23.6327 C   0  0  0  0  0  0
  -16.7271  -28.6500   23.0330 C   0  0  0  0  0  0
  -26.4474  -31.6571   25.0705 C   0  0  0  0  0  0
  -25.3682  -31.3730   26.1432 C   0  0  0  0  0  0
  -27.0329  -30.3004   24.6150 C   0  0  0  0  0  0
  -27.6028  -32.4311   25.7477 C   0  0  0  0  0  0
  -27.5579  -37.1802   24.8461 C   0  0  0  0  0  0
  -21.4218  -29.3022   22.3649 N   0  0  0  0  0  0
  -26.4289  -37.3770   23.9402 N   0  0  0  0  0  0
  -24.6952  -31.0526   22.0900 N   0  0  0  0  0  0
  -23.4239  -28.8089   23.2963 O   0  0  0  0  0  0
  -28.3596  -26.4317   20.0679 O   0  0  0  0  0  0
  -26.5639  -34.8904   22.4680 O   0  0  0  0  0  0
  -23.5464  -32.1352   23.7245 O   0  0  0  0  0  0
  -29.9630  -19.9338   19.9770 C   0  0  0  0  0  0
  -28.4349  -20.1708   21.4494 C   0  0  0  0  0  0
  -29.6493  -18.6458   20.4469 C   0  0  0  0  0  0
  -25.0980  -20.7424   20.5520 C   0  0  0  0  0  0
  -23.7700  -22.4554   21.8399 C   0  0  0  0  0  0
  -30.8595  -22.7665   20.1837 C   0  0  0  0  0  0
  -28.0065  -25.2738   22.2537 C   0  0  0  0  0  0
  -30.3658  -17.2703   20.1292 C   0  0  0  0  0  0
  -26.1053  -23.0490   21.0507 C   0  0  0  0  0  0
  -24.8240  -22.2446   20.7392 C   0  0  0  0  0  0
  -29.4444  -22.4709   20.7281 C   0  0  1  0  0  0
  -28.4222  -23.6152   20.1456 C   0  0  2  0  0  0
  -28.5032  -25.1284   20.8015 C   0  0  1  0  0  0
  -28.6252  -18.8367   21.3788 N   0  0  0  0  0  0
  -29.2246  -20.9417   20.6681 N   0  0  0  0  0  0
  -29.8907  -15.8944   20.5802 N   0  0  0  0  0  0
  -27.0473  -23.0924   19.9101 N   0  3  0  0  0  0
  -31.4716  -12.5366   19.1908 H   0  0  0  0  0  0
  -30.3478  -11.4631   19.9700 H   0  0  0  0  0  0
  -29.7957  -11.7302   17.5236 H   0  0  0  0  0  0
  -29.6450  -13.4569   17.7323 H   0  0  0  0  0  0
  -27.8957  -11.2801   18.9197 H   0  0  0  0  0  0
  -27.3823  -12.5166   17.8021 H   0  0  0  0  0  0
  -27.6352  -14.2533   19.4679 H   0  0  0  0  0  0
  -28.7115  -12.1755   21.4348 H   0  0  0  0  0  0
  -28.4231  -13.8605   21.7930 H   0  0  0  0  0  0
  -25.2774   -9.5684   22.4759 H   0  0  0  0  0  0
  -24.0006   -7.4640   22.7477 H   0  0  0  0  0  0
  -21.0856   -8.8788   19.8937 H   0  0  0  0  0  0
  -22.3732  -10.9678   19.6152 H   0  0  0  0  0  0
  -21.2018   -7.6147   23.9727 H   0  0  0  0  0  0
  -21.1477   -6.0514   25.9082 H   0  0  0  0  0  0
  -22.0598   -2.7609   23.2836 H   0  0  0  0  0  0
  -22.4088  -11.9881   22.4796 H   0  0  0  0  0  0
  -21.1071  -13.1236   22.2586 H   0  0  0  0  0  0
  -24.6540  -15.8456   20.5301 H   0  0  0  0  0  0
  -26.2718  -15.6378   20.0984 H   0  0  0  0  0  0
  -26.7195  -32.5399   23.1048 H   0  0  0  0  0  0
  -25.0039  -33.9643   25.0382 H   0  0  0  0  0  0
  -22.7239  -31.2928   21.3840 H   0  0  0  0  0  0
  -23.3743  -35.9637   23.3300 H   0  0  0  0  0  0
  -24.3590  -36.8930   22.2060 H   0  0  0  0  0  0
  -23.7264  -37.6491   23.6677 H   0  0  0  0  0  0
  -26.1047  -31.5276   20.5978 H   0  0  0  0  0  0
  -26.8494  -30.8272   22.0017 H   0  0  0  0  0  0
  -28.1347  -28.9483   21.1705 H   0  0  0  0  0  0
  -25.9956  -25.8765   19.0368 H   0  0  0  0  0  0
  -23.9762  -27.2672   19.0342 H   0  0  0  0  0  0
  -23.7823  -30.5700   19.4000 H   0  0  0  0  0  0
  -22.7652  -29.2343   19.8514 H   0  0  0  0  0  0
  -25.1300  -36.1919   25.0825 H   0  0  0  0  0  0
  -20.9948  -28.3244   24.1384 H   0  0  0  0  0  0
  -20.5676  -26.2260   23.3599 H   0  0  0  0  0  0
  -21.6640  -26.7423   22.1207 H   0  0  0  0  0  0
  -19.6935  -25.6286   21.1229 H   0  0  0  0  0  0
  -19.6725  -27.3160   20.6702 H   0  0  0  0  0  0
  -17.4212  -26.6632   21.3991 H   0  0  0  0  0  0
  -18.0343  -26.0069   22.9002 H   0  0  0  0  0  0
  -19.7969  -30.7250   24.2209 H   0  0  0  0  0  0
  -17.5051  -31.6249   24.5155 H   0  0  0  0  0  0
  -15.5359  -30.2965   23.7703 H   0  0  0  0  0  0
  -15.8673  -28.0838   22.7040 H   0  0  0  0  0  0
  -24.5880  -30.7048   25.7779 H   0  0  0  0  0  0
  -24.8816  -32.2875   26.4821 H   0  0  0  0  0  0
  -25.8009  -30.8966   27.0245 H   0  0  0  0  0  0
  -26.2917  -29.6724   24.1186 H   0  0  0  0  0  0
  -27.4039  -29.7287   25.4659 H   0  0  0  0  0  0
  -27.8758  -30.4295   23.9370 H   0  0  0  0  0  0
  -27.2657  -33.3640   26.2017 H   0  0  0  0  0  0
  -28.3853  -32.6820   25.0309 H   0  0  0  0  0  0
  -28.0651  -31.8445   26.5420 H   0  0  0  0  0  0
  -28.2585  -38.0110   24.7511 H   0  0  0  0  0  0
  -28.1100  -36.2635   24.6301 H   0  0  0  0  0  0
  -27.2292  -37.1455   25.8865 H   0  0  0  0  0  0
  -20.9408  -29.8792   21.6887 H   0  0  0  0  0  0
  -26.0176  -38.2850   24.1423 H   0  0  0  0  0  0
  -30.7351  -20.2075   19.2705 H   0  0  0  0  0  0
  -27.7616  -20.6017   22.1765 H   0  0  0  0  0  0
  -24.1855  -20.2086   20.2846 H   0  0  0  0  0  0
  -25.4815  -20.2876   21.4656 H   0  0  0  0  0  0
  -25.8163  -20.5570   19.7541 H   0  0  0  0  0  0
  -22.8549  -21.9017   21.6317 H   0  0  0  0  0  0
  -23.5007  -23.5081   21.9275 H   0  0  0  0  0  0
  -24.1330  -22.1268   22.8143 H   0  0  0  0  0  0
  -31.1728  -23.7929   20.3676 H   0  0  0  0  0  0
  -30.9078  -22.6081   19.1055 H   0  0  0  0  0  0
  -31.6102  -22.1263   20.6486 H   0  0  0  0  0  0
  -28.1735  -24.3681   22.8351 H   0  0  0  0  0  0
  -26.9526  -25.5340   22.3181 H   0  0  0  0  0  0
  -28.5433  -26.0799   22.7550 H   0  0  0  0  0  0
  -31.3935  -17.3652   20.4859 H   0  0  0  0  0  0
  -30.4683  -17.1968   19.0453 H   0  0  0  0  0  0
  -26.5964  -22.6528   21.9404 H   0  0  0  0  0  0
  -25.8028  -24.0695   21.2722 H   0  0  0  0  0  0
  -24.3952  -22.6297   19.8114 H   0  0  0  0  0  0
  -29.4990  -22.6695   21.7989 H   0  0  0  0  0  0
  -28.7640  -23.7697   19.1215 H   0  0  0  0  0  0
  -29.5807  -25.1953   20.9508 H   0  0  0  0  0  0
  -28.9181  -15.8127   20.8320 H   0  0  0  0  0  0
  -26.6279  -23.6491   19.1823 H   0  0  0  0  0  0
  -27.1347  -22.1633   19.5298 H   0  0  0  0  0  0
  1 25  1  0  0  0
  1 30  2  0  0  0
  1 86  1  0  0  0
  2  3  1  0  0  0
  2 25  1  0  0  0
  2 88  1  0  0  0
  2 89  1  0  0  0
  3  4  1  0  0  0
  3 90  1  0  0  0
  3 91  1  0  0  0
  4  5  1  0  0  0
  4 92  1  0  0  0
  4 93  1  0  0  0
  5  6  1  0  0  0
  5 26  1  0  0  0
  5 94  1  0  0  0
  6 25  1  0  0  0
  6 95  1  0  0  0
  6 96  1  0  0  0
  7  8  2  0  0  0
  7 26  1  0  0  0
  7 29  1  0  0  0
  8  9  1  0  0  0
  8 22  1  0  0  0
  9 10  1  0  0  0
  9 27  2  0  0  0
 10 11  2  0  0  0
 10 15  1  0  0  0
 11 12  1  0  0  0
 11 97  1  0  0  0
 12 13  2  0  0  0
 12 98  1  0  0  0
 13 14  1  0  0  0
 13 31  1  0  0  0
 14 15  2  0  0  0
 14 99  1  0  0  0
 15100  1  0  0  0
 16 17  2  0  0  0
 16 21  1  0  0  0
 16 31  1  0  0  0
 17 18  1  0  0  0
 17101  1  0  0  0
 18 19  2  0  0  0
 18102  1  0  0  0
 19 20  1  0  0  0
 19 24  1  0  0  0
 20 21  2  0  0  0
 20103  1  0  0  0
 21 23  1  0  0  0
 22 28  1  0  0  0
 22 32  2  0  0  0
 26 27  1  0  0  0
 28104  1  0  0  0
 28105  1  0  0  0
 29106  1  0  0  0
 29107  1  0  0  0
 33 34  1  0  0  0
 33 66  1  0  0  0
 33 70  2  0  0  0
 34 36  1  0  0  0
 34 59  1  0  0  0
 34108  1  0  0  0
 35 44  2  0  0  0
 35 45  1  0  0  0
 35 68  1  0  0  0
 36 56  1  0  0  0
 36109  1  0  0  0
 37 39  1  0  0  0
 37 47  1  0  0  0
 37 66  1  0  0  0
 37110  1  0  0  0
 38 43  2  0  0  0
 38 46  1  0  0  0
 38 47  1  0  0  0
 39 64  1  0  0  0
 39 67  2  0  0  0
 40 52  1  0  0  0
 40 53  2  0  0  0
 40 58  1  0  0  0
 41111  1  0  0  0
 41112  1  0  0  0
 41113  1  0  0  0
 41 48  1  0  0  0
 42 43  1  0  0  0
 42 66  1  0  0  0
 42114  1  0  0  0
 42115  1  0  0  0
 43 44  1  0  0  0
 44116  1  0  0  0
 45 46  2  0  0  0
 45117  1  0  0  0
 46118  1  0  0  0
 47119  1  0  0  0
 47120  1  0  0  0
 48 56  1  0  0  0
 48 65  1  0  0  0
 48121  1  0  0  0
 49 50  1  0  0  0
 49 53  1  0  0  0
 49 64  1  0  0  0
 49122  1  0  0  0
 50 51  1  0  0  0
 50123  1  0  0  0
 50124  1  0  0  0
 51 52  1  0  0  0
 51125  1  0  0  0
 51126  1  0  0  0
 52127  1  0  0  0
 52128  1  0  0  0
 53 54  1  0  0  0
 54 55  2  0  0  0
 54129  1  0  0  0
 55 57  1  0  0  0
 55130  1  0  0  0
 56 69  2  0  0  0
 57 58  2  0  0  0
 57131  1  0  0  0
 58132  1  0  0  0
 59 60  1  0  0  0
 59 61  1  0  0  0
 59 62  1  0  0  0
 60133  1  0  0  0
 60134  1  0  0  0
 60135  1  0  0  0
 61136  1  0  0  0
 61137  1  0  0  0
 61138  1  0  0  0
 62139  1  0  0  0
 62140  1  0  0  0
 62141  1  0  0  0
 63 65  1  0  0  0
 63142  1  0  0  0
 63143  1  0  0  0
 63144  1  0  0  0
 64145  1  0  0  0
 65146  1  0  0  0
 68 83  1  0  0  0
 71 73  2  0  0  0
 71 85  1  0  0  0
 71147  1  0  0  0
 72 84  2  0  0  0
 72 85  1  0  0  0
 72148  1  0  0  0
 73 78  1  0  0  0
 73 84  1  0  0  0
 74149  1  0  0  0
 74150  1  0  0  0
 74151  1  0  0  0
 74 80  1  0  0  0
 75 80  1  0  0  0
 75152  1  0  0  0
 75153  1  0  0  0
 75154  1  0  0  0
 76155  1  0  0  0
 76156  1  0  0  0
 76157  1  0  0  0
 76 81  1  0  0  0
 77158  1  0  0  0
 77159  1  0  0  0
 77160  1  0  0  0
 77 83  1  0  0  0
 78 86  1  0  0  0
 78161  1  0  0  0
 78162  1  0  0  0
 79 80  1  0  0  0
 79 87  1  0  0  0
 79163  1  0  0  0
 79164  1  0  0  0
 80165  1  0  0  0
 81 82  1  0  0  0
 81 85  1  0  0  0
 81166  1  0  0  0
 82 83  1  0  0  0
 82 87  1  0  0  0
 82167  1  0  0  0
 83168  1  0  0  0
 86169  1  0  0  0
 87170  1  0  0  0
 87171  1  0  0  0
M  CHG  1  87   1
M  ISO  4   1 100  68 101  83 101  86 100
M  END
> <chiral flag>
0

> <version>
0

> <s_m_source_file>
/data/baiqing/PycharmProjects/Reinvent-master-3.2/result/LINK_invent/BTK/process_docking_weight1_custom_sum_contain_oxygen_bond_distance_aromatic_linkinvent_7_9_3/rearranged_h_0110.sdf

> <i_m_source_file_index>
5

> <r_mmod_Potential_Energy-OPLS-2005>
29.8085174560547

> <r_mmod_Stretch_Energy-OPLS-2005>
129.452819824219

> <r_mmod_Bend_Energy-OPLS-2005>
237.916702270508

> <r_mmod_Torsional_Energy-OPLS-2005>
301.724426269531

> <r_mmod_Improper_Torsional_Energy-OPLS-2005>
8.87744140625

> <r_mmod_Van_der_Waal_Energy-OPLS-2005>
101.07592010498

> <r_mmod_Electrostatic_Energy-OPLS-2005>
-368.4716796875

> <r_mmod_Solvation_Energy-OPLS-2005>
-456.259033203125

> <b_mmod_Minimization_Converged-OPLS-2005>
0

> <r_mmod_RMS_Derivative-OPLS-2005>
2.7863495349884

$$$$
5
                    3D
 Structure written by MMmdl.
166174  0  0  1  0            999 V2000
  -30.5285  -15.0211   20.4150 C   0  0  0  0  0  0
  -30.4357  -12.6417   19.5062 C   0  0  0  0  0  0
  -29.5232  -12.5376   18.2623 C   0  0  0  0  0  0
  -28.0610  -12.3067   18.6837 C   0  0  0  0  0  0
  -27.6224  -13.2546   19.8291 C   0  0  2  0  0  0
  -28.6607  -13.3267   20.9674 C   0  0  0  0  0  0
  -25.2429  -13.8191   20.5703 C   0  0  0  0  0  0
  -24.1762  -13.0418   20.9238 C   0  0  0  0  0  0
  -24.6397  -11.6915   20.8750 C   0  0  0  0  0  0
  -23.9084  -10.4289   21.0404 C   0  0  0  0  0  0
  -24.3629   -9.4203   21.9182 C   0  0  0  0  0  0
  -23.6298   -8.2240   22.0752 C   0  0  0  0  0  0
  -22.4283   -8.0274   21.3542 C   0  0  0  0  0  0
  -21.9920   -9.0256   20.4650 C   0  0  0  0  0  0
  -22.7256  -10.2133   20.3053 C   0  0  0  0  0  0
  -21.6861   -6.0727   22.5281 C   0  0  0  0  0  0
  -21.4016   -6.5632   23.8212 C   0  0  0  0  0  0
  -21.3665   -5.6782   24.9170 C   0  0  0  0  0  0
  -21.6055   -4.3047   24.7222 C   0  0  0  0  0  0
  -21.8820   -3.8140   23.4345 C   0  0  0  0  0  0
  -21.9192   -4.6954   22.3401 C   0  0  0  0  0  0
  -22.7786  -13.5192   21.1879 C   0  0  0  0  0  0
  -22.1652   -4.2138   21.0975 F   0  0  0  0  0  0
  -21.5634   -3.4530   25.7739 F   0  0  0  0  0  0
  -29.9266  -13.7580   20.3610 N   0  0  0  0  0  0
  -26.2849  -12.9450   20.3193 N   0  0  0  0  0  0
  -25.9322  -11.6576   20.5711 N   0  0  0  0  0  0
  -22.0422  -12.8197   22.0438 N   0  0  0  0  0  0
  -25.4085  -15.1898   20.4123 N   0  0  0  0  0  0
  -31.7392  -15.0500   20.1694 O   0  0  0  0  0  0
  -21.6645   -6.8875   21.4242 O   0  0  0  0  0  0
  -22.3470  -14.5488   20.6703 O   0  0  0  0  0  0
  -24.6494  -31.8401   23.1811 C   0  0  0  0  0  0
  -25.9246  -32.4665   23.8234 C   0  0  1  0  0  0
  -27.2179  -27.0803   20.1527 C   0  0  0  0  0  0
  -25.5969  -33.8476   24.2155 N   0  0  0  0  0  0
  -23.4545  -30.4564   21.5304 C   0  0  2  0  0  0
  -24.9028  -28.8731   20.1108 C   0  0  0  0  0  0
  -22.7603  -29.4511   22.4853 C   0  0  0  0  0  0
  -18.0313  -28.1395   22.8466 C   0  0  0  0  0  0
  -24.1502  -36.7241   23.2643 C   0  0  0  0  0  0
  -26.0148  -30.6960   21.3869 C   0  0  0  0  0  0
  -26.0838  -29.3016   20.7278 C   0  0  0  0  0  0
  -27.2394  -28.4233   20.7285 C   0  0  0  0  0  0
  -25.9989  -26.7625   19.5129 C   0  0  0  0  0  0
  -24.8766  -27.6187   19.4863 C   0  0  0  0  0  0
  -23.6826  -29.7828   20.1510 C   0  0  0  0  0  0
  -25.4134  -36.3010   24.0314 C   0  0  1  0  0  0
  -20.5928  -28.3720   23.1225 C   0  0  2  0  0  0
  -20.6794  -26.9421   22.5400 C   0  0  0  0  0  0
  -19.5767  -26.6374   21.5210 C   0  0  0  0  0  0
  -18.1948  -26.7930   22.1620 C   0  0  0  0  0  0
  -19.1572  -28.8880   23.2831 C   0  0  0  0  0  0
  -18.9483  -30.1477   23.8857 C   0  0  0  0  0  0
  -17.6477  -30.6590   24.0554 C   0  0  0  0  0  0
  -25.9091  -34.9391   23.5047 C   0  0  0  0  0  0
  -16.5368  -29.9080   23.6334 C   0  0  0  0  0  0
  -16.7296  -28.6500   23.0348 C   0  0  0  0  0  0
  -26.4527  -31.6552   25.0706 C   0  0  0  0  0  0
  -25.3674  -31.3769   26.1376 C   0  0  0  0  0  0
  -27.0408  -30.2943   24.6324 C   0  0  0  0  0  0
  -27.6054  -32.4322   25.7489 C   0  0  0  0  0  0
  -27.5581  -37.1776   24.8464 C   0  0  0  0  0  0
  -21.4289  -29.3042   22.3603 N   0  0  0  0  0  0
  -26.4287  -37.3731   23.9407 N   0  0  0  0  0  0
  -24.7265  -31.0202   22.0872 N   0  0  0  0  0  0
  -23.4230  -28.8084   23.3037 O   0  0  0  0  0  0
  -28.2737  -26.0774   20.2327 O   0  0  0  0  0  0
  -26.5686  -34.8891   22.4634 O   0  0  0  0  0  0
  -23.5598  -32.1317   23.6994 O   0  0  0  0  0  0
  -27.8076  -20.7387   19.9677 C   0  0  0  0  0  0
  -28.8951  -21.5630   20.4131 C   0  0  0  0  0  0
  -28.0970  -19.3717   19.9733 C   0  0  0  0  0  0
  -29.8511  -20.5244   20.6543 C   0  0  0  0  0  0
  -31.2481  -20.7197   21.1519 C   0  0  0  0  0  0
  -27.8954  -25.2051   17.3257 C   0  0  0  0  0  0
  -27.5938  -17.6262   18.2286 C   0  0  0  0  0  0
  -25.7133  -18.6283   19.5730 C   0  0  0  0  0  0
  -28.9255  -23.2389   20.6794 C   0  0  0  0  0  0
  -28.6583  -24.4112   18.3950 C   0  0  0  0  0  0
  -30.2637  -17.7699   20.5281 C   0  0  0  0  0  0
  -27.1999  -18.2302   19.5844 C   0  0  0  0  0  0
  -28.1678  -24.5367   19.8585 C   0  0  2  0  0  0
  -29.4106  -19.1444   20.4070 N   0  0  0  0  0  0
  -29.7830  -16.2440   20.5399 N   0  0  0  0  0  0
  -31.4675  -12.8065   19.1912 H   0  0  0  0  0  0
  -30.4411  -11.7029   20.0620 H   0  0  0  0  0  0
  -29.8590  -11.7291   17.6119 H   0  0  0  0  0  0
  -29.5960  -13.4555   17.6762 H   0  0  0  0  0  0
  -27.9754  -11.2700   19.0103 H   0  0  0  0  0  0
  -27.3968  -12.4104   17.8254 H   0  0  0  0  0  0
  -27.5717  -14.2466   19.3780 H   0  0  0  0  0  0
  -28.7663  -12.3645   21.4707 H   0  0  0  0  0  0
  -28.3444  -14.0436   21.7266 H   0  0  0  0  0  0
  -25.2773   -9.5674   22.4752 H   0  0  0  0  0  0
  -24.0006   -7.4632   22.7477 H   0  0  0  0  0  0
  -21.0844   -8.8788   19.8956 H   0  0  0  0  0  0
  -22.3725  -10.9666   19.6156 H   0  0  0  0  0  0
  -21.2010   -7.6138   23.9715 H   0  0  0  0  0  0
  -21.1484   -6.0504   25.9071 H   0  0  0  0  0  0
  -22.0597   -2.7597   23.2852 H   0  0  0  0  0  0
  -22.4027  -11.9875   22.4866 H   0  0  0  0  0  0
  -21.1039  -13.1234   22.2623 H   0  0  0  0  0  0
  -24.6332  -15.8337   20.5216 H   0  0  0  0  0  0
  -26.2359  -15.6223   20.0288 H   0  0  0  0  0  0
  -26.7316  -32.5245   23.0962 H   0  0  0  0  0  0
  -25.0068  -33.9570   25.0268 H   0  0  0  0  0  0
  -22.7585  -31.2831   21.3731 H   0  0  0  0  0  0
  -23.3771  -35.9565   23.3280 H   0  0  0  0  0  0
  -24.3584  -36.8904   22.2061 H   0  0  0  0  0  0
  -23.7250  -37.6425   23.6702 H   0  0  0  0  0  0
  -26.1779  -31.4494   20.6147 H   0  0  0  0  0  0
  -26.8819  -30.7438   22.0341 H   0  0  0  0  0  0
  -28.1386  -28.7528   21.2295 H   0  0  0  0  0  0
  -25.8691  -25.8005   19.0475 H   0  0  0  0  0  0
  -23.9734  -27.2812   18.9962 H   0  0  0  0  0  0
  -23.8214  -30.5573   19.3950 H   0  0  0  0  0  0
  -22.7953  -29.2282   19.8394 H   0  0  0  0  0  0
  -25.1323  -36.1821   25.0804 H   0  0  0  0  0  0
  -21.0000  -28.3305   24.1355 H   0  0  0  0  0  0
  -20.5687  -26.2335   23.3624 H   0  0  0  0  0  0
  -21.6657  -26.7422   22.1202 H   0  0  0  0  0  0
  -19.6926  -25.6277   21.1264 H   0  0  0  0  0  0
  -19.6706  -27.3164   20.6723 H   0  0  0  0  0  0
  -17.4218  -26.6672   21.4021 H   0  0  0  0  0  0
  -18.0347  -26.0085   22.9029 H   0  0  0  0  0  0
  -19.7957  -30.7307   24.2206 H   0  0  0  0  0  0
  -17.5025  -31.6261   24.5173 H   0  0  0  0  0  0
  -15.5362  -30.2967   23.7679 H   0  0  0  0  0  0
  -15.8696  -28.0813   22.7072 H   0  0  0  0  0  0
  -24.5851  -30.7130   25.7670 H   0  0  0  0  0  0
  -24.8862  -32.2963   26.4721 H   0  0  0  0  0  0
  -25.7913  -30.8971   27.0205 H   0  0  0  0  0  0
  -26.3044  -29.6640   24.1322 H   0  0  0  0  0  0
  -27.4001  -29.7267   25.4917 H   0  0  0  0  0  0
  -27.8953  -30.4182   23.9671 H   0  0  0  0  0  0
  -27.2652  -33.3644   26.2008 H   0  0  0  0  0  0
  -28.3882  -32.6847   25.0326 H   0  0  0  0  0  0
  -28.0699  -31.8485   26.5442 H   0  0  0  0  0  0
  -28.2580  -38.0088   24.7513 H   0  0  0  0  0  0
  -28.1093  -36.2620   24.6286 H   0  0  0  0  0  0
  -27.2300  -37.1407   25.8865 H   0  0  0  0  0  0
  -20.9522  -29.8752   21.6765 H   0  0  0  0  0  0
  -26.0154  -38.2797   24.1399 H   0  0  0  0  0  0
  -26.8415  -21.1317   19.6800 H   0  0  0  0  0  0
  -31.5124  -21.7757   21.2068 H   0  0  0  0  0  0
  -31.9707  -20.2359   20.4945 H   0  0  0  0  0  0
  -31.3697  -20.2984   22.1502 H   0  0  0  0  0  0
  -27.9404  -26.2772   17.5117 H   0  0  0  0  0  0
  -26.8495  -24.9048   17.2701 H   0  0  0  0  0  0
  -28.3292  -25.0305   16.3407 H   0  0  0  0  0  0
  -28.6301  -17.2903   18.2218 H   0  0  0  0  0  0
  -27.4826  -18.3573   17.4271 H   0  0  0  0  0  0
  -26.9700  -16.7655   17.9850 H   0  0  0  0  0  0
  -25.3971  -18.9977   20.5494 H   0  0  0  0  0  0
  -25.0758  -17.7799   19.3255 H   0  0  0  0  0  0
  -25.5095  -19.4082   18.8385 H   0  0  0  0  0  0
  -29.9840  -23.4962   20.6925 H   0  0  0  0  0  0
  -28.6179  -23.3430   21.7203 H   0  0  0  0  0  0
  -29.7112  -24.6907   18.3528 H   0  0  0  0  0  0
  -28.6232  -23.3597   18.1050 H   0  0  0  0  0  0
  -30.8418  -17.8693   21.4476 H   0  0  0  0  0  0
  -31.0122  -17.8264   19.7376 H   0  0  0  0  0  0
  -27.3045  -17.4531   20.3417 H   0  0  0  0  0  0
  -27.1113  -24.2790   19.8932 H   0  0  0  0  0  0
  -28.7951  -16.1173   20.6872 H   0  0  0  0  0  0
  1 25  1  0  0  0
  1 30  2  0  0  0
  1 85  1  0  0  0
  2  3  1  0  0  0
  2 25  1  0  0  0
  2 86  1  0  0  0
  2 87  1  0  0  0
  3  4  1  0  0  0
  3 88  1  0  0  0
  3 89  1  0  0  0
  4  5  1  0  0  0
  4 90  1  0  0  0
  4 91  1  0  0  0
  5  6  1  0  0  0
  5 26  1  0  0  0
  5 92  1  0  0  0
  6 25  1  0  0  0
  6 93  1  0  0  0
  6 94  1  0  0  0
  7  8  2  0  0  0
  7 26  1  0  0  0
  7 29  1  0  0  0
  8  9  1  0  0  0
  8 22  1  0  0  0
  9 10  1  0  0  0
  9 27  2  0  0  0
 10 11  2  0  0  0
 10 15  1  0  0  0
 11 12  1  0  0  0
 11 95  1  0  0  0
 12 13  2  0  0  0
 12 96  1  0  0  0
 13 14  1  0  0  0
 13 31  1  0  0  0
 14 15  2  0  0  0
 14 97  1  0  0  0
 15 98  1  0  0  0
 16 17  2  0  0  0
 16 21  1  0  0  0
 16 31  1  0  0  0
 17 18  1  0  0  0
 17 99  1  0  0  0
 18 19  2  0  0  0
 18100  1  0  0  0
 19 20  1  0  0  0
 19 24  1  0  0  0
 20 21  2  0  0  0
 20101  1  0  0  0
 21 23  1  0  0  0
 22 28  1  0  0  0
 22 32  2  0  0  0
 26 27  1  0  0  0
 28102  1  0  0  0
 28103  1  0  0  0
 29104  1  0  0  0
 29105  1  0  0  0
 33 34  1  0  0  0
 33 66  1  0  0  0
 33 70  2  0  0  0
 34 36  1  0  0  0
 34 59  1  0  0  0
 34106  1  0  0  0
 35 44  2  0  0  0
 35 45  1  0  0  0
 35 68  1  0  0  0
 36 56  1  0  0  0
 36107  1  0  0  0
 37 39  1  0  0  0
 37 47  1  0  0  0
 37 66  1  0  0  0
 37108  1  0  0  0
 38 43  2  0  0  0
 38 46  1  0  0  0
 38 47  1  0  0  0
 39 64  1  0  0  0
 39 67  2  0  0  0
 40 52  1  0  0  0
 40 53  2  0  0  0
 40 58  1  0  0  0
 41109  1  0  0  0
 41110  1  0  0  0
 41111  1  0  0  0
 41 48  1  0  0  0
 42 43  1  0  0  0
 42 66  1  0  0  0
 42112  1  0  0  0
 42113  1  0  0  0
 43 44  1  0  0  0
 44114  1  0  0  0
 45 46  2  0  0  0
 45115  1  0  0  0
 46116  1  0  0  0
 47117  1  0  0  0
 47118  1  0  0  0
 48 56  1  0  0  0
 48 65  1  0  0  0
 48119  1  0  0  0
 49 50  1  0  0  0
 49 53  1  0  0  0
 49 64  1  0  0  0
 49120  1  0  0  0
 50 51  1  0  0  0
 50121  1  0  0  0
 50122  1  0  0  0
 51 52  1  0  0  0
 51123  1  0  0  0
 51124  1  0  0  0
 52125  1  0  0  0
 52126  1  0  0  0
 53 54  1  0  0  0
 54 55  2  0  0  0
 54127  1  0  0  0
 55 57  1  0  0  0
 55128  1  0  0  0
 56 69  2  0  0  0
 57 58  2  0  0  0
 57129  1  0  0  0
 58130  1  0  0  0
 59 60  1  0  0  0
 59 61  1  0  0  0
 59 62  1  0  0  0
 60131  1  0  0  0
 60132  1  0  0  0
 60133  1  0  0  0
 61134  1  0  0  0
 61135  1  0  0  0
 61136  1  0  0  0
 62137  1  0  0  0
 62138  1  0  0  0
 62139  1  0  0  0
 63 65  1  0  0  0
 63140  1  0  0  0
 63141  1  0  0  0
 63142  1  0  0  0
 64143  1  0  0  0
 65144  1  0  0  0
 68 83  1  0  0  0
 71 72  1  0  0  0
 71 73  2  0  0  0
 71145  1  0  0  0
 72 74  2  0  0  0
 72 79  1  0  0  0
 73 82  1  0  0  0
 73 84  1  0  0  0
 74 75  1  0  0  0
 74 84  1  0  0  0
 75146  1  0  0  0
 75147  1  0  0  0
 75148  1  0  0  0
 76 80  1  0  0  0
 76149  1  0  0  0
 76150  1  0  0  0
 76151  1  0  0  0
 77152  1  0  0  0
 77153  1  0  0  0
 77154  1  0  0  0
 77 82  1  0  0  0
 78 82  1  0  0  0
 78155  1  0  0  0
 78156  1  0  0  0
 78157  1  0  0  0
 79158  1  0  0  0
 79159  1  0  0  0
 79 83  1  0  0  0
 80 83  1  0  0  0
 80160  1  0  0  0
 80161  1  0  0  0
 81 84  1  0  0  0
 81 85  1  0  0  0
 81162  1  0  0  0
 81163  1  0  0  0
 82164  1  0  0  0
 83165  1  0  0  0
 85166  1  0  0  0
M  ISO  4   1 100  68 101  83 101  85 100
M  END
> <chiral flag>
0

> <version>
0

> <s_m_source_file>
/data/baiqing/PycharmProjects/Reinvent-master-3.2/result/LINK_invent/BTK/process_docking_weight1_custom_sum_contain_oxygen_bond_distance_aromatic_linkinvent_7_9_3/rearranged_h_0110.sdf

> <i_m_source_file_index>
6

> <r_mmod_Potential_Energy-OPLS-2005>
548.786865234375

> <r_mmod_Stretch_Energy-OPLS-2005>
323.2080078125

> <r_mmod_Bend_Energy-OPLS-2005>
312.530242919922

> <r_mmod_Torsional_Energy-OPLS-2005>
212.849029541016

> <r_mmod_Improper_Torsional_Energy-OPLS-2005>
4.84754371643066

> <r_mmod_Van_der_Waal_Energy-OPLS-2005>
98.3771133422852

> <r_mmod_Electrostatic_Energy-OPLS-2005>
-446.217712402344

> <r_mmod_Solvation_Energy-OPLS-2005>
-201.387466430664

> <b_mmod_Minimization_Converged-OPLS-2005>
0

> <r_mmod_RMS_Derivative-OPLS-2005>
1.84642434120178

$$$$
6
                    3D
 Structure written by MMmdl.
165173  0  0  1  0            999 V2000
  -30.6629  -14.5805   20.4980 C   0  0  0  0  0  0
  -30.4358  -12.3548   19.4466 C   0  0  0  0  0  0
  -29.5096  -12.4911   18.2196 C   0  0  0  0  0  0
  -28.0304  -12.3428   18.6300 C   0  0  0  0  0  0
  -27.6570  -13.2137   19.8599 C   0  0  2  0  0  0
  -28.7011  -13.0638   20.9898 C   0  0  0  0  0  0
  -25.2592  -13.8162   20.5666 C   0  0  0  0  0  0
  -24.1852  -13.0430   20.9178 C   0  0  0  0  0  0
  -24.6411  -11.6911   20.8724 C   0  0  0  0  0  0
  -23.9069  -10.4295   21.0400 C   0  0  0  0  0  0
  -24.3624   -9.4221   21.9182 C   0  0  0  0  0  0
  -23.6303   -8.2250   22.0756 C   0  0  0  0  0  0
  -22.4283   -8.0280   21.3547 C   0  0  0  0  0  0
  -21.9917   -9.0254   20.4650 C   0  0  0  0  0  0
  -22.7242  -10.2133   20.3057 C   0  0  0  0  0  0
  -21.6854   -6.0744   22.5286 C   0  0  0  0  0  0
  -21.4012   -6.5645   23.8221 C   0  0  0  0  0  0
  -21.3659   -5.6798   24.9177 C   0  0  0  0  0  0
  -21.6038   -4.3060   24.7227 C   0  0  0  0  0  0
  -21.8824   -3.8156   23.4350 C   0  0  0  0  0  0
  -21.9193   -4.6972   22.3405 C   0  0  0  0  0  0
  -22.7881  -13.5244   21.1849 C   0  0  0  0  0  0
  -22.1666   -4.2162   21.0982 F   0  0  0  0  0  0
  -21.5626   -3.4538   25.7737 F   0  0  0  0  0  0
  -30.0225  -13.3772   20.4248 N   0  0  0  0  0  0
  -26.3022  -12.9347   20.3301 N   0  0  0  0  0  0
  -25.9336  -11.6505   20.5739 N   0  0  0  0  0  0
  -22.0507  -12.8225   22.0394 N   0  0  0  0  0  0
  -25.4297  -15.1879   20.4072 N   0  0  0  0  0  0
  -31.8289  -14.7237   20.1230 O   0  0  0  0  0  0
  -21.6637   -6.8885   21.4252 O   0  0  0  0  0  0
  -22.3564  -14.5552   20.6702 O   0  0  0  0  0  0
  -24.6235  -31.8650   23.2047 C   0  0  0  0  0  0
  -25.9094  -32.4813   23.8373 C   0  0  1  0  0  0
  -27.2256  -27.3626   20.1007 C   0  0  0  0  0  0
  -25.5923  -33.8614   24.2327 N   0  0  0  0  0  0
  -23.4158  -30.4913   21.5463 C   0  0  2  0  0  0
  -24.8593  -28.9519   20.1091 C   0  0  0  0  0  0
  -22.7482  -29.4661   22.4934 C   0  0  0  0  0  0
  -18.0301  -28.1380   22.8473 C   0  0  0  0  0  0
  -24.1506  -36.7301   23.2637 C   0  0  0  0  0  0
  -25.9550  -30.8063   21.3715 C   0  0  0  0  0  0
  -26.0261  -29.4384   20.7131 C   0  0  0  0  0  0
  -27.2105  -28.6521   20.7028 C   0  0  0  0  0  0
  -26.0365  -26.9223   19.4714 C   0  0  0  0  0  0
  -24.8622  -27.6962   19.4841 C   0  0  0  0  0  0
  -23.6276  -29.8309   20.1592 C   0  0  0  0  0  0
  -25.4123  -36.3113   24.0358 C   0  0  1  0  0  0
  -20.5901  -28.3696   23.1269 C   0  0  2  0  0  0
  -20.6807  -26.9430   22.5394 C   0  0  0  0  0  0
  -19.5787  -26.6380   21.5199 C   0  0  0  0  0  0
  -18.1955  -26.7924   22.1597 C   0  0  0  0  0  0
  -19.1550  -28.8853   23.2863 C   0  0  0  0  0  0
  -18.9475  -30.1444   23.8893 C   0  0  0  0  0  0
  -17.6474  -30.6576   24.0564 C   0  0  0  0  0  0
  -25.9056  -34.9475   23.5141 C   0  0  0  0  0  0
  -16.5363  -29.9088   23.6308 C   0  0  0  0  0  0
  -16.7286  -28.6500   23.0332 C   0  0  0  0  0  0
  -26.4493  -31.6594   25.0707 C   0  0  0  0  0  0
  -25.3729  -31.3701   26.1431 C   0  0  0  0  0  0
  -27.0340  -30.3038   24.6096 C   0  0  0  0  0  0
  -27.6065  -32.4307   25.7467 C   0  0  0  0  0  0
  -27.5604  -37.1812   24.8475 C   0  0  0  0  0  0
  -21.4198  -29.3059   22.3668 N   0  0  0  0  0  0
  -26.4321  -37.3799   23.9411 N   0  0  0  0  0  0
  -24.6830  -31.0712   22.0966 N   0  0  0  0  0  0
  -23.4221  -28.8183   23.2989 O   0  0  0  0  0  0
  -28.3630  -26.5526   20.1479 O   0  0  0  0  0  0
  -26.5625  -34.8946   22.4708 O   0  0  0  0  0  0
  -23.5400  -32.1410   23.7407 O   0  0  0  0  0  0
  -29.1559  -17.8369   19.7022 C   0  0  0  0  0  0
  -30.2711  -17.8806   21.9338 C   0  0  0  0  0  0
  -29.4428  -19.3636   19.5118 C   0  0  0  0  0  0
  -30.5554  -19.4011   21.7492 C   0  0  0  0  0  0
  -30.2015  -17.1079   20.5942 C   0  0  1  0  0  0
  -29.5337  -20.1549   20.8485 C   0  0  1  0  0  0
  -30.6394  -24.4778   19.8025 C   0  0  0  0  0  0
  -29.3715  -24.3566   21.9898 C   0  0  0  0  0  0
  -28.9213  -22.6073   20.1884 C   0  0  0  0  0  0
  -28.1916  -25.1165   19.9002 C   0  0  0  0  0  0
  -29.2878  -24.1321   20.4649 C   0  0  0  0  0  0
  -29.8850  -15.6584   20.7885 N   0  0  0  0  0  0
  -29.9250  -21.6062   20.6956 N   0  3  0  0  0  0
  -31.4800  -12.4641   19.1452 H   0  0  0  0  0  0
  -30.3559  -11.3603   19.8865 H   0  0  0  0  0  0
  -29.7661  -11.7389   17.4720 H   0  0  0  0  0  0
  -29.6659  -13.4613   17.7443 H   0  0  0  0  0  0
  -27.8572  -11.2896   18.8557 H   0  0  0  0  0  0
  -27.3809  -12.5819   17.7871 H   0  0  0  0  0  0
  -27.6781  -14.2494   19.5198 H   0  0  0  0  0  0
  -28.6983  -12.0474   21.3832 H   0  0  0  0  0  0
  -28.4607  -13.7131   21.8333 H   0  0  0  0  0  0
  -25.2773   -9.5685   22.4756 H   0  0  0  0  0  0
  -24.0012   -7.4636   22.7473 H   0  0  0  0  0  0
  -21.0850   -8.8777   19.8950 H   0  0  0  0  0  0
  -22.3712  -10.9673   19.6162 H   0  0  0  0  0  0
  -21.2007   -7.6154   23.9730 H   0  0  0  0  0  0
  -21.1470   -6.0521   25.9081 H   0  0  0  0  0  0
  -22.0602   -2.7620   23.2844 H   0  0  0  0  0  0
  -22.4117  -11.9876   22.4775 H   0  0  0  0  0  0
  -21.1128  -13.1265   22.2600 H   0  0  0  0  0  0
  -24.6590  -15.8400   20.5054 H   0  0  0  0  0  0
  -26.2756  -15.6261   20.0661 H   0  0  0  0  0  0
  -26.7183  -32.5491   23.1142 H   0  0  0  0  0  0
  -25.0081  -33.9755   25.0486 H   0  0  0  0  0  0
  -22.7048  -31.3088   21.4073 H   0  0  0  0  0  0
  -23.3782  -35.9613   23.3303 H   0  0  0  0  0  0
  -24.3614  -36.8896   22.2046 H   0  0  0  0  0  0
  -23.7248  -37.6506   23.6649 H   0  0  0  0  0  0
  -26.0938  -31.5708   20.6051 H   0  0  0  0  0  0
  -26.8343  -30.8455   22.0025 H   0  0  0  0  0  0
  -28.1092  -29.0181   21.1788 H   0  0  0  0  0  0
  -25.9823  -25.9701   18.9640 H   0  0  0  0  0  0
  -23.9703  -27.3186   19.0037 H   0  0  0  0  0  0
  -23.7474  -30.6116   19.4065 H   0  0  0  0  0  0
  -22.7452  -29.2635   19.8569 H   0  0  0  0  0  0
  -25.1305  -36.1979   25.0857 H   0  0  0  0  0  0
  -21.0012  -28.3291   24.1376 H   0  0  0  0  0  0
  -20.5743  -26.2314   23.3596 H   0  0  0  0  0  0
  -21.6672  -26.7484   22.1163 H   0  0  0  0  0  0
  -19.6965  -25.6290   21.1229 H   0  0  0  0  0  0
  -19.6723  -27.3184   20.6724 H   0  0  0  0  0  0
  -17.4234  -26.6662   21.3986 H   0  0  0  0  0  0
  -18.0351  -26.0071   22.8995 H   0  0  0  0  0  0
  -19.7958  -30.7250   24.2277 H   0  0  0  0  0  0
  -17.5036  -31.6256   24.5164 H   0  0  0  0  0  0
  -15.5372  -30.2989   23.7642 H   0  0  0  0  0  0
  -15.8683  -28.0832   22.7042 H   0  0  0  0  0  0
  -24.5919  -30.7036   25.7761 H   0  0  0  0  0  0
  -24.8883  -32.2845   26.4852 H   0  0  0  0  0  0
  -25.8035  -30.8881   27.0213 H   0  0  0  0  0  0
  -26.2891  -29.6778   24.1162 H   0  0  0  0  0  0
  -27.4145  -29.7290   25.4548 H   0  0  0  0  0  0
  -27.8726  -30.4372   23.9254 H   0  0  0  0  0  0
  -27.2714  -33.3628   26.2034 H   0  0  0  0  0  0
  -28.3873  -32.6825   25.0277 H   0  0  0  0  0  0
  -28.0746  -31.8421   26.5368 H   0  0  0  0  0  0
  -28.2624  -38.0110   24.7541 H   0  0  0  0  0  0
  -28.1115  -36.2645   24.6302 H   0  0  0  0  0  0
  -27.2331  -37.1452   25.8884 H   0  0  0  0  0  0
  -20.9380  -29.8804   21.6905 H   0  0  0  0  0  0
  -26.0217  -38.2890   24.1369 H   0  0  0  0  0  0
  -29.1168  -17.3546   18.7237 H   0  0  0  0  0  0
  -28.1625  -17.7145   20.1372 H   0  0  0  0  0  0
  -29.3354  -17.7551   22.4814 H   0  0  0  0  0  0
  -31.0541  -17.4499   22.5607 H   0  0  0  0  0  0
  -28.6646  -19.7961   18.8822 H   0  0  0  0  0  0
  -30.3755  -19.4774   18.9567 H   0  0  0  0  0  0
  -31.5565  -19.5159   21.3286 H   0  0  0  0  0  0
  -30.5901  -19.8722   22.7328 H   0  0  0  0  0  0
  -31.1730  -17.1926   20.1019 H   0  0  0  0  0  0
  -28.5600  -20.1209   21.3427 H   0  0  0  0  0  0
  -31.4719  -23.9421   20.2599 H   0  0  0  0  0  0
  -30.8613  -25.5432   19.8890 H   0  0  0  0  0  0
  -30.6343  -24.2330   18.7376 H   0  0  0  0  0  0
  -30.1207  -23.7193   22.4602 H   0  0  0  0  0  0
  -28.4137  -24.1454   22.4671 H   0  0  0  0  0  0
  -29.6331  -25.3872   22.2305 H   0  0  0  0  0  0
  -28.7929  -22.4464   19.1174 H   0  0  0  0  0  0
  -27.9492  -22.3921   20.6331 H   0  0  0  0  0  0
  -28.1075  -24.9686   18.8220 H   0  0  0  0  0  0
  -27.2438  -24.7874   20.3286 H   0  0  0  0  0  0
  -28.9370  -15.4382   21.0560 H   0  0  0  0  0  0
  -30.7542  -21.6651   20.1245 H   0  0  0  0  0  0
  -30.1809  -21.9201   21.6190 H   0  0  0  0  0  0
  1 25  1  0  0  0
  1 30  2  0  0  0
  1 82  1  0  0  0
  2  3  1  0  0  0
  2 25  1  0  0  0
  2 84  1  0  0  0
  2 85  1  0  0  0
  3  4  1  0  0  0
  3 86  1  0  0  0
  3 87  1  0  0  0
  4  5  1  0  0  0
  4 88  1  0  0  0
  4 89  1  0  0  0
  5  6  1  0  0  0
  5 26  1  0  0  0
  5 90  1  0  0  0
  6 25  1  0  0  0
  6 91  1  0  0  0
  6 92  1  0  0  0
  7  8  2  0  0  0
  7 26  1  0  0  0
  7 29  1  0  0  0
  8  9  1  0  0  0
  8 22  1  0  0  0
  9 10  1  0  0  0
  9 27  2  0  0  0
 10 11  2  0  0  0
 10 15  1  0  0  0
 11 12  1  0  0  0
 11 93  1  0  0  0
 12 13  2  0  0  0
 12 94  1  0  0  0
 13 14  1  0  0  0
 13 31  1  0  0  0
 14 15  2  0  0  0
 14 95  1  0  0  0
 15 96  1  0  0  0
 16 17  2  0  0  0
 16 21  1  0  0  0
 16 31  1  0  0  0
 17 18  1  0  0  0
 17 97  1  0  0  0
 18 19  2  0  0  0
 18 98  1  0  0  0
 19 20  1  0  0  0
 19 24  1  0  0  0
 20 21  2  0  0  0
 20 99  1  0  0  0
 21 23  1  0  0  0
 22 28  1  0  0  0
 22 32  2  0  0  0
 26 27  1  0  0  0
 28100  1  0  0  0
 28101  1  0  0  0
 29102  1  0  0  0
 29103  1  0  0  0
 33 34  1  0  0  0
 33 66  1  0  0  0
 33 70  2  0  0  0
 34 36  1  0  0  0
 34 59  1  0  0  0
 34104  1  0  0  0
 35 44  2  0  0  0
 35 45  1  0  0  0
 35 68  1  0  0  0
 36 56  1  0  0  0
 36105  1  0  0  0
 37 39  1  0  0  0
 37 47  1  0  0  0
 37 66  1  0  0  0
 37106  1  0  0  0
 38 43  2  0  0  0
 38 46  1  0  0  0
 38 47  1  0  0  0
 39 64  1  0  0  0
 39 67  2  0  0  0
 40 52  1  0  0  0
 40 53  2  0  0  0
 40 58  1  0  0  0
 41107  1  0  0  0
 41108  1  0  0  0
 41109  1  0  0  0
 41 48  1  0  0  0
 42 43  1  0  0  0
 42 66  1  0  0  0
 42110  1  0  0  0
 42111  1  0  0  0
 43 44  1  0  0  0
 44112  1  0  0  0
 45 46  2  0  0  0
 45113  1  0  0  0
 46114  1  0  0  0
 47115  1  0  0  0
 47116  1  0  0  0
 48 56  1  0  0  0
 48 65  1  0  0  0
 48117  1  0  0  0
 49 50  1  0  0  0
 49 53  1  0  0  0
 49 64  1  0  0  0
 49118  1  0  0  0
 50 51  1  0  0  0
 50119  1  0  0  0
 50120  1  0  0  0
 51 52  1  0  0  0
 51121  1  0  0  0
 51122  1  0  0  0
 52123  1  0  0  0
 52124  1  0  0  0
 53 54  1  0  0  0
 54 55  2  0  0  0
 54125  1  0  0  0
 55 57  1  0  0  0
 55126  1  0  0  0
 56 69  2  0  0  0
 57 58  2  0  0  0
 57127  1  0  0  0
 58128  1  0  0  0
 59 60  1  0  0  0
 59 61  1  0  0  0
 59 62  1  0  0  0
 60129  1  0  0  0
 60130  1  0  0  0
 60131  1  0  0  0
 61132  1  0  0  0
 61133  1  0  0  0
 61134  1  0  0  0
 62135  1  0  0  0
 62136  1  0  0  0
 62137  1  0  0  0
 63 65  1  0  0  0
 63138  1  0  0  0
 63139  1  0  0  0
 63140  1  0  0  0
 64141  1  0  0  0
 65142  1  0  0  0
 68 80  1  0  0  0
 71 73  1  0  0  0
 71 75  1  0  0  0
 71143  1  0  0  0
 71144  1  0  0  0
 72 74  1  0  0  0
 72 75  1  0  0  0
 72145  1  0  0  0
 72146  1  0  0  0
 73 76  1  0  0  0
 73147  1  0  0  0
 73148  1  0  0  0
 74 76  1  0  0  0
 74149  1  0  0  0
 74150  1  0  0  0
 75 82  1  0  0  0
 75151  1  0  0  0
 76 83  1  0  0  0
 76152  1  0  0  0
 77153  1  0  0  0
 77154  1  0  0  0
 77155  1  0  0  0
 77 81  1  0  0  0
 78 81  1  0  0  0
 78156  1  0  0  0
 78157  1  0  0  0
 78158  1  0  0  0
 79 81  1  0  0  0
 79 83  1  0  0  0
 79159  1  0  0  0
 79160  1  0  0  0
 80 81  1  0  0  0
 80161  1  0  0  0
 80162  1  0  0  0
 82163  1  0  0  0
 83164  1  0  0  0
 83165  1  0  0  0
M  CHG  1  83   1
M  ISO  4   1 100  68 101  80 101  82 100
M  END
> <chiral flag>
0

> <version>
0

> <s_m_source_file>
/data/baiqing/PycharmProjects/Reinvent-master-3.2/result/LINK_invent/BTK/process_docking_weight1_custom_sum_contain_oxygen_bond_distance_aromatic_linkinvent_7_9_3/rearranged_h_0110.sdf

> <i_m_source_file_index>
7

> <r_mmod_Potential_Energy-OPLS-2005>
-154.332382202148

> <r_mmod_Stretch_Energy-OPLS-2005>
60.1347007751465

> <r_mmod_Bend_Energy-OPLS-2005>
118.377510070801

> <r_mmod_Torsional_Energy-OPLS-2005>
238.698257446289

> <r_mmod_Improper_Torsional_Energy-OPLS-2005>
5.21070289611816

> <r_mmod_Van_der_Waal_Energy-OPLS-2005>
129.828979492188

> <r_mmod_Electrostatic_Energy-OPLS-2005>
-283.893646240234

> <r_mmod_Solvation_Energy-OPLS-2005>
-455.818939208984

> <b_mmod_Minimization_Converged-OPLS-2005>
0

> <r_mmod_RMS_Derivative-OPLS-2005>
2.92747092247009

$$$$
7
                    3D
 Structure written by MMmdl.
152160  0  0  1  0            999 V2000
  -30.4746  -15.1995   20.3623 C   0  0  0  0  0  0
  -30.4347  -12.7573   19.5275 C   0  0  0  0  0  0
  -29.5338  -12.5700   18.2829 C   0  0  0  0  0  0
  -28.0778  -12.3089   18.7037 C   0  0  0  0  0  0
  -27.6150  -13.2738   19.8244 C   0  0  2  0  0  0
  -28.6489  -13.4272   20.9609 C   0  0  0  0  0  0
  -25.2406  -13.8252   20.5736 C   0  0  0  0  0  0
  -24.1752  -13.0441   20.9244 C   0  0  0  0  0  0
  -24.6406  -11.6938   20.8749 C   0  0  0  0  0  0
  -23.9099  -10.4297   21.0401 C   0  0  0  0  0  0
  -24.3639   -9.4210   21.9178 C   0  0  0  0  0  0
  -23.6307   -8.2249   22.0754 C   0  0  0  0  0  0
  -22.4291   -8.0285   21.3545 C   0  0  0  0  0  0
  -21.9930   -9.0261   20.4643 C   0  0  0  0  0  0
  -22.7268  -10.2136   20.3049 C   0  0  0  0  0  0
  -21.6862   -6.0739   22.5277 C   0  0  0  0  0  0
  -21.4021   -6.5641   23.8210 C   0  0  0  0  0  0
  -21.3662   -5.6792   24.9172 C   0  0  0  0  0  0
  -21.6047   -4.3055   24.7225 C   0  0  0  0  0  0
  -21.8818   -3.8146   23.4344 C   0  0  0  0  0  0
  -21.9197   -4.6965   22.3400 C   0  0  0  0  0  0
  -22.7772  -13.5194   21.1891 C   0  0  0  0  0  0
  -22.1664   -4.2147   21.0980 F   0  0  0  0  0  0
  -21.5628   -3.4539   25.7739 F   0  0  0  0  0  0
  -29.8936  -13.9052   20.3406 N   0  0  0  0  0  0
  -26.2829  -12.9524   20.3206 N   0  0  0  0  0  0
  -25.9340  -11.6629   20.5705 N   0  0  0  0  0  0
  -22.0430  -12.8174   22.0443 N   0  0  0  0  0  0
  -25.4055  -15.1990   20.4178 N   0  0  0  0  0  0
  -31.6897  -15.1895   20.1239 O   0  0  0  0  0  0
  -21.6650   -6.8884   21.4240 O   0  0  0  0  0  0
  -22.3449  -14.5493   20.6730 O   0  0  0  0  0  0
  -24.6595  -31.8283   23.1747 C   0  0  0  0  0  0
  -25.9295  -32.4613   23.8198 C   0  0  1  0  0  0
  -27.2127  -26.9657   20.1726 C   0  0  0  0  0  0
  -25.5980  -33.8428   24.2100 N   0  0  0  0  0  0
  -23.4718  -30.4425   21.5239 C   0  0  2  0  0  0
  -24.9244  -28.8418   20.1110 C   0  0  0  0  0  0
  -22.7652  -29.4462   22.4798 C   0  0  0  0  0  0
  -18.0321  -28.1404   22.8471 C   0  0  0  0  0  0
  -24.1494  -36.7216   23.2645 C   0  0  0  0  0  0
  -26.0402  -30.6469   21.4003 C   0  0  0  0  0  0
  -26.1085  -29.2415   20.7429 C   0  0  0  0  0  0
  -27.2491  -28.3234   20.7526 C   0  0  0  0  0  0
  -26.0009  -26.7178   19.4865 C   0  0  0  0  0  0
  -24.8939  -27.5991   19.4629 C   0  0  0  0  0  0
  -23.7086  -29.7640   20.1482 C   0  0  0  0  0  0
  -25.4135  -36.2982   24.0298 C   0  0  1  0  0  0
  -20.5942  -28.3748   23.1193 C   0  0  2  0  0  0
  -20.6796  -26.9432   22.5398 C   0  0  0  0  0  0
  -19.5768  -26.6375   21.5213 C   0  0  0  0  0  0
  -18.1953  -26.7937   22.1624 C   0  0  0  0  0  0
  -19.1580  -28.8897   23.2819 C   0  0  0  0  0  0
  -18.9490  -30.1489   23.8850 C   0  0  0  0  0  0
  -17.6483  -30.6595   24.0555 C   0  0  0  0  0  0
  -25.9097  -34.9363   23.5017 C   0  0  0  0  0  0
  -16.5375  -29.9081   23.6344 C   0  0  0  0  0  0
  -16.7303  -28.6501   23.0366 C   0  0  0  0  0  0
  -26.4554  -31.6543   25.0707 C   0  0  0  0  0  0
  -25.3694  -31.3790   26.1369 C   0  0  0  0  0  0
  -27.0447  -30.2913   24.6422 C   0  0  0  0  0  0
  -27.6051  -32.4346   25.7512 C   0  0  0  0  0  0
  -27.5573  -37.1764   24.8463 C   0  0  0  0  0  0
  -21.4326  -29.3042   22.3546 N   0  0  0  0  0  0
  -26.4282  -37.3714   23.9407 N   0  0  0  0  0  0
  -24.7453  -30.9978   22.0867 N   0  0  0  0  0  0
  -23.4216  -28.8022   23.3019 O   0  0  0  0  0  0
  -28.1959  -25.8547   20.2617 O   0  0  0  0  0  0
  -26.5702  -34.8889   22.4607 O   0  0  0  0  0  0
  -23.5671  -32.1238   23.6859 O   0  0  0  0  0  0
  -29.8894  -22.2706   20.3175 C   0  0  0  0  0  0
  -28.1382  -20.2071   20.1765 C   0  0  0  0  0  0
  -30.3366  -20.8546   20.3369 C   0  0  0  0  0  0
  -29.4836  -19.6593   20.2564 C   0  0  0  0  0  0
  -28.5226  -22.7178   20.2225 C   0  0  0  0  0  0
  -31.8400  -20.6458   20.4003 C   0  0  0  0  0  0
  -30.2754  -17.9611   18.4697 C   0  0  0  0  0  0
  -27.8064  -24.2934   20.0041 C   0  0  0  0  0  0
  -30.0949  -18.0350   19.9968 C   0  0  2  0  0  0
  -27.7186  -21.5700   20.1637 N   0  0  0  0  0  0
  -29.7348  -16.4778   20.4257 N   0  0  0  0  0  0
  -31.4619  -12.9338   19.2060 H   0  0  0  0  0  0
  -30.4695  -11.8417   20.1205 H   0  0  0  0  0  0
  -29.8995  -11.7493   17.6638 H   0  0  0  0  0  0
  -29.5815  -13.4674   17.6639 H   0  0  0  0  0  0
  -28.0164  -11.2788   19.0562 H   0  0  0  0  0  0
  -27.4138  -12.3768   17.8410 H   0  0  0  0  0  0
  -27.5380  -14.2472   19.3383 H   0  0  0  0  0  0
  -28.7962  -12.4884   21.4974 H   0  0  0  0  0  0
  -28.3008  -14.1562   21.6942 H   0  0  0  0  0  0
  -25.2781   -9.5686   22.4758 H   0  0  0  0  0  0
  -24.0011   -7.4645   22.7476 H   0  0  0  0  0  0
  -21.0862   -8.8783   19.8948 H   0  0  0  0  0  0
  -22.3724  -10.9675   19.6159 H   0  0  0  0  0  0
  -21.2016   -7.6147   23.9712 H   0  0  0  0  0  0
  -21.1486   -6.0523   25.9074 H   0  0  0  0  0  0
  -22.0594   -2.7606   23.2847 H   0  0  0  0  0  0
  -22.4071  -11.9853   22.4845 H   0  0  0  0  0  0
  -21.1035  -13.1172   22.2635 H   0  0  0  0  0  0
  -24.6363  -15.8496   20.5322 H   0  0  0  0  0  0
  -26.2447  -15.6384   20.0632 H   0  0  0  0  0  0
  -26.7362  -32.5162   23.0914 H   0  0  0  0  0  0
  -25.0090  -33.9518   25.0227 H   0  0  0  0  0  0
  -22.7826  -31.2730   21.3572 H   0  0  0  0  0  0
  -23.3768  -35.9533   23.3273 H   0  0  0  0  0  0
  -24.3571  -36.8898   22.2065 H   0  0  0  0  0  0
  -23.7236  -37.6390   23.6721 H   0  0  0  0  0  0
  -26.2169  -31.3911   20.6224 H   0  0  0  0  0  0
  -26.9017  -30.7016   22.0538 H   0  0  0  0  0  0
  -28.1436  -28.6245   21.2795 H   0  0  0  0  0  0
  -25.8599  -25.7736   18.9840 H   0  0  0  0  0  0
  -23.9941  -27.2886   18.9495 H   0  0  0  0  0  0
  -23.8592  -30.5342   19.3909 H   0  0  0  0  0  0
  -22.8198  -29.2153   19.8324 H   0  0  0  0  0  0
  -25.1329  -36.1785   25.0788 H   0  0  0  0  0  0
  -21.0033  -28.3353   24.1317 H   0  0  0  0  0  0
  -20.5684  -26.2366   23.3638 H   0  0  0  0  0  0
  -21.6660  -26.7413   22.1202 H   0  0  0  0  0  0
  -19.6927  -25.6275   21.1273 H   0  0  0  0  0  0
  -19.6705  -27.3163   20.6726 H   0  0  0  0  0  0
  -17.4219  -26.6685   21.4027 H   0  0  0  0  0  0
  -18.0346  -26.0089   22.9029 H   0  0  0  0  0  0
  -19.7967  -30.7321   24.2196 H   0  0  0  0  0  0
  -17.5033  -31.6270   24.5164 H   0  0  0  0  0  0
  -15.5371  -30.2966   23.7692 H   0  0  0  0  0  0
  -15.8704  -28.0799   22.7108 H   0  0  0  0  0  0
  -24.5866  -30.7152   25.7674 H   0  0  0  0  0  0
  -24.8894  -32.2994   26.4702 H   0  0  0  0  0  0
  -25.7923  -30.9006   27.0211 H   0  0  0  0  0  0
  -26.3108  -29.6594   24.1402 H   0  0  0  0  0  0
  -27.3960  -29.7266   25.5067 H   0  0  0  0  0  0
  -27.9057  -30.4094   23.9841 H   0  0  0  0  0  0
  -27.2616  -33.3678   26.1989 H   0  0  0  0  0  0
  -28.3918  -32.6862   25.0387 H   0  0  0  0  0  0
  -28.0660  -31.8546   26.5517 H   0  0  0  0  0  0
  -28.2563  -38.0086   24.7519 H   0  0  0  0  0  0
  -28.1096  -36.2610   24.6277 H   0  0  0  0  0  0
  -27.2287  -37.1392   25.8865 H   0  0  0  0  0  0
  -20.9572  -29.8743   21.6691 H   0  0  0  0  0  0
  -26.0131  -38.2769   24.1425 H   0  0  0  0  0  0
  -30.6404  -23.0495   20.3436 H   0  0  0  0  0  0
  -27.3256  -19.5068   20.0509 H   0  0  0  0  0  0
  -32.3821  -21.5916   20.4064 H   0  0  0  0  0  0
  -32.1949  -20.0768   19.5414 H   0  0  0  0  0  0
  -32.1115  -20.1078   21.3084 H   0  0  0  0  0  0
  -30.8012  -18.8342   18.0832 H   0  0  0  0  0  0
  -29.3089  -17.9179   17.9670 H   0  0  0  0  0  0
  -30.8475  -17.0872   18.1581 H   0  0  0  0  0  0
  -26.8571  -24.1881   20.5300 H   0  0  0  0  0  0
  -27.5353  -24.2740   18.9492 H   0  0  0  0  0  0
  -31.0990  -18.1014   20.4142 H   0  0  0  0  0  0
  -28.7590  -16.3385   20.6434 H   0  0  0  0  0  0
  1 25  1  0  0  0
  1 30  2  0  0  0
  1 81  1  0  0  0
  2  3  1  0  0  0
  2 25  1  0  0  0
  2 82  1  0  0  0
  2 83  1  0  0  0
  3  4  1  0  0  0
  3 84  1  0  0  0
  3 85  1  0  0  0
  4  5  1  0  0  0
  4 86  1  0  0  0
  4 87  1  0  0  0
  5  6  1  0  0  0
  5 26  1  0  0  0
  5 88  1  0  0  0
  6 25  1  0  0  0
  6 89  1  0  0  0
  6 90  1  0  0  0
  7  8  2  0  0  0
  7 26  1  0  0  0
  7 29  1  0  0  0
  8  9  1  0  0  0
  8 22  1  0  0  0
  9 10  1  0  0  0
  9 27  2  0  0  0
 10 11  2  0  0  0
 10 15  1  0  0  0
 11 12  1  0  0  0
 11 91  1  0  0  0
 12 13  2  0  0  0
 12 92  1  0  0  0
 13 14  1  0  0  0
 13 31  1  0  0  0
 14 15  2  0  0  0
 14 93  1  0  0  0
 15 94  1  0  0  0
 16 17  2  0  0  0
 16 21  1  0  0  0
 16 31  1  0  0  0
 17 18  1  0  0  0
 17 95  1  0  0  0
 18 19  2  0  0  0
 18 96  1  0  0  0
 19 20  1  0  0  0
 19 24  1  0  0  0
 20 21  2  0  0  0
 20 97  1  0  0  0
 21 23  1  0  0  0
 22 28  1  0  0  0
 22 32  2  0  0  0
 26 27  1  0  0  0
 28 98  1  0  0  0
 28 99  1  0  0  0
 29100  1  0  0  0
 29101  1  0  0  0
 33 34  1  0  0  0
 33 66  1  0  0  0
 33 70  2  0  0  0
 34 36  1  0  0  0
 34 59  1  0  0  0
 34102  1  0  0  0
 35 44  2  0  0  0
 35 45  1  0  0  0
 35 68  1  0  0  0
 36 56  1  0  0  0
 36103  1  0  0  0
 37 39  1  0  0  0
 37 47  1  0  0  0
 37 66  1  0  0  0
 37104  1  0  0  0
 38 43  2  0  0  0
 38 46  1  0  0  0
 38 47  1  0  0  0
 39 64  1  0  0  0
 39 67  2  0  0  0
 40 52  1  0  0  0
 40 53  2  0  0  0
 40 58  1  0  0  0
 41105  1  0  0  0
 41106  1  0  0  0
 41107  1  0  0  0
 41 48  1  0  0  0
 42 43  1  0  0  0
 42 66  1  0  0  0
 42108  1  0  0  0
 42109  1  0  0  0
 43 44  1  0  0  0
 44110  1  0  0  0
 45 46  2  0  0  0
 45111  1  0  0  0
 46112  1  0  0  0
 47113  1  0  0  0
 47114  1  0  0  0
 48 56  1  0  0  0
 48 65  1  0  0  0
 48115  1  0  0  0
 49 50  1  0  0  0
 49 53  1  0  0  0
 49 64  1  0  0  0
 49116  1  0  0  0
 50 51  1  0  0  0
 50117  1  0  0  0
 50118  1  0  0  0
 51 52  1  0  0  0
 51119  1  0  0  0
 51120  1  0  0  0
 52121  1  0  0  0
 52122  1  0  0  0
 53 54  1  0  0  0
 54 55  2  0  0  0
 54123  1  0  0  0
 55 57  1  0  0  0
 55124  1  0  0  0
 56 69  2  0  0  0
 57 58  2  0  0  0
 57125  1  0  0  0
 58126  1  0  0  0
 59 60  1  0  0  0
 59 61  1  0  0  0
 59 62  1  0  0  0
 60127  1  0  0  0
 60128  1  0  0  0
 60129  1  0  0  0
 61130  1  0  0  0
 61131  1  0  0  0
 61132  1  0  0  0
 62133  1  0  0  0
 62134  1  0  0  0
 62135  1  0  0  0
 63 65  1  0  0  0
 63136  1  0  0  0
 63137  1  0  0  0
 63138  1  0  0  0
 64139  1  0  0  0
 65140  1  0  0  0
 68 78  1  0  0  0
 71 73  2  0  0  0
 71 75  1  0  0  0
 71141  1  0  0  0
 72 74  2  0  0  0
 72 80  1  0  0  0
 72142  1  0  0  0
 73 74  1  0  0  0
 73 76  1  0  0  0
 74 79  1  0  0  0
 75 78  1  0  0  0
 75 80  2  0  0  0
 76143  1  0  0  0
 76144  1  0  0  0
 76145  1  0  0  0
 77146  1  0  0  0
 77147  1  0  0  0
 77148  1  0  0  0
 77 79  1  0  0  0
 78149  1  0  0  0
 78150  1  0  0  0
 79 81  1  0  0  0
 79151  1  0  0  0
 81152  1  0  0  0
M  ISO  4   1 100  68 101  78 101  81 100
M  END
> <chiral flag>
0

> <version>
0

> <s_m_source_file>
/data/baiqing/PycharmProjects/Reinvent-master-3.2/result/LINK_invent/BTK/process_docking_weight1_custom_sum_contain_oxygen_bond_distance_aromatic_linkinvent_7_9_3/rearranged_h_0110.sdf

> <i_m_source_file_index>
8

> <r_mmod_Potential_Energy-OPLS-2005>
1024.16027832031

> <r_mmod_Stretch_Energy-OPLS-2005>
477.567108154297

> <r_mmod_Bend_Energy-OPLS-2005>
445.879089355469

> <r_mmod_Torsional_Energy-OPLS-2005>
217.035522460938

> <r_mmod_Improper_Torsional_Energy-OPLS-2005>
7.38968992233276

> <r_mmod_Van_der_Waal_Energy-OPLS-2005>
134.315963745117

> <r_mmod_Electrostatic_Energy-OPLS-2005>
-433.457305908203

> <r_mmod_Solvation_Energy-OPLS-2005>
-224.675476074219

> <b_mmod_Minimization_Converged-OPLS-2005>
0

> <r_mmod_RMS_Derivative-OPLS-2005>
0.959581136703491

$$$$
8
                    3D
 Structure written by MMmdl.
153161  0  0  1  0            999 V2000
  -30.6153  -14.7280   20.4470 C   0  0  0  0  0  0
  -30.4329  -12.4362   19.4789 C   0  0  0  0  0  0
  -29.5141  -12.5085   18.2401 C   0  0  0  0  0  0
  -28.0366  -12.3402   18.6458 C   0  0  0  0  0  0
  -27.6442  -13.2334   19.8554 C   0  0  2  0  0  0
  -28.6915  -13.1550   20.9900 C   0  0  0  0  0  0
  -25.2482  -13.8193   20.5661 C   0  0  0  0  0  0
  -24.1786  -13.0410   20.9190 C   0  0  0  0  0  0
  -24.6398  -11.6904   20.8749 C   0  0  0  0  0  0
  -23.9081  -10.4269   21.0406 C   0  0  0  0  0  0
  -24.3635   -9.4194   21.9177 C   0  0  0  0  0  0
  -23.6312   -8.2226   22.0743 C   0  0  0  0  0  0
  -22.4300   -8.0255   21.3537 C   0  0  0  0  0  0
  -21.9932   -9.0229   20.4637 C   0  0  0  0  0  0
  -22.7251  -10.2108   20.3059 C   0  0  0  0  0  0
  -21.6856   -6.0733   22.5284 C   0  0  0  0  0  0
  -21.4022   -6.5647   23.8215 C   0  0  0  0  0  0
  -21.3650   -5.6802   24.9173 C   0  0  0  0  0  0
  -21.6060   -4.3060   24.7226 C   0  0  0  0  0  0
  -21.8812   -3.8148   23.4349 C   0  0  0  0  0  0
  -21.9199   -4.6970   22.3402 C   0  0  0  0  0  0
  -22.7805  -13.5188   21.1852 C   0  0  0  0  0  0
  -22.1650   -4.2150   21.0975 F   0  0  0  0  0  0
  -21.5637   -3.4539   25.7732 F   0  0  0  0  0  0
  -29.9967  -13.4990   20.4111 N   0  0  0  0  0  0
  -26.2946  -12.9414   20.3302 N   0  0  0  0  0  0
  -25.9353  -11.6557   20.5781 N   0  0  0  0  0  0
  -22.0478  -12.8162   22.0419 N   0  0  0  0  0  0
  -25.4113  -15.1915   20.4009 N   0  0  0  0  0  0
  -31.7928  -14.8415   20.1015 O   0  0  0  0  0  0
  -21.6653   -6.8872   21.4241 O   0  0  0  0  0  0
  -22.3442  -14.5460   20.6661 O   0  0  0  0  0  0
  -24.6311  -31.8537   23.1951 C   0  0  0  0  0  0
  -25.9133  -32.4743   23.8299 C   0  0  1  0  0  0
  -27.2140  -27.2517   20.1268 C   0  0  0  0  0  0
  -25.5935  -33.8553   24.2220 N   0  0  0  0  0  0
  -23.4276  -30.4776   21.5374 C   0  0  2  0  0  0
  -24.8728  -28.9266   20.0989 C   0  0  0  0  0  0
  -22.7528  -29.4586   22.4873 C   0  0  0  0  0  0
  -18.0302  -28.1432   22.8460 C   0  0  0  0  0  0
  -24.1493  -36.7274   23.2640 C   0  0  0  0  0  0
  -25.9738  -30.7613   21.3790 C   0  0  0  0  0  0
  -26.0421  -29.3854   20.7193 C   0  0  0  0  0  0
  -27.2104  -28.5589   20.7265 C   0  0  0  0  0  0
  -26.0289  -26.8746   19.4533 C   0  0  0  0  0  0
  -24.8725  -27.6828   19.4525 C   0  0  0  0  0  0
  -23.6462  -29.8159   20.1502 C   0  0  0  0  0  0
  -25.4126  -36.3053   24.0317 C   0  0  1  0  0  0
  -20.5912  -28.3718   23.1254 C   0  0  2  0  0  0
  -20.6809  -26.9447   22.5387 C   0  0  0  0  0  0
  -19.5784  -26.6401   21.5212 C   0  0  0  0  0  0
  -18.1955  -26.7969   22.1608 C   0  0  0  0  0  0
  -19.1557  -28.8888   23.2845 C   0  0  0  0  0  0
  -18.9492  -30.1498   23.8867 C   0  0  0  0  0  0
  -17.6498  -30.6611   24.0593 C   0  0  0  0  0  0
  -25.9069  -34.9438   23.5069 C   0  0  0  0  0  0
  -16.5384  -29.9121   23.6357 C   0  0  0  0  0  0
  -16.7283  -28.6567   23.0334 C   0  0  0  0  0  0
  -26.4484  -31.6606   25.0719 C   0  0  0  0  0  0
  -25.3675  -31.3798   26.1414 C   0  0  0  0  0  0
  -27.0336  -30.3020   24.6212 C   0  0  0  0  0  0
  -27.6035  -32.4364   25.7481 C   0  0  0  0  0  0
  -27.5580  -37.1790   24.8474 C   0  0  0  0  0  0
  -21.4224  -29.3045   22.3640 N   0  0  0  0  0  0
  -26.4288  -37.3763   23.9429 N   0  0  0  0  0  0
  -24.6959  -31.0517   22.0938 N   0  0  0  0  0  0
  -23.4245  -28.8110   23.2939 O   0  0  0  0  0  0
  -28.3108  -26.3571   20.2262 O   0  0  0  0  0  0
  -26.5658  -34.8915   22.4652 O   0  0  0  0  0  0
  -23.5451  -32.1352   23.7244 O   0  0  0  0  0  0
  -28.9594  -21.0583   21.0517 C   0  0  0  0  0  0
  -29.2776  -20.4332   19.0228 C   0  0  0  0  0  0
  -29.0175  -22.2309   20.2735 C   0  0  0  0  0  0
  -28.9779  -18.4106   20.6046 C   0  0  0  0  0  0
  -30.1606  -17.3277   20.4001 C   0  0  0  0  0  0
  -28.1699  -24.8854   19.9010 C   0  0  0  0  0  0
  -29.0598  -23.7703   20.6706 C   0  0  2  0  0  0
  -29.2678  -21.7794   18.9722 N   0  0  0  0  0  0
  -29.1254  -19.8901   20.2449 N   0  0  0  0  0  0
  -29.8345  -15.8520   20.6559 N   0  0  0  0  0  0
  -30.4791  -24.1657   20.6798 N   0  3  0  0  0  0
  -31.4779  -12.5484   19.1833 H   0  0  0  0  0  0
  -30.3612  -11.4558   19.9574 H   0  0  0  0  0  0
  -29.7909  -11.7428   17.5149 H   0  0  0  0  0  0
  -29.6471  -13.4691   17.7443 H   0  0  0  0  0  0
  -27.8780  -11.2902   18.8925 H   0  0  0  0  0  0
  -27.3871  -12.5503   17.7958 H   0  0  0  0  0  0
  -27.6401  -14.2579   19.4820 H   0  0  0  0  0  0
  -28.7186  -12.1543   21.4216 H   0  0  0  0  0  0
  -28.4348  -13.8311   21.8061 H   0  0  0  0  0  0
  -25.2781   -9.5677   22.4749 H   0  0  0  0  0  0
  -24.0032   -7.4620   22.7460 H   0  0  0  0  0  0
  -21.0860   -8.8734   19.8933 H   0  0  0  0  0  0
  -22.3694  -10.9647   19.6167 H   0  0  0  0  0  0
  -21.2006   -7.6148   23.9716 H   0  0  0  0  0  0
  -21.1488   -6.0526   25.9075 H   0  0  0  0  0  0
  -22.0606   -2.7612   23.2845 H   0  0  0  0  0  0
  -22.4144  -11.9869   22.4852 H   0  0  0  0  0  0
  -21.1074  -13.1125   22.2622 H   0  0  0  0  0  0
  -24.6330  -15.8352   20.4910 H   0  0  0  0  0  0
  -26.2473  -15.6289   20.0350 H   0  0  0  0  0  0
  -26.7205  -32.5366   23.1035 H   0  0  0  0  0  0
  -25.0114  -33.9736   25.0376 H   0  0  0  0  0  0
  -22.7219  -31.2985   21.3928 H   0  0  0  0  0  0
  -23.3758  -35.9613   23.3314 H   0  0  0  0  0  0
  -24.3536  -36.8892   22.2045 H   0  0  0  0  0  0
  -23.7230  -37.6476   23.6661 H   0  0  0  0  0  0
  -26.1200  -31.5222   20.6078 H   0  0  0  0  0  0
  -26.8511  -30.8024   22.0131 H   0  0  0  0  0  0
  -28.0963  -28.8980   21.2455 H   0  0  0  0  0  0
  -25.9586  -25.9370   18.9243 H   0  0  0  0  0  0
  -23.9858  -27.3341   18.9421 H   0  0  0  0  0  0
  -23.7671  -30.5958   19.3959 H   0  0  0  0  0  0
  -22.7652  -29.2458   19.8460 H   0  0  0  0  0  0
  -25.1291  -36.1899   25.0805 H   0  0  0  0  0  0
  -20.9992  -28.3309   24.1374 H   0  0  0  0  0  0
  -20.5751  -26.2335   23.3598 H   0  0  0  0  0  0
  -21.6678  -26.7490   22.1165 H   0  0  0  0  0  0
  -19.6972  -25.6308   21.1260 H   0  0  0  0  0  0
  -19.6757  -27.3211   20.6767 H   0  0  0  0  0  0
  -17.4237  -26.6712   21.4006 H   0  0  0  0  0  0
  -18.0343  -26.0124   22.9020 H   0  0  0  0  0  0
  -19.7976  -30.7337   24.2198 H   0  0  0  0  0  0
  -17.5056  -31.6284   24.5232 H   0  0  0  0  0  0
  -15.5389  -30.3047   23.7699 H   0  0  0  0  0  0
  -15.8677  -28.0919   22.7026 H   0  0  0  0  0  0
  -24.5857  -30.7146   25.7707 H   0  0  0  0  0  0
  -24.8862  -32.2990   26.4751 H   0  0  0  0  0  0
  -25.7917  -30.8998   27.0237 H   0  0  0  0  0  0
  -26.2933  -29.6785   24.1195 H   0  0  0  0  0  0
  -27.3958  -29.7256   25.4747 H   0  0  0  0  0  0
  -27.8822  -30.4279   23.9498 H   0  0  0  0  0  0
  -27.2649  -33.3704   26.1963 H   0  0  0  0  0  0
  -28.3853  -32.6877   25.0304 H   0  0  0  0  0  0
  -28.0687  -31.8565   26.5449 H   0  0  0  0  0  0
  -28.2589  -38.0099   24.7526 H   0  0  0  0  0  0
  -28.1082  -36.2624   24.6291 H   0  0  0  0  0  0
  -27.2303  -37.1423   25.8880 H   0  0  0  0  0  0
  -20.9436  -29.8761   21.6832 H   0  0  0  0  0  0
  -26.0174  -38.2833   24.1444 H   0  0  0  0  0  0
  -28.8144  -20.9596   22.1205 H   0  0  0  0  0  0
  -29.3711  -19.8255   18.1317 H   0  0  0  0  0  0
  -28.6463  -18.3606   21.6399 H   0  0  0  0  0  0
  -28.1271  -18.0583   20.0190 H   0  0  0  0  0  0
  -30.9977  -17.6039   21.0455 H   0  0  0  0  0  0
  -30.5430  -17.4024   19.3801 H   0  0  0  0  0  0
  -27.1397  -24.5596   20.0394 H   0  0  0  0  0  0
  -28.3677  -24.7933   18.8342 H   0  0  0  0  0  0
  -28.7327  -23.8284   21.7090 H   0  0  0  0  0  0
  -28.8912  -15.6577   20.9583 H   0  0  0  0  0  0
  -30.8543  -24.1241   19.7495 H   0  0  0  0  0  0
  -30.9974  -23.5300   21.2566 H   0  0  0  0  0  0
  -30.5922  -25.0968   21.0420 H   0  0  0  0  0  0
  1 25  1  0  0  0
  1 30  2  0  0  0
  1 80  1  0  0  0
  2  3  1  0  0  0
  2 25  1  0  0  0
  2 82  1  0  0  0
  2 83  1  0  0  0
  3  4  1  0  0  0
  3 84  1  0  0  0
  3 85  1  0  0  0
  4  5  1  0  0  0
  4 86  1  0  0  0
  4 87  1  0  0  0
  5  6  1  0  0  0
  5 26  1  0  0  0
  5 88  1  0  0  0
  6 25  1  0  0  0
  6 89  1  0  0  0
  6 90  1  0  0  0
  7  8  2  0  0  0
  7 26  1  0  0  0
  7 29  1  0  0  0
  8  9  1  0  0  0
  8 22  1  0  0  0
  9 10  1  0  0  0
  9 27  2  0  0  0
 10 11  2  0  0  0
 10 15  1  0  0  0
 11 12  1  0  0  0
 11 91  1  0  0  0
 12 13  2  0  0  0
 12 92  1  0  0  0
 13 14  1  0  0  0
 13 31  1  0  0  0
 14 15  2  0  0  0
 14 93  1  0  0  0
 15 94  1  0  0  0
 16 17  2  0  0  0
 16 21  1  0  0  0
 16 31  1  0  0  0
 17 18  1  0  0  0
 17 95  1  0  0  0
 18 19  2  0  0  0
 18 96  1  0  0  0
 19 20  1  0  0  0
 19 24  1  0  0  0
 20 21  2  0  0  0
 20 97  1  0  0  0
 21 23  1  0  0  0
 22 28  1  0  0  0
 22 32  2  0  0  0
 26 27  1  0  0  0
 28 98  1  0  0  0
 28 99  1  0  0  0
 29100  1  0  0  0
 29101  1  0  0  0
 33 34  1  0  0  0
 33 66  1  0  0  0
 33 70  2  0  0  0
 34 36  1  0  0  0
 34 59  1  0  0  0
 34102  1  0  0  0
 35 44  2  0  0  0
 35 45  1  0  0  0
 35 68  1  0  0  0
 36 56  1  0  0  0
 36103  1  0  0  0
 37 39  1  0  0  0
 37 47  1  0  0  0
 37 66  1  0  0  0
 37104  1  0  0  0
 38 43  2  0  0  0
 38 46  1  0  0  0
 38 47  1  0  0  0
 39 64  1  0  0  0
 39 67  2  0  0  0
 40 52  1  0  0  0
 40 53  2  0  0  0
 40 58  1  0  0  0
 41105  1  0  0  0
 41106  1  0  0  0
 41107  1  0  0  0
 41 48  1  0  0  0
 42 43  1  0  0  0
 42 66  1  0  0  0
 42108  1  0  0  0
 42109  1  0  0  0
 43 44  1  0  0  0
 44110  1  0  0  0
 45 46  2  0  0  0
 45111  1  0  0  0
 46112  1  0  0  0
 47113  1  0  0  0
 47114  1  0  0  0
 48 56  1  0  0  0
 48 65  1  0  0  0
 48115  1  0  0  0
 49 50  1  0  0  0
 49 53  1  0  0  0
 49 64  1  0  0  0
 49116  1  0  0  0
 50 51  1  0  0  0
 50117  1  0  0  0
 50118  1  0  0  0
 51 52  1  0  0  0
 51119  1  0  0  0
 51120  1  0  0  0
 52121  1  0  0  0
 52122  1  0  0  0
 53 54  1  0  0  0
 54 55  2  0  0  0
 54123  1  0  0  0
 55 57  1  0  0  0
 55124  1  0  0  0
 56 69  2  0  0  0
 57 58  2  0  0  0
 57125  1  0  0  0
 58126  1  0  0  0
 59 60  1  0  0  0
 59 61  1  0  0  0
 59 62  1  0  0  0
 60127  1  0  0  0
 60128  1  0  0  0
 60129  1  0  0  0
 61130  1  0  0  0
 61131  1  0  0  0
 61132  1  0  0  0
 62133  1  0  0  0
 62134  1  0  0  0
 62135  1  0  0  0
 63 65  1  0  0  0
 63136  1  0  0  0
 63137  1  0  0  0
 63138  1  0  0  0
 64139  1  0  0  0
 65140  1  0  0  0
 68 76  1  0  0  0
 71 73  2  0  0  0
 71 79  1  0  0  0
 71141  1  0  0  0
 72 78  2  0  0  0
 72 79  1  0  0  0
 72142  1  0  0  0
 73 77  1  0  0  0
 73 78  1  0  0  0
 74 75  1  0  0  0
 74 79  1  0  0  0
 74143  1  0  0  0
 74144  1  0  0  0
 75 80  1  0  0  0
 75145  1  0  0  0
 75146  1  0  0  0
 76 77  1  0  0  0
 76147  1  0  0  0
 76148  1  0  0  0
 77 81  1  0  0  0
 77149  1  0  0  0
 80150  1  0  0  0
 81151  1  0  0  0
 81152  1  0  0  0
 81153  1  0  0  0
M  CHG  1  81   1
M  ISO  4   1 100  68 101  76 101  80 100
M  END
> <chiral flag>
0

> <version>
0

> <s_m_source_file>
/data/baiqing/PycharmProjects/Reinvent-master-3.2/result/LINK_invent/BTK/process_docking_weight1_custom_sum_contain_oxygen_bond_distance_aromatic_linkinvent_7_9_3/rearranged_h_0110.sdf

> <i_m_source_file_index>
9

> <r_mmod_Potential_Energy-OPLS-2005>
-194.495086669922

> <r_mmod_Stretch_Energy-OPLS-2005>
120.44921875

> <r_mmod_Bend_Energy-OPLS-2005>
166.718780517578

> <r_mmod_Torsional_Energy-OPLS-2005>
215.526275634766

> <r_mmod_Improper_Torsional_Energy-OPLS-2005>
6.89600563049316

> <r_mmod_Van_der_Waal_Energy-OPLS-2005>
114.89933013916

> <r_mmod_Electrostatic_Energy-OPLS-2005>
-421.225036621094

> <r_mmod_Solvation_Energy-OPLS-2005>
-483.645690917969

> <b_mmod_Minimization_Converged-OPLS-2005>
0

> <r_mmod_RMS_Derivative-OPLS-2005>
4.0505518913269

$$$$
9
                    3D
 Structure written by MMmdl.
179187  0  0  1  0            999 V2000
  -30.7253  -14.4590   20.5438 C   0  0  0  0  0  0
  -30.4141  -12.2911   19.4341 C   0  0  0  0  0  0
  -29.4881  -12.4810   18.2130 C   0  0  0  0  0  0
  -28.0109  -12.3465   18.6241 C   0  0  0  0  0  0
  -27.6545  -13.2074   19.8649 C   0  0  2  0  0  0
  -28.6960  -13.0213   20.9977 C   0  0  0  0  0  0
  -25.2424  -13.8037   20.5498 C   0  0  0  0  0  0
  -24.1788  -13.0310   20.9136 C   0  0  0  0  0  0
  -24.6409  -11.6823   20.8785 C   0  0  0  0  0  0
  -23.9117  -10.4206   21.0454 C   0  0  0  0  0  0
  -24.3670   -9.4110   21.9195 C   0  0  0  0  0  0
  -23.6314   -8.2170   22.0767 C   0  0  0  0  0  0
  -22.4283   -8.0253   21.3567 C   0  0  0  0  0  0
  -21.9957   -9.0219   20.4657 C   0  0  0  0  0  0
  -22.7311  -10.2075   20.3076 C   0  0  0  0  0  0
  -21.6826   -6.0743   22.5295 C   0  0  0  0  0  0
  -21.3972   -6.5644   23.8229 C   0  0  0  0  0  0
  -21.3666   -5.6806   24.9194 C   0  0  0  0  0  0
  -21.6052   -4.3072   24.7239 C   0  0  0  0  0  0
  -21.8828   -3.8158   23.4363 C   0  0  0  0  0  0
  -21.9186   -4.6988   22.3425 C   0  0  0  0  0  0
  -22.7822  -13.5107   21.1877 C   0  0  0  0  0  0
  -22.1684   -4.2163   21.1008 F   0  0  0  0  0  0
  -21.5639   -3.4561   25.7760 F   0  0  0  0  0  0
  -30.0351  -13.2922   20.4437 N   0  0  0  0  0  0
  -26.2964  -12.9307   20.3294 N   0  0  0  0  0  0
  -25.9340  -11.6470   20.5845 N   0  0  0  0  0  0
  -22.0591  -12.8030   22.0479 N   0  0  0  0  0  0
  -25.3825  -15.1714   20.3673 N   0  0  0  0  0  0
  -31.8707  -14.5950   20.1119 O   0  0  0  0  0  0
  -21.6613   -6.8880   21.4259 O   0  0  0  0  0  0
  -22.3485  -14.5447   20.6821 O   0  0  0  0  0  0
  -24.6069  -31.8708   23.2116 C   0  0  0  0  0  0
  -25.8991  -32.4838   23.8385 C   0  0  1  0  0  0
  -27.2532  -27.4773   20.0902 C   0  0  0  0  0  0
  -25.5881  -33.8637   24.2336 N   0  0  0  0  0  0
  -23.3922  -30.4931   21.5504 C   0  0  2  0  0  0
  -24.8422  -28.9603   20.1192 C   0  0  0  0  0  0
  -22.7371  -29.4672   22.5017 C   0  0  0  0  0  0
  -18.0262  -28.1368   22.8504 C   0  0  0  0  0  0
  -24.1493  -36.7323   23.2638 C   0  0  0  0  0  0
  -25.9128  -30.8517   21.3545 C   0  0  0  0  0  0
  -25.9960  -29.4833   20.7156 C   0  0  0  0  0  0
  -27.1993  -28.7490   20.7122 C   0  0  0  0  0  0
  -26.0775  -26.9564   19.5099 C   0  0  0  0  0  0
  -24.8742  -27.6888   19.5210 C   0  0  0  0  0  0
  -23.5982  -29.8186   20.1664 C   0  0  0  0  0  0
  -25.4112  -36.3116   24.0340 C   0  0  1  0  0  0
  -20.5846  -28.3647   23.1350 C   0  0  2  0  0  0
  -20.6756  -26.9395   22.5437 C   0  0  0  0  0  0
  -19.5732  -26.6386   21.5227 C   0  0  0  0  0  0
  -18.1907  -26.7912   22.1631 C   0  0  0  0  0  0
  -19.1511  -28.8821   23.2918 C   0  0  0  0  0  0
  -18.9444  -30.1434   23.8924 C   0  0  0  0  0  0
  -17.6453  -30.6582   24.0569 C   0  0  0  0  0  0
  -25.9034  -34.9484   23.5140 C   0  0  0  0  0  0
  -16.5343  -29.9092   23.6332 C   0  0  0  0  0  0
  -16.7254  -28.6502   23.0359 C   0  0  0  0  0  0
  -26.4471  -31.6585   25.0677 C   0  0  0  0  0  0
  -25.3765  -31.3668   26.1443 C   0  0  0  0  0  0
  -27.0304  -30.3041   24.5996 C   0  0  0  0  0  0
  -27.6042  -32.4309   25.7447 C   0  0  0  0  0  0
  -27.5589  -37.1812   24.8466 C   0  0  0  0  0  0
  -21.4116  -29.3014   22.3757 N   0  0  0  0  0  0
  -26.4296  -37.3799   23.9416 N   0  0  0  0  0  0
  -24.6552  -31.0854   22.0981 N   0  0  0  0  0  0
  -23.4179  -28.8244   23.3061 O   0  0  0  0  0  0
  -28.3866  -26.7004   19.9897 O   0  0  0  0  0  0
  -26.5604  -34.8940   22.4707 O   0  0  0  0  0  0
  -23.5285  -32.1436   23.7559 O   0  0  0  0  0  0
  -32.9458  -24.8512   19.1889 C   0  0  0  0  0  0
  -31.6629  -26.8857   19.0300 C   0  0  0  0  0  0
  -32.7449  -26.1083   18.5896 C   0  0  0  0  0  0
  -32.0487  -24.4079   20.1793 C   0  0  0  0  0  0
  -30.8035  -26.3734   20.0198 C   0  0  0  0  0  0
  -33.6723  -26.6220   17.5080 C   0  0  0  0  0  0
  -29.0520  -19.2749   20.8297 C   0  0  0  0  0  0
  -27.6529  -17.1980   20.9225 C   0  0  0  0  0  0
  -30.1384  -17.0236   19.0135 C   0  0  0  0  0  0
  -32.2752  -23.0666   20.8710 C   0  0  0  0  0  0
  -29.6193  -27.2057   20.4950 C   0  0  0  0  0  0
  -32.6849  -18.0308   20.2687 C   0  0  0  0  0  0
  -31.5703  -17.4757   21.1943 C   0  0  0  0  0  0
  -32.2370  -21.8652   19.9052 C   0  0  0  0  0  0
  -32.4855  -19.4202   19.6129 C   0  0  0  0  0  0
  -29.0462  -17.7754   21.1964 C   0  0  0  0  0  0
  -30.2195  -16.9477   20.5686 C   0  0  1  0  0  0
  -30.9835  -25.1478   20.5752 N   0  0  0  0  0  0
  -29.9971  -15.5264   20.9270 N   0  0  0  0  0  0
  -32.5496  -20.5646   20.5558 N   0  3  0  0  0  0
  -31.4590  -12.3734   19.1304 H   0  0  0  0  0  0
  -30.3122  -11.2873   19.8503 H   0  0  0  0  0  0
  -29.7340  -11.7558   17.4356 H   0  0  0  0  0  0
  -29.6493  -13.4657   17.7730 H   0  0  0  0  0  0
  -27.8175  -11.2944   18.8331 H   0  0  0  0  0  0
  -27.3609  -12.6076   17.7882 H   0  0  0  0  0  0
  -27.6865  -14.2468   19.5310 H   0  0  0  0  0  0
  -28.6632  -12.0041   21.3902 H   0  0  0  0  0  0
  -28.4621  -13.6654   21.8480 H   0  0  0  0  0  0
  -25.2852   -9.5563   22.4719 H   0  0  0  0  0  0
  -24.0040   -7.4561   22.7464 H   0  0  0  0  0  0
  -21.0919   -8.8778   19.8918 H   0  0  0  0  0  0
  -22.3847  -10.9638   19.6184 H   0  0  0  0  0  0
  -21.1924   -7.6150   23.9741 H   0  0  0  0  0  0
  -21.1507   -6.0533   25.9105 H   0  0  0  0  0  0
  -22.0605   -2.7623   23.2849 H   0  0  0  0  0  0
  -22.4326  -11.9635   22.4655 H   0  0  0  0  0  0
  -21.1250  -13.1030   22.2897 H   0  0  0  0  0  0
  -24.5938  -15.8003   20.4719 H   0  0  0  0  0  0
  -26.2284  -15.6402   20.0725 H   0  0  0  0  0  0
  -26.7061  -32.5594   23.1162 H   0  0  0  0  0  0
  -25.0024  -33.9787   25.0477 H   0  0  0  0  0  0
  -22.6755  -31.3061   21.4128 H   0  0  0  0  0  0
  -23.3752  -35.9659   23.3289 H   0  0  0  0  0  0
  -24.3592  -36.8947   22.2055 H   0  0  0  0  0  0
  -23.7250  -37.6531   23.6660 H   0  0  0  0  0  0
  -26.0049  -31.6131   20.5784 H   0  0  0  0  0  0
  -26.8059  -30.9206   21.9615 H   0  0  0  0  0  0
  -28.0694  -29.1821   21.1825 H   0  0  0  0  0  0
  -26.0976  -25.9817   19.0395 H   0  0  0  0  0  0
  -23.9852  -27.2731   19.0656 H   0  0  0  0  0  0
  -23.6931  -30.5882   19.3991 H   0  0  0  0  0  0
  -22.7241  -29.2287   19.8818 H   0  0  0  0  0  0
  -25.1290  -36.1977   25.0830 H   0  0  0  0  0  0
  -20.9934  -28.3205   24.1463 H   0  0  0  0  0  0
  -20.5685  -26.2254   23.3610 H   0  0  0  0  0  0
  -21.6631  -26.7445   22.1226 H   0  0  0  0  0  0
  -19.6910  -25.6312   21.1212 H   0  0  0  0  0  0
  -19.6670  -27.3235   20.6784 H   0  0  0  0  0  0
  -17.4193  -26.6677   21.4019 H   0  0  0  0  0  0
  -18.0289  -26.0047   22.9010 H   0  0  0  0  0  0
  -19.7924  -30.7237   24.2312 H   0  0  0  0  0  0
  -17.5011  -31.6260   24.5173 H   0  0  0  0  0  0
  -15.5348  -30.3008   23.7635 H   0  0  0  0  0  0
  -15.8645  -28.0826   22.7073 H   0  0  0  0  0  0
  -24.5930  -30.7026   25.7787 H   0  0  0  0  0  0
  -24.8974  -32.2816   26.4937 H   0  0  0  0  0  0
  -25.8149  -30.8810   27.0159 H   0  0  0  0  0  0
  -26.2805  -29.6778   24.1153 H   0  0  0  0  0  0
  -27.4203  -29.7318   25.4418 H   0  0  0  0  0  0
  -27.8580  -30.4393   23.9034 H   0  0  0  0  0  0
  -27.2647  -33.3593   26.2061 H   0  0  0  0  0  0
  -28.3843  -32.6888   25.0270 H   0  0  0  0  0  0
  -28.0713  -31.8398   26.5336 H   0  0  0  0  0  0
  -28.2596  -38.0122   24.7539 H   0  0  0  0  0  0
  -28.1097  -36.2652   24.6263 H   0  0  0  0  0  0
  -27.2305  -37.1429   25.8869 H   0  0  0  0  0  0
  -20.9267  -29.8710   21.6958 H   0  0  0  0  0  0
  -26.0183  -38.2871   24.1444 H   0  0  0  0  0  0
  -33.7866  -24.2391   18.8941 H   0  0  0  0  0  0
  -31.4937  -27.8708   18.6155 H   0  0  0  0  0  0
  -34.4931  -25.9290   17.3263 H   0  0  0  0  0  0
  -34.0971  -27.5815   17.8029 H   0  0  0  0  0  0
  -33.1306  -26.7596   16.5721 H   0  0  0  0  0  0
  -28.2598  -19.8128   21.3503 H   0  0  0  0  0  0
  -28.8910  -19.4402   19.7657 H   0  0  0  0  0  0
  -29.9831  -19.7569   21.1085 H   0  0  0  0  0  0
  -26.8796  -17.8125   21.3873 H   0  0  0  0  0  0
  -27.5589  -16.2001   21.3457 H   0  0  0  0  0  0
  -27.4276  -17.1477   19.8566 H   0  0  0  0  0  0
  -30.1304  -18.0351   18.6252 H   0  0  0  0  0  0
  -29.2257  -16.5601   18.6447 H   0  0  0  0  0  0
  -30.9549  -16.4992   18.5177 H   0  0  0  0  0  0
  -31.5271  -22.9332   21.6512 H   0  0  0  0  0  0
  -33.2410  -23.1090   21.3714 H   0  0  0  0  0  0
  -29.7776  -28.2316   20.1591 H   0  0  0  0  0  0
  -29.5977  -27.2215   21.5856 H   0  0  0  0  0  0
  -32.8918  -17.2922   19.4938 H   0  0  0  0  0  0
  -33.6076  -18.0690   20.8479 H   0  0  0  0  0  0
  -31.3779  -18.2002   21.9875 H   0  0  0  0  0  0
  -32.0420  -16.6621   21.7473 H   0  0  0  0  0  0
  -32.9517  -22.0256   19.0992 H   0  0  0  0  0  0
  -31.2534  -21.8106   19.4393 H   0  0  0  0  0  0
  -31.5509  -19.4769   19.0631 H   0  0  0  0  0  0
  -33.2654  -19.5585   18.8637 H   0  0  0  0  0  0
  -29.1596  -17.7203   22.2816 H   0  0  0  0  0  0
  -29.0684  -15.3114   21.2544 H   0  0  0  0  0  0
  -31.8989  -20.4109   21.3101 H   0  0  0  0  0  0
  -33.4765  -20.6112   20.9533 H   0  0  0  0  0  0
  1 25  1  0  0  0
  1 30  2  0  0  0
  1 89  1  0  0  0
  2  3  1  0  0  0
  2 25  1  0  0  0
  2 91  1  0  0  0
  2 92  1  0  0  0
  3  4  1  0  0  0
  3 93  1  0  0  0
  3 94  1  0  0  0
  4  5  1  0  0  0
  4 95  1  0  0  0
  4 96  1  0  0  0
  5  6  1  0  0  0
  5 26  1  0  0  0
  5 97  1  0  0  0
  6 25  1  0  0  0
  6 98  1  0  0  0
  6 99  1  0  0  0
  7  8  2  0  0  0
  7 26  1  0  0  0
  7 29  1  0  0  0
  8  9  1  0  0  0
  8 22  1  0  0  0
  9 10  1  0  0  0
  9 27  2  0  0  0
 10 11  2  0  0  0
 10 15  1  0  0  0
 11 12  1  0  0  0
 11100  1  0  0  0
 12 13  2  0  0  0
 12101  1  0  0  0
 13 14  1  0  0  0
 13 31  1  0  0  0
 14 15  2  0  0  0
 14102  1  0  0  0
 15103  1  0  0  0
 16 17  2  0  0  0
 16 21  1  0  0  0
 16 31  1  0  0  0
 17 18  1  0  0  0
 17104  1  0  0  0
 18 19  2  0  0  0
 18105  1  0  0  0
 19 20  1  0  0  0
 19 24  1  0  0  0
 20 21  2  0  0  0
 20106  1  0  0  0
 21 23  1  0  0  0
 22 28  1  0  0  0
 22 32  2  0  0  0
 26 27  1  0  0  0
 28107  1  0  0  0
 28108  1  0  0  0
 29109  1  0  0  0
 29110  1  0  0  0
 33 34  1  0  0  0
 33 66  1  0  0  0
 33 70  2  0  0  0
 34 36  1  0  0  0
 34 59  1  0  0  0
 34111  1  0  0  0
 35 44  2  0  0  0
 35 45  1  0  0  0
 35 68  1  0  0  0
 36 56  1  0  0  0
 36112  1  0  0  0
 37 39  1  0  0  0
 37 47  1  0  0  0
 37 66  1  0  0  0
 37113  1  0  0  0
 38 43  2  0  0  0
 38 46  1  0  0  0
 38 47  1  0  0  0
 39 64  1  0  0  0
 39 67  2  0  0  0
 40 52  1  0  0  0
 40 53  2  0  0  0
 40 58  1  0  0  0
 41114  1  0  0  0
 41115  1  0  0  0
 41116  1  0  0  0
 41 48  1  0  0  0
 42 43  1  0  0  0
 42 66  1  0  0  0
 42117  1  0  0  0
 42118  1  0  0  0
 43 44  1  0  0  0
 44119  1  0  0  0
 45 46  2  0  0  0
 45120  1  0  0  0
 46121  1  0  0  0
 47122  1  0  0  0
 47123  1  0  0  0
 48 56  1  0  0  0
 48 65  1  0  0  0
 48124  1  0  0  0
 49 50  1  0  0  0
 49 53  1  0  0  0
 49 64  1  0  0  0
 49125  1  0  0  0
 50 51  1  0  0  0
 50126  1  0  0  0
 50127  1  0  0  0
 51 52  1  0  0  0
 51128  1  0  0  0
 51129  1  0  0  0
 52130  1  0  0  0
 52131  1  0  0  0
 53 54  1  0  0  0
 54 55  2  0  0  0
 54132  1  0  0  0
 55 57  1  0  0  0
 55133  1  0  0  0
 56 69  2  0  0  0
 57 58  2  0  0  0
 57134  1  0  0  0
 58135  1  0  0  0
 59 60  1  0  0  0
 59 61  1  0  0  0
 59 62  1  0  0  0
 60136  1  0  0  0
 60137  1  0  0  0
 60138  1  0  0  0
 61139  1  0  0  0
 61140  1  0  0  0
 61141  1  0  0  0
 62142  1  0  0  0
 62143  1  0  0  0
 62144  1  0  0  0
 63 65  1  0  0  0
 63145  1  0  0  0
 63146  1  0  0  0
 63147  1  0  0  0
 64148  1  0  0  0
 65149  1  0  0  0
 68 81  1  0  0  0
 71 73  2  0  0  0
 71 74  1  0  0  0
 71150  1  0  0  0
 72 73  1  0  0  0
 72 75  2  0  0  0
 72151  1  0  0  0
 73 76  1  0  0  0
 74 80  1  0  0  0
 74 88  2  0  0  0
 75 81  1  0  0  0
 75 88  1  0  0  0
 76152  1  0  0  0
 76153  1  0  0  0
 76154  1  0  0  0
 77155  1  0  0  0
 77156  1  0  0  0
 77157  1  0  0  0
 77 86  1  0  0  0
 78 86  1  0  0  0
 78158  1  0  0  0
 78159  1  0  0  0
 78160  1  0  0  0
 79161  1  0  0  0
 79162  1  0  0  0
 79163  1  0  0  0
 79 87  1  0  0  0
 80 84  1  0  0  0
 80164  1  0  0  0
 80165  1  0  0  0
 81166  1  0  0  0
 81167  1  0  0  0
 82 83  1  0  0  0
 82 85  1  0  0  0
 82168  1  0  0  0
 82169  1  0  0  0
 83 87  1  0  0  0
 83170  1  0  0  0
 83171  1  0  0  0
 84 90  1  0  0  0
 84172  1  0  0  0
 84173  1  0  0  0
 85 90  1  0  0  0
 85174  1  0  0  0
 85175  1  0  0  0
 86 87  1  0  0  0
 86176  1  0  0  0
 87 89  1  0  0  0
 89177  1  0  0  0
 90178  1  0  0  0
 90179  1  0  0  0
M  CHG  1  90   1
M  ISO  4   1 100  68 101  81 101  89 100
M  END
> <chiral flag>
0

> <version>
0

> <s_m_source_file>
/data/baiqing/PycharmProjects/Reinvent-master-3.2/result/LINK_invent/BTK/process_docking_weight1_custom_sum_contain_oxygen_bond_distance_aromatic_linkinvent_7_9_3/rearranged_h_0110.sdf

> <i_m_source_file_index>
10

> <r_mmod_Potential_Energy-OPLS-2005>
-329.883178710938

> <r_mmod_Stretch_Energy-OPLS-2005>
41.1096496582031

> <r_mmod_Bend_Energy-OPLS-2005>
118.818901062012

> <r_mmod_Torsional_Energy-OPLS-2005>
241.234176635742

> <r_mmod_Improper_Torsional_Energy-OPLS-2005>
6.25967168807983

> <r_mmod_Van_der_Waal_Energy-OPLS-2005>
166.750411987305

> <r_mmod_Electrostatic_Energy-OPLS-2005>
-455.977844238281

> <r_mmod_Solvation_Energy-OPLS-2005>
-460.350250244141

> <b_mmod_Minimization_Converged-OPLS-2005>
0

> <r_mmod_RMS_Derivative-OPLS-2005>
3.97665429115295

$$$$
10
                    3D
 Structure written by MMmdl.
168176  0  0  1  0            999 V2000
  -30.5830  -14.7001   20.4295 C   0  0  0  0  0  0
  -30.4139  -12.4224   19.4349 C   0  0  0  0  0  0
  -29.4840  -12.5128   18.2043 C   0  0  0  0  0  0
  -28.0045  -12.3633   18.6158 C   0  0  0  0  0  0
  -27.6319  -13.2262   19.8528 C   0  0  2  0  0  0
  -28.6852  -13.1206   20.9762 C   0  0  0  0  0  0
  -25.2493  -13.8171   20.5802 C   0  0  0  0  0  0
  -24.1791  -13.0432   20.9214 C   0  0  0  0  0  0
  -24.6364  -11.6893   20.8747 C   0  0  0  0  0  0
  -23.9059  -10.4286   21.0414 C   0  0  0  0  0  0
  -24.3655   -9.4211   21.9163 C   0  0  0  0  0  0
  -23.6342   -8.2251   22.0747 C   0  0  0  0  0  0
  -22.4310   -8.0282   21.3548 C   0  0  0  0  0  0
  -21.9923   -9.0244   20.4643 C   0  0  0  0  0  0
  -22.7252  -10.2108   20.3049 C   0  0  0  0  0  0
  -21.6874   -6.0742   22.5280 C   0  0  0  0  0  0
  -21.4021   -6.5654   23.8209 C   0  0  0  0  0  0
  -21.3664   -5.6812   24.9170 C   0  0  0  0  0  0
  -21.6039   -4.3069   24.7204 C   0  0  0  0  0  0
  -21.8842   -3.8153   23.4331 C   0  0  0  0  0  0
  -21.9221   -4.6967   22.3394 C   0  0  0  0  0  0
  -22.7808  -13.5228   21.1868 C   0  0  0  0  0  0
  -22.1687   -4.2184   21.0952 F   0  0  0  0  0  0
  -21.5627   -3.4548   25.7697 F   0  0  0  0  0  0
  -29.9776  -13.4679   20.3817 N   0  0  0  0  0  0
  -26.2898  -12.9365   20.3344 N   0  0  0  0  0  0
  -25.9282  -11.6493   20.5729 N   0  0  0  0  0  0
  -22.0503  -12.8207   22.0417 N   0  0  0  0  0  0
  -25.4261  -15.1917   20.4357 N   0  0  0  0  0  0
  -31.7965  -14.8056   20.2181 O   0  0  0  0  0  0
  -21.6670   -6.8890   21.4251 O   0  0  0  0  0  0
  -22.3455  -14.5521   20.6689 O   0  0  0  0  0  0
  -24.6307  -31.8543   23.1955 C   0  0  0  0  0  0
  -25.9132  -32.4718   23.8307 C   0  0  1  0  0  0
  -27.2009  -27.2479   20.1217 C   0  0  0  0  0  0
  -25.5930  -33.8541   24.2233 N   0  0  0  0  0  0
  -23.4269  -30.4768   21.5415 C   0  0  2  0  0  0
  -24.8684  -28.9222   20.1048 C   0  0  0  0  0  0
  -22.7488  -29.4616   22.4908 C   0  0  0  0  0  0
  -18.0271  -28.1374   22.8498 C   0  0  0  0  0  0
  -24.1492  -36.7262   23.2649 C   0  0  0  0  0  0
  -25.9738  -30.7587   21.3792 C   0  0  0  0  0  0
  -26.0375  -29.3820   20.7202 C   0  0  0  0  0  0
  -27.2046  -28.5547   20.7202 C   0  0  0  0  0  0
  -26.0074  -26.8537   19.4792 C   0  0  0  0  0  0
  -24.8602  -27.6695   19.4700 C   0  0  0  0  0  0
  -23.6397  -29.8087   20.1578 C   0  0  0  0  0  0
  -25.4119  -36.3058   24.0337 C   0  0  1  0  0  0
  -20.5875  -28.3709   23.1281 C   0  0  2  0  0  0
  -20.6760  -26.9421   22.5434 C   0  0  0  0  0  0
  -19.5749  -26.6385   21.5227 C   0  0  0  0  0  0
  -18.1918  -26.7917   22.1624 C   0  0  0  0  0  0
  -19.1525  -28.8855   23.2872 C   0  0  0  0  0  0
  -18.9453  -30.1441   23.8904 C   0  0  0  0  0  0
  -17.6457  -30.6581   24.0575 C   0  0  0  0  0  0
  -25.9068  -34.9436   23.5095 C   0  0  0  0  0  0
  -16.5338  -29.9093   23.6328 C   0  0  0  0  0  0
  -16.7258  -28.6498   23.0367 C   0  0  0  0  0  0
  -26.4479  -31.6539   25.0698 C   0  0  0  0  0  0
  -25.3683  -31.3684   26.1394 C   0  0  0  0  0  0
  -27.0326  -30.2943   24.6223 C   0  0  0  0  0  0
  -27.6027  -32.4277   25.7476 C   0  0  0  0  0  0
  -27.5578  -37.1781   24.8455 C   0  0  0  0  0  0
  -21.4193  -29.3049   22.3659 N   0  0  0  0  0  0
  -26.4282  -37.3774   23.9420 N   0  0  0  0  0  0
  -24.6965  -31.0498   22.0930 N   0  0  0  0  0  0
  -23.4173  -28.8182   23.3031 O   0  0  0  0  0  0
  -28.3026  -26.3697   20.2080 O   0  0  0  0  0  0
  -26.5678  -34.8913   22.4685 O   0  0  0  0  0  0
  -23.5463  -32.1389   23.7258 O   0  0  0  0  0  0
  -29.4809  -17.9140   18.9966 C   0  0  0  0  0  0
  -29.6001  -16.3701   18.9232 C   0  0  0  0  0  0
  -29.6567  -17.0293   21.1611 C   0  0  0  0  0  0
  -28.9877  -18.2684   20.3997 C   0  0  1  0  0  0
  -28.6627  -18.6803   24.3094 C   0  0  0  0  0  0
  -30.6344  -20.2227   24.3294 C   0  0  0  0  0  0
  -28.1500  -23.5794   20.3727 C   0  0  0  0  0  0
  -29.0409  -20.2043   22.3114 C   0  0  0  0  0  0
  -28.6515  -22.2280   19.6175 C   0  0  0  0  0  0
  -28.3597  -24.9953   19.5948 C   0  0  0  0  0  0
  -29.2025  -19.8459   20.8003 C   0  0  2  0  0  0
  -29.7211  -19.3718   23.4321 C   0  0  0  0  0  0
  -29.7533  -15.8110   20.2795 N   0  0  0  0  0  0
  -28.2541  -20.8118   20.0744 N   0  3  0  0  0  0
  -31.4576  -12.5382   19.1348 H   0  0  0  0  0  0
  -30.3302  -11.4389   19.8924 H   0  0  0  0  0  0
  -29.7349  -11.7407   17.4761 H   0  0  0  0  0  0
  -29.6341  -13.4638   17.6881 H   0  0  0  0  0  0
  -27.8191  -11.3089   18.8329 H   0  0  0  0  0  0
  -27.3611  -12.6313   17.7737 H   0  0  0  0  0  0
  -27.6232  -14.2581   19.5035 H   0  0  0  0  0  0
  -28.7135  -12.1117   21.3926 H   0  0  0  0  0  0
  -28.4423  -13.7890   21.8044 H   0  0  0  0  0  0
  -25.2829   -9.5715   22.4674 H   0  0  0  0  0  0
  -24.0095   -7.4667   22.7480 H   0  0  0  0  0  0
  -21.0865   -8.8777   19.8953 H   0  0  0  0  0  0
  -22.3742  -10.9638   19.6139 H   0  0  0  0  0  0
  -21.1998   -7.6161   23.9695 H   0  0  0  0  0  0
  -21.1458   -6.0542   25.9072 H   0  0  0  0  0  0
  -22.0602   -2.7624   23.2815 H   0  0  0  0  0  0
  -22.4229  -11.9934   22.4811 H   0  0  0  0  0  0
  -21.1051  -13.1080   22.2535 H   0  0  0  0  0  0
  -24.6794  -15.8591   20.5967 H   0  0  0  0  0  0
  -26.3089  -15.6312   20.2114 H   0  0  0  0  0  0
  -26.7199  -32.5364   23.1044 H   0  0  0  0  0  0
  -24.9961  -33.9669   25.0300 H   0  0  0  0  0  0
  -22.7224  -31.2996   21.3956 H   0  0  0  0  0  0
  -23.3765  -35.9569   23.3279 H   0  0  0  0  0  0
  -24.3573  -36.8921   22.2057 H   0  0  0  0  0  0
  -23.7210  -37.6448   23.6696 H   0  0  0  0  0  0
  -26.1195  -31.5150   20.6073 H   0  0  0  0  0  0
  -26.8513  -30.8016   22.0137 H   0  0  0  0  0  0
  -28.0980  -28.9004   21.2209 H   0  0  0  0  0  0
  -25.9222  -25.8869   19.0075 H   0  0  0  0  0  0
  -23.9641  -27.3147   18.9806 H   0  0  0  0  0  0
  -23.7531  -30.5837   19.3980 H   0  0  0  0  0  0
  -22.7600  -29.2352   19.8615 H   0  0  0  0  0  0
  -25.1276  -36.1911   25.0823 H   0  0  0  0  0  0
  -20.9920  -28.3298   24.1424 H   0  0  0  0  0  0
  -20.5651  -26.2318   23.3638 H   0  0  0  0  0  0
  -21.6635  -26.7446   22.1247 H   0  0  0  0  0  0
  -19.6923  -25.6304   21.1242 H   0  0  0  0  0  0
  -19.6675  -27.3205   20.6767 H   0  0  0  0  0  0
  -17.4179  -26.6666   21.4018 H   0  0  0  0  0  0
  -18.0309  -26.0049   22.9014 H   0  0  0  0  0  0
  -19.7924  -30.7249   24.2291 H   0  0  0  0  0  0
  -17.5018  -31.6265   24.5162 H   0  0  0  0  0  0
  -15.5352  -30.3011   23.7645 H   0  0  0  0  0  0
  -15.8642  -28.0823   22.7107 H   0  0  0  0  0  0
  -24.5954  -30.6890   25.7750 H   0  0  0  0  0  0
  -24.8723  -32.2821   26.4691 H   0  0  0  0  0  0
  -25.7994  -30.9003   27.0251 H   0  0  0  0  0  0
  -26.2926  -29.6678   24.1204 H   0  0  0  0  0  0
  -27.3931  -29.7196   25.4772 H   0  0  0  0  0  0
  -27.8840  -30.4174   23.9515 H   0  0  0  0  0  0
  -27.2636  -33.3607   26.2004 H   0  0  0  0  0  0
  -28.3858  -32.6780   25.0297 H   0  0  0  0  0  0
  -28.0661  -31.8411   26.5429 H   0  0  0  0  0  0
  -28.2559  -38.0113   24.7544 H   0  0  0  0  0  0
  -28.1106  -36.2641   24.6215 H   0  0  0  0  0  0
  -27.2308  -37.1354   25.8861 H   0  0  0  0  0  0
  -20.9364  -29.8750   21.6851 H   0  0  0  0  0  0
  -26.0147  -38.2837   24.1450 H   0  0  0  0  0  0
  -28.8392  -18.3030   18.2056 H   0  0  0  0  0  0
  -30.4675  -18.3555   18.8482 H   0  0  0  0  0  0
  -30.4279  -16.0890   18.2685 H   0  0  0  0  0  0
  -28.7025  -15.9454   18.4740 H   0  0  0  0  0  0
  -29.0738  -16.7773   22.0508 H   0  0  0  0  0  0
  -30.6722  -17.2739   21.4686 H   0  0  0  0  0  0
  -27.9134  -18.0812   20.4245 H   0  0  0  0  0  0
  -29.1147  -17.9528   24.9810 H   0  0  0  0  0  0
  -27.9188  -18.1518   23.7125 H   0  0  0  0  0  0
  -28.1270  -19.4089   24.9207 H   0  0  0  0  0  0
  -31.1766  -19.5990   25.0409 H   0  0  0  0  0  0
  -30.0625  -20.9536   24.9032 H   0  0  0  0  0  0
  -31.3795  -20.7632   23.7470 H   0  0  0  0  0  0
  -28.6570  -23.6308   21.3370 H   0  0  0  0  0  0
  -27.0896  -23.4782   20.6085 H   0  0  0  0  0  0
  -27.9777  -20.2704   22.5341 H   0  0  0  0  0  0
  -29.3930  -21.2297   22.4116 H   0  0  0  0  0  0
  -29.7254  -22.2591   19.4357 H   0  0  0  0  0  0
  -28.2099  -22.2862   18.6214 H   0  0  0  0  0  0
  -27.7812  -24.9716   18.6725 H   0  0  0  0  0  0
  -29.3853  -24.9595   19.2299 H   0  0  0  0  0  0
  -30.2211  -20.1063   20.5089 H   0  0  0  0  0  0
  -30.3713  -18.6178   23.0103 H   0  0  0  0  0  0
  -28.0321  -20.3408   19.2105 H   0  0  0  0  0  0
  -27.3836  -20.8449   20.5835 H   0  0  0  0  0  0
  1 25  1  0  0  0
  1 30  2  0  0  0
  1 83  1  0  0  0
  2  3  1  0  0  0
  2 25  1  0  0  0
  2 85  1  0  0  0
  2 86  1  0  0  0
  3  4  1  0  0  0
  3 87  1  0  0  0
  3 88  1  0  0  0
  4  5  1  0  0  0
  4 89  1  0  0  0
  4 90  1  0  0  0
  5  6  1  0  0  0
  5 26  1  0  0  0
  5 91  1  0  0  0
  6 25  1  0  0  0
  6 92  1  0  0  0
  6 93  1  0  0  0
  7  8  2  0  0  0
  7 26  1  0  0  0
  7 29  1  0  0  0
  8  9  1  0  0  0
  8 22  1  0  0  0
  9 10  1  0  0  0
  9 27  2  0  0  0
 10 11  2  0  0  0
 10 15  1  0  0  0
 11 12  1  0  0  0
 11 94  1  0  0  0
 12 13  2  0  0  0
 12 95  1  0  0  0
 13 14  1  0  0  0
 13 31  1  0  0  0
 14 15  2  0  0  0
 14 96  1  0  0  0
 15 97  1  0  0  0
 16 17  2  0  0  0
 16 21  1  0  0  0
 16 31  1  0  0  0
 17 18  1  0  0  0
 17 98  1  0  0  0
 18 19  2  0  0  0
 18 99  1  0  0  0
 19 20  1  0  0  0
 19 24  1  0  0  0
 20 21  2  0  0  0
 20100  1  0  0  0
 21 23  1  0  0  0
 22 28  1  0  0  0
 22 32  2  0  0  0
 26 27  1  0  0  0
 28101  1  0  0  0
 28102  1  0  0  0
 29103  1  0  0  0
 29104  1  0  0  0
 33 34  1  0  0  0
 33 66  1  0  0  0
 33 70  2  0  0  0
 34 36  1  0  0  0
 34 59  1  0  0  0
 34105  1  0  0  0
 35 44  2  0  0  0
 35 45  1  0  0  0
 35 68  1  0  0  0
 36 56  1  0  0  0
 36106  1  0  0  0
 37 39  1  0  0  0
 37 47  1  0  0  0
 37 66  1  0  0  0
 37107  1  0  0  0
 38 43  2  0  0  0
 38 46  1  0  0  0
 38 47  1  0  0  0
 39 64  1  0  0  0
 39 67  2  0  0  0
 40 52  1  0  0  0
 40 53  2  0  0  0
 40 58  1  0  0  0
 41108  1  0  0  0
 41109  1  0  0  0
 41110  1  0  0  0
 41 48  1  0  0  0
 42 43  1  0  0  0
 42 66  1  0  0  0
 42111  1  0  0  0
 42112  1  0  0  0
 43 44  1  0  0  0
 44113  1  0  0  0
 45 46  2  0  0  0
 45114  1  0  0  0
 46115  1  0  0  0
 47116  1  0  0  0
 47117  1  0  0  0
 48 56  1  0  0  0
 48 65  1  0  0  0
 48118  1  0  0  0
 49 50  1  0  0  0
 49 53  1  0  0  0
 49 64  1  0  0  0
 49119  1  0  0  0
 50 51  1  0  0  0
 50120  1  0  0  0
 50121  1  0  0  0
 51 52  1  0  0  0
 51122  1  0  0  0
 51123  1  0  0  0
 52124  1  0  0  0
 52125  1  0  0  0
 53 54  1  0  0  0
 54 55  2  0  0  0
 54126  1  0  0  0
 55 57  1  0  0  0
 55127  1  0  0  0
 56 69  2  0  0  0
 57 58  2  0  0  0
 57128  1  0  0  0
 58129  1  0  0  0
 59 60  1  0  0  0
 59 61  1  0  0  0
 59 62  1  0  0  0
 60130  1  0  0  0
 60131  1  0  0  0
 60132  1  0  0  0
 61133  1  0  0  0
 61134  1  0  0  0
 61135  1  0  0  0
 62136  1  0  0  0
 62137  1  0  0  0
 62138  1  0  0  0
 63 65  1  0  0  0
 63139  1  0  0  0
 63140  1  0  0  0
 63141  1  0  0  0
 64142  1  0  0  0
 65143  1  0  0  0
 68 80  1  0  0  0
 71 72  1  0  0  0
 71144  1  0  0  0
 71145  1  0  0  0
 71 74  1  0  0  0
 72 83  1  0  0  0
 72146  1  0  0  0
 72147  1  0  0  0
 73 74  1  0  0  0
 73 83  1  0  0  0
 73148  1  0  0  0
 73149  1  0  0  0
 74 81  1  0  0  0
 74150  1  0  0  0
 75151  1  0  0  0
 75152  1  0  0  0
 75153  1  0  0  0
 75 82  1  0  0  0
 76 82  1  0  0  0
 76154  1  0  0  0
 76155  1  0  0  0
 76156  1  0  0  0
 77 79  1  0  0  0
 77 80  1  0  0  0
 77157  1  0  0  0
 77158  1  0  0  0
 78 82  1  0  0  0
 78159  1  0  0  0
 78160  1  0  0  0
 78 81  1  0  0  0
 79 84  1  0  0  0
 79161  1  0  0  0
 79162  1  0  0  0
 80163  1  0  0  0
 80164  1  0  0  0
 81 84  1  0  0  0
 81165  1  0  0  0
 82166  1  0  0  0
 84167  1  0  0  0
 84168  1  0  0  0
M  CHG  1  84   1
M  ISO  4   1 100  68 101  80 101  83 100
M  END
> <chiral flag>
0

> <version>
0

> <s_m_source_file>
/data/baiqing/PycharmProjects/Reinvent-master-3.2/result/LINK_invent/BTK/process_docking_weight1_custom_sum_contain_oxygen_bond_distance_aromatic_linkinvent_7_9_3/rearranged_h_0110.sdf

> <i_m_source_file_index>
11

> <r_mmod_Potential_Energy-OPLS-2005>
350.594421386719

> <r_mmod_Stretch_Energy-OPLS-2005>
124.603302001953

> <r_mmod_Bend_Energy-OPLS-2005>
238.028732299805

> <r_mmod_Torsional_Energy-OPLS-2005>
381.191253662109

> <r_mmod_Improper_Torsional_Energy-OPLS-2005>
16.3340530395508

> <r_mmod_Van_der_Waal_Energy-OPLS-2005>
113.048133850098

> <r_mmod_Electrostatic_Energy-OPLS-2005>
-147.840362548828

> <r_mmod_Solvation_Energy-OPLS-2005>
-456.695831298828

> <b_mmod_Minimization_Converged-OPLS-2005>
0

> <r_mmod_RMS_Derivative-OPLS-2005>
5.6408748626709

$$$$
11
                    3D
 Structure written by MMmdl.
163171  0  0  1  0            999 V2000
  -30.3767  -15.4082   20.3309 C   0  0  0  0  0  0
  -30.4447  -12.9188   19.5313 C   0  0  0  0  0  0
  -29.5527  -12.6026   18.3021 C   0  0  0  0  0  0
  -28.1146  -12.2768   18.7318 C   0  0  0  0  0  0
  -27.6028  -13.2786   19.7935 C   0  0  2  0  0  0
  -28.6222  -13.5198   20.9292 C   0  0  0  0  0  0
  -25.2368  -13.8231   20.5664 C   0  0  0  0  0  0
  -24.1704  -13.0402   20.9232 C   0  0  0  0  0  0
  -24.6350  -11.6904   20.8712 C   0  0  0  0  0  0
  -23.9053  -10.4276   21.0410 C   0  0  0  0  0  0
  -24.3610   -9.4182   21.9163 C   0  0  0  0  0  0
  -23.6276   -8.2221   22.0736 C   0  0  0  0  0  0
  -22.4260   -8.0264   21.3524 C   0  0  0  0  0  0
  -21.9896   -9.0238   20.4623 C   0  0  0  0  0  0
  -22.7240  -10.2101   20.3036 C   0  0  0  0  0  0
  -21.6833   -6.0730   22.5274 C   0  0  0  0  0  0
  -21.4013   -6.5641   23.8230 C   0  0  0  0  0  0
  -21.3673   -5.6792   24.9203 C   0  0  0  0  0  0
  -21.6029   -4.3038   24.7231 C   0  0  0  0  0  0
  -21.8828   -3.8138   23.4367 C   0  0  0  0  0  0
  -21.9189   -4.6964   22.3418 C   0  0  0  0  0  0
  -22.7731  -13.5179   21.1910 C   0  0  0  0  0  0
  -22.1639   -4.2159   21.0982 F   0  0  0  0  0  0
  -21.5642   -3.4522   25.7743 F   0  0  0  0  0  0
  -29.8437  -14.0722   20.3109 N   0  0  0  0  0  0
  -26.2767  -12.9480   20.3039 N   0  0  0  0  0  0
  -25.9280  -11.6575   20.5569 N   0  0  0  0  0  0
  -22.0350  -12.8175   22.0471 N   0  0  0  0  0  0
  -25.3978  -15.1975   20.4131 N   0  0  0  0  0  0
  -31.6027  -15.4065   20.1235 O   0  0  0  0  0  0
  -21.6604   -6.8869   21.4238 O   0  0  0  0  0  0
  -22.3415  -14.5455   20.6733 O   0  0  0  0  0  0
  -24.6624  -31.8216   23.1690 C   0  0  0  0  0  0
  -25.9332  -32.4569   23.8141 C   0  0  1  0  0  0
  -27.1938  -26.8579   20.1841 C   0  0  0  0  0  0
  -25.6023  -33.8384   24.2028 N   0  0  0  0  0  0
  -23.4829  -30.4331   21.5132 C   0  0  2  0  0  0
  -24.9398  -28.8185   20.0991 C   0  0  0  0  0  0
  -22.7667  -29.4456   22.4717 C   0  0  0  0  0  0
  -18.0377  -28.1463   22.8504 C   0  0  0  0  0  0
  -24.1497  -36.7163   23.2633 C   0  0  0  0  0  0
  -26.0556  -30.5973   21.4194 C   0  0  0  0  0  0
  -26.1178  -29.1830   20.7627 C   0  0  0  0  0  0
  -27.2345  -28.2204   20.7879 C   0  0  0  0  0  0
  -26.0148  -26.6959   19.4234 C   0  0  0  0  0  0
  -24.9208  -27.6025   19.4008 C   0  0  0  0  0  0
  -23.7303  -29.7500   20.1381 C   0  0  0  0  0  0
  -25.4142  -36.2908   24.0251 C   0  0  1  0  0  0
  -20.6011  -28.3806   23.1180 C   0  0  2  0  0  0
  -20.6847  -26.9487   22.5401 C   0  0  0  0  0  0
  -19.5793  -26.6418   21.5241 C   0  0  0  0  0  0
  -18.1983  -26.7996   22.1659 C   0  0  0  0  0  0
  -19.1648  -28.8952   23.2852 C   0  0  0  0  0  0
  -18.9530  -30.1542   23.8869 C   0  0  0  0  0  0
  -17.6505  -30.6623   24.0587 C   0  0  0  0  0  0
  -25.9123  -34.9319   23.4950 C   0  0  0  0  0  0
  -16.5416  -29.9106   23.6381 C   0  0  0  0  0  0
  -16.7363  -28.6551   23.0354 C   0  0  0  0  0  0
  -26.4598  -31.6524   25.0663 C   0  0  0  0  0  0
  -25.3716  -31.3846   26.1301 C   0  0  0  0  0  0
  -27.0504  -30.2866   24.6475 C   0  0  0  0  0  0
  -27.6082  -32.4328   25.7499 C   0  0  0  0  0  0
  -27.5563  -37.1727   24.8459 C   0  0  0  0  0  0
  -21.4339  -29.3073   22.3469 N   0  0  0  0  0  0
  -26.4279  -37.3640   23.9401 N   0  0  0  0  0  0
  -24.7541  -30.9806   22.0861 N   0  0  0  0  0  0
  -23.4198  -28.8020   23.2985 O   0  0  0  0  0  0
  -28.1528  -25.6907   20.3088 O   0  0  0  0  0  0
  -26.5681  -34.8872   22.4521 O   0  0  0  0  0  0
  -23.5684  -32.1261   23.6741 O   0  0  0  0  0  0
  -30.4489  -20.5001   19.7032 C   0  0  0  0  0  0
  -28.7758  -19.4818   20.5886 C   0  0  0  0  0  0
  -30.7480  -19.1244   19.6959 C   0  0  0  0  0  0
  -29.6613  -18.3428   20.2599 C   0  0  0  0  0  0
  -25.9549  -22.3533   20.6873 C   0  0  0  0  0  0
  -32.7277  -19.4668   18.0972 C   0  0  0  0  0  0
  -33.6167  -19.5524   20.9489 C   0  0  0  0  0  0
  -26.5704  -23.7530   20.9013 C   0  0  0  0  0  0
  -28.9579  -22.5685   20.6474 C   0  0  0  0  0  0
  -32.0756  -18.5894   19.1962 C   0  0  1  0  0  0
  -27.9224  -24.0124   20.1723 C   0  0  2  0  0  0
  -29.2402  -20.8985   20.2881 N   0  0  0  0  0  0
  -29.5759  -16.6881   20.4198 N   0  0  0  0  0  0
  -32.9823  -18.3523   20.3468 N   0  3  0  0  0  0
  -31.4486  -13.1649   19.1828 H   0  0  0  0  0  0
  -30.5641  -12.0444   20.1663 H   0  0  0  0  0  0
  -29.9837  -11.7833   17.7253 H   0  0  0  0  0  0
  -29.5340  -13.4712   17.6453 H   0  0  0  0  0  0
  -28.1310  -11.2721   19.1545 H   0  0  0  0  0  0
  -27.4494  -12.2439   17.8674 H   0  0  0  0  0  0
  -27.4861  -14.2169   19.2420 H   0  0  0  0  0  0
  -28.8157  -12.6043   21.4888 H   0  0  0  0  0  0
  -28.2123  -14.2335   21.6422 H   0  0  0  0  0  0
  -25.2770   -9.5675   22.4708 H   0  0  0  0  0  0
  -24.0004   -7.4643   22.7446 H   0  0  0  0  0  0
  -21.0849   -8.8756   19.8933 H   0  0  0  0  0  0
  -22.3716  -10.9625   19.6122 H   0  0  0  0  0  0
  -21.1972   -7.6138   23.9754 H   0  0  0  0  0  0
  -21.1486   -6.0494   25.9108 H   0  0  0  0  0  0
  -22.0584   -2.7602   23.2849 H   0  0  0  0  0  0
  -22.3956  -11.9900   22.4994 H   0  0  0  0  0  0
  -21.0917  -13.1174   22.2536 H   0  0  0  0  0  0
  -24.6192  -15.8389   20.5241 H   0  0  0  0  0  0
  -26.2321  -15.6467   20.0611 H   0  0  0  0  0  0
  -26.7375  -32.5084   23.0825 H   0  0  0  0  0  0
  -25.0124  -33.9464   25.0145 H   0  0  0  0  0  0
  -22.8031  -31.2673   21.3350 H   0  0  0  0  0  0
  -23.3750  -35.9509   23.3266 H   0  0  0  0  0  0
  -24.3574  -36.8863   22.2062 H   0  0  0  0  0  0
  -23.7299  -37.6350   23.6739 H   0  0  0  0  0  0
  -26.2410  -31.3365   20.6413 H   0  0  0  0  0  0
  -26.9143  -30.6617   22.0755 H   0  0  0  0  0  0
  -28.1105  -28.4730   21.3683 H   0  0  0  0  0  0
  -25.8885  -25.7787   18.8619 H   0  0  0  0  0  0
  -24.0441  -27.3363   18.8273 H   0  0  0  0  0  0
  -23.8846  -30.5185   19.3791 H   0  0  0  0  0  0
  -22.8396  -29.2037   19.8181 H   0  0  0  0  0  0
  -25.1364  -36.1648   25.0738 H   0  0  0  0  0  0
  -21.0180  -28.3419   24.1277 H   0  0  0  0  0  0
  -20.5783  -26.2403   23.3646 H   0  0  0  0  0  0
  -21.6682  -26.7458   22.1169 H   0  0  0  0  0  0
  -19.6918  -25.6314   21.1292 H   0  0  0  0  0  0
  -19.6714  -27.3210   20.6768 H   0  0  0  0  0  0
  -17.4256  -26.6823   21.4058 H   0  0  0  0  0  0
  -18.0338  -26.0153   22.9069 H   0  0  0  0  0  0
  -19.7994  -30.7418   24.2166 H   0  0  0  0  0  0
  -17.5055  -31.6299   24.5189 H   0  0  0  0  0  0
  -15.5410  -30.2965   23.7724 H   0  0  0  0  0  0
  -15.8792  -28.0863   22.7013 H   0  0  0  0  0  0
  -24.5897  -30.7182   25.7633 H   0  0  0  0  0  0
  -24.8899  -32.3082   26.4527 H   0  0  0  0  0  0
  -25.7914  -30.9156   27.0209 H   0  0  0  0  0  0
  -26.3195  -29.6496   24.1458 H   0  0  0  0  0  0
  -27.3975  -29.7285   25.5196 H   0  0  0  0  0  0
  -27.9185  -30.4010   23.9967 H   0  0  0  0  0  0
  -27.2639  -33.3666   26.1974 H   0  0  0  0  0  0
  -28.3989  -32.6817   25.0399 H   0  0  0  0  0  0
  -28.0645  -31.8499   26.5525 H   0  0  0  0  0  0
  -28.2507  -38.0069   24.7470 H   0  0  0  0  0  0
  -28.1110  -36.2582   24.6318 H   0  0  0  0  0  0
  -27.2266  -37.1415   25.8851 H   0  0  0  0  0  0
  -20.9556  -29.8708   21.6584 H   0  0  0  0  0  0
  -26.0077  -38.2679   24.1428 H   0  0  0  0  0  0
  -31.0943  -21.3058   19.3813 H   0  0  0  0  0  0
  -27.8119  -19.4101   21.0760 H   0  0  0  0  0  0
  -24.9273  -22.3200   21.0571 H   0  0  0  0  0  0
  -26.4980  -21.5772   21.2289 H   0  0  0  0  0  0
  -25.9163  -22.0613   19.6350 H   0  0  0  0  0  0
  -32.0814  -19.5534   17.2239 H   0  0  0  0  0  0
  -33.6695  -19.0278   17.7677 H   0  0  0  0  0  0
  -32.9264  -20.4887   18.4283 H   0  0  0  0  0  0
  -32.8752  -20.2352   21.3660 H   0  0  0  0  0  0
  -34.2189  -20.1024   20.2251 H   0  0  0  0  0  0
  -34.2918  -19.2643   21.7533 H   0  0  0  0  0  0
  -26.7129  -23.9231   21.9697 H   0  0  0  0  0  0
  -25.8128  -24.4731   20.6117 H   0  0  0  0  0  0
  -29.9502  -22.9852   20.4825 H   0  0  0  0  0  0
  -28.9032  -22.5828   21.7347 H   0  0  0  0  0  0
  -31.8660  -17.6257   18.7344 H   0  0  0  0  0  0
  -27.7492  -23.8811   19.1044 H   0  0  0  0  0  0
  -28.6318  -16.4033   20.6228 H   0  0  0  0  0  0
  -32.4611  -17.8654   21.0611 H   0  0  0  0  0  0
  -33.7022  -17.7233   20.0375 H   0  0  0  0  0  0
  1 25  1  0  0  0
  1 30  2  0  0  0
  1 83  1  0  0  0
  2  3  1  0  0  0
  2 25  1  0  0  0
  2 85  1  0  0  0
  2 86  1  0  0  0
  3  4  1  0  0  0
  3 87  1  0  0  0
  3 88  1  0  0  0
  4  5  1  0  0  0
  4 89  1  0  0  0
  4 90  1  0  0  0
  5  6  1  0  0  0
  5 26  1  0  0  0
  5 91  1  0  0  0
  6 25  1  0  0  0
  6 92  1  0  0  0
  6 93  1  0  0  0
  7  8  2  0  0  0
  7 26  1  0  0  0
  7 29  1  0  0  0
  8  9  1  0  0  0
  8 22  1  0  0  0
  9 10  1  0  0  0
  9 27  2  0  0  0
 10 11  2  0  0  0
 10 15  1  0  0  0
 11 12  1  0  0  0
 11 94  1  0  0  0
 12 13  2  0  0  0
 12 95  1  0  0  0
 13 14  1  0  0  0
 13 31  1  0  0  0
 14 15  2  0  0  0
 14 96  1  0  0  0
 15 97  1  0  0  0
 16 17  2  0  0  0
 16 21  1  0  0  0
 16 31  1  0  0  0
 17 18  1  0  0  0
 17 98  1  0  0  0
 18 19  2  0  0  0
 18 99  1  0  0  0
 19 20  1  0  0  0
 19 24  1  0  0  0
 20 21  2  0  0  0
 20100  1  0  0  0
 21 23  1  0  0  0
 22 28  1  0  0  0
 22 32  2  0  0  0
 26 27  1  0  0  0
 28101  1  0  0  0
 28102  1  0  0  0
 29103  1  0  0  0
 29104  1  0  0  0
 33 34  1  0  0  0
 33 66  1  0  0  0
 33 70  2  0  0  0
 34 36  1  0  0  0
 34 59  1  0  0  0
 34105  1  0  0  0
 35 44  2  0  0  0
 35 45  1  0  0  0
 35 68  1  0  0  0
 36 56  1  0  0  0
 36106  1  0  0  0
 37 39  1  0  0  0
 37 47  1  0  0  0
 37 66  1  0  0  0
 37107  1  0  0  0
 38 43  2  0  0  0
 38 46  1  0  0  0
 38 47  1  0  0  0
 39 64  1  0  0  0
 39 67  2  0  0  0
 40 52  1  0  0  0
 40 53  2  0  0  0
 40 58  1  0  0  0
 41108  1  0  0  0
 41109  1  0  0  0
 41110  1  0  0  0
 41 48  1  0  0  0
 42 43  1  0  0  0
 42 66  1  0  0  0
 42111  1  0  0  0
 42112  1  0  0  0
 43 44  1  0  0  0
 44113  1  0  0  0
 45 46  2  0  0  0
 45114  1  0  0  0
 46115  1  0  0  0
 47116  1  0  0  0
 47117  1  0  0  0
 48 56  1  0  0  0
 48 65  1  0  0  0
 48118  1  0  0  0
 49 50  1  0  0  0
 49 53  1  0  0  0
 49 64  1  0  0  0
 49119  1  0  0  0
 50 51  1  0  0  0
 50120  1  0  0  0
 50121  1  0  0  0
 51 52  1  0  0  0
 51122  1  0  0  0
 51123  1  0  0  0
 52124  1  0  0  0
 52125  1  0  0  0
 53 54  1  0  0  0
 54 55  2  0  0  0
 54126  1  0  0  0
 55 57  1  0  0  0
 55127  1  0  0  0
 56 69  2  0  0  0
 57 58  2  0  0  0
 57128  1  0  0  0
 58129  1  0  0  0
 59 60  1  0  0  0
 59 61  1  0  0  0
 59 62  1  0  0  0
 60130  1  0  0  0
 60131  1  0  0  0
 60132  1  0  0  0
 61133  1  0  0  0
 61134  1  0  0  0
 61135  1  0  0  0
 62136  1  0  0  0
 62137  1  0  0  0
 62138  1  0  0  0
 63 65  1  0  0  0
 63139  1  0  0  0
 63140  1  0  0  0
 63141  1  0  0  0
 64142  1  0  0  0
 65143  1  0  0  0
 68 81  1  0  0  0
 71 73  2  0  0  0
 71 82  1  0  0  0
 71144  1  0  0  0
 72 74  2  0  0  0
 72 82  1  0  0  0
 72145  1  0  0  0
 73 74  1  0  0  0
 73 80  1  0  0  0
 74 83  1  0  0  0
 75 78  1  0  0  0
 75146  1  0  0  0
 75147  1  0  0  0
 75148  1  0  0  0
 76149  1  0  0  0
 76150  1  0  0  0
 76151  1  0  0  0
 76 80  1  0  0  0
 77 84  1  0  0  0
 77152  1  0  0  0
 77153  1  0  0  0
 77154  1  0  0  0
 78155  1  0  0  0
 78156  1  0  0  0
 78 81  1  0  0  0
 79 81  1  0  0  0
 79 82  1  0  0  0
 79157  1  0  0  0
 79158  1  0  0  0
 80 84  1  0  0  0
 80159  1  0  0  0
 81160  1  0  0  0
 83161  1  0  0  0
 84162  1  0  0  0
 84163  1  0  0  0
M  CHG  1  84   1
M  ISO  4   1 100  68 101  81 101  83 100
M  END
> <chiral flag>
0

> <version>
0

> <s_m_source_file>
/data/baiqing/PycharmProjects/Reinvent-master-3.2/result/LINK_invent/BTK/process_docking_weight1_custom_sum_contain_oxygen_bond_distance_aromatic_linkinvent_7_9_3/rearranged_h_0110.sdf

> <i_m_source_file_index>
12

> <r_mmod_Potential_Energy-OPLS-2005>
1474.56335449219

> <r_mmod_Stretch_Energy-OPLS-2005>
708.05126953125

> <r_mmod_Bend_Energy-OPLS-2005>
540.404724121094

> <r_mmod_Torsional_Energy-OPLS-2005>
241.951141357422

> <r_mmod_Improper_Torsional_Energy-OPLS-2005>
6.38565444946289

> <r_mmod_Van_der_Waal_Energy-OPLS-2005>
109.289886474609

> <r_mmod_Electrostatic_Energy-OPLS-2005>
-332.60205078125

> <r_mmod_Solvation_Energy-OPLS-2005>
-411.766784667969

> <b_mmod_Minimization_Converged-OPLS-2005>
0

> <r_mmod_RMS_Derivative-OPLS-2005>
7.36650896072388

$$$$
12
                    3D
 Structure written by MMmdl.
160168  0  0  1  0            999 V2000
  -30.6158  -14.7555   20.4807 C   0  0  0  0  0  0
  -30.4382  -12.4681   19.4675 C   0  0  0  0  0  0
  -29.5118  -12.5107   18.2326 C   0  0  0  0  0  0
  -28.0394  -12.3252   18.6477 C   0  0  0  0  0  0
  -27.6425  -13.2261   19.8476 C   0  0  2  0  0  0
  -28.6905  -13.1693   20.9803 C   0  0  0  0  0  0
  -25.2521  -13.8155   20.5685 C   0  0  0  0  0  0
  -24.1823  -13.0422   20.9257 C   0  0  0  0  0  0
  -24.6414  -11.6905   20.8775 C   0  0  0  0  0  0
  -23.9080  -10.4285   21.0407 C   0  0  0  0  0  0
  -24.3631   -9.4205   21.9182 C   0  0  0  0  0  0
  -23.6315   -8.2237   22.0744 C   0  0  0  0  0  0
  -22.4296   -8.0269   21.3539 C   0  0  0  0  0  0
  -21.9925   -9.0239   20.4634 C   0  0  0  0  0  0
  -22.7248  -10.2133   20.3053 C   0  0  0  0  0  0
  -21.6855   -6.0730   22.5269 C   0  0  0  0  0  0
  -21.4013   -6.5633   23.8204 C   0  0  0  0  0  0
  -21.3670   -5.6792   24.9158 C   0  0  0  0  0  0
  -21.6042   -4.3048   24.7222 C   0  0  0  0  0  0
  -21.8830   -3.8146   23.4343 C   0  0  0  0  0  0
  -21.9197   -4.6964   22.3406 C   0  0  0  0  0  0
  -22.7853  -13.5211   21.1891 C   0  0  0  0  0  0
  -22.1664   -4.2143   21.0988 F   0  0  0  0  0  0
  -21.5636   -3.4550   25.7739 F   0  0  0  0  0  0
  -29.9868  -13.5324   20.3937 N   0  0  0  0  0  0
  -26.2946  -12.9364   20.3271 N   0  0  0  0  0  0
  -25.9329  -11.6518   20.5761 N   0  0  0  0  0  0
  -22.0475  -12.8205   22.0437 N   0  0  0  0  0  0
  -25.4205  -15.1874   20.3987 N   0  0  0  0  0  0
  -31.8099  -14.8590   20.1894 O   0  0  0  0  0  0
  -21.6652   -6.8870   21.4233 O   0  0  0  0  0  0
  -22.3545  -14.5505   20.6702 O   0  0  0  0  0  0
  -24.6312  -31.8542   23.1960 C   0  0  0  0  0  0
  -25.9127  -32.4748   23.8327 C   0  0  1  0  0  0
  -27.2248  -27.2518   20.1355 C   0  0  0  0  0  0
  -25.5914  -33.8555   24.2242 N   0  0  0  0  0  0
  -23.4290  -30.4738   21.5383 C   0  0  2  0  0  0
  -24.8782  -28.9149   20.1104 C   0  0  0  0  0  0
  -22.7505  -29.4592   22.4907 C   0  0  0  0  0  0
  -18.0290  -28.1384   22.8468 C   0  0  0  0  0  0
  -24.1486  -36.7283   23.2637 C   0  0  0  0  0  0
  -25.9737  -30.7662   21.3743 C   0  0  0  0  0  0
  -26.0489  -29.3856   20.7179 C   0  0  0  0  0  0
  -27.2239  -28.5678   20.7147 C   0  0  0  0  0  0
  -26.0299  -26.8460   19.5018 C   0  0  0  0  0  0
  -24.8736  -27.6545   19.4913 C   0  0  0  0  0  0
  -23.6482  -29.8019   20.1564 C   0  0  0  0  0  0
  -25.4113  -36.3071   24.0327 C   0  0  1  0  0  0
  -20.5885  -28.3699   23.1259 C   0  0  2  0  0  0
  -20.6774  -26.9418   22.5398 C   0  0  0  0  0  0
  -19.5755  -26.6379   21.5199 C   0  0  0  0  0  0
  -18.1937  -26.7924   22.1613 C   0  0  0  0  0  0
  -19.1536  -28.8861   23.2857 C   0  0  0  0  0  0
  -18.9472  -30.1460   23.8873 C   0  0  0  0  0  0
  -17.6479  -30.6584   24.0563 C   0  0  0  0  0  0
  -25.9055  -34.9440   23.5091 C   0  0  0  0  0  0
  -16.5364  -29.9085   23.6332 C   0  0  0  0  0  0
  -16.7278  -28.6501   23.0341 C   0  0  0  0  0  0
  -26.4492  -31.6577   25.0718 C   0  0  0  0  0  0
  -25.3702  -31.3740   26.1431 C   0  0  0  0  0  0
  -27.0334  -30.2988   24.6217 C   0  0  0  0  0  0
  -27.6055  -32.4314   25.7484 C   0  0  0  0  0  0
  -27.5586  -37.1784   24.8456 C   0  0  0  0  0  0
  -21.4211  -29.3047   22.3649 N   0  0  0  0  0  0
  -26.4283  -37.3783   23.9424 N   0  0  0  0  0  0
  -24.6973  -31.0487   22.0937 N   0  0  0  0  0  0
  -23.4204  -28.8149   23.3035 O   0  0  0  0  0  0
  -28.3339  -26.3749   20.1985 O   0  0  0  0  0  0
  -26.5646  -34.8918   22.4674 O   0  0  0  0  0  0
  -23.5459  -32.1380   23.7235 O   0  0  0  0  0  0
  -29.4385  -24.0309   20.5163 C   0  0  0  0  0  0
  -29.8818  -22.7099   20.6887 C   0  0  0  0  0  0
  -27.9863  -21.1111   19.9844 C   0  0  0  0  0  0
  -29.8610  -20.0765   21.1495 C   0  0  0  0  0  0
  -27.9518  -19.8461   19.0769 C   0  0  0  0  0  0
  -29.7406  -18.6825   20.3385 C   0  0  1  0  0  0
  -28.1689  -24.8750   20.0979 C   0  0  0  0  0  0
  -31.3410  -22.6316   21.1510 C   0  0  0  0  0  0
  -30.2571  -17.3193   21.0866 C   0  0  0  0  0  0
  -29.3139  -21.3742   20.5404 N   0  0  0  0  0  0
  -29.8416  -15.8861   20.7173 N   0  0  0  0  0  0
  -28.3744  -18.6019   19.7817 N   0  3  0  0  0  0
  -31.3949  -22.4178   22.5503 O   0  0  0  0  0  0
  -31.4753  -12.6054   19.1585 H   0  0  0  0  0  0
  -30.3960  -11.4911   19.9558 H   0  0  0  0  0  0
  -29.8010  -11.7374   17.5189 H   0  0  0  0  0  0
  -29.6297  -13.4637   17.7151 H   0  0  0  0  0  0
  -27.9059  -11.2757   18.9163 H   0  0  0  0  0  0
  -27.3779  -12.5084   17.7995 H   0  0  0  0  0  0
  -27.6330  -14.2457   19.4627 H   0  0  0  0  0  0
  -28.7357  -12.1728   21.4230 H   0  0  0  0  0  0
  -28.4212  -13.8501   21.7887 H   0  0  0  0  0  0
  -25.2760   -9.5695   22.4781 H   0  0  0  0  0  0
  -24.0020   -7.4631   22.7468 H   0  0  0  0  0  0
  -21.0843   -8.8754   19.8957 H   0  0  0  0  0  0
  -22.3674  -10.9677   19.6178 H   0  0  0  0  0  0
  -21.2003   -7.6138   23.9698 H   0  0  0  0  0  0
  -21.1481   -6.0519   25.9055 H   0  0  0  0  0  0
  -22.0609   -2.7607   23.2848 H   0  0  0  0  0  0
  -22.4073  -11.9868   22.4855 H   0  0  0  0  0  0
  -21.1086  -13.1207   22.2600 H   0  0  0  0  0  0
  -24.6364  -15.8267   20.4630 H   0  0  0  0  0  0
  -26.2247  -15.5906   19.9395 H   0  0  0  0  0  0
  -26.7191  -32.5395   23.1068 H   0  0  0  0  0  0
  -25.0024  -33.9688   25.0361 H   0  0  0  0  0  0
  -22.7274  -31.2971   21.3864 H   0  0  0  0  0  0
  -23.3764  -35.9593   23.3264 H   0  0  0  0  0  0
  -24.3583  -36.8950   22.2061 H   0  0  0  0  0  0
  -23.7213  -37.6459   23.6692 H   0  0  0  0  0  0
  -26.1066  -31.5295   20.6057 H   0  0  0  0  0  0
  -26.8518  -30.8183   22.0075 H   0  0  0  0  0  0
  -28.1215  -28.9241   21.2000 H   0  0  0  0  0  0
  -25.9659  -25.8808   19.0209 H   0  0  0  0  0  0
  -23.9754  -27.2890   19.0120 H   0  0  0  0  0  0
  -23.7752  -30.5728   19.3967 H   0  0  0  0  0  0
  -22.7671  -29.2344   19.8514 H   0  0  0  0  0  0
  -25.1292  -36.1915   25.0821 H   0  0  0  0  0  0
  -20.9975  -28.3272   24.1384 H   0  0  0  0  0  0
  -20.5644  -26.2330   23.3609 H   0  0  0  0  0  0
  -21.6644  -26.7423   22.1214 H   0  0  0  0  0  0
  -19.6918  -25.6280   21.1248 H   0  0  0  0  0  0
  -19.6684  -27.3175   20.6712 H   0  0  0  0  0  0
  -17.4202  -26.6658   21.4022 H   0  0  0  0  0  0
  -18.0345  -26.0062   22.9010 H   0  0  0  0  0  0
  -19.7957  -30.7277   24.2229 H   0  0  0  0  0  0
  -17.5033  -31.6264   24.5182 H   0  0  0  0  0  0
  -15.5359  -30.2993   23.7655 H   0  0  0  0  0  0
  -15.8675  -28.0825   22.7059 H   0  0  0  0  0  0
  -24.5851  -30.7130   25.7749 H   0  0  0  0  0  0
  -24.8915  -32.2906   26.4883 H   0  0  0  0  0  0
  -25.7983  -30.8880   27.0202 H   0  0  0  0  0  0
  -26.2918  -29.6729   24.1234 H   0  0  0  0  0  0
  -27.3998  -29.7275   25.4759 H   0  0  0  0  0  0
  -27.8809  -30.4270   23.9476 H   0  0  0  0  0  0
  -27.2669  -33.3603   26.2098 H   0  0  0  0  0  0
  -28.3834  -32.6897   25.0281 H   0  0  0  0  0  0
  -28.0758  -31.8414   26.5364 H   0  0  0  0  0  0
  -28.2570  -38.0122   24.7557 H   0  0  0  0  0  0
  -28.1116  -36.2648   24.6198 H   0  0  0  0  0  0
  -27.2309  -37.1334   25.8860 H   0  0  0  0  0  0
  -20.9412  -29.8791   21.6846 H   0  0  0  0  0  0
  -26.0154  -38.2846   24.1464 H   0  0  0  0  0  0
  -30.1951  -24.7663   20.7497 H   0  0  0  0  0  0
  -27.2771  -20.9974   20.8058 H   0  0  0  0  0  0
  -27.6519  -21.9764   19.4109 H   0  0  0  0  0  0
  -30.9072  -20.1682   21.4317 H   0  0  0  0  0  0
  -29.3405  -19.9494   22.0996 H   0  0  0  0  0  0
  -28.5884  -19.9965   18.2040 H   0  0  0  0  0  0
  -26.9417  -19.7019   18.6918 H   0  0  0  0  0  0
  -30.3890  -18.7856   19.4669 H   0  0  0  0  0  0
  -27.3249  -24.5536   20.7099 H   0  0  0  0  0  0
  -27.9327  -24.6225   19.0639 H   0  0  0  0  0  0
  -31.8954  -23.5433   20.9189 H   0  0  0  0  0  0
  -31.8893  -21.8548   20.6179 H   0  0  0  0  0  0
  -29.9727  -17.4191   22.1345 H   0  0  0  0  0  0
  -31.3458  -17.3557   21.1092 H   0  0  0  0  0  0
  -28.8692  -15.6696   20.8760 H   0  0  0  0  0  0
  -28.3397  -17.8392   19.1261 H   0  0  0  0  0  0
  -27.7202  -18.4132   20.5231 H   0  0  0  0  0  0
  -32.2823  -22.6088   22.8406 H   0  0  0  0  0  0
  1 25  1  0  0  0
  1 30  2  0  0  0
  1 81  1  0  0  0
  2  3  1  0  0  0
  2 25  1  0  0  0
  2 84  1  0  0  0
  2 85  1  0  0  0
  3  4  1  0  0  0
  3 86  1  0  0  0
  3 87  1  0  0  0
  4  5  1  0  0  0
  4 88  1  0  0  0
  4 89  1  0  0  0
  5  6  1  0  0  0
  5 26  1  0  0  0
  5 90  1  0  0  0
  6 25  1  0  0  0
  6 91  1  0  0  0
  6 92  1  0  0  0
  7  8  2  0  0  0
  7 26  1  0  0  0
  7 29  1  0  0  0
  8  9  1  0  0  0
  8 22  1  0  0  0
  9 10  1  0  0  0
  9 27  2  0  0  0
 10 11  2  0  0  0
 10 15  1  0  0  0
 11 12  1  0  0  0
 11 93  1  0  0  0
 12 13  2  0  0  0
 12 94  1  0  0  0
 13 14  1  0  0  0
 13 31  1  0  0  0
 14 15  2  0  0  0
 14 95  1  0  0  0
 15 96  1  0  0  0
 16 17  2  0  0  0
 16 21  1  0  0  0
 16 31  1  0  0  0
 17 18  1  0  0  0
 17 97  1  0  0  0
 18 19  2  0  0  0
 18 98  1  0  0  0
 19 20  1  0  0  0
 19 24  1  0  0  0
 20 21  2  0  0  0
 20 99  1  0  0  0
 21 23  1  0  0  0
 22 28  1  0  0  0
 22 32  2  0  0  0
 26 27  1  0  0  0
 28100  1  0  0  0
 28101  1  0  0  0
 29102  1  0  0  0
 29103  1  0  0  0
 33 34  1  0  0  0
 33 66  1  0  0  0
 33 70  2  0  0  0
 34 36  1  0  0  0
 34 59  1  0  0  0
 34104  1  0  0  0
 35 44  2  0  0  0
 35 45  1  0  0  0
 35 68  1  0  0  0
 36 56  1  0  0  0
 36105  1  0  0  0
 37 39  1  0  0  0
 37 47  1  0  0  0
 37 66  1  0  0  0
 37106  1  0  0  0
 38 43  2  0  0  0
 38 46  1  0  0  0
 38 47  1  0  0  0
 39 64  1  0  0  0
 39 67  2  0  0  0
 40 52  1  0  0  0
 40 53  2  0  0  0
 40 58  1  0  0  0
 41107  1  0  0  0
 41108  1  0  0  0
 41109  1  0  0  0
 41 48  1  0  0  0
 42 43  1  0  0  0
 42 66  1  0  0  0
 42110  1  0  0  0
 42111  1  0  0  0
 43 44  1  0  0  0
 44112  1  0  0  0
 45 46  2  0  0  0
 45113  1  0  0  0
 46114  1  0  0  0
 47115  1  0  0  0
 47116  1  0  0  0
 48 56  1  0  0  0
 48 65  1  0  0  0
 48117  1  0  0  0
 49 50  1  0  0  0
 49 53  1  0  0  0
 49 64  1  0  0  0
 49118  1  0  0  0
 50 51  1  0  0  0
 50119  1  0  0  0
 50120  1  0  0  0
 51 52  1  0  0  0
 51121  1  0  0  0
 51122  1  0  0  0
 52123  1  0  0  0
 52124  1  0  0  0
 53 54  1  0  0  0
 54 55  2  0  0  0
 54125  1  0  0  0
 55 57  1  0  0  0
 55126  1  0  0  0
 56 69  2  0  0  0
 57 58  2  0  0  0
 57127  1  0  0  0
 58128  1  0  0  0
 59 60  1  0  0  0
 59 61  1  0  0  0
 59 62  1  0  0  0
 60129  1  0  0  0
 60130  1  0  0  0
 60131  1  0  0  0
 61132  1  0  0  0
 61133  1  0  0  0
 61134  1  0  0  0
 62135  1  0  0  0
 62136  1  0  0  0
 62137  1  0  0  0
 63 65  1  0  0  0
 63138  1  0  0  0
 63139  1  0  0  0
 63140  1  0  0  0
 64141  1  0  0  0
 65142  1  0  0  0
 68 77  1  0  0  0
 71 72  2  0  0  0
 71 77  1  0  0  0
 71143  1  0  0  0
 72 78  1  0  0  0
 72 80  1  0  0  0
 73 75  1  0  0  0
 73 80  1  0  0  0
 73144  1  0  0  0
 73145  1  0  0  0
 74 76  1  0  0  0
 74 80  1  0  0  0
 74146  1  0  0  0
 74147  1  0  0  0
 75 82  1  0  0  0
 75148  1  0  0  0
 75149  1  0  0  0
 76 79  1  0  0  0
 76 82  1  0  0  0
 76150  1  0  0  0
 77151  1  0  0  0
 77152  1  0  0  0
 78 83  1  0  0  0
 78153  1  0  0  0
 78154  1  0  0  0
 79 81  1  0  0  0
 79155  1  0  0  0
 79156  1  0  0  0
 81157  1  0  0  0
 82158  1  0  0  0
 82159  1  0  0  0
 83160  1  0  0  0
M  CHG  1  82   1
M  ISO  4   1 100  68 101  77 101  81 100
M  END
> <chiral flag>
0

> <version>
0

> <s_m_source_file>
/data/baiqing/PycharmProjects/Reinvent-master-3.2/result/LINK_invent/BTK/process_docking_weight1_custom_sum_contain_oxygen_bond_distance_aromatic_linkinvent_7_9_3/rearranged_h_0110.sdf

> <i_m_source_file_index>
13

> <r_mmod_Potential_Energy-OPLS-2005>
21.3000659942627

> <r_mmod_Stretch_Energy-OPLS-2005>
139.501068115234

> <r_mmod_Bend_Energy-OPLS-2005>
221.231216430664

> <r_mmod_Torsional_Energy-OPLS-2005>
297.931396484375

> <r_mmod_Improper_Torsional_Energy-OPLS-2005>
5.53280401229858

> <r_mmod_Van_der_Waal_Energy-OPLS-2005>
131.300094604492

> <r_mmod_Electrostatic_Energy-OPLS-2005>
-324.182067871094

> <r_mmod_Solvation_Energy-OPLS-2005>
-539.829528808594

> <b_mmod_Minimization_Converged-OPLS-2005>
0

> <r_mmod_RMS_Derivative-OPLS-2005>
2.6733705997467

$$$$
14
                    3D
 Structure written by MMmdl.
156164  0  0  1  0            999 V2000
  -30.5469  -15.0525   20.3983 C   0  0  0  0  0  0
  -30.4229  -12.6573   19.5053 C   0  0  0  0  0  0
  -29.5171  -12.5409   18.2587 C   0  0  0  0  0  0
  -28.0530  -12.3186   18.6788 C   0  0  0  0  0  0
  -27.6176  -13.2660   19.8281 C   0  0  2  0  0  0
  -28.6609  -13.3611   20.9605 C   0  0  0  0  0  0
  -25.2411  -13.8248   20.5749 C   0  0  0  0  0  0
  -24.1752  -13.0443   20.9231 C   0  0  0  0  0  0
  -24.6389  -11.6935   20.8748 C   0  0  0  0  0  0
  -23.9084  -10.4299   21.0406 C   0  0  0  0  0  0
  -24.3634   -9.4215   21.9183 C   0  0  0  0  0  0
  -23.6312   -8.2251   22.0754 C   0  0  0  0  0  0
  -22.4296   -8.0280   21.3550 C   0  0  0  0  0  0
  -21.9934   -9.0247   20.4647 C   0  0  0  0  0  0
  -22.7257  -10.2132   20.3058 C   0  0  0  0  0  0
  -21.6851   -6.0741   22.5289 C   0  0  0  0  0  0
  -21.4010   -6.5647   23.8220 C   0  0  0  0  0  0
  -21.3666   -5.6804   24.9185 C   0  0  0  0  0  0
  -21.6048   -4.3062   24.7237 C   0  0  0  0  0  0
  -21.8821   -3.8153   23.4355 C   0  0  0  0  0  0
  -21.9192   -4.6968   22.3412 C   0  0  0  0  0  0
  -22.7770  -13.5188   21.1888 C   0  0  0  0  0  0
  -22.1660   -4.2156   21.0987 F   0  0  0  0  0  0
  -21.5640   -3.4543   25.7744 F   0  0  0  0  0  0
  -29.9153  -13.7976   20.3363 N   0  0  0  0  0  0
  -26.2840  -12.9508   20.3259 N   0  0  0  0  0  0
  -25.9328  -11.6615   20.5729 N   0  0  0  0  0  0
  -22.0440  -12.8160   22.0440 N   0  0  0  0  0  0
  -25.4080  -15.1977   20.4214 N   0  0  0  0  0  0
  -31.7626  -15.0258   20.1633 O   0  0  0  0  0  0
  -21.6650   -6.8883   21.4253 O   0  0  0  0  0  0
  -22.3448  -14.5492   20.6739 O   0  0  0  0  0  0
  -24.6514  -31.8335   23.1810 C   0  0  0  0  0  0
  -25.9239  -32.4644   23.8233 C   0  0  1  0  0  0
  -27.2179  -27.0484   20.1645 C   0  0  0  0  0  0
  -25.5955  -33.8458   24.2136 N   0  0  0  0  0  0
  -23.4593  -30.4511   21.5288 C   0  0  2  0  0  0
  -24.9103  -28.8605   20.1148 C   0  0  0  0  0  0
  -22.7595  -29.4494   22.4826 C   0  0  0  0  0  0
  -18.0287  -28.1394   22.8464 C   0  0  0  0  0  0
  -24.1485  -36.7237   23.2647 C   0  0  0  0  0  0
  -26.0228  -30.6820   21.3923 C   0  0  0  0  0  0
  -26.0933  -29.2852   20.7335 C   0  0  0  0  0  0
  -27.2476  -28.3984   20.7344 C   0  0  0  0  0  0
  -26.0058  -26.7474   19.5044 C   0  0  0  0  0  0
  -24.8847  -27.6086   19.4831 C   0  0  0  0  0  0
  -23.6907  -29.7712   20.1532 C   0  0  0  0  0  0
  -25.4124  -36.2995   24.0299 C   0  0  1  0  0  0
  -20.5907  -28.3732   23.1193 C   0  0  2  0  0  0
  -20.6780  -26.9427   22.5390 C   0  0  0  0  0  0
  -19.5765  -26.6372   21.5186 C   0  0  0  0  0  0
  -18.1931  -26.7932   22.1591 C   0  0  0  0  0  0
  -19.1552  -28.8880   23.2810 C   0  0  0  0  0  0
  -18.9475  -30.1472   23.8848 C   0  0  0  0  0  0
  -17.6472  -30.6597   24.0546 C   0  0  0  0  0  0
  -25.9077  -34.9374   23.5029 C   0  0  0  0  0  0
  -16.5358  -29.9083   23.6351 C   0  0  0  0  0  0
  -16.7269  -28.6496   23.0377 C   0  0  0  0  0  0
  -26.4543  -31.6564   25.0721 C   0  0  0  0  0  0
  -25.3702  -31.3777   26.1400 C   0  0  0  0  0  0
  -27.0460  -30.2955   24.6396 C   0  0  0  0  0  0
  -27.6048  -32.4371   25.7501 C   0  0  0  0  0  0
  -27.5570  -37.1760   24.8465 C   0  0  0  0  0  0
  -21.4276  -29.3040   22.3562 N   0  0  0  0  0  0
  -26.4282  -37.3717   23.9399 N   0  0  0  0  0  0
  -24.7313  -31.0122   22.0875 N   0  0  0  0  0  0
  -23.4198  -28.8044   23.3001 O   0  0  0  0  0  0
  -28.2522  -26.0129   20.2339 O   0  0  0  0  0  0
  -26.5680  -34.8885   22.4615 O   0  0  0  0  0  0
  -23.5610  -32.1242   23.6981 O   0  0  0  0  0  0
  -29.3863  -18.8145   19.1858 C   0  0  0  0  0  0
  -29.0376  -18.7651   21.4808 C   0  0  0  0  0  0
  -30.1625  -17.3715   19.2945 C   0  0  0  0  0  0
  -29.7818  -17.2931   21.5628 C   0  0  0  0  0  0
  -29.4184  -19.8770   20.3821 C   0  0  0  0  0  0
  -28.5254  -21.3743   20.2605 C   0  0  0  0  0  0
  -27.9630  -24.4417   20.1387 C   0  0  0  0  0  0
  -28.9958  -23.0498   20.2965 C   0  0  2  0  0  0
  -29.8553  -16.3393   20.3775 N   0  0  0  0  0  0
  -30.0981  -23.2140   19.3244 N   0  3  0  0  0  0
  -31.4585  -12.7989   19.1927 H   0  0  0  0  0  0
  -30.4099  -11.7256   20.0752 H   0  0  0  0  0  0
  -29.8499  -11.7237   17.6181 H   0  0  0  0  0  0
  -29.5935  -13.4515   17.6616 H   0  0  0  0  0  0
  -27.9547  -11.2805   18.9996 H   0  0  0  0  0  0
  -27.3903  -12.4342   17.8204 H   0  0  0  0  0  0
  -27.5578  -14.2548   19.3713 H   0  0  0  0  0  0
  -28.7775  -12.4062   21.4756 H   0  0  0  0  0  0
  -28.3438  -14.0858   21.7110 H   0  0  0  0  0  0
  -25.2784   -9.5690   22.4752 H   0  0  0  0  0  0
  -24.0025   -7.4644   22.7474 H   0  0  0  0  0  0
  -21.0870   -8.8763   19.8944 H   0  0  0  0  0  0
  -22.3713  -10.9668   19.6164 H   0  0  0  0  0  0
  -21.1994   -7.6154   23.9720 H   0  0  0  0  0  0
  -21.1487   -6.0535   25.9087 H   0  0  0  0  0  0
  -22.0589   -2.7613   23.2858 H   0  0  0  0  0  0
  -22.4079  -11.9830   22.4834 H   0  0  0  0  0  0
  -21.1048  -13.1153   22.2640 H   0  0  0  0  0  0
  -24.6430  -15.8513   20.5461 H   0  0  0  0  0  0
  -26.2675  -15.6444   20.1295 H   0  0  0  0  0  0
  -26.7303  -32.5218   23.0954 H   0  0  0  0  0  0
  -25.0096  -33.9582   25.0284 H   0  0  0  0  0  0
  -22.7645  -31.2774   21.3646 H   0  0  0  0  0  0
  -23.3747  -35.9567   23.3285 H   0  0  0  0  0  0
  -24.3571  -36.8916   22.2069 H   0  0  0  0  0  0
  -23.7237  -37.6416   23.6724 H   0  0  0  0  0  0
  -26.1908  -31.4305   20.6173 H   0  0  0  0  0  0
  -26.8876  -30.7335   22.0433 H   0  0  0  0  0  0
  -28.1485  -28.7205   21.2382 H   0  0  0  0  0  0
  -25.8873  -25.7939   19.0138 H   0  0  0  0  0  0
  -23.9807  -27.2771   18.9895 H   0  0  0  0  0  0
  -23.8288  -30.5377   19.3903 H   0  0  0  0  0  0
  -22.8054  -29.2114   19.8461 H   0  0  0  0  0  0
  -25.1311  -36.1812   25.0791 H   0  0  0  0  0  0
  -20.9972  -28.3337   24.1326 H   0  0  0  0  0  0
  -20.5638  -26.2348   23.3617 H   0  0  0  0  0  0
  -21.6649  -26.7419   22.1209 H   0  0  0  0  0  0
  -19.6936  -25.6264   21.1255 H   0  0  0  0  0  0
  -19.6720  -27.3147   20.6682 H   0  0  0  0  0  0
  -17.4205  -26.6643   21.3995 H   0  0  0  0  0  0
  -18.0357  -26.0081   22.8996 H   0  0  0  0  0  0
  -19.7957  -30.7272   24.2218 H   0  0  0  0  0  0
  -17.5042  -31.6285   24.5134 H   0  0  0  0  0  0
  -15.5365  -30.2971   23.7731 H   0  0  0  0  0  0
  -15.8653  -28.0794   22.7158 H   0  0  0  0  0  0
  -24.5876  -30.7139   25.7700 H   0  0  0  0  0  0
  -24.8908  -32.2978   26.4755 H   0  0  0  0  0  0
  -25.7966  -30.8984   27.0224 H   0  0  0  0  0  0
  -26.3147  -29.6617   24.1377 H   0  0  0  0  0  0
  -27.4004  -29.7317   25.5033 H   0  0  0  0  0  0
  -27.9058  -30.4167   23.9803 H   0  0  0  0  0  0
  -27.2628  -33.3701   26.1994 H   0  0  0  0  0  0
  -28.3901  -32.6897   25.0361 H   0  0  0  0  0  0
  -28.0677  -31.8565   26.5495 H   0  0  0  0  0  0
  -28.2553  -38.0085   24.7533 H   0  0  0  0  0  0
  -28.1092  -36.2611   24.6268 H   0  0  0  0  0  0
  -27.2292  -37.1385   25.8869 H   0  0  0  0  0  0
  -20.9494  -29.8753   21.6738 H   0  0  0  0  0  0
  -26.0134  -38.2769   24.1435 H   0  0  0  0  0  0
  -28.3400  -18.6021   18.9560 H   0  0  0  0  0  0
  -29.7600  -19.3182   18.2939 H   0  0  0  0  0  0
  -29.1434  -19.2333   22.4603 H   0  0  0  0  0  0
  -27.9688  -18.5707   21.3898 H   0  0  0  0  0  0
  -31.2328  -17.5819   19.3433 H   0  0  0  0  0  0
  -30.0279  -16.8602   18.3402 H   0  0  0  0  0  0
  -29.3231  -16.7353   22.3807 H   0  0  0  0  0  0
  -30.8096  -17.4614   21.8884 H   0  0  0  0  0  0
  -30.4603  -20.1516   20.5493 H   0  0  0  0  0  0
  -27.7659  -21.2973   21.0397 H   0  0  0  0  0  0
  -27.9400  -21.2702   19.3466 H   0  0  0  0  0  0
  -27.1658  -24.2815   20.8649 H   0  0  0  0  0  0
  -27.4755  -24.3066   19.1741 H   0  0  0  0  0  0
  -29.4629  -23.1771   21.2747 H   0  0  0  0  0  0
  -29.7775  -23.1066   18.3767 H   0  0  0  0  0  0
  -30.8239  -22.5391   19.4877 H   0  0  0  0  0  0
  -30.5085  -24.1298   19.4054 H   0  0  0  0  0  0
  1 25  1  0  0  0
  1 30  2  0  0  0
  1 79  1  0  0  0
  2  3  1  0  0  0
  2 25  1  0  0  0
  2 81  1  0  0  0
  2 82  1  0  0  0
  3  4  1  0  0  0
  3 83  1  0  0  0
  3 84  1  0  0  0
  4  5  1  0  0  0
  4 85  1  0  0  0
  4 86  1  0  0  0
  5  6  1  0  0  0
  5 26  1  0  0  0
  5 87  1  0  0  0
  6 25  1  0  0  0
  6 88  1  0  0  0
  6 89  1  0  0  0
  7  8  2  0  0  0
  7 26  1  0  0  0
  7 29  1  0  0  0
  8  9  1  0  0  0
  8 22  1  0  0  0
  9 10  1  0  0  0
  9 27  2  0  0  0
 10 11  2  0  0  0
 10 15  1  0  0  0
 11 12  1  0  0  0
 11 90  1  0  0  0
 12 13  2  0  0  0
 12 91  1  0  0  0
 13 14  1  0  0  0
 13 31  1  0  0  0
 14 15  2  0  0  0
 14 92  1  0  0  0
 15 93  1  0  0  0
 16 17  2  0  0  0
 16 21  1  0  0  0
 16 31  1  0  0  0
 17 18  1  0  0  0
 17 94  1  0  0  0
 18 19  2  0  0  0
 18 95  1  0  0  0
 19 20  1  0  0  0
 19 24  1  0  0  0
 20 21  2  0  0  0
 20 96  1  0  0  0
 21 23  1  0  0  0
 22 28  1  0  0  0
 22 32  2  0  0  0
 26 27  1  0  0  0
 28 97  1  0  0  0
 28 98  1  0  0  0
 29 99  1  0  0  0
 29100  1  0  0  0
 33 34  1  0  0  0
 33 66  1  0  0  0
 33 70  2  0  0  0
 34 36  1  0  0  0
 34 59  1  0  0  0
 34101  1  0  0  0
 35 44  2  0  0  0
 35 45  1  0  0  0
 35 68  1  0  0  0
 36 56  1  0  0  0
 36102  1  0  0  0
 37 39  1  0  0  0
 37 47  1  0  0  0
 37 66  1  0  0  0
 37103  1  0  0  0
 38 43  2  0  0  0
 38 46  1  0  0  0
 38 47  1  0  0  0
 39 64  1  0  0  0
 39 67  2  0  0  0
 40 52  1  0  0  0
 40 53  2  0  0  0
 40 58  1  0  0  0
 41104  1  0  0  0
 41105  1  0  0  0
 41106  1  0  0  0
 41 48  1  0  0  0
 42 43  1  0  0  0
 42 66  1  0  0  0
 42107  1  0  0  0
 42108  1  0  0  0
 43 44  1  0  0  0
 44109  1  0  0  0
 45 46  2  0  0  0
 45110  1  0  0  0
 46111  1  0  0  0
 47112  1  0  0  0
 47113  1  0  0  0
 48 56  1  0  0  0
 48 65  1  0  0  0
 48114  1  0  0  0
 49 50  1  0  0  0
 49 53  1  0  0  0
 49 64  1  0  0  0
 49115  1  0  0  0
 50 51  1  0  0  0
 50116  1  0  0  0
 50117  1  0  0  0
 51 52  1  0  0  0
 51118  1  0  0  0
 51119  1  0  0  0
 52120  1  0  0  0
 52121  1  0  0  0
 53 54  1  0  0  0
 54 55  2  0  0  0
 54122  1  0  0  0
 55 57  1  0  0  0
 55123  1  0  0  0
 56 69  2  0  0  0
 57 58  2  0  0  0
 57124  1  0  0  0
 58125  1  0  0  0
 59 60  1  0  0  0
 59 61  1  0  0  0
 59 62  1  0  0  0
 60126  1  0  0  0
 60127  1  0  0  0
 60128  1  0  0  0
 61129  1  0  0  0
 61130  1  0  0  0
 61131  1  0  0  0
 62132  1  0  0  0
 62133  1  0  0  0
 62134  1  0  0  0
 63 65  1  0  0  0
 63135  1  0  0  0
 63136  1  0  0  0
 63137  1  0  0  0
 64138  1  0  0  0
 65139  1  0  0  0
 68 77  1  0  0  0
 71 73  1  0  0  0
 71 75  1  0  0  0
 71140  1  0  0  0
 71141  1  0  0  0
 72 74  1  0  0  0
 72 75  1  0  0  0
 72142  1  0  0  0
 72143  1  0  0  0
 73 79  1  0  0  0
 73144  1  0  0  0
 73145  1  0  0  0
 74 79  1  0  0  0
 74146  1  0  0  0
 74147  1  0  0  0
 75 76  1  0  0  0
 75148  1  0  0  0
 76 78  1  0  0  0
 76149  1  0  0  0
 76150  1  0  0  0
 77 78  1  0  0  0
 77151  1  0  0  0
 77152  1  0  0  0
 78 80  1  0  0  0
 78153  1  0  0  0
 80154  1  0  0  0
 80155  1  0  0  0
 80156  1  0  0  0
M  CHG  1  80   1
M  ISO  4   1 100  68 101  77 101  79 100
M  END
> <chiral flag>
0

> <version>
0

> <s_m_source_file>
/data/baiqing/PycharmProjects/Reinvent-master-3.2/result/LINK_invent/BTK/process_docking_weight1_custom_sum_contain_oxygen_bond_distance_aromatic_linkinvent_7_9_3/rearranged_h_0110.sdf

> <i_m_source_file_index>
14

> <r_mmod_Potential_Energy-OPLS-2005>
836.120056152344

> <r_mmod_Stretch_Energy-OPLS-2005>
375.959197998047

> <r_mmod_Bend_Energy-OPLS-2005>
368.076171875

> <r_mmod_Torsional_Energy-OPLS-2005>
349.439971923828

> <r_mmod_Improper_Torsional_Energy-OPLS-2005>
13.8037633895874

> <r_mmod_Van_der_Waal_Energy-OPLS-2005>
115.857406616211

> <r_mmod_Electrostatic_Energy-OPLS-2005>
-200.40266418457

> <r_mmod_Solvation_Energy-OPLS-2005>
-460.078979492188

> <b_mmod_Minimization_Converged-OPLS-2005>
0

> <r_mmod_RMS_Derivative-OPLS-2005>
2.18379497528076

$$$$
15
                    3D
 Structure written by MMmdl.
159167  0  0  1  0            999 V2000
  -30.5234  -14.9258   20.4497 C   0  0  0  0  0  0
  -30.4494  -12.5845   19.4724 C   0  0  0  0  0  0
  -29.5165  -12.5234   18.2395 C   0  0  0  0  0  0
  -28.0460  -12.3203   18.6585 C   0  0  0  0  0  0
  -27.6319  -13.2360   19.8398 C   0  0  2  0  0  0
  -28.6820  -13.2243   20.9692 C   0  0  0  0  0  0
  -25.2488  -13.8180   20.5710 C   0  0  0  0  0  0
  -24.1787  -13.0410   20.9222 C   0  0  0  0  0  0
  -24.6391  -11.6907   20.8756 C   0  0  0  0  0  0
  -23.9067  -10.4282   21.0407 C   0  0  0  0  0  0
  -24.3621   -9.4190   21.9172 C   0  0  0  0  0  0
  -23.6303   -8.2229   22.0748 C   0  0  0  0  0  0
  -22.4281   -8.0267   21.3547 C   0  0  0  0  0  0
  -21.9923   -9.0227   20.4629 C   0  0  0  0  0  0
  -22.7248  -10.2110   20.3038 C   0  0  0  0  0  0
  -21.6848   -6.0722   22.5268 C   0  0  0  0  0  0
  -21.4005   -6.5633   23.8193 C   0  0  0  0  0  0
  -21.3667   -5.6788   24.9160 C   0  0  0  0  0  0
  -21.6050   -4.3055   24.7213 C   0  0  0  0  0  0
  -21.8824   -3.8139   23.4339 C   0  0  0  0  0  0
  -21.9198   -4.6958   22.3392 C   0  0  0  0  0  0
  -22.7809  -13.5189   21.1863 C   0  0  0  0  0  0
  -22.1664   -4.2145   21.0972 F   0  0  0  0  0  0
  -21.5643   -3.4537   25.7729 F   0  0  0  0  0  0
  -29.9456  -13.6630   20.3644 N   0  0  0  0  0  0
  -26.2901  -12.9385   20.3262 N   0  0  0  0  0  0
  -25.9321  -11.6530   20.5747 N   0  0  0  0  0  0
  -22.0479  -12.8153   22.0427 N   0  0  0  0  0  0
  -25.4159  -15.1899   20.4111 N   0  0  0  0  0  0
  -31.7387  -15.0159   20.2467 O   0  0  0  0  0  0
  -21.6647   -6.8870   21.4233 O   0  0  0  0  0  0
  -22.3488  -14.5492   20.6713 O   0  0  0  0  0  0
  -24.6426  -31.8408   23.1849 C   0  0  0  0  0  0
  -25.9168  -32.4677   23.8238 C   0  0  1  0  0  0
  -27.1954  -27.1261   20.1641 C   0  0  0  0  0  0
  -25.5881  -33.8476   24.2140 N   0  0  0  0  0  0
  -23.4433  -30.4636   21.5296 C   0  0  2  0  0  0
  -24.8852  -28.8817   20.1141 C   0  0  0  0  0  0
  -22.7565  -29.4508   22.4810 C   0  0  0  0  0  0
  -18.0277  -28.1439   22.8456 C   0  0  0  0  0  0
  -24.1452  -36.7238   23.2660 C   0  0  0  0  0  0
  -25.9993  -30.7180   21.3768 C   0  0  0  0  0  0
  -26.0644  -29.3247   20.7284 C   0  0  0  0  0  0
  -27.2249  -28.4640   20.7257 C   0  0  0  0  0  0
  -25.9901  -26.7693   19.5315 C   0  0  0  0  0  0
  -24.8597  -27.6202   19.4980 C   0  0  0  0  0  0
  -23.6717  -29.7987   20.1474 C   0  0  0  0  0  0
  -25.4087  -36.2996   24.0321 C   0  0  1  0  0  0
  -20.5901  -28.3709   23.1254 C   0  0  2  0  0  0
  -20.6741  -26.9407   22.5436 C   0  0  0  0  0  0
  -19.5722  -26.6395   21.5229 C   0  0  0  0  0  0
  -18.1895  -26.7968   22.1624 C   0  0  0  0  0  0
  -19.1556  -28.8890   23.2840 C   0  0  0  0  0  0
  -18.9500  -30.1480   23.8879 C   0  0  0  0  0  0
  -17.6512  -30.6624   24.0569 C   0  0  0  0  0  0
  -25.9067  -34.9389   23.5060 C   0  0  0  0  0  0
  -16.5383  -29.9138   23.6342 C   0  0  0  0  0  0
  -16.7281  -28.6575   23.0319 C   0  0  0  0  0  0
  -26.4496  -31.6547   25.0685 C   0  0  0  0  0  0
  -25.3672  -31.3715   26.1375 C   0  0  0  0  0  0
  -27.0344  -30.2959   24.6197 C   0  0  0  0  0  0
  -27.6029  -32.4296   25.7464 C   0  0  0  0  0  0
  -27.5516  -37.1748   24.8475 C   0  0  0  0  0  0
  -21.4243  -29.3032   22.3609 N   0  0  0  0  0  0
  -26.4215  -37.3730   23.9457 N   0  0  0  0  0  0
  -24.7153  -31.0270   22.0884 N   0  0  0  0  0  0
  -23.4236  -28.8019   23.2913 O   0  0  0  0  0  0
  -28.2938  -26.2070   20.0749 O   0  0  0  0  0  0
  -26.5717  -34.8902   22.4674 O   0  0  0  0  0  0
  -23.5539  -32.1253   23.7115 O   0  0  0  0  0  0
  -30.1149  -23.0502   21.2244 C   0  0  0  0  0  0
  -29.9205  -24.4940   20.6886 C   0  0  0  0  0  0
  -28.0151  -23.2315   20.1862 C   0  0  0  0  0  0
  -29.1826  -22.0664   20.4586 C   0  0  2  0  0  0
  -28.4156  -24.7750   20.6677 C   0  0  2  0  0  0
  -27.6631  -20.2974   21.6699 C   0  0  0  0  0  0
  -30.0377  -20.4143   22.3466 C   0  0  0  0  0  0
  -29.4249  -19.0240   20.3009 C   0  0  0  0  0  0
  -29.9159  -17.5715   21.0367 C   0  0  0  0  0  0
  -29.0863  -20.4740   21.1217 C   0  0  0  0  0  0
  -29.7003  -16.0789   20.5649 N   0  0  0  0  0  0
  -31.4743  -12.7753   19.1507 H   0  0  0  0  0  0
  -30.4715  -11.6284   19.9964 H   0  0  0  0  0  0
  -29.8268  -11.7187   17.5721 H   0  0  0  0  0  0
  -29.6050  -13.4487   17.6669 H   0  0  0  0  0  0
  -27.9276  -11.2746   18.9455 H   0  0  0  0  0  0
  -27.3839  -12.4786   17.8071 H   0  0  0  0  0  0
  -27.6029  -14.2466   19.4316 H   0  0  0  0  0  0
  -28.7833  -12.2253   21.3974 H   0  0  0  0  0  0
  -28.3880  -13.8826   21.7890 H   0  0  0  0  0  0
  -25.2768   -9.5663   22.4741 H   0  0  0  0  0  0
  -24.0008   -7.4618   22.7473 H   0  0  0  0  0  0
  -21.0858   -8.8723   19.8930 H   0  0  0  0  0  0
  -22.3700  -10.9633   19.6139 H   0  0  0  0  0  0
  -21.1982   -7.6137   23.9687 H   0  0  0  0  0  0
  -21.1492   -6.0525   25.9061 H   0  0  0  0  0  0
  -22.0607   -2.7607   23.2830 H   0  0  0  0  0  0
  -22.4156  -11.9819   22.4778 H   0  0  0  0  0  0
  -21.1078  -13.1111   22.2610 H   0  0  0  0  0  0
  -24.6495  -15.8433   20.5315 H   0  0  0  0  0  0
  -26.2430  -15.6250   20.0248 H   0  0  0  0  0  0
  -26.7224  -32.5284   23.0941 H   0  0  0  0  0  0
  -24.9844  -33.9582   25.0160 H   0  0  0  0  0  0
  -22.7457  -31.2904   21.3752 H   0  0  0  0  0  0
  -23.3699  -35.9578   23.3346 H   0  0  0  0  0  0
  -24.3547  -36.8871   22.2069 H   0  0  0  0  0  0
  -23.7229  -37.6451   23.6709 H   0  0  0  0  0  0
  -26.1476  -31.4676   20.5982 H   0  0  0  0  0  0
  -26.8739  -30.7771   22.0113 H   0  0  0  0  0  0
  -28.1373  -28.8082   21.1912 H   0  0  0  0  0  0
  -25.9142  -25.8049   19.0529 H   0  0  0  0  0  0
  -23.9624  -27.2865   18.9955 H   0  0  0  0  0  0
  -23.8311  -30.5805   19.4034 H   0  0  0  0  0  0
  -22.7793  -29.2598   19.8208 H   0  0  0  0  0  0
  -25.1255  -36.1795   25.0808 H   0  0  0  0  0  0
  -21.0007  -28.3293   24.1374 H   0  0  0  0  0  0
  -20.5612  -26.2303   23.3648 H   0  0  0  0  0  0
  -21.6600  -26.7368   22.1249 H   0  0  0  0  0  0
  -19.6875  -25.6309   21.1251 H   0  0  0  0  0  0
  -19.6705  -27.3201   20.6768 H   0  0  0  0  0  0
  -17.4173  -26.6735   21.4029 H   0  0  0  0  0  0
  -18.0251  -26.0158   22.9066 H   0  0  0  0  0  0
  -19.8005  -30.7279   24.2247 H   0  0  0  0  0  0
  -17.5102  -31.6306   24.5176 H   0  0  0  0  0  0
  -15.5401  -30.3066   23.7685 H   0  0  0  0  0  0
  -15.8668  -28.0936   22.6993 H   0  0  0  0  0  0
  -24.6029  -30.6834   25.7763 H   0  0  0  0  0  0
  -24.8646  -32.2854   26.4550 H   0  0  0  0  0  0
  -25.8005  -30.9169   27.0307 H   0  0  0  0  0  0
  -26.2925  -29.6693   24.1238 H   0  0  0  0  0  0
  -27.4067  -29.7228   25.4704 H   0  0  0  0  0  0
  -27.8765  -30.4237   23.9401 H   0  0  0  0  0  0
  -27.2678  -33.3725   26.1779 H   0  0  0  0  0  0
  -28.3957  -32.6615   25.0350 H   0  0  0  0  0  0
  -28.0511  -31.8561   26.5594 H   0  0  0  0  0  0
  -28.2495  -38.0058   24.7512 H   0  0  0  0  0  0
  -28.1028  -36.2596   24.6281 H   0  0  0  0  0  0
  -27.2272  -37.1374   25.8883 H   0  0  0  0  0  0
  -20.9427  -29.8917   21.6959 H   0  0  0  0  0  0
  -26.0066  -38.2774   24.1587 H   0  0  0  0  0  0
  -29.8164  -23.1012   22.2705 H   0  0  0  0  0  0
  -31.1622  -22.7508   21.1910 H   0  0  0  0  0  0
  -30.3055  -24.5537   19.6671 H   0  0  0  0  0  0
  -30.4557  -25.2318   21.2845 H   0  0  0  0  0  0
  -27.0714  -22.9461   20.6519 H   0  0  0  0  0  0
  -27.8163  -23.2419   19.1153 H   0  0  0  0  0  0
  -29.6520  -21.9097   19.4876 H   0  0  0  0  0  0
  -28.0799  -24.8669   21.7045 H   0  0  0  0  0  0
  -27.3506  -21.1569   22.2626 H   0  0  0  0  0  0
  -27.5918  -19.4199   22.3162 H   0  0  0  0  0  0
  -26.9430  -20.1623   20.8613 H   0  0  0  0  0  0
  -29.8293  -21.1772   23.0934 H   0  0  0  0  0  0
  -31.0816  -20.5068   22.0433 H   0  0  0  0  0  0
  -29.9574  -19.4822   22.9031 H   0  0  0  0  0  0
  -28.5479  -18.7937   19.6963 H   0  0  0  0  0  0
  -30.1912  -19.2645   19.5627 H   0  0  0  0  0  0
  -29.4058  -17.5569   21.9989 H   0  0  0  0  0  0
  -30.9709  -17.6710   21.2918 H   0  0  0  0  0  0
  -28.7238  -15.8223   20.5385 H   0  0  0  0  0  0
  1 25  1  0  0  0
  1 30  2  0  0  0
  1 81  1  0  0  0
  2  3  1  0  0  0
  2 25  1  0  0  0
  2 82  1  0  0  0
  2 83  1  0  0  0
  3  4  1  0  0  0
  3 84  1  0  0  0
  3 85  1  0  0  0
  4  5  1  0  0  0
  4 86  1  0  0  0
  4 87  1  0  0  0
  5  6  1  0  0  0
  5 26  1  0  0  0
  5 88  1  0  0  0
  6 25  1  0  0  0
  6 89  1  0  0  0
  6 90  1  0  0  0
  7  8  2  0  0  0
  7 26  1  0  0  0
  7 29  1  0  0  0
  8  9  1  0  0  0
  8 22  1  0  0  0
  9 10  1  0  0  0
  9 27  2  0  0  0
 10 11  2  0  0  0
 10 15  1  0  0  0
 11 12  1  0  0  0
 11 91  1  0  0  0
 12 13  2  0  0  0
 12 92  1  0  0  0
 13 14  1  0  0  0
 13 31  1  0  0  0
 14 15  2  0  0  0
 14 93  1  0  0  0
 15 94  1  0  0  0
 16 17  2  0  0  0
 16 21  1  0  0  0
 16 31  1  0  0  0
 17 18  1  0  0  0
 17 95  1  0  0  0
 18 19  2  0  0  0
 18 96  1  0  0  0
 19 20  1  0  0  0
 19 24  1  0  0  0
 20 21  2  0  0  0
 20 97  1  0  0  0
 21 23  1  0  0  0
 22 28  1  0  0  0
 22 32  2  0  0  0
 26 27  1  0  0  0
 28 98  1  0  0  0
 28 99  1  0  0  0
 29100  1  0  0  0
 29101  1  0  0  0
 33 34  1  0  0  0
 33 66  1  0  0  0
 33 70  2  0  0  0
 34 36  1  0  0  0
 34 59  1  0  0  0
 34102  1  0  0  0
 35 44  2  0  0  0
 35 45  1  0  0  0
 35 68  1  0  0  0
 36 56  1  0  0  0
 36103  1  0  0  0
 37 39  1  0  0  0
 37 47  1  0  0  0
 37 66  1  0  0  0
 37104  1  0  0  0
 38 43  2  0  0  0
 38 46  1  0  0  0
 38 47  1  0  0  0
 39 64  1  0  0  0
 39 67  2  0  0  0
 40 52  1  0  0  0
 40 53  2  0  0  0
 40 58  1  0  0  0
 41105  1  0  0  0
 41106  1  0  0  0
 41107  1  0  0  0
 41 48  1  0  0  0
 42 43  1  0  0  0
 42 66  1  0  0  0
 42108  1  0  0  0
 42109  1  0  0  0
 43 44  1  0  0  0
 44110  1  0  0  0
 45 46  2  0  0  0
 45111  1  0  0  0
 46112  1  0  0  0
 47113  1  0  0  0
 47114  1  0  0  0
 48 56  1  0  0  0
 48 65  1  0  0  0
 48115  1  0  0  0
 49 50  1  0  0  0
 49 53  1  0  0  0
 49 64  1  0  0  0
 49116  1  0  0  0
 50 51  1  0  0  0
 50117  1  0  0  0
 50118  1  0  0  0
 51 52  1  0  0  0
 51119  1  0  0  0
 51120  1  0  0  0
 52121  1  0  0  0
 52122  1  0  0  0
 53 54  1  0  0  0
 54 55  2  0  0  0
 54123  1  0  0  0
 55 57  1  0  0  0
 55124  1  0  0  0
 56 69  2  0  0  0
 57 58  2  0  0  0
 57125  1  0  0  0
 58126  1  0  0  0
 59 60  1  0  0  0
 59 61  1  0  0  0
 59 62  1  0  0  0
 60127  1  0  0  0
 60128  1  0  0  0
 60129  1  0  0  0
 61130  1  0  0  0
 61131  1  0  0  0
 61132  1  0  0  0
 62133  1  0  0  0
 62134  1  0  0  0
 62135  1  0  0  0
 63 65  1  0  0  0
 63136  1  0  0  0
 63137  1  0  0  0
 63138  1  0  0  0
 64139  1  0  0  0
 65140  1  0  0  0
 68 75  1  0  0  0
 71 72  1  0  0  0
 71141  1  0  0  0
 71142  1  0  0  0
 71 74  1  0  0  0
 72 75  1  0  0  0
 72143  1  0  0  0
 72144  1  0  0  0
 73 74  1  0  0  0
 73 75  1  0  0  0
 73145  1  0  0  0
 73146  1  0  0  0
 74 80  1  0  0  0
 74147  1  0  0  0
 75148  1  0  0  0
 76149  1  0  0  0
 76150  1  0  0  0
 76151  1  0  0  0
 76 80  1  0  0  0
 77 80  1  0  0  0
 77152  1  0  0  0
 77153  1  0  0  0
 77154  1  0  0  0
 78 79  1  0  0  0
 78 80  1  0  0  0
 78155  1  0  0  0
 78156  1  0  0  0
 79 81  1  0  0  0
 79157  1  0  0  0
 79158  1  0  0  0
 81159  1  0  0  0
M  ISO  4   1 100  68 101  75 101  81 100
M  END
> <chiral flag>
0

> <version>
0

> <s_m_source_file>
/data/baiqing/PycharmProjects/Reinvent-master-3.2/result/LINK_invent/BTK/process_docking_weight1_custom_sum_contain_oxygen_bond_distance_aromatic_linkinvent_7_9_3/rearranged_h_0110.sdf

> <i_m_source_file_index>
15

> <r_mmod_Potential_Energy-OPLS-2005>
693.47119140625

> <r_mmod_Stretch_Energy-OPLS-2005>
281.181945800781

> <r_mmod_Bend_Energy-OPLS-2005>
377.11669921875

> <r_mmod_Torsional_Energy-OPLS-2005>
313.50341796875

> <r_mmod_Improper_Torsional_Energy-OPLS-2005>
5.22430467605591

> <r_mmod_Van_der_Waal_Energy-OPLS-2005>
116.710014343262

> <r_mmod_Electrostatic_Energy-OPLS-2005>
-380.590301513672

> <r_mmod_Solvation_Energy-OPLS-2005>
-197.788848876953

> <b_mmod_Minimization_Converged-OPLS-2005>
0

> <r_mmod_RMS_Derivative-OPLS-2005>
4.36680269241333

$$$$
16
                    3D
 Structure written by MMmdl.
175184  0  0  1  0            999 V2000
  -29.8940  -16.3385   20.3790 C   0  0  0  0  0  0
  -30.2865  -13.6479   19.5531 C   0  0  0  0  0  0
  -29.5376  -12.8594   18.4101 C   0  0  0  0  0  0
  -28.1976  -12.3137   18.9016 C   0  0  0  0  0  0
  -27.5506  -13.3599   19.8215 C   0  0  2  0  0  0
  -28.4790  -13.9723   20.9098 C   0  0  0  0  0  0
  -25.2110  -13.8325   20.5894 C   0  0  0  0  0  0
  -24.1577  -13.0407   20.9324 C   0  0  0  0  0  0
  -24.6356  -11.6933   20.8773 C   0  0  0  0  0  0
  -23.9120  -10.4262   21.0386 C   0  0  0  0  0  0
  -24.3671   -9.4181   21.9160 C   0  0  0  0  0  0
  -23.6321   -8.2229   22.0757 C   0  0  0  0  0  0
  -22.4293   -8.0275   21.3551 C   0  0  0  0  0  0
  -21.9941   -9.0246   20.4638 C   0  0  0  0  0  0
  -22.7296  -10.2104   20.3039 C   0  0  0  0  0  0
  -21.6840   -6.0758   22.5298 C   0  0  0  0  0  0
  -21.3997   -6.5655   23.8242 C   0  0  0  0  0  0
  -21.3657   -5.6791   24.9192 C   0  0  0  0  0  0
  -21.6050   -4.3066   24.7217 C   0  0  0  0  0  0
  -21.8824   -3.8168   23.4340 C   0  0  0  0  0  0
  -21.9184   -4.6986   22.3403 C   0  0  0  0  0  0
  -22.7591  -13.5090   21.1923 C   0  0  0  0  0  0
  -22.1655   -4.2187   21.0975 F   0  0  0  0  0  0
  -21.5628   -3.4542   25.7730 F   0  0  0  0  0  0
  -29.4750  -14.8545   20.2146 N   0  0  0  0  0  0
  -26.2555  -12.9717   20.3359 N   0  0  0  0  0  0
  -25.9317  -11.6742   20.5712 N   0  0  0  0  0  0
  -22.0293  -12.8057   22.0480 N   0  0  0  0  0  0
  -25.3633  -15.2086   20.4316 N   0  0  0  0  0  0
  -31.1439  -16.1160   20.2921 O   0  0  0  0  0  0
  -21.6636   -6.8893   21.4264 O   0  0  0  0  0  0
  -22.3267  -14.5389   20.6765 O   0  0  0  0  0  0
  -24.6614  -31.7149   23.1255 C   0  0  0  0  0  0
  -25.9167  -32.4012   23.7730 C   0  0  1  0  0  0
  -27.8770  -26.8297   19.6794 C   0  0  0  0  0  0
  -25.5692  -33.7930   24.1522 N   0  0  0  0  0  0
  -23.5097  -30.1752   21.5308 C   0  0  2  0  0  0
  -24.8769  -28.0358   20.4511 C   0  0  0  0  0  0
  -22.7373  -29.3607   22.5600 C   0  0  0  0  0  0
  -18.0120  -28.1399   22.8469 C   0  0  0  0  0  0
  -24.1494  -36.7008   23.2671 C   0  0  0  0  0  0
  -26.0180  -30.1556   21.5851 C   0  0  0  0  0  0
  -26.1166  -28.5686   21.2067 C   0  0  0  0  0  0
  -27.5528  -27.8994   20.9415 C   0  0  0  0  0  0
  -26.4757  -26.2502   18.7778 C   0  0  0  0  0  0
  -24.9985  -26.8883   19.3163 C   0  0  0  0  0  0
  -23.7513  -29.1658   20.3307 C   0  0  0  0  0  0
  -25.4164  -36.2666   24.0231 C   0  0  1  0  0  0
  -20.5623  -28.3520   23.1504 C   0  0  2  0  0  0
  -20.6540  -26.9267   22.5552 C   0  0  0  0  0  0
  -19.5631  -26.6383   21.5223 C   0  0  0  0  0  0
  -18.1779  -26.7942   22.1588 C   0  0  0  0  0  0
  -19.1357  -28.8823   23.2931 C   0  0  0  0  0  0
  -18.9348  -30.1424   23.8951 C   0  0  0  0  0  0
  -17.6374  -30.6618   24.0566 C   0  0  0  0  0  0
  -25.9114  -34.9043   23.4817 C   0  0  0  0  0  0
  -16.5247  -29.9155   23.6293 C   0  0  0  0  0  0
  -16.7129  -28.6564   23.0303 C   0  0  0  0  0  0
  -26.4537  -31.6400   25.0541 C   0  0  0  0  0  0
  -25.3606  -31.3847   26.1194 C   0  0  0  0  0  0
  -27.0616  -30.2710   24.6817 C   0  0  0  0  0  0
  -27.5924  -32.4495   25.7227 C   0  0  0  0  0  0
  -27.5545  -37.1605   24.8470 C   0  0  0  0  0  0
  -21.4103  -29.2718   22.4049 N   0  0  0  0  0  0
  -26.4269  -37.3476   23.9381 N   0  0  0  0  0  0
  -24.7541  -30.7425   22.1367 N   0  0  0  0  0  0
  -23.3546  -28.7477   23.4315 O   0  0  0  0  0  0
  -29.1276  -26.4484   19.4775 O   0  0  0  0  0  0
  -26.5970  -34.8707   22.4578 O   0  0  0  0  0  0
  -23.5628  -32.0878   23.5699 O   0  0  0  0  0  0
  -30.7627  -23.9192   20.6786 C   0  0  0  0  0  0
  -31.6628  -23.0599   19.8392 C   0  0  0  0  0  0
  -30.2673  -19.0790   19.9815 C   0  0  0  0  0  0
  -28.0773  -19.4684   20.5934 C   0  0  0  0  0  0
  -30.4039  -20.4386   20.8839 C   0  0  0  0  0  0
  -30.1519  -22.8176   19.8323 C   0  0  0  0  0  0
  -28.0506  -21.6165   20.5021 C   0  0  1  0  0  0
  -27.7819  -29.6459   18.9435 C   0  0  0  0  0  0
  -26.8886  -23.5524   20.7483 C   0  0  0  0  0  0
  -26.3715  -25.7692   20.9546 C   0  0  0  0  0  0
  -28.7910  -26.6942   16.8981 C   0  0  0  0  0  0
  -26.7149  -28.3510   17.2427 C   0  0  0  0  0  0
  -29.6989  -26.6174   18.1606 C   0  0  0  0  0  0
  -26.6300  -28.4971   18.8602 C   0  0  2  0  0  0
  -29.2892  -17.9802   20.3694 N   0  0  0  0  0  0
  -29.5570  -21.7419   20.6917 N   0  3  2  0  0  0
  -28.0780  -27.9924   16.7583 N   0  3  0  0  0  0
  -31.1961  -14.0364   19.0974 H   0  0  0  0  0  0
  -30.6597  -12.9569   20.3104 H   0  0  0  0  0  0
  -30.1551  -12.0545   18.0104 H   0  0  0  0  0  0
  -29.3566  -13.5378   17.5780 H   0  0  0  0  0  0
  -28.3789  -11.4003   19.4726 H   0  0  0  0  0  0
  -27.5445  -12.0448   18.0714 H   0  0  0  0  0  0
  -27.3277  -14.1765   19.1348 H   0  0  0  0  0  0
  -28.9192  -13.2104   21.5555 H   0  0  0  0  0  0
  -27.8994  -14.6097   21.5773 H   0  0  0  0  0  0
  -25.2825   -9.5658   22.4721 H   0  0  0  0  0  0
  -24.0048   -7.4619   22.7465 H   0  0  0  0  0  0
  -21.0893   -8.8749   19.8922 H   0  0  0  0  0  0
  -22.3757  -10.9639   19.6142 H   0  0  0  0  0  0
  -21.1983   -7.6160   23.9752 H   0  0  0  0  0  0
  -21.1468   -6.0517   25.9095 H   0  0  0  0  0  0
  -22.0600   -2.7633   23.2821 H   0  0  0  0  0  0
  -22.3990  -11.9755   22.4867 H   0  0  0  0  0  0
  -21.0898  -13.1025   22.2704 H   0  0  0  0  0  0
  -24.5873  -15.8522   20.5466 H   0  0  0  0  0  0
  -26.2104  -15.6572   20.1091 H   0  0  0  0  0  0
  -26.7087  -32.4384   23.0250 H   0  0  0  0  0  0
  -24.9489  -33.8987   24.9418 H   0  0  0  0  0  0
  -22.8830  -30.9976   21.1851 H   0  0  0  0  0  0
  -23.3770  -35.9326   23.3259 H   0  0  0  0  0  0
  -24.3523  -36.8786   22.2099 H   0  0  0  0  0  0
  -23.7275  -37.6141   23.6879 H   0  0  0  0  0  0
  -26.0814  -30.7224   20.6576 H   0  0  0  0  0  0
  -26.9133  -30.4486   22.1201 H   0  0  0  0  0  0
  -28.4160  -28.3119   21.4449 H   0  0  0  0  0  0
  -26.5017  -25.4948   18.0050 H   0  0  0  0  0  0
  -24.1058  -26.6236   18.7650 H   0  0  0  0  0  0
  -23.9216  -29.7647   19.4370 H   0  0  0  0  0  0
  -22.8227  -28.6453   20.0956 H   0  0  0  0  0  0
  -25.1410  -36.1360   25.0728 H   0  0  0  0  0  0
  -20.9497  -28.2995   24.1713 H   0  0  0  0  0  0
  -20.5303  -26.2112   23.3686 H   0  0  0  0  0  0
  -21.6440  -26.7246   22.1446 H   0  0  0  0  0  0
  -19.6775  -25.6320   21.1192 H   0  0  0  0  0  0
  -19.6658  -27.3262   20.6817 H   0  0  0  0  0  0
  -17.4066  -26.6676   21.3961 H   0  0  0  0  0  0
  -18.0140  -26.0080   22.8983 H   0  0  0  0  0  0
  -19.7834  -30.7170   24.2382 H   0  0  0  0  0  0
  -17.4943  -31.6296   24.5179 H   0  0  0  0  0  0
  -15.5267  -30.3118   23.7573 H   0  0  0  0  0  0
  -15.8490  -28.0946   22.6990 H   0  0  0  0  0  0
  -24.5783  -30.7178   25.7535 H   0  0  0  0  0  0
  -24.8807  -32.3119   26.4345 H   0  0  0  0  0  0
  -25.7758  -30.9194   27.0134 H   0  0  0  0  0  0
  -26.3320  -29.5967   24.2311 H   0  0  0  0  0  0
  -27.4328  -29.7593   25.5697 H   0  0  0  0  0  0
  -27.9177  -30.3722   24.0143 H   0  0  0  0  0  0
  -27.2382  -33.3898   26.1465 H   0  0  0  0  0  0
  -28.3783  -32.6907   25.0058 H   0  0  0  0  0  0
  -28.0571  -31.8945   26.5381 H   0  0  0  0  0  0
  -28.2517  -37.9930   24.7475 H   0  0  0  0  0  0
  -28.1078  -36.2436   24.6371 H   0  0  0  0  0  0
  -27.2230  -37.1296   25.8862 H   0  0  0  0  0  0
  -20.9685  -29.8130   21.6734 H   0  0  0  0  0  0
  -26.0051  -38.2504   24.1387 H   0  0  0  0  0  0
  -30.7049  -24.9542   20.3670 H   0  0  0  0  0  0
  -30.8240  -23.7842   21.7543 H   0  0  0  0  0  0
  -32.3791  -22.4848   20.4201 H   0  0  0  0  0  0
  -32.0809  -23.5009   18.9343 H   0  0  0  0  0  0
  -31.2583  -18.6237   19.9576 H   0  0  0  0  0  0
  -30.0825  -19.3575   18.9410 H   0  0  0  0  0  0
  -27.2186  -19.1687   19.9923 H   0  0  0  0  0  0
  -27.7488  -19.2821   21.6181 H   0  0  0  0  0  0
  -31.4522  -20.6996   20.8045 H   0  0  0  0  0  0
  -30.3174  -20.1509   21.9326 H   0  0  0  0  0  0
  -29.5564  -23.1260   18.9731 H   0  0  0  0  0  0
  -27.9699  -21.6354   19.4135 H   0  0  0  0  0  0
  -27.8957  -30.1525   19.8935 H   0  0  0  0  0  0
  -27.6063  -30.4606   18.2353 H   0  0  0  0  0  0
  -28.7907  -29.2780   18.7600 H   0  0  0  0  0  0
  -26.4407  -23.2579   21.7018 H   0  0  0  0  0  0
  -26.1239  -23.3182   20.0063 H   0  0  0  0  0  0
  -26.8001  -25.9600   21.9425 H   0  0  0  0  0  0
  -25.3408  -25.6673   21.3030 H   0  0  0  0  0  0
  -28.1416  -25.8283   16.7839 H   0  0  0  0  0  0
  -29.4438  -26.6338   16.0271 H   0  0  0  0  0  0
  -26.4700  -29.3015   16.7585 H   0  0  0  0  0  0
  -25.9731  -27.6757   16.8152 H   0  0  0  0  0  0
  -30.3625  -27.4836   18.1810 H   0  0  0  0  0  0
  -30.3624  -25.7636   18.0215 H   0  0  0  0  0  0
  -25.8038  -29.2063   18.7898 H   0  0  0  0  0  0
  -29.6150  -22.1515   21.6091 H   0  0  0  0  0  0
  -28.0880  -27.9070   17.7652 H   0  0  0  0  0  0
  -27.5373  -27.5411   16.0354 H   0  0  0  0  0  0
  1 25  1  0  0  0
  1 30  2  0  0  0
  1 85  1  0  0  0
  2  3  1  0  0  0
  2 25  1  0  0  0
  2 88  1  0  0  0
  2 89  1  0  0  0
  3  4  1  0  0  0
  3 90  1  0  0  0
  3 91  1  0  0  0
  4  5  1  0  0  0
  4 92  1  0  0  0
  4 93  1  0  0  0
  5  6  1  0  0  0
  5 26  1  0  0  0
  5 94  1  0  0  0
  6 25  1  0  0  0
  6 95  1  0  0  0
  6 96  1  0  0  0
  7  8  2  0  0  0
  7 26  1  0  0  0
  7 29  1  0  0  0
  8  9  1  0  0  0
  8 22  1  0  0  0
  9 10  1  0  0  0
  9 27  2  0  0  0
 10 11  2  0  0  0
 10 15  1  0  0  0
 11 12  1  0  0  0
 11 97  1  0  0  0
 12 13  2  0  0  0
 12 98  1  0  0  0
 13 14  1  0  0  0
 13 31  1  0  0  0
 14 15  2  0  0  0
 14 99  1  0  0  0
 15100  1  0  0  0
 16 17  2  0  0  0
 16 21  1  0  0  0
 16 31  1  0  0  0
 17 18  1  0  0  0
 17101  1  0  0  0
 18 19  2  0  0  0
 18102  1  0  0  0
 19 20  1  0  0  0
 19 24  1  0  0  0
 20 21  2  0  0  0
 20103  1  0  0  0
 21 23  1  0  0  0
 22 28  1  0  0  0
 22 32  2  0  0  0
 26 27  1  0  0  0
 28104  1  0  0  0
 28105  1  0  0  0
 29106  1  0  0  0
 29107  1  0  0  0
 33 34  1  0  0  0
 33 66  1  0  0  0
 33 70  2  0  0  0
 34 36  1  0  0  0
 34 59  1  0  0  0
 34108  1  0  0  0
 35 44  2  0  0  0
 35 45  1  0  0  0
 35 68  1  0  0  0
 36 56  1  0  0  0
 36109  1  0  0  0
 37 39  1  0  0  0
 37 47  1  0  0  0
 37 66  1  0  0  0
 37110  1  0  0  0
 38 43  2  0  0  0
 38 46  1  0  0  0
 38 47  1  0  0  0
 39 64  1  0  0  0
 39 67  2  0  0  0
 40 52  1  0  0  0
 40 53  2  0  0  0
 40 58  1  0  0  0
 41111  1  0  0  0
 41112  1  0  0  0
 41113  1  0  0  0
 41 48  1  0  0  0
 42 43  1  0  0  0
 42 66  1  0  0  0
 42114  1  0  0  0
 42115  1  0  0  0
 43 44  1  0  0  0
 44116  1  0  0  0
 45 46  2  0  0  0
 45117  1  0  0  0
 46118  1  0  0  0
 47119  1  0  0  0
 47120  1  0  0  0
 48 56  1  0  0  0
 48 65  1  0  0  0
 48121  1  0  0  0
 49 50  1  0  0  0
 49 53  1  0  0  0
 49 64  1  0  0  0
 49122  1  0  0  0
 50 51  1  0  0  0
 50123  1  0  0  0
 50124  1  0  0  0
 51 52  1  0  0  0
 51125  1  0  0  0
 51126  1  0  0  0
 52127  1  0  0  0
 52128  1  0  0  0
 53 54  1  0  0  0
 54 55  2  0  0  0
 54129  1  0  0  0
 55 57  1  0  0  0
 55130  1  0  0  0
 56 69  2  0  0  0
 57 58  2  0  0  0
 57131  1  0  0  0
 58132  1  0  0  0
 59 60  1  0  0  0
 59 61  1  0  0  0
 59 62  1  0  0  0
 60133  1  0  0  0
 60134  1  0  0  0
 60135  1  0  0  0
 61136  1  0  0  0
 61137  1  0  0  0
 61138  1  0  0  0
 62139  1  0  0  0
 62140  1  0  0  0
 62141  1  0  0  0
 63 65  1  0  0  0
 63142  1  0  0  0
 63143  1  0  0  0
 63144  1  0  0  0
 64145  1  0  0  0
 65146  1  0  0  0
 68 83  1  0  0  0
 71 72  1  0  0  0
 71147  1  0  0  0
 71148  1  0  0  0
 71 76  1  0  0  0
 72 76  1  0  0  0
 72149  1  0  0  0
 72150  1  0  0  0
 73 75  1  0  0  0
 73 85  1  0  0  0
 73151  1  0  0  0
 73152  1  0  0  0
 74 77  1  0  0  0
 74 85  1  0  0  0
 74153  1  0  0  0
 74154  1  0  0  0
 75155  1  0  0  0
 75156  1  0  0  0
 75 86  1  0  0  0
 76 86  1  0  0  0
 76157  1  0  0  0
 77 79  1  0  0  0
 77 86  1  0  0  0
 77158  1  0  0  0
 78159  1  0  0  0
 78160  1  0  0  0
 78161  1  0  0  0
 78 84  1  0  0  0
 79 80  1  0  0  0
 79162  1  0  0  0
 79163  1  0  0  0
 80 84  1  0  0  0
 80164  1  0  0  0
 80165  1  0  0  0
 81 83  1  0  0  0
 81 87  1  0  0  0
 81166  1  0  0  0
 81167  1  0  0  0
 82 84  1  0  0  0
 82 87  1  0  0  0
 82168  1  0  0  0
 82169  1  0  0  0
 83170  1  0  0  0
 83171  1  0  0  0
 84172  1  0  0  0
 86173  1  0  0  0
 87174  1  0  0  0
 87175  1  0  0  0
M  CHG  2  86   1  87   1
M  ISO  4   1 100  68 101  83 101  85 100
M  END
> <chiral flag>
0

> <version>
0

> <s_m_source_file>
/data/baiqing/PycharmProjects/Reinvent-master-3.2/result/LINK_invent/BTK/process_docking_weight1_custom_sum_contain_oxygen_bond_distance_aromatic_linkinvent_7_9_3/rearranged_h_0110.sdf

> <i_m_source_file_index>
16

> <r_mmod_Potential_Energy-OPLS-2005>
13041.248046875

> <r_mmod_Stretch_Energy-OPLS-2005>
7593.91357421875

> <r_mmod_Bend_Energy-OPLS-2005>
1447.27124023438

> <r_mmod_Torsional_Energy-OPLS-2005>
564.07763671875

> <r_mmod_Improper_Torsional_Energy-OPLS-2005>
27.4220294952393

> <r_mmod_Van_der_Waal_Energy-OPLS-2005>
1958.07495117188

> <r_mmod_Electrostatic_Energy-OPLS-2005>
85.8796157836914

> <r_mmod_Solvation_Energy-OPLS-2005>
-860.300415039062

> <b_mmod_Minimization_Converged-OPLS-2005>
0

> <r_mmod_RMS_Derivative-OPLS-2005>
8.13848400115967

$$$$
17
                    3D
 Structure written by MMmdl.
167174  0  0  1  0            999 V2000
  -30.5373  -14.9442   20.4332 C   0  0  0  0  0  0
  -30.4402  -12.5780   19.5229 C   0  0  0  0  0  0
  -29.5278  -12.5579   18.2709 C   0  0  0  0  0  0
  -28.0564  -12.3455   18.6720 C   0  0  0  0  0  0
  -27.6385  -13.2532   19.8601 C   0  0  2  0  0  0
  -28.6776  -13.2543   21.0039 C   0  0  0  0  0  0
  -25.2467  -13.8221   20.5720 C   0  0  0  0  0  0
  -24.1764  -13.0434   20.9180 C   0  0  0  0  0  0
  -24.6381  -11.6922   20.8728 C   0  0  0  0  0  0
  -23.9058  -10.4296   21.0398 C   0  0  0  0  0  0
  -24.3614   -9.4222   21.9186 C   0  0  0  0  0  0
  -23.6300   -8.2251   22.0771 C   0  0  0  0  0  0
  -22.4287   -8.0273   21.3553 C   0  0  0  0  0  0
  -21.9916   -9.0233   20.4652 C   0  0  0  0  0  0
  -22.7227  -10.2126   20.3063 C   0  0  0  0  0  0
  -21.6861   -6.0720   22.5283 C   0  0  0  0  0  0
  -21.4010   -6.5633   23.8213 C   0  0  0  0  0  0
  -21.3672   -5.6803   24.9181 C   0  0  0  0  0  0
  -21.6052   -4.3060   24.7238 C   0  0  0  0  0  0
  -21.8824   -3.8141   23.4364 C   0  0  0  0  0  0
  -21.9195   -4.6948   22.3411 C   0  0  0  0  0  0
  -22.7785  -13.5203   21.1865 C   0  0  0  0  0  0
  -22.1660   -4.2126   21.0988 F   0  0  0  0  0  0
  -21.5637   -3.4553   25.7757 F   0  0  0  0  0  0
  -29.9650  -13.6692   20.4282 N   0  0  0  0  0  0
  -26.2921  -12.9469   20.3333 N   0  0  0  0  0  0
  -25.9329  -11.6582   20.5739 N   0  0  0  0  0  0
  -22.0464  -12.8152   22.0419 N   0  0  0  0  0  0
  -25.4143  -15.1941   20.4144 N   0  0  0  0  0  0
  -31.6974  -15.0428   20.0192 O   0  0  0  0  0  0
  -21.6662   -6.8858   21.4246 O   0  0  0  0  0  0
  -22.3458  -14.5502   20.6719 O   0  0  0  0  0  0
  -24.6451  -31.8416   23.1888 C   0  0  0  0  0  0
  -25.9202  -32.4677   23.8293 C   0  0  1  0  0  0
  -27.2104  -27.1189   20.1632 C   0  0  0  0  0  0
  -25.5957  -33.8486   24.2214 N   0  0  0  0  0  0
  -23.4517  -30.4585   21.5347 C   0  0  2  0  0  0
  -24.9023  -28.8907   20.1050 C   0  0  0  0  0  0
  -22.7588  -29.4496   22.4861 C   0  0  0  0  0  0
  -18.0302  -28.1386   22.8461 C   0  0  0  0  0  0
  -24.1503  -36.7251   23.2647 C   0  0  0  0  0  0
  -26.0071  -30.7086   21.3944 C   0  0  0  0  0  0
  -26.0756  -29.3181   20.7395 C   0  0  0  0  0  0
  -27.2298  -28.4452   20.7587 C   0  0  0  0  0  0
  -26.0386  -26.8313   19.4301 C   0  0  0  0  0  0
  -24.8954  -27.6593   19.4352 C   0  0  0  0  0  0
  -23.6803  -29.7930   20.1515 C   0  0  0  0  0  0
  -25.4122  -36.3015   24.0330 C   0  0  1  0  0  0
  -20.5922  -28.3689   23.1228 C   0  0  2  0  0  0
  -20.6789  -26.9394   22.5401 C   0  0  0  0  0  0
  -19.5771  -26.6365   21.5202 C   0  0  0  0  0  0
  -18.1941  -26.7920   22.1610 C   0  0  0  0  0  0
  -19.1569  -28.8862   23.2825 C   0  0  0  0  0  0
  -18.9486  -30.1456   23.8848 C   0  0  0  0  0  0
  -17.6485  -30.6573   24.0551 C   0  0  0  0  0  0
  -25.9078  -34.9390   23.5077 C   0  0  0  0  0  0
  -16.5369  -29.9071   23.6346 C   0  0  0  0  0  0
  -16.7292  -28.6502   23.0350 C   0  0  0  0  0  0
  -26.4510  -31.6549   25.0743 C   0  0  0  0  0  0
  -25.3701  -31.3733   26.1447 C   0  0  0  0  0  0
  -27.0404  -30.2957   24.6339 C   0  0  0  0  0  0
  -27.6041  -32.4318   25.7521 C   0  0  0  0  0  0
  -27.5574  -37.1773   24.8465 C   0  0  0  0  0  0
  -21.4283  -29.3002   22.3618 N   0  0  0  0  0  0
  -26.4283  -37.3728   23.9412 N   0  0  0  0  0  0
  -24.7205  -31.0262   22.0934 N   0  0  0  0  0  0
  -23.4209  -28.8027   23.3006 O   0  0  0  0  0  0
  -28.2457  -26.1085   20.2206 O   0  0  0  0  0  0
  -26.5658  -34.8884   22.4653 O   0  0  0  0  0  0
  -23.5558  -32.1312   23.7090 O   0  0  0  0  0  0
  -25.7171  -22.2578   20.0056 C   0  0  0  0  0  0
  -26.4027  -24.9572   22.6901 C   0  0  0  0  0  0
  -31.1608  -19.5463   19.8370 C   0  0  0  0  0  0
  -30.3615  -18.9061   22.0996 C   0  0  0  0  0  0
  -26.1764  -22.8242   21.3578 C   0  0  0  0  0  0
  -29.5553  -17.5334   20.0680 C   0  0  0  0  0  0
  -29.1137  -23.2805   20.7194 C   0  0  0  0  0  0
  -28.8337  -20.4143   20.6230 C   0  0  0  0  0  0
  -26.6060  -24.3076   21.3010 C   0  0  2  0  0  0
  -28.0393  -24.6177   20.7076 C   0  0  2  0  0  0
  -29.9239  -19.0955   20.6365 C   0  0  0  0  0  0
  -29.7615  -16.1003   20.7296 N   0  0  0  0  0  0
  -29.0490  -21.8640   19.9875 N   0  3  0  0  0  0
  -31.4829  -12.7154   19.2314 H   0  0  0  0  0  0
  -30.4072  -11.6154   20.0331 H   0  0  0  0  0  0
  -29.8455  -11.7823   17.5724 H   0  0  0  0  0  0
  -29.6238  -13.5056   17.7387 H   0  0  0  0  0  0
  -27.9250  -11.2951   18.9354 H   0  0  0  0  0  0
  -27.4038  -12.5273   17.8171 H   0  0  0  0  0  0
  -27.6116  -14.2652   19.4529 H   0  0  0  0  0  0
  -28.7519  -12.2653   21.4594 H   0  0  0  0  0  0
  -28.3758  -13.9347   21.8008 H   0  0  0  0  0  0
  -25.2763   -9.5693   22.4748 H   0  0  0  0  0  0
  -24.0019   -7.4643   22.7489 H   0  0  0  0  0  0
  -21.0862   -8.8731   19.8944 H   0  0  0  0  0  0
  -22.3686  -10.9644   19.6159 H   0  0  0  0  0  0
  -21.2000   -7.6147   23.9691 H   0  0  0  0  0  0
  -21.1490   -6.0545   25.9078 H   0  0  0  0  0  0
  -22.0589   -2.7599   23.2884 H   0  0  0  0  0  0
  -22.4128  -11.9806   22.4775 H   0  0  0  0  0  0
  -21.1068  -13.1122   22.2653 H   0  0  0  0  0  0
  -24.6442  -15.8445   20.5155 H   0  0  0  0  0  0
  -26.2616  -15.6342   20.0823 H   0  0  0  0  0  0
  -26.7273  -32.5271   23.1025 H   0  0  0  0  0  0
  -25.0098  -33.9604   25.0356 H   0  0  0  0  0  0
  -22.7559  -31.2847   21.3794 H   0  0  0  0  0  0
  -23.3769  -35.9578   23.3298 H   0  0  0  0  0  0
  -24.3608  -36.8915   22.2070 H   0  0  0  0  0  0
  -23.7260  -37.6443   23.6699 H   0  0  0  0  0  0
  -26.1732  -31.4631   20.6232 H   0  0  0  0  0  0
  -26.8731  -30.7534   22.0417 H   0  0  0  0  0  0
  -28.1193  -28.7617   21.2878 H   0  0  0  0  0  0
  -25.9839  -25.9077   18.8715 H   0  0  0  0  0  0
  -24.0091  -27.3402   18.9020 H   0  0  0  0  0  0
  -23.8187  -30.5727   19.4004 H   0  0  0  0  0  0
  -22.7951  -29.2366   19.8376 H   0  0  0  0  0  0
  -25.1300  -36.1846   25.0824 H   0  0  0  0  0  0
  -20.9992  -28.3277   24.1357 H   0  0  0  0  0  0
  -20.5697  -26.2288   23.3617 H   0  0  0  0  0  0
  -21.6651  -26.7405   22.1188 H   0  0  0  0  0  0
  -19.6951  -25.6273   21.1247 H   0  0  0  0  0  0
  -19.6732  -27.3165   20.6731 H   0  0  0  0  0  0
  -17.4217  -26.6661   21.4011 H   0  0  0  0  0  0
  -18.0326  -26.0068   22.9018 H   0  0  0  0  0  0
  -19.7966  -30.7267   24.2207 H   0  0  0  0  0  0
  -17.5042  -31.6255   24.5138 H   0  0  0  0  0  0
  -15.5368  -30.2950   23.7695 H   0  0  0  0  0  0
  -15.8699  -28.0807   22.7080 H   0  0  0  0  0  0
  -24.5879  -30.7083   25.7768 H   0  0  0  0  0  0
  -24.8875  -32.2912   26.4816 H   0  0  0  0  0  0
  -25.7969  -30.8944   27.0275 H   0  0  0  0  0  0
  -26.3045  -29.6659   24.1326 H   0  0  0  0  0  0
  -27.4022  -29.7256   25.4907 H   0  0  0  0  0  0
  -27.8949  -30.4236   23.9689 H   0  0  0  0  0  0
  -27.2647  -33.3654   26.2021 H   0  0  0  0  0  0
  -28.3867  -32.6831   25.0349 H   0  0  0  0  0  0
  -28.0698  -31.8509   26.5502 H   0  0  0  0  0  0
  -28.2534  -38.0115   24.7501 H   0  0  0  0  0  0
  -28.1116  -36.2631   24.6274 H   0  0  0  0  0  0
  -27.2299  -37.1394   25.8870 H   0  0  0  0  0  0
  -20.9505  -29.8753   21.6830 H   0  0  0  0  0  0
  -26.0163  -38.2807   24.1395 H   0  0  0  0  0  0
  -25.4752  -21.1967   20.0870 H   0  0  0  0  0  0
  -26.4692  -22.3724   19.2246 H   0  0  0  0  0  0
  -24.8129  -22.7642   19.6634 H   0  0  0  0  0  0
  -25.3801  -24.8221   23.0458 H   0  0  0  0  0  0
  -26.5828  -26.0329   22.6571 H   0  0  0  0  0  0
  -27.0695  -24.5300   23.4415 H   0  0  0  0  0  0
  -31.9519  -18.7975   19.8826 H   0  0  0  0  0  0
  -31.5782  -20.4794   20.2198 H   0  0  0  0  0  0
  -30.9229  -19.6883   18.7833 H   0  0  0  0  0  0
  -31.1851  -18.1968   22.1808 H   0  0  0  0  0  0
  -29.5433  -18.5281   22.7132 H   0  0  0  0  0  0
  -30.7001  -19.8440   22.5427 H   0  0  0  0  0  0
  -26.9468  -22.2121   21.8211 H   0  0  0  0  0  0
  -25.3188  -22.7257   22.0263 H   0  0  0  0  0  0
  -29.9904  -17.4372   19.0734 H   0  0  0  0  0  0
  -28.4843  -17.5581   19.8602 H   0  0  0  0  0  0
  -29.3091  -23.0361   21.7645 H   0  0  0  0  0  0
  -30.0623  -23.6922   20.3756 H   0  0  0  0  0  0
  -28.4933  -20.5757   21.6450 H   0  0  0  0  0  0
  -27.9417  -20.0393   20.1245 H   0  0  0  0  0  0
  -25.8451  -24.7436   20.6697 H   0  0  0  0  0  0
  -28.5105  -24.9637   21.6272 H   0  0  0  0  0  0
  -28.9447  -15.8327   21.2569 H   0  0  0  0  0  0
  -29.9384  -21.7929   19.5184 H   0  0  0  0  0  0
  -28.3825  -21.9551   19.2370 H   0  0  0  0  0  0
  1 25  1  0  0  0
  1 30  2  0  0  0
  1 82  1  0  0  0
  2  3  1  0  0  0
  2 25  1  0  0  0
  2 84  1  0  0  0
  2 85  1  0  0  0
  3  4  1  0  0  0
  3 86  1  0  0  0
  3 87  1  0  0  0
  4  5  1  0  0  0
  4 88  1  0  0  0
  4 89  1  0  0  0
  5  6  1  0  0  0
  5 26  1  0  0  0
  5 90  1  0  0  0
  6 25  1  0  0  0
  6 91  1  0  0  0
  6 92  1  0  0  0
  7  8  2  0  0  0
  7 26  1  0  0  0
  7 29  1  0  0  0
  8  9  1  0  0  0
  8 22  1  0  0  0
  9 10  1  0  0  0
  9 27  2  0  0  0
 10 11  2  0  0  0
 10 15  1  0  0  0
 11 12  1  0  0  0
 11 93  1  0  0  0
 12 13  2  0  0  0
 12 94  1  0  0  0
 13 14  1  0  0  0
 13 31  1  0  0  0
 14 15  2  0  0  0
 14 95  1  0  0  0
 15 96  1  0  0  0
 16 17  2  0  0  0
 16 21  1  0  0  0
 16 31  1  0  0  0
 17 18  1  0  0  0
 17 97  1  0  0  0
 18 19  2  0  0  0
 18 98  1  0  0  0
 19 20  1  0  0  0
 19 24  1  0  0  0
 20 21  2  0  0  0
 20 99  1  0  0  0
 21 23  1  0  0  0
 22 28  1  0  0  0
 22 32  2  0  0  0
 26 27  1  0  0  0
 28100  1  0  0  0
 28101  1  0  0  0
 29102  1  0  0  0
 29103  1  0  0  0
 33 34  1  0  0  0
 33 66  1  0  0  0
 33 70  2  0  0  0
 34 36  1  0  0  0
 34 59  1  0  0  0
 34104  1  0  0  0
 35 44  2  0  0  0
 35 45  1  0  0  0
 35 68  1  0  0  0
 36 56  1  0  0  0
 36105  1  0  0  0
 37 39  1  0  0  0
 37 47  1  0  0  0
 37 66  1  0  0  0
 37106  1  0  0  0
 38 43  2  0  0  0
 38 46  1  0  0  0
 38 47  1  0  0  0
 39 64  1  0  0  0
 39 67  2  0  0  0
 40 52  1  0  0  0
 40 53  2  0  0  0
 40 58  1  0  0  0
 41107  1  0  0  0
 41108  1  0  0  0
 41109  1  0  0  0
 41 48  1  0  0  0
 42 43  1  0  0  0
 42 66  1  0  0  0
 42110  1  0  0  0
 42111  1  0  0  0
 43 44  1  0  0  0
 44112  1  0  0  0
 45 46  2  0  0  0
 45113  1  0  0  0
 46114  1  0  0  0
 47115  1  0  0  0
 47116  1  0  0  0
 48 56  1  0  0  0
 48 65  1  0  0  0
 48117  1  0  0  0
 49 50  1  0  0  0
 49 53  1  0  0  0
 49 64  1  0  0  0
 49118  1  0  0  0
 50 51  1  0  0  0
 50119  1  0  0  0
 50120  1  0  0  0
 51 52  1  0  0  0
 51121  1  0  0  0
 51122  1  0  0  0
 52123  1  0  0  0
 52124  1  0  0  0
 53 54  1  0  0  0
 54 55  2  0  0  0
 54125  1  0  0  0
 55 57  1  0  0  0
 55126  1  0  0  0
 56 69  2  0  0  0
 57 58  2  0  0  0
 57127  1  0  0  0
 58128  1  0  0  0
 59 60  1  0  0  0
 59 61  1  0  0  0
 59 62  1  0  0  0
 60129  1  0  0  0
 60130  1  0  0  0
 60131  1  0  0  0
 61132  1  0  0  0
 61133  1  0  0  0
 61134  1  0  0  0
 62135  1  0  0  0
 62136  1  0  0  0
 62137  1  0  0  0
 63 65  1  0  0  0
 63138  1  0  0  0
 63139  1  0  0  0
 63140  1  0  0  0
 64141  1  0  0  0
 65142  1  0  0  0
 68 80  1  0  0  0
 71 75  1  0  0  0
 71143  1  0  0  0
 71144  1  0  0  0
 71145  1  0  0  0
 72146  1  0  0  0
 72147  1  0  0  0
 72148  1  0  0  0
 72 79  1  0  0  0
 73149  1  0  0  0
 73150  1  0  0  0
 73151  1  0  0  0
 73 81  1  0  0  0
 74 81  1  0  0  0
 74152  1  0  0  0
 74153  1  0  0  0
 74154  1  0  0  0
 75 79  1  0  0  0
 75155  1  0  0  0
 75156  1  0  0  0
 76 81  1  0  0  0
 76 82  1  0  0  0
 76157  1  0  0  0
 76158  1  0  0  0
 77 83  1  0  0  0
 77159  1  0  0  0
 77160  1  0  0  0
 77 80  1  0  0  0
 78 81  1  0  0  0
 78 83  1  0  0  0
 78161  1  0  0  0
 78162  1  0  0  0
 79 80  1  0  0  0
 79163  1  0  0  0
 80164  1  0  0  0
 82165  1  0  0  0
 83166  1  0  0  0
 83167  1  0  0  0
M  CHG  1  83   1
M  ISO  4   1 100  68 101  80 101  82 100
M  END
> <chiral flag>
0

> <version>
0

> <s_m_source_file>
/data/baiqing/PycharmProjects/Reinvent-master-3.2/result/LINK_invent/BTK/process_docking_weight1_custom_sum_contain_oxygen_bond_distance_aromatic_linkinvent_7_9_3/rearranged_h_0110.sdf

> <i_m_source_file_index>
17

> <r_mmod_Potential_Energy-OPLS-2005>
697.211730957031

> <r_mmod_Stretch_Energy-OPLS-2005>
312.021118164062

> <r_mmod_Bend_Energy-OPLS-2005>
426.10693359375

> <r_mmod_Torsional_Energy-OPLS-2005>
342.617706298828

> <r_mmod_Improper_Torsional_Energy-OPLS-2005>
5.45819807052612

> <r_mmod_Van_der_Waal_Energy-OPLS-2005>
117.416107177734

> <r_mmod_Electrostatic_Energy-OPLS-2005>
-266.807098388672

> <r_mmod_Solvation_Energy-OPLS-2005>
-438.669036865234

> <b_mmod_Minimization_Converged-OPLS-2005>
0

> <r_mmod_RMS_Derivative-OPLS-2005>
3.34190368652344

$$$$
18
                    3D
 Structure written by MMmdl.
164172  0  0  1  0            999 V2000
  -30.6336  -14.7796   20.5141 C   0  0  0  0  0  0
  -30.4295  -12.4926   19.4945 C   0  0  0  0  0  0
  -29.5146  -12.5087   18.2491 C   0  0  0  0  0  0
  -28.0429  -12.3188   18.6617 C   0  0  0  0  0  0
  -27.6353  -13.2394   19.8451 C   0  0  2  0  0  0
  -28.6720  -13.1957   20.9881 C   0  0  0  0  0  0
  -25.2472  -13.8233   20.5691 C   0  0  0  0  0  0
  -24.1774  -13.0483   20.9225 C   0  0  0  0  0  0
  -24.6358  -11.6949   20.8741 C   0  0  0  0  0  0
  -23.9037  -10.4327   21.0406 C   0  0  0  0  0  0
  -24.3596   -9.4242   21.9173 C   0  0  0  0  0  0
  -23.6282   -8.2266   22.0741 C   0  0  0  0  0  0
  -22.4260   -8.0287   21.3529 C   0  0  0  0  0  0
  -21.9885   -9.0275   20.4633 C   0  0  0  0  0  0
  -22.7217  -10.2164   20.3042 C   0  0  0  0  0  0
  -21.6856   -6.0720   22.5278 C   0  0  0  0  0  0
  -21.4031   -6.5624   23.8219 C   0  0  0  0  0  0
  -21.3665   -5.6770   24.9173 C   0  0  0  0  0  0
  -21.6045   -4.3037   24.7221 C   0  0  0  0  0  0
  -21.8822   -3.8129   23.4342 C   0  0  0  0  0  0
  -21.9188   -4.6944   22.3399 C   0  0  0  0  0  0
  -22.7787  -13.5260   21.1889 C   0  0  0  0  0  0
  -22.1647   -4.2144   21.0974 F   0  0  0  0  0  0
  -21.5629   -3.4521   25.7735 F   0  0  0  0  0  0
  -29.9704  -13.5689   20.4123 N   0  0  0  0  0  0
  -26.2872  -12.9438   20.3227 N   0  0  0  0  0  0
  -25.9279  -11.6579   20.5677 N   0  0  0  0  0  0
  -22.0421  -12.8255   22.0430 N   0  0  0  0  0  0
  -25.4211  -15.1955   20.4103 N   0  0  0  0  0  0
  -31.8126  -14.8274   20.1424 O   0  0  0  0  0  0
  -21.6640   -6.8869   21.4228 O   0  0  0  0  0  0
  -22.3466  -14.5557   20.6711 O   0  0  0  0  0  0
  -24.6339  -31.8506   23.1971 C   0  0  0  0  0  0
  -25.9182  -32.4698   23.8295 C   0  0  1  0  0  0
  -27.2231  -27.2278   20.1747 C   0  0  0  0  0  0
  -25.5984  -33.8499   24.2228 N   0  0  0  0  0  0
  -23.4329  -30.4734   21.5334 C   0  0  2  0  0  0
  -24.8849  -28.9061   20.1179 C   0  0  0  0  0  0
  -22.7515  -29.4597   22.4826 C   0  0  0  0  0  0
  -18.0309  -28.1383   22.8467 C   0  0  0  0  0  0
  -24.1467  -36.7245   23.2637 C   0  0  0  0  0  0
  -25.9770  -30.7514   21.3887 C   0  0  0  0  0  0
  -26.0513  -29.3688   20.7422 C   0  0  0  0  0  0
  -27.2248  -28.5412   20.7594 C   0  0  0  0  0  0
  -26.0401  -26.8415   19.5153 C   0  0  0  0  0  0
  -24.8851  -27.6511   19.4894 C   0  0  0  0  0  0
  -23.6641  -29.8058   20.1488 C   0  0  0  0  0  0
  -25.4089  -36.3028   24.0324 C   0  0  1  0  0  0
  -20.5904  -28.3719   23.1219 C   0  0  2  0  0  0
  -20.6771  -26.9434   22.5382 C   0  0  0  0  0  0
  -19.5753  -26.6389   21.5184 C   0  0  0  0  0  0
  -18.1942  -26.7926   22.1609 C   0  0  0  0  0  0
  -19.1562  -28.8869   23.2835 C   0  0  0  0  0  0
  -18.9489  -30.1459   23.8883 C   0  0  0  0  0  0
  -17.6492  -30.6592   24.0557 C   0  0  0  0  0  0
  -25.9049  -34.9412   23.5082 C   0  0  0  0  0  0
  -16.5378  -29.9082   23.6346 C   0  0  0  0  0  0
  -16.7298  -28.6489   23.0374 C   0  0  0  0  0  0
  -26.4589  -31.6529   25.0680 C   0  0  0  0  0  0
  -25.3855  -31.3679   26.1419 C   0  0  0  0  0  0
  -27.0447  -30.2916   24.6224 C   0  0  0  0  0  0
  -27.6105  -32.4291   25.7481 C   0  0  0  0  0  0
  -27.5561  -37.1758   24.8481 C   0  0  0  0  0  0
  -21.4232  -29.3038   22.3579 N   0  0  0  0  0  0
  -26.4253  -37.3739   23.9449 N   0  0  0  0  0  0
  -24.6974  -31.0421   22.0975 N   0  0  0  0  0  0
  -23.4201  -28.8173   23.2995 O   0  0  0  0  0  0
  -28.3219  -26.3343   20.1158 O   0  0  0  0  0  0
  -26.5603  -34.8917   22.4633 O   0  0  0  0  0  0
  -23.5490  -32.1367   23.7251 O   0  0  0  0  0  0
  -30.1283  -17.2010   19.8189 C   0  0  0  0  0  0
  -30.1915  -18.7151   20.4131 C   0  0  0  0  0  0
  -29.6486  -16.4669   22.0786 C   0  0  0  0  0  0
  -27.9341  -18.4275   21.1706 C   0  0  0  0  0  0
  -28.3583  -17.3545   22.2552 C   0  0  2  0  0  0
  -26.6595  -23.4606   20.1833 C   0  0  0  0  0  0
  -28.9868  -22.2745   20.5049 C   0  0  0  0  0  0
  -28.7885  -20.8366   21.2815 C   0  0  0  0  0  0
  -28.4761  -25.1480   21.0398 C   0  0  0  0  0  0
  -28.0240  -23.5650   20.8756 C   0  0  1  0  0  0
  -29.9278  -15.9809   20.7128 N   0  0  0  0  0  0
  -28.9014  -19.4329   20.6618 N   0  0  0  0  0  0
  -28.3214  -17.9364   23.6095 N   0  3  0  0  0  0
  -31.4721  -12.6161   19.1946 H   0  0  0  0  0  0
  -30.3801  -11.5267   19.9952 H   0  0  0  0  0  0
  -29.8158  -11.7237   17.5531 H   0  0  0  0  0  0
  -29.6277  -13.4516   17.7099 H   0  0  0  0  0  0
  -27.9212  -11.2702   18.9473 H   0  0  0  0  0  0
  -27.3856  -12.4840   17.8083 H   0  0  0  0  0  0
  -27.6217  -14.2580   19.4523 H   0  0  0  0  0  0
  -28.7190  -12.1966   21.4250 H   0  0  0  0  0  0
  -28.3798  -13.8682   21.7932 H   0  0  0  0  0  0
  -25.2757   -9.5737   22.4713 H   0  0  0  0  0  0
  -24.0032   -7.4654   22.7429 H   0  0  0  0  0  0
  -21.0843   -8.8794   19.8920 H   0  0  0  0  0  0
  -22.3702  -10.9687   19.6134 H   0  0  0  0  0  0
  -21.2037   -7.6143   23.9728 H   0  0  0  0  0  0
  -21.1476   -6.0492   25.9078 H   0  0  0  0  0  0
  -22.0591   -2.7588   23.2847 H   0  0  0  0  0  0
  -22.4035  -11.9978   22.4939 H   0  0  0  0  0  0
  -21.0991  -13.1243   22.2511 H   0  0  0  0  0  0
  -24.6526  -15.8500   20.5091 H   0  0  0  0  0  0
  -26.2340  -15.6055   19.9708 H   0  0  0  0  0  0
  -26.7204  -32.5357   23.0995 H   0  0  0  0  0  0
  -25.0253  -33.9612   25.0461 H   0  0  0  0  0  0
  -22.7315  -31.2952   21.3738 H   0  0  0  0  0  0
  -23.3748  -35.9566   23.3310 H   0  0  0  0  0  0
  -24.3549  -36.8864   22.2050 H   0  0  0  0  0  0
  -23.7196  -37.6432   23.6650 H   0  0  0  0  0  0
  -26.1187  -31.5113   20.6213 H   0  0  0  0  0  0
  -26.8512  -30.8022   22.0247 H   0  0  0  0  0  0
  -28.1228  -28.8957   21.2434 H   0  0  0  0  0  0
  -26.0046  -25.8852   19.0145 H   0  0  0  0  0  0
  -24.0021  -27.2915   18.9786 H   0  0  0  0  0  0
  -23.8252  -30.5795   19.3983 H   0  0  0  0  0  0
  -22.7803  -29.2583   19.8165 H   0  0  0  0  0  0
  -25.1256  -36.1853   25.0808 H   0  0  0  0  0  0
  -21.0006  -28.3310   24.1328 H   0  0  0  0  0  0
  -20.5635  -26.2370   23.3605 H   0  0  0  0  0  0
  -21.6652  -26.7424   22.1199 H   0  0  0  0  0  0
  -19.6935  -25.6297   21.1229 H   0  0  0  0  0  0
  -19.6663  -27.3181   20.6688 H   0  0  0  0  0  0
  -17.4201  -26.6681   21.4015 H   0  0  0  0  0  0
  -18.0362  -26.0032   22.8982 H   0  0  0  0  0  0
  -19.7978  -30.7256   24.2260 H   0  0  0  0  0  0
  -17.5065  -31.6291   24.5146 H   0  0  0  0  0  0
  -15.5392  -30.2995   23.7671 H   0  0  0  0  0  0
  -15.8689  -28.0808   22.7109 H   0  0  0  0  0  0
  -24.6036  -30.6995   25.7801 H   0  0  0  0  0  0
  -24.9070  -32.2864   26.4830 H   0  0  0  0  0  0
  -25.8276  -30.8895   27.0185 H   0  0  0  0  0  0
  -26.3031  -29.6568   24.1361 H   0  0  0  0  0  0
  -27.4207  -29.7237   25.4753 H   0  0  0  0  0  0
  -27.8893  -30.4112   23.9431 H   0  0  0  0  0  0
  -27.2679  -33.3598   26.2032 H   0  0  0  0  0  0
  -28.3998  -32.6856   25.0398 H   0  0  0  0  0  0
  -28.0714  -31.8430   26.5448 H   0  0  0  0  0  0
  -28.2566  -38.0060   24.7526 H   0  0  0  0  0  0
  -28.1049  -36.2590   24.6297 H   0  0  0  0  0  0
  -27.2285  -37.1429   25.8882 H   0  0  0  0  0  0
  -20.9439  -29.8779   21.6775 H   0  0  0  0  0  0
  -26.0124  -38.2795   24.1523 H   0  0  0  0  0  0
  -31.0548  -17.0549   19.2614 H   0  0  0  0  0  0
  -29.3534  -17.1517   19.0521 H   0  0  0  0  0  0
  -30.7110  -19.3226   19.6674 H   0  0  0  0  0  0
  -30.8357  -18.7745   21.2936 H   0  0  0  0  0  0
  -29.5658  -15.6113   22.7487 H   0  0  0  0  0  0
  -30.5302  -16.9942   22.4449 H   0  0  0  0  0  0
  -27.0174  -18.9247   21.4866 H   0  0  0  0  0  0
  -27.6152  -17.8570   20.2985 H   0  0  0  0  0  0
  -27.5332  -16.6381   22.2554 H   0  0  0  0  0  0
  -25.9380  -24.1460   20.6369 H   0  0  0  0  0  0
  -26.2445  -22.4574   20.2723 H   0  0  0  0  0  0
  -26.7293  -23.7003   19.1226 H   0  0  0  0  0  0
  -28.9283  -22.0948   19.4321 H   0  0  0  0  0  0
  -30.0213  -22.5810   20.6676 H   0  0  0  0  0  0
  -27.7726  -20.9006   21.6742 H   0  0  0  0  0  0
  -29.4036  -20.8476   22.1854 H   0  0  0  0  0  0
  -29.5346  -25.1344   21.3055 H   0  0  0  0  0  0
  -27.9982  -25.4920   21.9593 H   0  0  0  0  0  0
  -27.8111  -23.3260   21.9184 H   0  0  0  0  0  0
  -27.4119  -18.3138   23.8088 H   0  0  0  0  0  0
  -29.0014  -18.6689   23.7004 H   0  0  0  0  0  0
  -28.5076  -17.2345   24.3029 H   0  0  0  0  0  0
  1 25  1  0  0  0
  1 30  2  0  0  0
  1 81  1  0  0  0
  2  3  1  0  0  0
  2 25  1  0  0  0
  2 84  1  0  0  0
  2 85  1  0  0  0
  3  4  1  0  0  0
  3 86  1  0  0  0
  3 87  1  0  0  0
  4  5  1  0  0  0
  4 88  1  0  0  0
  4 89  1  0  0  0
  5  6  1  0  0  0
  5 26  1  0  0  0
  5 90  1  0  0  0
  6 25  1  0  0  0
  6 91  1  0  0  0
  6 92  1  0  0  0
  7  8  2  0  0  0
  7 26  1  0  0  0
  7 29  1  0  0  0
  8  9  1  0  0  0
  8 22  1  0  0  0
  9 10  1  0  0  0
  9 27  2  0  0  0
 10 11  2  0  0  0
 10 15  1  0  0  0
 11 12  1  0  0  0
 11 93  1  0  0  0
 12 13  2  0  0  0
 12 94  1  0  0  0
 13 14  1  0  0  0
 13 31  1  0  0  0
 14 15  2  0  0  0
 14 95  1  0  0  0
 15 96  1  0  0  0
 16 17  2  0  0  0
 16 21  1  0  0  0
 16 31  1  0  0  0
 17 18  1  0  0  0
 17 97  1  0  0  0
 18 19  2  0  0  0
 18 98  1  0  0  0
 19 20  1  0  0  0
 19 24  1  0  0  0
 20 21  2  0  0  0
 20 99  1  0  0  0
 21 23  1  0  0  0
 22 28  1  0  0  0
 22 32  2  0  0  0
 26 27  1  0  0  0
 28100  1  0  0  0
 28101  1  0  0  0
 29102  1  0  0  0
 29103  1  0  0  0
 33 34  1  0  0  0
 33 66  1  0  0  0
 33 70  2  0  0  0
 34 36  1  0  0  0
 34 59  1  0  0  0
 34104  1  0  0  0
 35 44  2  0  0  0
 35 45  1  0  0  0
 35 68  1  0  0  0
 36 56  1  0  0  0
 36105  1  0  0  0
 37 39  1  0  0  0
 37 47  1  0  0  0
 37 66  1  0  0  0
 37106  1  0  0  0
 38 43  2  0  0  0
 38 46  1  0  0  0
 38 47  1  0  0  0
 39 64  1  0  0  0
 39 67  2  0  0  0
 40 52  1  0  0  0
 40 53  2  0  0  0
 40 58  1  0  0  0
 41107  1  0  0  0
 41108  1  0  0  0
 41109  1  0  0  0
 41 48  1  0  0  0
 42 43  1  0  0  0
 42 66  1  0  0  0
 42110  1  0  0  0
 42111  1  0  0  0
 43 44  1  0  0  0
 44112  1  0  0  0
 45 46  2  0  0  0
 45113  1  0  0  0
 46114  1  0  0  0
 47115  1  0  0  0
 47116  1  0  0  0
 48 56  1  0  0  0
 48 65  1  0  0  0
 48117  1  0  0  0
 49 50  1  0  0  0
 49 53  1  0  0  0
 49 64  1  0  0  0
 49118  1  0  0  0
 50 51  1  0  0  0
 50119  1  0  0  0
 50120  1  0  0  0
 51 52  1  0  0  0
 51121  1  0  0  0
 51122  1  0  0  0
 52123  1  0  0  0
 52124  1  0  0  0
 53 54  1  0  0  0
 54 55  2  0  0  0
 54125  1  0  0  0
 55 57  1  0  0  0
 55126  1  0  0  0
 56 69  2  0  0  0
 57 58  2  0  0  0
 57127  1  0  0  0
 58128  1  0  0  0
 59 60  1  0  0  0
 59 61  1  0  0  0
 59 62  1  0  0  0
 60129  1  0  0  0
 60130  1  0  0  0
 60131  1  0  0  0
 61132  1  0  0  0
 61133  1  0  0  0
 61134  1  0  0  0
 62135  1  0  0  0
 62136  1  0  0  0
 62137  1  0  0  0
 63 65  1  0  0  0
 63138  1  0  0  0
 63139  1  0  0  0
 63140  1  0  0  0
 64141  1  0  0  0
 65142  1  0  0  0
 68 79  1  0  0  0
 71 72  1  0  0  0
 71 81  1  0  0  0
 71143  1  0  0  0
 71144  1  0  0  0
 72 82  1  0  0  0
 72145  1  0  0  0
 72146  1  0  0  0
 73 75  1  0  0  0
 73 81  1  0  0  0
 73147  1  0  0  0
 73148  1  0  0  0
 74 75  1  0  0  0
 74 82  1  0  0  0
 74149  1  0  0  0
 74150  1  0  0  0
 75 83  1  0  0  0
 75151  1  0  0  0
 76152  1  0  0  0
 76153  1  0  0  0
 76154  1  0  0  0
 76 80  1  0  0  0
 77 78  1  0  0  0
 77 80  1  0  0  0
 77155  1  0  0  0
 77156  1  0  0  0
 78 82  1  0  0  0
 78157  1  0  0  0
 78158  1  0  0  0
 79 80  1  0  0  0
 79159  1  0  0  0
 79160  1  0  0  0
 80161  1  0  0  0
 83162  1  0  0  0
 83163  1  0  0  0
 83164  1  0  0  0
M  CHG  1  83   1
M  ISO  4   1 100  68 101  79 101  81 100
M  END
> <chiral flag>
0

> <version>
0

> <s_m_source_file>
/data/baiqing/PycharmProjects/Reinvent-master-3.2/result/LINK_invent/BTK/process_docking_weight1_custom_sum_contain_oxygen_bond_distance_aromatic_linkinvent_7_9_3/rearranged_h_0110.sdf

> <i_m_source_file_index>
18

> <r_mmod_Potential_Energy-OPLS-2005>
311.470275878906

> <r_mmod_Stretch_Energy-OPLS-2005>
166.274398803711

> <r_mmod_Bend_Energy-OPLS-2005>
296.533020019531

> <r_mmod_Torsional_Energy-OPLS-2005>
392.72265625

> <r_mmod_Improper_Torsional_Energy-OPLS-2005>
11.6599683761597

> <r_mmod_Van_der_Waal_Energy-OPLS-2005>
121.967628479004

> <r_mmod_Electrostatic_Energy-OPLS-2005>
-276.694458007812

> <r_mmod_Solvation_Energy-OPLS-2005>
-500.249969482422

> <b_mmod_Minimization_Converged-OPLS-2005>
0

> <r_mmod_RMS_Derivative-OPLS-2005>
5.05770778656006

$$$$
19
                    3D
 Structure written by MMmdl.
159167  0  0  1  0            999 V2000
  -30.6420  -14.7709   20.4566 C   0  0  0  0  0  0
  -30.4318  -12.4705   19.4855 C   0  0  0  0  0  0
  -29.5196  -12.5327   18.2434 C   0  0  0  0  0  0
  -28.0394  -12.3576   18.6418 C   0  0  0  0  0  0
  -27.6443  -13.2486   19.8522 C   0  0  2  0  0  0
  -28.6914  -13.1925   20.9867 C   0  0  0  0  0  0
  -25.2514  -13.8260   20.5696 C   0  0  0  0  0  0
  -24.1796  -13.0481   20.9187 C   0  0  0  0  0  0
  -24.6404  -11.6982   20.8699 C   0  0  0  0  0  0
  -23.9084  -10.4335   21.0361 C   0  0  0  0  0  0
  -24.3646   -9.4259   21.9135 C   0  0  0  0  0  0
  -23.6342   -8.2283   22.0731 C   0  0  0  0  0  0
  -22.4311   -8.0307   21.3550 C   0  0  0  0  0  0
  -21.9934   -9.0261   20.4628 C   0  0  0  0  0  0
  -22.7252  -10.2144   20.3032 C   0  0  0  0  0  0
  -21.6885   -6.0736   22.5278 C   0  0  0  0  0  0
  -21.4018   -6.5631   23.8208 C   0  0  0  0  0  0
  -21.3668   -5.6777   24.9163 C   0  0  0  0  0  0
  -21.6069   -4.3038   24.7201 C   0  0  0  0  0  0
  -21.8827   -3.8148   23.4321 C   0  0  0  0  0  0
  -21.9196   -4.6973   22.3391 C   0  0  0  0  0  0
  -22.7805  -13.5260   21.1824 C   0  0  0  0  0  0
  -22.1665   -4.2154   21.0966 F   0  0  0  0  0  0
  -21.5638   -3.4539   25.7714 F   0  0  0  0  0  0
  -29.9948  -13.5502   20.4069 N   0  0  0  0  0  0
  -26.2946  -12.9497   20.3283 N   0  0  0  0  0  0
  -25.9348  -11.6610   20.5738 N   0  0  0  0  0  0
  -22.0429  -12.8270   22.0384 N   0  0  0  0  0  0
  -25.4175  -15.1981   20.4110 N   0  0  0  0  0  0
  -31.8392  -14.8014   20.1680 O   0  0  0  0  0  0
  -21.6685   -6.8897   21.4252 O   0  0  0  0  0  0
  -22.3488  -14.5538   20.6639 O   0  0  0  0  0  0
  -24.6368  -31.8495   23.1929 C   0  0  0  0  0  0
  -25.9164  -32.4726   23.8297 C   0  0  1  0  0  0
  -27.2482  -27.2680   20.1229 C   0  0  0  0  0  0
  -25.5918  -33.8528   24.2212 N   0  0  0  0  0  0
  -23.4356  -30.4682   21.5377 C   0  0  2  0  0  0
  -24.8848  -28.9058   20.1201 C   0  0  0  0  0  0
  -22.7534  -29.4569   22.4915 C   0  0  0  0  0  0
  -18.0286  -28.1371   22.8478 C   0  0  0  0  0  0
  -24.1474  -36.7322   23.2637 C   0  0  0  0  0  0
  -25.9811  -30.7704   21.3606 C   0  0  0  0  0  0
  -26.0598  -29.3902   20.7090 C   0  0  0  0  0  0
  -27.2463  -28.5882   20.6884 C   0  0  0  0  0  0
  -26.0426  -26.8492   19.5117 C   0  0  0  0  0  0
  -24.8761  -27.6387   19.5182 C   0  0  0  0  0  0
  -23.6557  -29.7911   20.1601 C   0  0  0  0  0  0
  -25.4089  -36.3060   24.0321 C   0  0  1  0  0  0
  -20.5897  -28.3684   23.1255 C   0  0  2  0  0  0
  -20.6767  -26.9397   22.5397 C   0  0  0  0  0  0
  -19.5750  -26.6359   21.5199 C   0  0  0  0  0  0
  -18.1928  -26.7910   22.1614 C   0  0  0  0  0  0
  -19.1546  -28.8845   23.2864 C   0  0  0  0  0  0
  -18.9466  -30.1443   23.8899 C   0  0  0  0  0  0
  -17.6465  -30.6578   24.0537 C   0  0  0  0  0  0
  -25.9050  -34.9431   23.5081 C   0  0  0  0  0  0
  -16.5353  -29.9073   23.6307 C   0  0  0  0  0  0
  -16.7276  -28.6474   23.0359 C   0  0  0  0  0  0
  -26.4493  -31.6568   25.0719 C   0  0  0  0  0  0
  -25.3744  -31.3739   26.1472 C   0  0  0  0  0  0
  -27.0284  -30.2966   24.6196 C   0  0  0  0  0  0
  -27.5998  -32.4339   25.7535 C   0  0  0  0  0  0
  -27.5569  -37.1802   24.8452 C   0  0  0  0  0  0
  -21.4233  -29.3038   22.3665 N   0  0  0  0  0  0
  -26.4257  -37.3770   23.9429 N   0  0  0  0  0  0
  -24.7052  -31.0462   22.0888 N   0  0  0  0  0  0
  -23.4211  -28.8118   23.3030 O   0  0  0  0  0  0
  -28.3498  -26.3758   20.1668 O   0  0  0  0  0  0
  -26.5636  -34.8916   22.4659 O   0  0  0  0  0  0
  -23.5511  -32.1285   23.7230 O   0  0  0  0  0  0
  -29.4491  -18.4878   20.9237 C   0  0  0  0  0  0
  -31.2189  -18.0020   19.6357 C   0  0  0  0  0  0
  -30.1891  -17.4033   20.4412 C   0  0  0  0  0  0
  -31.1275  -19.3814   19.7622 C   0  0  0  0  0  0
  -28.1962  -24.9388   20.4769 C   0  0  0  0  0  0
  -32.2429  -17.3067   18.7748 C   0  0  0  0  0  0
  -32.0649  -20.4048   19.1840 C   0  0  0  0  0  0
  -28.2410  -22.0841   19.0050 C   0  0  0  0  0  0
  -29.4661  -23.9809   20.3848 C   0  0  0  0  0  0
  -29.6000  -21.1615   20.9986 C   0  0  0  0  0  0
  -29.3988  -22.3948   19.9595 C   0  0  1  0  0  0
  -30.0135  -19.7394   20.5362 N   0  0  0  0  0  0
  -29.9065  -15.9410   20.6588 N   0  0  0  0  0  0
  -27.1297  -24.4396   20.8434 O   0  0  0  0  0  0
  -31.4753  -12.5809   19.1841 H   0  0  0  0  0  0
  -30.3642  -11.4968   19.9712 H   0  0  0  0  0  0
  -29.8095  -11.7648   17.5261 H   0  0  0  0  0  0
  -29.6590  -13.4917   17.7406 H   0  0  0  0  0  0
  -27.8794  -11.3052   18.8826 H   0  0  0  0  0  0
  -27.3986  -12.5789   17.7876 H   0  0  0  0  0  0
  -27.6352  -14.2730   19.4798 H   0  0  0  0  0  0
  -28.7328  -12.1918   21.4221 H   0  0  0  0  0  0
  -28.4291  -13.8753   21.7957 H   0  0  0  0  0  0
  -25.2773   -9.5756   22.4723 H   0  0  0  0  0  0
  -24.0044   -7.4691   22.7471 H   0  0  0  0  0  0
  -21.0847   -8.8778   19.8957 H   0  0  0  0  0  0
  -22.3679  -10.9674   19.6157 H   0  0  0  0  0  0
  -21.2012   -7.6131   23.9719 H   0  0  0  0  0  0
  -21.1487   -6.0485   25.9061 H   0  0  0  0  0  0
  -22.0594   -2.7607   23.2814 H   0  0  0  0  0  0
  -22.4047  -12.0003   22.4881 H   0  0  0  0  0  0
  -21.1032  -13.1288   22.2531 H   0  0  0  0  0  0
  -24.6524  -15.8545   20.5214 H   0  0  0  0  0  0
  -26.2687  -15.6367   20.0847 H   0  0  0  0  0  0
  -26.7258  -32.5357   23.1061 H   0  0  0  0  0  0
  -24.9981  -33.9625   25.0300 H   0  0  0  0  0  0
  -22.7339  -31.2902   21.3813 H   0  0  0  0  0  0
  -23.3722  -35.9666   23.3233 H   0  0  0  0  0  0
  -24.3586  -36.9030   22.2072 H   0  0  0  0  0  0
  -23.7248  -37.6511   23.6711 H   0  0  0  0  0  0
  -26.1063  -31.5216   20.5788 H   0  0  0  0  0  0
  -26.8672  -30.8301   21.9823 H   0  0  0  0  0  0
  -28.1586  -28.9667   21.1247 H   0  0  0  0  0  0
  -25.9820  -25.8688   19.0596 H   0  0  0  0  0  0
  -23.9682  -27.2470   19.0796 H   0  0  0  0  0  0
  -23.7941  -30.5601   19.3988 H   0  0  0  0  0  0
  -22.7755  -29.2231   19.8520 H   0  0  0  0  0  0
  -25.1263  -36.1871   25.0809 H   0  0  0  0  0  0
  -20.9969  -28.3247   24.1380 H   0  0  0  0  0  0
  -20.5602  -26.2315   23.3607 H   0  0  0  0  0  0
  -21.6637  -26.7364   22.1232 H   0  0  0  0  0  0
  -19.6887  -25.6256   21.1255 H   0  0  0  0  0  0
  -19.6678  -27.3146   20.6709 H   0  0  0  0  0  0
  -17.4182  -26.6644   21.4023 H   0  0  0  0  0  0
  -18.0328  -26.0042   22.9009 H   0  0  0  0  0  0
  -19.7952  -30.7232   24.2291 H   0  0  0  0  0  0
  -17.5030  -31.6269   24.5123 H   0  0  0  0  0  0
  -15.5363  -30.2975   23.7635 H   0  0  0  0  0  0
  -15.8676  -28.0785   22.7106 H   0  0  0  0  0  0
  -24.5917  -30.7052   25.7882 H   0  0  0  0  0  0
  -24.8946  -32.2909   26.4905 H   0  0  0  0  0  0
  -25.8119  -30.8974   27.0254 H   0  0  0  0  0  0
  -26.2822  -29.6771   24.1207 H   0  0  0  0  0  0
  -27.3909  -29.7187   25.4705 H   0  0  0  0  0  0
  -27.8731  -30.4206   23.9422 H   0  0  0  0  0  0
  -27.2532  -33.3644   26.2050 H   0  0  0  0  0  0
  -28.3861  -32.6907   25.0429 H   0  0  0  0  0  0
  -28.0586  -31.8520   26.5539 H   0  0  0  0  0  0
  -28.2534  -38.0147   24.7524 H   0  0  0  0  0  0
  -28.1107  -36.2677   24.6191 H   0  0  0  0  0  0
  -27.2314  -37.1366   25.8862 H   0  0  0  0  0  0
  -20.9440  -29.8820   21.6912 H   0  0  0  0  0  0
  -26.0117  -38.2829   24.1454 H   0  0  0  0  0  0
  -28.5606  -18.4928   21.5438 H   0  0  0  0  0  0
  -31.7893  -16.4610   18.2592 H   0  0  0  0  0  0
  -33.0779  -16.9539   19.3802 H   0  0  0  0  0  0
  -32.6378  -17.9607   17.9990 H   0  0  0  0  0  0
  -32.9288  -19.9411   18.7131 H   0  0  0  0  0  0
  -32.4644  -21.0707   19.9510 H   0  0  0  0  0  0
  -31.5873  -20.9895   18.4004 H   0  0  0  0  0  0
  -28.1187  -22.8692   18.2585 H   0  0  0  0  0  0
  -27.3034  -21.9742   19.5483 H   0  0  0  0  0  0
  -28.4256  -21.1502   18.4759 H   0  0  0  0  0  0
  -30.0319  -24.0879   21.3108 H   0  0  0  0  0  0
  -30.0995  -24.4763   19.6476 H   0  0  0  0  0  0
  -28.6693  -21.0606   21.5568 H   0  0  0  0  0  0
  -30.3266  -21.4732   21.7510 H   0  0  0  0  0  0
  -30.2690  -22.3344   19.3189 H   0  0  0  0  0  0
  -28.9651  -15.7503   20.9674 H   0  0  0  0  0  0
  1 25  1  0  0  0
  1 30  2  0  0  0
  1 83  1  0  0  0
  2  3  1  0  0  0
  2 25  1  0  0  0
  2 85  1  0  0  0
  2 86  1  0  0  0
  3  4  1  0  0  0
  3 87  1  0  0  0
  3 88  1  0  0  0
  4  5  1  0  0  0
  4 89  1  0  0  0
  4 90  1  0  0  0
  5  6  1  0  0  0
  5 26  1  0  0  0
  5 91  1  0  0  0
  6 25  1  0  0  0
  6 92  1  0  0  0
  6 93  1  0  0  0
  7  8  2  0  0  0
  7 26  1  0  0  0
  7 29  1  0  0  0
  8  9  1  0  0  0
  8 22  1  0  0  0
  9 10  1  0  0  0
  9 27  2  0  0  0
 10 11  2  0  0  0
 10 15  1  0  0  0
 11 12  1  0  0  0
 11 94  1  0  0  0
 12 13  2  0  0  0
 12 95  1  0  0  0
 13 14  1  0  0  0
 13 31  1  0  0  0
 14 15  2  0  0  0
 14 96  1  0  0  0
 15 97  1  0  0  0
 16 17  2  0  0  0
 16 21  1  0  0  0
 16 31  1  0  0  0
 17 18  1  0  0  0
 17 98  1  0  0  0
 18 19  2  0  0  0
 18 99  1  0  0  0
 19 20  1  0  0  0
 19 24  1  0  0  0
 20 21  2  0  0  0
 20100  1  0  0  0
 21 23  1  0  0  0
 22 28  1  0  0  0
 22 32  2  0  0  0
 26 27  1  0  0  0
 28101  1  0  0  0
 28102  1  0  0  0
 29103  1  0  0  0
 29104  1  0  0  0
 33 34  1  0  0  0
 33 66  1  0  0  0
 33 70  2  0  0  0
 34 36  1  0  0  0
 34 59  1  0  0  0
 34105  1  0  0  0
 35 44  2  0  0  0
 35 45  1  0  0  0
 35 68  1  0  0  0
 36 56  1  0  0  0
 36106  1  0  0  0
 37 39  1  0  0  0
 37 47  1  0  0  0
 37 66  1  0  0  0
 37107  1  0  0  0
 38 43  2  0  0  0
 38 46  1  0  0  0
 38 47  1  0  0  0
 39 64  1  0  0  0
 39 67  2  0  0  0
 40 52  1  0  0  0
 40 53  2  0  0  0
 40 58  1  0  0  0
 41108  1  0  0  0
 41109  1  0  0  0
 41110  1  0  0  0
 41 48  1  0  0  0
 42 43  1  0  0  0
 42 66  1  0  0  0
 42111  1  0  0  0
 42112  1  0  0  0
 43 44  1  0  0  0
 44113  1  0  0  0
 45 46  2  0  0  0
 45114  1  0  0  0
 46115  1  0  0  0
 47116  1  0  0  0
 47117  1  0  0  0
 48 56  1  0  0  0
 48 65  1  0  0  0
 48118  1  0  0  0
 49 50  1  0  0  0
 49 53  1  0  0  0
 49 64  1  0  0  0
 49119  1  0  0  0
 50 51  1  0  0  0
 50120  1  0  0  0
 50121  1  0  0  0
 51 52  1  0  0  0
 51122  1  0  0  0
 51123  1  0  0  0
 52124  1  0  0  0
 52125  1  0  0  0
 53 54  1  0  0  0
 54 55  2  0  0  0
 54126  1  0  0  0
 55 57  1  0  0  0
 55127  1  0  0  0
 56 69  2  0  0  0
 57 58  2  0  0  0
 57128  1  0  0  0
 58129  1  0  0  0
 59 60  1  0  0  0
 59 61  1  0  0  0
 59 62  1  0  0  0
 60130  1  0  0  0
 60131  1  0  0  0
 60132  1  0  0  0
 61133  1  0  0  0
 61134  1  0  0  0
 61135  1  0  0  0
 62136  1  0  0  0
 62137  1  0  0  0
 62138  1  0  0  0
 63 65  1  0  0  0
 63139  1  0  0  0
 63140  1  0  0  0
 63141  1  0  0  0
 64142  1  0  0  0
 65143  1  0  0  0
 68 75  1  0  0  0
 71 73  2  0  0  0
 71 82  1  0  0  0
 71144  1  0  0  0
 72 73  1  0  0  0
 72 74  2  0  0  0
 72 76  1  0  0  0
 73 83  1  0  0  0
 74 77  1  0  0  0
 74 82  1  0  0  0
 75 79  1  0  0  0
 75 84  2  0  0  0
 76145  1  0  0  0
 76146  1  0  0  0
 76147  1  0  0  0
 77148  1  0  0  0
 77149  1  0  0  0
 77150  1  0  0  0
 78151  1  0  0  0
 78152  1  0  0  0
 78153  1  0  0  0
 78 81  1  0  0  0
 79 81  1  0  0  0
 79154  1  0  0  0
 79155  1  0  0  0
 80 81  1  0  0  0
 80 82  1  0  0  0
 80156  1  0  0  0
 80157  1  0  0  0
 81158  1  0  0  0
 83159  1  0  0  0
M  ISO  4   1 100  68 101  75 101  83 100
M  END
> <chiral flag>
0

> <version>
0

> <s_m_source_file>
/data/baiqing/PycharmProjects/Reinvent-master-3.2/result/LINK_invent/BTK/process_docking_weight1_custom_sum_contain_oxygen_bond_distance_aromatic_linkinvent_7_9_3/rearranged_h_0110.sdf

> <i_m_source_file_index>
19

> <r_mmod_Potential_Energy-OPLS-2005>
205.035339355469

> <r_mmod_Stretch_Energy-OPLS-2005>
146.005874633789

> <r_mmod_Bend_Energy-OPLS-2005>
202.419448852539

> <r_mmod_Torsional_Energy-OPLS-2005>
224.996612548828

> <r_mmod_Improper_Torsional_Energy-OPLS-2005>
4.59177780151367

> <r_mmod_Van_der_Waal_Energy-OPLS-2005>
123.072601318359

> <r_mmod_Electrostatic_Energy-OPLS-2005>
-370.236175537109

> <r_mmod_Solvation_Energy-OPLS-2005>
-214.862152099609

> <b_mmod_Minimization_Converged-OPLS-2005>
0

> <r_mmod_RMS_Derivative-OPLS-2005>
5.37876653671265

$$$$
20
                    3D
 Structure written by MMmdl.
162170  0  0  1  0            999 V2000
  -30.7157  -14.4112   20.5302 C   0  0  0  0  0  0
  -30.4066  -12.2544   19.4056 C   0  0  0  0  0  0
  -29.4814  -12.4822   18.1941 C   0  0  0  0  0  0
  -28.0036  -12.3575   18.6113 C   0  0  0  0  0  0
  -27.6579  -13.1847   19.8801 C   0  0  2  0  0  0
  -28.7063  -12.9561   20.9922 C   0  0  0  0  0  0
  -25.2567  -13.8030   20.5717 C   0  0  0  0  0  0
  -24.1808  -13.0350   20.9216 C   0  0  0  0  0  0
  -24.6341  -11.6829   20.8760 C   0  0  0  0  0  0
  -23.8993  -10.4233   21.0411 C   0  0  0  0  0  0
  -24.3565   -9.4158   21.9184 C   0  0  0  0  0  0
  -23.6251   -8.2202   22.0762 C   0  0  0  0  0  0
  -22.4234   -8.0233   21.3547 C   0  0  0  0  0  0
  -21.9843   -9.0202   20.4650 C   0  0  0  0  0  0
  -22.7177  -10.2090   20.3045 C   0  0  0  0  0  0
  -21.6822   -6.0699   22.5294 C   0  0  0  0  0  0
  -21.3987   -6.5617   23.8221 C   0  0  0  0  0  0
  -21.3644   -5.6782   24.9189 C   0  0  0  0  0  0
  -21.6034   -4.3039   24.7253 C   0  0  0  0  0  0
  -21.8829   -3.8128   23.4380 C   0  0  0  0  0  0
  -21.9193   -4.6935   22.3429 C   0  0  0  0  0  0
  -22.7846  -13.5209   21.1881 C   0  0  0  0  0  0
  -22.1662   -4.2118   21.1006 F   0  0  0  0  0  0
  -21.5638   -3.4518   25.7769 F   0  0  0  0  0  0
  -30.0354  -13.2401   20.4302 N   0  0  0  0  0  0
  -26.2999  -12.9202   20.3432 N   0  0  0  0  0  0
  -25.9271  -11.6370   20.5793 N   0  0  0  0  0  0
  -22.0442  -12.8203   22.0388 N   0  0  0  0  0  0
  -25.4183  -15.1739   20.4271 N   0  0  0  0  0  0
  -31.8579  -14.5745   20.0926 O   0  0  0  0  0  0
  -21.6616   -6.8835   21.4245 O   0  0  0  0  0  0
  -22.3585  -14.5540   20.6735 O   0  0  0  0  0  0
  -24.6111  -31.8745   23.2130 C   0  0  0  0  0  0
  -25.9030  -32.4857   23.8411 C   0  0  1  0  0  0
  -27.2302  -27.4697   20.1033 C   0  0  0  0  0  0
  -25.5901  -33.8647   24.2341 N   0  0  0  0  0  0
  -23.3976  -30.4992   21.5494 C   0  0  2  0  0  0
  -24.8447  -28.9719   20.1112 C   0  0  0  0  0  0
  -22.7385  -29.4752   22.4987 C   0  0  0  0  0  0
  -18.0292  -28.1384   22.8411 C   0  0  0  0  0  0
  -24.1486  -36.7322   23.2636 C   0  0  0  0  0  0
  -25.9228  -30.8541   21.3593 C   0  0  0  0  0  0
  -26.0033  -29.4916   20.7062 C   0  0  0  0  0  0
  -27.2034  -28.7473   20.7006 C   0  0  0  0  0  0
  -26.0627  -26.9558   19.5024 C   0  0  0  0  0  0
  -24.8695  -27.7047   19.5003 C   0  0  0  0  0  0
  -23.6013  -29.8278   20.1649 C   0  0  0  0  0  0
  -25.4102  -36.3130   24.0340 C   0  0  1  0  0  0
  -20.5894  -28.3652   23.1271 C   0  0  2  0  0  0
  -20.6775  -26.9435   22.5355 C   0  0  0  0  0  0
  -19.5772  -26.6484   21.5135 C   0  0  0  0  0  0
  -18.1919  -26.7998   22.1443 C   0  0  0  0  0  0
  -19.1550  -28.8816   23.2872 C   0  0  0  0  0  0
  -18.9526  -30.1390   23.8953 C   0  0  0  0  0  0
  -17.6546  -30.6475   24.0738 C   0  0  0  0  0  0
  -25.9033  -34.9499   23.5141 C   0  0  0  0  0  0
  -16.5411  -29.9046   23.6450 C   0  0  0  0  0  0
  -16.7278  -28.6545   23.0281 C   0  0  0  0  0  0
  -26.4457  -31.6614   25.0720 C   0  0  0  0  0  0
  -25.3754  -31.3696   26.1487 C   0  0  0  0  0  0
  -27.0290  -30.3052   24.6084 C   0  0  0  0  0  0
  -27.6032  -32.4333   25.7493 C   0  0  0  0  0  0
  -27.5574  -37.1807   24.8457 C   0  0  0  0  0  0
  -21.4141  -29.3043   22.3696 N   0  0  0  0  0  0
  -26.4292  -37.3790   23.9405 N   0  0  0  0  0  0
  -24.6616  -31.0914   22.0985 N   0  0  0  0  0  0
  -23.4170  -28.8337   23.3029 O   0  0  0  0  0  0
  -28.3694  -26.7083   20.1294 O   0  0  0  0  0  0
  -26.5587  -34.8926   22.4693 O   0  0  0  0  0  0
  -23.5313  -32.1490   23.7535 O   0  0  0  0  0  0
  -27.6551  -20.0388   21.1297 C   0  0  0  0  0  0
  -27.2281  -18.9952   20.2974 C   0  0  0  0  0  0
  -28.1365  -17.9404   20.0271 C   0  0  0  0  0  0
  -29.3612  -17.9112   20.7416 C   0  0  0  0  0  0
  -28.9282  -19.9696   21.7069 C   0  0  0  0  0  0
  -25.8425  -19.0547   19.6732 C   0  0  0  0  0  0
  -27.8520  -16.9815   18.8772 C   0  0  0  0  0  0
  -30.4183  -16.8261   20.5583 C   0  0  0  0  0  0
  -29.2196  -24.5300   20.8788 C   0  0  0  0  0  0
  -29.0297  -23.3861   21.8976 C   0  0  0  0  0  0
  -28.3561  -25.7625   21.2025 C   0  0  0  0  0  0
  -29.8254  -22.1208   21.5386 C   0  0  0  0  0  0
  -29.7374  -18.9042   21.5718 N   0  0  0  0  0  0
  -29.9882  -15.4686   20.9056 N   0  0  0  0  0  0
  -29.4694  -21.0289   22.3866 O   0  0  0  0  0  0
  -31.4496  -12.3302   19.0942 H   0  0  0  0  0  0
  -30.2872  -11.2401   19.7913 H   0  0  0  0  0  0
  -29.7110  -11.7635   17.4082 H   0  0  0  0  0  0
  -29.6652  -13.4683   17.7717 H   0  0  0  0  0  0
  -27.8137  -11.3006   18.8020 H   0  0  0  0  0  0
  -27.3516  -12.6415   17.7843 H   0  0  0  0  0  0
  -27.6965  -14.2298   19.5970 H   0  0  0  0  0  0
  -28.6731  -11.9173   21.3351 H   0  0  0  0  0  0
  -28.4892  -13.5693   21.8663 H   0  0  0  0  0  0
  -25.2702   -9.5669   22.4744 H   0  0  0  0  0  0
  -23.9963   -7.4599   22.7482 H   0  0  0  0  0  0
  -21.0760   -8.8718   19.8955 H   0  0  0  0  0  0
  -22.3616  -10.9630   19.6152 H   0  0  0  0  0  0
  -21.1948   -7.6116   23.9719 H   0  0  0  0  0  0
  -21.1447   -6.0503   25.9091 H   0  0  0  0  0  0
  -22.0616   -2.7579   23.2906 H   0  0  0  0  0  0
  -22.4020  -11.9873   22.4834 H   0  0  0  0  0  0
  -21.1074  -13.1286   22.2557 H   0  0  0  0  0  0
  -24.6302  -15.8083   20.5066 H   0  0  0  0  0  0
  -26.2756  -15.6357   20.1585 H   0  0  0  0  0  0
  -26.7115  -32.5572   23.1209 H   0  0  0  0  0  0
  -25.0032  -33.9791   25.0466 H   0  0  0  0  0  0
  -22.6836  -31.3142   21.4115 H   0  0  0  0  0  0
  -23.3738  -35.9665   23.3325 H   0  0  0  0  0  0
  -24.3552  -36.8908   22.2039 H   0  0  0  0  0  0
  -23.7252  -37.6534   23.6640 H   0  0  0  0  0  0
  -26.0313  -31.6239   20.5944 H   0  0  0  0  0  0
  -26.8071  -30.9051   21.9782 H   0  0  0  0  0  0
  -28.0956  -29.1398   21.1681 H   0  0  0  0  0  0
  -26.0756  -25.9735   19.0534 H   0  0  0  0  0  0
  -23.9805  -27.2980   19.0348 H   0  0  0  0  0  0
  -23.6888  -30.6013   19.4001 H   0  0  0  0  0  0
  -22.7286  -29.2375   19.8784 H   0  0  0  0  0  0
  -25.1289  -36.1992   25.0825 H   0  0  0  0  0  0
  -21.0024  -28.3184   24.1366 H   0  0  0  0  0  0
  -20.5663  -26.2264   23.3506 H   0  0  0  0  0  0
  -21.6678  -26.7502   22.1178 H   0  0  0  0  0  0
  -19.6912  -25.6431   21.1047 H   0  0  0  0  0  0
  -19.6690  -27.3385   20.6748 H   0  0  0  0  0  0
  -17.4299  -26.6939   21.3668 H   0  0  0  0  0  0
  -18.0208  -26.0059   22.8707 H   0  0  0  0  0  0
  -19.8043  -30.7168   24.2325 H   0  0  0  0  0  0
  -17.5111  -31.6077   24.5470 H   0  0  0  0  0  0
  -15.5419  -30.2902   23.7895 H   0  0  0  0  0  0
  -15.8621  -28.0998   22.6911 H   0  0  0  0  0  0
  -24.5914  -30.7064   25.7822 H   0  0  0  0  0  0
  -24.8992  -32.2860   26.4980 H   0  0  0  0  0  0
  -25.8141  -30.8826   27.0210 H   0  0  0  0  0  0
  -26.2832  -29.6812   24.1157 H   0  0  0  0  0  0
  -27.4076  -29.7277   25.4534 H   0  0  0  0  0  0
  -27.8664  -30.4341   23.9217 H   0  0  0  0  0  0
  -27.2614  -33.3591   26.2120 H   0  0  0  0  0  0
  -28.3820  -32.6955   25.0329 H   0  0  0  0  0  0
  -28.0742  -31.8449   26.5374 H   0  0  0  0  0  0
  -28.2615  -38.0079   24.7497 H   0  0  0  0  0  0
  -28.1056  -36.2622   24.6330 H   0  0  0  0  0  0
  -27.2286  -37.1511   25.8851 H   0  0  0  0  0  0
  -20.9252  -29.8746   21.6925 H   0  0  0  0  0  0
  -26.0203  -38.2875   24.1385 H   0  0  0  0  0  0
  -27.0396  -20.9112   21.3007 H   0  0  0  0  0  0
  -25.2536  -18.1885   19.9847 H   0  0  0  0  0  0
  -25.9092  -19.0701   18.5877 H   0  0  0  0  0  0
  -25.3001  -19.9486   19.9856 H   0  0  0  0  0  0
  -28.0745  -17.4906   17.9413 H   0  0  0  0  0  0
  -26.8063  -16.6779   18.8197 H   0  0  0  0  0  0
  -28.4714  -16.0905   18.8960 H   0  0  0  0  0  0
  -31.3110  -17.0617   21.1381 H   0  0  0  0  0  0
  -30.7364  -16.8484   19.5155 H   0  0  0  0  0  0
  -28.9567  -24.1684   19.8839 H   0  0  0  0  0  0
  -30.2683  -24.8209   20.8248 H   0  0  0  0  0  0
  -27.9725  -23.1352   21.9552 H   0  0  0  0  0  0
  -29.3135  -23.7213   22.8917 H   0  0  0  0  0  0
  -28.7122  -26.2525   22.1092 H   0  0  0  0  0  0
  -27.3389  -25.4328   21.4179 H   0  0  0  0  0  0
  -30.8930  -22.3119   21.6411 H   0  0  0  0  0  0
  -29.6738  -21.8792   20.4832 H   0  0  0  0  0  0
  -29.0373  -15.3310   21.2093 H   0  0  0  0  0  0
  1 25  1  0  0  0
  1 30  2  0  0  0
  1 84  1  0  0  0
  2  3  1  0  0  0
  2 25  1  0  0  0
  2 86  1  0  0  0
  2 87  1  0  0  0
  3  4  1  0  0  0
  3 88  1  0  0  0
  3 89  1  0  0  0
  4  5  1  0  0  0
  4 90  1  0  0  0
  4 91  1  0  0  0
  5  6  1  0  0  0
  5 26  1  0  0  0
  5 92  1  0  0  0
  6 25  1  0  0  0
  6 93  1  0  0  0
  6 94  1  0  0  0
  7  8  2  0  0  0
  7 26  1  0  0  0
  7 29  1  0  0  0
  8  9  1  0  0  0
  8 22  1  0  0  0
  9 10  1  0  0  0
  9 27  2  0  0  0
 10 11  2  0  0  0
 10 15  1  0  0  0
 11 12  1  0  0  0
 11 95  1  0  0  0
 12 13  2  0  0  0
 12 96  1  0  0  0
 13 14  1  0  0  0
 13 31  1  0  0  0
 14 15  2  0  0  0
 14 97  1  0  0  0
 15 98  1  0  0  0
 16 17  2  0  0  0
 16 21  1  0  0  0
 16 31  1  0  0  0
 17 18  1  0  0  0
 17 99  1  0  0  0
 18 19  2  0  0  0
 18100  1  0  0  0
 19 20  1  0  0  0
 19 24  1  0  0  0
 20 21  2  0  0  0
 20101  1  0  0  0
 21 23  1  0  0  0
 22 28  1  0  0  0
 22 32  2  0  0  0
 26 27  1  0  0  0
 28102  1  0  0  0
 28103  1  0  0  0
 29104  1  0  0  0
 29105  1  0  0  0
 33 34  1  0  0  0
 33 66  1  0  0  0
 33 70  2  0  0  0
 34 36  1  0  0  0
 34 59  1  0  0  0
 34106  1  0  0  0
 35 44  2  0  0  0
 35 45  1  0  0  0
 35 68  1  0  0  0
 36 56  1  0  0  0
 36107  1  0  0  0
 37 39  1  0  0  0
 37 47  1  0  0  0
 37 66  1  0  0  0
 37108  1  0  0  0
 38 43  2  0  0  0
 38 46  1  0  0  0
 38 47  1  0  0  0
 39 64  1  0  0  0
 39 67  2  0  0  0
 40 52  1  0  0  0
 40 53  2  0  0  0
 40 58  1  0  0  0
 41109  1  0  0  0
 41110  1  0  0  0
 41111  1  0  0  0
 41 48  1  0  0  0
 42 43  1  0  0  0
 42 66  1  0  0  0
 42112  1  0  0  0
 42113  1  0  0  0
 43 44  1  0  0  0
 44114  1  0  0  0
 45 46  2  0  0  0
 45115  1  0  0  0
 46116  1  0  0  0
 47117  1  0  0  0
 47118  1  0  0  0
 48 56  1  0  0  0
 48 65  1  0  0  0
 48119  1  0  0  0
 49 50  1  0  0  0
 49 53  1  0  0  0
 49 64  1  0  0  0
 49120  1  0  0  0
 50 51  1  0  0  0
 50121  1  0  0  0
 50122  1  0  0  0
 51 52  1  0  0  0
 51123  1  0  0  0
 51124  1  0  0  0
 52125  1  0  0  0
 52126  1  0  0  0
 53 54  1  0  0  0
 54 55  2  0  0  0
 54127  1  0  0  0
 55 57  1  0  0  0
 55128  1  0  0  0
 56 69  2  0  0  0
 57 58  2  0  0  0
 57129  1  0  0  0
 58130  1  0  0  0
 59 60  1  0  0  0
 59 61  1  0  0  0
 59 62  1  0  0  0
 60131  1  0  0  0
 60132  1  0  0  0
 60133  1  0  0  0
 61134  1  0  0  0
 61135  1  0  0  0
 61136  1  0  0  0
 62137  1  0  0  0
 62138  1  0  0  0
 62139  1  0  0  0
 63 65  1  0  0  0
 63140  1  0  0  0
 63141  1  0  0  0
 63142  1  0  0  0
 64143  1  0  0  0
 65144  1  0  0  0
 68 81  1  0  0  0
 71 72  2  0  0  0
 71 75  1  0  0  0
 71145  1  0  0  0
 72 73  1  0  0  0
 72 76  1  0  0  0
 73 74  2  0  0  0
 73 77  1  0  0  0
 74 78  1  0  0  0
 74 83  1  0  0  0
 75 83  2  0  0  0
 75 85  1  0  0  0
 76146  1  0  0  0
 76147  1  0  0  0
 76148  1  0  0  0
 77149  1  0  0  0
 77150  1  0  0  0
 77151  1  0  0  0
 78 84  1  0  0  0
 78152  1  0  0  0
 78153  1  0  0  0
 79 80  1  0  0  0
 79 81  1  0  0  0
 79154  1  0  0  0
 79155  1  0  0  0
 80 82  1  0  0  0
 80156  1  0  0  0
 80157  1  0  0  0
 81158  1  0  0  0
 81159  1  0  0  0
 82 85  1  0  0  0
 82160  1  0  0  0
 82161  1  0  0  0
 84162  1  0  0  0
M  ISO  4   1 100  68 101  81 101  84 100
M  END
> <chiral flag>
0

> <version>
0

> <s_m_source_file>
/data/baiqing/PycharmProjects/Reinvent-master-3.2/result/LINK_invent/BTK/process_docking_weight1_custom_sum_contain_oxygen_bond_distance_aromatic_linkinvent_7_9_3/rearranged_h_0110.sdf

> <i_m_source_file_index>
20

> <r_mmod_Potential_Energy-OPLS-2005>
-320.192474365234

> <r_mmod_Stretch_Energy-OPLS-2005>
31.9056835174561

> <r_mmod_Bend_Energy-OPLS-2005>
87.8201370239258

> <r_mmod_Torsional_Energy-OPLS-2005>
266.652618408203

> <r_mmod_Improper_Torsional_Energy-OPLS-2005>
7.38278293609619

> <r_mmod_Van_der_Waal_Energy-OPLS-2005>
157.377243041992

> <r_mmod_Electrostatic_Energy-OPLS-2005>
-667.872375488281

> <r_mmod_Solvation_Energy-OPLS-2005>
-216.032745361328

> <b_mmod_Minimization_Converged-OPLS-2005>
0

> <r_mmod_RMS_Derivative-OPLS-2005>
6.43899440765381

$$$$
21
                    3D
 Structure written by MMmdl.
158166  0  0  1  0            999 V2000
  -30.5073  -15.0196   20.4541 C   0  0  0  0  0  0
  -30.4534  -12.6491   19.4934 C   0  0  0  0  0  0
  -29.5196  -12.5373   18.2638 C   0  0  0  0  0  0
  -28.0626  -12.2957   18.6989 C   0  0  0  0  0  0
  -27.6333  -13.2425   19.8474 C   0  0  2  0  0  0
  -28.6793  -13.2855   20.9814 C   0  0  0  0  0  0
  -25.2495  -13.8182   20.5731 C   0  0  0  0  0  0
  -24.1799  -13.0424   20.9229 C   0  0  0  0  0  0
  -24.6408  -11.6905   20.8777 C   0  0  0  0  0  0
  -23.9087  -10.4282   21.0419 C   0  0  0  0  0  0
  -24.3630   -9.4200   21.9193 C   0  0  0  0  0  0
  -23.6311   -8.2241   22.0757 C   0  0  0  0  0  0
  -22.4282   -8.0284   21.3551 C   0  0  0  0  0  0
  -21.9928   -9.0253   20.4645 C   0  0  0  0  0  0
  -22.7262  -10.2138   20.3064 C   0  0  0  0  0  0
  -21.6843   -6.0745   22.5268 C   0  0  0  0  0  0
  -21.4020   -6.5647   23.8203 C   0  0  0  0  0  0
  -21.3659   -5.6795   24.9171 C   0  0  0  0  0  0
  -21.6044   -4.3060   24.7217 C   0  0  0  0  0  0
  -21.8824   -3.8156   23.4330 C   0  0  0  0  0  0
  -21.9203   -4.6973   22.3390 C   0  0  0  0  0  0
  -22.7822  -13.5214   21.1868 C   0  0  0  0  0  0
  -22.1665   -4.2158   21.0961 F   0  0  0  0  0  0
  -21.5628   -3.4545   25.7729 F   0  0  0  0  0  0
  -29.9400  -13.7409   20.3775 N   0  0  0  0  0  0
  -26.2925  -12.9413   20.3318 N   0  0  0  0  0  0
  -25.9342  -11.6552   20.5805 N   0  0  0  0  0  0
  -22.0483  -12.8187   22.0410 N   0  0  0  0  0  0
  -25.4154  -15.1919   20.4096 N   0  0  0  0  0  0
  -31.7134  -15.0971   20.1908 O   0  0  0  0  0  0
  -21.6633   -6.8888   21.4232 O   0  0  0  0  0  0
  -22.3524  -14.5524   20.6705 O   0  0  0  0  0  0
  -24.6475  -31.8376   23.1809 C   0  0  0  0  0  0
  -25.9236  -32.4633   23.8196 C   0  0  1  0  0  0
  -27.2128  -27.0779   20.1684 C   0  0  0  0  0  0
  -25.5971  -33.8429   24.2127 N   0  0  0  0  0  0
  -23.4521  -30.4577   21.5253 C   0  0  2  0  0  0
  -24.9032  -28.8725   20.1043 C   0  0  0  0  0  0
  -22.7580  -29.4508   22.4782 C   0  0  0  0  0  0
  -18.0326  -28.1423   22.8434 C   0  0  0  0  0  0
  -24.1490  -36.7216   23.2638 C   0  0  0  0  0  0
  -26.0114  -30.6927   21.3856 C   0  0  0  0  0  0
  -26.0800  -29.2981   20.7328 C   0  0  0  0  0  0
  -27.2323  -28.4183   20.7469 C   0  0  0  0  0  0
  -26.0097  -26.7660   19.4979 C   0  0  0  0  0  0
  -24.8818  -27.6196   19.4703 C   0  0  0  0  0  0
  -23.6841  -29.7874   20.1439 C   0  0  0  0  0  0
  -25.4112  -36.2973   24.0331 C   0  0  1  0  0  0
  -20.5936  -28.3729   23.1199 C   0  0  2  0  0  0
  -20.6817  -26.9418   22.5388 C   0  0  0  0  0  0
  -19.5795  -26.6387   21.5199 C   0  0  0  0  0  0
  -18.1965  -26.7938   22.1615 C   0  0  0  0  0  0
  -19.1595  -28.8886   23.2798 C   0  0  0  0  0  0
  -18.9529  -30.1478   23.8828 C   0  0  0  0  0  0
  -17.6540  -30.6612   24.0554 C   0  0  0  0  0  0
  -25.9096  -34.9365   23.5050 C   0  0  0  0  0  0
  -16.5405  -29.9109   23.6340 C   0  0  0  0  0  0
  -16.7325  -28.6557   23.0322 C   0  0  0  0  0  0
  -26.4548  -31.6514   25.0636 C   0  0  0  0  0  0
  -25.3725  -31.3768   26.1332 C   0  0  0  0  0  0
  -27.0406  -30.2900   24.6236 C   0  0  0  0  0  0
  -27.6092  -32.4277   25.7425 C   0  0  0  0  0  0
  -27.5546  -37.1755   24.8480 C   0  0  0  0  0  0
  -21.4285  -29.3040   22.3549 N   0  0  0  0  0  0
  -26.4241  -37.3713   23.9458 N   0  0  0  0  0  0
  -24.7231  -31.0180   22.0872 N   0  0  0  0  0  0
  -23.4199  -28.8042   23.2944 O   0  0  0  0  0  0
  -28.2553  -26.0653   20.2614 O   0  0  0  0  0  0
  -26.5677  -34.8898   22.4628 O   0  0  0  0  0  0
  -23.5601  -32.1280   23.7022 O   0  0  0  0  0  0
  -30.1731  -19.8429   21.6033 C   0  0  0  0  0  0
  -29.0373  -18.7534   20.0876 C   0  0  0  0  0  0
  -30.4839  -18.4833   21.7647 C   0  0  0  0  0  0
  -29.7889  -17.7288   20.7391 C   0  0  0  0  0  0
  -30.7769  -16.7505   23.6577 C   0  0  0  0  0  0
  -31.7020  -19.0439   23.9432 C   0  0  0  0  0  0
  -28.4727  -21.4922   20.2889 C   0  0  0  0  0  0
  -28.0086  -24.5130   20.0500 C   0  0  0  0  0  0
  -31.3731  -17.9537   22.9006 C   0  0  0  0  0  0
  -28.9866  -23.1312   20.3907 C   0  0  2  0  0  0
  -29.2455  -20.1064   20.5953 N   0  0  0  0  0  0
  -29.6693  -16.1795   20.5973 N   0  0  0  0  0  0
  -30.0919  -23.2245   19.5029 O   0  0  0  0  0  0
  -31.4729  -12.8486   19.1575 H   0  0  0  0  0  0
  -30.5012  -11.7056   20.0404 H   0  0  0  0  0  0
  -29.8515  -11.7309   17.6105 H   0  0  0  0  0  0
  -29.5733  -13.4541   17.6755 H   0  0  0  0  0  0
  -27.9841  -11.2579   19.0301 H   0  0  0  0  0  0
  -27.3860  -12.3916   17.8483 H   0  0  0  0  0  0
  -27.5926  -14.2370   19.4048 H   0  0  0  0  0  0
  -28.8004  -12.3045   21.4441 H   0  0  0  0  0  0
  -28.3668  -13.9668   21.7741 H   0  0  0  0  0  0
  -25.2767   -9.5677   22.4758 H   0  0  0  0  0  0
  -24.0011   -7.4636   22.7474 H   0  0  0  0  0  0
  -21.0855   -8.8782   19.8936 H   0  0  0  0  0  0
  -22.3723  -10.9684   19.6166 H   0  0  0  0  0  0
  -21.2011   -7.6147   23.9713 H   0  0  0  0  0  0
  -21.1473   -6.0517   25.9065 H   0  0  0  0  0  0
  -22.0607   -2.7614   23.2818 H   0  0  0  0  0  0
  -22.4122  -11.9825   22.4726 H   0  0  0  0  0  0
  -21.1120  -13.1208   22.2674 H   0  0  0  0  0  0
  -24.6381  -15.8367   20.4961 H   0  0  0  0  0  0
  -26.2555  -15.6318   20.0570 H   0  0  0  0  0  0
  -26.7280  -32.5237   23.0887 H   0  0  0  0  0  0
  -25.0092  -33.9546   25.0242 H   0  0  0  0  0  0
  -22.7543  -31.2849   21.3670 H   0  0  0  0  0  0
  -23.3759  -35.9532   23.3271 H   0  0  0  0  0  0
  -24.3563  -36.8877   22.2044 H   0  0  0  0  0  0
  -23.7233  -37.6402   23.6721 H   0  0  0  0  0  0
  -26.1629  -31.4431   20.6073 H   0  0  0  0  0  0
  -26.8817  -30.7466   22.0249 H   0  0  0  0  0  0
  -28.1203  -28.7336   21.2707 H   0  0  0  0  0  0
  -25.9039  -25.8125   19.0053 H   0  0  0  0  0  0
  -23.9852  -27.2887   18.9625 H   0  0  0  0  0  0
  -23.8255  -30.5651   19.3916 H   0  0  0  0  0  0
  -22.7943  -29.2417   19.8300 H   0  0  0  0  0  0
  -25.1279  -36.1750   25.0815 H   0  0  0  0  0  0
  -21.0036  -28.3354   24.1332 H   0  0  0  0  0  0
  -20.5698  -26.2361   23.3629 H   0  0  0  0  0  0
  -21.6679  -26.7421   22.1181 H   0  0  0  0  0  0
  -19.6968  -25.6292   21.1253 H   0  0  0  0  0  0
  -19.6756  -27.3174   20.6682 H   0  0  0  0  0  0
  -17.4223  -26.6658   21.4011 H   0  0  0  0  0  0
  -18.0349  -26.0106   22.9030 H   0  0  0  0  0  0
  -19.8024  -30.7285   24.2147 H   0  0  0  0  0  0
  -17.5128  -31.6294   24.5179 H   0  0  0  0  0  0
  -15.5409  -30.3021   23.7746 H   0  0  0  0  0  0
  -15.8706  -28.0910   22.7017 H   0  0  0  0  0  0
  -24.5940  -30.7059   25.7696 H   0  0  0  0  0  0
  -24.8849  -32.2977   26.4575 H   0  0  0  0  0  0
  -25.7959  -30.9083   27.0225 H   0  0  0  0  0  0
  -26.3008  -29.6594   24.1301 H   0  0  0  0  0  0
  -27.4090  -29.7219   25.4796 H   0  0  0  0  0  0
  -27.8903  -30.4124   23.9505 H   0  0  0  0  0  0
  -27.2792  -33.3776   26.1645 H   0  0  0  0  0  0
  -28.4098  -32.6470   25.0343 H   0  0  0  0  0  0
  -28.0518  -31.8562   26.5597 H   0  0  0  0  0  0
  -28.2539  -38.0067   24.7504 H   0  0  0  0  0  0
  -28.1070  -36.2599   24.6331 H   0  0  0  0  0  0
  -27.2294  -37.1398   25.8887 H   0  0  0  0  0  0
  -20.9488  -29.8809   21.6771 H   0  0  0  0  0  0
  -26.0098  -38.2764   24.1491 H   0  0  0  0  0  0
  -30.4910  -20.6865   22.1985 H   0  0  0  0  0  0
  -28.3041  -18.6370   19.3008 H   0  0  0  0  0  0
  -30.6528  -15.8753   23.0296 H   0  0  0  0  0  0
  -29.8098  -16.9917   24.0957 H   0  0  0  0  0  0
  -31.4336  -16.4425   24.4718 H   0  0  0  0  0  0
  -32.1855  -19.9106   23.4901 H   0  0  0  0  0  0
  -32.3745  -18.6719   24.7165 H   0  0  0  0  0  0
  -30.7971  -19.3863   24.4487 H   0  0  0  0  0  0
  -28.0524  -21.3698   19.2898 H   0  0  0  0  0  0
  -27.6005  -21.4537   20.9414 H   0  0  0  0  0  0
  -27.0853  -24.3187   20.5951 H   0  0  0  0  0  0
  -27.7329  -24.4179   18.9976 H   0  0  0  0  0  0
  -32.3118  -17.6332   22.4432 H   0  0  0  0  0  0
  -29.3742  -23.2631   21.4013 H   0  0  0  0  0  0
  -28.7087  -15.8783   20.6384 H   0  0  0  0  0  0
  -30.7518  -22.5995   19.7940 H   0  0  0  0  0  0
  1 25  1  0  0  0
  1 30  2  0  0  0
  1 82  1  0  0  0
  2  3  1  0  0  0
  2 25  1  0  0  0
  2 84  1  0  0  0
  2 85  1  0  0  0
  3  4  1  0  0  0
  3 86  1  0  0  0
  3 87  1  0  0  0
  4  5  1  0  0  0
  4 88  1  0  0  0
  4 89  1  0  0  0
  5  6  1  0  0  0
  5 26  1  0  0  0
  5 90  1  0  0  0
  6 25  1  0  0  0
  6 91  1  0  0  0
  6 92  1  0  0  0
  7  8  2  0  0  0
  7 26  1  0  0  0
  7 29  1  0  0  0
  8  9  1  0  0  0
  8 22  1  0  0  0
  9 10  1  0  0  0
  9 27  2  0  0  0
 10 11  2  0  0  0
 10 15  1  0  0  0
 11 12  1  0  0  0
 11 93  1  0  0  0
 12 13  2  0  0  0
 12 94  1  0  0  0
 13 14  1  0  0  0
 13 31  1  0  0  0
 14 15  2  0  0  0
 14 95  1  0  0  0
 15 96  1  0  0  0
 16 17  2  0  0  0
 16 21  1  0  0  0
 16 31  1  0  0  0
 17 18  1  0  0  0
 17 97  1  0  0  0
 18 19  2  0  0  0
 18 98  1  0  0  0
 19 20  1  0  0  0
 19 24  1  0  0  0
 20 21  2  0  0  0
 20 99  1  0  0  0
 21 23  1  0  0  0
 22 28  1  0  0  0
 22 32  2  0  0  0
 26 27  1  0  0  0
 28100  1  0  0  0
 28101  1  0  0  0
 29102  1  0  0  0
 29103  1  0  0  0
 33 34  1  0  0  0
 33 66  1  0  0  0
 33 70  2  0  0  0
 34 36  1  0  0  0
 34 59  1  0  0  0
 34104  1  0  0  0
 35 44  2  0  0  0
 35 45  1  0  0  0
 35 68  1  0  0  0
 36 56  1  0  0  0
 36105  1  0  0  0
 37 39  1  0  0  0
 37 47  1  0  0  0
 37 66  1  0  0  0
 37106  1  0  0  0
 38 43  2  0  0  0
 38 46  1  0  0  0
 38 47  1  0  0  0
 39 64  1  0  0  0
 39 67  2  0  0  0
 40 52  1  0  0  0
 40 53  2  0  0  0
 40 58  1  0  0  0
 41107  1  0  0  0
 41108  1  0  0  0
 41109  1  0  0  0
 41 48  1  0  0  0
 42 43  1  0  0  0
 42 66  1  0  0  0
 42110  1  0  0  0
 42111  1  0  0  0
 43 44  1  0  0  0
 44112  1  0  0  0
 45 46  2  0  0  0
 45113  1  0  0  0
 46114  1  0  0  0
 47115  1  0  0  0
 47116  1  0  0  0
 48 56  1  0  0  0
 48 65  1  0  0  0
 48117  1  0  0  0
 49 50  1  0  0  0
 49 53  1  0  0  0
 49 64  1  0  0  0
 49118  1  0  0  0
 50 51  1  0  0  0
 50119  1  0  0  0
 50120  1  0  0  0
 51 52  1  0  0  0
 51121  1  0  0  0
 51122  1  0  0  0
 52123  1  0  0  0
 52124  1  0  0  0
 53 54  1  0  0  0
 54 55  2  0  0  0
 54125  1  0  0  0
 55 57  1  0  0  0
 55126  1  0  0  0
 56 69  2  0  0  0
 57 58  2  0  0  0
 57127  1  0  0  0
 58128  1  0  0  0
 59 60  1  0  0  0
 59 61  1  0  0  0
 59 62  1  0  0  0
 60129  1  0  0  0
 60130  1  0  0  0
 60131  1  0  0  0
 61132  1  0  0  0
 61133  1  0  0  0
 61134  1  0  0  0
 62135  1  0  0  0
 62136  1  0  0  0
 62137  1  0  0  0
 63 65  1  0  0  0
 63138  1  0  0  0
 63139  1  0  0  0
 63140  1  0  0  0
 64141  1  0  0  0
 65142  1  0  0  0
 68 78  1  0  0  0
 71 73  2  0  0  0
 71 81  1  0  0  0
 71143  1  0  0  0
 72 74  2  0  0  0
 72 81  1  0  0  0
 72144  1  0  0  0
 73 74  1  0  0  0
 73 79  1  0  0  0
 74 82  1  0  0  0
 75145  1  0  0  0
 75146  1  0  0  0
 75147  1  0  0  0
 75 79  1  0  0  0
 76 79  1  0  0  0
 76148  1  0  0  0
 76149  1  0  0  0
 76150  1  0  0  0
 77 80  1  0  0  0
 77 81  1  0  0  0
 77151  1  0  0  0
 77152  1  0  0  0
 78 80  1  0  0  0
 78153  1  0  0  0
 78154  1  0  0  0
 79155  1  0  0  0
 80 83  1  0  0  0
 80156  1  0  0  0
 82157  1  0  0  0
 83158  1  0  0  0
M  ISO  4   1 100  68 101  78 101  82 100
M  END
> <chiral flag>
0

> <version>
0

> <s_m_source_file>
/data/baiqing/PycharmProjects/Reinvent-master-3.2/result/LINK_invent/BTK/process_docking_weight1_custom_sum_contain_oxygen_bond_distance_aromatic_linkinvent_7_9_3/rearranged_h_0110.sdf

> <i_m_source_file_index>
21

> <r_mmod_Potential_Energy-OPLS-2005>
668.797546386719

> <r_mmod_Stretch_Energy-OPLS-2005>
323.537780761719

> <r_mmod_Bend_Energy-OPLS-2005>
308.321960449219

> <r_mmod_Torsional_Energy-OPLS-2005>
246.065093994141

> <r_mmod_Improper_Torsional_Energy-OPLS-2005>
8.68760299682617

> <r_mmod_Van_der_Waal_Energy-OPLS-2005>
108.736053466797

> <r_mmod_Electrostatic_Energy-OPLS-2005>
-334.9423828125

> <r_mmod_Solvation_Energy-OPLS-2005>
-238.918853759766

> <b_mmod_Minimization_Converged-OPLS-2005>
0

> <r_mmod_RMS_Derivative-OPLS-2005>
4.52067899703979

$$$$
22
                    3D
 Structure written by MMmdl.
170178  0  0  1  0            999 V2000
  -30.6626  -14.5444   20.5848 C   0  0  0  0  0  0
  -30.4399  -12.3563   19.4273 C   0  0  0  0  0  0
  -29.5074  -12.5199   18.2081 C   0  0  0  0  0  0
  -28.0281  -12.3613   18.6184 C   0  0  0  0  0  0
  -27.6612  -13.2039   19.8696 C   0  0  2  0  0  0
  -28.7028  -12.9962   20.9930 C   0  0  0  0  0  0
  -25.2589  -13.8151   20.5635 C   0  0  0  0  0  0
  -24.1837  -13.0459   20.9166 C   0  0  0  0  0  0
  -24.6371  -11.6919   20.8715 C   0  0  0  0  0  0
  -23.9028  -10.4318   21.0401 C   0  0  0  0  0  0
  -24.3591   -9.4241   21.9177 C   0  0  0  0  0  0
  -23.6276   -8.2270   22.0744 C   0  0  0  0  0  0
  -22.4252   -8.0294   21.3547 C   0  0  0  0  0  0
  -21.9885   -9.0260   20.4637 C   0  0  0  0  0  0
  -22.7201  -10.2152   20.3048 C   0  0  0  0  0  0
  -21.6848   -6.0727   22.5281 C   0  0  0  0  0  0
  -21.3999   -6.5616   23.8218 C   0  0  0  0  0  0
  -21.3679   -5.6758   24.9182 C   0  0  0  0  0  0
  -21.6061   -4.3024   24.7218 C   0  0  0  0  0  0
  -21.8820   -3.8127   23.4335 C   0  0  0  0  0  0
  -21.9190   -4.6956   22.3394 C   0  0  0  0  0  0
  -22.7873  -13.5287   21.1845 C   0  0  0  0  0  0
  -22.1661   -4.2146   21.0976 F   0  0  0  0  0  0
  -21.5661   -3.4501   25.7732 F   0  0  0  0  0  0
  -30.0284  -13.3415   20.4450 N   0  0  0  0  0  0
  -26.3017  -12.9306   20.3302 N   0  0  0  0  0  0
  -25.9288  -11.6482   20.5702 N   0  0  0  0  0  0
  -22.0446  -12.8305   22.0389 N   0  0  0  0  0  0
  -25.4326  -15.1865   20.4050 N   0  0  0  0  0  0
  -31.7893  -14.7514   20.1253 O   0  0  0  0  0  0
  -21.6628   -6.8881   21.4248 O   0  0  0  0  0  0
  -22.3600  -14.5611   20.6711 O   0  0  0  0  0  0
  -24.6227  -31.8623   23.2048 C   0  0  0  0  0  0
  -25.9087  -32.4798   23.8363 C   0  0  1  0  0  0
  -27.2469  -27.3712   20.0976 C   0  0  0  0  0  0
  -25.5910  -33.8588   24.2317 N   0  0  0  0  0  0
  -23.4161  -30.4853   21.5465 C   0  0  2  0  0  0
  -24.8657  -28.9481   20.1119 C   0  0  0  0  0  0
  -22.7460  -29.4639   22.4950 C   0  0  0  0  0  0
  -18.0277  -28.1412   22.8462 C   0  0  0  0  0  0
  -24.1486  -36.7293   23.2636 C   0  0  0  0  0  0
  -25.9525  -30.8109   21.3678 C   0  0  0  0  0  0
  -26.0311  -29.4419   20.7081 C   0  0  0  0  0  0
  -27.2232  -28.6669   20.6873 C   0  0  0  0  0  0
  -26.0500  -26.9130   19.4919 C   0  0  0  0  0  0
  -24.8756  -27.6882   19.4942 C   0  0  0  0  0  0
  -23.6282  -29.8172   20.1628 C   0  0  0  0  0  0
  -25.4112  -36.3094   24.0341 C   0  0  1  0  0  0
  -20.5873  -28.3705   23.1270 C   0  0  2  0  0  0
  -20.6764  -26.9428   22.5393 C   0  0  0  0  0  0
  -19.5752  -26.6408   21.5185 C   0  0  0  0  0  0
  -18.1932  -26.7965   22.1601 C   0  0  0  0  0  0
  -19.1529  -28.8884   23.2869 C   0  0  0  0  0  0
  -18.9442  -30.1475   23.8908 C   0  0  0  0  0  0
  -17.6441  -30.6608   24.0563 C   0  0  0  0  0  0
  -25.9024  -34.9453   23.5137 C   0  0  0  0  0  0
  -16.5338  -29.9102   23.6322 C   0  0  0  0  0  0
  -16.7261  -28.6522   23.0341 C   0  0  0  0  0  0
  -26.4495  -31.6587   25.0711 C   0  0  0  0  0  0
  -25.3718  -31.3666   26.1421 C   0  0  0  0  0  0
  -27.0324  -30.3042   24.6103 C   0  0  0  0  0  0
  -27.6082  -32.4299   25.7440 C   0  0  0  0  0  0
  -27.5599  -37.1788   24.8476 C   0  0  0  0  0  0
  -21.4180  -29.3059   22.3673 N   0  0  0  0  0  0
  -26.4322  -37.3771   23.9400 N   0  0  0  0  0  0
  -24.6820  -31.0685   22.0970 N   0  0  0  0  0  0
  -23.4188  -28.8178   23.3028 O   0  0  0  0  0  0
  -28.4112  -26.5922   20.1445 O   0  0  0  0  0  0
  -26.5583  -34.8926   22.4699 O   0  0  0  0  0  0
  -23.5396  -32.1377   23.7401 O   0  0  0  0  0  0
  -31.9330  -22.3885   20.8769 C   0  0  0  0  0  0
  -32.0806  -20.1723   21.0101 C   0  0  0  0  0  0
  -32.8313  -21.3084   21.1044 C   0  0  0  0  0  0
  -30.6725  -21.9058   20.6225 C   0  0  0  0  0  0
  -34.7390  -22.6484   22.1212 C   0  0  0  0  0  0
  -35.1291  -21.2142   20.0813 C   0  0  0  0  0  0
  -28.5554  -25.1346   18.2246 C   0  0  0  0  0  0
  -29.4193  -22.7201   20.2682 C   0  0  0  0  0  0
  -29.4959  -24.2971   20.4493 C   0  0  0  0  0  0
  -30.1378  -17.9611   20.2533 C   0  0  0  0  0  0
  -29.7082  -19.4712   20.4974 C   0  0  0  0  0  0
  -34.3221  -21.3683   21.3786 C   0  0  0  0  0  0
  -28.3843  -25.1788   19.7560 C   0  0  1  0  0  0
  -30.1132  -16.9634   21.4665 C   0  0  1  0  0  0
  -30.7682  -20.4899   20.6920 N   0  0  0  0  0  0
  -29.9030  -15.5229   21.1433 N   0  0  0  0  0  0
  -31.2323  -17.1528   22.3121 O   0  0  0  0  0  0
  -31.4830  -12.4770   19.1283 H   0  0  0  0  0  0
  -30.3643  -11.3430   19.8290 H   0  0  0  0  0  0
  -29.7627  -11.7925   17.4373 H   0  0  0  0  0  0
  -29.6567  -13.5019   17.7585 H   0  0  0  0  0  0
  -27.8522  -11.3028   18.8192 H   0  0  0  0  0  0
  -27.3789  -12.6235   17.7830 H   0  0  0  0  0  0
  -27.7020  -14.2508   19.5672 H   0  0  0  0  0  0
  -28.6989  -11.9557   21.3180 H   0  0  0  0  0  0
  -28.4457  -13.5718   21.8840 H   0  0  0  0  0  0
  -25.2736   -9.5722   22.4750 H   0  0  0  0  0  0
  -23.9993   -7.4650   22.7445 H   0  0  0  0  0  0
  -21.0826   -8.8784   19.8911 H   0  0  0  0  0  0
  -22.3663  -10.9703   19.6156 H   0  0  0  0  0  0
  -21.1958   -7.6106   23.9732 H   0  0  0  0  0  0
  -21.1512   -6.0471   25.9095 H   0  0  0  0  0  0
  -22.0574   -2.7580   23.2824 H   0  0  0  0  0  0
  -22.3981  -11.9988   22.4860 H   0  0  0  0  0  0
  -21.1064  -13.1423   22.2520 H   0  0  0  0  0  0
  -24.6565  -15.8347   20.4911 H   0  0  0  0  0  0
  -26.2708  -15.6194   20.0394 H   0  0  0  0  0  0
  -26.7153  -32.5511   23.1096 H   0  0  0  0  0  0
  -25.0071  -33.9727   25.0479 H   0  0  0  0  0  0
  -22.7070  -31.3028   21.4053 H   0  0  0  0  0  0
  -23.3762  -35.9609   23.3316 H   0  0  0  0  0  0
  -24.3569  -36.8891   22.2045 H   0  0  0  0  0  0
  -23.7226  -37.6499   23.6637 H   0  0  0  0  0  0
  -26.0794  -31.5756   20.5985 H   0  0  0  0  0  0
  -26.8364  -30.8587   21.9922 H   0  0  0  0  0  0
  -28.1261  -29.0501   21.1409 H   0  0  0  0  0  0
  -25.9872  -25.9515   19.0066 H   0  0  0  0  0  0
  -23.9829  -27.3061   19.0186 H   0  0  0  0  0  0
  -23.7355  -30.5911   19.4014 H   0  0  0  0  0  0
  -22.7522  -29.2363   19.8681 H   0  0  0  0  0  0
  -25.1284  -36.1959   25.0837 H   0  0  0  0  0  0
  -20.9967  -28.3294   24.1383 H   0  0  0  0  0  0
  -20.5651  -26.2310   23.3588 H   0  0  0  0  0  0
  -21.6629  -26.7449   22.1189 H   0  0  0  0  0  0
  -19.6913  -25.6310   21.1236 H   0  0  0  0  0  0
  -19.6728  -27.3186   20.6696 H   0  0  0  0  0  0
  -17.4182  -26.6672   21.4028 H   0  0  0  0  0  0
  -18.0369  -26.0129   22.9028 H   0  0  0  0  0  0
  -19.7909  -30.7282   24.2309 H   0  0  0  0  0  0
  -17.4987  -31.6278   24.5164 H   0  0  0  0  0  0
  -15.5340  -30.3002   23.7664 H   0  0  0  0  0  0
  -15.8656  -28.0849   22.7071 H   0  0  0  0  0  0
  -24.5941  -30.6997   25.7697 H   0  0  0  0  0  0
  -24.8849  -32.2797   26.4862 H   0  0  0  0  0  0
  -25.8038  -30.8813   27.0184 H   0  0  0  0  0  0
  -26.2862  -29.6786   24.1206 H   0  0  0  0  0  0
  -27.4151  -29.7318   25.4560 H   0  0  0  0  0  0
  -27.8673  -30.4397   23.9222 H   0  0  0  0  0  0
  -27.2775  -33.3635   26.2006 H   0  0  0  0  0  0
  -28.3869  -32.6803   25.0215 H   0  0  0  0  0  0
  -28.0776  -31.8419   26.5341 H   0  0  0  0  0  0
  -28.2613  -38.0085   24.7518 H   0  0  0  0  0  0
  -28.1105  -36.2618   24.6320 H   0  0  0  0  0  0
  -27.2311  -37.1446   25.8878 H   0  0  0  0  0  0
  -20.9371  -29.8764   21.6852 H   0  0  0  0  0  0
  -26.0228  -38.2864   24.1367 H   0  0  0  0  0  0
  -32.2028  -23.4359   20.8797 H   0  0  0  0  0  0
  -32.3919  -19.1446   21.1242 H   0  0  0  0  0  0
  -35.7948  -22.6132   22.3894 H   0  0  0  0  0  0
  -34.1750  -22.7813   23.0446 H   0  0  0  0  0  0
  -34.5919  -23.5327   21.5031 H   0  0  0  0  0  0
  -34.9015  -20.2761   19.5741 H   0  0  0  0  0  0
  -36.2002  -21.2227   20.2848 H   0  0  0  0  0  0
  -34.9190  -22.0256   19.3842 H   0  0  0  0  0  0
  -28.3448  -24.1425   17.8271 H   0  0  0  0  0  0
  -29.5751  -25.4027   17.9408 H   0  0  0  0  0  0
  -27.8936  -25.8322   17.7120 H   0  0  0  0  0  0
  -28.5717  -22.3484   20.8454 H   0  0  0  0  0  0
  -29.1806  -22.4993   19.2299 H   0  0  0  0  0  0
  -29.5106  -24.5233   21.5157 H   0  0  0  0  0  0
  -30.4571  -24.6449   20.0729 H   0  0  0  0  0  0
  -29.4017  -17.5708   19.5511 H   0  0  0  0  0  0
  -31.0797  -17.8946   19.7095 H   0  0  0  0  0  0
  -29.0165  -19.5323   21.3374 H   0  0  0  0  0  0
  -29.1367  -19.7911   19.6263 H   0  0  0  0  0  0
  -34.5647  -20.5177   22.0205 H   0  0  0  0  0  0
  -27.4286  -24.7381   20.0449 H   0  0  0  0  0  0
  -29.2363  -17.2210   22.0635 H   0  0  0  0  0  0
  -29.0013  -15.1778   21.4350 H   0  0  0  0  0  0
  -31.0351  -17.8826   22.8948 H   0  0  0  0  0  0
  1 25  1  0  0  0
  1 30  2  0  0  0
  1 86  1  0  0  0
  2  3  1  0  0  0
  2 25  1  0  0  0
  2 88  1  0  0  0
  2 89  1  0  0  0
  3  4  1  0  0  0
  3 90  1  0  0  0
  3 91  1  0  0  0
  4  5  1  0  0  0
  4 92  1  0  0  0
  4 93  1  0  0  0
  5  6  1  0  0  0
  5 26  1  0  0  0
  5 94  1  0  0  0
  6 25  1  0  0  0
  6 95  1  0  0  0
  6 96  1  0  0  0
  7  8  2  0  0  0
  7 26  1  0  0  0
  7 29  1  0  0  0
  8  9  1  0  0  0
  8 22  1  0  0  0
  9 10  1  0  0  0
  9 27  2  0  0  0
 10 11  2  0  0  0
 10 15  1  0  0  0
 11 12  1  0  0  0
 11 97  1  0  0  0
 12 13  2  0  0  0
 12 98  1  0  0  0
 13 14  1  0  0  0
 13 31  1  0  0  0
 14 15  2  0  0  0
 14 99  1  0  0  0
 15100  1  0  0  0
 16 17  2  0  0  0
 16 21  1  0  0  0
 16 31  1  0  0  0
 17 18  1  0  0  0
 17101  1  0  0  0
 18 19  2  0  0  0
 18102  1  0  0  0
 19 20  1  0  0  0
 19 24  1  0  0  0
 20 21  2  0  0  0
 20103  1  0  0  0
 21 23  1  0  0  0
 22 28  1  0  0  0
 22 32  2  0  0  0
 26 27  1  0  0  0
 28104  1  0  0  0
 28105  1  0  0  0
 29106  1  0  0  0
 29107  1  0  0  0
 33 34  1  0  0  0
 33 66  1  0  0  0
 33 70  2  0  0  0
 34 36  1  0  0  0
 34 59  1  0  0  0
 34108  1  0  0  0
 35 44  2  0  0  0
 35 45  1  0  0  0
 35 68  1  0  0  0
 36 56  1  0  0  0
 36109  1  0  0  0
 37 39  1  0  0  0
 37 47  1  0  0  0
 37 66  1  0  0  0
 37110  1  0  0  0
 38 43  2  0  0  0
 38 46  1  0  0  0
 38 47  1  0  0  0
 39 64  1  0  0  0
 39 67  2  0  0  0
 40 52  1  0  0  0
 40 53  2  0  0  0
 40 58  1  0  0  0
 41111  1  0  0  0
 41112  1  0  0  0
 41113  1  0  0  0
 41 48  1  0  0  0
 42 43  1  0  0  0
 42 66  1  0  0  0
 42114  1  0  0  0
 42115  1  0  0  0
 43 44  1  0  0  0
 44116  1  0  0  0
 45 46  2  0  0  0
 45117  1  0  0  0
 46118  1  0  0  0
 47119  1  0  0  0
 47120  1  0  0  0
 48 56  1  0  0  0
 48 65  1  0  0  0
 48121  1  0  0  0
 49 50  1  0  0  0
 49 53  1  0  0  0
 49 64  1  0  0  0
 49122  1  0  0  0
 50 51  1  0  0  0
 50123  1  0  0  0
 50124  1  0  0  0
 51 52  1  0  0  0
 51125  1  0  0  0
 51126  1  0  0  0
 52127  1  0  0  0
 52128  1  0  0  0
 53 54  1  0  0  0
 54 55  2  0  0  0
 54129  1  0  0  0
 55 57  1  0  0  0
 55130  1  0  0  0
 56 69  2  0  0  0
 57 58  2  0  0  0
 57131  1  0  0  0
 58132  1  0  0  0
 59 60  1  0  0  0
 59 61  1  0  0  0
 59 62  1  0  0  0
 60133  1  0  0  0
 60134  1  0  0  0
 60135  1  0  0  0
 61136  1  0  0  0
 61137  1  0  0  0
 61138  1  0  0  0
 62139  1  0  0  0
 62140  1  0  0  0
 62141  1  0  0  0
 63 65  1  0  0  0
 63142  1  0  0  0
 63143  1  0  0  0
 63144  1  0  0  0
 64145  1  0  0  0
 65146  1  0  0  0
 68 83  1  0  0  0
 71 73  1  0  0  0
 71 74  2  0  0  0
 71147  1  0  0  0
 72 73  2  0  0  0
 72 85  1  0  0  0
 72148  1  0  0  0
 73 82  1  0  0  0
 74 78  1  0  0  0
 74 85  1  0  0  0
 75149  1  0  0  0
 75150  1  0  0  0
 75151  1  0  0  0
 75 82  1  0  0  0
 76 82  1  0  0  0
 76152  1  0  0  0
 76153  1  0  0  0
 76154  1  0  0  0
 77155  1  0  0  0
 77156  1  0  0  0
 77157  1  0  0  0
 77 83  1  0  0  0
 78 79  1  0  0  0
 78158  1  0  0  0
 78159  1  0  0  0
 79 83  1  0  0  0
 79160  1  0  0  0
 79161  1  0  0  0
 80 81  1  0  0  0
 80 84  1  0  0  0
 80162  1  0  0  0
 80163  1  0  0  0
 81 85  1  0  0  0
 81164  1  0  0  0
 81165  1  0  0  0
 82166  1  0  0  0
 83167  1  0  0  0
 84 86  1  0  0  0
 84 87  1  0  0  0
 84168  1  0  0  0
 86169  1  0  0  0
 87170  1  0  0  0
M  ISO  4   1 100  68 101  83 101  86 100
M  END
> <chiral flag>
0

> <version>
0

> <s_m_source_file>
/data/baiqing/PycharmProjects/Reinvent-master-3.2/result/LINK_invent/BTK/process_docking_weight1_custom_sum_contain_oxygen_bond_distance_aromatic_linkinvent_7_9_3/rearranged_h_0110.sdf

> <i_m_source_file_index>
22

> <r_mmod_Potential_Energy-OPLS-2005>
-111.410362243652

> <r_mmod_Stretch_Energy-OPLS-2005>
64.9103012084961

> <r_mmod_Bend_Energy-OPLS-2005>
143.480575561523

> <r_mmod_Torsional_Energy-OPLS-2005>
174.400329589844

> <r_mmod_Improper_Torsional_Energy-OPLS-2005>
3.33237624168396

> <r_mmod_Van_der_Waal_Energy-OPLS-2005>
122.166717529297

> <r_mmod_Electrostatic_Energy-OPLS-2005>
-402.660736083984

> <r_mmod_Solvation_Energy-OPLS-2005>
-241.595153808594

> <b_mmod_Minimization_Converged-OPLS-2005>
0

> <r_mmod_RMS_Derivative-OPLS-2005>
3.54387331008911

$$$$
23
                    3D
 Structure written by MMmdl.
152160  0  0  1  0            999 V2000
  -30.5386  -14.8517   20.4739 C   0  0  0  0  0  0
  -30.4492  -12.5251   19.4975 C   0  0  0  0  0  0
  -29.5277  -12.5405   18.2542 C   0  0  0  0  0  0
  -28.0526  -12.3394   18.6570 C   0  0  0  0  0  0
  -27.6417  -13.2385   19.8507 C   0  0  2  0  0  0
  -28.6797  -13.1769   20.9941 C   0  0  0  0  0  0
  -25.2500  -13.8218   20.5638 C   0  0  0  0  0  0
  -24.1800  -13.0459   20.9197 C   0  0  0  0  0  0
  -24.6406  -11.6948   20.8744 C   0  0  0  0  0  0
  -23.9069  -10.4311   21.0403 C   0  0  0  0  0  0
  -24.3627   -9.4215   21.9171 C   0  0  0  0  0  0
  -23.6314   -8.2238   22.0720 C   0  0  0  0  0  0
  -22.4282   -8.0274   21.3530 C   0  0  0  0  0  0
  -21.9933   -9.0244   20.4617 C   0  0  0  0  0  0
  -22.7249  -10.2135   20.3038 C   0  0  0  0  0  0
  -21.6845   -6.0745   22.5288 C   0  0  0  0  0  0
  -21.4006   -6.5631   23.8227 C   0  0  0  0  0  0
  -21.3675   -5.6776   24.9181 C   0  0  0  0  0  0
  -21.6038   -4.3040   24.7219 C   0  0  0  0  0  0
  -21.8819   -3.8151   23.4336 C   0  0  0  0  0  0
  -21.9196   -4.6977   22.3407 C   0  0  0  0  0  0
  -22.7816  -13.5234   21.1881 C   0  0  0  0  0  0
  -22.1656   -4.2162   21.0982 F   0  0  0  0  0  0
  -21.5643   -3.4525   25.7739 F   0  0  0  0  0  0
  -29.9783  -13.5823   20.4321 N   0  0  0  0  0  0
  -26.2920  -12.9436   20.3230 N   0  0  0  0  0  0
  -25.9335  -11.6575   20.5732 N   0  0  0  0  0  0
  -22.0453  -12.8217   22.0427 N   0  0  0  0  0  0
  -25.4199  -15.1936   20.3984 N   0  0  0  0  0  0
  -31.7111  -14.9845   20.0971 O   0  0  0  0  0  0
  -21.6624   -6.8889   21.4245 O   0  0  0  0  0  0
  -22.3514  -14.5545   20.6733 O   0  0  0  0  0  0
  -24.6415  -31.8474   23.1913 C   0  0  0  0  0  0
  -25.9184  -32.4720   23.8302 C   0  0  1  0  0  0
  -27.2248  -27.1721   20.1476 C   0  0  0  0  0  0
  -25.5941  -33.8521   24.2223 N   0  0  0  0  0  0
  -23.4469  -30.4710   21.5280 C   0  0  2  0  0  0
  -24.8991  -28.9017   20.1118 C   0  0  0  0  0  0
  -22.7578  -29.4603   22.4794 C   0  0  0  0  0  0
  -18.0330  -28.1436   22.8486 C   0  0  0  0  0  0
  -24.1490  -36.7277   23.2649 C   0  0  0  0  0  0
  -26.0018  -30.7303   21.3895 C   0  0  0  0  0  0
  -26.0728  -29.3436   20.7349 C   0  0  0  0  0  0
  -27.2352  -28.4920   20.7421 C   0  0  0  0  0  0
  -26.0297  -26.8341   19.4709 C   0  0  0  0  0  0
  -24.8862  -27.6568   19.4684 C   0  0  0  0  0  0
  -23.6803  -29.8038   20.1472 C   0  0  0  0  0  0
  -25.4121  -36.3057   24.0335 C   0  0  1  0  0  0
  -20.5951  -28.3771   23.1206 C   0  0  2  0  0  0
  -20.6809  -26.9455   22.5404 C   0  0  0  0  0  0
  -19.5772  -26.6398   21.5229 C   0  0  0  0  0  0
  -18.1959  -26.7979   22.1630 C   0  0  0  0  0  0
  -19.1597  -28.8908   23.2849 C   0  0  0  0  0  0
  -18.9508  -30.1489   23.8886 C   0  0  0  0  0  0
  -17.6506  -30.6617   24.0585 C   0  0  0  0  0  0
  -25.9056  -34.9431   23.5092 C   0  0  0  0  0  0
  -16.5388  -29.9130   23.6334 C   0  0  0  0  0  0
  -16.7308  -28.6556   23.0338 C   0  0  0  0  0  0
  -26.4506  -31.6573   25.0717 C   0  0  0  0  0  0
  -25.3706  -31.3754   26.1421 C   0  0  0  0  0  0
  -27.0374  -30.2985   24.6266 C   0  0  0  0  0  0
  -27.6050  -32.4320   25.7494 C   0  0  0  0  0  0
  -27.5575  -37.1816   24.8473 C   0  0  0  0  0  0
  -21.4266  -29.3122   22.3590 N   0  0  0  0  0  0
  -26.4287  -37.3770   23.9419 N   0  0  0  0  0  0
  -24.7155  -31.0396   22.0905 N   0  0  0  0  0  0
  -23.4238  -28.8130   23.2914 O   0  0  0  0  0  0
  -28.2794  -26.1968   20.2042 O   0  0  0  0  0  0
  -26.5640  -34.8916   22.4652 O   0  0  0  0  0  0
  -23.5529  -32.1281   23.7169 O   0  0  0  0  0  0
  -28.5150  -19.5392   21.5250 C   0  0  0  0  0  0
  -28.8248  -18.1378   21.6337 C   0  0  0  0  0  0
  -29.8719  -19.6013   19.6126 C   0  0  0  0  0  0
  -29.0074  -20.3642   20.4693 C   0  0  0  0  0  0
  -29.6534  -17.4336   20.7115 C   0  0  0  0  0  0
  -27.4612  -24.6864   21.9104 C   0  0  0  0  0  0
  -28.3530  -21.8390   20.1640 C   0  0  0  0  0  0
  -28.9735  -23.3786   20.2963 C   0  0  0  0  0  0
  -27.9599  -24.7006   20.4535 C   0  0  2  0  0  0
  -30.1804  -18.2429   19.7277 N   0  0  0  0  0  0
  -29.7197  -15.9276   20.8577 N   0  0  0  0  0  0
  -31.4857  -12.6811   19.1963 H   0  0  0  0  0  0
  -30.4262  -11.5486   19.9804 H   0  0  0  0  0  0
  -29.8355  -11.7680   17.5492 H   0  0  0  0  0  0
  -29.6359  -13.4935   17.7342 H   0  0  0  0  0  0
  -27.9180  -11.2886   18.9219 H   0  0  0  0  0  0
  -27.3975  -12.5175   17.8022 H   0  0  0  0  0  0
  -27.6346  -14.2583   19.4658 H   0  0  0  0  0  0
  -28.7363  -12.1648   21.4025 H   0  0  0  0  0  0
  -28.3838  -13.8210   21.8227 H   0  0  0  0  0  0
  -25.2758   -9.5690   22.4766 H   0  0  0  0  0  0
  -24.0030   -7.4606   22.7401 H   0  0  0  0  0  0
  -21.0883   -8.8759   19.8895 H   0  0  0  0  0  0
  -22.3699  -10.9683   19.6158 H   0  0  0  0  0  0
  -21.1959   -7.6138   23.9752 H   0  0  0  0  0  0
  -21.1512   -6.0489   25.9100 H   0  0  0  0  0  0
  -22.0589   -2.7615   23.2829 H   0  0  0  0  0  0
  -22.4068  -11.9895   22.4860 H   0  0  0  0  0  0
  -21.1049  -13.1209   22.2557 H   0  0  0  0  0  0
  -24.6460  -15.8455   20.4732 H   0  0  0  0  0  0
  -26.2606  -15.6289   20.0410 H   0  0  0  0  0  0
  -26.7241  -32.5333   23.1038 H   0  0  0  0  0  0
  -25.0136  -33.9622   25.0407 H   0  0  0  0  0  0
  -22.7494  -31.2983   21.3719 H   0  0  0  0  0  0
  -23.3749  -35.9612   23.3315 H   0  0  0  0  0  0
  -24.3587  -36.8876   22.2061 H   0  0  0  0  0  0
  -23.7243  -37.6479   23.6655 H   0  0  0  0  0  0
  -26.1548  -31.4829   20.6146 H   0  0  0  0  0  0
  -26.8752  -30.7832   22.0260 H   0  0  0  0  0  0
  -28.1256  -28.8212   21.2598 H   0  0  0  0  0  0
  -25.9518  -25.9023   18.9341 H   0  0  0  0  0  0
  -23.9961  -27.3212   18.9553 H   0  0  0  0  0  0
  -23.8392  -30.5775   19.3956 H   0  0  0  0  0  0
  -22.7963  -29.2561   19.8179 H   0  0  0  0  0  0
  -25.1310  -36.1898   25.0831 H   0  0  0  0  0  0
  -21.0052  -28.3362   24.1320 H   0  0  0  0  0  0
  -20.5710  -26.2384   23.3623 H   0  0  0  0  0  0
  -21.6664  -26.7457   22.1186 H   0  0  0  0  0  0
  -19.6915  -25.6295   21.1268 H   0  0  0  0  0  0
  -19.6700  -27.3202   20.6733 H   0  0  0  0  0  0
  -17.4216  -26.6729   21.4025 H   0  0  0  0  0  0
  -18.0339  -26.0138   22.9032 H   0  0  0  0  0  0
  -19.7979  -30.7332   24.2225 H   0  0  0  0  0  0
  -17.5061  -31.6281   24.5231 H   0  0  0  0  0  0
  -15.5392  -30.3043   23.7663 H   0  0  0  0  0  0
  -15.8706  -28.0891   22.7024 H   0  0  0  0  0  0
  -24.5906  -30.7068   25.7765 H   0  0  0  0  0  0
  -24.8869  -32.2924   26.4792 H   0  0  0  0  0  0
  -25.8012  -30.8975   27.0239 H   0  0  0  0  0  0
  -26.2973  -29.6707   24.1288 H   0  0  0  0  0  0
  -27.4032  -29.7282   25.4824 H   0  0  0  0  0  0
  -27.8870  -30.4257   23.9554 H   0  0  0  0  0  0
  -27.2660  -33.3662   26.2006 H   0  0  0  0  0  0
  -28.3899  -32.6815   25.0333 H   0  0  0  0  0  0
  -28.0673  -31.8474   26.5457 H   0  0  0  0  0  0
  -28.2618  -38.0093   24.7500 H   0  0  0  0  0  0
  -28.1043  -36.2623   24.6323 H   0  0  0  0  0  0
  -27.2290  -37.1497   25.8876 H   0  0  0  0  0  0
  -20.9452  -29.8897   21.6837 H   0  0  0  0  0  0
  -26.0150  -38.2843   24.1398 H   0  0  0  0  0  0
  -27.8150  -19.9605   22.2346 H   0  0  0  0  0  0
  -28.3592  -17.5870   22.4414 H   0  0  0  0  0  0
  -30.2811  -20.0820   18.7353 H   0  0  0  0  0  0
  -27.1310  -23.6943   22.2167 H   0  0  0  0  0  0
  -26.6299  -25.3720   22.0714 H   0  0  0  0  0  0
  -28.2646  -24.9868   22.5829 H   0  0  0  0  0  0
  -27.4400  -21.8497   20.7557 H   0  0  0  0  0  0
  -27.9760  -21.7669   19.1416 H   0  0  0  0  0  0
  -29.6106  -23.5411   19.4269 H   0  0  0  0  0  0
  -29.6564  -23.3913   21.1457 H   0  0  0  0  0  0
  -27.1198  -24.4375   19.8185 H   0  0  0  0  0  0
  -28.8983  -15.5715   21.3187 H   0  0  0  0  0  0
  1 25  1  0  0  0
  1 30  2  0  0  0
  1 81  1  0  0  0
  2  3  1  0  0  0
  2 25  1  0  0  0
  2 82  1  0  0  0
  2 83  1  0  0  0
  3  4  1  0  0  0
  3 84  1  0  0  0
  3 85  1  0  0  0
  4  5  1  0  0  0
  4 86  1  0  0  0
  4 87  1  0  0  0
  5  6  1  0  0  0
  5 26  1  0  0  0
  5 88  1  0  0  0
  6 25  1  0  0  0
  6 89  1  0  0  0
  6 90  1  0  0  0
  7  8  2  0  0  0
  7 26  1  0  0  0
  7 29  1  0  0  0
  8  9  1  0  0  0
  8 22  1  0  0  0
  9 10  1  0  0  0
  9 27  2  0  0  0
 10 11  2  0  0  0
 10 15  1  0  0  0
 11 12  1  0  0  0
 11 91  1  0  0  0
 12 13  2  0  0  0
 12 92  1  0  0  0
 13 14  1  0  0  0
 13 31  1  0  0  0
 14 15  2  0  0  0
 14 93  1  0  0  0
 15 94  1  0  0  0
 16 17  2  0  0  0
 16 21  1  0  0  0
 16 31  1  0  0  0
 17 18  1  0  0  0
 17 95  1  0  0  0
 18 19  2  0  0  0
 18 96  1  0  0  0
 19 20  1  0  0  0
 19 24  1  0  0  0
 20 21  2  0  0  0
 20 97  1  0  0  0
 21 23  1  0  0  0
 22 28  1  0  0  0
 22 32  2  0  0  0
 26 27  1  0  0  0
 28 98  1  0  0  0
 28 99  1  0  0  0
 29100  1  0  0  0
 29101  1  0  0  0
 33 34  1  0  0  0
 33 66  1  0  0  0
 33 70  2  0  0  0
 34 36  1  0  0  0
 34 59  1  0  0  0
 34102  1  0  0  0
 35 44  2  0  0  0
 35 45  1  0  0  0
 35 68  1  0  0  0
 36 56  1  0  0  0
 36103  1  0  0  0
 37 39  1  0  0  0
 37 47  1  0  0  0
 37 66  1  0  0  0
 37104  1  0  0  0
 38 43  2  0  0  0
 38 46  1  0  0  0
 38 47  1  0  0  0
 39 64  1  0  0  0
 39 67  2  0  0  0
 40 52  1  0  0  0
 40 53  2  0  0  0
 40 58  1  0  0  0
 41105  1  0  0  0
 41106  1  0  0  0
 41107  1  0  0  0
 41 48  1  0  0  0
 42 43  1  0  0  0
 42 66  1  0  0  0
 42108  1  0  0  0
 42109  1  0  0  0
 43 44  1  0  0  0
 44110  1  0  0  0
 45 46  2  0  0  0
 45111  1  0  0  0
 46112  1  0  0  0
 47113  1  0  0  0
 47114  1  0  0  0
 48 56  1  0  0  0
 48 65  1  0  0  0
 48115  1  0  0  0
 49 50  1  0  0  0
 49 53  1  0  0  0
 49 64  1  0  0  0
 49116  1  0  0  0
 50 51  1  0  0  0
 50117  1  0  0  0
 50118  1  0  0  0
 51 52  1  0  0  0
 51119  1  0  0  0
 51120  1  0  0  0
 52121  1  0  0  0
 52122  1  0  0  0
 53 54  1  0  0  0
 54 55  2  0  0  0
 54123  1  0  0  0
 55 57  1  0  0  0
 55124  1  0  0  0
 56 69  2  0  0  0
 57 58  2  0  0  0
 57125  1  0  0  0
 58126  1  0  0  0
 59 60  1  0  0  0
 59 61  1  0  0  0
 59 62  1  0  0  0
 60127  1  0  0  0
 60128  1  0  0  0
 60129  1  0  0  0
 61130  1  0  0  0
 61131  1  0  0  0
 61132  1  0  0  0
 62133  1  0  0  0
 62134  1  0  0  0
 62135  1  0  0  0
 63 65  1  0  0  0
 63136  1  0  0  0
 63137  1  0  0  0
 63138  1  0  0  0
 64139  1  0  0  0
 65140  1  0  0  0
 68 79  1  0  0  0
 71 72  2  0  0  0
 71 74  1  0  0  0
 71141  1  0  0  0
 72 75  1  0  0  0
 72142  1  0  0  0
 73 74  2  0  0  0
 73 80  1  0  0  0
 73143  1  0  0  0
 74 77  1  0  0  0
 75 80  2  0  0  0
 75 81  1  0  0  0
 76144  1  0  0  0
 76145  1  0  0  0
 76146  1  0  0  0
 76 79  1  0  0  0
 77 78  1  0  0  0
 77147  1  0  0  0
 77148  1  0  0  0
 78 79  1  0  0  0
 78149  1  0  0  0
 78150  1  0  0  0
 79151  1  0  0  0
 81152  1  0  0  0
M  ISO  4   1 100  68 101  79 101  81 100
M  END
> <chiral flag>
0

> <version>
0

> <s_m_source_file>
/data/baiqing/PycharmProjects/Reinvent-master-3.2/result/LINK_invent/BTK/process_docking_weight1_custom_sum_contain_oxygen_bond_distance_aromatic_linkinvent_7_9_3/rearranged_h_0110.sdf

> <i_m_source_file_index>
23

> <r_mmod_Potential_Energy-OPLS-2005>
246.905288696289

> <r_mmod_Stretch_Energy-OPLS-2005>
197.079086303711

> <r_mmod_Bend_Energy-OPLS-2005>
251.319229125977

> <r_mmod_Torsional_Energy-OPLS-2005>
230.648239135742

> <r_mmod_Improper_Torsional_Energy-OPLS-2005>
5.59690141677856

> <r_mmod_Van_der_Waal_Energy-OPLS-2005>
135.943817138672

> <r_mmod_Electrostatic_Energy-OPLS-2005>
-489.325805664062

> <r_mmod_Solvation_Energy-OPLS-2005>
-229.466796875

> <b_mmod_Minimization_Converged-OPLS-2005>
0

> <r_mmod_RMS_Derivative-OPLS-2005>
3.94459319114685

$$$$
24
                    3D
 Structure written by MMmdl.
174182  0  0  1  0            999 V2000
  -30.6312  -14.4626   20.5428 C   0  0  0  0  0  0
  -30.4680  -12.3202   19.3741 C   0  0  0  0  0  0
  -29.5019  -12.4778   18.1777 C   0  0  0  0  0  0
  -28.0255  -12.3301   18.6167 C   0  0  0  0  0  0
  -27.6686  -13.1744   19.8705 C   0  0  2  0  0  0
  -28.7193  -12.8978   20.9755 C   0  0  0  0  0  0
  -25.2661  -13.8042   20.5717 C   0  0  0  0  0  0
  -24.1887  -13.0385   20.9309 C   0  0  0  0  0  0
  -24.6425  -11.6820   20.8917 C   0  0  0  0  0  0
  -23.9057  -10.4240   21.0562 C   0  0  0  0  0  0
  -24.3569   -9.4081   21.9292 C   0  0  0  0  0  0
  -23.6220   -8.2161   22.0794 C   0  0  0  0  0  0
  -22.4211   -8.0262   21.3575 C   0  0  0  0  0  0
  -21.9894   -9.0267   20.4673 C   0  0  0  0  0  0
  -22.7274  -10.2111   20.3121 C   0  0  0  0  0  0
  -21.6801   -6.0669   22.5284 C   0  0  0  0  0  0
  -21.4007   -6.5584   23.8238 C   0  0  0  0  0  0
  -21.3669   -5.6733   24.9219 C   0  0  0  0  0  0
  -21.6073   -4.3027   24.7272 C   0  0  0  0  0  0
  -21.8794   -3.8073   23.4406 C   0  0  0  0  0  0
  -21.9177   -4.6889   22.3445 C   0  0  0  0  0  0
  -22.7958  -13.5254   21.1875 C   0  0  0  0  0  0
  -22.1625   -4.2042   21.1032 F   0  0  0  0  0  0
  -21.5657   -3.4518   25.7815 F   0  0  0  0  0  0
  -30.0459  -13.2535   20.4199 N   0  0  0  0  0  0
  -26.3059  -12.9166   20.3401 N   0  0  0  0  0  0
  -25.9299  -11.6367   20.5831 N   0  0  0  0  0  0
  -22.0452  -12.8295   22.0319 N   0  0  0  0  0  0
  -25.4443  -15.1732   20.3895 N   0  0  0  0  0  0
  -31.7782  -14.7306   20.1606 O   0  0  0  0  0  0
  -21.6576   -6.8833   21.4260 O   0  0  0  0  0  0
  -22.3776  -14.5608   20.6690 O   0  0  0  0  0  0
  -24.6014  -31.8743   23.2123 C   0  0  0  0  0  0
  -25.8977  -32.4881   23.8419 C   0  0  1  0  0  0
  -27.2381  -27.4722   20.0783 C   0  0  0  0  0  0
  -25.5877  -33.8650   24.2398 N   0  0  0  0  0  0
  -23.3931  -30.4895   21.5529 C   0  0  2  0  0  0
  -24.8486  -28.9685   20.1157 C   0  0  0  0  0  0
  -22.7322  -29.4589   22.4960 C   0  0  0  0  0  0
  -18.0192  -28.1368   22.8748 C   0  0  0  0  0  0
  -24.1476  -36.7315   23.2639 C   0  0  0  0  0  0
  -25.9220  -30.8369   21.3765 C   0  0  0  0  0  0
  -26.0023  -29.4711   20.7283 C   0  0  0  0  0  0
  -27.1978  -28.7172   20.7329 C   0  0  0  0  0  0
  -26.0905  -27.0043   19.4156 C   0  0  0  0  0  0
  -24.8805  -27.7156   19.4749 C   0  0  0  0  0  0
  -23.6130  -29.8381   20.1626 C   0  0  0  0  0  0
  -25.4115  -36.3152   24.0358 C   0  0  1  0  0  0
  -20.5810  -28.3547   23.1472 C   0  0  2  0  0  0
  -20.6422  -26.9122   22.6052 C   0  0  0  0  0  0
  -19.5524  -26.6257   21.5664 C   0  0  0  0  0  0
  -18.1791  -26.7716   22.2207 C   0  0  0  0  0  0
  -19.1496  -28.8843   23.3020 C   0  0  0  0  0  0
  -18.9499  -30.1507   23.8877 C   0  0  0  0  0  0
  -17.6497  -30.6763   24.0382 C   0  0  0  0  0  0
  -25.9027  -34.9506   23.5186 C   0  0  0  0  0  0
  -16.5387  -29.9320   23.6200 C   0  0  0  0  0  0
  -16.7257  -28.6560   23.0504 C   0  0  0  0  0  0
  -26.4409  -31.6636   25.0687 C   0  0  0  0  0  0
  -25.3661  -31.3687   26.1395 C   0  0  0  0  0  0
  -27.0270  -30.3115   24.6075 C   0  0  0  0  0  0
  -27.6028  -32.4300   25.7433 C   0  0  0  0  0  0
  -27.5607  -37.1826   24.8481 C   0  0  0  0  0  0
  -21.4096  -29.2579   22.3447 N   0  0  0  0  0  0
  -26.4337  -37.3832   23.9382 N   0  0  0  0  0  0
  -24.6562  -31.0832   22.1074 N   0  0  0  0  0  0
  -23.3992  -28.8543   23.3356 O   0  0  0  0  0  0
  -28.3788  -26.6996   20.0648 O   0  0  0  0  0  0
  -26.5573  -34.8973   22.4718 O   0  0  0  0  0  0
  -23.5242  -32.1548   23.7538 O   0  0  0  0  0  0
  -29.4238  -17.6391   19.9707 C   0  0  0  0  0  0
  -28.6931  -16.9936   22.3057 C   0  0  0  0  0  0
  -28.8887  -19.0785   20.2359 C   0  0  0  0  0  0
  -28.3489  -18.4613   22.5193 C   0  0  0  0  0  0
  -29.7753  -16.8011   21.2334 C   0  0  1  0  0  0
  -24.9049  -19.0234   21.2057 C   0  0  0  0  0  0
  -24.7567  -22.7024   20.2836 C   0  0  0  0  0  0
  -25.6892  -19.9816   22.1163 C   0  0  0  0  0  0
  -28.2962  -24.3449   20.8930 C   0  0  0  0  0  0
  -26.8884  -24.0225   20.3568 C   0  0  0  0  0  0
  -26.9838  -21.4070   20.4045 C   0  0  0  0  0  0
  -28.5178  -25.8417   21.2085 C   0  0  0  0  0  0
  -26.2180  -22.7088   20.8020 C   0  0  2  0  0  0
  -27.0862  -20.3571   21.5583 C   0  0  2  0  0  0
  -29.7407  -15.3709   20.9567 N   0  0  0  0  0  0
  -27.8226  -19.0814   21.2700 N   0  3  1  0  0  0
  -31.4973  -12.4934   19.0525 H   0  0  0  0  0  0
  -30.4560  -11.2999   19.7591 H   0  0  0  0  0  0
  -29.7324  -11.7051   17.4429 H   0  0  0  0  0  0
  -29.6575  -13.4337   17.6693 H   0  0  0  0  0  0
  -27.8719  -11.2711   18.8539 H   0  0  0  0  0  0
  -27.3528  -12.5629   17.7930 H   0  0  0  0  0  0
  -27.7196  -14.2215   19.5699 H   0  0  0  0  0  0
  -28.7227  -11.8360   21.2243 H   0  0  0  0  0  0
  -28.4886  -13.4129   21.9148 H   0  0  0  0  0  0
  -25.2702   -9.5502   22.4877 H   0  0  0  0  0  0
  -23.9899   -7.4479   22.7466 H   0  0  0  0  0  0
  -21.0839   -8.8823   19.8927 H   0  0  0  0  0  0
  -22.3814  -10.9671   19.6201 H   0  0  0  0  0  0
  -21.1963   -7.6063   23.9732 H   0  0  0  0  0  0
  -21.1557   -6.0475   25.9127 H   0  0  0  0  0  0
  -22.0579   -2.7522   23.2970 H   0  0  0  0  0  0
  -22.3928  -11.9903   22.4729 H   0  0  0  0  0  0
  -21.1079  -13.1408   22.2340 H   0  0  0  0  0  0
  -24.6310  -15.7767   20.4344 H   0  0  0  0  0  0
  -26.0703  -15.4473   19.6455 H   0  0  0  0  0  0
  -26.7045  -32.5659   23.1204 H   0  0  0  0  0  0
  -25.0078  -33.9859   25.0591 H   0  0  0  0  0  0
  -22.6778  -31.3011   21.4141 H   0  0  0  0  0  0
  -23.3778  -35.9614   23.3342 H   0  0  0  0  0  0
  -24.3567  -36.8870   22.2042 H   0  0  0  0  0  0
  -23.7196  -37.6517   23.6619 H   0  0  0  0  0  0
  -26.0335  -31.6073   20.6106 H   0  0  0  0  0  0
  -26.8071  -30.8926   22.0017 H   0  0  0  0  0  0
  -28.0801  -29.0910   21.2327 H   0  0  0  0  0  0
  -26.1201  -26.0888   18.8495 H   0  0  0  0  0  0
  -23.9977  -27.3278   18.9876 H   0  0  0  0  0  0
  -23.7548  -30.6217   19.4148 H   0  0  0  0  0  0
  -22.7383  -29.2720   19.8383 H   0  0  0  0  0  0
  -25.1287  -36.2062   25.0871 H   0  0  0  0  0  0
  -20.9974  -28.3363   24.1576 H   0  0  0  0  0  0
  -21.6433  -26.6517   22.2607 H   0  0  0  0  0  0
  -20.4451  -26.2477   23.4532 H   0  0  0  0  0  0
  -19.6689  -25.6261   21.1541 H   0  0  0  0  0  0
  -19.6344  -27.3252   20.7350 H   0  0  0  0  0  0
  -17.3822  -26.5985   21.4987 H   0  0  0  0  0  0
  -18.0494  -26.0157   22.9999 H   0  0  0  0  0  0
  -19.7926  -30.7313   24.2316 H   0  0  0  0  0  0
  -17.5070  -31.6534   24.4754 H   0  0  0  0  0  0
  -15.5441  -30.3317   23.7328 H   0  0  0  0  0  0
  -15.8657  -28.0763   22.7491 H   0  0  0  0  0  0
  -24.5857  -30.7084   25.7626 H   0  0  0  0  0  0
  -24.8805  -32.2788   26.4902 H   0  0  0  0  0  0
  -25.7912  -30.8725   27.0130 H   0  0  0  0  0  0
  -26.2801  -29.6812   24.1263 H   0  0  0  0  0  0
  -27.4186  -29.7433   25.4527 H   0  0  0  0  0  0
  -27.8553  -30.4439   23.9123 H   0  0  0  0  0  0
  -27.2745  -33.3613   26.2085 H   0  0  0  0  0  0
  -28.3775  -32.6875   25.0185 H   0  0  0  0  0  0
  -28.0790  -31.8366   26.5267 H   0  0  0  0  0  0
  -28.2667  -38.0100   24.7542 H   0  0  0  0  0  0
  -28.1072  -36.2625   24.6311 H   0  0  0  0  0  0
  -27.2297  -37.1484   25.8890 H   0  0  0  0  0  0
  -20.9457  -29.7151   21.5745 H   0  0  0  0  0  0
  -26.0245  -38.2932   24.1364 H   0  0  0  0  0  0
  -30.2831  -17.6828   19.2946 H   0  0  0  0  0  0
  -28.6498  -17.1104   19.4125 H   0  0  0  0  0  0
  -27.7766  -16.4731   22.0226 H   0  0  0  0  0  0
  -28.9974  -16.5556   23.2561 H   0  0  0  0  0  0
  -28.5033  -19.4682   19.2918 H   0  0  0  0  0  0
  -29.6925  -19.7408   20.5491 H   0  0  0  0  0  0
  -29.2256  -19.0156   22.8509 H   0  0  0  0  0  0
  -27.6388  -18.4929   23.3470 H   0  0  0  0  0  0
  -30.7487  -17.0888   21.6326 H   0  0  0  0  0  0
  -25.3193  -18.0114   21.2278 H   0  0  0  0  0  0
  -24.8754  -19.3612   20.1673 H   0  0  0  0  0  0
  -23.8711  -18.9544   21.5512 H   0  0  0  0  0  0
  -24.7026  -22.7097   19.1949 H   0  0  0  0  0  0
  -24.1953  -23.5650   20.6481 H   0  0  0  0  0  0
  -24.2119  -21.8139   20.5938 H   0  0  0  0  0  0
  -25.7687  -19.5226   23.1001 H   0  0  0  0  0  0
  -25.1019  -20.8746   22.3107 H   0  0  0  0  0  0
  -28.4783  -23.7734   21.8055 H   0  0  0  0  0  0
  -29.0464  -24.0102   20.1732 H   0  0  0  0  0  0
  -26.9249  -24.0768   19.2699 H   0  0  0  0  0  0
  -26.2113  -24.8021   20.6991 H   0  0  0  0  0  0
  -27.9879  -21.6752   20.0788 H   0  0  0  0  0  0
  -26.5062  -20.9706   19.5311 H   0  0  0  0  0  0
  -29.5312  -25.9602   21.5925 H   0  0  0  0  0  0
  -27.8621  -26.1469   22.0254 H   0  0  0  0  0  0
  -26.1703  -22.7668   21.8888 H   0  0  0  0  0  0
  -27.6493  -20.8573   22.3463 H   0  0  0  0  0  0
  -28.8480  -14.9299   21.1331 H   0  0  0  0  0  0
  -27.1136  -18.4693   20.8872 H   0  0  0  0  0  0
  1 25  1  0  0  0
  1 30  2  0  0  0
  1 85  1  0  0  0
  2  3  1  0  0  0
  2 25  1  0  0  0
  2 87  1  0  0  0
  2 88  1  0  0  0
  3  4  1  0  0  0
  3 89  1  0  0  0
  3 90  1  0  0  0
  4  5  1  0  0  0
  4 91  1  0  0  0
  4 92  1  0  0  0
  5  6  1  0  0  0
  5 26  1  0  0  0
  5 93  1  0  0  0
  6 25  1  0  0  0
  6 94  1  0  0  0
  6 95  1  0  0  0
  7  8  2  0  0  0
  7 26  1  0  0  0
  7 29  1  0  0  0
  8  9  1  0  0  0
  8 22  1  0  0  0
  9 10  1  0  0  0
  9 27  2  0  0  0
 10 11  2  0  0  0
 10 15  1  0  0  0
 11 12  1  0  0  0
 11 96  1  0  0  0
 12 13  2  0  0  0
 12 97  1  0  0  0
 13 14  1  0  0  0
 13 31  1  0  0  0
 14 15  2  0  0  0
 14 98  1  0  0  0
 15 99  1  0  0  0
 16 17  2  0  0  0
 16 21  1  0  0  0
 16 31  1  0  0  0
 17 18  1  0  0  0
 17100  1  0  0  0
 18 19  2  0  0  0
 18101  1  0  0  0
 19 20  1  0  0  0
 19 24  1  0  0  0
 20 21  2  0  0  0
 20102  1  0  0  0
 21 23  1  0  0  0
 22 28  1  0  0  0
 22 32  2  0  0  0
 26 27  1  0  0  0
 28103  1  0  0  0
 28104  1  0  0  0
 29105  1  0  0  0
 29106  1  0  0  0
 33 34  1  0  0  0
 33 66  1  0  0  0
 33 70  2  0  0  0
 34 36  1  0  0  0
 34 59  1  0  0  0
 34107  1  0  0  0
 35 44  2  0  0  0
 35 45  1  0  0  0
 35 68  1  0  0  0
 36 56  1  0  0  0
 36108  1  0  0  0
 37 39  1  0  0  0
 37 47  1  0  0  0
 37 66  1  0  0  0
 37109  1  0  0  0
 38 43  2  0  0  0
 38 46  1  0  0  0
 38 47  1  0  0  0
 39 64  1  0  0  0
 39 67  2  0  0  0
 40 52  1  0  0  0
 40 53  2  0  0  0
 40 58  1  0  0  0
 41110  1  0  0  0
 41111  1  0  0  0
 41112  1  0  0  0
 41 48  1  0  0  0
 42 43  1  0  0  0
 42 66  1  0  0  0
 42113  1  0  0  0
 42114  1  0  0  0
 43 44  1  0  0  0
 44115  1  0  0  0
 45 46  2  0  0  0
 45116  1  0  0  0
 46117  1  0  0  0
 47118  1  0  0  0
 47119  1  0  0  0
 48 56  1  0  0  0
 48 65  1  0  0  0
 48120  1  0  0  0
 49 50  1  0  0  0
 49 53  1  0  0  0
 49 64  1  0  0  0
 49121  1  0  0  0
 50 51  1  0  0  0
 50122  1  0  0  0
 50123  1  0  0  0
 51 52  1  0  0  0
 51124  1  0  0  0
 51125  1  0  0  0
 52126  1  0  0  0
 52127  1  0  0  0
 53 54  1  0  0  0
 54 55  2  0  0  0
 54128  1  0  0  0
 55 57  1  0  0  0
 55129  1  0  0  0
 56 69  2  0  0  0
 57 58  2  0  0  0
 57130  1  0  0  0
 58131  1  0  0  0
 59 60  1  0  0  0
 59 61  1  0  0  0
 59 62  1  0  0  0
 60132  1  0  0  0
 60133  1  0  0  0
 60134  1  0  0  0
 61135  1  0  0  0
 61136  1  0  0  0
 61137  1  0  0  0
 62138  1  0  0  0
 62139  1  0  0  0
 62140  1  0  0  0
 63 65  1  0  0  0
 63141  1  0  0  0
 63142  1  0  0  0
 63143  1  0  0  0
 64144  1  0  0  0
 65145  1  0  0  0
 68 82  1  0  0  0
 71 73  1  0  0  0
 71 75  1  0  0  0
 71146  1  0  0  0
 71147  1  0  0  0
 72 74  1  0  0  0
 72 75  1  0  0  0
 72148  1  0  0  0
 72149  1  0  0  0
 73150  1  0  0  0
 73151  1  0  0  0
 73 86  1  0  0  0
 74 86  1  0  0  0
 74152  1  0  0  0
 74153  1  0  0  0
 75 85  1  0  0  0
 75154  1  0  0  0
 76 78  1  0  0  0
 76155  1  0  0  0
 76156  1  0  0  0
 76157  1  0  0  0
 77158  1  0  0  0
 77159  1  0  0  0
 77160  1  0  0  0
 77 83  1  0  0  0
 78161  1  0  0  0
 78162  1  0  0  0
 78 84  1  0  0  0
 79 80  1  0  0  0
 79 82  1  0  0  0
 79163  1  0  0  0
 79164  1  0  0  0
 80 83  1  0  0  0
 80165  1  0  0  0
 80166  1  0  0  0
 81 83  1  0  0  0
 81 84  1  0  0  0
 81167  1  0  0  0
 81168  1  0  0  0
 82169  1  0  0  0
 82170  1  0  0  0
 83171  1  0  0  0
 84 86  1  0  0  0
 84172  1  0  0  0
 85173  1  0  0  0
 86174  1  0  0  0
M  CHG  1  86   1
M  ISO  4   1 100  68 101  82 101  85 100
M  END
> <chiral flag>
0

> <version>
0

> <s_m_source_file>
/data/baiqing/PycharmProjects/Reinvent-master-3.2/result/LINK_invent/BTK/process_docking_weight1_custom_sum_contain_oxygen_bond_distance_aromatic_linkinvent_7_9_3/rearranged_h_0110.sdf

> <i_m_source_file_index>
24

> <r_mmod_Potential_Energy-OPLS-2005>
12.0198278427124

> <r_mmod_Stretch_Energy-OPLS-2005>
39.2226791381836

> <r_mmod_Bend_Energy-OPLS-2005>
130.75927734375

> <r_mmod_Torsional_Energy-OPLS-2005>
311.030487060547

> <r_mmod_Improper_Torsional_Energy-OPLS-2005>
8.08522796630859

> <r_mmod_Van_der_Waal_Energy-OPLS-2005>
144.934432983398

> <r_mmod_Electrostatic_Energy-OPLS-2005>
-216.351013183594

> <r_mmod_Solvation_Energy-OPLS-2005>
-424.321075439453

> <b_mmod_Minimization_Converged-OPLS-2005>
0

> <r_mmod_RMS_Derivative-OPLS-2005>
10.2321472167969

$$$$
25
                    3D
 Structure written by MMmdl.
172180  0  0  1  0            999 V2000
  -30.7051  -14.4774   20.5581 C   0  0  0  0  0  0
  -30.4190  -12.3079   19.4215 C   0  0  0  0  0  0
  -29.4922  -12.4981   18.2039 C   0  0  0  0  0  0
  -28.0133  -12.3662   18.6186 C   0  0  0  0  0  0
  -27.6611  -13.2081   19.8750 C   0  0  2  0  0  0
  -28.7047  -13.0000   20.9952 C   0  0  0  0  0  0
  -25.2601  -13.8158   20.5681 C   0  0  0  0  0  0
  -24.1848  -13.0438   20.9174 C   0  0  0  0  0  0
  -24.6396  -11.6906   20.8727 C   0  0  0  0  0  0
  -23.9054  -10.4294   21.0396 C   0  0  0  0  0  0
  -24.3606   -9.4210   21.9177 C   0  0  0  0  0  0
  -23.6284   -8.2245   22.0755 C   0  0  0  0  0  0
  -22.4270   -8.0281   21.3542 C   0  0  0  0  0  0
  -21.9895   -9.0252   20.4643 C   0  0  0  0  0  0
  -22.7220  -10.2131   20.3054 C   0  0  0  0  0  0
  -21.6856   -6.0723   22.5266 C   0  0  0  0  0  0
  -21.4015   -6.5627   23.8194 C   0  0  0  0  0  0
  -21.3666   -5.6784   24.9160 C   0  0  0  0  0  0
  -21.6051   -4.3047   24.7212 C   0  0  0  0  0  0
  -21.8827   -3.8139   23.4334 C   0  0  0  0  0  0
  -21.9195   -4.6954   22.3389 C   0  0  0  0  0  0
  -22.7871  -13.5238   21.1839 C   0  0  0  0  0  0
  -22.1665   -4.2138   21.0970 F   0  0  0  0  0  0
  -21.5632   -3.4538   25.7729 F   0  0  0  0  0  0
  -30.0318  -13.3021   20.4350 N   0  0  0  0  0  0
  -26.3032  -12.9329   20.3380 N   0  0  0  0  0  0
  -25.9328  -11.6483   20.5771 N   0  0  0  0  0  0
  -22.0514  -12.8227   22.0389 N   0  0  0  0  0  0
  -25.4343  -15.1877   20.4083 N   0  0  0  0  0  0
  -31.8351  -14.6491   20.0993 O   0  0  0  0  0  0
  -21.6647   -6.8874   21.4230 O   0  0  0  0  0  0
  -22.3564  -14.5550   20.6694 O   0  0  0  0  0  0
  -24.6140  -31.8682   23.2093 C   0  0  0  0  0  0
  -25.9027  -32.4828   23.8404 C   0  0  1  0  0  0
  -27.2363  -27.4323   20.1135 C   0  0  0  0  0  0
  -25.5875  -33.8628   24.2333 N   0  0  0  0  0  0
  -23.4043  -30.4907   21.5474 C   0  0  2  0  0  0
  -24.8557  -28.9590   20.1121 C   0  0  0  0  0  0
  -22.7410  -29.4652   22.4961 C   0  0  0  0  0  0
  -18.0270  -28.1378   22.8490 C   0  0  0  0  0  0
  -24.1485  -36.7326   23.2642 C   0  0  0  0  0  0
  -25.9317  -30.8380   21.3599 C   0  0  0  0  0  0
  -26.0139  -29.4711   20.7111 C   0  0  0  0  0  0
  -27.2116  -28.7187   20.7034 C   0  0  0  0  0  0
  -26.0694  -26.9438   19.4931 C   0  0  0  0  0  0
  -24.8793  -27.6955   19.4957 C   0  0  0  0  0  0
  -23.6154  -29.8219   20.1623 C   0  0  0  0  0  0
  -25.4101  -36.3114   24.0336 C   0  0  1  0  0  0
  -20.5863  -28.3662   23.1295 C   0  0  2  0  0  0
  -20.6758  -26.9397   22.5404 C   0  0  0  0  0  0
  -19.5742  -26.6388   21.5200 C   0  0  0  0  0  0
  -18.1919  -26.7928   22.1617 C   0  0  0  0  0  0
  -19.1521  -28.8836   23.2897 C   0  0  0  0  0  0
  -18.9454  -30.1441   23.8913 C   0  0  0  0  0  0
  -17.6457  -30.6587   24.0562 C   0  0  0  0  0  0
  -25.9025  -34.9478   23.5130 C   0  0  0  0  0  0
  -16.5347  -29.9084   23.6335 C   0  0  0  0  0  0
  -16.7259  -28.6499   23.0359 C   0  0  0  0  0  0
  -26.4465  -31.6599   25.0727 C   0  0  0  0  0  0
  -25.3730  -31.3690   26.1473 C   0  0  0  0  0  0
  -27.0295  -30.3039   24.6095 C   0  0  0  0  0  0
  -27.6044  -32.4318   25.7483 C   0  0  0  0  0  0
  -27.5577  -37.1814   24.8465 C   0  0  0  0  0  0
  -21.4138  -29.3028   22.3694 N   0  0  0  0  0  0
  -26.4291  -37.3792   23.9407 N   0  0  0  0  0  0
  -24.6680  -31.0793   22.0980 N   0  0  0  0  0  0
  -23.4178  -28.8199   23.3009 O   0  0  0  0  0  0
  -28.3666  -26.6374   20.0925 O   0  0  0  0  0  0
  -26.5598  -34.8918   22.4700 O   0  0  0  0  0  0
  -23.5326  -32.1424   23.7482 O   0  0  0  0  0  0
  -31.8131  -21.0278   19.6374 C   0  0  0  0  0  0
  -32.8272  -20.1139   19.2560 C   0  0  0  0  0  0
  -30.6707  -20.3385   19.9427 C   0  0  0  0  0  0
  -32.2827  -18.8628   19.3345 C   0  0  0  0  0  0
  -34.2286  -20.4712   18.8294 C   0  0  0  0  0  0
  -32.9284  -17.5516   18.9924 C   0  0  0  0  0  0
  -27.3840  -25.1037   21.8111 C   0  0  0  0  0  0
  -29.2384  -26.7139   22.3406 C   0  0  0  0  0  0
  -29.3173  -20.8997   20.3346 C   0  0  0  0  0  0
  -29.7354  -24.7572   20.8407 C   0  0  0  0  0  0
  -30.0702  -17.8127   19.9978 C   0  0  0  0  0  0
  -30.4824  -16.9008   21.1937 C   0  0  0  0  0  0
  -29.3175  -23.4421   20.1058 C   0  0  0  0  0  0
  -28.6437  -25.8037   21.2456 C   0  0  0  0  0  0
  -30.9661  -18.9702   19.7921 N   0  0  0  0  0  0
  -30.0098  -15.5045   21.0833 N   0  0  0  0  0  0
  -29.3760  -22.2365   20.9873 N   0  3  0  0  0  0
  -31.4632  -12.4021   19.1176 H   0  0  0  0  0  0
  -30.3190  -11.2999   19.8269 H   0  0  0  0  0  0
  -29.7264  -11.7617   17.4339 H   0  0  0  0  0  0
  -29.6683  -13.4763   17.7535 H   0  0  0  0  0  0
  -27.8187  -11.3107   18.8125 H   0  0  0  0  0  0
  -27.3643  -12.6440   17.7876 H   0  0  0  0  0  0
  -27.7025  -14.2550   19.5739 H   0  0  0  0  0  0
  -28.6834  -11.9681   21.3491 H   0  0  0  0  0  0
  -28.4719  -13.6120   21.8674 H   0  0  0  0  0  0
  -25.2751   -9.5684   22.4749 H   0  0  0  0  0  0
  -23.9988   -7.4641   22.7480 H   0  0  0  0  0  0
  -21.0826   -8.8761   19.8947 H   0  0  0  0  0  0
  -22.3674  -10.9666   19.6164 H   0  0  0  0  0  0
  -21.2004   -7.6135   23.9687 H   0  0  0  0  0  0
  -21.1486   -6.0519   25.9059 H   0  0  0  0  0  0
  -22.0603   -2.7601   23.2835 H   0  0  0  0  0  0
  -22.4133  -11.9874   22.4748 H   0  0  0  0  0  0
  -21.1136  -13.1259   22.2610 H   0  0  0  0  0  0
  -24.6699  -15.8452   20.5176 H   0  0  0  0  0  0
  -26.2837  -15.6225   20.0709 H   0  0  0  0  0  0
  -26.7107  -32.5552   23.1184 H   0  0  0  0  0  0
  -25.0011  -33.9806   25.0464 H   0  0  0  0  0  0
  -22.6926  -31.3068   21.4050 H   0  0  0  0  0  0
  -23.3735  -35.9673   23.3317 H   0  0  0  0  0  0
  -24.3584  -36.8937   22.2058 H   0  0  0  0  0  0
  -23.7257  -37.6539   23.6655 H   0  0  0  0  0  0
  -26.0395  -31.6013   20.5877 H   0  0  0  0  0  0
  -26.8212  -30.8970   21.9752 H   0  0  0  0  0  0
  -28.1085  -29.1192   21.1556 H   0  0  0  0  0  0
  -26.0810  -25.9708   19.0223 H   0  0  0  0  0  0
  -23.9918  -27.2994   19.0228 H   0  0  0  0  0  0
  -23.7171  -30.5959   19.4006 H   0  0  0  0  0  0
  -22.7422  -29.2365   19.8699 H   0  0  0  0  0  0
  -25.1277  -36.1980   25.0830 H   0  0  0  0  0  0
  -20.9971  -28.3237   24.1410 H   0  0  0  0  0  0
  -20.5647  -26.2277   23.3596 H   0  0  0  0  0  0
  -21.6629  -26.7429   22.1209 H   0  0  0  0  0  0
  -19.6902  -25.6302   21.1225 H   0  0  0  0  0  0
  -19.6690  -27.3197   20.6729 H   0  0  0  0  0  0
  -17.4191  -26.6679   21.4019 H   0  0  0  0  0  0
  -18.0325  -26.0059   22.9004 H   0  0  0  0  0  0
  -19.7924  -30.7249   24.2305 H   0  0  0  0  0  0
  -17.5008  -31.6273   24.5154 H   0  0  0  0  0  0
  -15.5346  -30.2990   23.7654 H   0  0  0  0  0  0
  -15.8659  -28.0818   22.7084 H   0  0  0  0  0  0
  -24.5907  -30.7039   25.7802 H   0  0  0  0  0  0
  -24.8917  -32.2835   26.4940 H   0  0  0  0  0  0
  -25.8078  -30.8848   27.0224 H   0  0  0  0  0  0
  -26.2834  -29.6796   24.1162 H   0  0  0  0  0  0
  -27.4071  -29.7277   25.4554 H   0  0  0  0  0  0
  -27.8666  -30.4359   23.9237 H   0  0  0  0  0  0
  -27.2674  -33.3607   26.2092 H   0  0  0  0  0  0
  -28.3831  -32.6898   25.0297 H   0  0  0  0  0  0
  -28.0735  -31.8429   26.5374 H   0  0  0  0  0  0
  -28.2595  -38.0109   24.7498 H   0  0  0  0  0  0
  -28.1072  -36.2638   24.6300 H   0  0  0  0  0  0
  -27.2299  -37.1473   25.8870 H   0  0  0  0  0  0
  -20.9292  -29.8762   21.6930 H   0  0  0  0  0  0
  -26.0181  -38.2874   24.1398 H   0  0  0  0  0  0
  -31.9229  -22.1030   19.6623 H   0  0  0  0  0  0
  -34.3838  -21.5498   18.8660 H   0  0  0  0  0  0
  -34.4156  -20.1383   17.8084 H   0  0  0  0  0  0
  -34.9623  -20.0008   19.4846 H   0  0  0  0  0  0
  -33.7394  -17.6899   18.2777 H   0  0  0  0  0  0
  -32.2287  -16.8525   18.5366 H   0  0  0  0  0  0
  -33.3561  -17.0799   19.8768 H   0  0  0  0  0  0
  -27.6403  -24.4285   22.6279 H   0  0  0  0  0  0
  -26.8533  -24.5249   21.0565 H   0  0  0  0  0  0
  -26.6687  -25.8224   22.2135 H   0  0  0  0  0  0
  -28.5080  -27.4239   22.7278 H   0  0  0  0  0  0
  -30.0947  -27.2772   21.9666 H   0  0  0  0  0  0
  -29.5804  -26.1334   23.1979 H   0  0  0  0  0  0
  -28.8504  -20.2264   21.0525 H   0  0  0  0  0  0
  -28.6532  -20.9289   19.4700 H   0  0  0  0  0  0
  -30.4623  -25.2777   20.2146 H   0  0  0  0  0  0
  -30.3097  -24.4767   21.7246 H   0  0  0  0  0  0
  -29.0434  -18.1551   20.1219 H   0  0  0  0  0  0
  -30.0613  -17.2376   19.0715 H   0  0  0  0  0  0
  -30.0906  -17.3247   22.1180 H   0  0  0  0  0  0
  -31.5644  -16.9028   21.3246 H   0  0  0  0  0  0
  -30.0046  -23.2876   19.2742 H   0  0  0  0  0  0
  -28.3343  -23.5371   19.6450 H   0  0  0  0  0  0
  -29.0806  -15.2978   21.4197 H   0  0  0  0  0  0
  -30.2175  -22.2539   21.5394 H   0  0  0  0  0  0
  -28.5977  -22.2799   21.6248 H   0  0  0  0  0  0
  1 25  1  0  0  0
  1 30  2  0  0  0
  1 86  1  0  0  0
  2  3  1  0  0  0
  2 25  1  0  0  0
  2 88  1  0  0  0
  2 89  1  0  0  0
  3  4  1  0  0  0
  3 90  1  0  0  0
  3 91  1  0  0  0
  4  5  1  0  0  0
  4 92  1  0  0  0
  4 93  1  0  0  0
  5  6  1  0  0  0
  5 26  1  0  0  0
  5 94  1  0  0  0
  6 25  1  0  0  0
  6 95  1  0  0  0
  6 96  1  0  0  0
  7  8  2  0  0  0
  7 26  1  0  0  0
  7 29  1  0  0  0
  8  9  1  0  0  0
  8 22  1  0  0  0
  9 10  1  0  0  0
  9 27  2  0  0  0
 10 11  2  0  0  0
 10 15  1  0  0  0
 11 12  1  0  0  0
 11 97  1  0  0  0
 12 13  2  0  0  0
 12 98  1  0  0  0
 13 14  1  0  0  0
 13 31  1  0  0  0
 14 15  2  0  0  0
 14 99  1  0  0  0
 15100  1  0  0  0
 16 17  2  0  0  0
 16 21  1  0  0  0
 16 31  1  0  0  0
 17 18  1  0  0  0
 17101  1  0  0  0
 18 19  2  0  0  0
 18102  1  0  0  0
 19 20  1  0  0  0
 19 24  1  0  0  0
 20 21  2  0  0  0
 20103  1  0  0  0
 21 23  1  0  0  0
 22 28  1  0  0  0
 22 32  2  0  0  0
 26 27  1  0  0  0
 28104  1  0  0  0
 28105  1  0  0  0
 29106  1  0  0  0
 29107  1  0  0  0
 33 34  1  0  0  0
 33 66  1  0  0  0
 33 70  2  0  0  0
 34 36  1  0  0  0
 34 59  1  0  0  0
 34108  1  0  0  0
 35 44  2  0  0  0
 35 45  1  0  0  0
 35 68  1  0  0  0
 36 56  1  0  0  0
 36109  1  0  0  0
 37 39  1  0  0  0
 37 47  1  0  0  0
 37 66  1  0  0  0
 37110  1  0  0  0
 38 43  2  0  0  0
 38 46  1  0  0  0
 38 47  1  0  0  0
 39 64  1  0  0  0
 39 67  2  0  0  0
 40 52  1  0  0  0
 40 53  2  0  0  0
 40 58  1  0  0  0
 41111  1  0  0  0
 41112  1  0  0  0
 41113  1  0  0  0
 41 48  1  0  0  0
 42 43  1  0  0  0
 42 66  1  0  0  0
 42114  1  0  0  0
 42115  1  0  0  0
 43 44  1  0  0  0
 44116  1  0  0  0
 45 46  2  0  0  0
 45117  1  0  0  0
 46118  1  0  0  0
 47119  1  0  0  0
 47120  1  0  0  0
 48 56  1  0  0  0
 48 65  1  0  0  0
 48121  1  0  0  0
 49 50  1  0  0  0
 49 53  1  0  0  0
 49 64  1  0  0  0
 49122  1  0  0  0
 50 51  1  0  0  0
 50123  1  0  0  0
 50124  1  0  0  0
 51 52  1  0  0  0
 51125  1  0  0  0
 51126  1  0  0  0
 52127  1  0  0  0
 52128  1  0  0  0
 53 54  1  0  0  0
 54 55  2  0  0  0
 54129  1  0  0  0
 55 57  1  0  0  0
 55130  1  0  0  0
 56 69  2  0  0  0
 57 58  2  0  0  0
 57131  1  0  0  0
 58132  1  0  0  0
 59 60  1  0  0  0
 59 61  1  0  0  0
 59 62  1  0  0  0
 60133  1  0  0  0
 60134  1  0  0  0
 60135  1  0  0  0
 61136  1  0  0  0
 61137  1  0  0  0
 61138  1  0  0  0
 62139  1  0  0  0
 62140  1  0  0  0
 62141  1  0  0  0
 63 65  1  0  0  0
 63142  1  0  0  0
 63143  1  0  0  0
 63144  1  0  0  0
 64145  1  0  0  0
 65146  1  0  0  0
 68 84  1  0  0  0
 71 72  1  0  0  0
 71 73  2  0  0  0
 71147  1  0  0  0
 72 74  2  0  0  0
 72 75  1  0  0  0
 73 79  1  0  0  0
 73 85  1  0  0  0
 74 76  1  0  0  0
 74 85  1  0  0  0
 75148  1  0  0  0
 75149  1  0  0  0
 75150  1  0  0  0
 76151  1  0  0  0
 76152  1  0  0  0
 76153  1  0  0  0
 77154  1  0  0  0
 77155  1  0  0  0
 77156  1  0  0  0
 77 84  1  0  0  0
 78 84  1  0  0  0
 78157  1  0  0  0
 78158  1  0  0  0
 78159  1  0  0  0
 79 87  1  0  0  0
 79160  1  0  0  0
 79161  1  0  0  0
 80 83  1  0  0  0
 80 84  1  0  0  0
 80162  1  0  0  0
 80163  1  0  0  0
 81 82  1  0  0  0
 81 85  1  0  0  0
 81164  1  0  0  0
 81165  1  0  0  0
 82 86  1  0  0  0
 82166  1  0  0  0
 82167  1  0  0  0
 83 87  1  0  0  0
 83168  1  0  0  0
 83169  1  0  0  0
 86170  1  0  0  0
 87171  1  0  0  0
 87172  1  0  0  0
M  CHG  1  87   1
M  ISO  4   1 100  68 101  84 101  86 100
M  END
> <chiral flag>
0

> <version>
0

> <s_m_source_file>
/data/baiqing/PycharmProjects/Reinvent-master-3.2/result/LINK_invent/BTK/process_docking_weight1_custom_sum_contain_oxygen_bond_distance_aromatic_linkinvent_7_9_3/rearranged_h_0110.sdf

> <i_m_source_file_index>
25

> <r_mmod_Potential_Energy-OPLS-2005>
-274.303924560547

> <r_mmod_Stretch_Energy-OPLS-2005>
43.9525985717773

> <r_mmod_Bend_Energy-OPLS-2005>
113.014709472656

> <r_mmod_Torsional_Energy-OPLS-2005>
254.092559814453

> <r_mmod_Improper_Torsional_Energy-OPLS-2005>
3.35542130470276

> <r_mmod_Van_der_Waal_Energy-OPLS-2005>
123.744026184082

> <r_mmod_Electrostatic_Energy-OPLS-2005>
-372.229797363281

> <r_mmod_Solvation_Energy-OPLS-2005>
-453.881866455078

> <b_mmod_Minimization_Converged-OPLS-2005>
0

> <r_mmod_RMS_Derivative-OPLS-2005>
1.56530666351318

$$$$
26
                    3D
 Structure written by MMmdl.
157165  0  0  1  0            999 V2000
  -30.4913  -15.0627   20.4198 C   0  0  0  0  0  0
  -30.4523  -12.6598   19.5206 C   0  0  0  0  0  0
  -29.5366  -12.5439   18.2759 C   0  0  0  0  0  0
  -28.0732  -12.3017   18.6907 C   0  0  0  0  0  0
  -27.6296  -13.2519   19.8314 C   0  0  2  0  0  0
  -28.6657  -13.3189   20.9700 C   0  0  0  0  0  0
  -25.2490  -13.8218   20.5714 C   0  0  0  0  0  0
  -24.1807  -13.0433   20.9208 C   0  0  0  0  0  0
  -24.6429  -11.6918   20.8739 C   0  0  0  0  0  0
  -23.9107  -10.4288   21.0407 C   0  0  0  0  0  0
  -24.3646   -9.4198   21.9186 C   0  0  0  0  0  0
  -23.6305   -8.2245   22.0766 C   0  0  0  0  0  0
  -22.4281   -8.0298   21.3557 C   0  0  0  0  0  0
  -21.9931   -9.0270   20.4651 C   0  0  0  0  0  0
  -22.7280  -10.2136   20.3054 C   0  0  0  0  0  0
  -21.6851   -6.0743   22.5288 C   0  0  0  0  0  0
  -21.4022   -6.5649   23.8223 C   0  0  0  0  0  0
  -21.3652   -5.6800   24.9183 C   0  0  0  0  0  0
  -21.6031   -4.3061   24.7230 C   0  0  0  0  0  0
  -21.8822   -3.8158   23.4353 C   0  0  0  0  0  0
  -21.9194   -4.6975   22.3409 C   0  0  0  0  0  0
  -22.7831  -13.5208   21.1844 C   0  0  0  0  0  0
  -22.1662   -4.2165   21.0984 F   0  0  0  0  0  0
  -21.5608   -3.4541   25.7737 F   0  0  0  0  0  0
  -29.9376  -13.7683   20.3861 N   0  0  0  0  0  0
  -26.2903  -12.9446   20.3212 N   0  0  0  0  0  0
  -25.9358  -11.6571   20.5712 N   0  0  0  0  0  0
  -22.0478  -12.8208   22.0402 N   0  0  0  0  0  0
  -25.4160  -15.1947   20.4180 N   0  0  0  0  0  0
  -31.6855  -15.1148   20.0996 O   0  0  0  0  0  0
  -21.6641   -6.8894   21.4255 O   0  0  0  0  0  0
  -22.3507  -14.5498   20.6675 O   0  0  0  0  0  0
  -24.6490  -31.8373   23.1817 C   0  0  0  0  0  0
  -25.9233  -32.4658   23.8233 C   0  0  1  0  0  0
  -27.2184  -27.0608   20.1655 C   0  0  0  0  0  0
  -25.5959  -33.8460   24.2146 N   0  0  0  0  0  0
  -23.4592  -30.4518   21.5286 C   0  0  2  0  0  0
  -24.9109  -28.8660   20.1119 C   0  0  0  0  0  0
  -22.7634  -29.4481   22.4837 C   0  0  0  0  0  0
  -18.0319  -28.1368   22.8459 C   0  0  0  0  0  0
  -24.1485  -36.7224   23.2657 C   0  0  0  0  0  0
  -26.0196  -30.6850   21.3959 C   0  0  0  0  0  0
  -26.0909  -29.2884   20.7377 C   0  0  0  0  0  0
  -27.2442  -28.4053   20.7440 C   0  0  0  0  0  0
  -26.0091  -26.7586   19.4989 C   0  0  0  0  0  0
  -24.8858  -27.6152   19.4748 C   0  0  0  0  0  0
  -23.6940  -29.7800   20.1496 C   0  0  0  0  0  0
  -25.4123  -36.2998   24.0317 C   0  0  1  0  0  0
  -20.5936  -28.3700   23.1206 C   0  0  2  0  0  0
  -20.6792  -26.9400   22.5381 C   0  0  0  0  0  0
  -19.5761  -26.6354   21.5192 C   0  0  0  0  0  0
  -18.1951  -26.7903   22.1605 C   0  0  0  0  0  0
  -19.1574  -28.8857   23.2810 C   0  0  0  0  0  0
  -18.9505  -30.1454   23.8838 C   0  0  0  0  0  0
  -17.6503  -30.6569   24.0541 C   0  0  0  0  0  0
  -25.9082  -34.9385   23.5038 C   0  0  0  0  0  0
  -16.5387  -29.9067   23.6339 C   0  0  0  0  0  0
  -16.7308  -28.6486   23.0353 C   0  0  0  0  0  0
  -26.4535  -31.6561   25.0711 C   0  0  0  0  0  0
  -25.3696  -31.3733   26.1393 C   0  0  0  0  0  0
  -27.0456  -30.2971   24.6327 C   0  0  0  0  0  0
  -27.6052  -32.4364   25.7483 C   0  0  0  0  0  0
  -27.5562  -37.1763   24.8479 C   0  0  0  0  0  0
  -21.4321  -29.3024   22.3603 N   0  0  0  0  0  0
  -26.4275  -37.3726   23.9427 N   0  0  0  0  0  0
  -24.7292  -31.0151   22.0894 N   0  0  0  0  0  0
  -23.4250  -28.8033   23.3018 O   0  0  0  0  0  0
  -28.2461  -26.0251   20.2421 O   0  0  0  0  0  0
  -26.5687  -34.8899   22.4629 O   0  0  0  0  0  0
  -23.5594  -32.1285   23.6991 O   0  0  0  0  0  0
  -28.6488  -21.9440   21.4054 C   0  0  0  0  0  0
  -28.6763  -21.8973   19.0620 C   0  0  0  0  0  0
  -29.4103  -20.4745   21.4447 C   0  0  0  0  0  0
  -29.4752  -20.4692   19.1002 C   0  0  0  0  0  0
  -28.8604  -23.0043   20.2089 C   0  0  1  0  0  0
  -29.4877  -16.6260   22.2663 C   0  0  0  0  0  0
  -27.9329  -24.4732   20.0901 C   0  0  0  0  0  0
  -30.1100  -18.1118   20.2075 C   0  0  0  0  0  0
  -29.6743  -16.5265   20.7393 C   0  0  1  0  0  0
  -29.2604  -19.5037   20.2671 N   0  3  1  0  0  0
  -31.4826  -12.8327   19.2052 H   0  0  0  0  0  0
  -30.4702  -11.7202   20.0763 H   0  0  0  0  0  0
  -29.8807  -11.7372   17.6265 H   0  0  0  0  0  0
  -29.6027  -13.4616   17.6897 H   0  0  0  0  0  0
  -27.9933  -11.2664   19.0250 H   0  0  0  0  0  0
  -27.4078  -12.3957   17.8317 H   0  0  0  0  0  0
  -27.5789  -14.2434   19.3811 H   0  0  0  0  0  0
  -28.7760  -12.3491   21.4587 H   0  0  0  0  0  0
  -28.3309  -14.0129   21.7399 H   0  0  0  0  0  0
  -25.2793   -9.5659   22.4753 H   0  0  0  0  0  0
  -23.9999   -7.4641   22.7502 H   0  0  0  0  0  0
  -21.0851   -8.8808   19.8962 H   0  0  0  0  0  0
  -22.3759  -10.9675   19.6154 H   0  0  0  0  0  0
  -21.2034   -7.6163   23.9738 H   0  0  0  0  0  0
  -21.1450   -6.0522   25.9083 H   0  0  0  0  0  0
  -22.0601   -2.7624   23.2853 H   0  0  0  0  0  0
  -22.4114  -11.9885   22.4800 H   0  0  0  0  0  0
  -21.1101  -13.1237   22.2597 H   0  0  0  0  0  0
  -24.6454  -15.8437   20.5382 H   0  0  0  0  0  0
  -26.2640  -15.6423   20.0958 H   0  0  0  0  0  0
  -26.7294  -32.5240   23.0951 H   0  0  0  0  0  0
  -25.0102  -33.9555   25.0284 H   0  0  0  0  0  0
  -22.7631  -31.2756   21.3671 H   0  0  0  0  0  0
  -23.3760  -35.9545   23.3306 H   0  0  0  0  0  0
  -24.3576  -36.8882   22.2078 H   0  0  0  0  0  0
  -23.7224  -37.6404   23.6712 H   0  0  0  0  0  0
  -26.1855  -31.4355   20.6231 H   0  0  0  0  0  0
  -26.8867  -30.7367   22.0435 H   0  0  0  0  0  0
  -28.1406  -28.7254   21.2588 H   0  0  0  0  0  0
  -25.8898  -25.8057   19.0072 H   0  0  0  0  0  0
  -23.9878  -27.2826   18.9720 H   0  0  0  0  0  0
  -23.8500  -30.5530   19.3968 H   0  0  0  0  0  0
  -22.8065  -29.2315   19.8303 H   0  0  0  0  0  0
  -25.1308  -36.1811   25.0806 H   0  0  0  0  0  0
  -20.9991  -28.3275   24.1342 H   0  0  0  0  0  0
  -20.5665  -26.2332   23.3620 H   0  0  0  0  0  0
  -21.6660  -26.7389   22.1189 H   0  0  0  0  0  0
  -19.6919  -25.6263   21.1243 H   0  0  0  0  0  0
  -19.6668  -27.3152   20.6708 H   0  0  0  0  0  0
  -17.4211  -26.6647   21.4007 H   0  0  0  0  0  0
  -18.0323  -26.0045   22.9000 H   0  0  0  0  0  0
  -19.7996  -30.7248   24.2190 H   0  0  0  0  0  0
  -17.5084  -31.6256   24.5131 H   0  0  0  0  0  0
  -15.5393  -30.2946   23.7703 H   0  0  0  0  0  0
  -15.8711  -28.0797   22.7080 H   0  0  0  0  0  0
  -24.5880  -30.7082   25.7684 H   0  0  0  0  0  0
  -24.8870  -32.2905   26.4768 H   0  0  0  0  0  0
  -25.7969  -30.8922   27.0200 H   0  0  0  0  0  0
  -26.3104  -29.6636   24.1348 H   0  0  0  0  0  0
  -27.4098  -29.7311   25.4910 H   0  0  0  0  0  0
  -27.8989  -30.4233   23.9663 H   0  0  0  0  0  0
  -27.2649  -33.3714   26.1925 H   0  0  0  0  0  0
  -28.3905  -32.6840   25.0332 H   0  0  0  0  0  0
  -28.0669  -31.8583   26.5491 H   0  0  0  0  0  0
  -28.2566  -38.0075   24.7555 H   0  0  0  0  0  0
  -28.1070  -36.2602   24.6276 H   0  0  0  0  0  0
  -27.2290  -37.1383   25.8887 H   0  0  0  0  0  0
  -20.9565  -29.8801   21.6817 H   0  0  0  0  0  0
  -26.0127  -38.2781   24.1465 H   0  0  0  0  0  0
  -28.8886  -22.4583   22.3369 H   0  0  0  0  0  0
  -27.5788  -21.7480   21.4736 H   0  0  0  0  0  0
  -27.6121  -21.6682   18.9811 H   0  0  0  0  0  0
  -28.9188  -22.3767   18.1128 H   0  0  0  0  0  0
  -29.0858  -19.9444   22.3392 H   0  0  0  0  0  0
  -30.4761  -20.6533   21.5898 H   0  0  0  0  0  0
  -30.5441  -20.6817   19.0436 H   0  0  0  0  0  0
  -29.2412  -19.9280   18.1833 H   0  0  0  0  0  0
  -29.9084  -23.3024   20.2053 H   0  0  0  0  0  0
  -28.5176  -17.0580   22.5154 H   0  0  0  0  0  0
  -30.2565  -17.2582   22.7113 H   0  0  0  0  0  0
  -29.5508  -15.6605   22.7682 H   0  0  0  0  0  0
  -27.0535  -24.3068   20.7149 H   0  0  0  0  0  0
  -27.5446  -24.4181   19.0737 H   0  0  0  0  0  0
  -30.3250  -17.9759   19.1471 H   0  0  0  0  0  0
  -31.0883  -18.3328   20.6340 H   0  0  0  0  0  0
  -28.6920  -16.3441   20.3060 H   0  0  0  0  0  0
  -28.2887  -19.2367   20.2242 H   0  0  0  0  0  0
  1 25  1  0  0  0
  1 30  2  0  0  0
  1 79  1  0  0  0
  2  3  1  0  0  0
  2 25  1  0  0  0
  2 81  1  0  0  0
  2 82  1  0  0  0
  3  4  1  0  0  0
  3 83  1  0  0  0
  3 84  1  0  0  0
  4  5  1  0  0  0
  4 85  1  0  0  0
  4 86  1  0  0  0
  5  6  1  0  0  0
  5 26  1  0  0  0
  5 87  1  0  0  0
  6 25  1  0  0  0
  6 88  1  0  0  0
  6 89  1  0  0  0
  7  8  2  0  0  0
  7 26  1  0  0  0
  7 29  1  0  0  0
  8  9  1  0  0  0
  8 22  1  0  0  0
  9 10  1  0  0  0
  9 27  2  0  0  0
 10 11  2  0  0  0
 10 15  1  0  0  0
 11 12  1  0  0  0
 11 90  1  0  0  0
 12 13  2  0  0  0
 12 91  1  0  0  0
 13 14  1  0  0  0
 13 31  1  0  0  0
 14 15  2  0  0  0
 14 92  1  0  0  0
 15 93  1  0  0  0
 16 17  2  0  0  0
 16 21  1  0  0  0
 16 31  1  0  0  0
 17 18  1  0  0  0
 17 94  1  0  0  0
 18 19  2  0  0  0
 18 95  1  0  0  0
 19 20  1  0  0  0
 19 24  1  0  0  0
 20 21  2  0  0  0
 20 96  1  0  0  0
 21 23  1  0  0  0
 22 28  1  0  0  0
 22 32  2  0  0  0
 26 27  1  0  0  0
 28 97  1  0  0  0
 28 98  1  0  0  0
 29 99  1  0  0  0
 29100  1  0  0  0
 33 34  1  0  0  0
 33 66  1  0  0  0
 33 70  2  0  0  0
 34 36  1  0  0  0
 34 59  1  0  0  0
 34101  1  0  0  0
 35 44  2  0  0  0
 35 45  1  0  0  0
 35 68  1  0  0  0
 36 56  1  0  0  0
 36102  1  0  0  0
 37 39  1  0  0  0
 37 47  1  0  0  0
 37 66  1  0  0  0
 37103  1  0  0  0
 38 43  2  0  0  0
 38 46  1  0  0  0
 38 47  1  0  0  0
 39 64  1  0  0  0
 39 67  2  0  0  0
 40 52  1  0  0  0
 40 53  2  0  0  0
 40 58  1  0  0  0
 41104  1  0  0  0
 41105  1  0  0  0
 41106  1  0  0  0
 41 48  1  0  0  0
 42 43  1  0  0  0
 42 66  1  0  0  0
 42107  1  0  0  0
 42108  1  0  0  0
 43 44  1  0  0  0
 44109  1  0  0  0
 45 46  2  0  0  0
 45110  1  0  0  0
 46111  1  0  0  0
 47112  1  0  0  0
 47113  1  0  0  0
 48 56  1  0  0  0
 48 65  1  0  0  0
 48114  1  0  0  0
 49 50  1  0  0  0
 49 53  1  0  0  0
 49 64  1  0  0  0
 49115  1  0  0  0
 50 51  1  0  0  0
 50116  1  0  0  0
 50117  1  0  0  0
 51 52  1  0  0  0
 51118  1  0  0  0
 51119  1  0  0  0
 52120  1  0  0  0
 52121  1  0  0  0
 53 54  1  0  0  0
 54 55  2  0  0  0
 54122  1  0  0  0
 55 57  1  0  0  0
 55123  1  0  0  0
 56 69  2  0  0  0
 57 58  2  0  0  0
 57124  1  0  0  0
 58125  1  0  0  0
 59 60  1  0  0  0
 59 61  1  0  0  0
 59 62  1  0  0  0
 60126  1  0  0  0
 60127  1  0  0  0
 60128  1  0  0  0
 61129  1  0  0  0
 61130  1  0  0  0
 61131  1  0  0  0
 62132  1  0  0  0
 62133  1  0  0  0
 62134  1  0  0  0
 63 65  1  0  0  0
 63135  1  0  0  0
 63136  1  0  0  0
 63137  1  0  0  0
 64138  1  0  0  0
 65139  1  0  0  0
 68 77  1  0  0  0
 71 73  1  0  0  0
 71 75  1  0  0  0
 71140  1  0  0  0
 71141  1  0  0  0
 72 74  1  0  0  0
 72 75  1  0  0  0
 72142  1  0  0  0
 72143  1  0  0  0
 73 80  1  0  0  0
 73144  1  0  0  0
 73145  1  0  0  0
 74 80  1  0  0  0
 74146  1  0  0  0
 74147  1  0  0  0
 75 77  1  0  0  0
 75148  1  0  0  0
 76149  1  0  0  0
 76150  1  0  0  0
 76151  1  0  0  0
 76 79  1  0  0  0
 77152  1  0  0  0
 77153  1  0  0  0
 78 79  1  0  0  0
 78154  1  0  0  0
 78155  1  0  0  0
 78 80  1  0  0  0
 79156  1  0  0  0
 80157  1  0  0  0
M  CHG  1  80   1
M  ISO  4   1 100  68 101  77 101  79 100
M  END
> <chiral flag>
0

> <version>
0

> <s_m_source_file>
/data/baiqing/PycharmProjects/Reinvent-master-3.2/result/LINK_invent/BTK/process_docking_weight1_custom_sum_contain_oxygen_bond_distance_aromatic_linkinvent_7_9_3/rearranged_h_0110.sdf

> <i_m_source_file_index>
26

> <r_mmod_Potential_Energy-OPLS-2005>
707.055725097656

> <r_mmod_Stretch_Energy-OPLS-2005>
357.770294189453

> <r_mmod_Bend_Energy-OPLS-2005>
353.266754150391

> <r_mmod_Torsional_Energy-OPLS-2005>
239.236923217773

> <r_mmod_Improper_Torsional_Energy-OPLS-2005>
2.2376754283905

> <r_mmod_Van_der_Waal_Energy-OPLS-2005>
115.923110961914

> <r_mmod_Electrostatic_Energy-OPLS-2005>
-198.002258300781

> <r_mmod_Solvation_Energy-OPLS-2005>
-436.16796875

> <b_mmod_Minimization_Converged-OPLS-2005>
0

> <r_mmod_RMS_Derivative-OPLS-2005>
2.44493222236633

$$$$
27
                    3D
 Structure written by MMmdl.
159167  0  0  1  0            999 V2000
  -30.5421  -14.9450   20.3988 C   0  0  0  0  0  0
  -30.4384  -12.5786   19.5043 C   0  0  0  0  0  0
  -29.5260  -12.5249   18.2590 C   0  0  0  0  0  0
  -28.0571  -12.3197   18.6709 C   0  0  0  0  0  0
  -27.6316  -13.2465   19.8400 C   0  0  2  0  0  0
  -28.6730  -13.2686   20.9793 C   0  0  0  0  0  0
  -25.2477  -13.8188   20.5724 C   0  0  0  0  0  0
  -24.1800  -13.0429   20.9234 C   0  0  0  0  0  0
  -24.6410  -11.6903   20.8753 C   0  0  0  0  0  0
  -23.9089  -10.4278   21.0398 C   0  0  0  0  0  0
  -24.3632   -9.4186   21.9174 C   0  0  0  0  0  0
  -23.6301   -8.2227   22.0744 C   0  0  0  0  0  0
  -22.4284   -8.0261   21.3532 C   0  0  0  0  0  0
  -21.9914   -9.0236   20.4641 C   0  0  0  0  0  0
  -22.7256  -10.2112   20.3048 C   0  0  0  0  0  0
  -21.6855   -6.0731   22.5280 C   0  0  0  0  0  0
  -21.4024   -6.5639   23.8215 C   0  0  0  0  0  0
  -21.3666   -5.6783   24.9175 C   0  0  0  0  0  0
  -21.6045   -4.3050   24.7221 C   0  0  0  0  0  0
  -21.8829   -3.8142   23.4342 C   0  0  0  0  0  0
  -21.9196   -4.6964   22.3397 C   0  0  0  0  0  0
  -22.7826  -13.5200   21.1882 C   0  0  0  0  0  0
  -22.1669   -4.2155   21.0972 F   0  0  0  0  0  0
  -21.5608   -3.4526   25.7727 F   0  0  0  0  0  0
  -29.9484  -13.6818   20.3801 N   0  0  0  0  0  0
  -26.2899  -12.9418   20.3238 N   0  0  0  0  0  0
  -25.9342  -11.6551   20.5728 N   0  0  0  0  0  0
  -22.0479  -12.8199   22.0439 N   0  0  0  0  0  0
  -25.4120  -15.1928   20.4157 N   0  0  0  0  0  0
  -31.7385  -15.0046   20.1040 O   0  0  0  0  0  0
  -21.6644   -6.8872   21.4240 O   0  0  0  0  0  0
  -22.3506  -14.5502   20.6718 O   0  0  0  0  0  0
  -24.6445  -31.8436   23.1873 C   0  0  0  0  0  0
  -25.9192  -32.4704   23.8294 C   0  0  1  0  0  0
  -27.2316  -27.1332   20.1480 C   0  0  0  0  0  0
  -25.5939  -33.8513   24.2221 N   0  0  0  0  0  0
  -23.4516  -30.4604   21.5333 C   0  0  2  0  0  0
  -24.9029  -28.8845   20.1146 C   0  0  0  0  0  0
  -22.7586  -29.4525   22.4847 C   0  0  0  0  0  0
  -18.0302  -28.1396   22.8482 C   0  0  0  0  0  0
  -24.1480  -36.7261   23.2644 C   0  0  0  0  0  0
  -26.0089  -30.7146   21.3870 C   0  0  0  0  0  0
  -26.0803  -29.3242   20.7319 C   0  0  0  0  0  0
  -27.2451  -28.4653   20.7276 C   0  0  0  0  0  0
  -26.0256  -26.7994   19.4896 C   0  0  0  0  0  0
  -24.8875  -27.6351   19.4801 C   0  0  0  0  0  0
  -23.6795  -29.7865   20.1547 C   0  0  0  0  0  0
  -25.4114  -36.3056   24.0331 C   0  0  1  0  0  0
  -20.5919  -28.3721   23.1240 C   0  0  2  0  0  0
  -20.6792  -26.9424   22.5415 C   0  0  0  0  0  0
  -19.5764  -26.6373   21.5230 C   0  0  0  0  0  0
  -18.1944  -26.7928   22.1642 C   0  0  0  0  0  0
  -19.1559  -28.8882   23.2846 C   0  0  0  0  0  0
  -18.9464  -30.1482   23.8868 C   0  0  0  0  0  0
  -17.6466  -30.6599   24.0556 C   0  0  0  0  0  0
  -25.9059  -34.9422   23.5090 C   0  0  0  0  0  0
  -16.5358  -29.9084   23.6342 C   0  0  0  0  0  0
  -16.7284  -28.6504   23.0365 C   0  0  0  0  0  0
  -26.4517  -31.6571   25.0743 C   0  0  0  0  0  0
  -25.3720  -31.3720   26.1452 C   0  0  0  0  0  0
  -27.0358  -30.2964   24.6303 C   0  0  0  0  0  0
  -27.6059  -32.4343   25.7509 C   0  0  0  0  0  0
  -27.5577  -37.1791   24.8470 C   0  0  0  0  0  0
  -21.4271  -29.3057   22.3620 N   0  0  0  0  0  0
  -26.4285  -37.3760   23.9419 N   0  0  0  0  0  0
  -24.7220  -31.0275   22.0914 N   0  0  0  0  0  0
  -23.4222  -28.8074   23.3002 O   0  0  0  0  0  0
  -28.3091  -26.1668   20.1813 O   0  0  0  0  0  0
  -26.5634  -34.8906   22.4660 O   0  0  0  0  0  0
  -23.5556  -32.1298   23.7082 O   0  0  0  0  0  0
  -27.0396  -22.9470   22.0354 C   0  0  0  0  0  0
  -27.3818  -21.8244   21.0059 C   0  0  0  0  0  0
  -27.7147  -24.3367   21.8225 C   0  0  0  0  0  0
  -29.0799  -23.3574   19.9397 C   0  0  0  0  0  0
  -28.8700  -21.8333   20.6238 C   0  0  2  0  0  0
  -28.0706  -24.6301   20.3546 C   0  0  2  0  0  0
  -30.8005  -20.6424   19.5303 C   0  0  0  0  0  0
  -30.0515  -17.6468   20.1161 C   0  0  0  0  0  0
  -29.1756  -19.0242   20.5906 C   0  0  0  0  0  0
  -29.7678  -16.1355   20.5238 N   0  0  0  0  0  0
  -29.3948  -20.4774   19.9587 N   0  3  1  0  0  0
  -31.4752  -12.7246   19.2001 H   0  0  0  0  0  0
  -30.4129  -11.6234   20.0322 H   0  0  0  0  0  0
  -29.8376  -11.7172   17.5964 H   0  0  0  0  0  0
  -29.6268  -13.4523   17.6938 H   0  0  0  0  0  0
  -27.9547  -11.2787   18.9795 H   0  0  0  0  0  0
  -27.3956  -12.4526   17.8133 H   0  0  0  0  0  0
  -27.5972  -14.2514   19.4181 H   0  0  0  0  0  0
  -28.7546  -12.2890   21.4551 H   0  0  0  0  0  0
  -28.3746  -13.9696   21.7598 H   0  0  0  0  0  0
  -25.2780   -9.5661   22.4743 H   0  0  0  0  0  0
  -24.0017   -7.4624   22.7474 H   0  0  0  0  0  0
  -21.0826   -8.8761   19.8957 H   0  0  0  0  0  0
  -22.3706  -10.9649   19.6154 H   0  0  0  0  0  0
  -21.2034   -7.6146   23.9722 H   0  0  0  0  0  0
  -21.1472   -6.0512   25.9082 H   0  0  0  0  0  0
  -22.0607   -2.7607   23.2840 H   0  0  0  0  0  0
  -22.4116  -11.9876   22.4839 H   0  0  0  0  0  0
  -21.1091  -13.1202   22.2642 H   0  0  0  0  0  0
  -24.6299  -15.8334   20.5053 H   0  0  0  0  0  0
  -26.2411  -15.6295   20.0372 H   0  0  0  0  0  0
  -26.7276  -32.5301   23.1044 H   0  0  0  0  0  0
  -25.0105  -33.9629   25.0383 H   0  0  0  0  0  0
  -22.7549  -31.2852   21.3755 H   0  0  0  0  0  0
  -23.3758  -35.9571   23.3299 H   0  0  0  0  0  0
  -24.3561  -36.8894   22.2056 H   0  0  0  0  0  0
  -23.7203  -37.6450   23.6670 H   0  0  0  0  0  0
  -26.1581  -31.4640   20.6097 H   0  0  0  0  0  0
  -26.8829  -30.7718   22.0247 H   0  0  0  0  0  0
  -28.1484  -28.7977   21.2190 H   0  0  0  0  0  0
  -25.9299  -25.8577   18.9720 H   0  0  0  0  0  0
  -23.9902  -27.2954   18.9809 H   0  0  0  0  0  0
  -23.8186  -30.5599   19.3982 H   0  0  0  0  0  0
  -22.7957  -29.2267   19.8421 H   0  0  0  0  0  0
  -25.1292  -36.1909   25.0822 H   0  0  0  0  0  0
  -21.0006  -28.3286   24.1364 H   0  0  0  0  0  0
  -20.5684  -26.2333   23.3632 H   0  0  0  0  0  0
  -21.6653  -26.7418   22.1217 H   0  0  0  0  0  0
  -19.6927  -25.6272   21.1291 H   0  0  0  0  0  0
  -19.6703  -27.3165   20.6748 H   0  0  0  0  0  0
  -17.4206  -26.6654   21.4055 H   0  0  0  0  0  0
  -18.0347  -26.0076   22.9047 H   0  0  0  0  0  0
  -19.7934  -30.7311   24.2206 H   0  0  0  0  0  0
  -17.5010  -31.6278   24.5150 H   0  0  0  0  0  0
  -15.5356  -30.2984   23.7665 H   0  0  0  0  0  0
  -15.8679  -28.0815   22.7098 H   0  0  0  0  0  0
  -24.5942  -30.7014   25.7785 H   0  0  0  0  0  0
  -24.8849  -32.2858   26.4851 H   0  0  0  0  0  0
  -25.8040  -30.8942   27.0248 H   0  0  0  0  0  0
  -26.2947  -29.6720   24.1299 H   0  0  0  0  0  0
  -27.3941  -29.7249   25.4871 H   0  0  0  0  0  0
  -27.8883  -30.4200   23.9625 H   0  0  0  0  0  0
  -27.2677  -33.3678   26.2004 H   0  0  0  0  0  0
  -28.3892  -32.6834   25.0349 H   0  0  0  0  0  0
  -28.0693  -31.8520   26.5477 H   0  0  0  0  0  0
  -28.2601  -38.0086   24.7520 H   0  0  0  0  0  0
  -28.1072  -36.2613   24.6307 H   0  0  0  0  0  0
  -27.2292  -37.1463   25.8874 H   0  0  0  0  0  0
  -20.9472  -29.8773   21.6814 H   0  0  0  0  0  0
  -26.0169  -38.2833   24.1426 H   0  0  0  0  0  0
  -27.2899  -22.6024   23.0406 H   0  0  0  0  0  0
  -25.9585  -23.0828   22.0431 H   0  0  0  0  0  0
  -26.7895  -21.9744   20.1012 H   0  0  0  0  0  0
  -27.0781  -20.8558   21.4043 H   0  0  0  0  0  0
  -28.6272  -24.3886   22.4185 H   0  0  0  0  0  0
  -27.0721  -25.1204   22.2240 H   0  0  0  0  0  0
  -30.1069  -23.6630   20.1476 H   0  0  0  0  0  0
  -29.0341  -23.2591   18.8548 H   0  0  0  0  0  0
  -29.4101  -21.8627   21.5708 H   0  0  0  0  0  0
  -27.1708  -24.4148   19.7883 H   0  0  0  0  0  0
  -31.0745  -19.8921   18.7884 H   0  0  0  0  0  0
  -31.4711  -20.5589   20.3847 H   0  0  0  0  0  0
  -30.9732  -21.6114   19.0668 H   0  0  0  0  0  0
  -31.0963  -17.8361   20.3664 H   0  0  0  0  0  0
  -30.0320  -17.6370   19.0260 H   0  0  0  0  0  0
  -28.1158  -18.7980   20.4661 H   0  0  0  0  0  0
  -29.3173  -19.1346   21.6661 H   0  0  0  0  0  0
  -28.8080  -15.9558   20.7723 H   0  0  0  0  0  0
  -28.8873  -20.4275   19.0874 H   0  0  0  0  0  0
  1 25  1  0  0  0
  1 30  2  0  0  0
  1 80  1  0  0  0
  2  3  1  0  0  0
  2 25  1  0  0  0
  2 82  1  0  0  0
  2 83  1  0  0  0
  3  4  1  0  0  0
  3 84  1  0  0  0
  3 85  1  0  0  0
  4  5  1  0  0  0
  4 86  1  0  0  0
  4 87  1  0  0  0
  5  6  1  0  0  0
  5 26  1  0  0  0
  5 88  1  0  0  0
  6 25  1  0  0  0
  6 89  1  0  0  0
  6 90  1  0  0  0
  7  8  2  0  0  0
  7 26  1  0  0  0
  7 29  1  0  0  0
  8  9  1  0  0  0
  8 22  1  0  0  0
  9 10  1  0  0  0
  9 27  2  0  0  0
 10 11  2  0  0  0
 10 15  1  0  0  0
 11 12  1  0  0  0
 11 91  1  0  0  0
 12 13  2  0  0  0
 12 92  1  0  0  0
 13 14  1  0  0  0
 13 31  1  0  0  0
 14 15  2  0  0  0
 14 93  1  0  0  0
 15 94  1  0  0  0
 16 17  2  0  0  0
 16 21  1  0  0  0
 16 31  1  0  0  0
 17 18  1  0  0  0
 17 95  1  0  0  0
 18 19  2  0  0  0
 18 96  1  0  0  0
 19 20  1  0  0  0
 19 24  1  0  0  0
 20 21  2  0  0  0
 20 97  1  0  0  0
 21 23  1  0  0  0
 22 28  1  0  0  0
 22 32  2  0  0  0
 26 27  1  0  0  0
 28 98  1  0  0  0
 28 99  1  0  0  0
 29100  1  0  0  0
 29101  1  0  0  0
 33 34  1  0  0  0
 33 66  1  0  0  0
 33 70  2  0  0  0
 34 36  1  0  0  0
 34 59  1  0  0  0
 34102  1  0  0  0
 35 44  2  0  0  0
 35 45  1  0  0  0
 35 68  1  0  0  0
 36 56  1  0  0  0
 36103  1  0  0  0
 37 39  1  0  0  0
 37 47  1  0  0  0
 37 66  1  0  0  0
 37104  1  0  0  0
 38 43  2  0  0  0
 38 46  1  0  0  0
 38 47  1  0  0  0
 39 64  1  0  0  0
 39 67  2  0  0  0
 40 52  1  0  0  0
 40 53  2  0  0  0
 40 58  1  0  0  0
 41105  1  0  0  0
 41106  1  0  0  0
 41107  1  0  0  0
 41 48  1  0  0  0
 42 43  1  0  0  0
 42 66  1  0  0  0
 42108  1  0  0  0
 42109  1  0  0  0
 43 44  1  0  0  0
 44110  1  0  0  0
 45 46  2  0  0  0
 45111  1  0  0  0
 46112  1  0  0  0
 47113  1  0  0  0
 47114  1  0  0  0
 48 56  1  0  0  0
 48 65  1  0  0  0
 48115  1  0  0  0
 49 50  1  0  0  0
 49 53  1  0  0  0
 49 64  1  0  0  0
 49116  1  0  0  0
 50 51  1  0  0  0
 50117  1  0  0  0
 50118  1  0  0  0
 51 52  1  0  0  0
 51119  1  0  0  0
 51120  1  0  0  0
 52121  1  0  0  0
 52122  1  0  0  0
 53 54  1  0  0  0
 54 55  2  0  0  0
 54123  1  0  0  0
 55 57  1  0  0  0
 55124  1  0  0  0
 56 69  2  0  0  0
 57 58  2  0  0  0
 57125  1  0  0  0
 58126  1  0  0  0
 59 60  1  0  0  0
 59 61  1  0  0  0
 59 62  1  0  0  0
 60127  1  0  0  0
 60128  1  0  0  0
 60129  1  0  0  0
 61130  1  0  0  0
 61131  1  0  0  0
 61132  1  0  0  0
 62133  1  0  0  0
 62134  1  0  0  0
 62135  1  0  0  0
 63 65  1  0  0  0
 63136  1  0  0  0
 63137  1  0  0  0
 63138  1  0  0  0
 64139  1  0  0  0
 65140  1  0  0  0
 68 76  1  0  0  0
 71 72  1  0  0  0
 71 73  1  0  0  0
 71141  1  0  0  0
 71142  1  0  0  0
 72143  1  0  0  0
 72144  1  0  0  0
 72 75  1  0  0  0
 73 76  1  0  0  0
 73145  1  0  0  0
 73146  1  0  0  0
 74 75  1  0  0  0
 74 76  1  0  0  0
 74147  1  0  0  0
 74148  1  0  0  0
 75 81  1  0  0  0
 75149  1  0  0  0
 76150  1  0  0  0
 77151  1  0  0  0
 77152  1  0  0  0
 77153  1  0  0  0
 77 81  1  0  0  0
 78 79  1  0  0  0
 78 80  1  0  0  0
 78154  1  0  0  0
 78155  1  0  0  0
 79 81  1  0  0  0
 79156  1  0  0  0
 79157  1  0  0  0
 80158  1  0  0  0
 81159  1  0  0  0
M  CHG  1  81   1
M  ISO  4   1 100  68 101  76 101  80 100
M  END
> <chiral flag>
0

> <version>
0

> <s_m_source_file>
/data/baiqing/PycharmProjects/Reinvent-master-3.2/result/LINK_invent/BTK/process_docking_weight1_custom_sum_contain_oxygen_bond_distance_aromatic_linkinvent_7_9_3/rearranged_h_0110.sdf

> <i_m_source_file_index>
27

> <r_mmod_Potential_Energy-OPLS-2005>
406.161590576172

> <r_mmod_Stretch_Energy-OPLS-2005>
278.452209472656

> <r_mmod_Bend_Energy-OPLS-2005>
272.027740478516

> <r_mmod_Torsional_Energy-OPLS-2005>
265.354522705078

> <r_mmod_Improper_Torsional_Energy-OPLS-2005>
5.29801464080811

> <r_mmod_Van_der_Waal_Energy-OPLS-2005>
117.264907836914

> <r_mmod_Electrostatic_Energy-OPLS-2005>
-255.349243164062

> <r_mmod_Solvation_Energy-OPLS-2005>
-464.279296875

> <b_mmod_Minimization_Converged-OPLS-2005>
0

> <r_mmod_RMS_Derivative-OPLS-2005>
3.55448222160339

$$$$
28
                    3D
 Structure written by MMmdl.
169177  0  0  1  0            999 V2000
  -30.6110  -14.7555   20.4591 C   0  0  0  0  0  0
  -30.4260  -12.4641   19.4676 C   0  0  0  0  0  0
  -29.5066  -12.5034   18.2286 C   0  0  0  0  0  0
  -28.0336  -12.3241   18.6457 C   0  0  0  0  0  0
  -27.6348  -13.2332   19.8393 C   0  0  2  0  0  0
  -28.6785  -13.1849   20.9739 C   0  0  0  0  0  0
  -25.2489  -13.8200   20.5690 C   0  0  0  0  0  0
  -24.1791  -13.0441   20.9220 C   0  0  0  0  0  0
  -24.6385  -11.6919   20.8743 C   0  0  0  0  0  0
  -23.9065  -10.4294   21.0399 C   0  0  0  0  0  0
  -24.3615   -9.4209   21.9175 C   0  0  0  0  0  0
  -23.6293   -8.2245   22.0751 C   0  0  0  0  0  0
  -22.4275   -8.0280   21.3541 C   0  0  0  0  0  0
  -21.9908   -9.0255   20.4645 C   0  0  0  0  0  0
  -22.7238  -10.2136   20.3050 C   0  0  0  0  0  0
  -21.6858   -6.0733   22.5276 C   0  0  0  0  0  0
  -21.4019   -6.5637   23.8210 C   0  0  0  0  0  0
  -21.3659   -5.6788   24.9169 C   0  0  0  0  0  0
  -21.6044   -4.3052   24.7220 C   0  0  0  0  0  0
  -21.8819   -3.8145   23.4342 C   0  0  0  0  0  0
  -21.9194   -4.6960   22.3399 C   0  0  0  0  0  0
  -22.7810  -13.5223   21.1862 C   0  0  0  0  0  0
  -22.1659   -4.2146   21.0976 F   0  0  0  0  0  0
  -21.5625   -3.4535   25.7733 F   0  0  0  0  0  0
  -29.9716  -13.5384   20.3806 N   0  0  0  0  0  0
  -26.2900  -12.9409   20.3227 N   0  0  0  0  0  0
  -25.9313  -11.6550   20.5730 N   0  0  0  0  0  0
  -22.0451  -12.8226   22.0420 N   0  0  0  0  0  0
  -25.4164  -15.1927   20.4095 N   0  0  0  0  0  0
  -31.8192  -14.7871   20.2298 O   0  0  0  0  0  0
  -21.6643   -6.8877   21.4238 O   0  0  0  0  0  0
  -22.3496  -14.5522   20.6692 O   0  0  0  0  0  0
  -24.6323  -31.8546   23.1967 C   0  0  0  0  0  0
  -25.9147  -32.4750   23.8312 C   0  0  1  0  0  0
  -27.2159  -27.2539   20.1472 C   0  0  0  0  0  0
  -25.5946  -33.8554   24.2244 N   0  0  0  0  0  0
  -23.4270  -30.4746   21.5412 C   0  0  2  0  0  0
  -24.8701  -28.9064   20.1227 C   0  0  0  0  0  0
  -22.7493  -29.4602   22.4933 C   0  0  0  0  0  0
  -18.0285  -28.1383   22.8489 C   0  0  0  0  0  0
  -24.1487  -36.7272   23.2640 C   0  0  0  0  0  0
  -25.9703  -30.7666   21.3719 C   0  0  0  0  0  0
  -26.0414  -29.3828   20.7255 C   0  0  0  0  0  0
  -27.2194  -28.5714   20.7173 C   0  0  0  0  0  0
  -26.0239  -26.8342   19.5265 C   0  0  0  0  0  0
  -24.8653  -27.6396   19.5133 C   0  0  0  0  0  0
  -23.6446  -29.7997   20.1607 C   0  0  0  0  0  0
  -25.4113  -36.3066   24.0327 C   0  0  1  0  0  0
  -20.5889  -28.3691   23.1280 C   0  0  2  0  0  0
  -20.6776  -26.9414   22.5415 C   0  0  0  0  0  0
  -19.5754  -26.6386   21.5215 C   0  0  0  0  0  0
  -18.1928  -26.7929   22.1625 C   0  0  0  0  0  0
  -19.1538  -28.8854   23.2881 C   0  0  0  0  0  0
  -18.9463  -30.1455   23.8895 C   0  0  0  0  0  0
  -17.6465  -30.6590   24.0557 C   0  0  0  0  0  0
  -25.9062  -34.9438   23.5088 C   0  0  0  0  0  0
  -16.5352  -29.9090   23.6327 C   0  0  0  0  0  0
  -16.7272  -28.6503   23.0356 C   0  0  0  0  0  0
  -26.4506  -31.6579   25.0705 C   0  0  0  0  0  0
  -25.3731  -31.3731   26.1429 C   0  0  0  0  0  0
  -27.0350  -30.2999   24.6186 C   0  0  0  0  0  0
  -27.6057  -32.4319   25.7487 C   0  0  0  0  0  0
  -27.5569  -37.1793   24.8466 C   0  0  0  0  0  0
  -21.4201  -29.3045   22.3671 N   0  0  0  0  0  0
  -26.4282  -37.3773   23.9414 N   0  0  0  0  0  0
  -24.6956  -31.0509   22.0934 N   0  0  0  0  0  0
  -23.4188  -28.8157   23.3046 O   0  0  0  0  0  0
  -28.3553  -26.4328   20.0646 O   0  0  0  0  0  0
  -26.5627  -34.8920   22.4653 O   0  0  0  0  0  0
  -23.5477  -32.1362   23.7275 O   0  0  0  0  0  0
  -29.6448  -22.0594   18.9774 C   0  0  0  0  0  0
  -28.4399  -21.0103   20.4864 C   0  0  0  0  0  0
  -28.6148  -22.2923   19.9298 C   0  0  0  0  0  0
  -29.9319  -20.7184   18.8739 C   0  0  0  0  0  0
  -30.7966  -20.1013   17.8220 C   0  0  0  0  0  0
  -26.4669  -23.4223   20.7671 C   0  0  0  0  0  0
  -32.2541  -17.5148   19.3229 C   0  0  0  0  0  0
  -32.1042  -19.1156   21.2754 C   0  0  0  0  0  0
  -29.6746  -17.6526   22.2931 C   0  0  0  0  0  0
  -29.1247  -18.4467   19.9552 C   0  0  0  0  0  0
  -28.4787  -25.0386   20.6238 C   0  0  0  0  0  0
  -27.8050  -23.6785   20.0542 C   0  0  1  0  0  0
  -31.6343  -17.7574   20.7140 C   0  0  0  0  0  0
  -30.0962  -17.4351   20.8212 C   0  0  1  0  0  0
  -29.2214  -19.9960   19.8434 N   0  0  0  0  0  0
  -29.8358  -15.9128   20.5965 N   0  0  0  0  0  0
  -31.4672  -12.5870   19.1642 H   0  0  0  0  0  0
  -30.3696  -11.4930   19.9620 H   0  0  0  0  0  0
  -29.7941  -11.7253   17.5200 H   0  0  0  0  0  0
  -29.6296  -13.4541   17.7071 H   0  0  0  0  0  0
  -27.8972  -11.2775   18.9190 H   0  0  0  0  0  0
  -27.3740  -12.5025   17.7956 H   0  0  0  0  0  0
  -27.6227  -14.2501   19.4463 H   0  0  0  0  0  0
  -28.7203  -12.1929   21.4261 H   0  0  0  0  0  0
  -28.4131  -13.8781   21.7741 H   0  0  0  0  0  0
  -25.2756   -9.5695   22.4750 H   0  0  0  0  0  0
  -23.9998   -7.4644   22.7482 H   0  0  0  0  0  0
  -21.0832   -8.8776   19.8964 H   0  0  0  0  0  0
  -22.3683  -10.9669   19.6162 H   0  0  0  0  0  0
  -21.2017   -7.6146   23.9715 H   0  0  0  0  0  0
  -21.1478   -6.0515   25.9073 H   0  0  0  0  0  0
  -22.0600   -2.7607   23.2841 H   0  0  0  0  0  0
  -22.4069  -11.9903   22.4836 H   0  0  0  0  0  0
  -21.1065  -13.1261   22.2603 H   0  0  0  0  0  0
  -24.6419  -15.8389   20.5168 H   0  0  0  0  0  0
  -26.2502  -15.6345   20.0464 H   0  0  0  0  0  0
  -26.7210  -32.5396   23.1050 H   0  0  0  0  0  0
  -25.0113  -33.9674   25.0404 H   0  0  0  0  0  0
  -22.7241  -31.2968   21.3927 H   0  0  0  0  0  0
  -23.3754  -35.9599   23.3302 H   0  0  0  0  0  0
  -24.3573  -36.8894   22.2053 H   0  0  0  0  0  0
  -23.7235  -37.6474   23.6660 H   0  0  0  0  0  0
  -26.1041  -31.5217   20.5962 H   0  0  0  0  0  0
  -26.8503  -30.8222   22.0015 H   0  0  0  0  0  0
  -28.1289  -28.9448   21.1668 H   0  0  0  0  0  0
  -25.9897  -25.8717   19.0378 H   0  0  0  0  0  0
  -23.9693  -27.2710   19.0328 H   0  0  0  0  0  0
  -23.7759  -30.5715   19.4016 H   0  0  0  0  0  0
  -22.7605  -29.2373   19.8553 H   0  0  0  0  0  0
  -25.1301  -36.1900   25.0820 H   0  0  0  0  0  0
  -20.9970  -28.3266   24.1406 H   0  0  0  0  0  0
  -20.5675  -26.2302   23.3616 H   0  0  0  0  0  0
  -21.6645  -26.7446   22.1208 H   0  0  0  0  0  0
  -19.6917  -25.6299   21.1246 H   0  0  0  0  0  0
  -19.6689  -27.3188   20.6737 H   0  0  0  0  0  0
  -17.4202  -26.6676   21.4021 H   0  0  0  0  0  0
  -18.0327  -26.0070   22.9020 H   0  0  0  0  0  0
  -19.7942  -30.7270   24.2263 H   0  0  0  0  0  0
  -17.5022  -31.6269   24.5166 H   0  0  0  0  0  0
  -15.5355  -30.2992   23.7656 H   0  0  0  0  0  0
  -15.8672  -28.0820   22.7080 H   0  0  0  0  0  0
  -24.5912  -30.7069   25.7761 H   0  0  0  0  0  0
  -24.8915  -32.2904   26.4831 H   0  0  0  0  0  0
  -25.8057  -30.8933   27.0218 H   0  0  0  0  0  0
  -26.2927  -29.6746   24.1212 H   0  0  0  0  0  0
  -27.4035  -29.7264   25.4700 H   0  0  0  0  0  0
  -27.8803  -30.4274   23.9421 H   0  0  0  0  0  0
  -27.2658  -33.3625   26.2044 H   0  0  0  0  0  0
  -28.3884  -32.6866   25.0327 H   0  0  0  0  0  0
  -28.0706  -31.8457   26.5426 H   0  0  0  0  0  0
  -28.2599  -38.0079   24.7511 H   0  0  0  0  0  0
  -28.1060  -36.2616   24.6302 H   0  0  0  0  0  0
  -27.2291  -37.1450   25.8871 H   0  0  0  0  0  0
  -20.9389  -29.8751   21.6860 H   0  0  0  0  0  0
  -26.0157  -38.2847   24.1419 H   0  0  0  0  0  0
  -30.0549  -22.8079   18.3116 H   0  0  0  0  0  0
  -27.7248  -20.6992   21.2368 H   0  0  0  0  0  0
  -30.6449  -19.0312   17.7117 H   0  0  0  0  0  0
  -31.8483  -20.2964   18.0267 H   0  0  0  0  0  0
  -30.5788  -20.5425   16.8490 H   0  0  0  0  0  0
  -25.8906  -22.6506   20.2551 H   0  0  0  0  0  0
  -25.8495  -24.3185   20.8056 H   0  0  0  0  0  0
  -26.6259  -23.0914   21.7936 H   0  0  0  0  0  0
  -33.1353  -16.8777   19.4029 H   0  0  0  0  0  0
  -32.6043  -18.4315   18.8589 H   0  0  0  0  0  0
  -31.5605  -17.0270   18.6379 H   0  0  0  0  0  0
  -33.1908  -19.1923   21.2235 H   0  0  0  0  0  0
  -31.8394  -19.2483   22.3236 H   0  0  0  0  0  0
  -31.7051  -19.9605   20.7215 H   0  0  0  0  0  0
  -29.6864  -18.7079   22.5682 H   0  0  0  0  0  0
  -30.3243  -17.1206   22.9896 H   0  0  0  0  0  0
  -28.6567  -17.3028   22.4722 H   0  0  0  0  0  0
  -28.1032  -18.2515   20.2835 H   0  0  0  0  0  0
  -29.1176  -18.0693   18.9340 H   0  0  0  0  0  0
  -29.5521  -24.8615   20.5527 H   0  0  0  0  0  0
  -28.2980  -25.0972   21.6979 H   0  0  0  0  0  0
  -27.5612  -23.9108   19.0172 H   0  0  0  0  0  0
  -32.1234  -17.0423   21.3767 H   0  0  0  0  0  0
  -28.8552  -15.6828   20.6420 H   0  0  0  0  0  0
  1 25  1  0  0  0
  1 30  2  0  0  0
  1 86  1  0  0  0
  2  3  1  0  0  0
  2 25  1  0  0  0
  2 87  1  0  0  0
  2 88  1  0  0  0
  3  4  1  0  0  0
  3 89  1  0  0  0
  3 90  1  0  0  0
  4  5  1  0  0  0
  4 91  1  0  0  0
  4 92  1  0  0  0
  5  6  1  0  0  0
  5 26  1  0  0  0
  5 93  1  0  0  0
  6 25  1  0  0  0
  6 94  1  0  0  0
  6 95  1  0  0  0
  7  8  2  0  0  0
  7 26  1  0  0  0
  7 29  1  0  0  0
  8  9  1  0  0  0
  8 22  1  0  0  0
  9 10  1  0  0  0
  9 27  2  0  0  0
 10 11  2  0  0  0
 10 15  1  0  0  0
 11 12  1  0  0  0
 11 96  1  0  0  0
 12 13  2  0  0  0
 12 97  1  0  0  0
 13 14  1  0  0  0
 13 31  1  0  0  0
 14 15  2  0  0  0
 14 98  1  0  0  0
 15 99  1  0  0  0
 16 17  2  0  0  0
 16 21  1  0  0  0
 16 31  1  0  0  0
 17 18  1  0  0  0
 17100  1  0  0  0
 18 19  2  0  0  0
 18101  1  0  0  0
 19 20  1  0  0  0
 19 24  1  0  0  0
 20 21  2  0  0  0
 20102  1  0  0  0
 21 23  1  0  0  0
 22 28  1  0  0  0
 22 32  2  0  0  0
 26 27  1  0  0  0
 28103  1  0  0  0
 28104  1  0  0  0
 29105  1  0  0  0
 29106  1  0  0  0
 33 34  1  0  0  0
 33 66  1  0  0  0
 33 70  2  0  0  0
 34 36  1  0  0  0
 34 59  1  0  0  0
 34107  1  0  0  0
 35 44  2  0  0  0
 35 45  1  0  0  0
 35 68  1  0  0  0
 36 56  1  0  0  0
 36108  1  0  0  0
 37 39  1  0  0  0
 37 47  1  0  0  0
 37 66  1  0  0  0
 37109  1  0  0  0
 38 43  2  0  0  0
 38 46  1  0  0  0
 38 47  1  0  0  0
 39 64  1  0  0  0
 39 67  2  0  0  0
 40 52  1  0  0  0
 40 53  2  0  0  0
 40 58  1  0  0  0
 41110  1  0  0  0
 41111  1  0  0  0
 41112  1  0  0  0
 41 48  1  0  0  0
 42 43  1  0  0  0
 42 66  1  0  0  0
 42113  1  0  0  0
 42114  1  0  0  0
 43 44  1  0  0  0
 44115  1  0  0  0
 45 46  2  0  0  0
 45116  1  0  0  0
 46117  1  0  0  0
 47118  1  0  0  0
 47119  1  0  0  0
 48 56  1  0  0  0
 48 65  1  0  0  0
 48120  1  0  0  0
 49 50  1  0  0  0
 49 53  1  0  0  0
 49 64  1  0  0  0
 49121  1  0  0  0
 50 51  1  0  0  0
 50122  1  0  0  0
 50123  1  0  0  0
 51 52  1  0  0  0
 51124  1  0  0  0
 51125  1  0  0  0
 52126  1  0  0  0
 52127  1  0  0  0
 53 54  1  0  0  0
 54 55  2  0  0  0
 54128  1  0  0  0
 55 57  1  0  0  0
 55129  1  0  0  0
 56 69  2  0  0  0
 57 58  2  0  0  0
 57130  1  0  0  0
 58131  1  0  0  0
 59 60  1  0  0  0
 59 61  1  0  0  0
 59 62  1  0  0  0
 60132  1  0  0  0
 60133  1  0  0  0
 60134  1  0  0  0
 61135  1  0  0  0
 61136  1  0  0  0
 61137  1  0  0  0
 62138  1  0  0  0
 62139  1  0  0  0
 62140  1  0  0  0
 63 65  1  0  0  0
 63141  1  0  0  0
 63142  1  0  0  0
 63143  1  0  0  0
 64144  1  0  0  0
 65145  1  0  0  0
 68 81  1  0  0  0
 71 73  1  0  0  0
 71 74  2  0  0  0
 71146  1  0  0  0
 72 73  2  0  0  0
 72 85  1  0  0  0
 72147  1  0  0  0
 73 82  1  0  0  0
 74 75  1  0  0  0
 74 85  1  0  0  0
 75148  1  0  0  0
 75149  1  0  0  0
 75150  1  0  0  0
 76151  1  0  0  0
 76152  1  0  0  0
 76153  1  0  0  0
 76 82  1  0  0  0
 77154  1  0  0  0
 77155  1  0  0  0
 77156  1  0  0  0
 77 83  1  0  0  0
 78 83  1  0  0  0
 78157  1  0  0  0
 78158  1  0  0  0
 78159  1  0  0  0
 79160  1  0  0  0
 79161  1  0  0  0
 79162  1  0  0  0
 79 84  1  0  0  0
 80 84  1  0  0  0
 80 85  1  0  0  0
 80163  1  0  0  0
 80164  1  0  0  0
 81 82  1  0  0  0
 81165  1  0  0  0
 81166  1  0  0  0
 82167  1  0  0  0
 83 84  1  0  0  0
 83168  1  0  0  0
 84 86  1  0  0  0
 86169  1  0  0  0
M  ISO  4   1 100  68 101  81 101  86 100
M  END
> <chiral flag>
0

> <version>
0

> <s_m_source_file>
/data/baiqing/PycharmProjects/Reinvent-master-3.2/result/LINK_invent/BTK/process_docking_weight1_custom_sum_contain_oxygen_bond_distance_aromatic_linkinvent_7_9_3/rearranged_h_0110.sdf

> <i_m_source_file_index>
28

> <r_mmod_Potential_Energy-OPLS-2005>
292.827239990234

> <r_mmod_Stretch_Energy-OPLS-2005>
149.201614379883

> <r_mmod_Bend_Energy-OPLS-2005>
247.760711669922

> <r_mmod_Torsional_Energy-OPLS-2005>
271.328308105469

> <r_mmod_Improper_Torsional_Energy-OPLS-2005>
8.38979339599609

> <r_mmod_Van_der_Waal_Energy-OPLS-2005>
115.283683776855

> <r_mmod_Electrostatic_Energy-OPLS-2005>
-384.634368896484

> <r_mmod_Solvation_Energy-OPLS-2005>
-198.636291503906

> <b_mmod_Minimization_Converged-OPLS-2005>
0

> <r_mmod_RMS_Derivative-OPLS-2005>
1.11550271511078

$$$$
29
                    3D
 Structure written by MMmdl.
173181  0  0  1  0            999 V2000
  -30.6575  -14.5540   20.5064 C   0  0  0  0  0  0
  -30.4288  -12.3379   19.4439 C   0  0  0  0  0  0
  -29.5007  -12.4925   18.2183 C   0  0  0  0  0  0
  -28.0215  -12.3476   18.6297 C   0  0  0  0  0  0
  -27.6545  -13.2106   19.8674 C   0  0  2  0  0  0
  -28.6993  -13.0380   20.9959 C   0  0  0  0  0  0
  -25.2557  -13.8169   20.5700 C   0  0  0  0  0  0
  -24.1828  -13.0436   20.9217 C   0  0  0  0  0  0
  -24.6389  -11.6911   20.8758 C   0  0  0  0  0  0
  -23.9057  -10.4294   21.0414 C   0  0  0  0  0  0
  -24.3614   -9.4216   21.9186 C   0  0  0  0  0  0
  -23.6283   -8.2257   22.0747 C   0  0  0  0  0  0
  -22.4266   -8.0281   21.3543 C   0  0  0  0  0  0
  -21.9911   -9.0261   20.4650 C   0  0  0  0  0  0
  -22.7238  -10.2135   20.3061 C   0  0  0  0  0  0
  -21.6850   -6.0743   22.5289 C   0  0  0  0  0  0
  -21.4010   -6.5644   23.8225 C   0  0  0  0  0  0
  -21.3655   -5.6794   24.9186 C   0  0  0  0  0  0
  -21.6057   -4.3054   24.7230 C   0  0  0  0  0  0
  -21.8812   -3.8151   23.4346 C   0  0  0  0  0  0
  -21.9192   -4.6973   22.3403 C   0  0  0  0  0  0
  -22.7844  -13.5218   21.1873 C   0  0  0  0  0  0
  -22.1655   -4.2169   21.0972 F   0  0  0  0  0  0
  -21.5639   -3.4530   25.7736 F   0  0  0  0  0  0
  -30.0224  -13.3492   20.4345 N   0  0  0  0  0  0
  -26.2988  -12.9343   20.3343 N   0  0  0  0  0  0
  -25.9315  -11.6501   20.5780 N   0  0  0  0  0  0
  -22.0488  -12.8203   22.0420 N   0  0  0  0  0  0
  -25.4259  -15.1898   20.4099 N   0  0  0  0  0  0
  -31.8153  -14.7165   20.1137 O   0  0  0  0  0  0
  -21.6638   -6.8878   21.4241 O   0  0  0  0  0  0
  -22.3521  -14.5524   20.6726 O   0  0  0  0  0  0
  -24.6191  -31.8646   23.2066 C   0  0  0  0  0  0
  -25.9070  -32.4797   23.8375 C   0  0  1  0  0  0
  -27.2278  -27.3783   20.1149 C   0  0  0  0  0  0
  -25.5909  -33.8595   24.2312 N   0  0  0  0  0  0
  -23.4099  -30.4896   21.5470 C   0  0  2  0  0  0
  -24.8574  -28.9529   20.1131 C   0  0  0  0  0  0
  -22.7438  -29.4651   22.4956 C   0  0  0  0  0  0
  -18.0279  -28.1361   22.8499 C   0  0  0  0  0  0
  -24.1489  -36.7302   23.2641 C   0  0  0  0  0  0
  -25.9459  -30.8148   21.3706 C   0  0  0  0  0  0
  -26.0221  -29.4475   20.7134 C   0  0  0  0  0  0
  -27.2116  -28.6716   20.7047 C   0  0  0  0  0  0
  -26.0427  -26.9217   19.4927 C   0  0  0  0  0  0
  -24.8676  -27.6941   19.4937 C   0  0  0  0  0  0
  -23.6214  -29.8234   20.1621 C   0  0  0  0  0  0
  -25.4109  -36.3101   24.0341 C   0  0  1  0  0  0
  -20.5874  -28.3669   23.1289 C   0  0  2  0  0  0
  -20.6765  -26.9394   22.5408 C   0  0  0  0  0  0
  -19.5743  -26.6377   21.5202 C   0  0  0  0  0  0
  -18.1924  -26.7912   22.1618 C   0  0  0  0  0  0
  -19.1532  -28.8829   23.2893 C   0  0  0  0  0  0
  -18.9459  -30.1432   23.8911 C   0  0  0  0  0  0
  -17.6462  -30.6575   24.0560 C   0  0  0  0  0  0
  -25.9036  -34.9464   23.5127 C   0  0  0  0  0  0
  -16.5350  -29.9075   23.6325 C   0  0  0  0  0  0
  -16.7267  -28.6480   23.0366 C   0  0  0  0  0  0
  -26.4489  -31.6579   25.0718 C   0  0  0  0  0  0
  -25.3747  -31.3690   26.1457 C   0  0  0  0  0  0
  -27.0338  -30.3016   24.6127 C   0  0  0  0  0  0
  -27.6061  -32.4309   25.7476 C   0  0  0  0  0  0
  -27.5585  -37.1801   24.8465 C   0  0  0  0  0  0
  -21.4154  -29.3042   22.3691 N   0  0  0  0  0  0
  -26.4295  -37.3785   23.9410 N   0  0  0  0  0  0
  -24.6762  -31.0719   22.0984 N   0  0  0  0  0  0
  -23.4186  -28.8192   23.3007 O   0  0  0  0  0  0
  -28.3714  -26.5845   20.1388 O   0  0  0  0  0  0
  -26.5605  -34.8925   22.4689 O   0  0  0  0  0  0
  -23.5370  -32.1423   23.7424 O   0  0  0  0  0  0
  -32.6806  -24.8741   22.5482 C   0  0  0  0  0  0
  -32.3438  -26.2873   22.0729 C   0  0  0  0  0  0
  -31.7784  -23.9710   21.7138 C   0  0  0  0  0  0
  -30.9364  -26.2065   21.4628 C   0  0  0  0  0  0
  -30.4565  -24.7476   21.6032 C   0  0  0  0  0  0
  -29.1646  -18.1618   22.5353 C   0  0  0  0  0  0
  -28.5437  -19.2735   18.9858 C   0  0  0  0  0  0
  -30.0824  -20.3443   20.5731 C   0  0  0  0  0  0
  -30.1344  -17.0342   20.4383 C   0  0  0  0  0  0
  -29.9661  -21.7880   19.9352 C   0  0  0  0  0  0
  -28.1865  -25.1585   20.4090 C   0  0  0  0  0  0
  -29.4830  -24.2620   20.4850 C   0  0  2  0  0  0
  -29.0656  -18.0380   21.0062 C   0  0  2  0  0  0
  -29.8667  -15.6165   20.7951 N   0  0  0  0  0  0
  -28.9584  -19.3929   20.3851 N   0  0  0  0  0  0
  -29.1478  -22.7963   20.6882 N   0  3  0  0  0  0
  -31.4735  -12.4449   19.1451 H   0  0  0  0  0  0
  -30.3409  -11.3386   19.8711 H   0  0  0  0  0  0
  -29.7480  -11.7492   17.4595 H   0  0  0  0  0  0
  -29.6594  -13.4669   17.7544 H   0  0  0  0  0  0
  -27.8404  -11.2929   18.8457 H   0  0  0  0  0  0
  -27.3717  -12.5979   17.7904 H   0  0  0  0  0  0
  -27.6783  -14.2507   19.5410 H   0  0  0  0  0  0
  -28.6892  -12.0133   21.3711 H   0  0  0  0  0  0
  -28.4654  -13.6700   21.8537 H   0  0  0  0  0  0
  -25.2764   -9.5694   22.4749 H   0  0  0  0  0  0
  -24.0019   -7.4635   22.7440 H   0  0  0  0  0  0
  -21.0860   -8.8755   19.8933 H   0  0  0  0  0  0
  -22.3699  -10.9659   19.6160 H   0  0  0  0  0  0
  -21.1987   -7.6154   23.9727 H   0  0  0  0  0  0
  -21.1485   -6.0528   25.9087 H   0  0  0  0  0  0
  -22.0596   -2.7615   23.2843 H   0  0  0  0  0  0
  -22.4105  -11.9855   22.4786 H   0  0  0  0  0  0
  -21.1108  -13.1234   22.2627 H   0  0  0  0  0  0
  -24.6570  -15.8424   20.5202 H   0  0  0  0  0  0
  -26.2678  -15.6260   20.0558 H   0  0  0  0  0  0
  -26.7136  -32.5500   23.1131 H   0  0  0  0  0  0
  -25.0071  -33.9738   25.0469 H   0  0  0  0  0  0
  -22.7017  -31.3083   21.4041 H   0  0  0  0  0  0
  -23.3756  -35.9631   23.3305 H   0  0  0  0  0  0
  -24.3597  -36.8914   22.2059 H   0  0  0  0  0  0
  -23.7232  -37.6503   23.6654 H   0  0  0  0  0  0
  -26.0725  -31.5834   20.6072 H   0  0  0  0  0  0
  -26.8280  -30.8605   21.9974 H   0  0  0  0  0  0
  -28.1077  -29.0491   21.1776 H   0  0  0  0  0  0
  -26.0021  -25.9687   18.9887 H   0  0  0  0  0  0
  -23.9771  -27.3125   19.0129 H   0  0  0  0  0  0
  -23.7313  -30.5972   19.4011 H   0  0  0  0  0  0
  -22.7457  -29.2427   19.8658 H   0  0  0  0  0  0
  -25.1285  -36.1969   25.0835 H   0  0  0  0  0  0
  -20.9973  -28.3237   24.1405 H   0  0  0  0  0  0
  -20.5642  -26.2283   23.3607 H   0  0  0  0  0  0
  -21.6636  -26.7416   22.1212 H   0  0  0  0  0  0
  -19.6904  -25.6288   21.1224 H   0  0  0  0  0  0
  -19.6674  -27.3194   20.6737 H   0  0  0  0  0  0
  -17.4191  -26.6675   21.4015 H   0  0  0  0  0  0
  -18.0319  -26.0032   22.8994 H   0  0  0  0  0  0
  -19.7935  -30.7236   24.2291 H   0  0  0  0  0  0
  -17.5018  -31.6262   24.5152 H   0  0  0  0  0  0
  -15.5353  -30.2984   23.7627 H   0  0  0  0  0  0
  -15.8669  -28.0790   22.7095 H   0  0  0  0  0  0
  -24.5915  -30.7045   25.7784 H   0  0  0  0  0  0
  -24.8946  -32.2848   26.4917 H   0  0  0  0  0  0
  -25.8093  -30.8841   27.0209 H   0  0  0  0  0  0
  -26.2895  -29.6746   24.1197 H   0  0  0  0  0  0
  -27.4117  -29.7279   25.4603 H   0  0  0  0  0  0
  -27.8730  -30.4328   23.9292 H   0  0  0  0  0  0
  -27.2677  -33.3600   26.2075 H   0  0  0  0  0  0
  -28.3853  -32.6875   25.0287 H   0  0  0  0  0  0
  -28.0751  -31.8419   26.5371 H   0  0  0  0  0  0
  -28.2595  -38.0105   24.7528 H   0  0  0  0  0  0
  -28.1090  -36.2639   24.6271 H   0  0  0  0  0  0
  -27.2313  -37.1428   25.8871 H   0  0  0  0  0  0
  -20.9312  -29.8781   21.6937 H   0  0  0  0  0  0
  -26.0190  -38.2867   24.1405 H   0  0  0  0  0  0
  -32.4308  -24.7703   23.6058 H   0  0  0  0  0  0
  -33.7387  -24.6342   22.4338 H   0  0  0  0  0  0
  -33.0561  -26.6082   21.3105 H   0  0  0  0  0  0
  -32.4000  -27.0060   22.8919 H   0  0  0  0  0  0
  -31.6620  -22.9847   22.1651 H   0  0  0  0  0  0
  -32.2298  -23.8412   20.7288 H   0  0  0  0  0  0
  -30.9895  -26.4951   20.4122 H   0  0  0  0  0  0
  -30.2526  -26.8993   21.9551 H   0  0  0  0  0  0
  -29.9482  -24.6662   22.5666 H   0  0  0  0  0  0
  -29.0275  -17.1923   23.0163 H   0  0  0  0  0  0
  -28.3950  -18.8232   22.9322 H   0  0  0  0  0  0
  -30.1365  -18.5373   22.8574 H   0  0  0  0  0  0
  -28.1789  -20.2219   18.5933 H   0  0  0  0  0  0
  -27.7160  -18.5694   18.8823 H   0  0  0  0  0  0
  -29.3568  -18.9311   18.3447 H   0  0  0  0  0  0
  -30.3019  -20.4493   21.6362 H   0  0  0  0  0  0
  -30.9687  -19.8739   20.1422 H   0  0  0  0  0  0
  -31.1323  -17.3154   20.7798 H   0  0  0  0  0  0
  -30.1615  -17.0811   19.3489 H   0  0  0  0  0  0
  -29.6399  -21.7588   18.8973 H   0  0  0  0  0  0
  -30.9843  -22.1674   19.8713 H   0  0  0  0  0  0
  -27.6347  -25.0606   21.3454 H   0  0  0  0  0  0
  -27.5597  -24.7215   19.6343 H   0  0  0  0  0  0
  -29.9788  -24.3594   19.5181 H   0  0  0  0  0  0
  -28.0931  -17.5773   20.8172 H   0  0  0  0  0  0
  -28.9236  -15.3925   21.0728 H   0  0  0  0  0  0
  -29.2043  -22.5851   21.6713 H   0  0  0  0  0  0
  -28.1901  -22.6270   20.4201 H   0  0  0  0  0  0
  1 25  1  0  0  0
  1 30  2  0  0  0
  1 84  1  0  0  0
  2  3  1  0  0  0
  2 25  1  0  0  0
  2 87  1  0  0  0
  2 88  1  0  0  0
  3  4  1  0  0  0
  3 89  1  0  0  0
  3 90  1  0  0  0
  4  5  1  0  0  0
  4 91  1  0  0  0
  4 92  1  0  0  0
  5  6  1  0  0  0
  5 26  1  0  0  0
  5 93  1  0  0  0
  6 25  1  0  0  0
  6 94  1  0  0  0
  6 95  1  0  0  0
  7  8  2  0  0  0
  7 26  1  0  0  0
  7 29  1  0  0  0
  8  9  1  0  0  0
  8 22  1  0  0  0
  9 10  1  0  0  0
  9 27  2  0  0  0
 10 11  2  0  0  0
 10 15  1  0  0  0
 11 12  1  0  0  0
 11 96  1  0  0  0
 12 13  2  0  0  0
 12 97  1  0  0  0
 13 14  1  0  0  0
 13 31  1  0  0  0
 14 15  2  0  0  0
 14 98  1  0  0  0
 15 99  1  0  0  0
 16 17  2  0  0  0
 16 21  1  0  0  0
 16 31  1  0  0  0
 17 18  1  0  0  0
 17100  1  0  0  0
 18 19  2  0  0  0
 18101  1  0  0  0
 19 20  1  0  0  0
 19 24  1  0  0  0
 20 21  2  0  0  0
 20102  1  0  0  0
 21 23  1  0  0  0
 22 28  1  0  0  0
 22 32  2  0  0  0
 26 27  1  0  0  0
 28103  1  0  0  0
 28104  1  0  0  0
 29105  1  0  0  0
 29106  1  0  0  0
 33 34  1  0  0  0
 33 66  1  0  0  0
 33 70  2  0  0  0
 34 36  1  0  0  0
 34 59  1  0  0  0
 34107  1  0  0  0
 35 44  2  0  0  0
 35 45  1  0  0  0
 35 68  1  0  0  0
 36 56  1  0  0  0
 36108  1  0  0  0
 37 39  1  0  0  0
 37 47  1  0  0  0
 37 66  1  0  0  0
 37109  1  0  0  0
 38 43  2  0  0  0
 38 46  1  0  0  0
 38 47  1  0  0  0
 39 64  1  0  0  0
 39 67  2  0  0  0
 40 52  1  0  0  0
 40 53  2  0  0  0
 40 58  1  0  0  0
 41110  1  0  0  0
 41111  1  0  0  0
 41112  1  0  0  0
 41 48  1  0  0  0
 42 43  1  0  0  0
 42 66  1  0  0  0
 42113  1  0  0  0
 42114  1  0  0  0
 43 44  1  0  0  0
 44115  1  0  0  0
 45 46  2  0  0  0
 45116  1  0  0  0
 46117  1  0  0  0
 47118  1  0  0  0
 47119  1  0  0  0
 48 56  1  0  0  0
 48 65  1  0  0  0
 48120  1  0  0  0
 49 50  1  0  0  0
 49 53  1  0  0  0
 49 64  1  0  0  0
 49121  1  0  0  0
 50 51  1  0  0  0
 50122  1  0  0  0
 50123  1  0  0  0
 51 52  1  0  0  0
 51124  1  0  0  0
 51125  1  0  0  0
 52126  1  0  0  0
 52127  1  0  0  0
 53 54  1  0  0  0
 54 55  2  0  0  0
 54128  1  0  0  0
 55 57  1  0  0  0
 55129  1  0  0  0
 56 69  2  0  0  0
 57 58  2  0  0  0
 57130  1  0  0  0
 58131  1  0  0  0
 59 60  1  0  0  0
 59 61  1  0  0  0
 59 62  1  0  0  0
 60132  1  0  0  0
 60133  1  0  0  0
 60134  1  0  0  0
 61135  1  0  0  0
 61136  1  0  0  0
 61137  1  0  0  0
 62138  1  0  0  0
 62139  1  0  0  0
 62140  1  0  0  0
 63 65  1  0  0  0
 63141  1  0  0  0
 63142  1  0  0  0
 63143  1  0  0  0
 64144  1  0  0  0
 65145  1  0  0  0
 68 81  1  0  0  0
 71 72  1  0  0  0
 71 73  1  0  0  0
 71146  1  0  0  0
 71147  1  0  0  0
 72 74  1  0  0  0
 72148  1  0  0  0
 72149  1  0  0  0
 73150  1  0  0  0
 73151  1  0  0  0
 73 75  1  0  0  0
 74 75  1  0  0  0
 74152  1  0  0  0
 74153  1  0  0  0
 75 82  1  0  0  0
 75154  1  0  0  0
 76155  1  0  0  0
 76156  1  0  0  0
 76157  1  0  0  0
 76 83  1  0  0  0
 77 85  1  0  0  0
 77158  1  0  0  0
 77159  1  0  0  0
 77160  1  0  0  0
 78 80  1  0  0  0
 78 85  1  0  0  0
 78161  1  0  0  0
 78162  1  0  0  0
 79 83  1  0  0  0
 79 84  1  0  0  0
 79163  1  0  0  0
 79164  1  0  0  0
 80 86  1  0  0  0
 80165  1  0  0  0
 80166  1  0  0  0
 81167  1  0  0  0
 81168  1  0  0  0
 81 82  1  0  0  0
 82 86  1  0  0  0
 82169  1  0  0  0
 83 85  1  0  0  0
 83170  1  0  0  0
 84171  1  0  0  0
 86172  1  0  0  0
 86173  1  0  0  0
M  CHG  1  86   1
M  ISO  4   1 100  68 101  81 101  84 100
M  END
> <chiral flag>
0

> <version>
0

> <s_m_source_file>
/data/baiqing/PycharmProjects/Reinvent-master-3.2/result/LINK_invent/BTK/process_docking_weight1_custom_sum_contain_oxygen_bond_distance_aromatic_linkinvent_7_9_3/rearranged_h_0110.sdf

> <i_m_source_file_index>
29

> <r_mmod_Potential_Energy-OPLS-2005>
-68.6057205200195

> <r_mmod_Stretch_Energy-OPLS-2005>
59.5302200317383

> <r_mmod_Bend_Energy-OPLS-2005>
155.18913269043

> <r_mmod_Torsional_Energy-OPLS-2005>
293.771667480469

> <r_mmod_Improper_Torsional_Energy-OPLS-2005>
6.46653985977173

> <r_mmod_Van_der_Waal_Energy-OPLS-2005>
129.782135009766

> <r_mmod_Electrostatic_Energy-OPLS-2005>
-306.144317626953

> <r_mmod_Solvation_Energy-OPLS-2005>
-433.595458984375

> <b_mmod_Minimization_Converged-OPLS-2005>
0

> <r_mmod_RMS_Derivative-OPLS-2005>
2.06687140464783

$$$$
30
                    3D
 Structure written by MMmdl.
163171  0  0  1  0            999 V2000
  -30.6333  -14.6703   20.5118 C   0  0  0  0  0  0
  -30.4366  -12.4154   19.4520 C   0  0  0  0  0  0
  -29.5003  -12.4929   18.2254 C   0  0  0  0  0  0
  -28.0289  -12.3235   18.6495 C   0  0  0  0  0  0
  -27.6526  -13.2158   19.8599 C   0  0  2  0  0  0
  -28.6971  -13.0951   20.9899 C   0  0  0  0  0  0
  -25.2579  -13.8175   20.5694 C   0  0  0  0  0  0
  -24.1851  -13.0448   20.9198 C   0  0  0  0  0  0
  -24.6425  -11.6913   20.8778 C   0  0  0  0  0  0
  -23.9098  -10.4283   21.0443 C   0  0  0  0  0  0
  -24.3646   -9.4192   21.9218 C   0  0  0  0  0  0
  -23.6304   -8.2236   22.0777 C   0  0  0  0  0  0
  -22.4288   -8.0290   21.3562 C   0  0  0  0  0  0
  -21.9930   -9.0280   20.4674 C   0  0  0  0  0  0
  -22.7271  -10.2148   20.3086 C   0  0  0  0  0  0
  -21.6845   -6.0759   22.5292 C   0  0  0  0  0  0
  -21.4010   -6.5659   23.8230 C   0  0  0  0  0  0
  -21.3642   -5.6806   24.9187 C   0  0  0  0  0  0
  -21.6035   -4.3065   24.7232 C   0  0  0  0  0  0
  -21.8816   -3.8168   23.4348 C   0  0  0  0  0  0
  -21.9190   -4.6993   22.3410 C   0  0  0  0  0  0
  -22.7867  -13.5247   21.1841 C   0  0  0  0  0  0
  -22.1659   -4.2182   21.0984 F   0  0  0  0  0  0
  -21.5619   -3.4543   25.7736 F   0  0  0  0  0  0
  -30.0077  -13.4495   20.4217 N   0  0  0  0  0  0
  -26.3000  -12.9365   20.3338 N   0  0  0  0  0  0
  -25.9354  -11.6517   20.5813 N   0  0  0  0  0  0
  -22.0509  -12.8241   22.0394 N   0  0  0  0  0  0
  -25.4315  -15.1899   20.4082 N   0  0  0  0  0  0
  -31.7565  -14.8380   20.0251 O   0  0  0  0  0  0
  -21.6627   -6.8913   21.4259 O   0  0  0  0  0  0
  -22.3556  -14.5553   20.6677 O   0  0  0  0  0  0
  -24.6292  -31.8584   23.2044 C   0  0  0  0  0  0
  -25.9133  -32.4764   23.8386 C   0  0  1  0  0  0
  -27.2015  -27.2768   20.1255 C   0  0  0  0  0  0
  -25.5954  -33.8581   24.2278 N   0  0  0  0  0  0
  -23.4229  -30.4867   21.5470 C   0  0  2  0  0  0
  -24.8672  -28.9440   20.1081 C   0  0  0  0  0  0
  -22.7484  -29.4610   22.4918 C   0  0  0  0  0  0
  -18.0293  -28.1376   22.8455 C   0  0  0  0  0  0
  -24.1485  -36.7279   23.2633 C   0  0  0  0  0  0
  -25.9724  -30.7696   21.3915 C   0  0  0  0  0  0
  -26.0385  -29.4007   20.7228 C   0  0  0  0  0  0
  -27.2116  -28.5806   20.7190 C   0  0  0  0  0  0
  -26.0128  -26.8945   19.4626 C   0  0  0  0  0  0
  -24.8598  -27.6982   19.4666 C   0  0  0  0  0  0
  -23.6398  -29.8344   20.1585 C   0  0  0  0  0  0
  -25.4100  -36.3079   24.0345 C   0  0  1  0  0  0
  -20.5885  -28.3680   23.1273 C   0  0  2  0  0  0
  -20.6772  -26.9395   22.5432 C   0  0  0  0  0  0
  -19.5776  -26.6359   21.5209 C   0  0  0  0  0  0
  -18.1940  -26.7926   22.1577 C   0  0  0  0  0  0
  -19.1542  -28.8840   23.2851 C   0  0  0  0  0  0
  -18.9479  -30.1440   23.8874 C   0  0  0  0  0  0
  -17.6493  -30.6577   24.0549 C   0  0  0  0  0  0
  -25.9079  -34.9458   23.5120 C   0  0  0  0  0  0
  -16.5375  -29.9073   23.6347 C   0  0  0  0  0  0
  -16.7279  -28.6502   23.0348 C   0  0  0  0  0  0
  -26.4478  -31.6613   25.0802 C   0  0  0  0  0  0
  -25.3687  -31.3880   26.1535 C   0  0  0  0  0  0
  -27.0290  -30.3001   24.6357 C   0  0  0  0  0  0
  -27.6062  -32.4361   25.7522 C   0  0  0  0  0  0
  -27.5611  -37.1733   24.8414 C   0  0  0  0  0  0
  -21.4203  -29.3028   22.3647 N   0  0  0  0  0  0
  -26.4250  -37.3798   23.9483 N   0  0  0  0  0  0
  -24.6925  -31.0576   22.1009 N   0  0  0  0  0  0
  -23.4203  -28.8155   23.2997 O   0  0  0  0  0  0
  -28.2867  -26.3773   20.1724 O   0  0  0  0  0  0
  -26.5636  -34.8917   22.4677 O   0  0  0  0  0  0
  -23.5448  -32.1393   23.7373 O   0  0  0  0  0  0
  -30.5156  -21.0189   19.2844 C   0  0  0  0  0  0
  -28.7999  -19.6256   20.3225 C   0  0  0  0  0  0
  -31.4402  -19.7796   19.3841 C   0  0  0  0  0  0
  -29.8242  -18.3937   20.4441 C   0  0  1  0  0  0
  -29.3463  -24.0421   18.5604 C   0  0  0  0  0  0
  -29.9502  -15.8628   22.5240 C   0  0  0  0  0  0
  -29.2525  -16.8908   20.3541 C   0  0  0  0  0  0
  -28.4712  -22.2221   20.2395 C   0  0  0  0  0  0
  -27.9967  -24.9322   20.4693 C   0  0  0  0  0  0
  -29.0010  -23.7498   20.0334 C   0  0  2  0  0  0
  -29.9369  -15.7306   21.0637 N   0  0  0  0  0  0
  -29.4375  -21.0169   20.3041 N   0  3  2  0  0  0
  -30.7168  -18.5486   19.3479 O   0  0  0  0  0  0
  -31.4744  -12.5415   19.1400 H   0  0  0  0  0  0
  -30.3882  -11.4259   19.9100 H   0  0  0  0  0  0
  -29.7651  -11.7233   17.4988 H   0  0  0  0  0  0
  -29.6298  -13.4503   17.7196 H   0  0  0  0  0  0
  -27.8837  -11.2740   18.9119 H   0  0  0  0  0  0
  -27.3622  -12.5189   17.8093 H   0  0  0  0  0  0
  -27.6662  -14.2447   19.5004 H   0  0  0  0  0  0
  -28.7214  -12.0802   21.3887 H   0  0  0  0  0  0
  -28.4246  -13.7370   21.8268 H   0  0  0  0  0  0
  -25.2808   -9.5638   22.4788 H   0  0  0  0  0  0
  -24.0005   -7.4619   22.7486 H   0  0  0  0  0  0
  -21.0864   -8.8823   19.8979 H   0  0  0  0  0  0
  -22.3769  -10.9705   19.6188 H   0  0  0  0  0  0
  -21.2002   -7.6166   23.9750 H   0  0  0  0  0  0
  -21.1458   -6.0528   25.9092 H   0  0  0  0  0  0
  -22.0607   -2.7633   23.2839 H   0  0  0  0  0  0
  -22.4105  -11.9864   22.4728 H   0  0  0  0  0  0
  -21.1160  -13.1319   22.2660 H   0  0  0  0  0  0
  -24.6678  -15.8475   20.5167 H   0  0  0  0  0  0
  -26.2811  -15.6213   20.0699 H   0  0  0  0  0  0
  -26.7193  -32.5357   23.1111 H   0  0  0  0  0  0
  -25.0144  -33.9767   25.0447 H   0  0  0  0  0  0
  -22.7158  -31.3084   21.4111 H   0  0  0  0  0  0
  -23.3812  -35.9537   23.3186 H   0  0  0  0  0  0
  -24.3602  -36.9018   22.2069 H   0  0  0  0  0  0
  -23.7159  -37.6412   23.6725 H   0  0  0  0  0  0
  -26.1323  -31.5355   20.6301 H   0  0  0  0  0  0
  -26.8401  -30.7924   22.0392 H   0  0  0  0  0  0
  -28.1057  -28.9251   21.2187 H   0  0  0  0  0  0
  -25.9428  -25.9595   18.9285 H   0  0  0  0  0  0
  -23.9671  -27.3506   18.9677 H   0  0  0  0  0  0
  -23.7640  -30.6201   19.4129 H   0  0  0  0  0  0
  -22.7532  -29.2818   19.8432 H   0  0  0  0  0  0
  -25.1245  -36.1904   25.0830 H   0  0  0  0  0  0
  -20.9956  -28.3277   24.1398 H   0  0  0  0  0  0
  -20.5647  -26.2301   23.3645 H   0  0  0  0  0  0
  -21.6652  -26.7404   22.1245 H   0  0  0  0  0  0
  -19.6961  -25.6262   21.1260 H   0  0  0  0  0  0
  -19.6769  -27.3140   20.6716 H   0  0  0  0  0  0
  -17.4233  -26.6704   21.3947 H   0  0  0  0  0  0
  -18.0298  -26.0040   22.8931 H   0  0  0  0  0  0
  -19.7970  -30.7230   24.2240 H   0  0  0  0  0  0
  -17.5062  -31.6257   24.5141 H   0  0  0  0  0  0
  -15.5382  -30.2965   23.7710 H   0  0  0  0  0  0
  -15.8672  -28.0821   22.7078 H   0  0  0  0  0  0
  -24.5899  -30.7132   25.7965 H   0  0  0  0  0  0
  -24.8816  -32.3083   26.4775 H   0  0  0  0  0  0
  -25.7985  -30.9268   27.0436 H   0  0  0  0  0  0
  -26.2884  -29.6789   24.1301 H   0  0  0  0  0  0
  -27.3815  -29.7257   25.4937 H   0  0  0  0  0  0
  -27.8841  -30.4234   23.9712 H   0  0  0  0  0  0
  -27.2696  -33.3686   26.2065 H   0  0  0  0  0  0
  -28.3841  -32.6882   25.0305 H   0  0  0  0  0  0
  -28.0737  -31.8512   26.5444 H   0  0  0  0  0  0
  -28.2475  -38.0172   24.7662 H   0  0  0  0  0  0
  -28.1259  -36.2735   24.5924 H   0  0  0  0  0  0
  -27.2412  -37.0984   25.8819 H   0  0  0  0  0  0
  -20.9390  -29.8770   21.6870 H   0  0  0  0  0  0
  -26.0137  -38.2845   24.1631 H   0  0  0  0  0  0
  -30.0764  -21.0684   18.2881 H   0  0  0  0  0  0
  -31.1328  -21.9070   19.4168 H   0  0  0  0  0  0
  -28.0837  -19.5775   21.1425 H   0  0  0  0  0  0
  -28.2178  -19.5048   19.4075 H   0  0  0  0  0  0
  -32.0601  -19.8142   20.2803 H   0  0  0  0  0  0
  -32.1241  -19.7747   18.5353 H   0  0  0  0  0  0
  -30.3644  -18.5054   21.3831 H   0  0  0  0  0  0
  -29.7274  -25.0592   18.4509 H   0  0  0  0  0  0
  -28.4623  -23.9593   17.9303 H   0  0  0  0  0  0
  -30.1043  -23.3855   18.1448 H   0  0  0  0  0  0
  -28.9360  -15.8320   22.9203 H   0  0  0  0  0  0
  -30.4074  -16.8010   22.8343 H   0  0  0  0  0  0
  -30.5154  -15.0636   23.0082 H   0  0  0  0  0  0
  -29.1245  -16.6219   19.3043 H   0  0  0  0  0  0
  -28.2379  -16.9115   20.7538 H   0  0  0  0  0  0
  -27.7239  -22.0120   19.4727 H   0  0  0  0  0  0
  -27.9180  -22.1975   21.1800 H   0  0  0  0  0  0
  -27.8690  -24.8760   21.5508 H   0  0  0  0  0  0
  -27.0247  -24.6393   20.0811 H   0  0  0  0  0  0
  -29.9046  -23.8631   20.6328 H   0  0  0  0  0  0
  -29.9071  -21.1067   21.1951 H   0  0  0  0  0  0
  1 25  1  0  0  0
  1 30  2  0  0  0
  1 81  1  0  0  0
  2  3  1  0  0  0
  2 25  1  0  0  0
  2 84  1  0  0  0
  2 85  1  0  0  0
  3  4  1  0  0  0
  3 86  1  0  0  0
  3 87  1  0  0  0
  4  5  1  0  0  0
  4 88  1  0  0  0
  4 89  1  0  0  0
  5  6  1  0  0  0
  5 26  1  0  0  0
  5 90  1  0  0  0
  6 25  1  0  0  0
  6 91  1  0  0  0
  6 92  1  0  0  0
  7  8  2  0  0  0
  7 26  1  0  0  0
  7 29  1  0  0  0
  8  9  1  0  0  0
  8 22  1  0  0  0
  9 10  1  0  0  0
  9 27  2  0  0  0
 10 11  2  0  0  0
 10 15  1  0  0  0
 11 12  1  0  0  0
 11 93  1  0  0  0
 12 13  2  0  0  0
 12 94  1  0  0  0
 13 14  1  0  0  0
 13 31  1  0  0  0
 14 15  2  0  0  0
 14 95  1  0  0  0
 15 96  1  0  0  0
 16 17  2  0  0  0
 16 21  1  0  0  0
 16 31  1  0  0  0
 17 18  1  0  0  0
 17 97  1  0  0  0
 18 19  2  0  0  0
 18 98  1  0  0  0
 19 20  1  0  0  0
 19 24  1  0  0  0
 20 21  2  0  0  0
 20 99  1  0  0  0
 21 23  1  0  0  0
 22 28  1  0  0  0
 22 32  2  0  0  0
 26 27  1  0  0  0
 28100  1  0  0  0
 28101  1  0  0  0
 29102  1  0  0  0
 29103  1  0  0  0
 33 34  1  0  0  0
 33 66  1  0  0  0
 33 70  2  0  0  0
 34 36  1  0  0  0
 34 59  1  0  0  0
 34104  1  0  0  0
 35 44  2  0  0  0
 35 45  1  0  0  0
 35 68  1  0  0  0
 36 56  1  0  0  0
 36105  1  0  0  0
 37 39  1  0  0  0
 37 47  1  0  0  0
 37 66  1  0  0  0
 37106  1  0  0  0
 38 43  2  0  0  0
 38 46  1  0  0  0
 38 47  1  0  0  0
 39 64  1  0  0  0
 39 67  2  0  0  0
 40 52  1  0  0  0
 40 53  2  0  0  0
 40 58  1  0  0  0
 41107  1  0  0  0
 41108  1  0  0  0
 41109  1  0  0  0
 41 48  1  0  0  0
 42 43  1  0  0  0
 42 66  1  0  0  0
 42110  1  0  0  0
 42111  1  0  0  0
 43 44  1  0  0  0
 44112  1  0  0  0
 45 46  2  0  0  0
 45113  1  0  0  0
 46114  1  0  0  0
 47115  1  0  0  0
 47116  1  0  0  0
 48 56  1  0  0  0
 48 65  1  0  0  0
 48117  1  0  0  0
 49 50  1  0  0  0
 49 53  1  0  0  0
 49 64  1  0  0  0
 49118  1  0  0  0
 50 51  1  0  0  0
 50119  1  0  0  0
 50120  1  0  0  0
 51 52  1  0  0  0
 51121  1  0  0  0
 51122  1  0  0  0
 52123  1  0  0  0
 52124  1  0  0  0
 53 54  1  0  0  0
 54 55  2  0  0  0
 54125  1  0  0  0
 55 57  1  0  0  0
 55126  1  0  0  0
 56 69  2  0  0  0
 57 58  2  0  0  0
 57127  1  0  0  0
 58128  1  0  0  0
 59 60  1  0  0  0
 59 61  1  0  0  0
 59 62  1  0  0  0
 60129  1  0  0  0
 60130  1  0  0  0
 60131  1  0  0  0
 61132  1  0  0  0
 61133  1  0  0  0
 61134  1  0  0  0
 62135  1  0  0  0
 62136  1  0  0  0
 62137  1  0  0  0
 63 65  1  0  0  0
 63138  1  0  0  0
 63139  1  0  0  0
 63140  1  0  0  0
 64141  1  0  0  0
 65142  1  0  0  0
 68 79  1  0  0  0
 71 73  1  0  0  0
 71 82  1  0  0  0
 71143  1  0  0  0
 71144  1  0  0  0
 72 74  1  0  0  0
 72 82  1  0  0  0
 72145  1  0  0  0
 72146  1  0  0  0
 73 83  1  0  0  0
 73147  1  0  0  0
 73148  1  0  0  0
 74 77  1  0  0  0
 74 83  1  0  0  0
 74149  1  0  0  0
 75150  1  0  0  0
 75151  1  0  0  0
 75152  1  0  0  0
 75 80  1  0  0  0
 76 81  1  0  0  0
 76153  1  0  0  0
 76154  1  0  0  0
 76155  1  0  0  0
 77 81  1  0  0  0
 77156  1  0  0  0
 77157  1  0  0  0
 78 80  1  0  0  0
 78158  1  0  0  0
 78159  1  0  0  0
 78 82  1  0  0  0
 79 80  1  0  0  0
 79160  1  0  0  0
 79161  1  0  0  0
 80162  1  0  0  0
 82163  1  0  0  0
M  CHG  1  82   1
M  ISO  4   1 100  68 101  79 101  81 100
M  END
> <chiral flag>
0

> <version>
0

> <s_m_source_file>
/data/baiqing/PycharmProjects/Reinvent-master-3.2/result/LINK_invent/BTK/process_docking_weight1_custom_sum_contain_oxygen_bond_distance_aromatic_linkinvent_7_9_3/rearranged_h_0110.sdf

> <i_m_source_file_index>
30

> <r_mmod_Potential_Energy-OPLS-2005>
210.152709960938

> <r_mmod_Stretch_Energy-OPLS-2005>
113.924621582031

> <r_mmod_Bend_Energy-OPLS-2005>
162.323440551758

> <r_mmod_Torsional_Energy-OPLS-2005>
356.885894775391

> <r_mmod_Improper_Torsional_Energy-OPLS-2005>
2.56611347198486

> <r_mmod_Van_der_Waal_Energy-OPLS-2005>
127.894187927246

> <r_mmod_Electrostatic_Energy-OPLS-2005>
-201.216766357422

> <r_mmod_Solvation_Energy-OPLS-2005>
-419.020141601562

> <b_mmod_Minimization_Converged-OPLS-2005>
0

> <r_mmod_RMS_Derivative-OPLS-2005>
3.26707434654236

$$$$
31
                    3D
 Structure written by MMmdl.
155163  0  0  1  0            999 V2000
  -30.5984  -14.9072   20.4309 C   0  0  0  0  0  0
  -30.4343  -12.5571   19.5032 C   0  0  0  0  0  0
  -29.5091  -12.5069   18.2660 C   0  0  0  0  0  0
  -28.0506  -12.2902   18.7047 C   0  0  0  0  0  0
  -27.6386  -13.2404   19.8604 C   0  0  2  0  0  0
  -28.6861  -13.2781   20.9935 C   0  0  0  0  0  0
  -25.2506  -13.8242   20.5732 C   0  0  0  0  0  0
  -24.1806  -13.0481   20.9236 C   0  0  0  0  0  0
  -24.6412  -11.6961   20.8834 C   0  0  0  0  0  0
  -23.9115  -10.4333   21.0450 C   0  0  0  0  0  0
  -24.3640   -9.4224   21.9219 C   0  0  0  0  0  0
  -23.6304   -8.2265   22.0770 C   0  0  0  0  0  0
  -22.4300   -8.0298   21.3537 C   0  0  0  0  0  0
  -21.9948   -9.0302   20.4649 C   0  0  0  0  0  0
  -22.7293  -10.2174   20.3085 C   0  0  0  0  0  0
  -21.6852   -6.0747   22.5273 C   0  0  0  0  0  0
  -21.4014   -6.5647   23.8210 C   0  0  0  0  0  0
  -21.3661   -5.6805   24.9170 C   0  0  0  0  0  0
  -21.6037   -4.3070   24.7225 C   0  0  0  0  0  0
  -21.8815   -3.8163   23.4347 C   0  0  0  0  0  0
  -21.9195   -4.6976   22.3397 C   0  0  0  0  0  0
  -22.7832  -13.5241   21.1885 C   0  0  0  0  0  0
  -22.1659   -4.2160   21.0986 F   0  0  0  0  0  0
  -21.5633   -3.4558   25.7750 F   0  0  0  0  0  0
  -29.9666  -13.6678   20.3817 N   0  0  0  0  0  0
  -26.2949  -12.9462   20.3438 N   0  0  0  0  0  0
  -25.9353  -11.6590   20.5924 N   0  0  0  0  0  0
  -22.0489  -12.8208   22.0412 N   0  0  0  0  0  0
  -25.4237  -15.1946   20.4048 N   0  0  0  0  0  0
  -31.7973  -14.9513   20.1383 O   0  0  0  0  0  0
  -21.6642   -6.8888   21.4238 O   0  0  0  0  0  0
  -22.3536  -14.5570   20.6764 O   0  0  0  0  0  0
  -24.6417  -31.8416   23.1895 C   0  0  0  0  0  0
  -25.9184  -32.4705   23.8269 C   0  0  1  0  0  0
  -27.2275  -27.1608   20.1465 C   0  0  0  0  0  0
  -25.5914  -33.8510   24.2140 N   0  0  0  0  0  0
  -23.4437  -30.4614   21.5416 C   0  0  2  0  0  0
  -24.8950  -28.8945   20.1181 C   0  0  0  0  0  0
  -22.7531  -29.4502   22.4903 C   0  0  0  0  0  0
  -18.0283  -28.1367   22.8514 C   0  0  0  0  0  0
  -24.1452  -36.7256   23.2664 C   0  0  0  0  0  0
  -26.0025  -30.7204   21.3887 C   0  0  0  0  0  0
  -26.0738  -29.3400   20.7236 C   0  0  0  0  0  0
  -27.2440  -28.4937   20.7150 C   0  0  0  0  0  0
  -26.0151  -26.8014   19.5152 C   0  0  0  0  0  0
  -24.8726  -27.6319   19.5061 C   0  0  0  0  0  0
  -23.6685  -29.7942   20.1614 C   0  0  0  0  0  0
  -25.4097  -36.3043   24.0324 C   0  0  1  0  0  0
  -20.5904  -28.3647   23.1294 C   0  0  2  0  0  0
  -20.6780  -26.9350   22.5456 C   0  0  0  0  0  0
  -19.5737  -26.6363   21.5245 C   0  0  0  0  0  0
  -18.1895  -26.7930   22.1624 C   0  0  0  0  0  0
  -19.1564  -28.8836   23.2884 C   0  0  0  0  0  0
  -18.9486  -30.1445   23.8861 C   0  0  0  0  0  0
  -17.6493  -30.6578   24.0576 C   0  0  0  0  0  0
  -25.9071  -34.9425   23.5056 C   0  0  0  0  0  0
  -16.5375  -29.9078   23.6393 C   0  0  0  0  0  0
  -16.7291  -28.6508   23.0394 C   0  0  0  0  0  0
  -26.4457  -31.6645   25.0778 C   0  0  0  0  0  0
  -25.3624  -31.3844   26.1480 C   0  0  0  0  0  0
  -27.0368  -30.3061   24.6450 C   0  0  0  0  0  0
  -27.5948  -32.4491   25.7535 C   0  0  0  0  0  0
  -27.5577  -37.1734   24.8446 C   0  0  0  0  0  0
  -21.4254  -29.2964   22.3647 N   0  0  0  0  0  0
  -26.4249  -37.3783   23.9463 N   0  0  0  0  0  0
  -24.7165  -31.0283   22.0951 N   0  0  0  0  0  0
  -23.4180  -28.8073   23.3080 O   0  0  0  0  0  0
  -28.2951  -26.1998   20.2137 O   0  0  0  0  0  0
  -26.5708  -34.8925   22.4668 O   0  0  0  0  0  0
  -23.5546  -32.1342   23.7113 O   0  0  0  0  0  0
  -28.6573  -21.8281   20.2951 C   0  0  0  0  0  0
  -30.3738  -23.5074   19.5392 C   0  0  0  0  0  0
  -31.4239  -22.4295   19.9359 C   0  0  0  0  0  0
  -29.0903  -23.4099   20.3870 C   0  0  1  0  0  0
  -29.7687  -20.5956   20.5005 C   0  0  1  0  0  0
  -28.0277  -24.6753   20.1001 C   0  0  0  0  0  0
  -29.3842  -18.9622   20.2365 C   0  0  0  0  0  0
  -30.3259  -17.6244   20.6501 C   0  0  0  0  0  0
  -29.8706  -16.1117   20.6062 N   0  0  0  0  0  0
  -30.9501  -21.0304   19.7003 N   0  3  0  0  0  0
  -27.4731  -21.5739   20.0581 O   0  0  0  0  0  0
  -31.4732  -12.6821   19.1898 H   0  0  0  0  0  0
  -30.4024  -11.6090   20.0426 H   0  0  0  0  0  0
  -29.8158  -11.7024   17.5969 H   0  0  0  0  0  0
  -29.5881  -13.4340   17.6951 H   0  0  0  0  0  0
  -27.9654  -11.2563   19.0361 H   0  0  0  0  0  0
  -27.3679  -12.3938   17.8606 H   0  0  0  0  0  0
  -27.6065  -14.2376   19.4236 H   0  0  0  0  0  0
  -28.7704  -12.3150   21.4952 H   0  0  0  0  0  0
  -28.3985  -13.9945   21.7629 H   0  0  0  0  0  0
  -25.2778   -9.5682   22.4816 H   0  0  0  0  0  0
  -24.0013   -7.4637   22.7480 H   0  0  0  0  0  0
  -21.0902   -8.8826   19.8928 H   0  0  0  0  0  0
  -22.3771  -10.9725   19.6207 H   0  0  0  0  0  0
  -21.2003   -7.6151   23.9704 H   0  0  0  0  0  0
  -21.1477   -6.0544   25.9066 H   0  0  0  0  0  0
  -22.0588   -2.7633   23.2856 H   0  0  0  0  0  0
  -22.4098  -11.9813   22.4698 H   0  0  0  0  0  0
  -21.1136  -13.1239   22.2741 H   0  0  0  0  0  0
  -24.6543  -15.8496   20.4783 H   0  0  0  0  0  0
  -26.2700  -15.6175   20.0471 H   0  0  0  0  0  0
  -26.7252  -32.5290   23.0992 H   0  0  0  0  0  0
  -24.9910  -33.9585   25.0187 H   0  0  0  0  0  0
  -22.7495  -31.2913   21.3878 H   0  0  0  0  0  0
  -23.3781  -35.9511   23.3229 H   0  0  0  0  0  0
  -24.3541  -36.9029   22.2103 H   0  0  0  0  0  0
  -23.7111  -37.6384   23.6779 H   0  0  0  0  0  0
  -26.1786  -31.4759   20.6214 H   0  0  0  0  0  0
  -26.8579  -30.7498   22.0518 H   0  0  0  0  0  0
  -28.1452  -28.8362   21.2042 H   0  0  0  0  0  0
  -25.9135  -25.8338   19.0501 H   0  0  0  0  0  0
  -23.9633  -27.2697   19.0456 H   0  0  0  0  0  0
  -23.7996  -30.5697   19.4044 H   0  0  0  0  0  0
  -22.7837  -29.2369   19.8553 H   0  0  0  0  0  0
  -25.1241  -36.1867   25.0808 H   0  0  0  0  0  0
  -20.9979  -28.3251   24.1434 H   0  0  0  0  0  0
  -20.5682  -26.2215   23.3661 H   0  0  0  0  0  0
  -21.6619  -26.7382   22.1203 H   0  0  0  0  0  0
  -19.6883  -25.6291   21.1256 H   0  0  0  0  0  0
  -19.6734  -27.3188   20.6792 H   0  0  0  0  0  0
  -17.4207  -26.6785   21.3978 H   0  0  0  0  0  0
  -18.0223  -26.0008   22.8933 H   0  0  0  0  0  0
  -19.7953  -30.7279   24.2187 H   0  0  0  0  0  0
  -17.5050  -31.6256   24.5169 H   0  0  0  0  0  0
  -15.5373  -30.2955   23.7754 H   0  0  0  0  0  0
  -15.8685  -28.0835   22.7108 H   0  0  0  0  0  0
  -24.5828  -30.7155   25.7815 H   0  0  0  0  0  0
  -24.8774  -32.3020   26.4843 H   0  0  0  0  0  0
  -25.7903  -30.9105   27.0323 H   0  0  0  0  0  0
  -26.3054  -29.6775   24.1395 H   0  0  0  0  0  0
  -27.3886  -29.7401   25.5077 H   0  0  0  0  0  0
  -27.8938  -30.4295   23.9839 H   0  0  0  0  0  0
  -27.2551  -33.3927   26.1826 H   0  0  0  0  0  0
  -28.3853  -32.6887   25.0407 H   0  0  0  0  0  0
  -28.0475  -31.8839   26.5693 H   0  0  0  0  0  0
  -28.2481  -38.0139   24.7693 H   0  0  0  0  0  0
  -28.1190  -36.2709   24.6010 H   0  0  0  0  0  0
  -27.2353  -37.1078   25.8854 H   0  0  0  0  0  0
  -20.9476  -29.8761   21.6892 H   0  0  0  0  0  0
  -26.0127  -38.2819   24.1648 H   0  0  0  0  0  0
  -30.1319  -23.4348   18.4756 H   0  0  0  0  0  0
  -30.8156  -24.4964   19.6820 H   0  0  0  0  0  0
  -31.7001  -22.5578   20.9849 H   0  0  0  0  0  0
  -32.3448  -22.5846   19.3672 H   0  0  0  0  0  0
  -29.3970  -23.5471   21.4230 H   0  0  0  0  0  0
  -30.0782  -20.6541   21.5436 H   0  0  0  0  0  0
  -27.1861  -24.4903   20.7673 H   0  0  0  0  0  0
  -27.6343  -24.4974   19.1028 H   0  0  0  0  0  0
  -29.1846  -18.8694   19.1683 H   0  0  0  0  0  0
  -28.4125  -18.8009   20.6988 H   0  0  0  0  0  0
  -30.6593  -17.7817   21.6772 H   0  0  0  0  0  0
  -31.2474  -17.6819   20.0700 H   0  0  0  0  0  0
  -28.8946  -15.9616   20.8124 H   0  0  0  0  0  0
  -31.7240  -20.4213   19.9147 H   0  0  0  0  0  0
  -30.7404  -20.9219   18.7212 H   0  0  0  0  0  0
  1 25  1  0  0  0
  1 30  2  0  0  0
  1 79  1  0  0  0
  2  3  1  0  0  0
  2 25  1  0  0  0
  2 82  1  0  0  0
  2 83  1  0  0  0
  3  4  1  0  0  0
  3 84  1  0  0  0
  3 85  1  0  0  0
  4  5  1  0  0  0
  4 86  1  0  0  0
  4 87  1  0  0  0
  5  6  1  0  0  0
  5 26  1  0  0  0
  5 88  1  0  0  0
  6 25  1  0  0  0
  6 89  1  0  0  0
  6 90  1  0  0  0
  7  8  2  0  0  0
  7 26  1  0  0  0
  7 29  1  0  0  0
  8  9  1  0  0  0
  8 22  1  0  0  0
  9 10  1  0  0  0
  9 27  2  0  0  0
 10 11  2  0  0  0
 10 15  1  0  0  0
 11 12  1  0  0  0
 11 91  1  0  0  0
 12 13  2  0  0  0
 12 92  1  0  0  0
 13 14  1  0  0  0
 13 31  1  0  0  0
 14 15  2  0  0  0
 14 93  1  0  0  0
 15 94  1  0  0  0
 16 17  2  0  0  0
 16 21  1  0  0  0
 16 31  1  0  0  0
 17 18  1  0  0  0
 17 95  1  0  0  0
 18 19  2  0  0  0
 18 96  1  0  0  0
 19 20  1  0  0  0
 19 24  1  0  0  0
 20 21  2  0  0  0
 20 97  1  0  0  0
 21 23  1  0  0  0
 22 28  1  0  0  0
 22 32  2  0  0  0
 26 27  1  0  0  0
 28 98  1  0  0  0
 28 99  1  0  0  0
 29100  1  0  0  0
 29101  1  0  0  0
 33 34  1  0  0  0
 33 66  1  0  0  0
 33 70  2  0  0  0
 34 36  1  0  0  0
 34 59  1  0  0  0
 34102  1  0  0  0
 35 44  2  0  0  0
 35 45  1  0  0  0
 35 68  1  0  0  0
 36 56  1  0  0  0
 36103  1  0  0  0
 37 39  1  0  0  0
 37 47  1  0  0  0
 37 66  1  0  0  0
 37104  1  0  0  0
 38 43  2  0  0  0
 38 46  1  0  0  0
 38 47  1  0  0  0
 39 64  1  0  0  0
 39 67  2  0  0  0
 40 52  1  0  0  0
 40 53  2  0  0  0
 40 58  1  0  0  0
 41105  1  0  0  0
 41106  1  0  0  0
 41107  1  0  0  0
 41 48  1  0  0  0
 42 43  1  0  0  0
 42 66  1  0  0  0
 42108  1  0  0  0
 42109  1  0  0  0
 43 44  1  0  0  0
 44110  1  0  0  0
 45 46  2  0  0  0
 45111  1  0  0  0
 46112  1  0  0  0
 47113  1  0  0  0
 47114  1  0  0  0
 48 56  1  0  0  0
 48 65  1  0  0  0
 48115  1  0  0  0
 49 50  1  0  0  0
 49 53  1  0  0  0
 49 64  1  0  0  0
 49116  1  0  0  0
 50 51  1  0  0  0
 50117  1  0  0  0
 50118  1  0  0  0
 51 52  1  0  0  0
 51119  1  0  0  0
 51120  1  0  0  0
 52121  1  0  0  0
 52122  1  0  0  0
 53 54  1  0  0  0
 54 55  2  0  0  0
 54123  1  0  0  0
 55 57  1  0  0  0
 55124  1  0  0  0
 56 69  2  0  0  0
 57 58  2  0  0  0
 57125  1  0  0  0
 58126  1  0  0  0
 59 60  1  0  0  0
 59 61  1  0  0  0
 59 62  1  0  0  0
 60127  1  0  0  0
 60128  1  0  0  0
 60129  1  0  0  0
 61130  1  0  0  0
 61131  1  0  0  0
 61132  1  0  0  0
 62133  1  0  0  0
 62134  1  0  0  0
 62135  1  0  0  0
 63 65  1  0  0  0
 63136  1  0  0  0
 63137  1  0  0  0
 63138  1  0  0  0
 64139  1  0  0  0
 65140  1  0  0  0
 68 76  1  0  0  0
 71 74  1  0  0  0
 71 75  1  0  0  0
 71 81  2  0  0  0
 72 73  1  0  0  0
 72 74  1  0  0  0
 72141  1  0  0  0
 72142  1  0  0  0
 73 80  1  0  0  0
 73143  1  0  0  0
 73144  1  0  0  0
 74 76  1  0  0  0
 74145  1  0  0  0
 75 77  1  0  0  0
 75 80  1  0  0  0
 75146  1  0  0  0
 76147  1  0  0  0
 76148  1  0  0  0
 77 78  1  0  0  0
 77149  1  0  0  0
 77150  1  0  0  0
 78 79  1  0  0  0
 78151  1  0  0  0
 78152  1  0  0  0
 79153  1  0  0  0
 80154  1  0  0  0
 80155  1  0  0  0
M  CHG  1  80   1
M  ISO  4   1 100  68 101  76 101  79 100
M  END
> <chiral flag>
0

> <version>
0

> <s_m_source_file>
/data/baiqing/PycharmProjects/Reinvent-master-3.2/result/LINK_invent/BTK/process_docking_weight1_custom_sum_contain_oxygen_bond_distance_aromatic_linkinvent_7_9_3/rearranged_h_0110.sdf

> <i_m_source_file_index>
31

> <r_mmod_Potential_Energy-OPLS-2005>
179.218505859375

> <r_mmod_Stretch_Energy-OPLS-2005>
254.763122558594

> <r_mmod_Bend_Energy-OPLS-2005>
237.836700439453

> <r_mmod_Torsional_Energy-OPLS-2005>
215.606887817383

> <r_mmod_Improper_Torsional_Energy-OPLS-2005>
4.33458089828491

> <r_mmod_Van_der_Waal_Energy-OPLS-2005>
121.339767456055

> <r_mmod_Electrostatic_Energy-OPLS-2005>
-302.086700439453

> <r_mmod_Solvation_Energy-OPLS-2005>
-520.280456542969

> <b_mmod_Minimization_Converged-OPLS-2005>
0

> <r_mmod_RMS_Derivative-OPLS-2005>
5.85838556289673

$$$$
32
                    3D
 Structure written by MMmdl.
157165  0  0  1  0            999 V2000
  -30.5822  -14.7440   20.4179 C   0  0  0  0  0  0
  -30.4251  -12.4424   19.4685 C   0  0  0  0  0  0
  -29.5018  -12.4926   18.2316 C   0  0  0  0  0  0
  -28.0278  -12.3197   18.6487 C   0  0  0  0  0  0
  -27.6357  -13.2248   19.8468 C   0  0  2  0  0  0
  -28.6810  -13.1612   20.9804 C   0  0  0  0  0  0
  -25.2481  -13.8188   20.5693 C   0  0  0  0  0  0
  -24.1779  -13.0445   20.9214 C   0  0  0  0  0  0
  -24.6365  -11.6914   20.8762 C   0  0  0  0  0  0
  -23.9053  -10.4291   21.0416 C   0  0  0  0  0  0
  -24.3608   -9.4208   21.9193 C   0  0  0  0  0  0
  -23.6293   -8.2245   22.0758 C   0  0  0  0  0  0
  -22.4276   -8.0277   21.3548 C   0  0  0  0  0  0
  -21.9906   -9.0249   20.4650 C   0  0  0  0  0  0
  -22.7229  -10.2131   20.3062 C   0  0  0  0  0  0
  -21.6855   -6.0732   22.5276 C   0  0  0  0  0  0
  -21.4022   -6.5639   23.8211 C   0  0  0  0  0  0
  -21.3659   -5.6792   24.9175 C   0  0  0  0  0  0
  -21.6042   -4.3055   24.7228 C   0  0  0  0  0  0
  -21.8819   -3.8144   23.4351 C   0  0  0  0  0  0
  -21.9196   -4.6960   22.3403 C   0  0  0  0  0  0
  -22.7804  -13.5216   21.1887 C   0  0  0  0  0  0
  -22.1660   -4.2144   21.0982 F   0  0  0  0  0  0
  -21.5627   -3.4537   25.7744 F   0  0  0  0  0  0
  -29.9759  -13.5094   20.3895 N   0  0  0  0  0  0
  -26.2893  -12.9377   20.3272 N   0  0  0  0  0  0
  -25.9287  -11.6528   20.5772 N   0  0  0  0  0  0
  -22.0463  -12.8195   22.0437 N   0  0  0  0  0  0
  -25.4161  -15.1920   20.4080 N   0  0  0  0  0  0
  -31.7821  -14.8406   20.1493 O   0  0  0  0  0  0
  -21.6644   -6.8872   21.4238 O   0  0  0  0  0  0
  -22.3486  -14.5525   20.6737 O   0  0  0  0  0  0
  -24.6277  -31.8589   23.1951 C   0  0  0  0  0  0
  -25.9114  -32.4766   23.8284 C   0  0  1  0  0  0
  -27.2061  -27.2560   20.1330 C   0  0  0  0  0  0
  -25.5910  -33.8568   24.2217 N   0  0  0  0  0  0
  -23.4194  -30.4797   21.5433 C   0  0  2  0  0  0
  -24.8570  -28.9153   20.1132 C   0  0  0  0  0  0
  -22.7479  -29.4619   22.4961 C   0  0  0  0  0  0
  -18.0293  -28.1364   22.8488 C   0  0  0  0  0  0
  -24.1471  -36.7282   23.2644 C   0  0  0  0  0  0
  -25.9628  -30.7700   21.3658 C   0  0  0  0  0  0
  -26.0311  -29.3899   20.7119 C   0  0  0  0  0  0
  -27.2026  -28.5731   20.7070 C   0  0  0  0  0  0
  -25.9942  -26.8241   19.5539 C   0  0  0  0  0  0
  -24.8427  -27.6382   19.5278 C   0  0  0  0  0  0
  -23.6321  -29.8093   20.1594 C   0  0  0  0  0  0
  -25.4116  -36.3086   24.0311 C   0  0  1  0  0  0
  -20.5895  -28.3669   23.1292 C   0  0  2  0  0  0
  -20.6793  -26.9386   22.5414 C   0  0  0  0  0  0
  -19.5763  -26.6369   21.5221 C   0  0  0  0  0  0
  -18.1941  -26.7900   22.1625 C   0  0  0  0  0  0
  -19.1545  -28.8841   23.2875 C   0  0  0  0  0  0
  -18.9469  -30.1452   23.8866 C   0  0  0  0  0  0
  -17.6474  -30.6576   24.0559 C   0  0  0  0  0  0
  -25.9054  -34.9455   23.5077 C   0  0  0  0  0  0
  -16.5365  -29.9077   23.6320 C   0  0  0  0  0  0
  -16.7284  -28.6496   23.0338 C   0  0  0  0  0  0
  -26.4459  -31.6584   25.0672 C   0  0  0  0  0  0
  -25.3649  -31.3710   26.1363 C   0  0  0  0  0  0
  -27.0301  -30.3028   24.6100 C   0  0  0  0  0  0
  -27.6043  -32.4321   25.7402 C   0  0  0  0  0  0
  -27.5565  -37.1803   24.8472 C   0  0  0  0  0  0
  -21.4201  -29.3025   22.3691 N   0  0  0  0  0  0
  -26.4295  -37.3790   23.9401 N   0  0  0  0  0  0
  -24.6909  -31.0543   22.0913 N   0  0  0  0  0  0
  -23.4204  -28.8193   23.3081 O   0  0  0  0  0  0
  -28.3500  -26.4302   20.1995 O   0  0  0  0  0  0
  -26.5640  -34.8931   22.4656 O   0  0  0  0  0  0
  -23.5440  -32.1428   23.7264 O   0  0  0  0  0  0
  -27.6027  -19.9267   22.8328 C   0  0  0  0  0  0
  -27.7751  -21.1656   22.1720 C   0  0  0  0  0  0
  -28.1151  -18.9613   22.0272 C   0  0  0  0  0  0
  -28.3965  -20.9747   20.9630 C   0  0  0  0  0  0
  -28.3407  -24.9995   18.1320 C   0  0  0  0  0  0
  -28.6756  -22.1938   20.0012 C   0  0  0  0  0  0
  -28.1046  -23.6754   20.4311 C   0  0  0  0  0  0
  -29.3051  -18.5887   19.8937 C   0  0  0  0  0  0
  -30.2278  -17.3469   20.4313 C   0  0  0  0  0  0
  -28.5328  -25.0346   19.6591 C   0  0  2  0  0  0
  -28.6703  -19.5361   20.8926 N   0  0  0  0  0  0
  -29.7851  -15.8792   20.5233 N   0  0  0  0  0  0
  -31.4672  -12.5637   19.1694 H   0  0  0  0  0  0
  -30.3669  -11.4670   19.9563 H   0  0  0  0  0  0
  -29.7815  -11.7181   17.5154 H   0  0  0  0  0  0
  -29.6272  -13.4471   17.7190 H   0  0  0  0  0  0
  -27.8818  -11.2719   18.9151 H   0  0  0  0  0  0
  -27.3688  -12.5095   17.8006 H   0  0  0  0  0  0
  -27.6282  -14.2446   19.4604 H   0  0  0  0  0  0
  -28.7166  -12.1651   21.4255 H   0  0  0  0  0  0
  -28.4224  -13.8486   21.7884 H   0  0  0  0  0  0
  -25.2752   -9.5694   22.4771 H   0  0  0  0  0  0
  -24.0004   -7.4635   22.7475 H   0  0  0  0  0  0
  -21.0840   -8.8769   19.8952 H   0  0  0  0  0  0
  -22.3689  -10.9674   19.6173 H   0  0  0  0  0  0
  -21.2019   -7.6146   23.9714 H   0  0  0  0  0  0
  -21.1477   -6.0524   25.9077 H   0  0  0  0  0  0
  -22.0599   -2.7608   23.2856 H   0  0  0  0  0  0
  -22.4086  -11.9831   22.4782 H   0  0  0  0  0  0
  -21.1094  -13.1215   22.2693 H   0  0  0  0  0  0
  -24.6433  -15.8395   20.5173 H   0  0  0  0  0  0
  -26.2519  -15.6337   20.0495 H   0  0  0  0  0  0
  -26.7166  -32.5410   23.1019 H   0  0  0  0  0  0
  -25.0068  -33.9711   25.0360 H   0  0  0  0  0  0
  -22.7118  -31.3002   21.4013 H   0  0  0  0  0  0
  -23.3749  -35.9600   23.3354 H   0  0  0  0  0  0
  -24.3529  -36.8868   22.2043 H   0  0  0  0  0  0
  -23.7207  -37.6484   23.6657 H   0  0  0  0  0  0
  -26.0865  -31.5234   20.5862 H   0  0  0  0  0  0
  -26.8454  -30.8267   21.9913 H   0  0  0  0  0  0
  -28.1028  -28.9309   21.1880 H   0  0  0  0  0  0
  -25.8936  -25.8224   19.1684 H   0  0  0  0  0  0
  -23.9304  -27.2531   19.0912 H   0  0  0  0  0  0
  -23.7534  -30.5865   19.4019 H   0  0  0  0  0  0
  -22.7436  -29.2486   19.8605 H   0  0  0  0  0  0
  -25.1306  -36.1936   25.0803 H   0  0  0  0  0  0
  -20.9957  -28.3228   24.1428 H   0  0  0  0  0  0
  -20.5710  -26.2262   23.3611 H   0  0  0  0  0  0
  -21.6662  -26.7430   22.1187 H   0  0  0  0  0  0
  -19.6917  -25.6288   21.1239 H   0  0  0  0  0  0
  -19.6698  -27.3194   20.6762 H   0  0  0  0  0  0
  -17.4215  -26.6665   21.4021 H   0  0  0  0  0  0
  -18.0316  -26.0025   22.8995 H   0  0  0  0  0  0
  -19.7951  -30.7288   24.2180 H   0  0  0  0  0  0
  -17.5031  -31.6239   24.5189 H   0  0  0  0  0  0
  -15.5367  -30.2983   23.7655 H   0  0  0  0  0  0
  -15.8675  -28.0838   22.7027 H   0  0  0  0  0  0
  -24.5867  -30.7021   25.7664 H   0  0  0  0  0  0
  -24.8762  -32.2850   26.4747 H   0  0  0  0  0  0
  -25.7910  -30.8915   27.0175 H   0  0  0  0  0  0
  -26.2862  -29.6789   24.1138 H   0  0  0  0  0  0
  -27.4049  -29.7273   25.4571 H   0  0  0  0  0  0
  -27.8696  -30.4368   23.9274 H   0  0  0  0  0  0
  -27.2709  -33.3686   26.1887 H   0  0  0  0  0  0
  -28.3845  -32.6766   25.0178 H   0  0  0  0  0  0
  -28.0691  -31.8483   26.5354 H   0  0  0  0  0  0
  -28.2626  -38.0061   24.7510 H   0  0  0  0  0  0
  -28.1011  -36.2594   24.6340 H   0  0  0  0  0  0
  -27.2262  -37.1512   25.8869 H   0  0  0  0  0  0
  -20.9383  -29.8740   21.6892 H   0  0  0  0  0  0
  -26.0173  -38.2858   24.1439 H   0  0  0  0  0  0
  -27.1386  -19.7521   23.7947 H   0  0  0  0  0  0
  -27.4551  -22.1215   22.5617 H   0  0  0  0  0  0
  -28.1418  -17.8897   22.1796 H   0  0  0  0  0  0
  -28.4776  -23.9930   17.7409 H   0  0  0  0  0  0
  -29.0841  -25.6373   17.6519 H   0  0  0  0  0  0
  -27.3686  -25.3384   17.7904 H   0  0  0  0  0  0
  -28.2864  -21.9512   19.0113 H   0  0  0  0  0  0
  -29.7530  -22.2767   19.8621 H   0  0  0  0  0  0
  -28.4220  -23.8350   21.4635 H   0  0  0  0  0  0
  -27.0160  -23.6275   20.4692 H   0  0  0  0  0  0
  -28.5286  -18.2172   19.2230 H   0  0  0  0  0  0
  -29.9425  -19.2097   19.2638 H   0  0  0  0  0  0
  -30.6793  -17.6253   21.3830 H   0  0  0  0  0  0
  -31.0674  -17.3261   19.7360 H   0  0  0  0  0  0
  -29.6154  -24.9594   19.7592 H   0  0  0  0  0  0
  -28.8051  -15.7113   20.6941 H   0  0  0  0  0  0
  1 25  1  0  0  0
  1 30  2  0  0  0
  1 82  1  0  0  0
  2  3  1  0  0  0
  2 25  1  0  0  0
  2 83  1  0  0  0
  2 84  1  0  0  0
  3  4  1  0  0  0
  3 85  1  0  0  0
  3 86  1  0  0  0
  4  5  1  0  0  0
  4 87  1  0  0  0
  4 88  1  0  0  0
  5  6  1  0  0  0
  5 26  1  0  0  0
  5 89  1  0  0  0
  6 25  1  0  0  0
  6 90  1  0  0  0
  6 91  1  0  0  0
  7  8  2  0  0  0
  7 26  1  0  0  0
  7 29  1  0  0  0
  8  9  1  0  0  0
  8 22  1  0  0  0
  9 10  1  0  0  0
  9 27  2  0  0  0
 10 11  2  0  0  0
 10 15  1  0  0  0
 11 12  1  0  0  0
 11 92  1  0  0  0
 12 13  2  0  0  0
 12 93  1  0  0  0
 13 14  1  0  0  0
 13 31  1  0  0  0
 14 15  2  0  0  0
 14 94  1  0  0  0
 15 95  1  0  0  0
 16 17  2  0  0  0
 16 21  1  0  0  0
 16 31  1  0  0  0
 17 18  1  0  0  0
 17 96  1  0  0  0
 18 19  2  0  0  0
 18 97  1  0  0  0
 19 20  1  0  0  0
 19 24  1  0  0  0
 20 21  2  0  0  0
 20 98  1  0  0  0
 21 23  1  0  0  0
 22 28  1  0  0  0
 22 32  2  0  0  0
 26 27  1  0  0  0
 28 99  1  0  0  0
 28100  1  0  0  0
 29101  1  0  0  0
 29102  1  0  0  0
 33 34  1  0  0  0
 33 66  1  0  0  0
 33 70  2  0  0  0
 34 36  1  0  0  0
 34 59  1  0  0  0
 34103  1  0  0  0
 35 44  2  0  0  0
 35 45  1  0  0  0
 35 68  1  0  0  0
 36 56  1  0  0  0
 36104  1  0  0  0
 37 39  1  0  0  0
 37 47  1  0  0  0
 37 66  1  0  0  0
 37105  1  0  0  0
 38 43  2  0  0  0
 38 46  1  0  0  0
 38 47  1  0  0  0
 39 64  1  0  0  0
 39 67  2  0  0  0
 40 52  1  0  0  0
 40 53  2  0  0  0
 40 58  1  0  0  0
 41106  1  0  0  0
 41107  1  0  0  0
 41108  1  0  0  0
 41 48  1  0  0  0
 42 43  1  0  0  0
 42 66  1  0  0  0
 42109  1  0  0  0
 42110  1  0  0  0
 43 44  1  0  0  0
 44111  1  0  0  0
 45 46  2  0  0  0
 45112  1  0  0  0
 46113  1  0  0  0
 47114  1  0  0  0
 47115  1  0  0  0
 48 56  1  0  0  0
 48 65  1  0  0  0
 48116  1  0  0  0
 49 50  1  0  0  0
 49 53  1  0  0  0
 49 64  1  0  0  0
 49117  1  0  0  0
 50 51  1  0  0  0
 50118  1  0  0  0
 50119  1  0  0  0
 51 52  1  0  0  0
 51120  1  0  0  0
 51121  1  0  0  0
 52122  1  0  0  0
 52123  1  0  0  0
 53 54  1  0  0  0
 54 55  2  0  0  0
 54124  1  0  0  0
 55 57  1  0  0  0
 55125  1  0  0  0
 56 69  2  0  0  0
 57 58  2  0  0  0
 57126  1  0  0  0
 58127  1  0  0  0
 59 60  1  0  0  0
 59 61  1  0  0  0
 59 62  1  0  0  0
 60128  1  0  0  0
 60129  1  0  0  0
 60130  1  0  0  0
 61131  1  0  0  0
 61132  1  0  0  0
 61133  1  0  0  0
 62134  1  0  0  0
 62135  1  0  0  0
 62136  1  0  0  0
 63 65  1  0  0  0
 63137  1  0  0  0
 63138  1  0  0  0
 63139  1  0  0  0
 64140  1  0  0  0
 65141  1  0  0  0
 68 80  1  0  0  0
 71 72  1  0  0  0
 71 73  2  0  0  0
 71142  1  0  0  0
 72 74  2  0  0  0
 72143  1  0  0  0
 73 81  1  0  0  0
 73144  1  0  0  0
 74 76  1  0  0  0
 74 81  1  0  0  0
 75145  1  0  0  0
 75146  1  0  0  0
 75147  1  0  0  0
 75 80  1  0  0  0
 76 77  1  0  0  0
 76148  1  0  0  0
 76149  1  0  0  0
 77 80  1  0  0  0
 77150  1  0  0  0
 77151  1  0  0  0
 78 79  1  0  0  0
 78 81  1  0  0  0
 78152  1  0  0  0
 78153  1  0  0  0
 79 82  1  0  0  0
 79154  1  0  0  0
 79155  1  0  0  0
 80156  1  0  0  0
 82157  1  0  0  0
M  ISO  4   1 100  68 101  80 101  82 100
M  END
> <chiral flag>
0

> <version>
0

> <s_m_source_file>
/data/baiqing/PycharmProjects/Reinvent-master-3.2/result/LINK_invent/BTK/process_docking_weight1_custom_sum_contain_oxygen_bond_distance_aromatic_linkinvent_7_9_3/rearranged_h_0110.sdf

> <i_m_source_file_index>
32

> <r_mmod_Potential_Energy-OPLS-2005>
194.749328613281

> <r_mmod_Stretch_Energy-OPLS-2005>
139.441528320312

> <r_mmod_Bend_Energy-OPLS-2005>
238.021911621094

> <r_mmod_Torsional_Energy-OPLS-2005>
215.309982299805

> <r_mmod_Improper_Torsional_Energy-OPLS-2005>
5.45528316497803

> <r_mmod_Van_der_Waal_Energy-OPLS-2005>
115.497283935547

> <r_mmod_Electrostatic_Energy-OPLS-2005>
-390.274841308594

> <r_mmod_Solvation_Energy-OPLS-2005>
-213.734252929688

> <b_mmod_Minimization_Converged-OPLS-2005>
0

> <r_mmod_RMS_Derivative-OPLS-2005>
3.17191171646118

$$$$
33
                    3D
 Structure written by MMmdl.
153160  0  0  1  0            999 V2000
  -30.5537  -14.9084   20.4260 C   0  0  0  0  0  0
  -30.4422  -12.5595   19.4963 C   0  0  0  0  0  0
  -29.5215  -12.5241   18.2541 C   0  0  0  0  0  0
  -28.0535  -12.3172   18.6713 C   0  0  0  0  0  0
  -27.6347  -13.2436   19.8425 C   0  0  2  0  0  0
  -28.6777  -13.2543   20.9807 C   0  0  0  0  0  0
  -25.2488  -13.8211   20.5710 C   0  0  0  0  0  0
  -24.1787  -13.0437   20.9223 C   0  0  0  0  0  0
  -24.6399  -11.6921   20.8753 C   0  0  0  0  0  0
  -23.9072  -10.4300   21.0410 C   0  0  0  0  0  0
  -24.3620   -9.4209   21.9181 C   0  0  0  0  0  0
  -23.6291   -8.2251   22.0755 C   0  0  0  0  0  0
  -22.4275   -8.0289   21.3545 C   0  0  0  0  0  0
  -21.9912   -9.0262   20.4650 C   0  0  0  0  0  0
  -22.7244  -10.2140   20.3058 C   0  0  0  0  0  0
  -21.6854   -6.0738   22.5274 C   0  0  0  0  0  0
  -21.4015   -6.5635   23.8207 C   0  0  0  0  0  0
  -21.3662   -5.6786   24.9164 C   0  0  0  0  0  0
  -21.6043   -4.3053   24.7218 C   0  0  0  0  0  0
  -21.8821   -3.8142   23.4339 C   0  0  0  0  0  0
  -21.9194   -4.6962   22.3395 C   0  0  0  0  0  0
  -22.7811  -13.5220   21.1879 C   0  0  0  0  0  0
  -22.1667   -4.2146   21.0975 F   0  0  0  0  0  0
  -21.5630   -3.4536   25.7732 F   0  0  0  0  0  0
  -29.9605  -13.6511   20.3877 N   0  0  0  0  0  0
  -26.2907  -12.9433   20.3260 N   0  0  0  0  0  0
  -25.9330  -11.6563   20.5751 N   0  0  0  0  0  0
  -22.0453  -12.8214   22.0434 N   0  0  0  0  0  0
  -25.4144  -15.1941   20.4120 N   0  0  0  0  0  0
  -31.7503  -14.9900   20.1333 O   0  0  0  0  0  0
  -21.6641   -6.8887   21.4242 O   0  0  0  0  0  0
  -22.3493  -14.5521   20.6713 O   0  0  0  0  0  0
  -24.6434  -31.8459   23.1898 C   0  0  0  0  0  0
  -25.9214  -32.4702   23.8283 C   0  0  1  0  0  0
  -27.2145  -27.1452   20.1456 C   0  0  0  0  0  0
  -25.5965  -33.8506   24.2203 N   0  0  0  0  0  0
  -23.4460  -30.4661   21.5360 C   0  0  2  0  0  0
  -24.8934  -28.8959   20.1130 C   0  0  0  0  0  0
  -22.7568  -29.4555   22.4877 C   0  0  0  0  0  0
  -18.0299  -28.1398   22.8475 C   0  0  0  0  0  0
  -24.1492  -36.7256   23.2640 C   0  0  0  0  0  0
  -26.0013  -30.7224   21.3871 C   0  0  0  0  0  0
  -26.0722  -29.3344   20.7295 C   0  0  0  0  0  0
  -27.2343  -28.4759   20.7275 C   0  0  0  0  0  0
  -26.0076  -26.8111   19.4897 C   0  0  0  0  0  0
  -24.8744  -27.6487   19.4757 C   0  0  0  0  0  0
  -23.6708  -29.7973   20.1550 C   0  0  0  0  0  0
  -25.4122  -36.3037   24.0320 C   0  0  1  0  0  0
  -20.5910  -28.3724   23.1232 C   0  0  2  0  0  0
  -20.6782  -26.9432   22.5396 C   0  0  0  0  0  0
  -19.5761  -26.6390   21.5200 C   0  0  0  0  0  0
  -18.1941  -26.7936   22.1613 C   0  0  0  0  0  0
  -19.1556  -28.8880   23.2842 C   0  0  0  0  0  0
  -18.9478  -30.1475   23.8870 C   0  0  0  0  0  0
  -17.6471  -30.6591   24.0555 C   0  0  0  0  0  0
  -25.9074  -34.9411   23.5066 C   0  0  0  0  0  0
  -16.5359  -29.9088   23.6330 C   0  0  0  0  0  0
  -16.7282  -28.6506   23.0353 C   0  0  0  0  0  0
  -26.4534  -31.6555   25.0715 C   0  0  0  0  0  0
  -25.3725  -31.3730   26.1412 C   0  0  0  0  0  0
  -27.0389  -30.2955   24.6273 C   0  0  0  0  0  0
  -27.6068  -32.4314   25.7498 C   0  0  0  0  0  0
  -27.5574  -37.1789   24.8469 C   0  0  0  0  0  0
  -21.4259  -29.3053   22.3620 N   0  0  0  0  0  0
  -26.4289  -37.3747   23.9409 N   0  0  0  0  0  0
  -24.7167  -31.0332   22.0926 N   0  0  0  0  0  0
  -23.4212  -28.8108   23.3034 O   0  0  0  0  0  0
  -28.2680  -26.1620   20.2061 O   0  0  0  0  0  0
  -26.5654  -34.8905   22.4642 O   0  0  0  0  0  0
  -23.5555  -32.1318   23.7132 O   0  0  0  0  0  0
  -27.7688  -21.6485   21.8400 C   0  0  0  0  0  0
  -30.0295  -17.6251   20.4098 C   0  0  0  0  0  0
  -29.0406  -18.9932   20.6201 C   0  0  0  0  0  0
  -27.9605  -24.6376   20.1193 C   0  0  0  0  0  0
  -28.5022  -21.7232   20.4884 C   0  0  1  0  0  0
  -29.0065  -23.3174   20.2506 C   0  0  1  0  0  0
  -29.7614  -16.0736   20.5834 N   0  0  0  0  0  0
  -29.4907  -20.4900   20.3576 N   0  3  0  0  0  0
  -29.7304  -23.2762   19.0293 O   0  0  0  0  0  0
  -31.4782  -12.7094   19.1875 H   0  0  0  0  0  0
  -30.4239  -11.6036   20.0207 H   0  0  0  0  0  0
  -29.8336  -11.7317   17.5717 H   0  0  0  0  0  0
  -29.6163  -13.4590   17.6999 H   0  0  0  0  0  0
  -27.9443  -11.2739   18.9717 H   0  0  0  0  0  0
  -27.3914  -12.4605   17.8172 H   0  0  0  0  0  0
  -27.6067  -14.2495   19.4229 H   0  0  0  0  0  0
  -28.7514  -12.2761   21.4575 H   0  0  0  0  0  0
  -28.3846  -13.9564   21.7624 H   0  0  0  0  0  0
  -25.2762   -9.5684   22.4749 H   0  0  0  0  0  0
  -23.9990   -7.4647   22.7474 H   0  0  0  0  0  0
  -21.0843   -8.8783   19.8960 H   0  0  0  0  0  0
  -22.3702  -10.9672   19.6167 H   0  0  0  0  0  0
  -21.2016   -7.6141   23.9712 H   0  0  0  0  0  0
  -21.1476   -6.0514   25.9070 H   0  0  0  0  0  0
  -22.0600   -2.7605   23.2835 H   0  0  0  0  0  0
  -22.4069  -11.9885   22.4829 H   0  0  0  0  0  0
  -21.1074  -13.1238   22.2639 H   0  0  0  0  0  0
  -24.6373  -15.8389   20.5158 H   0  0  0  0  0  0
  -26.2446  -15.6335   20.0365 H   0  0  0  0  0  0
  -26.7281  -32.5318   23.1013 H   0  0  0  0  0  0
  -25.0112  -33.9614   25.0352 H   0  0  0  0  0  0
  -22.7465  -31.2910   21.3837 H   0  0  0  0  0  0
  -23.3757  -35.9585   23.3294 H   0  0  0  0  0  0
  -24.3577  -36.8892   22.2056 H   0  0  0  0  0  0
  -23.7240  -37.6450   23.6674 H   0  0  0  0  0  0
  -26.1551  -31.4756   20.6129 H   0  0  0  0  0  0
  -26.8723  -30.7724   22.0291 H   0  0  0  0  0  0
  -28.1322  -28.8099   21.2279 H   0  0  0  0  0  0
  -25.8964  -25.8648   18.9864 H   0  0  0  0  0  0
  -23.9775  -27.3110   18.9753 H   0  0  0  0  0  0
  -23.8080  -30.5713   19.3992 H   0  0  0  0  0  0
  -22.7857  -29.2392   19.8439 H   0  0  0  0  0  0
  -25.1307  -36.1870   25.0812 H   0  0  0  0  0  0
  -20.9985  -28.3318   24.1362 H   0  0  0  0  0  0
  -20.5657  -26.2348   23.3619 H   0  0  0  0  0  0
  -21.6654  -26.7440   22.1210 H   0  0  0  0  0  0
  -19.6926  -25.6299   21.1244 H   0  0  0  0  0  0
  -19.6693  -27.3184   20.6722 H   0  0  0  0  0  0
  -17.4208  -26.6676   21.4018 H   0  0  0  0  0  0
  -18.0350  -26.0077   22.9008 H   0  0  0  0  0  0
  -19.7952  -30.7288   24.2253 H   0  0  0  0  0  0
  -17.5024  -31.6263   24.5182 H   0  0  0  0  0  0
  -15.5358  -30.2985   23.7670 H   0  0  0  0  0  0
  -15.8681  -28.0821   22.7078 H   0  0  0  0  0  0
  -24.5928  -30.7051   25.7735 H   0  0  0  0  0  0
  -24.8886  -32.2899   26.4787 H   0  0  0  0  0  0
  -25.8020  -30.8948   27.0224 H   0  0  0  0  0  0
  -26.2995  -29.6695   24.1271 H   0  0  0  0  0  0
  -27.3994  -29.7238   25.4834 H   0  0  0  0  0  0
  -27.8909  -30.4193   23.9587 H   0  0  0  0  0  0
  -27.2668  -33.3639   26.2019 H   0  0  0  0  0  0
  -28.3907  -32.6837   25.0342 H   0  0  0  0  0  0
  -28.0704  -31.8477   26.5460 H   0  0  0  0  0  0
  -28.2595  -38.0084   24.7505 H   0  0  0  0  0  0
  -28.1069  -36.2609   24.6311 H   0  0  0  0  0  0
  -27.2289  -37.1459   25.8873 H   0  0  0  0  0  0
  -20.9485  -29.8779   21.6798 H   0  0  0  0  0  0
  -26.0159  -38.2821   24.1401 H   0  0  0  0  0  0
  -27.2251  -20.7115   21.9519 H   0  0  0  0  0  0
  -27.0334  -22.4455   21.9381 H   0  0  0  0  0  0
  -28.4643  -21.7381   22.6744 H   0  0  0  0  0  0
  -29.9795  -17.4653   21.4870 H   0  0  0  0  0  0
  -29.4008  -17.3565   19.5599 H   0  0  0  0  0  0
  -28.6870  -18.9877   21.6521 H   0  0  0  0  0  0
  -28.1247  -18.8645   20.0401 H   0  0  0  0  0  0
  -27.2069  -24.4895   20.8922 H   0  0  0  0  0  0
  -27.4305  -24.4685   19.1841 H   0  0  0  0  0  0
  -27.7464  -21.5346   19.7253 H   0  0  0  0  0  0
  -29.7116  -23.5469   21.0508 H   0  0  0  0  0  0
  -28.7995  -15.8519   20.7969 H   0  0  0  0  0  0
  -29.8498  -20.5315   19.4175 H   0  0  0  0  0  0
  -30.2823  -20.6755   20.9523 H   0  0  0  0  0  0
  -29.0995  -23.2394   18.3156 H   0  0  0  0  0  0
  1 25  1  0  0  0
  1 30  2  0  0  0
  1 77  1  0  0  0
  2  3  1  0  0  0
  2 25  1  0  0  0
  2 80  1  0  0  0
  2 81  1  0  0  0
  3  4  1  0  0  0
  3 82  1  0  0  0
  3 83  1  0  0  0
  4  5  1  0  0  0
  4 84  1  0  0  0
  4 85  1  0  0  0
  5  6  1  0  0  0
  5 26  1  0  0  0
  5 86  1  0  0  0
  6 25  1  0  0  0
  6 87  1  0  0  0
  6 88  1  0  0  0
  7  8  2  0  0  0
  7 26  1  0  0  0
  7 29  1  0  0  0
  8  9  1  0  0  0
  8 22  1  0  0  0
  9 10  1  0  0  0
  9 27  2  0  0  0
 10 11  2  0  0  0
 10 15  1  0  0  0
 11 12  1  0  0  0
 11 89  1  0  0  0
 12 13  2  0  0  0
 12 90  1  0  0  0
 13 14  1  0  0  0
 13 31  1  0  0  0
 14 15  2  0  0  0
 14 91  1  0  0  0
 15 92  1  0  0  0
 16 17  2  0  0  0
 16 21  1  0  0  0
 16 31  1  0  0  0
 17 18  1  0  0  0
 17 93  1  0  0  0
 18 19  2  0  0  0
 18 94  1  0  0  0
 19 20  1  0  0  0
 19 24  1  0  0  0
 20 21  2  0  0  0
 20 95  1  0  0  0
 21 23  1  0  0  0
 22 28  1  0  0  0
 22 32  2  0  0  0
 26 27  1  0  0  0
 28 96  1  0  0  0
 28 97  1  0  0  0
 29 98  1  0  0  0
 29 99  1  0  0  0
 33 34  1  0  0  0
 33 66  1  0  0  0
 33 70  2  0  0  0
 34 36  1  0  0  0
 34 59  1  0  0  0
 34100  1  0  0  0
 35 44  2  0  0  0
 35 45  1  0  0  0
 35 68  1  0  0  0
 36 56  1  0  0  0
 36101  1  0  0  0
 37 39  1  0  0  0
 37 47  1  0  0  0
 37 66  1  0  0  0
 37102  1  0  0  0
 38 43  2  0  0  0
 38 46  1  0  0  0
 38 47  1  0  0  0
 39 64  1  0  0  0
 39 67  2  0  0  0
 40 52  1  0  0  0
 40 53  2  0  0  0
 40 58  1  0  0  0
 41103  1  0  0  0
 41104  1  0  0  0
 41105  1  0  0  0
 41 48  1  0  0  0
 42 43  1  0  0  0
 42 66  1  0  0  0
 42106  1  0  0  0
 42107  1  0  0  0
 43 44  1  0  0  0
 44108  1  0  0  0
 45 46  2  0  0  0
 45109  1  0  0  0
 46110  1  0  0  0
 47111  1  0  0  0
 47112  1  0  0  0
 48 56  1  0  0  0
 48 65  1  0  0  0
 48113  1  0  0  0
 49 50  1  0  0  0
 49 53  1  0  0  0
 49 64  1  0  0  0
 49114  1  0  0  0
 50 51  1  0  0  0
 50115  1  0  0  0
 50116  1  0  0  0
 51 52  1  0  0  0
 51117  1  0  0  0
 51118  1  0  0  0
 52119  1  0  0  0
 52120  1  0  0  0
 53 54  1  0  0  0
 54 55  2  0  0  0
 54121  1  0  0  0
 55 57  1  0  0  0
 55122  1  0  0  0
 56 69  2  0  0  0
 57 58  2  0  0  0
 57123  1  0  0  0
 58124  1  0  0  0
 59 60  1  0  0  0
 59 61  1  0  0  0
 59 62  1  0  0  0
 60125  1  0  0  0
 60126  1  0  0  0
 60127  1  0  0  0
 61128  1  0  0  0
 61129  1  0  0  0
 61130  1  0  0  0
 62131  1  0  0  0
 62132  1  0  0  0
 62133  1  0  0  0
 63 65  1  0  0  0
 63134  1  0  0  0
 63135  1  0  0  0
 63136  1  0  0  0
 64137  1  0  0  0
 65138  1  0  0  0
 68 74  1  0  0  0
 71139  1  0  0  0
 71140  1  0  0  0
 71141  1  0  0  0
 71 75  1  0  0  0
 72 73  1  0  0  0
 72 77  1  0  0  0
 72142  1  0  0  0
 72143  1  0  0  0
 73 78  1  0  0  0
 73144  1  0  0  0
 73145  1  0  0  0
 74 76  1  0  0  0
 74146  1  0  0  0
 74147  1  0  0  0
 75 76  1  0  0  0
 75 78  1  0  0  0
 75148  1  0  0  0
 76 79  1  0  0  0
 76149  1  0  0  0
 77150  1  0  0  0
 78151  1  0  0  0
 78152  1  0  0  0
 79153  1  0  0  0
M  CHG  1  78   1
M  ISO  4   1 100  68 101  74 101  77 100
M  END
> <chiral flag>
0

> <version>
0

> <s_m_source_file>
/data/baiqing/PycharmProjects/Reinvent-master-3.2/result/LINK_invent/BTK/process_docking_weight1_custom_sum_contain_oxygen_bond_distance_aromatic_linkinvent_7_9_3/rearranged_h_0110.sdf

> <i_m_source_file_index>
33

> <r_mmod_Potential_Energy-OPLS-2005>
419.063110351562

> <r_mmod_Stretch_Energy-OPLS-2005>
259.922149658203

> <r_mmod_Bend_Energy-OPLS-2005>
451.199005126953

> <r_mmod_Torsional_Energy-OPLS-2005>
230.389205932617

> <r_mmod_Improper_Torsional_Energy-OPLS-2005>
4.64267158508301

> <r_mmod_Van_der_Waal_Energy-OPLS-2005>
122.06517791748

> <r_mmod_Electrostatic_Energy-OPLS-2005>
-306.814819335938

> <r_mmod_Solvation_Energy-OPLS-2005>
-516.394714355469

> <b_mmod_Minimization_Converged-OPLS-2005>
0

> <r_mmod_RMS_Derivative-OPLS-2005>
1.85212779045105

$$$$
34
                    3D
 Structure written by MMmdl.
166174  0  0  1  0            999 V2000
  -30.5873  -14.7639   20.4611 C   0  0  0  0  0  0
  -30.4402  -12.4749   19.4533 C   0  0  0  0  0  0
  -29.5058  -12.5082   18.2229 C   0  0  0  0  0  0
  -28.0309  -12.3305   18.6398 C   0  0  0  0  0  0
  -27.6368  -13.2297   19.8411 C   0  0  2  0  0  0
  -28.6858  -13.1552   20.9706 C   0  0  0  0  0  0
  -25.2476  -13.8171   20.5680 C   0  0  0  0  0  0
  -24.1792  -13.0427   20.9203 C   0  0  0  0  0  0
  -24.6379  -11.6891   20.8750 C   0  0  0  0  0  0
  -23.9063  -10.4277   21.0405 C   0  0  0  0  0  0
  -24.3612   -9.4200   21.9185 C   0  0  0  0  0  0
  -23.6290   -8.2238   22.0761 C   0  0  0  0  0  0
  -22.4275   -8.0267   21.3543 C   0  0  0  0  0  0
  -21.9900   -9.0247   20.4644 C   0  0  0  0  0  0
  -22.7234  -10.2127   20.3054 C   0  0  0  0  0  0
  -21.6844   -6.0727   22.5275 C   0  0  0  0  0  0
  -21.4011   -6.5636   23.8211 C   0  0  0  0  0  0
  -21.3659   -5.6792   24.9169 C   0  0  0  0  0  0
  -21.6047   -4.3056   24.7225 C   0  0  0  0  0  0
  -21.8814   -3.8146   23.4345 C   0  0  0  0  0  0
  -21.9193   -4.6953   22.3399 C   0  0  0  0  0  0
  -22.7805  -13.5192   21.1880 C   0  0  0  0  0  0
  -22.1658   -4.2139   21.0976 F   0  0  0  0  0  0
  -21.5634   -3.4534   25.7740 F   0  0  0  0  0  0
  -29.9829  -13.5277   20.3849 N   0  0  0  0  0  0
  -26.2903  -12.9392   20.3229 N   0  0  0  0  0  0
  -25.9304  -11.6538   20.5719 N   0  0  0  0  0  0
  -22.0463  -12.8190   22.0432 N   0  0  0  0  0  0
  -25.4120  -15.1914   20.4090 N   0  0  0  0  0  0
  -31.7886  -14.8865   20.2065 O   0  0  0  0  0  0
  -21.6638   -6.8867   21.4235 O   0  0  0  0  0  0
  -22.3483  -14.5504   20.6713 O   0  0  0  0  0  0
  -24.6274  -31.8637   23.1973 C   0  0  0  0  0  0
  -25.9122  -32.4781   23.8317 C   0  0  1  0  0  0
  -27.2543  -27.3061   20.1129 C   0  0  0  0  0  0
  -25.5904  -33.8571   24.2231 N   0  0  0  0  0  0
  -23.4242  -30.4785   21.5467 C   0  0  2  0  0  0
  -24.8792  -28.9394   20.1112 C   0  0  0  0  0  0
  -22.7521  -29.4611   22.5003 C   0  0  0  0  0  0
  -18.0301  -28.1345   22.8512 C   0  0  0  0  0  0
  -24.1503  -36.7245   23.2640 C   0  0  0  0  0  0
  -25.9664  -30.7924   21.3740 C   0  0  0  0  0  0
  -26.0505  -29.4183   20.7118 C   0  0  0  0  0  0
  -27.2369  -28.6172   20.7029 C   0  0  0  0  0  0
  -26.0568  -26.9018   19.4743 C   0  0  0  0  0  0
  -24.8888  -27.6865   19.4814 C   0  0  0  0  0  0
  -23.6376  -29.8078   20.1652 C   0  0  0  0  0  0
  -25.4143  -36.3053   24.0305 C   0  0  1  0  0  0
  -20.5898  -28.3649   23.1308 C   0  0  2  0  0  0
  -20.6788  -26.9375   22.5419 C   0  0  0  0  0  0
  -19.5754  -26.6362   21.5218 C   0  0  0  0  0  0
  -18.1939  -26.7903   22.1638 C   0  0  0  0  0  0
  -19.1551  -28.8818   23.2898 C   0  0  0  0  0  0
  -18.9477  -30.1438   23.8897 C   0  0  0  0  0  0
  -17.6471  -30.6569   24.0538 C   0  0  0  0  0  0
  -25.9097  -34.9445   23.5080 C   0  0  0  0  0  0
  -16.5363  -29.9040   23.6324 C   0  0  0  0  0  0
  -16.7288  -28.6453   23.0380 C   0  0  0  0  0  0
  -26.4490  -31.6579   25.0687 C   0  0  0  0  0  0
  -25.3647  -31.3687   26.1337 C   0  0  0  0  0  0
  -27.0355  -30.3005   24.6159 C   0  0  0  0  0  0
  -27.6082  -32.4288   25.7415 C   0  0  0  0  0  0
  -27.5606  -37.1759   24.8464 C   0  0  0  0  0  0
  -21.4237  -29.2997   22.3722 N   0  0  0  0  0  0
  -26.4328  -37.3747   23.9391 N   0  0  0  0  0  0
  -24.6915  -31.0615   22.0952 N   0  0  0  0  0  0
  -23.4241  -28.8209   23.3136 O   0  0  0  0  0  0
  -28.3708  -26.4336   20.1810 O   0  0  0  0  0  0
  -26.5723  -34.8926   22.4682 O   0  0  0  0  0  0
  -23.5424  -32.1447   23.7277 O   0  0  0  0  0  0
  -29.8111  -21.1843   20.3195 C   0  0  0  0  0  0
  -29.3533  -19.9605   19.8074 C   0  0  0  0  0  0
  -28.1360  -20.3457   19.1425 C   0  0  0  0  0  0
  -28.0150  -21.7286   19.1358 C   0  0  0  0  0  0
  -26.9996  -22.5590   18.3989 C   0  0  0  0  0  0
  -27.6896  -18.3020   16.2260 C   0  0  0  0  0  0
  -25.7591  -19.5419   19.1922 C   0  0  0  0  0  0
  -29.9804  -18.4670   19.7435 C   0  0  0  0  0  0
  -27.0199  -19.4562   16.9792 C   0  0  0  0  0  0
  -29.2180  -23.7941   20.3082 C   0  0  0  0  0  0
  -29.9546  -17.3640   20.9233 C   0  0  0  0  0  0
  -28.2215  -24.9851   19.8129 C   0  0  0  0  0  0
  -27.1312  -19.3744   18.5228 C   0  0  1  0  0  0
  -29.0052  -22.3019   19.9367 N   0  0  0  0  0  0
  -29.7609  -15.8649   20.6269 N   0  0  0  0  0  0
  -31.4736  -12.6311   19.1428 H   0  0  0  0  0  0
  -30.4139  -11.4991   19.9389 H   0  0  0  0  0  0
  -29.7877  -11.7273   17.5144 H   0  0  0  0  0  0
  -29.6255  -13.4558   17.6961 H   0  0  0  0  0  0
  -27.8861  -11.2812   18.9000 H   0  0  0  0  0  0
  -27.3731  -12.5245   17.7908 H   0  0  0  0  0  0
  -27.6276  -14.2507   19.4604 H   0  0  0  0  0  0
  -28.7277  -12.1495   21.3912 H   0  0  0  0  0  0
  -28.4151  -13.8190   21.7941 H   0  0  0  0  0  0
  -25.2743   -9.5677   22.4767 H   0  0  0  0  0  0
  -23.9988   -7.4627   22.7480 H   0  0  0  0  0  0
  -21.0831   -8.8755   19.8948 H   0  0  0  0  0  0
  -22.3677  -10.9663   19.6172 H   0  0  0  0  0  0
  -21.2001   -7.6143   23.9701 H   0  0  0  0  0  0
  -21.1488   -6.0528   25.9074 H   0  0  0  0  0  0
  -22.0597   -2.7602   23.2848 H   0  0  0  0  0  0
  -22.4099  -11.9861   22.4832 H   0  0  0  0  0  0
  -21.1069  -13.1198   22.2643 H   0  0  0  0  0  0
  -24.6290  -15.8284   20.5031 H   0  0  0  0  0  0
  -26.2436  -15.6395   20.0520 H   0  0  0  0  0  0
  -26.7215  -32.5477   23.1087 H   0  0  0  0  0  0
  -24.9809  -33.9684   25.0203 H   0  0  0  0  0  0
  -22.7153  -31.2959   21.4009 H   0  0  0  0  0  0
  -23.3789  -35.9561   23.3293 H   0  0  0  0  0  0
  -24.3561  -36.8902   22.2056 H   0  0  0  0  0  0
  -23.7260  -37.6429   23.6709 H   0  0  0  0  0  0
  -26.1073  -31.5678   20.6189 H   0  0  0  0  0  0
  -26.8383  -30.8321   22.0150 H   0  0  0  0  0  0
  -28.1300  -28.9929   21.1859 H   0  0  0  0  0  0
  -25.9802  -25.9555   18.9660 H   0  0  0  0  0  0
  -23.9945  -27.3080   19.0068 H   0  0  0  0  0  0
  -23.7278  -30.5761   19.3969 H   0  0  0  0  0  0
  -22.7627  -29.2184   19.8887 H   0  0  0  0  0  0
  -25.1337  -36.1873   25.0803 H   0  0  0  0  0  0
  -20.9978  -28.3194   24.1433 H   0  0  0  0  0  0
  -20.5673  -26.2251   23.3623 H   0  0  0  0  0  0
  -21.6663  -26.7404   22.1229 H   0  0  0  0  0  0
  -19.6914  -25.6267   21.1253 H   0  0  0  0  0  0
  -19.6679  -27.3179   20.6760 H   0  0  0  0  0  0
  -17.4219  -26.6663   21.4032 H   0  0  0  0  0  0
  -18.0303  -26.0021   22.9005 H   0  0  0  0  0  0
  -19.7951  -30.7241   24.2273 H   0  0  0  0  0  0
  -17.5025  -31.6259   24.5107 H   0  0  0  0  0  0
  -15.5357  -30.2929   23.7667 H   0  0  0  0  0  0
  -15.8696  -28.0755   22.7111 H   0  0  0  0  0  0
  -24.5875  -30.7038   25.7528 H   0  0  0  0  0  0
  -24.8750  -32.2827   26.4701 H   0  0  0  0  0  0
  -25.7860  -30.8828   27.0138 H   0  0  0  0  0  0
  -26.2959  -29.6692   24.1230 H   0  0  0  0  0  0
  -27.4094  -29.7322   25.4677 H   0  0  0  0  0  0
  -27.8793  -30.4266   23.9378 H   0  0  0  0  0  0
  -27.2809  -33.3667   26.1901 H   0  0  0  0  0  0
  -28.3909  -32.6699   25.0207 H   0  0  0  0  0  0
  -28.0728  -31.8441   26.5354 H   0  0  0  0  0  0
  -28.2595  -38.0087   24.7569 H   0  0  0  0  0  0
  -28.1143  -36.2613   24.6257 H   0  0  0  0  0  0
  -27.2292  -37.1341   25.8858 H   0  0  0  0  0  0
  -20.9452  -29.8633   21.6845 H   0  0  0  0  0  0
  -26.0194  -38.2813   24.1415 H   0  0  0  0  0  0
  -30.6972  -21.3791   20.9137 H   0  0  0  0  0  0
  -26.4267  -21.9657   17.6944 H   0  0  0  0  0  0
  -27.4658  -23.3142   17.7669 H   0  0  0  0  0  0
  -26.2769  -23.0148   19.0742 H   0  0  0  0  0  0
  -27.4782  -18.3818   15.1581 H   0  0  0  0  0  0
  -27.3071  -17.3383   16.5613 H   0  0  0  0  0  0
  -28.7720  -18.3080   16.3547 H   0  0  0  0  0  0
  -25.8308  -19.4046   20.2727 H   0  0  0  0  0  0
  -25.0478  -18.8100   18.8081 H   0  0  0  0  0  0
  -25.3338  -20.5283   19.0128 H   0  0  0  0  0  0
  -31.0232  -18.5788   19.4430 H   0  0  0  0  0  0
  -29.5371  -17.9851   18.8739 H   0  0  0  0  0  0
  -25.9646  -19.4349   16.7035 H   0  0  0  0  0  0
  -27.4003  -20.3984   16.5885 H   0  0  0  0  0  0
  -29.2461  -23.8461   21.3977 H   0  0  0  0  0  0
  -30.2306  -24.0548   20.0003 H   0  0  0  0  0  0
  -29.1167  -17.6246   21.5719 H   0  0  0  0  0  0
  -30.8388  -17.4874   21.5521 H   0  0  0  0  0  0
  -27.2309  -24.6701   20.1306 H   0  0  0  0  0  0
  -28.2398  -25.0081   18.7255 H   0  0  0  0  0  0
  -27.4339  -18.3596   18.7770 H   0  0  0  0  0  0
  -28.7929  -15.5896   20.6849 H   0  0  0  0  0  0
  1 25  1  0  0  0
  1 30  2  0  0  0
  1 85  1  0  0  0
  2  3  1  0  0  0
  2 25  1  0  0  0
  2 86  1  0  0  0
  2 87  1  0  0  0
  3  4  1  0  0  0
  3 88  1  0  0  0
  3 89  1  0  0  0
  4  5  1  0  0  0
  4 90  1  0  0  0
  4 91  1  0  0  0
  5  6  1  0  0  0
  5 26  1  0  0  0
  5 92  1  0  0  0
  6 25  1  0  0  0
  6 93  1  0  0  0
  6 94  1  0  0  0
  7  8  2  0  0  0
  7 26  1  0  0  0
  7 29  1  0  0  0
  8  9  1  0  0  0
  8 22  1  0  0  0
  9 10  1  0  0  0
  9 27  2  0  0  0
 10 11  2  0  0  0
 10 15  1  0  0  0
 11 12  1  0  0  0
 11 95  1  0  0  0
 12 13  2  0  0  0
 12 96  1  0  0  0
 13 14  1  0  0  0
 13 31  1  0  0  0
 14 15  2  0  0  0
 14 97  1  0  0  0
 15 98  1  0  0  0
 16 17  2  0  0  0
 16 21  1  0  0  0
 16 31  1  0  0  0
 17 18  1  0  0  0
 17 99  1  0  0  0
 18 19  2  0  0  0
 18100  1  0  0  0
 19 20  1  0  0  0
 19 24  1  0  0  0
 20 21  2  0  0  0
 20101  1  0  0  0
 21 23  1  0  0  0
 22 28  1  0  0  0
 22 32  2  0  0  0
 26 27  1  0  0  0
 28102  1  0  0  0
 28103  1  0  0  0
 29104  1  0  0  0
 29105  1  0  0  0
 33 34  1  0  0  0
 33 66  1  0  0  0
 33 70  2  0  0  0
 34 36  1  0  0  0
 34 59  1  0  0  0
 34106  1  0  0  0
 35 44  2  0  0  0
 35 45  1  0  0  0
 35 68  1  0  0  0
 36 56  1  0  0  0
 36107  1  0  0  0
 37 39  1  0  0  0
 37 47  1  0  0  0
 37 66  1  0  0  0
 37108  1  0  0  0
 38 43  2  0  0  0
 38 46  1  0  0  0
 38 47  1  0  0  0
 39 64  1  0  0  0
 39 67  2  0  0  0
 40 52  1  0  0  0
 40 53  2  0  0  0
 40 58  1  0  0  0
 41109  1  0  0  0
 41110  1  0  0  0
 41111  1  0  0  0
 41 48  1  0  0  0
 42 43  1  0  0  0
 42 66  1  0  0  0
 42112  1  0  0  0
 42113  1  0  0  0
 43 44  1  0  0  0
 44114  1  0  0  0
 45 46  2  0  0  0
 45115  1  0  0  0
 46116  1  0  0  0
 47117  1  0  0  0
 47118  1  0  0  0
 48 56  1  0  0  0
 48 65  1  0  0  0
 48119  1  0  0  0
 49 50  1  0  0  0
 49 53  1  0  0  0
 49 64  1  0  0  0
 49120  1  0  0  0
 50 51  1  0  0  0
 50121  1  0  0  0
 50122  1  0  0  0
 51 52  1  0  0  0
 51123  1  0  0  0
 51124  1  0  0  0
 52125  1  0  0  0
 52126  1  0  0  0
 53 54  1  0  0  0
 54 55  2  0  0  0
 54127  1  0  0  0
 55 57  1  0  0  0
 55128  1  0  0  0
 56 69  2  0  0  0
 57 58  2  0  0  0
 57129  1  0  0  0
 58130  1  0  0  0
 59 60  1  0  0  0
 59 61  1  0  0  0
 59 62  1  0  0  0
 60131  1  0  0  0
 60132  1  0  0  0
 60133  1  0  0  0
 61134  1  0  0  0
 61135  1  0  0  0
 61136  1  0  0  0
 62137  1  0  0  0
 62138  1  0  0  0
 62139  1  0  0  0
 63 65  1  0  0  0
 63140  1  0  0  0
 63141  1  0  0  0
 63142  1  0  0  0
 64143  1  0  0  0
 65144  1  0  0  0
 68 82  1  0  0  0
 71 72  2  0  0  0
 71 84  1  0  0  0
 71145  1  0  0  0
 72 73  1  0  0  0
 72 78  1  0  0  0
 73 74  2  0  0  0
 73 83  1  0  0  0
 74 75  1  0  0  0
 74 84  1  0  0  0
 75146  1  0  0  0
 75147  1  0  0  0
 75148  1  0  0  0
 76 79  1  0  0  0
 76149  1  0  0  0
 76150  1  0  0  0
 76151  1  0  0  0
 77152  1  0  0  0
 77153  1  0  0  0
 77154  1  0  0  0
 77 83  1  0  0  0
 78 81  1  0  0  0
 78155  1  0  0  0
 78156  1  0  0  0
 79 83  1  0  0  0
 79157  1  0  0  0
 79158  1  0  0  0
 80 82  1  0  0  0
 80 84  1  0  0  0
 80159  1  0  0  0
 80160  1  0  0  0
 81 85  1  0  0  0
 81161  1  0  0  0
 81162  1  0  0  0
 82163  1  0  0  0
 82164  1  0  0  0
 83165  1  0  0  0
 85166  1  0  0  0
M  ISO  4   1 100  68 101  82 101  85 100
M  END
> <chiral flag>
0

> <version>
0

> <s_m_source_file>
/data/baiqing/PycharmProjects/Reinvent-master-3.2/result/LINK_invent/BTK/process_docking_weight1_custom_sum_contain_oxygen_bond_distance_aromatic_linkinvent_7_9_3/rearranged_h_0110.sdf

> <i_m_source_file_index>
34

> <r_mmod_Potential_Energy-OPLS-2005>
187.679504394531

> <r_mmod_Stretch_Energy-OPLS-2005>
135.4921875

> <r_mmod_Bend_Energy-OPLS-2005>
209.547546386719

> <r_mmod_Torsional_Energy-OPLS-2005>
245.540588378906

> <r_mmod_Improper_Torsional_Energy-OPLS-2005>
5.3460373878479

> <r_mmod_Van_der_Waal_Energy-OPLS-2005>
126.294357299805

> <r_mmod_Electrostatic_Energy-OPLS-2005>
-403.886474609375

> <r_mmod_Solvation_Energy-OPLS-2005>
-211.418823242188

> <b_mmod_Minimization_Converged-OPLS-2005>
0

> <r_mmod_RMS_Derivative-OPLS-2005>
4.8396201133728

$$$$
35
                    3D
 Structure written by MMmdl.
184194  0  0  1  0            999 V2000
  -30.6781  -14.4670   20.5502 C   0  0  0  0  0  0
  -30.4270  -12.2881   19.4364 C   0  0  0  0  0  0
  -29.5034  -12.4877   18.2149 C   0  0  0  0  0  0
  -28.0214  -12.3552   18.6206 C   0  0  0  0  0  0
  -27.6643  -13.1967   19.8758 C   0  0  2  0  0  0
  -28.7015  -12.9723   21.0029 C   0  0  0  0  0  0
  -25.2607  -13.8128   20.5676 C   0  0  0  0  0  0
  -24.1844  -13.0412   20.9164 C   0  0  0  0  0  0
  -24.6374  -11.6874   20.8705 C   0  0  0  0  0  0
  -23.9033  -10.4284   21.0385 C   0  0  0  0  0  0
  -24.3600   -9.4208   21.9165 C   0  0  0  0  0  0
  -23.6287   -8.2234   22.0735 C   0  0  0  0  0  0
  -22.4271   -8.0265   21.3522 C   0  0  0  0  0  0
  -21.9902   -9.0236   20.4629 C   0  0  0  0  0  0
  -22.7201  -10.2122   20.3037 C   0  0  0  0  0  0
  -21.6863   -6.0732   22.5279 C   0  0  0  0  0  0
  -21.4015   -6.5641   23.8210 C   0  0  0  0  0  0
  -21.3659   -5.6790   24.9176 C   0  0  0  0  0  0
  -21.6044   -4.3050   24.7222 C   0  0  0  0  0  0
  -21.8826   -3.8138   23.4344 C   0  0  0  0  0  0
  -21.9196   -4.6961   22.3402 C   0  0  0  0  0  0
  -22.7876  -13.5228   21.1839 C   0  0  0  0  0  0
  -22.1661   -4.2154   21.0980 F   0  0  0  0  0  0
  -21.5637   -3.4525   25.7727 F   0  0  0  0  0  0
  -30.0406  -13.2687   20.4640 N   0  0  0  0  0  0
  -26.3034  -12.9268   20.3349 N   0  0  0  0  0  0
  -25.9297  -11.6441   20.5747 N   0  0  0  0  0  0
  -22.0515  -12.8223   22.0399 N   0  0  0  0  0  0
  -25.4372  -15.1845   20.4090 N   0  0  0  0  0  0
  -31.8013  -14.6726   20.0818 O   0  0  0  0  0  0
  -21.6631   -6.8856   21.4227 O   0  0  0  0  0  0
  -22.3571  -14.5536   20.6681 O   0  0  0  0  0  0
  -24.6145  -31.8681   23.2106 C   0  0  0  0  0  0
  -25.9045  -32.4820   23.8393 C   0  0  1  0  0  0
  -27.2348  -27.4315   20.0840 C   0  0  0  0  0  0
  -25.5915  -33.8620   24.2332 N   0  0  0  0  0  0
  -23.4015  -30.4925   21.5511 C   0  0  2  0  0  0
  -24.8465  -28.9603   20.1116 C   0  0  0  0  0  0
  -22.7407  -29.4659   22.4983 C   0  0  0  0  0  0
  -18.0264  -28.1361   22.8491 C   0  0  0  0  0  0
  -24.1487  -36.7314   23.2633 C   0  0  0  0  0  0
  -25.9308  -30.8294   21.3661 C   0  0  0  0  0  0
  -26.0054  -29.4636   20.7143 C   0  0  0  0  0  0
  -27.1967  -28.7026   20.7048 C   0  0  0  0  0  0
  -26.0551  -26.9496   19.4670 C   0  0  0  0  0  0
  -24.8665  -27.7024   19.4877 C   0  0  0  0  0  0
  -23.6097  -29.8286   20.1643 C   0  0  0  0  0  0
  -25.4108  -36.3111   24.0337 C   0  0  1  0  0  0
  -20.5856  -28.3658   23.1314 C   0  0  2  0  0  0
  -20.6757  -26.9394   22.5415 C   0  0  0  0  0  0
  -19.5745  -26.6379   21.5201 C   0  0  0  0  0  0
  -18.1920  -26.7908   22.1608 C   0  0  0  0  0  0
  -19.1516  -28.8825   23.2898 C   0  0  0  0  0  0
  -18.9451  -30.1430   23.8914 C   0  0  0  0  0  0
  -17.6458  -30.6574   24.0561 C   0  0  0  0  0  0
  -25.9038  -34.9472   23.5129 C   0  0  0  0  0  0
  -16.5346  -29.9082   23.6322 C   0  0  0  0  0  0
  -16.7256  -28.6492   23.0351 C   0  0  0  0  0  0
  -26.4489  -31.6590   25.0711 C   0  0  0  0  0  0
  -25.3778  -31.3705   26.1479 C   0  0  0  0  0  0
  -27.0315  -30.3033   24.6068 C   0  0  0  0  0  0
  -27.6067  -32.4311   25.7465 C   0  0  0  0  0  0
  -27.5584  -37.1801   24.8461 C   0  0  0  0  0  0
  -21.4130  -29.3029   22.3723 N   0  0  0  0  0  0
  -26.4291  -37.3801   23.9418 N   0  0  0  0  0  0
  -24.6671  -31.0778   22.1005 N   0  0  0  0  0  0
  -23.4179  -28.8192   23.3013 O   0  0  0  0  0  0
  -28.4184  -26.7163   20.1228 O   0  0  0  0  0  0
  -26.5595  -34.8930   22.4682 O   0  0  0  0  0  0
  -23.5346  -32.1430   23.7507 O   0  0  0  0  0  0
  -30.9334  -21.9170   22.0033 C   0  0  0  0  0  0
  -30.8604  -20.5682   21.7830 C   0  0  0  0  0  0
  -29.7867  -22.4757   21.3796 C   0  0  0  0  0  0
  -31.6620  -19.4330   22.0783 C   0  0  0  0  0  0
  -31.2853  -18.1902   21.6060 C   0  0  0  0  0  0
  -29.3033  -19.1403   20.5833 C   0  0  0  0  0  0
  -30.1066  -18.0391   20.8280 C   0  0  0  0  0  0
  -32.3723  -25.0206   20.0229 C   0  0  0  0  0  0
  -32.9529  -24.9518   18.6009 C   0  0  0  0  0  0
  -30.9711  -25.6490   20.0372 C   0  0  0  0  0  0
  -32.2849  -23.9444   17.6431 C   0  0  0  0  0  0
  -30.1037  -23.5829   18.7568 C   0  0  0  0  0  0
  -29.7890  -24.6508   19.8632 C   0  0  1  0  0  0
  -29.0107  -25.3313   15.2491 C   0  0  0  0  0  0
  -28.3348  -22.9575   14.7590 C   0  0  0  0  0  0
  -29.4711  -23.9552   21.2511 C   0  0  0  0  0  0
  -29.7625  -16.7166   20.1503 C   0  0  0  0  0  0
  -28.5304  -25.4679   19.4224 C   0  0  0  0  0  0
  -30.2979  -23.3892   16.3068 C   0  0  0  0  0  0
  -28.9215  -23.9055   15.8185 C   0  0  0  0  0  0
  -29.0119  -21.5541   20.8386 N   0  0  0  0  0  0
  -29.6801  -20.3642   21.0463 N   0  0  0  0  0  0
  -29.8925  -15.4870   20.9397 N   0  0  0  0  0  0
  -30.7998  -24.0773   17.5310 N   0  3  2  0  0  0
  -31.4746  -12.3870   19.1410 H   0  0  0  0  0  0
  -30.3239  -11.2745   19.8302 H   0  0  0  0  0  0
  -29.7431  -11.7555   17.4420 H   0  0  0  0  0  0
  -29.6801  -13.4675   17.7677 H   0  0  0  0  0  0
  -27.8266  -11.3003   18.8188 H   0  0  0  0  0  0
  -27.3744  -12.6273   17.7854 H   0  0  0  0  0  0
  -27.7097  -14.2431   19.5745 H   0  0  0  0  0  0
  -28.6670  -11.9362   21.3429 H   0  0  0  0  0  0
  -28.4635  -13.5749   21.8813 H   0  0  0  0  0  0
  -25.2749   -9.5702   22.4724 H   0  0  0  0  0  0
  -24.0022   -7.4627   22.7450 H   0  0  0  0  0  0
  -21.0835   -8.8714   19.8938 H   0  0  0  0  0  0
  -22.3633  -10.9646   19.6149 H   0  0  0  0  0  0
  -21.1993   -7.6144   23.9720 H   0  0  0  0  0  0
  -21.1488   -6.0512   25.9082 H   0  0  0  0  0  0
  -22.0607   -2.7605   23.2837 H   0  0  0  0  0  0
  -22.4149  -11.9923   22.4840 H   0  0  0  0  0  0
  -21.1123  -13.1247   22.2540 H   0  0  0  0  0  0
  -24.6730  -15.8414   20.5177 H   0  0  0  0  0  0
  -26.2893  -15.6183   20.0776 H   0  0  0  0  0  0
  -26.7105  -32.5537   23.1142 H   0  0  0  0  0  0
  -25.0101  -33.9787   25.0499 H   0  0  0  0  0  0
  -22.6904  -31.3088   21.4139 H   0  0  0  0  0  0
  -23.3755  -35.9638   23.3286 H   0  0  0  0  0  0
  -24.3586  -36.8938   22.2050 H   0  0  0  0  0  0
  -23.7230  -37.6510   23.6654 H   0  0  0  0  0  0
  -26.0438  -31.5924   20.5951 H   0  0  0  0  0  0
  -26.8193  -30.8835   21.9826 H   0  0  0  0  0  0
  -28.0906  -29.0882   21.1750 H   0  0  0  0  0  0
  -26.0176  -25.9985   18.9600 H   0  0  0  0  0  0
  -23.9769  -27.3131   19.0126 H   0  0  0  0  0  0
  -23.7200  -30.6048   19.4060 H   0  0  0  0  0  0
  -22.7338  -29.2496   19.8677 H   0  0  0  0  0  0
  -25.1278  -36.1966   25.0830 H   0  0  0  0  0  0
  -20.9945  -28.3216   24.1430 H   0  0  0  0  0  0
  -20.5647  -26.2264   23.3600 H   0  0  0  0  0  0
  -21.6632  -26.7423   22.1219 H   0  0  0  0  0  0
  -19.6911  -25.6295   21.1218 H   0  0  0  0  0  0
  -19.6684  -27.3200   20.6743 H   0  0  0  0  0  0
  -17.4191  -26.6657   21.4006 H   0  0  0  0  0  0
  -18.0318  -26.0035   22.8996 H   0  0  0  0  0  0
  -19.7937  -30.7230   24.2289 H   0  0  0  0  0  0
  -17.5023  -31.6254   24.5159 H   0  0  0  0  0  0
  -15.5355  -30.2997   23.7632 H   0  0  0  0  0  0
  -15.8650  -28.0819   22.7065 H   0  0  0  0  0  0
  -24.5919  -30.7080   25.7833 H   0  0  0  0  0  0
  -24.9015  -32.2877   26.4962 H   0  0  0  0  0  0
  -25.8155  -30.8850   27.0210 H   0  0  0  0  0  0
  -26.2840  -29.6779   24.1175 H   0  0  0  0  0  0
  -27.4155  -29.7281   25.4500 H   0  0  0  0  0  0
  -27.8647  -30.4356   23.9161 H   0  0  0  0  0  0
  -27.2676  -33.3587   26.2088 H   0  0  0  0  0  0
  -28.3851  -32.6912   25.0278 H   0  0  0  0  0  0
  -28.0764  -31.8414   26.5345 H   0  0  0  0  0  0
  -28.2594  -38.0108   24.7540 H   0  0  0  0  0  0
  -28.1093  -36.2646   24.6244 H   0  0  0  0  0  0
  -27.2317  -37.1401   25.8869 H   0  0  0  0  0  0
  -20.9277  -29.8784   21.6983 H   0  0  0  0  0  0
  -26.0178  -38.2871   24.1448 H   0  0  0  0  0  0
  -31.7243  -22.4545   22.5106 H   0  0  0  0  0  0
  -32.5802  -19.5611   22.6461 H   0  0  0  0  0  0
  -31.9237  -17.3293   21.7921 H   0  0  0  0  0  0
  -28.3975  -19.1132   19.9870 H   0  0  0  0  0  0
  -33.0318  -25.6516   20.6203 H   0  0  0  0  0  0
  -32.3821  -24.0459   20.5122 H   0  0  0  0  0  0
  -34.0090  -24.6898   18.6774 H   0  0  0  0  0  0
  -32.9396  -25.9464   18.1534 H   0  0  0  0  0  0
  -30.9247  -26.4261   19.2723 H   0  0  0  0  0  0
  -30.8431  -26.2007   20.9695 H   0  0  0  0  0  0
  -32.5569  -22.9225   17.9135 H   0  0  0  0  0  0
  -32.7399  -24.1084   16.6652 H   0  0  0  0  0  0
  -29.1694  -23.0812   18.4986 H   0  0  0  0  0  0
  -30.7357  -22.7838   19.1383 H   0  0  0  0  0  0
  -28.0302  -25.6845   14.9273 H   0  0  0  0  0  0
  -29.6710  -25.3746   14.3810 H   0  0  0  0  0  0
  -29.3817  -26.0452   15.9838 H   0  0  0  0  0  0
  -27.3653  -23.3079   14.4042 H   0  0  0  0  0  0
  -28.1861  -21.9547   15.1605 H   0  0  0  0  0  0
  -28.9887  -22.8694   13.8902 H   0  0  0  0  0  0
  -29.9697  -24.4908   22.0590 H   0  0  0  0  0  0
  -28.4156  -24.0891   21.4917 H   0  0  0  0  0  0
  -30.3528  -16.6541   19.2330 H   0  0  0  0  0  0
  -28.7249  -16.7543   19.8160 H   0  0  0  0  0  0
  -27.6514  -24.8389   19.5577 H   0  0  0  0  0  0
  -28.5789  -25.7049   18.3593 H   0  0  0  0  0  0
  -31.0056  -23.5023   15.4837 H   0  0  0  0  0  0
  -30.2538  -22.3153   16.5035 H   0  0  0  0  0  0
  -28.2160  -23.9168   16.6491 H   0  0  0  0  0  0
  -29.0495  -15.2075   21.4185 H   0  0  0  0  0  0
  -30.5999  -25.0565   17.4046 H   0  0  0  0  0  0
  1 25  1  0  0  0
  1 30  2  0  0  0
  1 93  1  0  0  0
  2  3  1  0  0  0
  2 25  1  0  0  0
  2 95  1  0  0  0
  2 96  1  0  0  0
  3  4  1  0  0  0
  3 97  1  0  0  0
  3 98  1  0  0  0
  4  5  1  0  0  0
  4 99  1  0  0  0
  4100  1  0  0  0
  5  6  1  0  0  0
  5 26  1  0  0  0
  5101  1  0  0  0
  6 25  1  0  0  0
  6102  1  0  0  0
  6103  1  0  0  0
  7  8  2  0  0  0
  7 26  1  0  0  0
  7 29  1  0  0  0
  8  9  1  0  0  0
  8 22  1  0  0  0
  9 10  1  0  0  0
  9 27  2  0  0  0
 10 11  2  0  0  0
 10 15  1  0  0  0
 11 12  1  0  0  0
 11104  1  0  0  0
 12 13  2  0  0  0
 12105  1  0  0  0
 13 14  1  0  0  0
 13 31  1  0  0  0
 14 15  2  0  0  0
 14106  1  0  0  0
 15107  1  0  0  0
 16 17  2  0  0  0
 16 21  1  0  0  0
 16 31  1  0  0  0
 17 18  1  0  0  0
 17108  1  0  0  0
 18 19  2  0  0  0
 18109  1  0  0  0
 19 20  1  0  0  0
 19 24  1  0  0  0
 20 21  2  0  0  0
 20110  1  0  0  0
 21 23  1  0  0  0
 22 28  1  0  0  0
 22 32  2  0  0  0
 26 27  1  0  0  0
 28111  1  0  0  0
 28112  1  0  0  0
 29113  1  0  0  0
 29114  1  0  0  0
 33 34  1  0  0  0
 33 66  1  0  0  0
 33 70  2  0  0  0
 34 36  1  0  0  0
 34 59  1  0  0  0
 34115  1  0  0  0
 35 44  2  0  0  0
 35 45  1  0  0  0
 35 68  1  0  0  0
 36 56  1  0  0  0
 36116  1  0  0  0
 37 39  1  0  0  0
 37 47  1  0  0  0
 37 66  1  0  0  0
 37117  1  0  0  0
 38 43  2  0  0  0
 38 46  1  0  0  0
 38 47  1  0  0  0
 39 64  1  0  0  0
 39 67  2  0  0  0
 40 52  1  0  0  0
 40 53  2  0  0  0
 40 58  1  0  0  0
 41118  1  0  0  0
 41119  1  0  0  0
 41120  1  0  0  0
 41 48  1  0  0  0
 42 43  1  0  0  0
 42 66  1  0  0  0
 42121  1  0  0  0
 42122  1  0  0  0
 43 44  1  0  0  0
 44123  1  0  0  0
 45 46  2  0  0  0
 45124  1  0  0  0
 46125  1  0  0  0
 47126  1  0  0  0
 47127  1  0  0  0
 48 56  1  0  0  0
 48 65  1  0  0  0
 48128  1  0  0  0
 49 50  1  0  0  0
 49 53  1  0  0  0
 49 64  1  0  0  0
 49129  1  0  0  0
 50 51  1  0  0  0
 50130  1  0  0  0
 50131  1  0  0  0
 51 52  1  0  0  0
 51132  1  0  0  0
 51133  1  0  0  0
 52134  1  0  0  0
 52135  1  0  0  0
 53 54  1  0  0  0
 54 55  2  0  0  0
 54136  1  0  0  0
 55 57  1  0  0  0
 55137  1  0  0  0
 56 69  2  0  0  0
 57 58  2  0  0  0
 57138  1  0  0  0
 58139  1  0  0  0
 59 60  1  0  0  0
 59 61  1  0  0  0
 59 62  1  0  0  0
 60140  1  0  0  0
 60141  1  0  0  0
 60142  1  0  0  0
 61143  1  0  0  0
 61144  1  0  0  0
 61145  1  0  0  0
 62146  1  0  0  0
 62147  1  0  0  0
 62148  1  0  0  0
 63 65  1  0  0  0
 63149  1  0  0  0
 63150  1  0  0  0
 63151  1  0  0  0
 64152  1  0  0  0
 65153  1  0  0  0
 68 88  1  0  0  0
 71 72  2  0  0  0
 71 73  1  0  0  0
 71154  1  0  0  0
 72 74  1  0  0  0
 72 92  1  0  0  0
 73 86  1  0  0  0
 73 91  2  0  0  0
 74 75  2  0  0  0
 74155  1  0  0  0
 75 77  1  0  0  0
 75156  1  0  0  0
 76 77  2  0  0  0
 76 92  1  0  0  0
 76157  1  0  0  0
 77 87  1  0  0  0
 78 79  1  0  0  0
 78 80  1  0  0  0
 78158  1  0  0  0
 78159  1  0  0  0
 79 81  1  0  0  0
 79160  1  0  0  0
 79161  1  0  0  0
 80 83  1  0  0  0
 80162  1  0  0  0
 80163  1  0  0  0
 81 94  1  0  0  0
 81164  1  0  0  0
 81165  1  0  0  0
 82 83  1  0  0  0
 82 94  1  0  0  0
 82166  1  0  0  0
 82167  1  0  0  0
 83 86  1  0  0  0
 83 88  1  0  0  0
 84168  1  0  0  0
 84169  1  0  0  0
 84170  1  0  0  0
 84 90  1  0  0  0
 85 90  1  0  0  0
 85171  1  0  0  0
 85172  1  0  0  0
 85173  1  0  0  0
 86174  1  0  0  0
 86175  1  0  0  0
 87 93  1  0  0  0
 87176  1  0  0  0
 87177  1  0  0  0
 88178  1  0  0  0
 88179  1  0  0  0
 89 90  1  0  0  0
 89180  1  0  0  0
 89181  1  0  0  0
 89 94  1  0  0  0
 90182  1  0  0  0
 91 92  1  0  0  0
 93183  1  0  0  0
 94184  1  0  0  0
M  CHG  1  94   1
M  ISO  4   1 100  68 101  88 101  93 100
M  END
> <chiral flag>
0

> <version>
0

> <s_m_source_file>
/data/baiqing/PycharmProjects/Reinvent-master-3.2/result/LINK_invent/BTK/process_docking_weight1_custom_sum_contain_oxygen_bond_distance_aromatic_linkinvent_7_9_3/rearranged_h_0110.sdf

> <i_m_source_file_index>
35

> <r_mmod_Potential_Energy-OPLS-2005>
-122.675323486328

> <r_mmod_Stretch_Energy-OPLS-2005>
47.1082038879395

> <r_mmod_Bend_Energy-OPLS-2005>
126.542533874512

> <r_mmod_Torsional_Energy-OPLS-2005>
285.189453125

> <r_mmod_Improper_Torsional_Energy-OPLS-2005>
9.69744205474854

> <r_mmod_Van_der_Waal_Energy-OPLS-2005>
164.296173095703

> <r_mmod_Electrostatic_Energy-OPLS-2005>
-352.879333496094

> <r_mmod_Solvation_Energy-OPLS-2005>
-416.114135742188

> <b_mmod_Minimization_Converged-OPLS-2005>
0

> <r_mmod_RMS_Derivative-OPLS-2005>
2.41888451576233

$$$$
36
                    3D
 Structure written by MMmdl.
169177  0  0  1  0            999 V2000
  -30.6894  -14.5270   20.5434 C   0  0  0  0  0  0
  -30.4255  -12.3340   19.4335 C   0  0  0  0  0  0
  -29.4991  -12.5088   18.2112 C   0  0  0  0  0  0
  -28.0187  -12.3692   18.6197 C   0  0  0  0  0  0
  -27.6581  -13.2168   19.8701 C   0  0  2  0  0  0
  -28.7033  -13.0293   20.9941 C   0  0  0  0  0  0
  -25.2578  -13.8167   20.5703 C   0  0  0  0  0  0
  -24.1843  -13.0435   20.9188 C   0  0  0  0  0  0
  -24.6419  -11.6898   20.8734 C   0  0  0  0  0  0
  -23.9084  -10.4292   21.0405 C   0  0  0  0  0  0
  -24.3634   -9.4214   21.9192 C   0  0  0  0  0  0
  -23.6305   -8.2242   22.0761 C   0  0  0  0  0  0
  -22.4286   -8.0287   21.3541 C   0  0  0  0  0  0
  -21.9932   -9.0251   20.4634 C   0  0  0  0  0  0
  -22.7260  -10.2127   20.3047 C   0  0  0  0  0  0
  -21.6856   -6.0752   22.5289 C   0  0  0  0  0  0
  -21.4006   -6.5650   23.8219 C   0  0  0  0  0  0
  -21.3656   -5.6795   24.9179 C   0  0  0  0  0  0
  -21.6041   -4.3063   24.7227 C   0  0  0  0  0  0
  -21.8813   -3.8156   23.4346 C   0  0  0  0  0  0
  -21.9194   -4.6973   22.3414 C   0  0  0  0  0  0
  -22.7858  -13.5223   21.1847 C   0  0  0  0  0  0
  -22.1658   -4.2167   21.0991 F   0  0  0  0  0  0
  -21.5636   -3.4543   25.7740 F   0  0  0  0  0  0
  -30.0272  -13.3395   20.4340 N   0  0  0  0  0  0
  -26.3021  -12.9359   20.3366 N   0  0  0  0  0  0
  -25.9351  -11.6515   20.5777 N   0  0  0  0  0  0
  -22.0495  -12.8184   22.0373 N   0  0  0  0  0  0
  -25.4253  -15.1895   20.4117 N   0  0  0  0  0  0
  -31.8361  -14.6797   20.1169 O   0  0  0  0  0  0
  -21.6641   -6.8889   21.4251 O   0  0  0  0  0  0
  -22.3549  -14.5539   20.6723 O   0  0  0  0  0  0
  -24.6199  -31.8665   23.2092 C   0  0  0  0  0  0
  -25.9082  -32.4818   23.8395 C   0  0  1  0  0  0
  -27.2265  -27.3847   20.0929 C   0  0  0  0  0  0
  -25.5931  -33.8611   24.2330 N   0  0  0  0  0  0
  -23.4092  -30.4941   21.5498 C   0  0  2  0  0  0
  -24.8545  -28.9681   20.1100 C   0  0  0  0  0  0
  -22.7450  -29.4641   22.4937 C   0  0  0  0  0  0
  -18.0281  -28.1380   22.8462 C   0  0  0  0  0  0
  -24.1481  -36.7273   23.2625 C   0  0  0  0  0  0
  -25.9477  -30.8156   21.3743 C   0  0  0  0  0  0
  -26.0214  -29.4497   20.7160 C   0  0  0  0  0  0
  -27.2059  -28.6657   20.7098 C   0  0  0  0  0  0
  -26.0374  -26.9600   19.4429 C   0  0  0  0  0  0
  -24.8613  -27.7228   19.4698 C   0  0  0  0  0  0
  -23.6196  -29.8376   20.1623 C   0  0  0  0  0  0
  -25.4103  -36.3090   24.0335 C   0  0  1  0  0  0
  -20.5877  -28.3651   23.1284 C   0  0  2  0  0  0
  -20.6764  -26.9382   22.5381 C   0  0  0  0  0  0
  -19.5753  -26.6380   21.5174 C   0  0  0  0  0  0
  -18.1932  -26.7936   22.1584 C   0  0  0  0  0  0
  -19.1534  -28.8835   23.2877 C   0  0  0  0  0  0
  -18.9473  -30.1439   23.8895 C   0  0  0  0  0  0
  -17.6473  -30.6571   24.0561 C   0  0  0  0  0  0
  -25.9045  -34.9470   23.5123 C   0  0  0  0  0  0
  -16.5357  -29.9077   23.6345 C   0  0  0  0  0  0
  -16.7269  -28.6503   23.0339 C   0  0  0  0  0  0
  -26.4473  -31.6603   25.0739 C   0  0  0  0  0  0
  -25.3707  -31.3731   26.1463 C   0  0  0  0  0  0
  -27.0326  -30.3057   24.6115 C   0  0  0  0  0  0
  -27.6026  -32.4320   25.7529 C   0  0  0  0  0  0
  -27.5588  -37.1791   24.8450 C   0  0  0  0  0  0
  -21.4165  -29.3037   22.3704 N   0  0  0  0  0  0
  -26.4271  -37.3790   23.9426 N   0  0  0  0  0  0
  -24.6773  -31.0744   22.1013 N   0  0  0  0  0  0
  -23.4231  -28.8154   23.2943 O   0  0  0  0  0  0
  -28.3616  -26.5702   20.1655 O   0  0  0  0  0  0
  -26.5588  -34.8926   22.4674 O   0  0  0  0  0  0
  -23.5379  -32.1418   23.7461 O   0  0  0  0  0  0
  -30.2038  -24.0798   21.1657 C   0  0  0  0  0  0
  -28.6610  -22.7425   20.2958 C   0  0  0  0  0  0
  -29.0159  -24.0675   20.3772 C   0  0  0  0  0  0
  -30.4965  -22.7914   21.5639 C   0  0  0  0  0  0
  -31.0568  -22.1076   23.9183 C   0  0  0  0  0  0
  -32.8381  -23.1507   22.4655 C   0  0  0  0  0  0
  -28.9000  -19.9035   18.7818 C   0  0  0  0  0  0
  -31.2077  -19.6130   19.6498 C   0  0  0  0  0  0
  -28.2028  -25.1918   19.7262 C   0  0  0  0  0  0
  -29.3265  -17.9836   20.3502 C   0  0  0  0  0  0
  -29.3794  -20.4668   21.2195 C   0  0  0  0  0  0
  -30.3813  -17.0136   20.9811 C   0  0  0  0  0  0
  -31.5754  -22.2796   22.4807 C   0  0  0  0  0  0
  -29.7162  -19.4902   20.0294 C   0  0  0  0  0  0
  -29.5390  -21.9370   21.0105 N   0  0  0  0  0  0
  -29.9633  -15.5851   20.9803 N   0  0  0  0  0  0
  -31.4717  -12.4289   19.1357 H   0  0  0  0  0  0
  -30.3298  -11.3295   19.8486 H   0  0  0  0  0  0
  -29.7466  -11.7753   17.4426 H   0  0  0  0  0  0
  -29.6621  -13.4897   17.7620 H   0  0  0  0  0  0
  -27.8284  -11.3144   18.8171 H   0  0  0  0  0  0
  -27.3715  -12.6413   17.7846 H   0  0  0  0  0  0
  -27.6885  -14.2609   19.5590 H   0  0  0  0  0  0
  -28.6917  -12.0007   21.3559 H   0  0  0  0  0  0
  -28.4686  -13.6499   21.8602 H   0  0  0  0  0  0
  -25.2778   -9.5695   22.4772 H   0  0  0  0  0  0
  -24.0012   -7.4641   22.7477 H   0  0  0  0  0  0
  -21.0874   -8.8756   19.8930 H   0  0  0  0  0  0
  -22.3729  -10.9664   19.6144 H   0  0  0  0  0  0
  -21.1981   -7.6152   23.9734 H   0  0  0  0  0  0
  -21.1484   -6.0525   25.9085 H   0  0  0  0  0  0
  -22.0597   -2.7620   23.2842 H   0  0  0  0  0  0
  -22.4068  -11.9795   22.4690 H   0  0  0  0  0  0
  -21.1093  -13.1182   22.2548 H   0  0  0  0  0  0
  -24.6539  -15.8387   20.5193 H   0  0  0  0  0  0
  -26.2722  -15.6340   20.0810 H   0  0  0  0  0  0
  -26.7167  -32.5502   23.1160 H   0  0  0  0  0  0
  -25.0164  -33.9780   25.0534 H   0  0  0  0  0  0
  -22.6979  -31.3112   21.4115 H   0  0  0  0  0  0
  -23.3786  -35.9558   23.3213 H   0  0  0  0  0  0
  -24.3614  -36.8951   22.2059 H   0  0  0  0  0  0
  -23.7168  -37.6426   23.6685 H   0  0  0  0  0  0
  -26.0749  -31.5812   20.6080 H   0  0  0  0  0  0
  -26.8327  -30.8610   21.9977 H   0  0  0  0  0  0
  -28.0981  -29.0280   21.2016 H   0  0  0  0  0  0
  -25.9641  -26.0307   18.8991 H   0  0  0  0  0  0
  -23.9720  -27.3500   18.9813 H   0  0  0  0  0  0
  -23.7298  -30.6183   19.4084 H   0  0  0  0  0  0
  -22.7441  -29.2608   19.8601 H   0  0  0  0  0  0
  -25.1275  -36.1924   25.0829 H   0  0  0  0  0  0
  -20.9972  -28.3196   24.1402 H   0  0  0  0  0  0
  -20.5630  -26.2255   23.3559 H   0  0  0  0  0  0
  -21.6633  -26.7395   22.1175 H   0  0  0  0  0  0
  -19.6912  -25.6302   21.1181 H   0  0  0  0  0  0
  -19.6727  -27.3209   20.6730 H   0  0  0  0  0  0
  -17.4195  -26.6684   21.3981 H   0  0  0  0  0  0
  -18.0326  -26.0072   22.8975 H   0  0  0  0  0  0
  -19.7957  -30.7244   24.2257 H   0  0  0  0  0  0
  -17.5044  -31.6266   24.5137 H   0  0  0  0  0  0
  -15.5368  -30.2978   23.7706 H   0  0  0  0  0  0
  -15.8660  -28.0843   22.7047 H   0  0  0  0  0  0
  -24.5874  -30.7093   25.7780 H   0  0  0  0  0  0
  -24.8912  -32.2905   26.4891 H   0  0  0  0  0  0
  -25.8019  -30.8895   27.0238 H   0  0  0  0  0  0
  -26.2920  -29.6824   24.1094 H   0  0  0  0  0  0
  -27.4056  -29.7256   25.4562 H   0  0  0  0  0  0
  -27.8751  -30.4398   23.9326 H   0  0  0  0  0  0
  -27.2653  -33.3649   26.2048 H   0  0  0  0  0  0
  -28.3904  -32.6812   25.0412 H   0  0  0  0  0  0
  -28.0609  -31.8467   26.5506 H   0  0  0  0  0  0
  -28.2501  -38.0187   24.7610 H   0  0  0  0  0  0
  -28.1193  -36.2721   24.6120 H   0  0  0  0  0  0
  -27.2336  -37.1225   25.8856 H   0  0  0  0  0  0
  -20.9316  -29.8842   21.7006 H   0  0  0  0  0  0
  -26.0139  -38.2842   24.1505 H   0  0  0  0  0  0
  -30.7666  -24.9602   21.4485 H   0  0  0  0  0  0
  -27.8112  -22.2979   19.7961 H   0  0  0  0  0  0
  -30.1808  -21.4602   23.9595 H   0  0  0  0  0  0
  -30.7666  -23.0629   24.3545 H   0  0  0  0  0  0
  -31.8161  -21.6651   24.5645 H   0  0  0  0  0  0
  -33.2388  -23.2339   21.4547 H   0  0  0  0  0  0
  -33.6201  -22.7131   23.0878 H   0  0  0  0  0  0
  -32.6462  -24.1570   22.8370 H   0  0  0  0  0  0
  -29.0850  -19.2377   17.9375 H   0  0  0  0  0  0
  -29.1584  -20.9043   18.4366 H   0  0  0  0  0  0
  -27.8280  -19.8839   18.9830 H   0  0  0  0  0  0
  -31.4709  -18.9367   18.8354 H   0  0  0  0  0  0
  -31.8588  -19.3840   20.4938 H   0  0  0  0  0  0
  -31.4569  -20.6227   19.3218 H   0  0  0  0  0  0
  -27.2045  -24.8342   19.9684 H   0  0  0  0  0  0
  -28.3179  -25.1405   18.6417 H   0  0  0  0  0  0
  -28.4322  -17.9798   20.9760 H   0  0  0  0  0  0
  -29.0081  -17.5066   19.4224 H   0  0  0  0  0  0
  -29.9556  -20.1612   22.0901 H   0  0  0  0  0  0
  -28.3416  -20.3110   21.5162 H   0  0  0  0  0  0
  -30.5872  -17.3208   22.0066 H   0  0  0  0  0  0
  -31.3241  -17.1064   20.4430 H   0  0  0  0  0  0
  -31.8929  -21.3007   22.1247 H   0  0  0  0  0  0
  -29.0226  -15.3832   21.2827 H   0  0  0  0  0  0
  1 25  1  0  0  0
  1 30  2  0  0  0
  1 86  1  0  0  0
  2  3  1  0  0  0
  2 25  1  0  0  0
  2 87  1  0  0  0
  2 88  1  0  0  0
  3  4  1  0  0  0
  3 89  1  0  0  0
  3 90  1  0  0  0
  4  5  1  0  0  0
  4 91  1  0  0  0
  4 92  1  0  0  0
  5  6  1  0  0  0
  5 26  1  0  0  0
  5 93  1  0  0  0
  6 25  1  0  0  0
  6 94  1  0  0  0
  6 95  1  0  0  0
  7  8  2  0  0  0
  7 26  1  0  0  0
  7 29  1  0  0  0
  8  9  1  0  0  0
  8 22  1  0  0  0
  9 10  1  0  0  0
  9 27  2  0  0  0
 10 11  2  0  0  0
 10 15  1  0  0  0
 11 12  1  0  0  0
 11 96  1  0  0  0
 12 13  2  0  0  0
 12 97  1  0  0  0
 13 14  1  0  0  0
 13 31  1  0  0  0
 14 15  2  0  0  0
 14 98  1  0  0  0
 15 99  1  0  0  0
 16 17  2  0  0  0
 16 21  1  0  0  0
 16 31  1  0  0  0
 17 18  1  0  0  0
 17100  1  0  0  0
 18 19  2  0  0  0
 18101  1  0  0  0
 19 20  1  0  0  0
 19 24  1  0  0  0
 20 21  2  0  0  0
 20102  1  0  0  0
 21 23  1  0  0  0
 22 28  1  0  0  0
 22 32  2  0  0  0
 26 27  1  0  0  0
 28103  1  0  0  0
 28104  1  0  0  0
 29105  1  0  0  0
 29106  1  0  0  0
 33 34  1  0  0  0
 33 66  1  0  0  0
 33 70  2  0  0  0
 34 36  1  0  0  0
 34 59  1  0  0  0
 34107  1  0  0  0
 35 44  2  0  0  0
 35 45  1  0  0  0
 35 68  1  0  0  0
 36 56  1  0  0  0
 36108  1  0  0  0
 37 39  1  0  0  0
 37 47  1  0  0  0
 37 66  1  0  0  0
 37109  1  0  0  0
 38 43  2  0  0  0
 38 46  1  0  0  0
 38 47  1  0  0  0
 39 64  1  0  0  0
 39 67  2  0  0  0
 40 52  1  0  0  0
 40 53  2  0  0  0
 40 58  1  0  0  0
 41110  1  0  0  0
 41111  1  0  0  0
 41112  1  0  0  0
 41 48  1  0  0  0
 42 43  1  0  0  0
 42 66  1  0  0  0
 42113  1  0  0  0
 42114  1  0  0  0
 43 44  1  0  0  0
 44115  1  0  0  0
 45 46  2  0  0  0
 45116  1  0  0  0
 46117  1  0  0  0
 47118  1  0  0  0
 47119  1  0  0  0
 48 56  1  0  0  0
 48 65  1  0  0  0
 48120  1  0  0  0
 49 50  1  0  0  0
 49 53  1  0  0  0
 49 64  1  0  0  0
 49121  1  0  0  0
 50 51  1  0  0  0
 50122  1  0  0  0
 50123  1  0  0  0
 51 52  1  0  0  0
 51124  1  0  0  0
 51125  1  0  0  0
 52126  1  0  0  0
 52127  1  0  0  0
 53 54  1  0  0  0
 54 55  2  0  0  0
 54128  1  0  0  0
 55 57  1  0  0  0
 55129  1  0  0  0
 56 69  2  0  0  0
 57 58  2  0  0  0
 57130  1  0  0  0
 58131  1  0  0  0
 59 60  1  0  0  0
 59 61  1  0  0  0
 59 62  1  0  0  0
 60132  1  0  0  0
 60133  1  0  0  0
 60134  1  0  0  0
 61135  1  0  0  0
 61136  1  0  0  0
 61137  1  0  0  0
 62138  1  0  0  0
 62139  1  0  0  0
 62140  1  0  0  0
 63 65  1  0  0  0
 63141  1  0  0  0
 63142  1  0  0  0
 63143  1  0  0  0
 64144  1  0  0  0
 65145  1  0  0  0
 68 79  1  0  0  0
 71 73  1  0  0  0
 71 74  2  0  0  0
 71146  1  0  0  0
 72 73  2  0  0  0
 72 85  1  0  0  0
 72147  1  0  0  0
 73 79  1  0  0  0
 74 83  1  0  0  0
 74 85  1  0  0  0
 75148  1  0  0  0
 75149  1  0  0  0
 75150  1  0  0  0
 75 83  1  0  0  0
 76 83  1  0  0  0
 76151  1  0  0  0
 76152  1  0  0  0
 76153  1  0  0  0
 77154  1  0  0  0
 77155  1  0  0  0
 77156  1  0  0  0
 77 84  1  0  0  0
 78 84  1  0  0  0
 78157  1  0  0  0
 78158  1  0  0  0
 78159  1  0  0  0
 79160  1  0  0  0
 79161  1  0  0  0
 80 82  1  0  0  0
 80 84  1  0  0  0
 80162  1  0  0  0
 80163  1  0  0  0
 81 84  1  0  0  0
 81 85  1  0  0  0
 81164  1  0  0  0
 81165  1  0  0  0
 82 86  1  0  0  0
 82166  1  0  0  0
 82167  1  0  0  0
 83168  1  0  0  0
 86169  1  0  0  0
M  ISO  4   1 100  68 101  79 101  86 100
M  END
> <chiral flag>
0

> <version>
0

> <s_m_source_file>
/data/baiqing/PycharmProjects/Reinvent-master-3.2/result/LINK_invent/BTK/process_docking_weight1_custom_sum_contain_oxygen_bond_distance_aromatic_linkinvent_7_9_3/rearranged_h_0110.sdf

> <i_m_source_file_index>
36

> <r_mmod_Potential_Energy-OPLS-2005>
20.0998954772949

> <r_mmod_Stretch_Energy-OPLS-2005>
54.2710876464844

> <r_mmod_Bend_Energy-OPLS-2005>
133.046768188477

> <r_mmod_Torsional_Energy-OPLS-2005>
229.939498901367

> <r_mmod_Improper_Torsional_Energy-OPLS-2005>
4.36069583892822

> <r_mmod_Van_der_Waal_Energy-OPLS-2005>
139.658721923828

> <r_mmod_Electrostatic_Energy-OPLS-2005>
-359.759399414062

> <r_mmod_Solvation_Energy-OPLS-2005>
-206.249389648438

> <b_mmod_Minimization_Converged-OPLS-2005>
0

> <r_mmod_RMS_Derivative-OPLS-2005>
2.60947322845459

$$$$
37
                    3D
 Structure written by MMmdl.
168175  0  0  1  0            999 V2000
  -30.8031  -14.5570   20.4170 C   0  0  0  0  0  0
  -30.3860  -12.3563   19.4433 C   0  0  0  0  0  0
  -29.4751  -12.4626   18.2059 C   0  0  0  0  0  0
  -28.0021  -12.3182   18.6244 C   0  0  0  0  0  0
  -27.6246  -13.2174   19.8325 C   0  0  2  0  0  0
  -28.6862  -13.2033   20.9553 C   0  0  0  0  0  0
  -25.2363  -13.7926   20.5781 C   0  0  0  0  0  0
  -24.1675  -13.0202   20.9338 C   0  0  0  0  0  0
  -24.6305  -11.6730   20.8837 C   0  0  0  0  0  0
  -23.8987  -10.4118   21.0479 C   0  0  0  0  0  0
  -24.3547   -9.4049   21.9256 C   0  0  0  0  0  0
  -23.6235   -8.2081   22.0763 C   0  0  0  0  0  0
  -22.4224   -8.0141   21.3543 C   0  0  0  0  0  0
  -21.9865   -9.0090   20.4650 C   0  0  0  0  0  0
  -22.7163  -10.1997   20.3105 C   0  0  0  0  0  0
  -21.6768   -6.0659   22.5277 C   0  0  0  0  0  0
  -21.3940   -6.5590   23.8214 C   0  0  0  0  0  0
  -21.3706   -5.6792   24.9204 C   0  0  0  0  0  0
  -21.6072   -4.3042   24.7283 C   0  0  0  0  0  0
  -21.8783   -3.8100   23.4397 C   0  0  0  0  0  0
  -21.9159   -4.6884   22.3445 C   0  0  0  0  0  0
  -22.7710  -13.5055   21.2024 C   0  0  0  0  0  0
  -22.1617   -4.2068   21.1016 F   0  0  0  0  0  0
  -21.5720   -3.4541   25.7814 F   0  0  0  0  0  0
  -30.0009  -13.4506   20.3522 N   0  0  0  0  0  0
  -26.2836  -12.9237   20.3311 N   0  0  0  0  0  0
  -25.9250  -11.6372   20.5792 N   0  0  0  0  0  0
  -22.0332  -12.8054   22.0586 N   0  0  0  0  0  0
  -25.3857  -15.1577   20.4096 N   0  0  0  0  0  0
  -32.0180  -14.4077   20.3508 O   0  0  0  0  0  0
  -21.6548   -6.8757   21.4240 O   0  0  0  0  0  0
  -22.3445  -14.5382   20.6878 O   0  0  0  0  0  0
  -24.6124  -31.8699   23.2053 C   0  0  0  0  0  0
  -25.9031  -32.4811   23.8347 C   0  0  1  0  0  0
  -27.2414  -27.4486   20.0960 C   0  0  0  0  0  0
  -25.5897  -33.8597   24.2315 N   0  0  0  0  0  0
  -23.3995  -30.4884   21.5463 C   0  0  2  0  0  0
  -24.8493  -28.9513   20.1138 C   0  0  0  0  0  0
  -22.7401  -29.4714   22.5023 C   0  0  0  0  0  0
  -18.0321  -28.1351   22.8481 C   0  0  0  0  0  0
  -24.1488  -36.7307   23.2627 C   0  0  0  0  0  0
  -25.9260  -30.8379   21.3568 C   0  0  0  0  0  0
  -26.0068  -29.4738   20.7024 C   0  0  0  0  0  0
  -27.2074  -28.7345   20.6807 C   0  0  0  0  0  0
  -26.0743  -26.9420   19.4878 C   0  0  0  0  0  0
  -24.8783  -27.6866   19.5002 C   0  0  0  0  0  0
  -23.6050  -29.8097   20.1665 C   0  0  0  0  0  0
  -25.4106  -36.3083   24.0330 C   0  0  1  0  0  0
  -20.5901  -28.3666   23.1273 C   0  0  2  0  0  0
  -20.6838  -26.9424   22.5392 C   0  0  0  0  0  0
  -19.5782  -26.6314   21.5252 C   0  0  0  0  0  0
  -18.1979  -26.7865   22.1665 C   0  0  0  0  0  0
  -19.1567  -28.8837   23.2852 C   0  0  0  0  0  0
  -18.9477  -30.1438   23.8867 C   0  0  0  0  0  0
  -17.6492  -30.6556   24.0540 C   0  0  0  0  0  0
  -25.9030  -34.9447   23.5110 C   0  0  0  0  0  0
  -16.5373  -29.9076   23.6317 C   0  0  0  0  0  0
  -16.7302  -28.6468   23.0365 C   0  0  0  0  0  0
  -26.4437  -31.6596   25.0695 C   0  0  0  0  0  0
  -25.3686  -31.3711   26.1440 C   0  0  0  0  0  0
  -27.0298  -30.3050   24.6072 C   0  0  0  0  0  0
  -27.6008  -32.4334   25.7463 C   0  0  0  0  0  0
  -27.5574  -37.1801   24.8446 C   0  0  0  0  0  0
  -21.4152  -29.3044   22.3716 N   0  0  0  0  0  0
  -26.4295  -37.3770   23.9380 N   0  0  0  0  0  0
  -24.6634  -31.0796   22.0936 N   0  0  0  0  0  0
  -23.4149  -28.8287   23.3107 O   0  0  0  0  0  0
  -28.4093  -26.7143   20.1256 O   0  0  0  0  0  0
  -26.5581  -34.8913   22.4665 O   0  0  0  0  0  0
  -23.5317  -32.1447   23.7475 O   0  0  0  0  0  0
  -26.8300  -17.6367   19.3308 C   0  0  0  0  0  0
  -30.9880  -16.4044   18.7184 C   0  0  0  0  0  0
  -27.5204  -25.5423   22.1560 C   0  0  0  0  0  0
  -28.2342  -17.0541   19.1215 C   0  0  0  0  0  0
  -28.7370  -20.4741   21.0344 C   0  0  0  0  0  0
  -29.1947  -21.8482   20.4475 C   0  0  0  0  0  0
  -29.7327  -19.2908   20.8489 C   0  0  0  0  0  0
  -28.3279  -24.2290   20.0440 C   0  0  0  0  0  0
  -30.4306  -16.0603   20.1311 C   0  0  1  0  0  0
  -29.0363  -16.7337   20.4173 C   0  0  2  0  0  0
  -28.4547  -25.5060   20.9227 C   0  0  1  0  0  0
  -28.2733  -22.9590   20.8295 N   0  3  0  0  0  0
  -29.1485  -17.9746   21.2490 N   0  3  0  0  0  0
  -31.4258  -12.4034   19.1251 H   0  0  0  0  0  0
  -30.2671  -11.3920   19.9394 H   0  0  0  0  0  0
  -29.7321  -11.6928   17.4786 H   0  0  0  0  0  0
  -29.6231  -13.4177   17.6993 H   0  0  0  0  0  0
  -27.8421  -11.2699   18.8701 H   0  0  0  0  0  0
  -27.3499  -12.5316   17.7791 H   0  0  0  0  0  0
  -27.5947  -14.2251   19.4332 H   0  0  0  0  0  0
  -28.7001  -12.2433   21.4740 H   0  0  0  0  0  0
  -28.4549  -13.9527   21.7129 H   0  0  0  0  0  0
  -25.2682   -9.5480   22.4849 H   0  0  0  0  0  0
  -23.9900   -7.4435   22.7467 H   0  0  0  0  0  0
  -21.0804   -8.8582   19.8929 H   0  0  0  0  0  0
  -22.3617  -10.9529   19.6214 H   0  0  0  0  0  0
  -21.1822   -7.6083   23.9680 H   0  0  0  0  0  0
  -21.1644   -6.0544   25.9132 H   0  0  0  0  0  0
  -22.0537   -2.7541   23.2935 H   0  0  0  0  0  0
  -22.3853  -11.9678   22.4963 H   0  0  0  0  0  0
  -21.0966  -13.1097   22.2848 H   0  0  0  0  0  0
  -24.5975  -15.7866   20.4962 H   0  0  0  0  0  0
  -26.1860  -15.5844   19.9683 H   0  0  0  0  0  0
  -26.7138  -32.5517   23.1125 H   0  0  0  0  0  0
  -25.0084  -33.9755   25.0494 H   0  0  0  0  0  0
  -22.6867  -31.3041   21.4048 H   0  0  0  0  0  0
  -23.3726  -35.9661   23.3302 H   0  0  0  0  0  0
  -24.3589  -36.8917   22.2039 H   0  0  0  0  0  0
  -23.7288  -37.6532   23.6650 H   0  0  0  0  0  0
  -26.0474  -31.6107   20.5969 H   0  0  0  0  0  0
  -26.8090  -30.8838   21.9820 H   0  0  0  0  0  0
  -28.1041  -29.1424   21.1242 H   0  0  0  0  0  0
  -26.0777  -25.9795   19.0017 H   0  0  0  0  0  0
  -23.9873  -27.2831   19.0404 H   0  0  0  0  0  0
  -23.6880  -30.5755   19.3952 H   0  0  0  0  0  0
  -22.7329  -29.2160   19.8916 H   0  0  0  0  0  0
  -25.1286  -36.1925   25.0831 H   0  0  0  0  0  0
  -20.9985  -28.3236   24.1387 H   0  0  0  0  0  0
  -21.6682  -26.7508   22.1113 H   0  0  0  0  0  0
  -20.5814  -26.2277   23.3580 H   0  0  0  0  0  0
  -19.6927  -25.6203   21.1303 H   0  0  0  0  0  0
  -19.6664  -27.3050   20.6729 H   0  0  0  0  0  0
  -17.4187  -26.6516   21.4126 H   0  0  0  0  0  0
  -18.0479  -26.0062   22.9146 H   0  0  0  0  0  0
  -19.7994  -30.7285   24.2116 H   0  0  0  0  0  0
  -17.5072  -31.6261   24.5105 H   0  0  0  0  0  0
  -15.5379  -30.2954   23.7694 H   0  0  0  0  0  0
  -15.8709  -28.0814   22.7072 H   0  0  0  0  0  0
  -24.5791  -30.7147   25.7749 H   0  0  0  0  0  0
  -24.8935  -32.2885   26.4925 H   0  0  0  0  0  0
  -25.7971  -30.8802   27.0193 H   0  0  0  0  0  0
  -26.2857  -29.6801   24.1102 H   0  0  0  0  0  0
  -27.4097  -29.7272   25.4523 H   0  0  0  0  0  0
  -27.8666  -30.4429   23.9221 H   0  0  0  0  0  0
  -27.2586  -33.3579   26.2135 H   0  0  0  0  0  0
  -28.3719  -32.7024   25.0231 H   0  0  0  0  0  0
  -28.0789  -31.8431   26.5287 H   0  0  0  0  0  0
  -28.2584  -38.0104   24.7468 H   0  0  0  0  0  0
  -28.1079  -36.2627   24.6283 H   0  0  0  0  0  0
  -27.2293  -37.1465   25.8854 H   0  0  0  0  0  0
  -20.9380  -29.8596   21.6777 H   0  0  0  0  0  0
  -26.0167  -38.2858   24.1321 H   0  0  0  0  0  0
  -26.1316  -17.2088   18.6060 H   0  0  0  0  0  0
  -26.8129  -18.7142   19.1856 H   0  0  0  0  0  0
  -26.4405  -17.4463   20.3283 H   0  0  0  0  0  0
  -32.0332  -16.1079   18.5940 H   0  0  0  0  0  0
  -30.4362  -15.8787   17.9346 H   0  0  0  0  0  0
  -30.9663  -17.4682   18.4940 H   0  0  0  0  0  0
  -27.6828  -24.6907   22.8138 H   0  0  0  0  0  0
  -26.4661  -25.5392   21.8804 H   0  0  0  0  0  0
  -27.7050  -26.4376   22.7507 H   0  0  0  0  0  0
  -28.7651  -17.7662   18.4890 H   0  0  0  0  0  0
  -28.1598  -16.1522   18.5171 H   0  0  0  0  0  0
  -27.7717  -20.2074   20.5996 H   0  0  0  0  0  0
  -28.5397  -20.5848   22.1027 H   0  0  0  0  0  0
  -29.2578  -21.7718   19.3600 H   0  0  0  0  0  0
  -30.2013  -22.0972   20.7884 H   0  0  0  0  0  0
  -30.6153  -19.4717   21.4650 H   0  0  0  0  0  0
  -30.1038  -19.2478   19.8261 H   0  0  0  0  0  0
  -29.1455  -24.2097   19.3214 H   0  0  0  0  0  0
  -27.4179  -24.2755   19.4515 H   0  0  0  0  0  0
  -31.1239  -16.5628   20.8102 H   0  0  0  0  0  0
  -28.4448  -16.0452   21.0189 H   0  0  0  0  0  0
  -29.4682  -25.4900   21.3278 H   0  0  0  0  0  0
  -28.4310  -23.1734   21.8024 H   0  0  0  0  0  0
  -27.3285  -22.6135   20.7491 H   0  0  0  0  0  0
  -28.5447  -18.2454   20.4872 H   0  0  0  0  0  0
  -30.1195  -17.7075   21.2970 H   0  0  0  0  0  0
  1 25  1  0  0  0
  1 30  2  0  0  0
  1 79  1  0  0  0
  2  3  1  0  0  0
  2 25  1  0  0  0
  2 84  1  0  0  0
  2 85  1  0  0  0
  3  4  1  0  0  0
  3 86  1  0  0  0
  3 87  1  0  0  0
  4  5  1  0  0  0
  4 88  1  0  0  0
  4 89  1  0  0  0
  5  6  1  0  0  0
  5 26  1  0  0  0
  5 90  1  0  0  0
  6 25  1  0  0  0
  6 91  1  0  0  0
  6 92  1  0  0  0
  7  8  2  0  0  0
  7 26  1  0  0  0
  7 29  1  0  0  0
  8  9  1  0  0  0
  8 22  1  0  0  0
  9 10  1  0  0  0
  9 27  2  0  0  0
 10 11  2  0  0  0
 10 15  1  0  0  0
 11 12  1  0  0  0
 11 93  1  0  0  0
 12 13  2  0  0  0
 12 94  1  0  0  0
 13 14  1  0  0  0
 13 31  1  0  0  0
 14 15  2  0  0  0
 14 95  1  0  0  0
 15 96  1  0  0  0
 16 17  2  0  0  0
 16 21  1  0  0  0
 16 31  1  0  0  0
 17 18  1  0  0  0
 17 97  1  0  0  0
 18 19  2  0  0  0
 18 98  1  0  0  0
 19 20  1  0  0  0
 19 24  1  0  0  0
 20 21  2  0  0  0
 20 99  1  0  0  0
 21 23  1  0  0  0
 22 28  1  0  0  0
 22 32  2  0  0  0
 26 27  1  0  0  0
 28100  1  0  0  0
 28101  1  0  0  0
 29102  1  0  0  0
 29103  1  0  0  0
 33 34  1  0  0  0
 33 66  1  0  0  0
 33 70  2  0  0  0
 34 36  1  0  0  0
 34 59  1  0  0  0
 34104  1  0  0  0
 35 44  2  0  0  0
 35 45  1  0  0  0
 35 68  1  0  0  0
 36 56  1  0  0  0
 36105  1  0  0  0
 37 39  1  0  0  0
 37 47  1  0  0  0
 37 66  1  0  0  0
 37106  1  0  0  0
 38 43  2  0  0  0
 38 46  1  0  0  0
 38 47  1  0  0  0
 39 64  1  0  0  0
 39 67  2  0  0  0
 40 52  1  0  0  0
 40 53  2  0  0  0
 40 58  1  0  0  0
 41107  1  0  0  0
 41108  1  0  0  0
 41109  1  0  0  0
 41 48  1  0  0  0
 42 43  1  0  0  0
 42 66  1  0  0  0
 42110  1  0  0  0
 42111  1  0  0  0
 43 44  1  0  0  0
 44112  1  0  0  0
 45 46  2  0  0  0
 45113  1  0  0  0
 46114  1  0  0  0
 47115  1  0  0  0
 47116  1  0  0  0
 48 56  1  0  0  0
 48 65  1  0  0  0
 48117  1  0  0  0
 49 50  1  0  0  0
 49 53  1  0  0  0
 49 64  1  0  0  0
 49118  1  0  0  0
 50 51  1  0  0  0
 50119  1  0  0  0
 50120  1  0  0  0
 51 52  1  0  0  0
 51121  1  0  0  0
 51122  1  0  0  0
 52123  1  0  0  0
 52124  1  0  0  0
 53 54  1  0  0  0
 54 55  2  0  0  0
 54125  1  0  0  0
 55 57  1  0  0  0
 55126  1  0  0  0
 56 69  2  0  0  0
 57 58  2  0  0  0
 57127  1  0  0  0
 58128  1  0  0  0
 59 60  1  0  0  0
 59 61  1  0  0  0
 59 62  1  0  0  0
 60129  1  0  0  0
 60130  1  0  0  0
 60131  1  0  0  0
 61132  1  0  0  0
 61133  1  0  0  0
 61134  1  0  0  0
 62135  1  0  0  0
 62136  1  0  0  0
 62137  1  0  0  0
 63 65  1  0  0  0
 63138  1  0  0  0
 63139  1  0  0  0
 63140  1  0  0  0
 64141  1  0  0  0
 65142  1  0  0  0
 68 81  1  0  0  0
 71 74  1  0  0  0
 71143  1  0  0  0
 71144  1  0  0  0
 71145  1  0  0  0
 72146  1  0  0  0
 72147  1  0  0  0
 72148  1  0  0  0
 72 79  1  0  0  0
 73149  1  0  0  0
 73150  1  0  0  0
 73151  1  0  0  0
 73 81  1  0  0  0
 74152  1  0  0  0
 74153  1  0  0  0
 74 80  1  0  0  0
 75 76  1  0  0  0
 75 77  1  0  0  0
 75154  1  0  0  0
 75155  1  0  0  0
 76 82  1  0  0  0
 76156  1  0  0  0
 76157  1  0  0  0
 77 83  1  0  0  0
 77158  1  0  0  0
 77159  1  0  0  0
 78 81  1  0  0  0
 78 82  1  0  0  0
 78160  1  0  0  0
 78161  1  0  0  0
 79 80  1  0  0  0
 79162  1  0  0  0
 80 83  1  0  0  0
 80163  1  0  0  0
 81164  1  0  0  0
 82165  1  0  0  0
 82166  1  0  0  0
 83167  1  0  0  0
 83168  1  0  0  0
M  CHG  2  82   1  83   1
M  ISO  4   1 100  68 101  79 100  81 101
M  END
> <chiral flag>
0

> <version>
0

> <s_m_source_file>
/data/baiqing/PycharmProjects/Reinvent-master-3.2/result/LINK_invent/BTK/process_docking_weight1_custom_sum_contain_oxygen_bond_distance_aromatic_linkinvent_7_9_3/rearranged_h_0110.sdf

> <i_m_source_file_index>
37

> <r_mmod_Potential_Energy-OPLS-2005>
109.730094909668

> <r_mmod_Stretch_Energy-OPLS-2005>
46.3712005615234

> <r_mmod_Bend_Energy-OPLS-2005>
359.845367431641

> <r_mmod_Torsional_Energy-OPLS-2005>
296.678527832031

> <r_mmod_Improper_Torsional_Energy-OPLS-2005>
11.5942144393921

> <r_mmod_Van_der_Waal_Energy-OPLS-2005>
132.014099121094

> <r_mmod_Electrostatic_Energy-OPLS-2005>
154.990234375

> <r_mmod_Solvation_Energy-OPLS-2005>
-949.417419433594

> <b_mmod_Minimization_Converged-OPLS-2005>
0

> <r_mmod_RMS_Derivative-OPLS-2005>
6.42664098739624

$$$$
38
                    3D
 Structure written by MMmdl.
169178  0  0  1  0            999 V2000
  -30.6709  -14.7327   20.4422 C   0  0  0  0  0  0
  -30.4091  -12.4583   19.4731 C   0  0  0  0  0  0
  -29.4991  -12.5139   18.2303 C   0  0  0  0  0  0
  -28.0267  -12.3422   18.6438 C   0  0  0  0  0  0
  -27.6316  -13.2458   19.8423 C   0  0  2  0  0  0
  -28.6757  -13.2205   20.9783 C   0  0  0  0  0  0
  -25.2460  -13.8226   20.5690 C   0  0  0  0  0  0
  -24.1776  -13.0435   20.9212 C   0  0  0  0  0  0
  -24.6397  -11.6930   20.8744 C   0  0  0  0  0  0
  -23.9087  -10.4287   21.0388 C   0  0  0  0  0  0
  -24.3637   -9.4207   21.9169 C   0  0  0  0  0  0
  -23.6312   -8.2242   22.0738 C   0  0  0  0  0  0
  -22.4289   -8.0276   21.3539 C   0  0  0  0  0  0
  -21.9932   -9.0243   20.4638 C   0  0  0  0  0  0
  -22.7255  -10.2128   20.3048 C   0  0  0  0  0  0
  -21.6876   -6.0741   22.5273 C   0  0  0  0  0  0
  -21.4018   -6.5633   23.8203 C   0  0  0  0  0  0
  -21.3669   -5.6779   24.9156 C   0  0  0  0  0  0
  -21.6058   -4.3046   24.7212 C   0  0  0  0  0  0
  -21.8825   -3.8144   23.4333 C   0  0  0  0  0  0
  -21.9196   -4.6962   22.3395 C   0  0  0  0  0  0
  -22.7805  -13.5197   21.1864 C   0  0  0  0  0  0
  -22.1669   -4.2143   21.0976 F   0  0  0  0  0  0
  -21.5635   -3.4538   25.7737 F   0  0  0  0  0  0
  -29.9724  -13.5487   20.3805 N   0  0  0  0  0  0
  -26.2888  -12.9467   20.3262 N   0  0  0  0  0  0
  -25.9329  -11.6593   20.5743 N   0  0  0  0  0  0
  -22.0475  -12.8172   22.0430 N   0  0  0  0  0  0
  -25.4157  -15.1953   20.4136 N   0  0  0  0  0  0
  -31.8848  -14.6682   20.2558 O   0  0  0  0  0  0
  -21.6649   -6.8875   21.4238 O   0  0  0  0  0  0
  -22.3483  -14.5491   20.6702 O   0  0  0  0  0  0
  -24.6294  -31.8543   23.1978 C   0  0  0  0  0  0
  -25.9119  -32.4739   23.8328 C   0  0  1  0  0  0
  -27.2086  -27.2596   20.1539 C   0  0  0  0  0  0
  -25.5930  -33.8545   24.2248 N   0  0  0  0  0  0
  -23.4278  -30.4781   21.5353 C   0  0  2  0  0  0
  -24.8763  -28.9218   20.1106 C   0  0  0  0  0  0
  -22.7481  -29.4610   22.4833 C   0  0  0  0  0  0
  -18.0284  -28.1395   22.8476 C   0  0  0  0  0  0
  -24.1489  -36.7275   23.2640 C   0  0  0  0  0  0
  -25.9730  -30.7692   21.3781 C   0  0  0  0  0  0
  -26.0466  -29.3900   20.7240 C   0  0  0  0  0  0
  -27.2192  -28.5704   20.7375 C   0  0  0  0  0  0
  -26.0265  -26.8620   19.4966 C   0  0  0  0  0  0
  -24.8699  -27.6630   19.4889 C   0  0  0  0  0  0
  -23.6496  -29.8099   20.1522 C   0  0  0  0  0  0
  -25.4120  -36.3048   24.0312 C   0  0  1  0  0  0
  -20.5889  -28.3709   23.1231 C   0  0  2  0  0  0
  -20.6765  -26.9412   22.5382 C   0  0  0  0  0  0
  -19.5752  -26.6374   21.5184 C   0  0  0  0  0  0
  -18.1930  -26.7931   22.1604 C   0  0  0  0  0  0
  -19.1542  -28.8863   23.2856 C   0  0  0  0  0  0
  -18.9482  -30.1463   23.8876 C   0  0  0  0  0  0
  -17.6488  -30.6594   24.0570 C   0  0  0  0  0  0
  -25.9063  -34.9426   23.5083 C   0  0  0  0  0  0
  -16.5373  -29.9105   23.6331 C   0  0  0  0  0  0
  -16.7267  -28.6520   23.0337 C   0  0  0  0  0  0
  -26.4497  -31.6600   25.0739 C   0  0  0  0  0  0
  -25.3718  -31.3783   26.1465 C   0  0  0  0  0  0
  -27.0392  -30.3030   24.6259 C   0  0  0  0  0  0
  -27.6039  -32.4358   25.7517 C   0  0  0  0  0  0
  -27.5567  -37.1791   24.8454 C   0  0  0  0  0  0
  -21.4175  -29.3067   22.3604 N   0  0  0  0  0  0
  -26.4281  -37.3757   23.9409 N   0  0  0  0  0  0
  -24.6952  -31.0529   22.0935 N   0  0  0  0  0  0
  -23.4190  -28.8116   23.2896 O   0  0  0  0  0  0
  -28.2849  -26.3525   20.1962 O   0  0  0  0  0  0
  -26.5621  -34.8904   22.4641 O   0  0  0  0  0  0
  -23.5450  -32.1337   23.7299 O   0  0  0  0  0  0
  -29.6576  -18.8258   18.1064 C   0  0  0  0  0  0
  -31.6737  -17.2658   19.1602 C   0  0  0  0  0  0
  -30.8150  -18.6128   17.3389 C   0  0  0  0  0  0
  -31.8920  -17.9373   17.9416 C   0  0  0  0  0  0
  -29.5658  -18.3981   19.4518 C   0  0  0  0  0  0
  -30.4102  -17.2511   19.8155 C   0  0  0  0  0  0
  -30.8953  -19.2236   15.9438 C   0  0  0  0  0  0
  -33.2722  -17.8651   17.3010 C   0  0  0  0  0  0
  -31.3413  -18.2477   14.8384 C   0  0  0  0  0  0
  -33.3078  -17.1477   15.9419 C   0  0  0  0  0  0
  -28.8353  -19.4867   20.3569 C   0  0  0  0  0  0
  -29.1163  -21.0514   19.9411 C   0  0  0  0  0  0
  -28.6994  -23.6552   20.0224 C   0  0  0  0  0  0
  -28.0168  -24.9572   20.6973 C   0  0  0  0  0  0
  -30.0145  -15.9726   20.5007 N   0  0  0  0  0  0
  -32.7925  -17.9740   14.8320 N   0  3  0  0  0  0
  -28.4108  -22.2479   20.6004 N   0  3  0  0  0  0
  -31.4509  -12.5545   19.1616 H   0  0  0  0  0  0
  -30.3311  -11.4918   19.9719 H   0  0  0  0  0  0
  -29.7821  -11.7450   17.5114 H   0  0  0  0  0  0
  -29.6291  -13.4709   17.7208 H   0  0  0  0  0  0
  -27.8789  -11.2933   18.9015 H   0  0  0  0  0  0
  -27.3729  -12.5431   17.7941 H   0  0  0  0  0  0
  -27.6128  -14.2623   19.4500 H   0  0  0  0  0  0
  -28.7101  -12.2424   21.4602 H   0  0  0  0  0  0
  -28.4168  -13.9440   21.7536 H   0  0  0  0  0  0
  -25.2788   -9.5690   22.4731 H   0  0  0  0  0  0
  -24.0039   -7.4636   22.7450 H   0  0  0  0  0  0
  -21.0872   -8.8760   19.8930 H   0  0  0  0  0  0
  -22.3713  -10.9665   19.6152 H   0  0  0  0  0  0
  -21.2002   -7.6139   23.9708 H   0  0  0  0  0  0
  -21.1492   -6.0508   25.9068 H   0  0  0  0  0  0
  -22.0600   -2.7610   23.2834 H   0  0  0  0  0  0
  -22.4143  -11.9869   22.4841 H   0  0  0  0  0  0
  -21.1069  -13.1153   22.2583 H   0  0  0  0  0  0
  -24.6474  -15.8505   20.5140 H   0  0  0  0  0  0
  -26.2662  -15.6361   20.0879 H   0  0  0  0  0  0
  -26.7193  -32.5397   23.1067 H   0  0  0  0  0  0
  -25.0105  -33.9698   25.0410 H   0  0  0  0  0  0
  -22.7259  -31.3004   21.3819 H   0  0  0  0  0  0
  -23.3744  -35.9611   23.3295 H   0  0  0  0  0  0
  -24.3577  -36.8913   22.2059 H   0  0  0  0  0  0
  -23.7245  -37.6472   23.6683 H   0  0  0  0  0  0
  -26.1165  -31.5298   20.6103 H   0  0  0  0  0  0
  -26.8477  -30.8158   22.0142 H   0  0  0  0  0  0
  -28.1091  -28.9201   21.2409 H   0  0  0  0  0  0
  -25.9815  -25.8994   19.0044 H   0  0  0  0  0  0
  -23.9714  -27.2958   19.0128 H   0  0  0  0  0  0
  -23.7823  -30.5831   19.3935 H   0  0  0  0  0  0
  -22.7695  -29.2435   19.8439 H   0  0  0  0  0  0
  -25.1303  -36.1881   25.0794 H   0  0  0  0  0  0
  -21.0004  -28.3290   24.1348 H   0  0  0  0  0  0
  -20.5622  -26.2322   23.3600 H   0  0  0  0  0  0
  -21.6642  -26.7392   22.1217 H   0  0  0  0  0  0
  -19.6931  -25.6278   21.1242 H   0  0  0  0  0  0
  -19.6721  -27.3149   20.6693 H   0  0  0  0  0  0
  -17.4192  -26.6633   21.4013 H   0  0  0  0  0  0
  -18.0369  -26.0089   22.9019 H   0  0  0  0  0  0
  -19.7974  -30.7263   24.2245 H   0  0  0  0  0  0
  -17.5060  -31.6274   24.5163 H   0  0  0  0  0  0
  -15.5379  -30.3013   23.7690 H   0  0  0  0  0  0
  -15.8648  -28.0847   22.7070 H   0  0  0  0  0  0
  -24.5849  -30.7175   25.7801 H   0  0  0  0  0  0
  -24.8973  -32.2999   26.4879 H   0  0  0  0  0  0
  -25.8028  -30.8962   27.0253 H   0  0  0  0  0  0
  -26.3039  -29.6737   24.1244 H   0  0  0  0  0  0
  -27.4049  -29.7319   25.4802 H   0  0  0  0  0  0
  -27.8895  -30.4322   23.9554 H   0  0  0  0  0  0
  -27.2627  -33.3647   26.2095 H   0  0  0  0  0  0
  -28.3864  -32.6940   25.0365 H   0  0  0  0  0  0
  -28.0699  -31.8495   26.5446 H   0  0  0  0  0  0
  -28.2560  -38.0108   24.7513 H   0  0  0  0  0  0
  -28.1085  -36.2639   24.6264 H   0  0  0  0  0  0
  -27.2290  -37.1411   25.8854 H   0  0  0  0  0  0
  -20.9326  -29.8869   21.6899 H   0  0  0  0  0  0
  -26.0144  -38.2809   24.1444 H   0  0  0  0  0  0
  -28.9007  -19.4781   17.6974 H   0  0  0  0  0  0
  -32.5017  -16.6848   19.5223 H   0  0  0  0  0  0
  -31.5292  -20.1116   15.9696 H   0  0  0  0  0  0
  -29.9012  -19.5825   15.6696 H   0  0  0  0  0  0
  -33.9497  -17.3424   17.9772 H   0  0  0  0  0  0
  -33.6751  -18.8768   17.2210 H   0  0  0  0  0  0
  -31.1042  -18.6909   13.8697 H   0  0  0  0  0  0
  -30.7744  -17.3182   14.8947 H   0  0  0  0  0  0
  -32.7770  -16.1968   15.9931 H   0  0  0  0  0  0
  -34.3436  -16.9087   15.7060 H   0  0  0  0  0  0
  -29.1280  -19.3259   21.3956 H   0  0  0  0  0  0
  -27.7639  -19.2921   20.3079 H   0  0  0  0  0  0
  -28.8911  -21.1884   18.8865 H   0  0  0  0  0  0
  -30.1891  -21.2234   20.0307 H   0  0  0  0  0  0
  -28.4082  -23.6446   18.9713 H   0  0  0  0  0  0
  -29.7789  -23.8052   20.0311 H   0  0  0  0  0  0
  -28.3298  -24.9745   21.7409 H   0  0  0  0  0  0
  -26.9458  -24.7731   20.7483 H   0  0  0  0  0  0
  -29.0470  -15.9151   20.7828 H   0  0  0  0  0  0
  -33.3045  -18.8400   14.7820 H   0  0  0  0  0  0
  -32.9921  -17.4781   13.9784 H   0  0  0  0  0  0
  -28.6489  -22.2396   21.5796 H   0  0  0  0  0  0
  -27.4163  -22.0860   20.5462 H   0  0  0  0  0  0
  1 25  1  0  0  0
  1 30  2  0  0  0
  1 85  1  0  0  0
  2  3  1  0  0  0
  2 25  1  0  0  0
  2 88  1  0  0  0
  2 89  1  0  0  0
  3  4  1  0  0  0
  3 90  1  0  0  0
  3 91  1  0  0  0
  4  5  1  0  0  0
  4 92  1  0  0  0
  4 93  1  0  0  0
  5  6  1  0  0  0
  5 26  1  0  0  0
  5 94  1  0  0  0
  6 25  1  0  0  0
  6 95  1  0  0  0
  6 96  1  0  0  0
  7  8  2  0  0  0
  7 26  1  0  0  0
  7 29  1  0  0  0
  8  9  1  0  0  0
  8 22  1  0  0  0
  9 10  1  0  0  0
  9 27  2  0  0  0
 10 11  2  0  0  0
 10 15  1  0  0  0
 11 12  1  0  0  0
 11 97  1  0  0  0
 12 13  2  0  0  0
 12 98  1  0  0  0
 13 14  1  0  0  0
 13 31  1  0  0  0
 14 15  2  0  0  0
 14 99  1  0  0  0
 15100  1  0  0  0
 16 17  2  0  0  0
 16 21  1  0  0  0
 16 31  1  0  0  0
 17 18  1  0  0  0
 17101  1  0  0  0
 18 19  2  0  0  0
 18102  1  0  0  0
 19 20  1  0  0  0
 19 24  1  0  0  0
 20 21  2  0  0  0
 20103  1  0  0  0
 21 23  1  0  0  0
 22 28  1  0  0  0
 22 32  2  0  0  0
 26 27  1  0  0  0
 28104  1  0  0  0
 28105  1  0  0  0
 29106  1  0  0  0
 29107  1  0  0  0
 33 34  1  0  0  0
 33 66  1  0  0  0
 33 70  2  0  0  0
 34 36  1  0  0  0
 34 59  1  0  0  0
 34108  1  0  0  0
 35 44  2  0  0  0
 35 45  1  0  0  0
 35 68  1  0  0  0
 36 56  1  0  0  0
 36109  1  0  0  0
 37 39  1  0  0  0
 37 47  1  0  0  0
 37 66  1  0  0  0
 37110  1  0  0  0
 38 43  2  0  0  0
 38 46  1  0  0  0
 38 47  1  0  0  0
 39 64  1  0  0  0
 39 67  2  0  0  0
 40 52  1  0  0  0
 40 53  2  0  0  0
 40 58  1  0  0  0
 41111  1  0  0  0
 41112  1  0  0  0
 41113  1  0  0  0
 41 48  1  0  0  0
 42 43  1  0  0  0
 42 66  1  0  0  0
 42114  1  0  0  0
 42115  1  0  0  0
 43 44  1  0  0  0
 44116  1  0  0  0
 45 46  2  0  0  0
 45117  1  0  0  0
 46118  1  0  0  0
 47119  1  0  0  0
 47120  1  0  0  0
 48 56  1  0  0  0
 48 65  1  0  0  0
 48121  1  0  0  0
 49 50  1  0  0  0
 49 53  1  0  0  0
 49 64  1  0  0  0
 49122  1  0  0  0
 50 51  1  0  0  0
 50123  1  0  0  0
 50124  1  0  0  0
 51 52  1  0  0  0
 51125  1  0  0  0
 51126  1  0  0  0
 52127  1  0  0  0
 52128  1  0  0  0
 53 54  1  0  0  0
 54 55  2  0  0  0
 54129  1  0  0  0
 55 57  1  0  0  0
 55130  1  0  0  0
 56 69  2  0  0  0
 57 58  2  0  0  0
 57131  1  0  0  0
 58132  1  0  0  0
 59 60  1  0  0  0
 59 61  1  0  0  0
 59 62  1  0  0  0
 60133  1  0  0  0
 60134  1  0  0  0
 60135  1  0  0  0
 61136  1  0  0  0
 61137  1  0  0  0
 61138  1  0  0  0
 62139  1  0  0  0
 62140  1  0  0  0
 62141  1  0  0  0
 63 65  1  0  0  0
 63142  1  0  0  0
 63143  1  0  0  0
 63144  1  0  0  0
 64145  1  0  0  0
 65146  1  0  0  0
 68 84  1  0  0  0
 71 73  2  0  0  0
 71 75  1  0  0  0
 71147  1  0  0  0
 72 74  2  0  0  0
 72 76  1  0  0  0
 72148  1  0  0  0
 73 74  1  0  0  0
 73 77  1  0  0  0
 74 78  1  0  0  0
 75 76  2  0  0  0
 75 81  1  0  0  0
 76 85  1  0  0  0
 77 79  1  0  0  0
 77149  1  0  0  0
 77150  1  0  0  0
 78 80  1  0  0  0
 78151  1  0  0  0
 78152  1  0  0  0
 79 86  1  0  0  0
 79153  1  0  0  0
 79154  1  0  0  0
 80 86  1  0  0  0
 80155  1  0  0  0
 80156  1  0  0  0
 81 82  1  0  0  0
 81157  1  0  0  0
 81158  1  0  0  0
 82 87  1  0  0  0
 82159  1  0  0  0
 82160  1  0  0  0
 83 84  1  0  0  0
 83 87  1  0  0  0
 83161  1  0  0  0
 83162  1  0  0  0
 84163  1  0  0  0
 84164  1  0  0  0
 85165  1  0  0  0
 86166  1  0  0  0
 86167  1  0  0  0
 87168  1  0  0  0
 87169  1  0  0  0
M  CHG  2  86   1  87   1
M  ISO  4   1 100  68 101  84 101  85 100
M  END
> <chiral flag>
0

> <version>
0

> <s_m_source_file>
/data/baiqing/PycharmProjects/Reinvent-master-3.2/result/LINK_invent/BTK/process_docking_weight1_custom_sum_contain_oxygen_bond_distance_aromatic_linkinvent_7_9_3/rearranged_h_0110.sdf

> <i_m_source_file_index>
38

> <r_mmod_Potential_Energy-OPLS-2005>
62.2153167724609

> <r_mmod_Stretch_Energy-OPLS-2005>
138.693878173828

> <r_mmod_Bend_Energy-OPLS-2005>
195.176177978516

> <r_mmod_Torsional_Energy-OPLS-2005>
411.518737792969

> <r_mmod_Improper_Torsional_Energy-OPLS-2005>
11.3807373046875

> <r_mmod_Van_der_Waal_Energy-OPLS-2005>
161.818771362305

> <r_mmod_Electrostatic_Energy-OPLS-2005>
-55.503303527832

> <r_mmod_Solvation_Energy-OPLS-2005>
-893.745056152344

> <b_mmod_Minimization_Converged-OPLS-2005>
0

> <r_mmod_RMS_Derivative-OPLS-2005>
3.00849294662476

$$$$
39
                    3D
 Structure written by MMmdl.
162171  0  0  1  0            999 V2000
  -30.6789  -14.4211   20.5938 C   0  0  0  0  0  0
  -30.4312  -12.2735   19.4204 C   0  0  0  0  0  0
  -29.5003  -12.5095   18.2115 C   0  0  0  0  0  0
  -28.0191  -12.3734   18.6165 C   0  0  0  0  0  0
  -27.6722  -13.1891   19.8904 C   0  0  2  0  0  0
  -28.7090  -12.9149   21.0084 C   0  0  0  0  0  0
  -25.2640  -13.8105   20.5665 C   0  0  0  0  0  0
  -24.1864  -13.0419   20.9147 C   0  0  0  0  0  0
  -24.6390  -11.6876   20.8727 C   0  0  0  0  0  0
  -23.9035  -10.4288   21.0416 C   0  0  0  0  0  0
  -24.3588   -9.4210   21.9182 C   0  0  0  0  0  0
  -23.6267   -8.2245   22.0757 C   0  0  0  0  0  0
  -22.4255   -8.0276   21.3549 C   0  0  0  0  0  0
  -21.9878   -9.0240   20.4645 C   0  0  0  0  0  0
  -22.7212  -10.2120   20.3067 C   0  0  0  0  0  0
  -21.6852   -6.0730   22.5290 C   0  0  0  0  0  0
  -21.4014   -6.5638   23.8215 C   0  0  0  0  0  0
  -21.3656   -5.6795   24.9175 C   0  0  0  0  0  0
  -21.6055   -4.3052   24.7231 C   0  0  0  0  0  0
  -21.8824   -3.8148   23.4359 C   0  0  0  0  0  0
  -21.9187   -4.6963   22.3413 C   0  0  0  0  0  0
  -22.7895  -13.5233   21.1846 C   0  0  0  0  0  0
  -22.1667   -4.2146   21.0987 F   0  0  0  0  0  0
  -21.5623   -3.4548   25.7740 F   0  0  0  0  0  0
  -30.0523  -13.2214   20.4778 N   0  0  0  0  0  0
  -26.3073  -12.9252   20.3425 N   0  0  0  0  0  0
  -25.9306  -11.6420   20.5755 N   0  0  0  0  0  0
  -22.0545  -12.8203   22.0403 N   0  0  0  0  0  0
  -25.4349  -15.1820   20.4059 N   0  0  0  0  0  0
  -31.7518  -14.6933   20.0466 O   0  0  0  0  0  0
  -21.6641   -6.8869   21.4251 O   0  0  0  0  0  0
  -22.3564  -14.5540   20.6697 O   0  0  0  0  0  0
  -24.6103  -31.8711   23.2126 C   0  0  0  0  0  0
  -25.9010  -32.4842   23.8408 C   0  0  1  0  0  0
  -27.2338  -27.4627   20.0852 C   0  0  0  0  0  0
  -25.5864  -33.8643   24.2339 N   0  0  0  0  0  0
  -23.3963  -30.4964   21.5533 C   0  0  2  0  0  0
  -24.8389  -28.9687   20.1137 C   0  0  0  0  0  0
  -22.7383  -29.4677   22.5012 C   0  0  0  0  0  0
  -18.0266  -28.1374   22.8508 C   0  0  0  0  0  0
  -24.1492  -36.7323   23.2638 C   0  0  0  0  0  0
  -25.9218  -30.8459   21.3609 C   0  0  0  0  0  0
  -25.9977  -29.4819   20.7091 C   0  0  0  0  0  0
  -27.1929  -28.7351   20.6945 C   0  0  0  0  0  0
  -26.0539  -26.9621   19.4800 C   0  0  0  0  0  0
  -24.8609  -27.7061   19.5000 C   0  0  0  0  0  0
  -23.6002  -29.8295   20.1671 C   0  0  0  0  0  0
  -25.4114  -36.3131   24.0338 C   0  0  1  0  0  0
  -20.5850  -28.3650   23.1331 C   0  0  2  0  0  0
  -20.6752  -26.9394   22.5418 C   0  0  0  0  0  0
  -19.5731  -26.6387   21.5218 C   0  0  0  0  0  0
  -18.1911  -26.7929   22.1627 C   0  0  0  0  0  0
  -19.1514  -28.8835   23.2918 C   0  0  0  0  0  0
  -18.9437  -30.1443   23.8927 C   0  0  0  0  0  0
  -17.6438  -30.6584   24.0570 C   0  0  0  0  0  0
  -25.9028  -34.9489   23.5143 C   0  0  0  0  0  0
  -16.5334  -29.9086   23.6320 C   0  0  0  0  0  0
  -16.7252  -28.6496   23.0363 C   0  0  0  0  0  0
  -26.4448  -31.6612   25.0720 C   0  0  0  0  0  0
  -25.3723  -31.3707   26.1470 C   0  0  0  0  0  0
  -27.0263  -30.3059   24.6070 C   0  0  0  0  0  0
  -27.6033  -32.4322   25.7468 C   0  0  0  0  0  0
  -27.5597  -37.1815   24.8463 C   0  0  0  0  0  0
  -21.4114  -29.3021   22.3741 N   0  0  0  0  0  0
  -26.4310  -37.3803   23.9409 N   0  0  0  0  0  0
  -24.6614  -31.0845   22.1000 N   0  0  0  0  0  0
  -23.4181  -28.8224   23.3037 O   0  0  0  0  0  0
  -28.4335  -26.7818   20.1092 O   0  0  0  0  0  0
  -26.5603  -34.8926   22.4715 O   0  0  0  0  0  0
  -23.5306  -32.1443   23.7541 O   0  0  0  0  0  0
  -31.8864  -19.2793   21.5070 C   0  0  0  0  0  0
  -31.2911  -20.3386   20.7950 C   0  0  0  0  0  0
  -31.3087  -17.9984   21.4237 C   0  0  0  0  0  0
  -30.1271  -20.0850   20.0453 C   0  0  0  0  0  0
  -30.1595  -17.8322   20.6299 C   0  0  0  0  0  0
  -30.1257  -23.6022   19.0129 C   0  0  0  0  0  0
  -27.8676  -23.0265   20.0111 C   0  0  0  0  0  0
  -29.9742  -25.0393   19.5404 C   0  0  0  0  0  0
  -27.7782  -24.4501   20.5785 C   0  0  0  0  0  0
  -29.3348  -22.5701   19.8511 C   0  0  1  0  0  0
  -28.4949  -25.4389   19.6348 C   0  0  1  0  0  0
  -29.4230  -21.1571   19.2182 C   0  0  0  0  0  0
  -29.4559  -16.5056   20.4264 C   0  0  0  0  0  0
  -29.5826  -18.8555   19.9694 N   0  0  0  0  0  0
  -29.9340  -15.3557   21.1875 N   0  0  0  0  0  0
  -31.4762  -12.3789   19.1223 H   0  0  0  0  0  0
  -30.3287  -11.2480   19.7834 H   0  0  0  0  0  0
  -29.7325  -11.8011   17.4162 H   0  0  0  0  0  0
  -29.6781  -13.5016   17.7927 H   0  0  0  0  0  0
  -27.8176  -11.3136   18.7862 H   0  0  0  0  0  0
  -27.3747  -12.6726   17.7897 H   0  0  0  0  0  0
  -27.7333  -14.2434   19.6202 H   0  0  0  0  0  0
  -28.6750  -11.8660   21.3034 H   0  0  0  0  0  0
  -28.4640  -13.4697   21.9164 H   0  0  0  0  0  0
  -25.2746   -9.5681   22.4719 H   0  0  0  0  0  0
  -23.9996   -7.4636   22.7465 H   0  0  0  0  0  0
  -21.0816   -8.8750   19.8930 H   0  0  0  0  0  0
  -22.3682  -10.9644   19.6157 H   0  0  0  0  0  0
  -21.2006   -7.6143   23.9719 H   0  0  0  0  0  0
  -21.1472   -6.0528   25.9076 H   0  0  0  0  0  0
  -22.0592   -2.7610   23.2868 H   0  0  0  0  0  0
  -22.4152  -11.9830   22.4728 H   0  0  0  0  0  0
  -21.1189  -13.1248   22.2665 H   0  0  0  0  0  0
  -24.6624  -15.8327   20.5042 H   0  0  0  0  0  0
  -26.2758  -15.6237   20.0587 H   0  0  0  0  0  0
  -26.7076  -32.5574   23.1174 H   0  0  0  0  0  0
  -24.9992  -33.9809   25.0465 H   0  0  0  0  0  0
  -22.6823  -31.3107   21.4150 H   0  0  0  0  0  0
  -23.3756  -35.9654   23.3312 H   0  0  0  0  0  0
  -24.3581  -36.8927   22.2048 H   0  0  0  0  0  0
  -23.7235  -37.6528   23.6640 H   0  0  0  0  0  0
  -26.0317  -31.6152   20.5955 H   0  0  0  0  0  0
  -26.8097  -30.8970   21.9790 H   0  0  0  0  0  0
  -28.0907  -29.1316   21.1508 H   0  0  0  0  0  0
  -26.0262  -26.0012   18.9878 H   0  0  0  0  0  0
  -23.9692  -27.3075   19.0366 H   0  0  0  0  0  0
  -23.6987  -30.6006   19.4026 H   0  0  0  0  0  0
  -22.7273  -29.2409   19.8788 H   0  0  0  0  0  0
  -25.1302  -36.2010   25.0831 H   0  0  0  0  0  0
  -20.9941  -28.3210   24.1449 H   0  0  0  0  0  0
  -20.5657  -26.2260   23.3599 H   0  0  0  0  0  0
  -21.6628  -26.7439   22.1210 H   0  0  0  0  0  0
  -19.6892  -25.6302   21.1236 H   0  0  0  0  0  0
  -19.6676  -27.3208   20.6758 H   0  0  0  0  0  0
  -17.4181  -26.6681   21.4025 H   0  0  0  0  0  0
  -18.0307  -26.0056   22.9007 H   0  0  0  0  0  0
  -19.7917  -30.7252   24.2305 H   0  0  0  0  0  0
  -17.4996  -31.6264   24.5166 H   0  0  0  0  0  0
  -15.5343  -30.3003   23.7618 H   0  0  0  0  0  0
  -15.8651  -28.0817   22.7084 H   0  0  0  0  0  0
  -24.5877  -30.7084   25.7797 H   0  0  0  0  0  0
  -24.8929  -32.2854   26.4964 H   0  0  0  0  0  0
  -25.8065  -30.8828   27.0203 H   0  0  0  0  0  0
  -26.2784  -29.6839   24.1131 H   0  0  0  0  0  0
  -27.4041  -29.7284   25.4521 H   0  0  0  0  0  0
  -27.8625  -30.4389   23.9201 H   0  0  0  0  0  0
  -27.2665  -33.3607   26.2095 H   0  0  0  0  0  0
  -28.3808  -32.6916   25.0268 H   0  0  0  0  0  0
  -28.0742  -31.8418   26.5339 H   0  0  0  0  0  0
  -28.2623  -38.0107   24.7521 H   0  0  0  0  0  0
  -28.1086  -36.2637   24.6292 H   0  0  0  0  0  0
  -27.2299  -37.1469   25.8861 H   0  0  0  0  0  0
  -20.9268  -29.8745   21.6966 H   0  0  0  0  0  0
  -26.0215  -38.2892   24.1391 H   0  0  0  0  0  0
  -32.7722  -19.4481   22.1023 H   0  0  0  0  0  0
  -31.7268  -21.3271   20.8260 H   0  0  0  0  0  0
  -31.7508  -17.1619   21.9463 H   0  0  0  0  0  0
  -31.1815  -23.3310   18.9893 H   0  0  0  0  0  0
  -29.7858  -23.5748   17.9767 H   0  0  0  0  0  0
  -27.3581  -22.9949   19.0466 H   0  0  0  0  0  0
  -27.3275  -22.3399   20.6630 H   0  0  0  0  0  0
  -30.5075  -25.7309   18.8866 H   0  0  0  0  0  0
  -30.4406  -25.1220   20.5228 H   0  0  0  0  0  0
  -28.2354  -24.4824   21.5688 H   0  0  0  0  0  0
  -26.7323  -24.7135   20.7277 H   0  0  0  0  0  0
  -29.7587  -22.5464   20.8543 H   0  0  0  0  0  0
  -28.0757  -25.3872   18.6291 H   0  0  0  0  0  0
  -28.4143  -20.7994   19.0006 H   0  0  0  0  0  0
  -29.9147  -21.2013   18.2468 H   0  0  0  0  0  0
  -29.4621  -16.2799   19.3564 H   0  0  0  0  0  0
  -28.4068  -16.6454   20.6916 H   0  0  0  0  0  0
  -29.2286  -14.9823   21.8037 H   0  0  0  0  0  0
  1 25  1  0  0  0
  1 30  2  0  0  0
  1 85  1  0  0  0
  2  3  1  0  0  0
  2 25  1  0  0  0
  2 86  1  0  0  0
  2 87  1  0  0  0
  3  4  1  0  0  0
  3 88  1  0  0  0
  3 89  1  0  0  0
  4  5  1  0  0  0
  4 90  1  0  0  0
  4 91  1  0  0  0
  5  6  1  0  0  0
  5 26  1  0  0  0
  5 92  1  0  0  0
  6 25  1  0  0  0
  6 93  1  0  0  0
  6 94  1  0  0  0
  7  8  2  0  0  0
  7 26  1  0  0  0
  7 29  1  0  0  0
  8  9  1  0  0  0
  8 22  1  0  0  0
  9 10  1  0  0  0
  9 27  2  0  0  0
 10 11  2  0  0  0
 10 15  1  0  0  0
 11 12  1  0  0  0
 11 95  1  0  0  0
 12 13  2  0  0  0
 12 96  1  0  0  0
 13 14  1  0  0  0
 13 31  1  0  0  0
 14 15  2  0  0  0
 14 97  1  0  0  0
 15 98  1  0  0  0
 16 17  2  0  0  0
 16 21  1  0  0  0
 16 31  1  0  0  0
 17 18  1  0  0  0
 17 99  1  0  0  0
 18 19  2  0  0  0
 18100  1  0  0  0
 19 20  1  0  0  0
 19 24  1  0  0  0
 20 21  2  0  0  0
 20101  1  0  0  0
 21 23  1  0  0  0
 22 28  1  0  0  0
 22 32  2  0  0  0
 26 27  1  0  0  0
 28102  1  0  0  0
 28103  1  0  0  0
 29104  1  0  0  0
 29105  1  0  0  0
 33 34  1  0  0  0
 33 66  1  0  0  0
 33 70  2  0  0  0
 34 36  1  0  0  0
 34 59  1  0  0  0
 34106  1  0  0  0
 35 44  2  0  0  0
 35 45  1  0  0  0
 35 68  1  0  0  0
 36 56  1  0  0  0
 36107  1  0  0  0
 37 39  1  0  0  0
 37 47  1  0  0  0
 37 66  1  0  0  0
 37108  1  0  0  0
 38 43  2  0  0  0
 38 46  1  0  0  0
 38 47  1  0  0  0
 39 64  1  0  0  0
 39 67  2  0  0  0
 40 52  1  0  0  0
 40 53  2  0  0  0
 40 58  1  0  0  0
 41109  1  0  0  0
 41110  1  0  0  0
 41111  1  0  0  0
 41 48  1  0  0  0
 42 43  1  0  0  0
 42 66  1  0  0  0
 42112  1  0  0  0
 42113  1  0  0  0
 43 44  1  0  0  0
 44114  1  0  0  0
 45 46  2  0  0  0
 45115  1  0  0  0
 46116  1  0  0  0
 47117  1  0  0  0
 47118  1  0  0  0
 48 56  1  0  0  0
 48 65  1  0  0  0
 48119  1  0  0  0
 49 50  1  0  0  0
 49 53  1  0  0  0
 49 64  1  0  0  0
 49120  1  0  0  0
 50 51  1  0  0  0
 50121  1  0  0  0
 50122  1  0  0  0
 51 52  1  0  0  0
 51123  1  0  0  0
 51124  1  0  0  0
 52125  1  0  0  0
 52126  1  0  0  0
 53 54  1  0  0  0
 54 55  2  0  0  0
 54127  1  0  0  0
 55 57  1  0  0  0
 55128  1  0  0  0
 56 69  2  0  0  0
 57 58  2  0  0  0
 57129  1  0  0  0
 58130  1  0  0  0
 59 60  1  0  0  0
 59 61  1  0  0  0
 59 62  1  0  0  0
 60131  1  0  0  0
 60132  1  0  0  0
 60133  1  0  0  0
 61134  1  0  0  0
 61135  1  0  0  0
 61136  1  0  0  0
 62137  1  0  0  0
 62138  1  0  0  0
 62139  1  0  0  0
 63 65  1  0  0  0
 63140  1  0  0  0
 63141  1  0  0  0
 63142  1  0  0  0
 64143  1  0  0  0
 65144  1  0  0  0
 68 81  1  0  0  0
 71 72  2  0  0  0
 71 73  1  0  0  0
 71145  1  0  0  0
 72 74  1  0  0  0
 72146  1  0  0  0
 73 75  2  0  0  0
 73147  1  0  0  0
 74 82  1  0  0  0
 74 84  2  0  0  0
 75 83  1  0  0  0
 75 84  1  0  0  0
 76 78  1  0  0  0
 76 80  1  0  0  0
 76148  1  0  0  0
 76149  1  0  0  0
 77 79  1  0  0  0
 77 80  1  0  0  0
 77150  1  0  0  0
 77151  1  0  0  0
 78 81  1  0  0  0
 78152  1  0  0  0
 78153  1  0  0  0
 79 81  1  0  0  0
 79154  1  0  0  0
 79155  1  0  0  0
 80 82  1  0  0  0
 80156  1  0  0  0
 81157  1  0  0  0
 82158  1  0  0  0
 82159  1  0  0  0
 83 85  1  0  0  0
 83160  1  0  0  0
 83161  1  0  0  0
 85162  1  0  0  0
M  ISO  4   1 100  68 101  81 101  85 100
M  END
> <chiral flag>
0

> <version>
0

> <s_m_source_file>
/data/baiqing/PycharmProjects/Reinvent-master-3.2/result/LINK_invent/BTK/process_docking_weight1_custom_sum_contain_oxygen_bond_distance_aromatic_linkinvent_7_9_3/rearranged_h_0110.sdf

> <i_m_source_file_index>
39

> <r_mmod_Potential_Energy-OPLS-2005>
-265.920776367188

> <r_mmod_Stretch_Energy-OPLS-2005>
32.1634788513184

> <r_mmod_Bend_Energy-OPLS-2005>
105.337532043457

> <r_mmod_Torsional_Energy-OPLS-2005>
241.435455322266

> <r_mmod_Improper_Torsional_Energy-OPLS-2005>
8.66117668151855

> <r_mmod_Van_der_Waal_Energy-OPLS-2005>
168.453460693359

> <r_mmod_Electrostatic_Energy-OPLS-2005>
-611.847534179688

> <r_mmod_Solvation_Energy-OPLS-2005>
-220.210784912109

> <b_mmod_Minimization_Converged-OPLS-2005>
0

> <r_mmod_RMS_Derivative-OPLS-2005>
2.68328738212585

$$$$
40
                    3D
 Structure written by MMmdl.
166174  0  0  1  0            999 V2000
  -30.6838  -14.5384   20.4996 C   0  0  0  0  0  0
  -30.4181  -12.3273   19.4477 C   0  0  0  0  0  0
  -29.4993  -12.4935   18.2192 C   0  0  0  0  0  0
  -28.0193  -12.3579   18.6265 C   0  0  0  0  0  0
  -27.6544  -13.2184   19.8663 C   0  0  2  0  0  0
  -28.6973  -13.0591   20.9969 C   0  0  0  0  0  0
  -25.2558  -13.8187   20.5682 C   0  0  0  0  0  0
  -24.1823  -13.0445   20.9192 C   0  0  0  0  0  0
  -24.6392  -11.6923   20.8741 C   0  0  0  0  0  0
  -23.9067  -10.4303   21.0411 C   0  0  0  0  0  0
  -24.3623   -9.4211   21.9185 C   0  0  0  0  0  0
  -23.6291   -8.2244   22.0756 C   0  0  0  0  0  0
  -22.4278   -8.0286   21.3540 C   0  0  0  0  0  0
  -21.9909   -9.0263   20.4647 C   0  0  0  0  0  0
  -22.7240  -10.2140   20.3055 C   0  0  0  0  0  0
  -21.6853   -6.0733   22.5283 C   0  0  0  0  0  0
  -21.4017   -6.5637   23.8219 C   0  0  0  0  0  0
  -21.3652   -5.6786   24.9175 C   0  0  0  0  0  0
  -21.6052   -4.3051   24.7228 C   0  0  0  0  0  0
  -21.8813   -3.8142   23.4348 C   0  0  0  0  0  0
  -21.9197   -4.6962   22.3405 C   0  0  0  0  0  0
  -22.7842  -13.5233   21.1854 C   0  0  0  0  0  0
  -22.1660   -4.2148   21.0982 F   0  0  0  0  0  0
  -21.5630   -3.4539   25.7738 F   0  0  0  0  0  0
  -30.0211  -13.3500   20.4307 N   0  0  0  0  0  0
  -26.2992  -12.9369   20.3332 N   0  0  0  0  0  0
  -25.9332  -11.6528   20.5773 N   0  0  0  0  0  0
  -22.0485  -12.8223   22.0412 N   0  0  0  0  0  0
  -25.4236  -15.1900   20.4080 N   0  0  0  0  0  0
  -31.8518  -14.6537   20.1208 O   0  0  0  0  0  0
  -21.6638   -6.8882   21.4243 O   0  0  0  0  0  0
  -22.3527  -14.5540   20.6709 O   0  0  0  0  0  0
  -24.6159  -31.8635   23.2096 C   0  0  0  0  0  0
  -25.9044  -32.4808   23.8397 C   0  0  1  0  0  0
  -27.2394  -27.3966   20.1013 C   0  0  0  0  0  0
  -25.5886  -33.8614   24.2326 N   0  0  0  0  0  0
  -23.4057  -30.4870   21.5494 C   0  0  2  0  0  0
  -24.8519  -28.9474   20.1163 C   0  0  0  0  0  0
  -22.7429  -29.4622   22.4985 C   0  0  0  0  0  0
  -18.0273  -28.1344   22.8498 C   0  0  0  0  0  0
  -24.1465  -36.7295   23.2649 C   0  0  0  0  0  0
  -25.9378  -30.8156   21.3714 C   0  0  0  0  0  0
  -26.0132  -29.4497   20.7129 C   0  0  0  0  0  0
  -27.2048  -28.6842   20.6987 C   0  0  0  0  0  0
  -26.0491  -26.9142   19.5038 C   0  0  0  0  0  0
  -24.8668  -27.6799   19.5107 C   0  0  0  0  0  0
  -23.6168  -29.8198   20.1644 C   0  0  0  0  0  0
  -25.4093  -36.3107   24.0342 C   0  0  1  0  0  0
  -20.5861  -28.3629   23.1297 C   0  0  2  0  0  0
  -20.6749  -26.9364   22.5405 C   0  0  0  0  0  0
  -19.5733  -26.6352   21.5194 C   0  0  0  0  0  0
  -18.1910  -26.7893   22.1611 C   0  0  0  0  0  0
  -19.1527  -28.8811   23.2885 C   0  0  0  0  0  0
  -18.9465  -30.1426   23.8885 C   0  0  0  0  0  0
  -17.6475  -30.6574   24.0542 C   0  0  0  0  0  0
  -25.9028  -34.9472   23.5132 C   0  0  0  0  0  0
  -16.5365  -29.9064   23.6328 C   0  0  0  0  0  0
  -16.7261  -28.6465   23.0362 C   0  0  0  0  0  0
  -26.4481  -31.6630   25.0764 C   0  0  0  0  0  0
  -25.3776  -31.3723   26.1547 C   0  0  0  0  0  0
  -27.0335  -30.3071   24.6170 C   0  0  0  0  0  0
  -27.6015  -32.4401   25.7531 C   0  0  0  0  0  0
  -27.5573  -37.1802   24.8473 C   0  0  0  0  0  0
  -21.4150  -29.3015   22.3740 N   0  0  0  0  0  0
  -26.4277  -37.3793   23.9422 N   0  0  0  0  0  0
  -24.6706  -31.0724   22.0996 N   0  0  0  0  0  0
  -23.4191  -28.8183   23.3053 O   0  0  0  0  0  0
  -28.4310  -26.6795   20.1315 O   0  0  0  0  0  0
  -26.5612  -34.8913   22.4705 O   0  0  0  0  0  0
  -23.5356  -32.1407   23.7481 O   0  0  0  0  0  0
  -29.5452  -19.4953   20.6927 C   0  0  0  0  0  0
  -29.5029  -19.5767   22.9044 C   0  0  0  0  0  0
  -29.3213  -20.3725   21.8064 C   0  0  0  0  0  0
  -29.8723  -18.2260   21.1374 C   0  0  0  0  0  0
  -27.1755  -24.4517   21.7945 C   0  0  0  0  0  0
  -28.8722  -16.6677   24.0929 C   0  0  0  0  0  0
  -31.1559  -17.6926   24.5684 C   0  0  0  0  0  0
  -28.9599  -21.8663   21.9218 C   0  0  0  0  0  0
  -30.3099  -17.0086   20.3163 C   0  0  0  0  0  0
  -28.7955  -22.7786   20.6632 C   0  0  0  0  0  0
  -28.5094  -25.2692   19.7856 C   0  0  0  0  0  0
  -28.4915  -24.2909   21.0086 C   0  0  1  0  0  0
  -30.1690  -17.2249   23.4863 C   0  0  0  0  0  0
  -29.8680  -18.2906   22.5294 N   0  0  0  0  0  0
  -29.9316  -15.6382   20.7508 N   0  0  0  0  0  0
  -31.4654  -12.4131   19.1510 H   0  0  0  0  0  0
  -30.3098  -11.3310   19.8783 H   0  0  0  0  0  0
  -29.7479  -11.7483   17.4625 H   0  0  0  0  0  0
  -29.6681  -13.4675   17.7570 H   0  0  0  0  0  0
  -27.8311  -11.3046   18.8371 H   0  0  0  0  0  0
  -27.3752  -12.6177   17.7864 H   0  0  0  0  0  0
  -27.6790  -14.2569   19.5375 H   0  0  0  0  0  0
  -28.6817  -12.0443   21.3964 H   0  0  0  0  0  0
  -28.4639  -13.7166   21.8366 H   0  0  0  0  0  0
  -25.2771   -9.5688   22.4754 H   0  0  0  0  0  0
  -24.0009   -7.4637   22.7470 H   0  0  0  0  0  0
  -21.0845   -8.8779   19.8951 H   0  0  0  0  0  0
  -22.3704  -10.9676   19.6162 H   0  0  0  0  0  0
  -21.2001   -7.6150   23.9718 H   0  0  0  0  0  0
  -21.1482   -6.0520   25.9079 H   0  0  0  0  0  0
  -22.0598   -2.7611   23.2851 H   0  0  0  0  0  0
  -22.4103  -11.9886   22.4803 H   0  0  0  0  0  0
  -21.1103  -13.1239   22.2616 H   0  0  0  0  0  0
  -24.6535  -15.8408   20.5166 H   0  0  0  0  0  0
  -26.2698  -15.6342   20.0745 H   0  0  0  0  0  0
  -26.7119  -32.5484   23.1158 H   0  0  0  0  0  0
  -25.0049  -33.9782   25.0482 H   0  0  0  0  0  0
  -22.6934  -31.3024   21.4093 H   0  0  0  0  0  0
  -23.3736  -35.9625   23.3333 H   0  0  0  0  0  0
  -24.3556  -36.8898   22.2065 H   0  0  0  0  0  0
  -23.7214  -37.6491   23.6665 H   0  0  0  0  0  0
  -26.0739  -31.5857   20.6103 H   0  0  0  0  0  0
  -26.8146  -30.8531   22.0045 H   0  0  0  0  0  0
  -28.0993  -29.0745   21.1634 H   0  0  0  0  0  0
  -25.9977  -25.9469   19.0289 H   0  0  0  0  0  0
  -23.9719  -27.2835   19.0509 H   0  0  0  0  0  0
  -23.7331  -30.5935   19.4039 H   0  0  0  0  0  0
  -22.7383  -29.2432   19.8668 H   0  0  0  0  0  0
  -25.1274  -36.1966   25.0839 H   0  0  0  0  0  0
  -20.9945  -28.3190   24.1413 H   0  0  0  0  0  0
  -20.5597  -26.2261   23.3606 H   0  0  0  0  0  0
  -21.6620  -26.7360   22.1237 H   0  0  0  0  0  0
  -19.6876  -25.6255   21.1225 H   0  0  0  0  0  0
  -19.6659  -27.3169   20.6724 H   0  0  0  0  0  0
  -17.4179  -26.6647   21.4013 H   0  0  0  0  0  0
  -18.0290  -26.0021   22.8987 H   0  0  0  0  0  0
  -19.7959  -30.7212   24.2245 H   0  0  0  0  0  0
  -17.5048  -31.6256   24.5148 H   0  0  0  0  0  0
  -15.5368  -30.2964   23.7654 H   0  0  0  0  0  0
  -15.8651  -28.0777   22.7084 H   0  0  0  0  0  0
  -24.5897  -30.7116   25.7927 H   0  0  0  0  0  0
  -24.9044  -32.2883   26.5087 H   0  0  0  0  0  0
  -25.8174  -30.8849   27.0256 H   0  0  0  0  0  0
  -26.2896  -29.6803   24.1243 H   0  0  0  0  0  0
  -27.4130  -29.7338   25.4636 H   0  0  0  0  0  0
  -27.8716  -30.4399   23.9323 H   0  0  0  0  0  0
  -27.2560  -33.3658   26.2134 H   0  0  0  0  0  0
  -28.3789  -32.7043   25.0358 H   0  0  0  0  0  0
  -28.0716  -31.8546   26.5438 H   0  0  0  0  0  0
  -28.2602  -38.0089   24.7523 H   0  0  0  0  0  0
  -28.1052  -36.2622   24.6285 H   0  0  0  0  0  0
  -27.2304  -37.1442   25.8882 H   0  0  0  0  0  0
  -20.9317  -29.8784   21.6993 H   0  0  0  0  0  0
  -26.0160  -38.2865   24.1444 H   0  0  0  0  0  0
  -29.5027  -19.7748   19.6483 H   0  0  0  0  0  0
  -29.4265  -19.8301   23.9531 H   0  0  0  0  0  0
  -27.1796  -23.8835   22.7211 H   0  0  0  0  0  0
  -26.3150  -24.1344   21.2044 H   0  0  0  0  0  0
  -27.0130  -25.4902   22.0823 H   0  0  0  0  0  0
  -29.0707  -15.8223   24.7520 H   0  0  0  0  0  0
  -28.1916  -16.3231   23.3142 H   0  0  0  0  0  0
  -28.3516  -17.4282   24.6750 H   0  0  0  0  0  0
  -31.4844  -16.8536   25.1817 H   0  0  0  0  0  0
  -30.7183  -18.4331   25.2358 H   0  0  0  0  0  0
  -32.0459  -18.1310   24.1173 H   0  0  0  0  0  0
  -29.7106  -22.3207   22.5705 H   0  0  0  0  0  0
  -28.0317  -21.8850   22.4906 H   0  0  0  0  0  0
  -31.3919  -17.0777   20.1991 H   0  0  0  0  0  0
  -29.9161  -17.1214   19.3054 H   0  0  0  0  0  0
  -29.7119  -22.7304   20.0725 H   0  0  0  0  0  0
  -28.0020  -22.3786   20.0293 H   0  0  0  0  0  0
  -27.7920  -24.9591   19.0292 H   0  0  0  0  0  0
  -29.4733  -25.1537   19.2889 H   0  0  0  0  0  0
  -29.2968  -24.6231   21.6661 H   0  0  0  0  0  0
  -30.6810  -16.4200   22.9673 H   0  0  0  0  0  0
  -28.9727  -15.4874   21.0204 H   0  0  0  0  0  0
  1 25  1  0  0  0
  1 30  2  0  0  0
  1 85  1  0  0  0
  2  3  1  0  0  0
  2 25  1  0  0  0
  2 86  1  0  0  0
  2 87  1  0  0  0
  3  4  1  0  0  0
  3 88  1  0  0  0
  3 89  1  0  0  0
  4  5  1  0  0  0
  4 90  1  0  0  0
  4 91  1  0  0  0
  5  6  1  0  0  0
  5 26  1  0  0  0
  5 92  1  0  0  0
  6 25  1  0  0  0
  6 93  1  0  0  0
  6 94  1  0  0  0
  7  8  2  0  0  0
  7 26  1  0  0  0
  7 29  1  0  0  0
  8  9  1  0  0  0
  8 22  1  0  0  0
  9 10  1  0  0  0
  9 27  2  0  0  0
 10 11  2  0  0  0
 10 15  1  0  0  0
 11 12  1  0  0  0
 11 95  1  0  0  0
 12 13  2  0  0  0
 12 96  1  0  0  0
 13 14  1  0  0  0
 13 31  1  0  0  0
 14 15  2  0  0  0
 14 97  1  0  0  0
 15 98  1  0  0  0
 16 17  2  0  0  0
 16 21  1  0  0  0
 16 31  1  0  0  0
 17 18  1  0  0  0
 17 99  1  0  0  0
 18 19  2  0  0  0
 18100  1  0  0  0
 19 20  1  0  0  0
 19 24  1  0  0  0
 20 21  2  0  0  0
 20101  1  0  0  0
 21 23  1  0  0  0
 22 28  1  0  0  0
 22 32  2  0  0  0
 26 27  1  0  0  0
 28102  1  0  0  0
 28103  1  0  0  0
 29104  1  0  0  0
 29105  1  0  0  0
 33 34  1  0  0  0
 33 66  1  0  0  0
 33 70  2  0  0  0
 34 36  1  0  0  0
 34 59  1  0  0  0
 34106  1  0  0  0
 35 44  2  0  0  0
 35 45  1  0  0  0
 35 68  1  0  0  0
 36 56  1  0  0  0
 36107  1  0  0  0
 37 39  1  0  0  0
 37 47  1  0  0  0
 37 66  1  0  0  0
 37108  1  0  0  0
 38 43  2  0  0  0
 38 46  1  0  0  0
 38 47  1  0  0  0
 39 64  1  0  0  0
 39 67  2  0  0  0
 40 52  1  0  0  0
 40 53  2  0  0  0
 40 58  1  0  0  0
 41109  1  0  0  0
 41110  1  0  0  0
 41111  1  0  0  0
 41 48  1  0  0  0
 42 43  1  0  0  0
 42 66  1  0  0  0
 42112  1  0  0  0
 42113  1  0  0  0
 43 44  1  0  0  0
 44114  1  0  0  0
 45 46  2  0  0  0
 45115  1  0  0  0
 46116  1  0  0  0
 47117  1  0  0  0
 47118  1  0  0  0
 48 56  1  0  0  0
 48 65  1  0  0  0
 48119  1  0  0  0
 49 50  1  0  0  0
 49 53  1  0  0  0
 49 64  1  0  0  0
 49120  1  0  0  0
 50 51  1  0  0  0
 50121  1  0  0  0
 50122  1  0  0  0
 51 52  1  0  0  0
 51123  1  0  0  0
 51124  1  0  0  0
 52125  1  0  0  0
 52126  1  0  0  0
 53 54  1  0  0  0
 54 55  2  0  0  0
 54127  1  0  0  0
 55 57  1  0  0  0
 55128  1  0  0  0
 56 69  2  0  0  0
 57 58  2  0  0  0
 57129  1  0  0  0
 58130  1  0  0  0
 59 60  1  0  0  0
 59 61  1  0  0  0
 59 62  1  0  0  0
 60131  1  0  0  0
 60132  1  0  0  0
 60133  1  0  0  0
 61134  1  0  0  0
 61135  1  0  0  0
 61136  1  0  0  0
 62137  1  0  0  0
 62138  1  0  0  0
 62139  1  0  0  0
 63 65  1  0  0  0
 63140  1  0  0  0
 63141  1  0  0  0
 63142  1  0  0  0
 64143  1  0  0  0
 65144  1  0  0  0
 68 81  1  0  0  0
 71 73  1  0  0  0
 71 74  2  0  0  0
 71145  1  0  0  0
 72 73  2  0  0  0
 72 84  1  0  0  0
 72146  1  0  0  0
 73 78  1  0  0  0
 74 79  1  0  0  0
 74 84  1  0  0  0
 75147  1  0  0  0
 75148  1  0  0  0
 75149  1  0  0  0
 75 82  1  0  0  0
 76150  1  0  0  0
 76151  1  0  0  0
 76152  1  0  0  0
 76 83  1  0  0  0
 77 83  1  0  0  0
 77153  1  0  0  0
 77154  1  0  0  0
 77155  1  0  0  0
 78 80  1  0  0  0
 78156  1  0  0  0
 78157  1  0  0  0
 79 85  1  0  0  0
 79158  1  0  0  0
 79159  1  0  0  0
 80 82  1  0  0  0
 80160  1  0  0  0
 80161  1  0  0  0
 81 82  1  0  0  0
 81162  1  0  0  0
 81163  1  0  0  0
 82164  1  0  0  0
 83 84  1  0  0  0
 83165  1  0  0  0
 85166  1  0  0  0
M  ISO  4   1 100  68 101  81 101  85 100
M  END
> <chiral flag>
0

> <version>
0

> <s_m_source_file>
/data/baiqing/PycharmProjects/Reinvent-master-3.2/result/LINK_invent/BTK/process_docking_weight1_custom_sum_contain_oxygen_bond_distance_aromatic_linkinvent_7_9_3/rearranged_h_0110.sdf

> <i_m_source_file_index>
40

> <r_mmod_Potential_Energy-OPLS-2005>
-72.0453109741211

> <r_mmod_Stretch_Energy-OPLS-2005>
49.6898040771484

> <r_mmod_Bend_Energy-OPLS-2005>
138.034362792969

> <r_mmod_Torsional_Energy-OPLS-2005>
226.840591430664

> <r_mmod_Improper_Torsional_Energy-OPLS-2005>
7.12570714950562

> <r_mmod_Van_der_Waal_Energy-OPLS-2005>
124.830696105957

> <r_mmod_Electrostatic_Energy-OPLS-2005>
-446.145538330078

> <r_mmod_Solvation_Energy-OPLS-2005>
-195.465087890625

> <b_mmod_Minimization_Converged-OPLS-2005>
0

> <r_mmod_RMS_Derivative-OPLS-2005>
2.63056039810181

$$$$
41
                    3D
 Structure written by MMmdl.
167175  0  0  1  0            999 V2000
  -30.4071  -15.3318   20.3628 C   0  0  0  0  0  0
  -30.4321  -12.8528   19.5295 C   0  0  0  0  0  0
  -29.5360  -12.5890   18.2928 C   0  0  0  0  0  0
  -28.0895  -12.2959   18.7233 C   0  0  0  0  0  0
  -27.6055  -13.2783   19.8180 C   0  0  2  0  0  0
  -28.6348  -13.4811   20.9502 C   0  0  0  0  0  0
  -25.2353  -13.8237   20.5736 C   0  0  0  0  0  0
  -24.1720  -13.0428   20.9266 C   0  0  0  0  0  0
  -24.6373  -11.6923   20.8750 C   0  0  0  0  0  0
  -23.9069  -10.4279   21.0392 C   0  0  0  0  0  0
  -24.3618   -9.4196   21.9174 C   0  0  0  0  0  0
  -23.6291   -8.2229   22.0744 C   0  0  0  0  0  0
  -22.4274   -8.0267   21.3536 C   0  0  0  0  0  0
  -21.9907   -9.0235   20.4634 C   0  0  0  0  0  0
  -22.7234  -10.2114   20.3046 C   0  0  0  0  0  0
  -21.6855   -6.0725   22.5278 C   0  0  0  0  0  0
  -21.4013   -6.5632   23.8211 C   0  0  0  0  0  0
  -21.3661   -5.6786   24.9176 C   0  0  0  0  0  0
  -21.6051   -4.3050   24.7231 C   0  0  0  0  0  0
  -21.8815   -3.8138   23.4350 C   0  0  0  0  0  0
  -21.9193   -4.6952   22.3405 C   0  0  0  0  0  0
  -22.7735  -13.5166   21.1911 C   0  0  0  0  0  0
  -22.1663   -4.2138   21.0982 F   0  0  0  0  0  0
  -21.5629   -3.4535   25.7742 F   0  0  0  0  0  0
  -29.8559  -14.0098   20.3185 N   0  0  0  0  0  0
  -26.2775  -12.9519   20.3181 N   0  0  0  0  0  0
  -25.9314  -11.6619   20.5686 N   0  0  0  0  0  0
  -22.0401  -12.8156   22.0474 N   0  0  0  0  0  0
  -25.3963  -15.1971   20.4155 N   0  0  0  0  0  0
  -31.6342  -15.3045   20.1678 O   0  0  0  0  0  0
  -21.6644   -6.8867   21.4237 O   0  0  0  0  0  0
  -22.3423  -14.5475   20.6757 O   0  0  0  0  0  0
  -24.6650  -31.8178   23.1645 C   0  0  0  0  0  0
  -25.9324  -32.4544   23.8128 C   0  0  1  0  0  0
  -27.2302  -26.8842   20.1917 C   0  0  0  0  0  0
  -25.5987  -33.8371   24.2026 N   0  0  0  0  0  0
  -23.4837  -30.4230   21.5129 C   0  0  2  0  0  0
  -24.9412  -28.7997   20.1049 C   0  0  0  0  0  0
  -22.7686  -29.4388   22.4746 C   0  0  0  0  0  0
  -18.0336  -28.1379   22.8455 C   0  0  0  0  0  0
  -24.1497  -36.7201   23.2653 C   0  0  0  0  0  0
  -26.0523  -30.6061   21.4053 C   0  0  0  0  0  0
  -26.1202  -29.1922   20.7483 C   0  0  0  0  0  0
  -27.2504  -28.2539   20.7715 C   0  0  0  0  0  0
  -26.0261  -26.6537   19.4865 C   0  0  0  0  0  0
  -24.9222  -27.5524   19.4528 C   0  0  0  0  0  0
  -23.7275  -29.7317   20.1411 C   0  0  0  0  0  0
  -25.4137  -36.2942   24.0288 C   0  0  1  0  0  0
  -20.5957  -28.3741   23.1164 C   0  0  2  0  0  0
  -20.6797  -26.9413   22.5395 C   0  0  0  0  0  0
  -19.5788  -26.6352   21.5190 C   0  0  0  0  0  0
  -18.1972  -26.7919   22.1594 C   0  0  0  0  0  0
  -19.1595  -28.8887   23.2798 C   0  0  0  0  0  0
  -18.9508  -30.1472   23.8825 C   0  0  0  0  0  0
  -17.6506  -30.6579   24.0544 C   0  0  0  0  0  0
  -25.9110  -34.9331   23.4986 C   0  0  0  0  0  0
  -16.5397  -29.9059   23.6340 C   0  0  0  0  0  0
  -16.7324  -28.6481   23.0351 C   0  0  0  0  0  0
  -26.4559  -31.6519   25.0689 C   0  0  0  0  0  0
  -25.3664  -31.3787   26.1332 C   0  0  0  0  0  0
  -27.0489  -30.2889   24.6483 C   0  0  0  0  0  0
  -27.6034  -32.4365   25.7484 C   0  0  0  0  0  0
  -27.5569  -37.1743   24.8466 C   0  0  0  0  0  0
  -21.4350  -29.3030   22.3514 N   0  0  0  0  0  0
  -26.4278  -37.3682   23.9405 N   0  0  0  0  0  0
  -24.7543  -30.9789   22.0801 N   0  0  0  0  0  0
  -23.4210  -28.7978   23.3024 O   0  0  0  0  0  0
  -28.2409  -25.7827   20.3425 O   0  0  0  0  0  0
  -26.5742  -34.8879   22.4595 O   0  0  0  0  0  0
  -23.5709  -32.1185   23.6704 O   0  0  0  0  0  0
  -30.6654  -21.0795   20.1827 C   0  0  0  0  0  0
  -28.9231  -19.4670   20.4197 C   0  0  0  0  0  0
  -29.2653  -20.9821   20.3314 C   0  0  0  0  0  0
  -31.5274  -19.9416   20.1425 C   0  0  0  0  0  0
  -29.8605  -18.2289   20.3472 C   0  0  0  0  0  0
  -28.6001  -22.7799   22.1352 C   0  0  0  0  0  0
  -34.1773  -19.9280   17.2249 C   0  0  0  0  0  0
  -33.9272  -22.4305   17.1183 C   0  0  0  0  0  0
  -33.6441  -21.2652   19.3547 C   0  0  0  0  0  0
  -28.3537  -24.1749   19.8780 C   0  0  0  0  0  0
  -28.4048  -22.5064   20.6363 C   0  0  1  0  0  0
  -33.0464  -20.1029   20.1919 C   0  0  1  0  0  0
  -33.4530  -21.1492   17.8234 C   0  0  0  0  0  0
  -31.1425  -18.6349   20.2167 N   0  0  0  0  0  0
  -29.6254  -16.6146   20.4305 N   0  0  0  0  0  0
  -33.4312  -20.1852   21.6045 N   0  3  0  0  0  0
  -31.4487  -13.0629   19.1946 H   0  0  0  0  0  0
  -30.5102  -11.9574   20.1490 H   0  0  0  0  0  0
  -29.9274  -11.7583   17.7054 H   0  0  0  0  0  0
  -29.5512  -13.4633   17.6406 H   0  0  0  0  0  0
  -28.0615  -11.2771   19.1119 H   0  0  0  0  0  0
  -27.4199  -12.3137   17.8628 H   0  0  0  0  0  0
  -27.5104  -14.2359   19.3052 H   0  0  0  0  0  0
  -28.8160  -12.5542   21.4961 H   0  0  0  0  0  0
  -28.2590  -14.2008   21.6791 H   0  0  0  0  0  0
  -25.2757   -9.5688   22.4762 H   0  0  0  0  0  0
  -24.0006   -7.4624   22.7470 H   0  0  0  0  0  0
  -21.0838   -8.8742   19.8948 H   0  0  0  0  0  0
  -22.3671  -10.9651   19.6165 H   0  0  0  0  0  0
  -21.2004   -7.6143   23.9713 H   0  0  0  0  0  0
  -21.1492   -6.0520   25.9080 H   0  0  0  0  0  0
  -22.0593   -2.7600   23.2856 H   0  0  0  0  0  0
  -22.4039  -11.9846   22.4900 H   0  0  0  0  0  0
  -21.1001  -13.1154   22.2657 H   0  0  0  0  0  0
  -24.6156  -15.8373   20.5134 H   0  0  0  0  0  0
  -26.2205  -15.6358   20.0273 H   0  0  0  0  0  0
  -26.7399  -32.5038   23.0843 H   0  0  0  0  0  0
  -25.0059  -33.9437   25.0120 H   0  0  0  0  0  0
  -22.7982  -31.2542   21.3362 H   0  0  0  0  0  0
  -23.3774  -35.9520   23.3277 H   0  0  0  0  0  0
  -24.3583  -36.8909   22.2084 H   0  0  0  0  0  0
  -23.7245  -37.6358   23.6758 H   0  0  0  0  0  0
  -26.2418  -31.3477   20.6281 H   0  0  0  0  0  0
  -26.9063  -30.6626   22.0671 H   0  0  0  0  0  0
  -28.1346  -28.5485   21.3186 H   0  0  0  0  0  0
  -25.9005  -25.6977   18.9987 H   0  0  0  0  0  0
  -24.0257  -27.2470   18.9306 H   0  0  0  0  0  0
  -23.8866  -30.4976   19.3829 H   0  0  0  0  0  0
  -22.8356  -29.1884   19.8234 H   0  0  0  0  0  0
  -25.1328  -36.1730   25.0775 H   0  0  0  0  0  0
  -21.0036  -28.3363   24.1287 H   0  0  0  0  0  0
  -20.5644  -26.2361   23.3644 H   0  0  0  0  0  0
  -21.6659  -26.7353   22.1222 H   0  0  0  0  0  0
  -19.6944  -25.6242   21.1271 H   0  0  0  0  0  0
  -19.6725  -27.3110   20.6684 H   0  0  0  0  0  0
  -17.4224  -26.6666   21.4011 H   0  0  0  0  0  0
  -18.0363  -26.0057   22.8984 H   0  0  0  0  0  0
  -19.7992  -30.7300   24.2149 H   0  0  0  0  0  0
  -17.5063  -31.6247   24.5159 H   0  0  0  0  0  0
  -15.5387  -30.2928   23.7707 H   0  0  0  0  0  0
  -15.8729  -28.0784   22.7068 H   0  0  0  0  0  0
  -24.5857  -30.7139   25.7614 H   0  0  0  0  0  0
  -24.8840  -32.2995   26.4626 H   0  0  0  0  0  0
  -25.7868  -30.9022   27.0205 H   0  0  0  0  0  0
  -26.3191  -29.6513   24.1492 H   0  0  0  0  0  0
  -27.4008  -29.7306   25.5166 H   0  0  0  0  0  0
  -27.9119  -30.4062   23.9934 H   0  0  0  0  0  0
  -27.2593  -33.3728   26.1894 H   0  0  0  0  0  0
  -28.3901  -32.6841   25.0342 H   0  0  0  0  0  0
  -28.0644  -31.8623   26.5528 H   0  0  0  0  0  0
  -28.2534  -38.0080   24.7511 H   0  0  0  0  0  0
  -28.1110  -36.2604   24.6283 H   0  0  0  0  0  0
  -27.2306  -37.1363   25.8873 H   0  0  0  0  0  0
  -20.9608  -29.8736   21.6650 H   0  0  0  0  0  0
  -26.0132  -38.2738   24.1423 H   0  0  0  0  0  0
  -31.0905  -22.0721   20.1754 H   0  0  0  0  0  0
  -27.8782  -19.2394   20.5829 H   0  0  0  0  0  0
  -28.3376  -21.9075   22.7335 H   0  0  0  0  0  0
  -27.9795  -23.6099   22.4764 H   0  0  0  0  0  0
  -29.6383  -23.0316   22.3539 H   0  0  0  0  0  0
  -34.0949  -19.9144   16.1371 H   0  0  0  0  0  0
  -33.7525  -18.9889   17.5791 H   0  0  0  0  0  0
  -35.2396  -19.9286   17.4721 H   0  0  0  0  0  0
  -33.7781  -22.3661   16.0395 H   0  0  0  0  0  0
  -34.9884  -22.6163   17.2925 H   0  0  0  0  0  0
  -33.3763  -23.3043   17.4680 H   0  0  0  0  0  0
  -34.7139  -21.3245   19.5587 H   0  0  0  0  0  0
  -33.2360  -22.2151   19.6998 H   0  0  0  0  0  0
  -29.3270  -24.2101   19.3894 H   0  0  0  0  0  0
  -27.6691  -24.0811   19.0359 H   0  0  0  0  0  0
  -27.3685  -22.1784   20.5405 H   0  0  0  0  0  0
  -33.4914  -19.1764   19.8242 H   0  0  0  0  0  0
  -32.3869  -21.0431   17.6156 H   0  0  0  0  0  0
  -28.6472  -16.3983   20.5403 H   0  0  0  0  0  0
  -33.0548  -21.0135   22.0255 H   0  0  0  0  0  0
  -34.4278  -20.1638   21.7094 H   0  0  0  0  0  0
  -33.0364  -19.3857   22.0670 H   0  0  0  0  0  0
  1 25  1  0  0  0
  1 30  2  0  0  0
  1 85  1  0  0  0
  2  3  1  0  0  0
  2 25  1  0  0  0
  2 87  1  0  0  0
  2 88  1  0  0  0
  3  4  1  0  0  0
  3 89  1  0  0  0
  3 90  1  0  0  0
  4  5  1  0  0  0
  4 91  1  0  0  0
  4 92  1  0  0  0
  5  6  1  0  0  0
  5 26  1  0  0  0
  5 93  1  0  0  0
  6 25  1  0  0  0
  6 94  1  0  0  0
  6 95  1  0  0  0
  7  8  2  0  0  0
  7 26  1  0  0  0
  7 29  1  0  0  0
  8  9  1  0  0  0
  8 22  1  0  0  0
  9 10  1  0  0  0
  9 27  2  0  0  0
 10 11  2  0  0  0
 10 15  1  0  0  0
 11 12  1  0  0  0
 11 96  1  0  0  0
 12 13  2  0  0  0
 12 97  1  0  0  0
 13 14  1  0  0  0
 13 31  1  0  0  0
 14 15  2  0  0  0
 14 98  1  0  0  0
 15 99  1  0  0  0
 16 17  2  0  0  0
 16 21  1  0  0  0
 16 31  1  0  0  0
 17 18  1  0  0  0
 17100  1  0  0  0
 18 19  2  0  0  0
 18101  1  0  0  0
 19 20  1  0  0  0
 19 24  1  0  0  0
 20 21  2  0  0  0
 20102  1  0  0  0
 21 23  1  0  0  0
 22 28  1  0  0  0
 22 32  2  0  0  0
 26 27  1  0  0  0
 28103  1  0  0  0
 28104  1  0  0  0
 29105  1  0  0  0
 29106  1  0  0  0
 33 34  1  0  0  0
 33 66  1  0  0  0
 33 70  2  0  0  0
 34 36  1  0  0  0
 34 59  1  0  0  0
 34107  1  0  0  0
 35 44  2  0  0  0
 35 45  1  0  0  0
 35 68  1  0  0  0
 36 56  1  0  0  0
 36108  1  0  0  0
 37 39  1  0  0  0
 37 47  1  0  0  0
 37 66  1  0  0  0
 37109  1  0  0  0
 38 43  2  0  0  0
 38 46  1  0  0  0
 38 47  1  0  0  0
 39 64  1  0  0  0
 39 67  2  0  0  0
 40 52  1  0  0  0
 40 53  2  0  0  0
 40 58  1  0  0  0
 41110  1  0  0  0
 41111  1  0  0  0
 41112  1  0  0  0
 41 48  1  0  0  0
 42 43  1  0  0  0
 42 66  1  0  0  0
 42113  1  0  0  0
 42114  1  0  0  0
 43 44  1  0  0  0
 44115  1  0  0  0
 45 46  2  0  0  0
 45116  1  0  0  0
 46117  1  0  0  0
 47118  1  0  0  0
 47119  1  0  0  0
 48 56  1  0  0  0
 48 65  1  0  0  0
 48120  1  0  0  0
 49 50  1  0  0  0
 49 53  1  0  0  0
 49 64  1  0  0  0
 49121  1  0  0  0
 50 51  1  0  0  0
 50122  1  0  0  0
 50123  1  0  0  0
 51 52  1  0  0  0
 51124  1  0  0  0
 51125  1  0  0  0
 52126  1  0  0  0
 52127  1  0  0  0
 53 54  1  0  0  0
 54 55  2  0  0  0
 54128  1  0  0  0
 55 57  1  0  0  0
 55129  1  0  0  0
 56 69  2  0  0  0
 57 58  2  0  0  0
 57130  1  0  0  0
 58131  1  0  0  0
 59 60  1  0  0  0
 59 61  1  0  0  0
 59 62  1  0  0  0
 60132  1  0  0  0
 60133  1  0  0  0
 60134  1  0  0  0
 61135  1  0  0  0
 61136  1  0  0  0
 61137  1  0  0  0
 62138  1  0  0  0
 62139  1  0  0  0
 62140  1  0  0  0
 63 65  1  0  0  0
 63141  1  0  0  0
 63142  1  0  0  0
 63143  1  0  0  0
 64144  1  0  0  0
 65145  1  0  0  0
 68 80  1  0  0  0
 71 73  2  0  0  0
 71 74  1  0  0  0
 71146  1  0  0  0
 72 73  1  0  0  0
 72 75  2  0  0  0
 72147  1  0  0  0
 73 81  1  0  0  0
 74 82  1  0  0  0
 74 84  2  0  0  0
 75 84  1  0  0  0
 75 85  1  0  0  0
 76148  1  0  0  0
 76149  1  0  0  0
 76150  1  0  0  0
 76 81  1  0  0  0
 77151  1  0  0  0
 77152  1  0  0  0
 77153  1  0  0  0
 77 83  1  0  0  0
 78 83  1  0  0  0
 78154  1  0  0  0
 78155  1  0  0  0
 78156  1  0  0  0
 79 82  1  0  0  0
 79 83  1  0  0  0
 79157  1  0  0  0
 79158  1  0  0  0
 80 81  1  0  0  0
 80159  1  0  0  0
 80160  1  0  0  0
 81161  1  0  0  0
 82 86  1  0  0  0
 82162  1  0  0  0
 83163  1  0  0  0
 85164  1  0  0  0
 86165  1  0  0  0
 86166  1  0  0  0
 86167  1  0  0  0
M  CHG  1  86   1
M  ISO  4   1 100  68 101  80 101  85 100
M  END
> <chiral flag>
0

> <version>
0

> <s_m_source_file>
/data/baiqing/PycharmProjects/Reinvent-master-3.2/result/LINK_invent/BTK/process_docking_weight1_custom_sum_contain_oxygen_bond_distance_aromatic_linkinvent_7_9_3/rearranged_h_0110.sdf

> <i_m_source_file_index>
41

> <r_mmod_Potential_Energy-OPLS-2005>
970.403869628906

> <r_mmod_Stretch_Energy-OPLS-2005>
656.275024414062

> <r_mmod_Bend_Energy-OPLS-2005>
494.758605957031

> <r_mmod_Torsional_Energy-OPLS-2005>
225.260177612305

> <r_mmod_Improper_Torsional_Energy-OPLS-2005>
6.7052845954895

> <r_mmod_Van_der_Waal_Energy-OPLS-2005>
122.63151550293

> <r_mmod_Electrostatic_Energy-OPLS-2005>
-576.463195800781

> <r_mmod_Solvation_Energy-OPLS-2005>
-485.429168701172

> <b_mmod_Minimization_Converged-OPLS-2005>
0

> <r_mmod_RMS_Derivative-OPLS-2005>
2.08600974082947

$$$$
42
                    3D
 Structure written by MMmdl.
166174  0  0  1  0            999 V2000
  -30.6326  -14.7747   20.3695 C   0  0  0  0  0  0
  -30.4328  -12.4445   19.5055 C   0  0  0  0  0  0
  -29.5233  -12.3418   18.2526 C   0  0  0  0  0  0
  -28.0477  -12.7340   18.5138 C   0  0  0  0  0  0
  -27.7089  -12.7653   20.0051 C   0  0  2  0  0  0
  -28.7059  -13.3279   21.0165 C   0  0  0  0  0  0
  -25.2986  -13.7568   20.5587 C   0  0  0  0  0  0
  -24.1811  -13.0374   20.9105 C   0  0  0  0  0  0
  -24.5694  -11.6680   20.8846 C   0  0  0  0  0  0
  -23.8416  -10.4202   21.0560 C   0  0  0  0  0  0
  -24.3188   -9.4146   21.9260 C   0  0  0  0  0  0
  -23.6048   -8.2112   22.0774 C   0  0  0  0  0  0
  -22.4048   -8.0114   21.3539 C   0  0  0  0  0  0
  -21.9551   -9.0033   20.4663 C   0  0  0  0  0  0
  -22.6709  -10.2001   20.3120 C   0  0  0  0  0  0
  -21.6761   -6.0632   22.5270 C   0  0  0  0  0  0
  -21.3960   -6.5587   23.8196 C   0  0  0  0  0  0
  -21.3656   -5.6778   24.9178 C   0  0  0  0  0  0
  -21.6037   -4.3030   24.7242 C   0  0  0  0  0  0
  -21.8847   -3.8100   23.4383 C   0  0  0  0  0  0
  -21.9170   -4.6891   22.3422 C   0  0  0  0  0  0
  -22.7945  -13.5491   21.1822 C   0  0  0  0  0  0
  -22.1659   -4.2084   21.1001 F   0  0  0  0  0  0
  -21.5594   -3.4524   25.7763 F   0  0  0  0  0  0
  -29.9852  -13.5751   20.3422 N   0  0  0  0  0  0
  -26.2999  -12.7955   20.3680 N   0  0  0  0  0  0
  -25.8321  -11.5573   20.5875 N   0  0  0  0  0  0
  -22.0487  -12.8547   22.0371 N   0  0  0  0  0  0
  -25.5186  -15.1255   20.4011 N   0  0  0  0  0  0
  -31.8514  -14.8424   20.1973 O   0  0  0  0  0  0
  -21.6516   -6.8679   21.4197 O   0  0  0  0  0  0
  -22.3814  -14.5848   20.6642 O   0  0  0  0  0  0
  -24.6295  -31.8538   23.1998 C   0  0  0  0  0  0
  -25.9116  -32.4756   23.8348 C   0  0  1  0  0  0
  -27.2275  -27.2740   20.1345 C   0  0  0  0  0  0
  -25.5896  -33.8562   24.2245 N   0  0  0  0  0  0
  -23.4286  -30.4823   21.5355 C   0  0  2  0  0  0
  -24.8778  -28.9278   20.1125 C   0  0  0  0  0  0
  -22.7497  -29.4622   22.4827 C   0  0  0  0  0  0
  -18.0298  -28.1371   22.8451 C   0  0  0  0  0  0
  -24.1496  -36.7306   23.2642 C   0  0  0  0  0  0
  -25.9743  -30.7780   21.3750 C   0  0  0  0  0  0
  -26.0490  -29.3994   20.7192 C   0  0  0  0  0  0
  -27.2268  -28.5870   20.7117 C   0  0  0  0  0  0
  -26.0315  -26.8693   19.4971 C   0  0  0  0  0  0
  -24.8723  -27.6730   19.4889 C   0  0  0  0  0  0
  -23.6511  -29.8166   20.1520 C   0  0  0  0  0  0
  -25.4123  -36.3072   24.0311 C   0  0  1  0  0  0
  -20.5910  -28.3706   23.1219 C   0  0  2  0  0  0
  -20.6783  -26.9410   22.5384 C   0  0  0  0  0  0
  -19.5762  -26.6360   21.5193 C   0  0  0  0  0  0
  -18.1953  -26.7903   22.1620 C   0  0  0  0  0  0
  -19.1556  -28.8854   23.2844 C   0  0  0  0  0  0
  -18.9475  -30.1453   23.8869 C   0  0  0  0  0  0
  -17.6475  -30.6572   24.0559 C   0  0  0  0  0  0
  -25.9052  -34.9436   23.5092 C   0  0  0  0  0  0
  -16.5364  -29.9068   23.6312 C   0  0  0  0  0  0
  -16.7290  -28.6492   23.0314 C   0  0  0  0  0  0
  -26.4483  -31.6593   25.0735 C   0  0  0  0  0  0
  -25.3696  -31.3741   26.1447 C   0  0  0  0  0  0
  -27.0347  -30.3003   24.6234 C   0  0  0  0  0  0
  -27.6024  -32.4357   25.7515 C   0  0  0  0  0  0
  -27.5590  -37.1832   24.8454 C   0  0  0  0  0  0
  -21.4203  -29.3063   22.3604 N   0  0  0  0  0  0
  -26.4315  -37.3773   23.9383 N   0  0  0  0  0  0
  -24.6964  -31.0558   22.0936 N   0  0  0  0  0  0
  -23.4215  -28.8123   23.2895 O   0  0  0  0  0  0
  -28.3341  -26.3962   20.1919 O   0  0  0  0  0  0
  -26.5645  -34.8900   22.4668 O   0  0  0  0  0  0
  -23.5445  -32.1305   23.7316 O   0  0  0  0  0  0
  -29.4698  -20.3566   18.2928 C   0  0  0  0  0  0
  -29.3073  -19.3068   17.3781 C   0  0  0  0  0  0
  -29.5723  -19.8214   19.5422 C   0  0  0  0  0  0
  -29.3774  -18.1226   18.0471 C   0  0  0  0  0  0
  -27.7253  -16.2207   17.8060 C   0  0  0  0  0  0
  -30.2133  -15.8953   17.0102 C   0  0  0  0  0  0
  -30.0761  -24.2950   21.7643 C   0  0  0  0  0  0
  -29.5084  -20.7432   20.7792 C   0  0  0  0  0  0
  -28.9048  -22.2656   20.5843 C   0  0  0  0  0  0
  -28.0823  -24.9189   20.3109 C   0  0  0  0  0  0
  -30.1791  -17.3695   20.4404 C   0  0  0  0  0  0
  -29.0475  -16.8416   17.3324 C   0  0  0  0  0  0
  -29.2866  -23.8613   20.5017 C   0  0  1  0  0  0
  -29.7096  -18.3810   19.4003 N   0  0  0  0  0  0
  -29.8383  -15.9003   20.3092 N   0  0  0  0  0  0
  -31.4823  -12.5256   19.2140 H   0  0  0  0  0  0
  -30.3695  -11.5335   20.1048 H   0  0  0  0  0  0
  -29.5458  -11.3019   17.9215 H   0  0  0  0  0  0
  -29.9308  -12.9222   17.4269 H   0  0  0  0  0  0
  -27.3663  -12.0815   17.9712 H   0  0  0  0  0  0
  -27.8799  -13.7076   18.0904 H   0  0  0  0  0  0
  -27.9840  -11.7179   20.1657 H   0  0  0  0  0  0
  -28.8610  -12.6290   21.8397 H   0  0  0  0  0  0
  -28.2962  -14.2299   21.4740 H   0  0  0  0  0  0
  -25.2354   -9.5686   22.4769 H   0  0  0  0  0  0
  -23.9856   -7.4501   22.7451 H   0  0  0  0  0  0
  -21.0511   -8.8407   19.8944 H   0  0  0  0  0  0
  -22.3149  -10.9493   19.6199 H   0  0  0  0  0  0
  -21.1954   -7.6098   23.9650 H   0  0  0  0  0  0
  -21.1461   -6.0530   25.9066 H   0  0  0  0  0  0
  -22.0648   -2.7562   23.2896 H   0  0  0  0  0  0
  -22.3985  -12.0095   22.4702 H   0  0  0  0  0  0
  -21.1132  -13.1613   22.2645 H   0  0  0  0  0  0
  -24.7724  -15.8007   20.5322 H   0  0  0  0  0  0
  -26.3748  -15.5391   20.0595 H   0  0  0  0  0  0
  -26.7187  -32.5397   23.1115 H   0  0  0  0  0  0
  -24.9996  -33.9704   25.0348 H   0  0  0  0  0  0
  -22.7226  -31.3039   21.3902 H   0  0  0  0  0  0
  -23.3740  -35.9669   23.3297 H   0  0  0  0  0  0
  -24.3589  -36.8940   22.2066 H   0  0  0  0  0  0
  -23.7289  -37.6514   23.6674 H   0  0  0  0  0  0
  -26.1134  -31.5458   20.6125 H   0  0  0  0  0  0
  -26.8496  -30.8199   22.0118 H   0  0  0  0  0  0
  -28.1265  -28.9484   21.1899 H   0  0  0  0  0  0
  -25.9634  -25.9152   18.9960 H   0  0  0  0  0  0
  -23.9740  -27.3211   19.0012 H   0  0  0  0  0  0
  -23.7833  -30.5917   19.3940 H   0  0  0  0  0  0
  -22.7697  -29.2491   19.8450 H   0  0  0  0  0  0
  -25.1334  -36.1933   25.0817 H   0  0  0  0  0  0
  -21.0034  -28.3307   24.1331 H   0  0  0  0  0  0
  -20.5629  -26.2340   23.3601 H   0  0  0  0  0  0
  -21.6659  -26.7381   22.1227 H   0  0  0  0  0  0
  -19.6923  -25.6259   21.1253 H   0  0  0  0  0  0
  -19.6699  -27.3138   20.6690 H   0  0  0  0  0  0
  -17.4202  -26.6587   21.4043 H   0  0  0  0  0  0
  -18.0410  -26.0062   22.9044 H   0  0  0  0  0  0
  -19.7956  -30.7284   24.2214 H   0  0  0  0  0  0
  -17.5019  -31.6242   24.5178 H   0  0  0  0  0  0
  -15.5360  -30.2966   23.7631 H   0  0  0  0  0  0
  -15.8690  -28.0827   22.6992 H   0  0  0  0  0  0
  -24.5830  -30.7154   25.7744 H   0  0  0  0  0  0
  -24.8941  -32.2915   26.4911 H   0  0  0  0  0  0
  -25.7986  -30.8847   27.0192 H   0  0  0  0  0  0
  -26.2944  -29.6742   24.1231 H   0  0  0  0  0  0
  -27.3986  -29.7312   25.4795 H   0  0  0  0  0  0
  -27.8837  -30.4249   23.9519 H   0  0  0  0  0  0
  -27.2586  -33.3603   26.2163 H   0  0  0  0  0  0
  -28.3795  -32.7026   25.0342 H   0  0  0  0  0  0
  -28.0727  -31.8446   26.5378 H   0  0  0  0  0  0
  -28.2620  -38.0116   24.7488 H   0  0  0  0  0  0
  -28.1077  -36.2652   24.6305 H   0  0  0  0  0  0
  -27.2293  -37.1516   25.8852 H   0  0  0  0  0  0
  -20.9356  -29.8829   21.6869 H   0  0  0  0  0  0
  -26.0168  -38.2856   24.1331 H   0  0  0  0  0  0
  -29.4256  -21.4136   18.0632 H   0  0  0  0  0  0
  -29.0948  -19.4107   16.3224 H   0  0  0  0  0  0
  -26.9714  -16.9943   17.9598 H   0  0  0  0  0  0
  -27.8013  -15.6819   18.7436 H   0  0  0  0  0  0
  -27.3177  -15.5570   17.0395 H   0  0  0  0  0  0
  -31.0997  -16.4624   16.7233 H   0  0  0  0  0  0
  -29.9582  -15.2494   16.1670 H   0  0  0  0  0  0
  -30.4942  -15.2407   17.8266 H   0  0  0  0  0  0
  -31.0553  -23.8193   21.8178 H   0  0  0  0  0  0
  -29.5374  -24.0329   22.6779 H   0  0  0  0  0  0
  -30.2447  -25.3704   21.7809 H   0  0  0  0  0  0
  -28.8174  -20.2392   21.4591 H   0  0  0  0  0  0
  -30.4577  -20.6824   21.3253 H   0  0  0  0  0  0
  -29.9863  -22.3161   20.5474 H   0  0  0  0  0  0
  -28.4043  -22.3186   21.5526 H   0  0  0  0  0  0
  -27.4026  -24.7876   21.1528 H   0  0  0  0  0  0
  -27.5431  -24.5790   19.4298 H   0  0  0  0  0  0
  -29.7953  -17.6940   21.4058 H   0  0  0  0  0  0
  -31.2649  -17.4616   20.5071 H   0  0  0  0  0  0
  -28.7715  -17.1677   16.3285 H   0  0  0  0  0  0
  -29.9284  -24.0291   19.6286 H   0  0  0  0  0  0
  -28.8525  -15.7087   20.2355 H   0  0  0  0  0  0
  1 25  1  0  0  0
  1 30  2  0  0  0
  1 85  1  0  0  0
  2  3  1  0  0  0
  2 25  1  0  0  0
  2 86  1  0  0  0
  2 87  1  0  0  0
  3  4  1  0  0  0
  3 88  1  0  0  0
  3 89  1  0  0  0
  4  5  1  0  0  0
  4 90  1  0  0  0
  4 91  1  0  0  0
  5  6  1  0  0  0
  5 26  1  0  0  0
  5 92  1  0  0  0
  6 25  1  0  0  0
  6 93  1  0  0  0
  6 94  1  0  0  0
  7  8  2  0  0  0
  7 26  1  0  0  0
  7 29  1  0  0  0
  8  9  1  0  0  0
  8 22  1  0  0  0
  9 10  1  0  0  0
  9 27  2  0  0  0
 10 11  2  0  0  0
 10 15  1  0  0  0
 11 12  1  0  0  0
 11 95  1  0  0  0
 12 13  2  0  0  0
 12 96  1  0  0  0
 13 14  1  0  0  0
 13 31  1  0  0  0
 14 15  2  0  0  0
 14 97  1  0  0  0
 15 98  1  0  0  0
 16 17  2  0  0  0
 16 21  1  0  0  0
 16 31  1  0  0  0
 17 18  1  0  0  0
 17 99  1  0  0  0
 18 19  2  0  0  0
 18100  1  0  0  0
 19 20  1  0  0  0
 19 24  1  0  0  0
 20 21  2  0  0  0
 20101  1  0  0  0
 21 23  1  0  0  0
 22 28  1  0  0  0
 22 32  2  0  0  0
 26 27  1  0  0  0
 28102  1  0  0  0
 28103  1  0  0  0
 29104  1  0  0  0
 29105  1  0  0  0
 33 34  1  0  0  0
 33 66  1  0  0  0
 33 70  2  0  0  0
 34 36  1  0  0  0
 34 59  1  0  0  0
 34106  1  0  0  0
 35 44  2  0  0  0
 35 45  1  0  0  0
 35 68  1  0  0  0
 36 56  1  0  0  0
 36107  1  0  0  0
 37 39  1  0  0  0
 37 47  1  0  0  0
 37 66  1  0  0  0
 37108  1  0  0  0
 38 43  2  0  0  0
 38 46  1  0  0  0
 38 47  1  0  0  0
 39 64  1  0  0  0
 39 67  2  0  0  0
 40 52  1  0  0  0
 40 53  2  0  0  0
 40 58  1  0  0  0
 41109  1  0  0  0
 41110  1  0  0  0
 41111  1  0  0  0
 41 48  1  0  0  0
 42 43  1  0  0  0
 42 66  1  0  0  0
 42112  1  0  0  0
 42113  1  0  0  0
 43 44  1  0  0  0
 44114  1  0  0  0
 45 46  2  0  0  0
 45115  1  0  0  0
 46116  1  0  0  0
 47117  1  0  0  0
 47118  1  0  0  0
 48 56  1  0  0  0
 48 65  1  0  0  0
 48119  1  0  0  0
 49 50  1  0  0  0
 49 53  1  0  0  0
 49 64  1  0  0  0
 49120  1  0  0  0
 50 51  1  0  0  0
 50121  1  0  0  0
 50122  1  0  0  0
 51 52  1  0  0  0
 51123  1  0  0  0
 51124  1  0  0  0
 52125  1  0  0  0
 52126  1  0  0  0
 53 54  1  0  0  0
 54 55  2  0  0  0
 54127  1  0  0  0
 55 57  1  0  0  0
 55128  1  0  0  0
 56 69  2  0  0  0
 57 58  2  0  0  0
 57129  1  0  0  0
 58130  1  0  0  0
 59 60  1  0  0  0
 59 61  1  0  0  0
 59 62  1  0  0  0
 60131  1  0  0  0
 60132  1  0  0  0
 60133  1  0  0  0
 61134  1  0  0  0
 61135  1  0  0  0
 61136  1  0  0  0
 62137  1  0  0  0
 62138  1  0  0  0
 62139  1  0  0  0
 63 65  1  0  0  0
 63140  1  0  0  0
 63141  1  0  0  0
 63142  1  0  0  0
 64143  1  0  0  0
 65144  1  0  0  0
 68 80  1  0  0  0
 71 72  1  0  0  0
 71 73  2  0  0  0
 71145  1  0  0  0
 72 74  2  0  0  0
 72146  1  0  0  0
 73 78  1  0  0  0
 73 84  1  0  0  0
 74 82  1  0  0  0
 74 84  1  0  0  0
 75147  1  0  0  0
 75148  1  0  0  0
 75149  1  0  0  0
 75 82  1  0  0  0
 76 82  1  0  0  0
 76150  1  0  0  0
 76151  1  0  0  0
 76152  1  0  0  0
 77153  1  0  0  0
 77154  1  0  0  0
 77155  1  0  0  0
 77 83  1  0  0  0
 78 79  1  0  0  0
 78156  1  0  0  0
 78157  1  0  0  0
 79 83  1  0  0  0
 79158  1  0  0  0
 79159  1  0  0  0
 80 83  1  0  0  0
 80160  1  0  0  0
 80161  1  0  0  0
 81 84  1  0  0  0
 81 85  1  0  0  0
 81162  1  0  0  0
 81163  1  0  0  0
 82164  1  0  0  0
 83165  1  0  0  0
 85166  1  0  0  0
M  ISO  4   1 100  68 101  80 101  85 100
M  END
> <chiral flag>
0

> <version>
0

> <s_m_source_file>
/data/baiqing/PycharmProjects/Reinvent-master-3.2/result/LINK_invent/BTK/process_docking_weight1_custom_sum_contain_oxygen_bond_distance_aromatic_linkinvent_7_9_3/rearranged_h_0110.sdf

> <i_m_source_file_index>
42

> <r_mmod_Potential_Energy-OPLS-2005>
567.642944335938

> <r_mmod_Stretch_Energy-OPLS-2005>
127.572120666504

> <r_mmod_Bend_Energy-OPLS-2005>
491.714721679688

> <r_mmod_Torsional_Energy-OPLS-2005>
291.969055175781

> <r_mmod_Improper_Torsional_Energy-OPLS-2005>
6.44567775726318

> <r_mmod_Van_der_Waal_Energy-OPLS-2005>
143.275527954102

> <r_mmod_Electrostatic_Energy-OPLS-2005>
-442.297515869141

> <r_mmod_Solvation_Energy-OPLS-2005>
-200.905014038086

> <b_mmod_Minimization_Converged-OPLS-2005>
0

> <r_mmod_RMS_Derivative-OPLS-2005>
6.2929859161377

$$$$
43
                    3D
 Structure written by MMmdl.
176184  0  0  1  0            999 V2000
  -31.3716  -14.1039   20.8199 C   0  0  0  0  0  0
  -31.1282  -12.5668   18.8483 C   0  0  0  0  0  0
  -29.9618  -12.7335   17.8298 C   0  0  0  0  0  0
  -28.9743  -13.8830   18.5713 C   0  0  0  0  0  0
  -27.2910  -13.9728   20.6752 C   0  0  2  0  0  0
  -29.1662  -13.7009   19.7574 C   0  0  0  0  0  0
  -24.7908  -14.0086   20.7242 C   0  0  0  0  0  0
  -23.8058  -13.1347   20.9578 C   0  0  0  0  0  0
  -24.3352  -11.8230   21.0191 C   0  0  0  0  0  0
  -23.7585  -10.4860   21.0830 C   0  0  0  0  0  0
  -24.2803   -9.4759   21.9235 C   0  0  0  0  0  0
  -23.6116   -8.2408   22.0647 C   0  0  0  0  0  0
  -22.4104   -8.0156   21.3511 C   0  0  0  0  0  0
  -21.9471   -8.9885   20.4477 C   0  0  0  0  0  0
  -22.6245  -10.2061   20.3040 C   0  0  0  0  0  0
  -21.6842   -6.0640   22.5418 C   0  0  0  0  0  0
  -21.4017   -6.5572   23.8363 C   0  0  0  0  0  0
  -21.3574   -5.6710   24.9316 C   0  0  0  0  0  0
  -21.5989   -4.2974   24.7370 C   0  0  0  0  0  0
  -21.8801   -3.8065   23.4488 C   0  0  0  0  0  0
  -21.9191   -4.6888   22.3544 C   0  0  0  0  0  0
  -22.4265  -13.5651   21.1486 C   0  0  0  0  0  0
  -22.1596   -4.2051   21.1101 F   0  0  0  0  0  0
  -21.5519   -3.4474   25.7859 F   0  0  0  0  0  0
  -30.6307  -13.2451   20.1211 N   0  0  0  0  0  0
  -25.8927  -13.2896   20.9059 N   0  0  0  0  0  0
  -25.5944  -11.9570   21.1343 N   0  0  0  0  0  0
  -21.7382  -12.8668   22.0304 N   0  0  0  0  0  0
  -24.8642  -15.3538   20.4003 N   0  0  0  0  0  0
  -32.1056  -14.8868   20.2441 O   0  0  0  0  0  0
  -21.6667   -6.8654   21.4288 O   0  0  0  0  0  0
  -22.0104  -14.5908   20.6256 O   0  0  0  0  0  0
  -24.6973  -31.7928   23.1548 C   0  0  0  0  0  0
  -25.9401  -32.4567   23.8193 C   0  0  1  0  0  0
  -27.0515  -26.5699   20.0852 C   0  0  0  0  0  0
  -25.5939  -33.8436   24.2046 N   0  0  0  0  0  0
  -23.5277  -30.3957   21.5177 C   0  0  2  0  0  0
  -24.9355  -28.7307   20.1189 C   0  0  0  0  0  0
  -22.7830  -29.4195   22.4731 C   0  0  0  0  0  0
  -18.0336  -28.1487   22.8418 C   0  0  0  0  0  0
  -24.1459  -36.7203   23.2660 C   0  0  0  0  0  0
  -26.1193  -30.4608   21.4432 C   0  0  0  0  0  0
  -26.1488  -29.0195   20.7607 C   0  0  0  0  0  0
  -27.2025  -27.9585   20.7132 C   0  0  0  0  0  0
  -25.8373  -26.5428   19.3865 C   0  0  0  0  0  0
  -24.8278  -27.5283   19.4165 C   0  0  0  0  0  0
  -23.7819  -29.7308   20.1467 C   0  0  0  0  0  0
  -25.4173  -36.3071   24.0287 C   0  0  1  0  0  0
  -20.5961  -28.3810   23.1203 C   0  0  2  0  0  0
  -20.6793  -26.9450   22.5465 C   0  0  0  0  0  0
  -19.5794  -26.6350   21.5272 C   0  0  0  0  0  0
  -18.1963  -26.8009   22.1599 C   0  0  0  0  0  0
  -19.1578  -28.8995   23.2782 C   0  0  0  0  0  0
  -18.9440  -30.1572   23.8816 C   0  0  0  0  0  0
  -17.6414  -30.6609   24.0548 C   0  0  0  0  0  0
  -25.9135  -34.9401   23.4995 C   0  0  0  0  0  0
  -16.5332  -29.9075   23.6375 C   0  0  0  0  0  0
  -16.7302  -28.6560   23.0314 C   0  0  0  0  0  0
  -26.4555  -31.6822   25.0927 C   0  0  0  0  0  0
  -25.3543  -31.4197   26.1513 C   0  0  0  0  0  0
  -27.0576  -30.3237   24.6990 C   0  0  0  0  0  0
  -27.6026  -32.4747   25.7666 C   0  0  0  0  0  0
  -27.5646  -37.1802   24.8463 C   0  0  0  0  0  0
  -21.4454  -29.3053   22.3582 N   0  0  0  0  0  0
  -26.4364  -37.3779   23.9360 N   0  0  0  0  0  0
  -24.8105  -30.9251   22.0859 N   0  0  0  0  0  0
  -23.4259  -28.7753   23.3009 O   0  0  0  0  0  0
  -27.8520  -25.2288   20.0332 O   0  0  0  0  0  0
  -26.5707  -34.8928   22.4579 O   0  0  0  0  0  0
  -23.5943  -32.0951   23.6436 O   0  0  0  0  0  0
  -28.8788  -15.3787   21.4496 C   0  0  0  0  0  0
  -28.9128  -13.3912   22.0532 C   0  0  0  0  0  0
  -28.0739  -11.9134   20.7727 C   0  0  0  0  0  0
  -27.8540  -15.9956   19.8114 C   0  0  0  0  0  0
  -27.1118  -12.5782   18.9883 C   0  0  0  0  0  0
  -29.1863  -10.0265   22.2714 C   0  0  0  0  0  0
  -28.2017   -9.4746   17.8581 C   0  0  0  0  0  0
  -29.1748  -17.9784   18.5553 C   0  0  0  0  0  0
  -26.6520  -17.8294   18.3442 C   0  0  0  0  0  0
  -28.2176  -10.4088   21.1318 C   0  0  0  0  0  0
  -30.1985  -13.1425   22.8428 C   0  0  0  0  0  0
  -26.5683  -11.6230   17.9271 C   0  0  0  0  0  0
  -26.8129  -10.0978   18.1087 C   0  0  0  0  0  0
  -27.9531  -21.6295   19.5219 C   0  0  0  0  0  0
  -27.6994  -19.7041   20.0083 C   0  0  0  0  0  0
  -27.3652  -23.4956   19.8977 C   0  0  0  0  0  0
  -27.8483  -17.8476   19.3246 C   0  0  0  0  0  0
  -26.8588  -14.6549   18.6614 N   0  0  0  0  0  0
  -31.2678  -13.9067   22.1526 N   0  0  0  0  0  0
  -32.0431  -13.0538   18.4880 H   0  0  0  0  0  0
  -31.3419  -11.5040   18.9873 H   0  0  0  0  0  0
  -29.4454  -11.8332   17.5449 H   0  0  0  0  0  0
  -30.3437  -13.1812   16.9076 H   0  0  0  0  0  0
  -28.4935  -13.8006   17.5594 H   0  0  0  0  0  0
  -29.3052  -14.8995   18.1423 H   0  0  0  0  0  0
  -26.9084  -14.7427   21.4032 H   0  0  0  0  0  0
  -29.7233  -12.8459   20.1959 H   0  0  0  0  0  0
  -28.1608  -13.9894   20.2512 H   0  0  0  0  0  0
  -25.1690   -9.6668   22.5057 H   0  0  0  0  0  0
  -24.0009   -7.4868   22.7349 H   0  0  0  0  0  0
  -21.0509   -8.8073   19.8736 H   0  0  0  0  0  0
  -22.2368  -10.9493   19.6246 H   0  0  0  0  0  0
  -21.2048   -7.6078   23.9991 H   0  0  0  0  0  0
  -21.1273   -6.0319   25.9226 H   0  0  0  0  0  0
  -22.0606   -2.7538   23.3066 H   0  0  0  0  0  0
  -22.1325  -12.0477   22.4659 H   0  0  0  0  0  0
  -20.7956  -13.1518   22.2664 H   0  0  0  0  0  0
  -23.9520  -15.7405   20.1814 H   0  0  0  0  0  0
  -25.4455  -15.2883   19.5473 H   0  0  0  0  0  0
  -26.7497  -32.4961   23.0935 H   0  0  0  0  0  0
  -25.0111  -33.9559   25.0238 H   0  0  0  0  0  0
  -22.8602  -31.2422   21.3468 H   0  0  0  0  0  0
  -23.3845  -35.9403   23.3298 H   0  0  0  0  0  0
  -24.3515  -36.8883   22.2081 H   0  0  0  0  0  0
  -23.7017  -37.6290   23.6738 H   0  0  0  0  0  0
  -26.3566  -31.1980   20.6719 H   0  0  0  0  0  0
  -26.9656  -30.5096   22.1242 H   0  0  0  0  0  0
  -28.1370  -28.1413   21.2315 H   0  0  0  0  0  0
  -25.6225  -25.6452   18.8183 H   0  0  0  0  0  0
  -23.9007  -27.3126   18.8916 H   0  0  0  0  0  0
  -24.0419  -30.5022   19.4266 H   0  0  0  0  0  0
  -22.8696  -29.2654   19.7737 H   0  0  0  0  0  0
  -25.1351  -36.1906   25.0777 H   0  0  0  0  0  0
  -20.9979  -28.3434   24.1343 H   0  0  0  0  0  0
  -20.5758  -26.2357   23.3699 H   0  0  0  0  0  0
  -21.6646  -26.7456   22.1222 H   0  0  0  0  0  0
  -19.6913  -25.6229   21.1394 H   0  0  0  0  0  0
  -19.6817  -27.3066   20.6756 H   0  0  0  0  0  0
  -17.4250  -26.6770   21.3960 H   0  0  0  0  0  0
  -18.0278  -26.0218   22.9047 H   0  0  0  0  0  0
  -19.7901  -30.7434   24.2139 H   0  0  0  0  0  0
  -17.4952  -31.6271   24.5157 H   0  0  0  0  0  0
  -15.5333  -30.2916   23.7786 H   0  0  0  0  0  0
  -15.8705  -28.0887   22.6993 H   0  0  0  0  0  0
  -24.5718  -30.7562   25.7823 H   0  0  0  0  0  0
  -24.8677  -32.3415   26.4779 H   0  0  0  0  0  0
  -25.7632  -30.9485   27.0465 H   0  0  0  0  0  0
  -26.3326  -29.6811   24.2040 H   0  0  0  0  0  0
  -27.3926  -29.7824   25.5831 H   0  0  0  0  0  0
  -27.9319  -30.4492   24.0593 H   0  0  0  0  0  0
  -27.2677  -33.4223   26.1944 H   0  0  0  0  0  0
  -28.3970  -32.7090   25.0560 H   0  0  0  0  0  0
  -28.0580  -31.9110   26.5840 H   0  0  0  0  0  0
  -28.2630  -38.0153   24.7613 H   0  0  0  0  0  0
  -28.1174  -36.2666   24.6190 H   0  0  0  0  0  0
  -27.2376  -37.1306   25.8876 H   0  0  0  0  0  0
  -20.9776  -29.8896   21.6774 H   0  0  0  0  0  0
  -26.0257  -38.2863   24.1317 H   0  0  0  0  0  0
  -29.4639  -16.0871   22.0168 H   0  0  0  0  0  0
  -28.9654  -10.5819   23.1778 H   0  0  0  0  0  0
  -30.2408  -10.1501   21.9849 H   0  0  0  0  0  0
  -29.0727   -8.9741   22.5426 H   0  0  0  0  0  0
  -28.3818   -9.4033   16.7909 H   0  0  0  0  0  0
  -28.2330   -8.4559   18.2578 H   0  0  0  0  0  0
  -29.0383   -9.9899   18.3306 H   0  0  0  0  0  0
  -29.2624  -17.2444   17.7503 H   0  0  0  0  0  0
  -30.0102  -17.8391   19.2433 H   0  0  0  0  0  0
  -29.3079  -18.9572   18.0920 H   0  0  0  0  0  0
  -26.8224  -17.1359   17.5190 H   0  0  0  0  0  0
  -26.4192  -18.8030   17.9135 H   0  0  0  0  0  0
  -25.7551  -17.4773   18.8466 H   0  0  0  0  0  0
  -28.5638   -9.8558   20.2866 H   0  0  0  0  0  0
  -27.2327   -9.9950   21.3608 H   0  0  0  0  0  0
  -30.0954  -13.5094   23.8608 H   0  0  0  0  0  0
  -30.4920  -12.0920   22.9131 H   0  0  0  0  0  0
  -26.9961  -12.0078   16.9992 H   0  0  0  0  0  0
  -25.4850  -11.7623   17.8923 H   0  0  0  0  0  0
  -26.4749   -9.7776   19.0937 H   0  0  0  0  0  0
  -26.1657   -9.6099   17.3724 H   0  0  0  0  0  0
  -27.9335  -21.6199   18.4191 H   0  0  0  0  0  0
  -29.0154  -21.7625   19.7056 H   0  0  0  0  0  0
  -26.7141  -19.7139   20.4734 H   0  0  0  0  0  0
  -28.3890  -19.6432   20.8517 H   0  0  0  0  0  0
  -26.7584  -23.3712   20.7934 H   0  0  0  0  0  0
  -26.5917  -23.6042   19.1275 H   0  0  0  0  0  0
  -31.7870  -14.5469   22.7189 H   0  0  0  0  0  0
  1 25  1  0  0  0
  1 30  2  0  0  0
  1 89  1  0  0  0
  2  3  1  0  0  0
  2 25  1  0  0  0
  2 90  1  0  0  0
  2 91  1  0  0  0
  3  4  1  0  0  0
  3 92  1  0  0  0
  3 93  1  0  0  0
  4  5  1  0  0  0
  4 94  1  0  0  0
  4 95  1  0  0  0
  5  6  1  0  0  0
  5 26  1  0  0  0
  5 96  1  0  0  0
  6 25  1  0  0  0
  6 97  1  0  0  0
  6 98  1  0  0  0
  7  8  2  0  0  0
  7 26  1  0  0  0
  7 29  1  0  0  0
  8  9  1  0  0  0
  8 22  1  0  0  0
  9 10  1  0  0  0
  9 27  2  0  0  0
 10 11  2  0  0  0
 10 15  1  0  0  0
 11 12  1  0  0  0
 11 99  1  0  0  0
 12 13  2  0  0  0
 12100  1  0  0  0
 13 14  1  0  0  0
 13 31  1  0  0  0
 14 15  2  0  0  0
 14101  1  0  0  0
 15102  1  0  0  0
 16 17  2  0  0  0
 16 21  1  0  0  0
 16 31  1  0  0  0
 17 18  1  0  0  0
 17103  1  0  0  0
 18 19  2  0  0  0
 18104  1  0  0  0
 19 20  1  0  0  0
 19 24  1  0  0  0
 20 21  2  0  0  0
 20105  1  0  0  0
 21 23  1  0  0  0
 22 28  1  0  0  0
 22 32  2  0  0  0
 26 27  1  0  0  0
 28106  1  0  0  0
 28107  1  0  0  0
 29108  1  0  0  0
 29109  1  0  0  0
 33 34  1  0  0  0
 33 66  1  0  0  0
 33 70  2  0  0  0
 34 36  1  0  0  0
 34 59  1  0  0  0
 34110  1  0  0  0
 35 44  2  0  0  0
 35 45  1  0  0  0
 35 68  1  0  0  0
 36 56  1  0  0  0
 36111  1  0  0  0
 37 39  1  0  0  0
 37 47  1  0  0  0
 37 66  1  0  0  0
 37112  1  0  0  0
 38 43  2  0  0  0
 38 46  1  0  0  0
 38 47  1  0  0  0
 39 64  1  0  0  0
 39 67  2  0  0  0
 40 52  1  0  0  0
 40 53  2  0  0  0
 40 58  1  0  0  0
 41113  1  0  0  0
 41114  1  0  0  0
 41115  1  0  0  0
 41 48  1  0  0  0
 42 43  1  0  0  0
 42 66  1  0  0  0
 42116  1  0  0  0
 42117  1  0  0  0
 43 44  1  0  0  0
 44118  1  0  0  0
 45 46  2  0  0  0
 45119  1  0  0  0
 46120  1  0  0  0
 47121  1  0  0  0
 47122  1  0  0  0
 48 56  1  0  0  0
 48 65  1  0  0  0
 48123  1  0  0  0
 49 50  1  0  0  0
 49 53  1  0  0  0
 49 64  1  0  0  0
 49124  1  0  0  0
 50 51  1  0  0  0
 50125  1  0  0  0
 50126  1  0  0  0
 51 52  1  0  0  0
 51127  1  0  0  0
 51128  1  0  0  0
 52129  1  0  0  0
 52130  1  0  0  0
 53 54  1  0  0  0
 54 55  2  0  0  0
 54131  1  0  0  0
 55 57  1  0  0  0
 55132  1  0  0  0
 56 69  2  0  0  0
 57 58  2  0  0  0
 57133  1  0  0  0
 58134  1  0  0  0
 59 60  1  0  0  0
 59 61  1  0  0  0
 59 62  1  0  0  0
 60135  1  0  0  0
 60136  1  0  0  0
 60137  1  0  0  0
 61138  1  0  0  0
 61139  1  0  0  0
 61140  1  0  0  0
 62141  1  0  0  0
 62142  1  0  0  0
 62143  1  0  0  0
 63 65  1  0  0  0
 63144  1  0  0  0
 63145  1  0  0  0
 63146  1  0  0  0
 64147  1  0  0  0
 65148  1  0  0  0
 68 86  1  0  0  0
 71 72  2  0  0  0
 71 74  1  0  0  0
 71149  1  0  0  0
 72 73  1  0  0  0
 72 81  1  0  0  0
 73 75  2  0  0  0
 73 80  1  0  0  0
 74 87  1  0  0  0
 74 88  2  0  0  0
 75 82  1  0  0  0
 75 88  1  0  0  0
 76 80  1  0  0  0
 76150  1  0  0  0
 76151  1  0  0  0
 76152  1  0  0  0
 77 83  1  0  0  0
 77153  1  0  0  0
 77154  1  0  0  0
 77155  1  0  0  0
 78156  1  0  0  0
 78157  1  0  0  0
 78158  1  0  0  0
 78 87  1  0  0  0
 79 87  1  0  0  0
 79159  1  0  0  0
 79160  1  0  0  0
 79161  1  0  0  0
 80162  1  0  0  0
 80163  1  0  0  0
 81 89  1  0  0  0
 81164  1  0  0  0
 81165  1  0  0  0
 82 83  1  0  0  0
 82166  1  0  0  0
 82167  1  0  0  0
 83168  1  0  0  0
 83169  1  0  0  0
 84 85  1  0  0  0
 84 86  1  0  0  0
 84170  1  0  0  0
 84171  1  0  0  0
 85 87  1  0  0  0
 85172  1  0  0  0
 85173  1  0  0  0
 86174  1  0  0  0
 86175  1  0  0  0
 89176  1  0  0  0
M  ISO  4   1 100  68 101  86 101  89 100
M  END
> <chiral flag>
0

> <version>
0

> <s_m_source_file>
/data/baiqing/PycharmProjects/Reinvent-master-3.2/result/LINK_invent/BTK/process_docking_weight1_custom_sum_contain_oxygen_bond_distance_aromatic_linkinvent_7_9_3/rearranged_h_0110.sdf

> <i_m_source_file_index>
43

> <r_mmod_Potential_Energy-OPLS-2005>
17036.44140625

> <r_mmod_Stretch_Energy-OPLS-2005>
9299.4560546875

> <r_mmod_Bend_Energy-OPLS-2005>
2519.50317382812

> <r_mmod_Torsional_Energy-OPLS-2005>
361.946929931641

> <r_mmod_Improper_Torsional_Energy-OPLS-2005>
27.8677577972412

> <r_mmod_Van_der_Waal_Energy-OPLS-2005>
3970.12963867188

> <r_mmod_Electrostatic_Energy-OPLS-2005>
-652.065002441406

> <r_mmod_Solvation_Energy-OPLS-2005>
-186.994262695312

> <b_mmod_Minimization_Converged-OPLS-2005>
0

> <r_mmod_RMS_Derivative-OPLS-2005>
24.5670986175537

$$$$
44
                    3D
 Structure written by MMmdl.
162170  0  0  1  0            999 V2000
  -30.6962  -14.4808   20.5882 C   0  0  0  0  0  0
  -30.4279  -12.3186   19.4236 C   0  0  0  0  0  0
  -29.4978  -12.5114   18.2076 C   0  0  0  0  0  0
  -28.0189  -12.3665   18.6192 C   0  0  0  0  0  0
  -27.6619  -13.2068   19.8744 C   0  0  2  0  0  0
  -28.7026  -12.9874   20.9966 C   0  0  0  0  0  0
  -25.2550  -13.8136   20.5608 C   0  0  0  0  0  0
  -24.1827  -13.0418   20.9177 C   0  0  0  0  0  0
  -24.6391  -11.6893   20.8743 C   0  0  0  0  0  0
  -23.9056  -10.4280   21.0408 C   0  0  0  0  0  0
  -24.3609   -9.4197   21.9185 C   0  0  0  0  0  0
  -23.6285   -8.2233   22.0754 C   0  0  0  0  0  0
  -22.4265   -8.0275   21.3546 C   0  0  0  0  0  0
  -21.9900   -9.0249   20.4649 C   0  0  0  0  0  0
  -22.7228  -10.2126   20.3057 C   0  0  0  0  0  0
  -21.6853   -6.0732   22.5277 C   0  0  0  0  0  0
  -21.4014   -6.5637   23.8211 C   0  0  0  0  0  0
  -21.3656   -5.6788   24.9171 C   0  0  0  0  0  0
  -21.6043   -4.3052   24.7226 C   0  0  0  0  0  0
  -21.8819   -3.8144   23.4344 C   0  0  0  0  0  0
  -21.9192   -4.6959   22.3401 C   0  0  0  0  0  0
  -22.7850  -13.5223   21.1842 C   0  0  0  0  0  0
  -22.1662   -4.2145   21.0977 F   0  0  0  0  0  0
  -21.5630   -3.4536   25.7739 F   0  0  0  0  0  0
  -30.0352  -13.2988   20.4490 N   0  0  0  0  0  0
  -26.3017  -12.9324   20.3340 N   0  0  0  0  0  0
  -25.9319  -11.6486   20.5768 N   0  0  0  0  0  0
  -22.0483  -12.8231   22.0402 N   0  0  0  0  0  0
  -25.4190  -15.1834   20.3863 N   0  0  0  0  0  0
  -31.8072  -14.6910   20.0946 O   0  0  0  0  0  0
  -21.6633   -6.8871   21.4237 O   0  0  0  0  0  0
  -22.3541  -14.5530   20.6683 O   0  0  0  0  0  0
  -24.6163  -31.8669   23.2094 C   0  0  0  0  0  0
  -25.9053  -32.4815   23.8394 C   0  0  1  0  0  0
  -27.2367  -27.4213   20.0805 C   0  0  0  0  0  0
  -25.5900  -33.8616   24.2322 N   0  0  0  0  0  0
  -23.4047  -30.4916   21.5499 C   0  0  2  0  0  0
  -24.8493  -28.9537   20.1155 C   0  0  0  0  0  0
  -22.7415  -29.4658   22.4978 C   0  0  0  0  0  0
  -18.0273  -28.1378   22.8487 C   0  0  0  0  0  0
  -24.1486  -36.7315   23.2637 C   0  0  0  0  0  0
  -25.9360  -30.8250   21.3665 C   0  0  0  0  0  0
  -26.0106  -29.4581   20.7128 C   0  0  0  0  0  0
  -27.2030  -28.6956   20.6993 C   0  0  0  0  0  0
  -26.0453  -26.9233   19.5051 C   0  0  0  0  0  0
  -24.8606  -27.6835   19.5155 C   0  0  0  0  0  0
  -23.6145  -29.8258   20.1639 C   0  0  0  0  0  0
  -25.4104  -36.3109   24.0338 C   0  0  1  0  0  0
  -20.5863  -28.3669   23.1310 C   0  0  2  0  0  0
  -20.6760  -26.9403   22.5416 C   0  0  0  0  0  0
  -19.5740  -26.6386   21.5209 C   0  0  0  0  0  0
  -18.1918  -26.7924   22.1621 C   0  0  0  0  0  0
  -19.1522  -28.8838   23.2896 C   0  0  0  0  0  0
  -18.9451  -30.1443   23.8910 C   0  0  0  0  0  0
  -17.6456  -30.6585   24.0565 C   0  0  0  0  0  0
  -25.9034  -34.9473   23.5128 C   0  0  0  0  0  0
  -16.5346  -29.9089   23.6323 C   0  0  0  0  0  0
  -16.7263  -28.6507   23.0343 C   0  0  0  0  0  0
  -26.4474  -31.6599   25.0730 C   0  0  0  0  0  0
  -25.3740  -31.3718   26.1483 C   0  0  0  0  0  0
  -27.0300  -30.3034   24.6126 C   0  0  0  0  0  0
  -27.6050  -32.4320   25.7490 C   0  0  0  0  0  0
  -27.5581  -37.1810   24.8461 C   0  0  0  0  0  0
  -21.4140  -29.3039   22.3717 N   0  0  0  0  0  0
  -26.4290  -37.3794   23.9411 N   0  0  0  0  0  0
  -24.6707  -31.0759   22.1000 N   0  0  0  0  0  0
  -23.4181  -28.8193   23.3019 O   0  0  0  0  0  0
  -28.4137  -26.6914   20.0891 O   0  0  0  0  0  0
  -26.5599  -34.8926   22.4692 O   0  0  0  0  0  0
  -23.5352  -32.1429   23.7478 O   0  0  0  0  0  0
  -29.8599  -23.9035   20.3208 C   0  0  0  0  0  0
  -28.1530  -23.2899   18.7124 C   0  0  0  0  0  0
  -30.1789  -22.5347   20.5031 C   0  0  0  0  0  0
  -28.4709  -21.9243   18.8939 C   0  0  0  0  0  0
  -28.8667  -24.2994   19.3969 C   0  0  0  0  0  0
  -29.5169  -21.5248   19.7597 C   0  0  0  0  0  0
  -31.5045  -19.9271   19.6451 C   0  0  0  0  0  0
  -27.8761  -17.5008   21.5586 C   0  0  0  0  0  0
  -28.6793  -25.7754   19.0107 C   0  0  0  0  0  0
  -30.3442  -16.9009   21.2742 C   0  0  0  0  0  0
  -29.9750  -20.0473   19.7838 C   0  0  1  0  0  0
  -29.1803  -17.8368   20.8091 C   0  0  2  0  0  0
  -29.9980  -15.4654   21.1858 N   0  0  0  0  0  0
  -29.4636  -19.3004   20.9659 N   0  3  0  0  0  0
  -31.4717  -12.4270   19.1226 H   0  0  0  0  0  0
  -30.3382  -11.3060   19.8200 H   0  0  0  0  0  0
  -29.7416  -11.7865   17.4296 H   0  0  0  0  0  0
  -29.6631  -13.4972   17.7699 H   0  0  0  0  0  0
  -27.8335  -11.3103   18.8181 H   0  0  0  0  0  0
  -27.3681  -12.6367   17.7869 H   0  0  0  0  0  0
  -27.7067  -14.2545   19.5771 H   0  0  0  0  0  0
  -28.6813  -11.9506   21.3355 H   0  0  0  0  0  0
  -28.4566  -13.5826   21.8766 H   0  0  0  0  0  0
  -25.2754   -9.5679   22.4758 H   0  0  0  0  0  0
  -23.9999   -7.4623   22.7471 H   0  0  0  0  0  0
  -21.0836   -8.8767   19.8951 H   0  0  0  0  0  0
  -22.3692  -10.9665   19.6166 H   0  0  0  0  0  0
  -21.2007   -7.6147   23.9714 H   0  0  0  0  0  0
  -21.1480   -6.0518   25.9074 H   0  0  0  0  0  0
  -22.0602   -2.7608   23.2844 H   0  0  0  0  0  0
  -22.4091  -11.9899   22.4811 H   0  0  0  0  0  0
  -21.1101  -13.1270   22.2597 H   0  0  0  0  0  0
  -24.6366  -15.8246   20.4581 H   0  0  0  0  0  0
  -26.2426  -15.6066   19.9799 H   0  0  0  0  0  0
  -26.7124  -32.5513   23.1154 H   0  0  0  0  0  0
  -25.0058  -33.9779   25.0473 H   0  0  0  0  0  0
  -22.6944  -31.3092   21.4111 H   0  0  0  0  0  0
  -23.3743  -35.9652   23.3306 H   0  0  0  0  0  0
  -24.3583  -36.8924   22.2051 H   0  0  0  0  0  0
  -23.7243  -37.6524   23.6648 H   0  0  0  0  0  0
  -26.0548  -31.5912   20.5992 H   0  0  0  0  0  0
  -26.8215  -30.8750   21.9885 H   0  0  0  0  0  0
  -28.1010  -29.0847   21.1586 H   0  0  0  0  0  0
  -26.0076  -25.9378   19.0643 H   0  0  0  0  0  0
  -23.9618  -27.2807   19.0696 H   0  0  0  0  0  0
  -23.7309  -30.6031   19.4077 H   0  0  0  0  0  0
  -22.7362  -29.2527   19.8623 H   0  0  0  0  0  0
  -25.1280  -36.1974   25.0831 H   0  0  0  0  0  0
  -20.9958  -28.3239   24.1428 H   0  0  0  0  0  0
  -20.5660  -26.2278   23.3605 H   0  0  0  0  0  0
  -21.6632  -26.7441   22.1212 H   0  0  0  0  0  0
  -19.6900  -25.6299   21.1232 H   0  0  0  0  0  0
  -19.6679  -27.3204   20.6744 H   0  0  0  0  0  0
  -17.4188  -26.6673   21.4022 H   0  0  0  0  0  0
  -18.0319  -26.0066   22.9018 H   0  0  0  0  0  0
  -19.7929  -30.7250   24.2289 H   0  0  0  0  0  0
  -17.5015  -31.6267   24.5163 H   0  0  0  0  0  0
  -15.5348  -30.2998   23.7637 H   0  0  0  0  0  0
  -15.8663  -28.0835   22.7046 H   0  0  0  0  0  0
  -24.5910  -30.7062   25.7834 H   0  0  0  0  0  0
  -24.8934  -32.2878   26.4931 H   0  0  0  0  0  0
  -25.8097  -30.8897   27.0243 H   0  0  0  0  0  0
  -26.2850  -29.6803   24.1166 H   0  0  0  0  0  0
  -27.4039  -29.7269   25.4598 H   0  0  0  0  0  0
  -27.8701  -30.4340   23.9301 H   0  0  0  0  0  0
  -27.2668  -33.3610   26.2095 H   0  0  0  0  0  0
  -28.3843  -32.6897   25.0307 H   0  0  0  0  0  0
  -28.0736  -31.8430   26.5385 H   0  0  0  0  0  0
  -28.2598  -38.0108   24.7512 H   0  0  0  0  0  0
  -28.1077  -36.2641   24.6274 H   0  0  0  0  0  0
  -27.2306  -37.1449   25.8867 H   0  0  0  0  0  0
  -20.9296  -29.8782   21.6958 H   0  0  0  0  0  0
  -26.0179  -38.2873   24.1413 H   0  0  0  0  0  0
  -30.4248  -24.6591   20.8495 H   0  0  0  0  0  0
  -27.3920  -23.5623   17.9935 H   0  0  0  0  0  0
  -30.9830  -22.2771   21.1781 H   0  0  0  0  0  0
  -27.9401  -21.1855   18.3083 H   0  0  0  0  0  0
  -31.8549  -20.4914   18.7806 H   0  0  0  0  0  0
  -31.8168  -18.8959   19.4917 H   0  0  0  0  0  0
  -32.0299  -20.3062   20.5213 H   0  0  0  0  0  0
  -27.5952  -16.4568   21.4363 H   0  0  0  0  0  0
  -27.0389  -18.0924   21.1863 H   0  0  0  0  0  0
  -27.9682  -17.6865   22.6291 H   0  0  0  0  0  0
  -27.9807  -25.8658   18.1793 H   0  0  0  0  0  0
  -29.6286  -26.0952   18.5802 H   0  0  0  0  0  0
  -30.6024  -17.1159   22.3120 H   0  0  0  0  0  0
  -31.2430  -17.1042   20.6923 H   0  0  0  0  0  0
  -29.5408  -19.5935   18.8918 H   0  0  0  0  0  0
  -28.9908  -17.6318   19.7542 H   0  0  0  0  0  0
  -29.1066  -15.1913   21.5709 H   0  0  0  0  0  0
  -28.5738  -19.7285   21.1612 H   0  0  0  0  0  0
  -30.0441  -19.4742   21.7698 H   0  0  0  0  0  0
  1 25  1  0  0  0
  1 30  2  0  0  0
  1 83  1  0  0  0
  2  3  1  0  0  0
  2 25  1  0  0  0
  2 85  1  0  0  0
  2 86  1  0  0  0
  3  4  1  0  0  0
  3 87  1  0  0  0
  3 88  1  0  0  0
  4  5  1  0  0  0
  4 89  1  0  0  0
  4 90  1  0  0  0
  5  6  1  0  0  0
  5 26  1  0  0  0
  5 91  1  0  0  0
  6 25  1  0  0  0
  6 92  1  0  0  0
  6 93  1  0  0  0
  7  8  2  0  0  0
  7 26  1  0  0  0
  7 29  1  0  0  0
  8  9  1  0  0  0
  8 22  1  0  0  0
  9 10  1  0  0  0
  9 27  2  0  0  0
 10 11  2  0  0  0
 10 15  1  0  0  0
 11 12  1  0  0  0
 11 94  1  0  0  0
 12 13  2  0  0  0
 12 95  1  0  0  0
 13 14  1  0  0  0
 13 31  1  0  0  0
 14 15  2  0  0  0
 14 96  1  0  0  0
 15 97  1  0  0  0
 16 17  2  0  0  0
 16 21  1  0  0  0
 16 31  1  0  0  0
 17 18  1  0  0  0
 17 98  1  0  0  0
 18 19  2  0  0  0
 18 99  1  0  0  0
 19 20  1  0  0  0
 19 24  1  0  0  0
 20 21  2  0  0  0
 20100  1  0  0  0
 21 23  1  0  0  0
 22 28  1  0  0  0
 22 32  2  0  0  0
 26 27  1  0  0  0
 28101  1  0  0  0
 28102  1  0  0  0
 29103  1  0  0  0
 29104  1  0  0  0
 33 34  1  0  0  0
 33 66  1  0  0  0
 33 70  2  0  0  0
 34 36  1  0  0  0
 34 59  1  0  0  0
 34105  1  0  0  0
 35 44  2  0  0  0
 35 45  1  0  0  0
 35 68  1  0  0  0
 36 56  1  0  0  0
 36106  1  0  0  0
 37 39  1  0  0  0
 37 47  1  0  0  0
 37 66  1  0  0  0
 37107  1  0  0  0
 38 43  2  0  0  0
 38 46  1  0  0  0
 38 47  1  0  0  0
 39 64  1  0  0  0
 39 67  2  0  0  0
 40 52  1  0  0  0
 40 53  2  0  0  0
 40 58  1  0  0  0
 41108  1  0  0  0
 41109  1  0  0  0
 41110  1  0  0  0
 41 48  1  0  0  0
 42 43  1  0  0  0
 42 66  1  0  0  0
 42111  1  0  0  0
 42112  1  0  0  0
 43 44  1  0  0  0
 44113  1  0  0  0
 45 46  2  0  0  0
 45114  1  0  0  0
 46115  1  0  0  0
 47116  1  0  0  0
 47117  1  0  0  0
 48 56  1  0  0  0
 48 65  1  0  0  0
 48118  1  0  0  0
 49 50  1  0  0  0
 49 53  1  0  0  0
 49 64  1  0  0  0
 49119  1  0  0  0
 50 51  1  0  0  0
 50120  1  0  0  0
 50121  1  0  0  0
 51 52  1  0  0  0
 51122  1  0  0  0
 51123  1  0  0  0
 52124  1  0  0  0
 52125  1  0  0  0
 53 54  1  0  0  0
 54 55  2  0  0  0
 54126  1  0  0  0
 55 57  1  0  0  0
 55127  1  0  0  0
 56 69  2  0  0  0
 57 58  2  0  0  0
 57128  1  0  0  0
 58129  1  0  0  0
 59 60  1  0  0  0
 59 61  1  0  0  0
 59 62  1  0  0  0
 60130  1  0  0  0
 60131  1  0  0  0
 60132  1  0  0  0
 61133  1  0  0  0
 61134  1  0  0  0
 61135  1  0  0  0
 62136  1  0  0  0
 62137  1  0  0  0
 62138  1  0  0  0
 63 65  1  0  0  0
 63139  1  0  0  0
 63140  1  0  0  0
 63141  1  0  0  0
 64142  1  0  0  0
 65143  1  0  0  0
 68 79  1  0  0  0
 71 73  2  0  0  0
 71 75  1  0  0  0
 71144  1  0  0  0
 72 74  1  0  0  0
 72 75  2  0  0  0
 72145  1  0  0  0
 73 76  1  0  0  0
 73146  1  0  0  0
 74 76  2  0  0  0
 74147  1  0  0  0
 75 79  1  0  0  0
 76 81  1  0  0  0
 77148  1  0  0  0
 77149  1  0  0  0
 77150  1  0  0  0
 77 81  1  0  0  0
 78151  1  0  0  0
 78152  1  0  0  0
 78153  1  0  0  0
 78 82  1  0  0  0
 79154  1  0  0  0
 79155  1  0  0  0
 80 82  1  0  0  0
 80 83  1  0  0  0
 80156  1  0  0  0
 80157  1  0  0  0
 81 84  1  0  0  0
 81158  1  0  0  0
 82 84  1  0  0  0
 82159  1  0  0  0
 83160  1  0  0  0
 84161  1  0  0  0
 84162  1  0  0  0
M  CHG  1  84   1
M  ISO  4   1 100  68 101  79 101  83 100
M  END
> <chiral flag>
0

> <version>
0

> <s_m_source_file>
/data/baiqing/PycharmProjects/Reinvent-master-3.2/result/LINK_invent/BTK/process_docking_weight1_custom_sum_contain_oxygen_bond_distance_aromatic_linkinvent_7_9_3/rearranged_h_0110.sdf

> <i_m_source_file_index>
44

> <r_mmod_Potential_Energy-OPLS-2005>
-267.754089355469

> <r_mmod_Stretch_Energy-OPLS-2005>
42.4127998352051

> <r_mmod_Bend_Energy-OPLS-2005>
104.304298400879

> <r_mmod_Torsional_Energy-OPLS-2005>
223.216232299805

> <r_mmod_Improper_Torsional_Energy-OPLS-2005>
4.59258031845093

> <r_mmod_Van_der_Waal_Energy-OPLS-2005>
148.211196899414

> <r_mmod_Electrostatic_Energy-OPLS-2005>
-334.209777832031

> <r_mmod_Solvation_Energy-OPLS-2005>
-469.738342285156

> <b_mmod_Minimization_Converged-OPLS-2005>
0

> <r_mmod_RMS_Derivative-OPLS-2005>
0.778154134750366

$$$$
45
                    3D
 Structure written by MMmdl.
161169  0  0  1  0            999 V2000
  -30.4868  -15.0065   20.4035 C   0  0  0  0  0  0
  -30.4380  -12.6170   19.5197 C   0  0  0  0  0  0
  -29.5287  -12.5353   18.2678 C   0  0  0  0  0  0
  -28.0546  -12.3328   18.6703 C   0  0  0  0  0  0
  -27.6269  -13.2563   19.8405 C   0  0  2  0  0  0
  -28.6612  -13.2787   20.9823 C   0  0  0  0  0  0
  -25.2427  -13.8239   20.5708 C   0  0  0  0  0  0
  -24.1737  -13.0457   20.9217 C   0  0  0  0  0  0
  -24.6390  -11.6944   20.8763 C   0  0  0  0  0  0
  -23.9077  -10.4306   21.0424 C   0  0  0  0  0  0
  -24.3625   -9.4210   21.9191 C   0  0  0  0  0  0
  -23.6302   -8.2246   22.0757 C   0  0  0  0  0  0
  -22.4287   -8.0283   21.3537 C   0  0  0  0  0  0
  -21.9926   -9.0272   20.4652 C   0  0  0  0  0  0
  -22.7259  -10.2145   20.3070 C   0  0  0  0  0  0
  -21.6864   -6.0744   22.5288 C   0  0  0  0  0  0
  -21.4026   -6.5637   23.8222 C   0  0  0  0  0  0
  -21.3665   -5.6776   24.9175 C   0  0  0  0  0  0
  -21.6057   -4.3044   24.7215 C   0  0  0  0  0  0
  -21.8808   -3.8151   23.4326 C   0  0  0  0  0  0
  -21.9187   -4.6975   22.3395 C   0  0  0  0  0  0
  -22.7750  -13.5218   21.1843 C   0  0  0  0  0  0
  -22.1643   -4.2164   21.0972 F   0  0  0  0  0  0
  -21.5632   -3.4524   25.7722 F   0  0  0  0  0  0
  -29.9357  -13.7179   20.4001 N   0  0  0  0  0  0
  -26.2859  -12.9493   20.3237 N   0  0  0  0  0  0
  -25.9331  -11.6614   20.5744 N   0  0  0  0  0  0
  -22.0360  -12.8266   22.0414 N   0  0  0  0  0  0
  -25.4054  -15.1967   20.4142 N   0  0  0  0  0  0
  -31.6852  -15.0742   20.0916 O   0  0  0  0  0  0
  -21.6630   -6.8895   21.4251 O   0  0  0  0  0  0
  -22.3436  -14.5500   20.6628 O   0  0  0  0  0  0
  -24.6441  -31.8416   23.1845 C   0  0  0  0  0  0
  -25.9210  -32.4661   23.8249 C   0  0  1  0  0  0
  -27.2011  -27.0925   20.1904 C   0  0  0  0  0  0
  -25.5962  -33.8470   24.2158 N   0  0  0  0  0  0
  -23.4486  -30.4581   21.5297 C   0  0  2  0  0  0
  -24.8990  -28.8728   20.1139 C   0  0  0  0  0  0
  -22.7559  -29.4529   22.4846 C   0  0  0  0  0  0
  -18.0310  -28.1379   22.8465 C   0  0  0  0  0  0
  -24.1502  -36.7253   23.2641 C   0  0  0  0  0  0
  -26.0069  -30.7012   21.3915 C   0  0  0  0  0  0
  -26.0739  -29.3061   20.7417 C   0  0  0  0  0  0
  -27.2284  -28.4332   20.7591 C   0  0  0  0  0  0
  -26.0194  -26.7800   19.4935 C   0  0  0  0  0  0
  -24.8871  -27.6251   19.4690 C   0  0  0  0  0  0
  -23.6764  -29.7788   20.1520 C   0  0  0  0  0  0
  -25.4134  -36.3012   24.0301 C   0  0  1  0  0  0
  -20.5923  -28.3720   23.1219 C   0  0  2  0  0  0
  -20.6789  -26.9418   22.5397 C   0  0  0  0  0  0
  -19.5769  -26.6369   21.5201 C   0  0  0  0  0  0
  -18.1949  -26.7917   22.1609 C   0  0  0  0  0  0
  -19.1563  -28.8871   23.2830 C   0  0  0  0  0  0
  -18.9480  -30.1472   23.8847 C   0  0  0  0  0  0
  -17.6473  -30.6579   24.0558 C   0  0  0  0  0  0
  -25.9082  -34.9389   23.5038 C   0  0  0  0  0  0
  -16.5367  -29.9068   23.6336 C   0  0  0  0  0  0
  -16.7288  -28.6487   23.0352 C   0  0  0  0  0  0
  -26.4520  -31.6542   25.0711 C   0  0  0  0  0  0
  -25.3673  -31.3772   26.1391 C   0  0  0  0  0  0
  -27.0378  -30.2909   24.6352 C   0  0  0  0  0  0
  -27.6030  -32.4325   25.7507 C   0  0  0  0  0  0
  -27.5580  -37.1785   24.8457 C   0  0  0  0  0  0
  -21.4260  -29.3040   22.3580 N   0  0  0  0  0  0
  -26.4294  -37.3728   23.9393 N   0  0  0  0  0  0
  -24.7193  -31.0256   22.0881 N   0  0  0  0  0  0
  -23.4195  -28.8112   23.3026 O   0  0  0  0  0  0
  -28.2465  -26.0925   20.2164 O   0  0  0  0  0  0
  -26.5681  -34.8887   22.4623 O   0  0  0  0  0  0
  -23.5558  -32.1334   23.7042 O   0  0  0  0  0  0
  -29.1882  -20.1725   18.7259 C   0  0  0  0  0  0
  -29.4548  -19.0076   17.9852 C   0  0  0  0  0  0
  -29.6059  -17.7401   18.6218 C   0  0  0  0  0  0
  -29.0650  -20.1376   20.1128 C   0  0  0  0  0  0
  -29.5751  -17.6192   20.0483 C   0  0  0  0  0  0
  -29.5491  -19.1705   16.4742 C   0  0  0  0  0  0
  -29.7363  -16.5007   17.7343 C   0  0  0  0  0  0
  -25.6649  -23.9565   21.3118 C   0  0  0  0  0  0
  -28.6788  -21.5854   20.8407 C   0  0  0  0  0  0
  -27.0074  -24.4947   21.8314 C   0  0  0  0  0  0
  -28.4879  -23.1086   20.0694 C   0  0  0  0  0  0
  -28.1509  -24.6219   20.7940 C   0  0  1  0  0  0
  -29.2675  -18.8522   20.7314 N   0  0  0  0  0  0
  -29.6845  -16.1797   20.6347 N   0  0  0  0  0  0
  -31.4742  -12.7711   19.2159 H   0  0  0  0  0  0
  -30.4321  -11.6668   20.0566 H   0  0  0  0  0  0
  -29.8530  -11.7211   17.6191 H   0  0  0  0  0  0
  -29.6229  -13.4468   17.6771 H   0  0  0  0  0  0
  -27.9333  -11.2896   18.9635 H   0  0  0  0  0  0
  -27.4013  -12.4817   17.8098 H   0  0  0  0  0  0
  -27.5881  -14.2623   19.4217 H   0  0  0  0  0  0
  -28.7539  -12.2928   21.4419 H   0  0  0  0  0  0
  -28.3461  -13.9573   21.7738 H   0  0  0  0  0  0
  -25.2774   -9.5682   22.4750 H   0  0  0  0  0  0
  -24.0025   -7.4638   22.7478 H   0  0  0  0  0  0
  -21.0853   -8.8798   19.8960 H   0  0  0  0  0  0
  -22.3735  -10.9676   19.6168 H   0  0  0  0  0  0
  -21.2019   -7.6143   23.9736 H   0  0  0  0  0  0
  -21.1502   -6.0494   25.9073 H   0  0  0  0  0  0
  -22.0584   -2.7616   23.2802 H   0  0  0  0  0  0
  -22.3977  -12.0016   22.4950 H   0  0  0  0  0  0
  -21.0957  -13.1319   22.2513 H   0  0  0  0  0  0
  -24.6283  -15.8417   20.5110 H   0  0  0  0  0  0
  -26.2506  -15.6414   20.0820 H   0  0  0  0  0  0
  -26.7274  -32.5251   23.0971 H   0  0  0  0  0  0
  -25.0051  -33.9571   25.0268 H   0  0  0  0  0  0
  -22.7514  -31.2843   21.3695 H   0  0  0  0  0  0
  -23.3746  -35.9602   23.3290 H   0  0  0  0  0  0
  -24.3597  -36.8908   22.2061 H   0  0  0  0  0  0
  -23.7269  -37.6446   23.6697 H   0  0  0  0  0  0
  -26.1740  -31.4513   20.6184 H   0  0  0  0  0  0
  -26.8723  -30.7503   22.0395 H   0  0  0  0  0  0
  -28.1263  -28.7630   21.2636 H   0  0  0  0  0  0
  -25.9616  -25.8274   18.9881 H   0  0  0  0  0  0
  -23.9974  -27.2918   18.9535 H   0  0  0  0  0  0
  -23.8125  -30.5494   19.3919 H   0  0  0  0  0  0
  -22.7906  -29.2208   19.8428 H   0  0  0  0  0  0
  -25.1328  -36.1828   25.0793 H   0  0  0  0  0  0
  -21.0017  -28.3320   24.1342 H   0  0  0  0  0  0
  -20.5675  -26.2343   23.3625 H   0  0  0  0  0  0
  -21.6655  -26.7415   22.1206 H   0  0  0  0  0  0
  -19.6938  -25.6276   21.1250 H   0  0  0  0  0  0
  -19.6694  -27.3157   20.6711 H   0  0  0  0  0  0
  -17.4220  -26.6659   21.4008 H   0  0  0  0  0  0
  -18.0348  -26.0059   22.9006 H   0  0  0  0  0  0
  -19.7962  -30.7305   24.2164 H   0  0  0  0  0  0
  -17.5031  -31.6246   24.5182 H   0  0  0  0  0  0
  -15.5363  -30.2956   23.7685 H   0  0  0  0  0  0
  -15.8695  -28.0799   22.7079 H   0  0  0  0  0  0
  -24.5840  -30.7141   25.7713 H   0  0  0  0  0  0
  -24.8876  -32.2969   26.4748 H   0  0  0  0  0  0
  -25.7931  -30.8982   27.0213 H   0  0  0  0  0  0
  -26.3010  -29.6620   24.1343 H   0  0  0  0  0  0
  -27.3917  -29.7241   25.4973 H   0  0  0  0  0  0
  -27.8962  -30.4097   23.9732 H   0  0  0  0  0  0
  -27.2592  -33.3631   26.2038 H   0  0  0  0  0  0
  -28.3870  -32.6878   25.0364 H   0  0  0  0  0  0
  -28.0665  -31.8482   26.5467 H   0  0  0  0  0  0
  -28.2579  -38.0101   24.7500 H   0  0  0  0  0  0
  -28.1094  -36.2619   24.6284 H   0  0  0  0  0  0
  -27.2303  -37.1439   25.8865 H   0  0  0  0  0  0
  -20.9480  -29.8717   21.6729 H   0  0  0  0  0  0
  -26.0150  -38.2798   24.1366 H   0  0  0  0  0  0
  -29.0524  -21.1166   18.2170 H   0  0  0  0  0  0
  -29.5877  -20.2224   16.1873 H   0  0  0  0  0  0
  -28.6879  -18.7235   15.9758 H   0  0  0  0  0  0
  -30.4578  -18.7013   16.0953 H   0  0  0  0  0  0
  -29.4138  -16.6657   16.7080 H   0  0  0  0  0  0
  -29.0998  -15.6950   18.0941 H   0  0  0  0  0  0
  -30.7684  -16.1546   17.7073 H   0  0  0  0  0  0
  -25.0339  -23.6554   22.1486 H   0  0  0  0  0  0
  -25.7927  -23.0838   20.6721 H   0  0  0  0  0  0
  -25.0998  -24.7011   20.7556 H   0  0  0  0  0  0
  -29.4041  -21.7208   21.6435 H   0  0  0  0  0  0
  -27.7389  -21.3897   21.3584 H   0  0  0  0  0  0
  -27.3455  -23.8111   22.6122 H   0  0  0  0  0  0
  -26.8476  -25.4424   22.3465 H   0  0  0  0  0  0
  -27.7204  -22.9621   19.3091 H   0  0  0  0  0  0
  -29.4036  -23.2624   19.5003 H   0  0  0  0  0  0
  -29.0223  -24.6922   21.4469 H   0  0  0  0  0  0
  -28.8799  -15.9510   21.1956 H   0  0  0  0  0  0
  1 25  1  0  0  0
  1 30  2  0  0  0
  1 84  1  0  0  0
  2  3  1  0  0  0
  2 25  1  0  0  0
  2 85  1  0  0  0
  2 86  1  0  0  0
  3  4  1  0  0  0
  3 87  1  0  0  0
  3 88  1  0  0  0
  4  5  1  0  0  0
  4 89  1  0  0  0
  4 90  1  0  0  0
  5  6  1  0  0  0
  5 26  1  0  0  0
  5 91  1  0  0  0
  6 25  1  0  0  0
  6 92  1  0  0  0
  6 93  1  0  0  0
  7  8  2  0  0  0
  7 26  1  0  0  0
  7 29  1  0  0  0
  8  9  1  0  0  0
  8 22  1  0  0  0
  9 10  1  0  0  0
  9 27  2  0  0  0
 10 11  2  0  0  0
 10 15  1  0  0  0
 11 12  1  0  0  0
 11 94  1  0  0  0
 12 13  2  0  0  0
 12 95  1  0  0  0
 13 14  1  0  0  0
 13 31  1  0  0  0
 14 15  2  0  0  0
 14 96  1  0  0  0
 15 97  1  0  0  0
 16 17  2  0  0  0
 16 21  1  0  0  0
 16 31  1  0  0  0
 17 18  1  0  0  0
 17 98  1  0  0  0
 18 19  2  0  0  0
 18 99  1  0  0  0
 19 20  1  0  0  0
 19 24  1  0  0  0
 20 21  2  0  0  0
 20100  1  0  0  0
 21 23  1  0  0  0
 22 28  1  0  0  0
 22 32  2  0  0  0
 26 27  1  0  0  0
 28101  1  0  0  0
 28102  1  0  0  0
 29103  1  0  0  0
 29104  1  0  0  0
 33 34  1  0  0  0
 33 66  1  0  0  0
 33 70  2  0  0  0
 34 36  1  0  0  0
 34 59  1  0  0  0
 34105  1  0  0  0
 35 44  2  0  0  0
 35 45  1  0  0  0
 35 68  1  0  0  0
 36 56  1  0  0  0
 36106  1  0  0  0
 37 39  1  0  0  0
 37 47  1  0  0  0
 37 66  1  0  0  0
 37107  1  0  0  0
 38 43  2  0  0  0
 38 46  1  0  0  0
 38 47  1  0  0  0
 39 64  1  0  0  0
 39 67  2  0  0  0
 40 52  1  0  0  0
 40 53  2  0  0  0
 40 58  1  0  0  0
 41108  1  0  0  0
 41109  1  0  0  0
 41110  1  0  0  0
 41 48  1  0  0  0
 42 43  1  0  0  0
 42 66  1  0  0  0
 42111  1  0  0  0
 42112  1  0  0  0
 43 44  1  0  0  0
 44113  1  0  0  0
 45 46  2  0  0  0
 45114  1  0  0  0
 46115  1  0  0  0
 47116  1  0  0  0
 47117  1  0  0  0
 48 56  1  0  0  0
 48 65  1  0  0  0
 48118  1  0  0  0
 49 50  1  0  0  0
 49 53  1  0  0  0
 49 64  1  0  0  0
 49119  1  0  0  0
 50 51  1  0  0  0
 50120  1  0  0  0
 50121  1  0  0  0
 51 52  1  0  0  0
 51122  1  0  0  0
 51123  1  0  0  0
 52124  1  0  0  0
 52125  1  0  0  0
 53 54  1  0  0  0
 54 55  2  0  0  0
 54126  1  0  0  0
 55 57  1  0  0  0
 55127  1  0  0  0
 56 69  2  0  0  0
 57 58  2  0  0  0
 57128  1  0  0  0
 58129  1  0  0  0
 59 60  1  0  0  0
 59 61  1  0  0  0
 59 62  1  0  0  0
 60130  1  0  0  0
 60131  1  0  0  0
 60132  1  0  0  0
 61133  1  0  0  0
 61134  1  0  0  0
 61135  1  0  0  0
 62136  1  0  0  0
 62137  1  0  0  0
 62138  1  0  0  0
 63 65  1  0  0  0
 63139  1  0  0  0
 63140  1  0  0  0
 63141  1  0  0  0
 64142  1  0  0  0
 65143  1  0  0  0
 68 82  1  0  0  0
 71 72  2  0  0  0
 71 74  1  0  0  0
 71144  1  0  0  0
 72 73  1  0  0  0
 72 76  1  0  0  0
 73 75  2  0  0  0
 73 77  1  0  0  0
 74 79  1  0  0  0
 74 83  2  0  0  0
 75 83  1  0  0  0
 75 84  1  0  0  0
 76145  1  0  0  0
 76146  1  0  0  0
 76147  1  0  0  0
 77148  1  0  0  0
 77149  1  0  0  0
 77150  1  0  0  0
 78 80  1  0  0  0
 78151  1  0  0  0
 78152  1  0  0  0
 78153  1  0  0  0
 79 81  1  0  0  0
 79154  1  0  0  0
 79155  1  0  0  0
 80156  1  0  0  0
 80157  1  0  0  0
 80 82  1  0  0  0
 81 82  1  0  0  0
 81158  1  0  0  0
 81159  1  0  0  0
 82160  1  0  0  0
 84161  1  0  0  0
M  ISO  4   1 100  68 101  82 101  84 100
M  END
> <chiral flag>
0

> <version>
0

> <s_m_source_file>
/data/baiqing/PycharmProjects/Reinvent-master-3.2/result/LINK_invent/BTK/process_docking_weight1_custom_sum_contain_oxygen_bond_distance_aromatic_linkinvent_7_9_3/rearranged_h_0110.sdf

> <i_m_source_file_index>
45

> <r_mmod_Potential_Energy-OPLS-2005>
490.482055664062

> <r_mmod_Stretch_Energy-OPLS-2005>
322.723999023438

> <r_mmod_Bend_Energy-OPLS-2005>
305.474731445312

> <r_mmod_Torsional_Energy-OPLS-2005>
271.97802734375

> <r_mmod_Improper_Torsional_Energy-OPLS-2005>
4.26430940628052

> <r_mmod_Van_der_Waal_Energy-OPLS-2005>
131.50520324707

> <r_mmod_Electrostatic_Energy-OPLS-2005>
-554.786926269531

> <r_mmod_Solvation_Energy-OPLS-2005>
-221.619674682617

> <b_mmod_Minimization_Converged-OPLS-2005>
0

> <r_mmod_RMS_Derivative-OPLS-2005>
3.48285293579102

$$$$
46
                    3D
 Structure written by MMmdl.
156164  0  0  1  0            999 V2000
  -30.7341  -14.4916   20.4985 C   0  0  0  0  0  0
  -30.4004  -12.3048   19.4412 C   0  0  0  0  0  0
  -29.4887  -12.4727   18.2114 C   0  0  0  0  0  0
  -28.0064  -12.3565   18.6187 C   0  0  0  0  0  0
  -27.6465  -13.2216   19.8583 C   0  0  2  0  0  0
  -28.6902  -13.0753   20.9878 C   0  0  0  0  0  0
  -25.2499  -13.8200   20.5648 C   0  0  0  0  0  0
  -24.1791  -13.0459   20.9214 C   0  0  0  0  0  0
  -24.6358  -11.6939   20.8757 C   0  0  0  0  0  0
  -23.9035  -10.4307   21.0410 C   0  0  0  0  0  0
  -24.3599   -9.4211   21.9174 C   0  0  0  0  0  0
  -23.6293   -8.2222   22.0729 C   0  0  0  0  0  0
  -22.4270   -8.0256   21.3538 C   0  0  0  0  0  0
  -21.9906   -9.0223   20.4636 C   0  0  0  0  0  0
  -22.7216  -10.2113   20.3052 C   0  0  0  0  0  0
  -21.6831   -6.0731   22.5300 C   0  0  0  0  0  0
  -21.3997   -6.5642   23.8235 C   0  0  0  0  0  0
  -21.3669   -5.6790   24.9194 C   0  0  0  0  0  0
  -21.6043   -4.3047   24.7239 C   0  0  0  0  0  0
  -21.8817   -3.8147   23.4352 C   0  0  0  0  0  0
  -21.9189   -4.6965   22.3416 C   0  0  0  0  0  0
  -22.7810  -13.5222   21.1886 C   0  0  0  0  0  0
  -22.1651   -4.2164   21.0986 F   0  0  0  0  0  0
  -21.5646   -3.4535   25.7745 F   0  0  0  0  0  0
  -30.0154  -13.3400   20.4131 N   0  0  0  0  0  0
  -26.2940  -12.9389   20.3302 N   0  0  0  0  0  0
  -25.9286  -11.6540   20.5763 N   0  0  0  0  0  0
  -22.0455  -12.8228   22.0448 N   0  0  0  0  0  0
  -25.4211  -15.1905   20.3979 N   0  0  0  0  0  0
  -31.9167  -14.5441   20.1538 O   0  0  0  0  0  0
  -21.6620   -6.8866   21.4249 O   0  0  0  0  0  0
  -22.3498  -14.5525   20.6704 O   0  0  0  0  0  0
  -24.6120  -31.8690   23.2092 C   0  0  0  0  0  0
  -25.9006  -32.4824   23.8416 C   0  0  1  0  0  0
  -27.2300  -27.4356   20.1143 C   0  0  0  0  0  0
  -25.5857  -33.8619   24.2333 N   0  0  0  0  0  0
  -23.4029  -30.4913   21.5471 C   0  0  2  0  0  0
  -24.8489  -28.9535   20.1182 C   0  0  0  0  0  0
  -22.7411  -29.4660   22.4960 C   0  0  0  0  0  0
  -18.0279  -28.1419   22.8465 C   0  0  0  0  0  0
  -24.1491  -36.7308   23.2650 C   0  0  0  0  0  0
  -25.9316  -30.8332   21.3640 C   0  0  0  0  0  0
  -26.0083  -29.4676   20.7147 C   0  0  0  0  0  0
  -27.2050  -28.7186   20.7032 C   0  0  0  0  0  0
  -26.0576  -26.9316   19.5143 C   0  0  0  0  0  0
  -24.8678  -27.6832   19.5152 C   0  0  0  0  0  0
  -23.6126  -29.8219   20.1628 C   0  0  0  0  0  0
  -25.4106  -36.3102   24.0353 C   0  0  1  0  0  0
  -20.5865  -28.3697   23.1292 C   0  0  2  0  0  0
  -20.6767  -26.9428   22.5398 C   0  0  0  0  0  0
  -19.5754  -26.6397   21.5194 C   0  0  0  0  0  0
  -18.1934  -26.7960   22.1607 C   0  0  0  0  0  0
  -19.1527  -28.8873   23.2888 C   0  0  0  0  0  0
  -18.9458  -30.1473   23.8916 C   0  0  0  0  0  0
  -17.6460  -30.6614   24.0567 C   0  0  0  0  0  0
  -25.9024  -34.9468   23.5142 C   0  0  0  0  0  0
  -16.5349  -29.9122   23.6323 C   0  0  0  0  0  0
  -16.7268  -28.6545   23.0326 C   0  0  0  0  0  0
  -26.4415  -31.6624   25.0758 C   0  0  0  0  0  0
  -25.3669  -31.3763   26.1509 C   0  0  0  0  0  0
  -27.0269  -30.3081   24.6137 C   0  0  0  0  0  0
  -27.6000  -32.4366   25.7497 C   0  0  0  0  0  0
  -27.5589  -37.1808   24.8459 C   0  0  0  0  0  0
  -21.4143  -29.3056   22.3701 N   0  0  0  0  0  0
  -26.4294  -37.3781   23.9414 N   0  0  0  0  0  0
  -24.6669  -31.0799   22.0984 N   0  0  0  0  0  0
  -23.4181  -28.8201   23.3002 O   0  0  0  0  0  0
  -28.3941  -26.7043   20.0985 O   0  0  0  0  0  0
  -26.5593  -34.8913   22.4708 O   0  0  0  0  0  0
  -23.5308  -32.1441   23.7474 O   0  0  0  0  0  0
  -30.2118  -20.4880   21.6201 C   0  0  0  0  0  0
  -30.6635  -19.1587   21.5849 C   0  0  0  0  0  0
  -29.1606  -20.8862   20.7639 C   0  0  0  0  0  0
  -30.0540  -18.2416   20.7139 C   0  0  0  0  0  0
  -28.5404  -19.8674   19.9940 C   0  0  0  0  0  0
  -30.7549  -16.9172   20.4231 C   0  0  0  0  0  0
  -29.4530  -24.5260   20.1454 C   0  0  0  0  0  0
  -28.3251  -25.4060   20.7089 C   0  0  0  0  0  0
  -29.7238  -23.2218   20.9223 C   0  0  0  0  0  0
  -27.3658  -20.2067   19.0810 C   0  0  0  0  0  0
  -28.9824  -18.5774   19.9600 N   0  0  0  0  0  0
  -30.0710  -15.6454   20.7213 N   0  0  0  0  0  0
  -28.7549  -22.2049   20.6317 O   0  0  0  0  0  0
  -26.3829  -19.3104   19.1903 F   0  0  0  0  0  0
  -27.7563  -20.2712   17.8062 F   0  0  0  0  0  0
  -31.4460  -12.3781   19.1367 H   0  0  0  0  0  0
  -30.2868  -11.3114   19.8798 H   0  0  0  0  0  0
  -29.7272  -11.7208   17.4600 H   0  0  0  0  0  0
  -29.6724  -13.4395   17.7405 H   0  0  0  0  0  0
  -27.8008  -11.3057   18.8238 H   0  0  0  0  0  0
  -27.3647  -12.6253   17.7792 H   0  0  0  0  0  0
  -27.6685  -14.2589   19.5242 H   0  0  0  0  0  0
  -28.6645  -12.0700   21.4099 H   0  0  0  0  0  0
  -28.4681  -13.7569   21.8104 H   0  0  0  0  0  0
  -25.2729   -9.5688   22.4764 H   0  0  0  0  0  0
  -24.0030   -7.4592   22.7410 H   0  0  0  0  0  0
  -21.0854   -8.8699   19.8929 H   0  0  0  0  0  0
  -22.3648  -10.9635   19.6161 H   0  0  0  0  0  0
  -21.1967   -7.6151   23.9752 H   0  0  0  0  0  0
  -21.1501   -6.0512   25.9105 H   0  0  0  0  0  0
  -22.0593   -2.7614   23.2841 H   0  0  0  0  0  0
  -22.4048  -11.9923   22.4920 H   0  0  0  0  0  0
  -21.1049  -13.1211   22.2585 H   0  0  0  0  0  0
  -24.6495  -15.8431   20.4872 H   0  0  0  0  0  0
  -26.2643  -15.6251   20.0452 H   0  0  0  0  0  0
  -26.7079  -32.5522   23.1194 H   0  0  0  0  0  0
  -25.0015  -33.9771   25.0479 H   0  0  0  0  0  0
  -22.6928  -31.3083   21.4061 H   0  0  0  0  0  0
  -23.3743  -35.9648   23.3301 H   0  0  0  0  0  0
  -24.3609  -36.8921   22.2068 H   0  0  0  0  0  0
  -23.7234  -37.6514   23.6660 H   0  0  0  0  0  0
  -26.0487  -31.5968   20.5932 H   0  0  0  0  0  0
  -26.8176  -30.8849   21.9865 H   0  0  0  0  0  0
  -28.1019  -29.1123   21.1605 H   0  0  0  0  0  0
  -26.0598  -25.9580   19.0440 H   0  0  0  0  0  0
  -23.9784  -27.2780   19.0526 H   0  0  0  0  0  0
  -23.7268  -30.5960   19.4034 H   0  0  0  0  0  0
  -22.7367  -29.2432   19.8646 H   0  0  0  0  0  0
  -25.1276  -36.1986   25.0846 H   0  0  0  0  0  0
  -20.9967  -28.3274   24.1409 H   0  0  0  0  0  0
  -20.5656  -26.2317   23.3593 H   0  0  0  0  0  0
  -21.6641  -26.7462   22.1200 H   0  0  0  0  0  0
  -19.6906  -25.6298   21.1255 H   0  0  0  0  0  0
  -19.6710  -27.3177   20.6703 H   0  0  0  0  0  0
  -17.4189  -26.6681   21.4025 H   0  0  0  0  0  0
  -18.0361  -26.0131   22.9039 H   0  0  0  0  0  0
  -19.7935  -30.7277   24.2302 H   0  0  0  0  0  0
  -17.5021  -31.6290   24.5181 H   0  0  0  0  0  0
  -15.5356  -30.3033   23.7646 H   0  0  0  0  0  0
  -15.8667  -28.0878   22.7020 H   0  0  0  0  0  0
  -24.5778  -30.7180   25.7853 H   0  0  0  0  0  0
  -24.8909  -32.2937   26.4994 H   0  0  0  0  0  0
  -25.7975  -30.8893   27.0264 H   0  0  0  0  0  0
  -26.2858  -29.6871   24.1095 H   0  0  0  0  0  0
  -27.3971  -29.7289   25.4603 H   0  0  0  0  0  0
  -27.8699  -30.4451   23.9365 H   0  0  0  0  0  0
  -27.2610  -33.3655   26.2107 H   0  0  0  0  0  0
  -28.3754  -32.6964   25.0275 H   0  0  0  0  0  0
  -28.0726  -31.8486   26.5375 H   0  0  0  0  0  0
  -28.2577  -38.0137   24.7521 H   0  0  0  0  0  0
  -28.1117  -36.2659   24.6253 H   0  0  0  0  0  0
  -27.2324  -37.1417   25.8870 H   0  0  0  0  0  0
  -20.9328  -29.8802   21.6926 H   0  0  0  0  0  0
  -26.0183  -38.2863   24.1417 H   0  0  0  0  0  0
  -30.7167  -21.1916   22.2639 H   0  0  0  0  0  0
  -31.5276  -18.8775   22.1680 H   0  0  0  0  0  0
  -31.7115  -16.9314   20.9495 H   0  0  0  0  0  0
  -31.0152  -16.9293   19.3619 H   0  0  0  0  0  0
  -30.3679  -25.1176   20.1667 H   0  0  0  0  0  0
  -29.2690  -24.2991   19.0959 H   0  0  0  0  0  0
  -28.4549  -25.5342   21.7837 H   0  0  0  0  0  0
  -27.3661  -24.9039   20.5737 H   0  0  0  0  0  0
  -29.7718  -23.4179   21.9946 H   0  0  0  0  0  0
  -30.7154  -22.8845   20.6152 H   0  0  0  0  0  0
  -26.9341  -21.1745   19.3411 H   0  0  0  0  0  0
  -29.0794  -15.6616   20.9027 H   0  0  0  0  0  0
  1 25  1  0  0  0
  1 30  2  0  0  0
  1 82  1  0  0  0
  2  3  1  0  0  0
  2 25  1  0  0  0
  2 86  1  0  0  0
  2 87  1  0  0  0
  3  4  1  0  0  0
  3 88  1  0  0  0
  3 89  1  0  0  0
  4  5  1  0  0  0
  4 90  1  0  0  0
  4 91  1  0  0  0
  5  6  1  0  0  0
  5 26  1  0  0  0
  5 92  1  0  0  0
  6 25  1  0  0  0
  6 93  1  0  0  0
  6 94  1  0  0  0
  7  8  2  0  0  0
  7 26  1  0  0  0
  7 29  1  0  0  0
  8  9  1  0  0  0
  8 22  1  0  0  0
  9 10  1  0  0  0
  9 27  2  0  0  0
 10 11  2  0  0  0
 10 15  1  0  0  0
 11 12  1  0  0  0
 11 95  1  0  0  0
 12 13  2  0  0  0
 12 96  1  0  0  0
 13 14  1  0  0  0
 13 31  1  0  0  0
 14 15  2  0  0  0
 14 97  1  0  0  0
 15 98  1  0  0  0
 16 17  2  0  0  0
 16 21  1  0  0  0
 16 31  1  0  0  0
 17 18  1  0  0  0
 17 99  1  0  0  0
 18 19  2  0  0  0
 18100  1  0  0  0
 19 20  1  0  0  0
 19 24  1  0  0  0
 20 21  2  0  0  0
 20101  1  0  0  0
 21 23  1  0  0  0
 22 28  1  0  0  0
 22 32  2  0  0  0
 26 27  1  0  0  0
 28102  1  0  0  0
 28103  1  0  0  0
 29104  1  0  0  0
 29105  1  0  0  0
 33 34  1  0  0  0
 33 66  1  0  0  0
 33 70  2  0  0  0
 34 36  1  0  0  0
 34 59  1  0  0  0
 34106  1  0  0  0
 35 44  2  0  0  0
 35 45  1  0  0  0
 35 68  1  0  0  0
 36 56  1  0  0  0
 36107  1  0  0  0
 37 39  1  0  0  0
 37 47  1  0  0  0
 37 66  1  0  0  0
 37108  1  0  0  0
 38 43  2  0  0  0
 38 46  1  0  0  0
 38 47  1  0  0  0
 39 64  1  0  0  0
 39 67  2  0  0  0
 40 52  1  0  0  0
 40 53  2  0  0  0
 40 58  1  0  0  0
 41109  1  0  0  0
 41110  1  0  0  0
 41111  1  0  0  0
 41 48  1  0  0  0
 42 43  1  0  0  0
 42 66  1  0  0  0
 42112  1  0  0  0
 42113  1  0  0  0
 43 44  1  0  0  0
 44114  1  0  0  0
 45 46  2  0  0  0
 45115  1  0  0  0
 46116  1  0  0  0
 47117  1  0  0  0
 47118  1  0  0  0
 48 56  1  0  0  0
 48 65  1  0  0  0
 48119  1  0  0  0
 49 50  1  0  0  0
 49 53  1  0  0  0
 49 64  1  0  0  0
 49120  1  0  0  0
 50 51  1  0  0  0
 50121  1  0  0  0
 50122  1  0  0  0
 51 52  1  0  0  0
 51123  1  0  0  0
 51124  1  0  0  0
 52125  1  0  0  0
 52126  1  0  0  0
 53 54  1  0  0  0
 54 55  2  0  0  0
 54127  1  0  0  0
 55 57  1  0  0  0
 55128  1  0  0  0
 56 69  2  0  0  0
 57 58  2  0  0  0
 57129  1  0  0  0
 58130  1  0  0  0
 59 60  1  0  0  0
 59 61  1  0  0  0
 59 62  1  0  0  0
 60131  1  0  0  0
 60132  1  0  0  0
 60133  1  0  0  0
 61134  1  0  0  0
 61135  1  0  0  0
 61136  1  0  0  0
 62137  1  0  0  0
 62138  1  0  0  0
 62139  1  0  0  0
 63 65  1  0  0  0
 63140  1  0  0  0
 63141  1  0  0  0
 63142  1  0  0  0
 64143  1  0  0  0
 65144  1  0  0  0
 68 78  1  0  0  0
 71 72  2  0  0  0
 71 73  1  0  0  0
 71145  1  0  0  0
 72 74  1  0  0  0
 72146  1  0  0  0
 73 75  2  0  0  0
 73 83  1  0  0  0
 74 76  1  0  0  0
 74 81  2  0  0  0
 75 80  1  0  0  0
 75 81  1  0  0  0
 76 82  1  0  0  0
 76147  1  0  0  0
 76148  1  0  0  0
 77 78  1  0  0  0
 77 79  1  0  0  0
 77149  1  0  0  0
 77150  1  0  0  0
 78151  1  0  0  0
 78152  1  0  0  0
 79 83  1  0  0  0
 79153  1  0  0  0
 79154  1  0  0  0
 80 84  1  0  0  0
 80 85  1  0  0  0
 80155  1  0  0  0
 82156  1  0  0  0
M  ISO  4   1 100  68 101  78 101  82 100
M  END
> <chiral flag>
0

> <version>
0

> <s_m_source_file>
/data/baiqing/PycharmProjects/Reinvent-master-3.2/result/LINK_invent/BTK/process_docking_weight1_custom_sum_contain_oxygen_bond_distance_aromatic_linkinvent_7_9_3/rearranged_h_0110.sdf

> <i_m_source_file_index>
46

> <r_mmod_Potential_Energy-OPLS-2005>
-230.186706542969

> <r_mmod_Stretch_Energy-OPLS-2005>
36.4606628417969

> <r_mmod_Bend_Energy-OPLS-2005>
103.56664276123

> <r_mmod_Torsional_Energy-OPLS-2005>
238.644668579102

> <r_mmod_Improper_Torsional_Energy-OPLS-2005>
7.72637224197388

> <r_mmod_Van_der_Waal_Energy-OPLS-2005>
162.373199462891

> <r_mmod_Electrostatic_Energy-OPLS-2005>
-590.767333984375

> <r_mmod_Solvation_Energy-OPLS-2005>
-209.980514526367

> <b_mmod_Minimization_Converged-OPLS-2005>
0

> <r_mmod_RMS_Derivative-OPLS-2005>
3.35588669776917

$$$$
47
                    3D
 Structure written by MMmdl.
171179  0  0  1  0            999 V2000
  -30.7198  -14.4147   20.6064 C   0  0  0  0  0  0
  -30.4254  -12.2835   19.3992 C   0  0  0  0  0  0
  -29.4914  -12.5107   18.1934 C   0  0  0  0  0  0
  -28.0127  -12.3785   18.6100 C   0  0  0  0  0  0
  -27.6710  -13.1997   19.8819 C   0  0  2  0  0  0
  -28.7135  -12.9364   20.9918 C   0  0  0  0  0  0
  -25.2644  -13.8144   20.5677 C   0  0  0  0  0  0
  -24.1879  -13.0436   20.9167 C   0  0  0  0  0  0
  -24.6426  -11.6894   20.8743 C   0  0  0  0  0  0
  -23.9085  -10.4286   21.0418 C   0  0  0  0  0  0
  -24.3633   -9.4199   21.9195 C   0  0  0  0  0  0
  -23.6301   -8.2245   22.0768 C   0  0  0  0  0  0
  -22.4282   -8.0289   21.3556 C   0  0  0  0  0  0
  -21.9920   -9.0266   20.4657 C   0  0  0  0  0  0
  -22.7264  -10.2140   20.3060 C   0  0  0  0  0  0
  -21.6848   -6.0744   22.5284 C   0  0  0  0  0  0
  -21.4013   -6.5649   23.8220 C   0  0  0  0  0  0
  -21.3652   -5.6801   24.9181 C   0  0  0  0  0  0
  -21.6043   -4.3063   24.7226 C   0  0  0  0  0  0
  -21.8819   -3.8157   23.4347 C   0  0  0  0  0  0
  -21.9195   -4.6974   22.3406 C   0  0  0  0  0  0
  -22.7905  -13.5248   21.1821 C   0  0  0  0  0  0
  -22.1662   -4.2160   21.0982 F   0  0  0  0  0  0
  -21.5625   -3.4543   25.7736 F   0  0  0  0  0  0
  -30.0478  -13.2447   20.4452 N   0  0  0  0  0  0
  -26.3085  -12.9304   20.3400 N   0  0  0  0  0  0
  -25.9350  -11.6467   20.5782 N   0  0  0  0  0  0
  -22.0539  -12.8236   22.0378 N   0  0  0  0  0  0
  -25.4383  -15.1859   20.4082 N   0  0  0  0  0  0
  -31.8080  -14.6561   20.0760 O   0  0  0  0  0  0
  -21.6639   -6.8893   21.4249 O   0  0  0  0  0  0
  -22.3600  -14.5559   20.6685 O   0  0  0  0  0  0
  -24.6139  -31.8684   23.2129 C   0  0  0  0  0  0
  -25.9037  -32.4820   23.8397 C   0  0  1  0  0  0
  -27.2220  -27.4408   20.0874 C   0  0  0  0  0  0
  -25.5903  -33.8616   24.2324 N   0  0  0  0  0  0
  -23.4008  -30.4944   21.5562 C   0  0  2  0  0  0
  -24.8410  -28.9688   20.1132 C   0  0  0  0  0  0
  -22.7396  -29.4649   22.5007 C   0  0  0  0  0  0
  -18.0256  -28.1361   22.8498 C   0  0  0  0  0  0
  -24.1486  -36.7298   23.2651 C   0  0  0  0  0  0
  -25.9308  -30.8355   21.3651 C   0  0  0  0  0  0
  -26.0043  -29.4743   20.7070 C   0  0  0  0  0  0
  -27.1996  -28.7184   20.6915 C   0  0  0  0  0  0
  -26.0436  -26.9611   19.4704 C   0  0  0  0  0  0
  -24.8536  -27.7087   19.4932 C   0  0  0  0  0  0
  -23.6042  -29.8350   20.1684 C   0  0  0  0  0  0
  -25.4109  -36.3090   24.0337 C   0  0  1  0  0  0
  -20.5851  -28.3639   23.1330 C   0  0  2  0  0  0
  -20.6756  -26.9387   22.5421 C   0  0  0  0  0  0
  -19.5729  -26.6369   21.5221 C   0  0  0  0  0  0
  -18.1904  -26.7908   22.1615 C   0  0  0  0  0  0
  -19.1515  -28.8818   23.2908 C   0  0  0  0  0  0
  -18.9443  -30.1417   23.8923 C   0  0  0  0  0  0
  -17.6454  -30.6589   24.0548 C   0  0  0  0  0  0
  -25.9038  -34.9468   23.5129 C   0  0  0  0  0  0
  -16.5335  -29.9089   23.6330 C   0  0  0  0  0  0
  -16.7250  -28.6490   23.0383 C   0  0  0  0  0  0
  -26.4479  -31.6613   25.0721 C   0  0  0  0  0  0
  -25.3757  -31.3693   26.1472 C   0  0  0  0  0  0
  -27.0314  -30.3061   24.6077 C   0  0  0  0  0  0
  -27.6037  -32.4354   25.7485 C   0  0  0  0  0  0
  -27.5570  -37.1800   24.8473 C   0  0  0  0  0  0
  -21.4134  -29.3007   22.3742 N   0  0  0  0  0  0
  -26.4293  -37.3764   23.9408 N   0  0  0  0  0  0
  -24.6676  -31.0796   22.1028 N   0  0  0  0  0  0
  -23.4173  -28.8180   23.3048 O   0  0  0  0  0  0
  -28.3873  -26.7021   20.0896 O   0  0  0  0  0  0
  -26.5597  -34.8934   22.4688 O   0  0  0  0  0  0
  -23.5341  -32.1441   23.7532 O   0  0  0  0  0  0
  -30.0105  -21.1714   22.2371 C   0  0  0  0  0  0
  -28.9822  -21.0809   21.2639 C   0  0  0  0  0  0
  -30.2977  -19.8778   22.5896 C   0  0  0  0  0  0
  -30.6261  -18.7278   24.8415 C   0  0  0  0  0  0
  -32.2328  -20.5032   24.1007 C   0  0  0  0  0  0
  -28.1846  -22.9940   18.1827 C   0  0  0  0  0  0
  -30.2728  -25.1133   18.8721 C   0  0  0  0  0  0
  -28.2067  -22.2041   20.6132 C   0  0  0  0  0  0
  -29.2312  -17.6215   21.8338 C   0  0  0  0  0  0
  -30.4455  -16.7573   21.4339 C   0  0  0  0  0  0
  -28.2486  -25.3156   20.4410 C   0  0  0  0  0  0
  -31.2872  -19.3872   23.6195 C   0  0  0  0  0  0
  -28.9781  -22.9866   19.5106 C   0  0  2  0  0  0
  -29.4194  -24.4208   19.9523 C   0  0  1  0  0  0
  -28.6912  -19.8180   20.9915 N   0  0  0  0  0  0
  -29.4652  -19.0688   21.8172 N   0  0  0  0  0  0
  -30.0620  -15.3487   21.3061 N   0  0  0  0  0  0
  -31.4696  -12.3795   19.0981 H   0  0  0  0  0  0
  -30.3204  -11.2643   19.7738 H   0  0  0  0  0  0
  -29.7188  -11.7971   17.4006 H   0  0  0  0  0  0
  -29.6670  -13.5006   17.7708 H   0  0  0  0  0  0
  -27.8130  -11.3217   18.7885 H   0  0  0  0  0  0
  -27.3617  -12.6733   17.7860 H   0  0  0  0  0  0
  -27.7297  -14.2541   19.6103 H   0  0  0  0  0  0
  -28.6839  -11.8880   21.2921 H   0  0  0  0  0  0
  -28.4794  -13.4969   21.8965 H   0  0  0  0  0  0
  -25.2777   -9.5665   22.4772 H   0  0  0  0  0  0
  -23.9999   -7.4634   22.7488 H   0  0  0  0  0  0
  -21.0851   -8.8800   19.8965 H   0  0  0  0  0  0
  -22.3738  -10.9685   19.6168 H   0  0  0  0  0  0
  -21.2008   -7.6156   23.9727 H   0  0  0  0  0  0
  -21.1471   -6.0529   25.9085 H   0  0  0  0  0  0
  -22.0605   -2.7616   23.2845 H   0  0  0  0  0  0
  -22.4139  -11.9875   22.4721 H   0  0  0  0  0  0
  -21.1170  -13.1290   22.2607 H   0  0  0  0  0  0
  -24.6751  -15.8438   20.5218 H   0  0  0  0  0  0
  -26.2917  -15.6215   20.0806 H   0  0  0  0  0  0
  -26.7113  -32.5525   23.1171 H   0  0  0  0  0  0
  -25.0087  -33.9803   25.0488 H   0  0  0  0  0  0
  -22.6878  -31.3113   21.4244 H   0  0  0  0  0  0
  -23.3739  -35.9638   23.3333 H   0  0  0  0  0  0
  -24.3583  -36.8894   22.2060 H   0  0  0  0  0  0
  -23.7249  -37.6517   23.6661 H   0  0  0  0  0  0
  -26.0469  -31.6028   20.5969 H   0  0  0  0  0  0
  -26.8185  -30.8836   21.9840 H   0  0  0  0  0  0
  -28.0988  -29.1033   21.1520 H   0  0  0  0  0  0
  -26.0280  -26.0174   18.9487 H   0  0  0  0  0  0
  -23.9610  -27.3220   19.0191 H   0  0  0  0  0  0
  -23.7079  -30.6145   19.4126 H   0  0  0  0  0  0
  -22.7256  -29.2589   19.8727 H   0  0  0  0  0  0
  -25.1280  -36.1951   25.0825 H   0  0  0  0  0  0
  -20.9941  -28.3213   24.1453 H   0  0  0  0  0  0
  -20.5687  -26.2247   23.3604 H   0  0  0  0  0  0
  -21.6632  -26.7463   22.1198 H   0  0  0  0  0  0
  -19.6913  -25.6283   21.1240 H   0  0  0  0  0  0
  -19.6688  -27.3194   20.6759 H   0  0  0  0  0  0
  -17.4190  -26.6670   21.4001 H   0  0  0  0  0  0
  -18.0291  -26.0046   22.8996 H   0  0  0  0  0  0
  -19.7932  -30.7193   24.2348 H   0  0  0  0  0  0
  -17.5029  -31.6299   24.5094 H   0  0  0  0  0  0
  -15.5343  -30.2999   23.7671 H   0  0  0  0  0  0
  -15.8633  -28.0805   22.7135 H   0  0  0  0  0  0
  -24.5946  -30.7005   25.7835 H   0  0  0  0  0  0
  -24.8920  -32.2835   26.4922 H   0  0  0  0  0  0
  -25.8138  -30.8890   27.0232 H   0  0  0  0  0  0
  -26.2846  -29.6797   24.1179 H   0  0  0  0  0  0
  -27.4160  -29.7295   25.4503 H   0  0  0  0  0  0
  -27.8644  -30.4390   23.9167 H   0  0  0  0  0  0
  -27.2649  -33.3672   26.2035 H   0  0  0  0  0  0
  -28.3875  -32.6892   25.0335 H   0  0  0  0  0  0
  -28.0675  -31.8491   26.5441 H   0  0  0  0  0  0
  -28.2596  -38.0086   24.7522 H   0  0  0  0  0  0
  -28.1062  -36.2619   24.6315 H   0  0  0  0  0  0
  -27.2292  -37.1467   25.8879 H   0  0  0  0  0  0
  -20.9297  -29.8736   21.6971 H   0  0  0  0  0  0
  -26.0174  -38.2838   24.1413 H   0  0  0  0  0  0
  -30.4466  -22.0718   22.6450 H   0  0  0  0  0  0
  -30.0877  -17.8198   24.5823 H   0  0  0  0  0  0
  -29.9244  -19.4048   25.3286 H   0  0  0  0  0  0
  -31.3730  -18.4424   25.5827 H   0  0  0  0  0  0
  -32.7789  -20.9448   23.2663 H   0  0  0  0  0  0
  -32.9723  -20.1178   24.8035 H   0  0  0  0  0  0
  -31.6851  -21.2999   24.6065 H   0  0  0  0  0  0
  -27.9188  -21.9803   17.8811 H   0  0  0  0  0  0
  -28.7666  -23.4149   17.3627 H   0  0  0  0  0  0
  -27.2613  -23.5676   18.2531 H   0  0  0  0  0  0
  -30.7690  -26.0000   19.2717 H   0  0  0  0  0  0
  -29.6640  -25.4348   18.0269 H   0  0  0  0  0  0
  -31.0508  -24.4483   18.4942 H   0  0  0  0  0  0
  -27.8447  -22.8765   21.3891 H   0  0  0  0  0  0
  -27.2940  -21.7910   20.1814 H   0  0  0  0  0  0
  -28.8649  -17.3433   22.8200 H   0  0  0  0  0  0
  -28.4052  -17.4029   21.1541 H   0  0  0  0  0  0
  -31.2360  -16.8234   22.1782 H   0  0  0  0  0  0
  -30.8601  -17.1212   20.4918 H   0  0  0  0  0  0
  -28.1900  -25.2616   21.5287 H   0  0  0  0  0  0
  -27.3156  -24.8792   20.0973 H   0  0  0  0  0  0
  -31.9274  -18.6443   23.1462 H   0  0  0  0  0  0
  -29.8896  -22.4236   19.2994 H   0  0  0  0  0  0
  -30.0837  -24.2859   20.8079 H   0  0  0  0  0  0
  -29.1777  -15.0668   21.7027 H   0  0  0  0  0  0
  1 25  1  0  0  0
  1 30  2  0  0  0
  1 87  1  0  0  0
  2  3  1  0  0  0
  2 25  1  0  0  0
  2 88  1  0  0  0
  2 89  1  0  0  0
  3  4  1  0  0  0
  3 90  1  0  0  0
  3 91  1  0  0  0
  4  5  1  0  0  0
  4 92  1  0  0  0
  4 93  1  0  0  0
  5  6  1  0  0  0
  5 26  1  0  0  0
  5 94  1  0  0  0
  6 25  1  0  0  0
  6 95  1  0  0  0
  6 96  1  0  0  0
  7  8  2  0  0  0
  7 26  1  0  0  0
  7 29  1  0  0  0
  8  9  1  0  0  0
  8 22  1  0  0  0
  9 10  1  0  0  0
  9 27  2  0  0  0
 10 11  2  0  0  0
 10 15  1  0  0  0
 11 12  1  0  0  0
 11 97  1  0  0  0
 12 13  2  0  0  0
 12 98  1  0  0  0
 13 14  1  0  0  0
 13 31  1  0  0  0
 14 15  2  0  0  0
 14 99  1  0  0  0
 15100  1  0  0  0
 16 17  2  0  0  0
 16 21  1  0  0  0
 16 31  1  0  0  0
 17 18  1  0  0  0
 17101  1  0  0  0
 18 19  2  0  0  0
 18102  1  0  0  0
 19 20  1  0  0  0
 19 24  1  0  0  0
 20 21  2  0  0  0
 20103  1  0  0  0
 21 23  1  0  0  0
 22 28  1  0  0  0
 22 32  2  0  0  0
 26 27  1  0  0  0
 28104  1  0  0  0
 28105  1  0  0  0
 29106  1  0  0  0
 29107  1  0  0  0
 33 34  1  0  0  0
 33 66  1  0  0  0
 33 70  2  0  0  0
 34 36  1  0  0  0
 34 59  1  0  0  0
 34108  1  0  0  0
 35 44  2  0  0  0
 35 45  1  0  0  0
 35 68  1  0  0  0
 36 56  1  0  0  0
 36109  1  0  0  0
 37 39  1  0  0  0
 37 47  1  0  0  0
 37 66  1  0  0  0
 37110  1  0  0  0
 38 43  2  0  0  0
 38 46  1  0  0  0
 38 47  1  0  0  0
 39 64  1  0  0  0
 39 67  2  0  0  0
 40 52  1  0  0  0
 40 53  2  0  0  0
 40 58  1  0  0  0
 41111  1  0  0  0
 41112  1  0  0  0
 41113  1  0  0  0
 41 48  1  0  0  0
 42 43  1  0  0  0
 42 66  1  0  0  0
 42114  1  0  0  0
 42115  1  0  0  0
 43 44  1  0  0  0
 44116  1  0  0  0
 45 46  2  0  0  0
 45117  1  0  0  0
 46118  1  0  0  0
 47119  1  0  0  0
 47120  1  0  0  0
 48 56  1  0  0  0
 48 65  1  0  0  0
 48121  1  0  0  0
 49 50  1  0  0  0
 49 53  1  0  0  0
 49 64  1  0  0  0
 49122  1  0  0  0
 50 51  1  0  0  0
 50123  1  0  0  0
 50124  1  0  0  0
 51 52  1  0  0  0
 51125  1  0  0  0
 51126  1  0  0  0
 52127  1  0  0  0
 52128  1  0  0  0
 53 54  1  0  0  0
 54 55  2  0  0  0
 54129  1  0  0  0
 55 57  1  0  0  0
 55130  1  0  0  0
 56 69  2  0  0  0
 57 58  2  0  0  0
 57131  1  0  0  0
 58132  1  0  0  0
 59 60  1  0  0  0
 59 61  1  0  0  0
 59 62  1  0  0  0
 60133  1  0  0  0
 60134  1  0  0  0
 60135  1  0  0  0
 61136  1  0  0  0
 61137  1  0  0  0
 61138  1  0  0  0
 62139  1  0  0  0
 62140  1  0  0  0
 62141  1  0  0  0
 63 65  1  0  0  0
 63142  1  0  0  0
 63143  1  0  0  0
 63144  1  0  0  0
 64145  1  0  0  0
 65146  1  0  0  0
 68 81  1  0  0  0
 71 72  1  0  0  0
 71 73  2  0  0  0
 71147  1  0  0  0
 72 78  1  0  0  0
 72 85  2  0  0  0
 73 82  1  0  0  0
 73 86  1  0  0  0
 74148  1  0  0  0
 74149  1  0  0  0
 74150  1  0  0  0
 74 82  1  0  0  0
 75 82  1  0  0  0
 75151  1  0  0  0
 75152  1  0  0  0
 75153  1  0  0  0
 76154  1  0  0  0
 76155  1  0  0  0
 76156  1  0  0  0
 76 83  1  0  0  0
 77157  1  0  0  0
 77158  1  0  0  0
 77159  1  0  0  0
 77 84  1  0  0  0
 78 83  1  0  0  0
 78160  1  0  0  0
 78161  1  0  0  0
 79 80  1  0  0  0
 79 86  1  0  0  0
 79162  1  0  0  0
 79163  1  0  0  0
 80 87  1  0  0  0
 80164  1  0  0  0
 80165  1  0  0  0
 81 84  1  0  0  0
 81166  1  0  0  0
 81167  1  0  0  0
 82168  1  0  0  0
 83 84  1  0  0  0
 83169  1  0  0  0
 84170  1  0  0  0
 85 86  1  0  0  0
 87171  1  0  0  0
M  ISO  4   1 100  68 101  81 101  87 100
M  END
> <chiral flag>
0

> <version>
0

> <s_m_source_file>
/data/baiqing/PycharmProjects/Reinvent-master-3.2/result/LINK_invent/BTK/process_docking_weight1_custom_sum_contain_oxygen_bond_distance_aromatic_linkinvent_7_9_3/rearranged_h_0110.sdf

> <i_m_source_file_index>
47

> <r_mmod_Potential_Energy-OPLS-2005>
-60.3565979003906

> <r_mmod_Stretch_Energy-OPLS-2005>
36.2604675292969

> <r_mmod_Bend_Energy-OPLS-2005>
102.169441223145

> <r_mmod_Torsional_Energy-OPLS-2005>
248.31999206543

> <r_mmod_Improper_Torsional_Energy-OPLS-2005>
3.00035262107849

> <r_mmod_Van_der_Waal_Energy-OPLS-2005>
138.37174987793

> <r_mmod_Electrostatic_Energy-OPLS-2005>
-389.058380126953

> <r_mmod_Solvation_Energy-OPLS-2005>
-208.796569824219

> <b_mmod_Minimization_Converged-OPLS-2005>
0

> <r_mmod_RMS_Derivative-OPLS-2005>
2.47040891647339

$$$$
48
                    3D
 Structure written by MMmdl.
159166  0  0  1  0            999 V2000
  -30.5301  -14.9780   20.4275 C   0  0  0  0  0  0
  -30.4520  -12.6167   19.4796 C   0  0  0  0  0  0
  -29.5250  -12.5312   18.2436 C   0  0  0  0  0  0
  -28.0555  -12.3233   18.6623 C   0  0  0  0  0  0
  -27.6287  -13.2529   19.8288 C   0  0  2  0  0  0
  -28.6795  -13.2854   20.9582 C   0  0  0  0  0  0
  -25.2458  -13.8226   20.5700 C   0  0  0  0  0  0
  -24.1780  -13.0447   20.9229 C   0  0  0  0  0  0
  -24.6407  -11.6941   20.8752 C   0  0  0  0  0  0
  -23.9093  -10.4311   21.0403 C   0  0  0  0  0  0
  -24.3641   -9.4224   21.9182 C   0  0  0  0  0  0
  -23.6303   -8.2264   22.0750 C   0  0  0  0  0  0
  -22.4283   -8.0291   21.3541 C   0  0  0  0  0  0
  -21.9930   -9.0271   20.4653 C   0  0  0  0  0  0
  -22.7266  -10.2151   20.3056 C   0  0  0  0  0  0
  -21.6860   -6.0735   22.5277 C   0  0  0  0  0  0
  -21.4024   -6.5637   23.8212 C   0  0  0  0  0  0
  -21.3669   -5.6783   24.9168 C   0  0  0  0  0  0
  -21.6041   -4.3048   24.7210 C   0  0  0  0  0  0
  -21.8820   -3.8142   23.4333 C   0  0  0  0  0  0
  -21.9199   -4.6965   22.3391 C   0  0  0  0  0  0
  -22.7792  -13.5214   21.1868 C   0  0  0  0  0  0
  -22.1659   -4.2153   21.0968 F   0  0  0  0  0  0
  -21.5630   -3.4530   25.7725 F   0  0  0  0  0  0
  -29.9443  -13.7148   20.3464 N   0  0  0  0  0  0
  -26.2889  -12.9464   20.3205 N   0  0  0  0  0  0
  -25.9342  -11.6589   20.5719 N   0  0  0  0  0  0
  -22.0430  -12.8224   22.0425 N   0  0  0  0  0  0
  -25.4070  -15.1966   20.4160 N   0  0  0  0  0  0
  -31.7515  -15.0483   20.2639 O   0  0  0  0  0  0
  -21.6643   -6.8883   21.4243 O   0  0  0  0  0  0
  -22.3466  -14.5507   20.6687 O   0  0  0  0  0  0
  -24.6431  -31.8420   23.1851 C   0  0  0  0  0  0
  -25.9196  -32.4685   23.8255 C   0  0  1  0  0  0
  -27.2269  -27.1273   20.1675 C   0  0  0  0  0  0
  -25.5932  -33.8489   24.2172 N   0  0  0  0  0  0
  -23.4481  -30.4573   21.5319 C   0  0  2  0  0  0
  -24.8980  -28.8688   20.1243 C   0  0  0  0  0  0
  -22.7564  -29.4537   22.4877 C   0  0  0  0  0  0
  -18.0305  -28.1397   22.8471 C   0  0  0  0  0  0
  -24.1492  -36.7269   23.2644 C   0  0  0  0  0  0
  -26.0038  -30.7131   21.3841 C   0  0  0  0  0  0
  -26.0759  -29.3184   20.7359 C   0  0  0  0  0  0
  -27.2431  -28.4665   20.7321 C   0  0  0  0  0  0
  -26.0195  -26.7664   19.5355 C   0  0  0  0  0  0
  -24.8810  -27.6051   19.5095 C   0  0  0  0  0  0
  -23.6761  -29.7745   20.1557 C   0  0  0  0  0  0
  -25.4122  -36.3027   24.0312 C   0  0  1  0  0  0
  -20.5914  -28.3717   23.1239 C   0  0  2  0  0  0
  -20.6788  -26.9423   22.5405 C   0  0  0  0  0  0
  -19.5765  -26.6377   21.5209 C   0  0  0  0  0  0
  -18.1943  -26.7936   22.1616 C   0  0  0  0  0  0
  -19.1559  -28.8876   23.2845 C   0  0  0  0  0  0
  -18.9479  -30.1473   23.8864 C   0  0  0  0  0  0
  -17.6473  -30.6593   24.0554 C   0  0  0  0  0  0
  -25.9070  -34.9401   23.5053 C   0  0  0  0  0  0
  -16.5364  -29.9082   23.6337 C   0  0  0  0  0  0
  -16.7287  -28.6506   23.0351 C   0  0  0  0  0  0
  -26.4513  -31.6563   25.0713 C   0  0  0  0  0  0
  -25.3683  -31.3770   26.1402 C   0  0  0  0  0  0
  -27.0374  -30.2951   24.6305 C   0  0  0  0  0  0
  -27.6031  -32.4332   25.7507 C   0  0  0  0  0  0
  -27.5578  -37.1792   24.8459 C   0  0  0  0  0  0
  -21.4262  -29.3041   22.3613 N   0  0  0  0  0  0
  -26.4286  -37.3739   23.9406 N   0  0  0  0  0  0
  -24.7185  -31.0257   22.0899 N   0  0  0  0  0  0
  -23.4202  -28.8084   23.3034 O   0  0  0  0  0  0
  -28.3209  -26.1940   20.0990 O   0  0  0  0  0  0
  -26.5668  -34.8905   22.4645 O   0  0  0  0  0  0
  -23.5545  -32.1302   23.7060 O   0  0  0  0  0  0
  -29.8594  -18.7320   17.5445 C   0  0  0  0  0  0
  -29.1972  -18.7789   18.7141 C   0  0  0  0  0  0
  -29.6008  -24.8225   21.6158 C   0  0  0  0  0  0
  -31.2487  -19.5410   19.9808 C   0  0  0  0  0  0
  -29.8292  -17.6560   20.9654 C   0  0  0  0  0  0
  -28.2786  -23.2304   19.9916 C   0  0  0  0  0  0
  -28.9517  -20.5170   20.6464 C   0  0  0  0  0  0
  -28.3610  -24.7613   20.7186 C   0  0  2  0  0  0
  -29.7654  -19.1163   20.0897 C   0  0  2  0  0  0
  -29.7109  -16.1436   20.4798 N   0  0  0  0  0  0
  -29.2930  -22.0102   20.1987 N   0  3  0  0  0  0
  -31.4811  -12.7995   19.1642 H   0  0  0  0  0  0
  -30.4656  -11.6714   20.0239 H   0  0  0  0  0  0
  -29.8436  -11.7225   17.5849 H   0  0  0  0  0  0
  -29.6111  -13.4483   17.6584 H   0  0  0  0  0  0
  -27.9449  -11.2814   18.9620 H   0  0  0  0  0  0
  -27.3974  -12.4658   17.8040 H   0  0  0  0  0  0
  -27.5839  -14.2546   19.4002 H   0  0  0  0  0  0
  -28.7803  -12.3073   21.4311 H   0  0  0  0  0  0
  -28.3799  -13.9801   21.7439 H   0  0  0  0  0  0
  -25.2796   -9.5687   22.4744 H   0  0  0  0  0  0
  -24.0014   -7.4653   22.7462 H   0  0  0  0  0  0
  -21.0861   -8.8807   19.8958 H   0  0  0  0  0  0
  -22.3739  -10.9686   19.6153 H   0  0  0  0  0  0
  -21.2021   -7.6145   23.9720 H   0  0  0  0  0  0
  -21.1486   -6.0505   25.9070 H   0  0  0  0  0  0
  -22.0592   -2.7609   23.2827 H   0  0  0  0  0  0
  -22.4047  -11.9936   22.4906 H   0  0  0  0  0  0
  -21.1023  -13.1233   22.2561 H   0  0  0  0  0  0
  -24.6283  -15.8360   20.5321 H   0  0  0  0  0  0
  -26.2416  -15.6513   20.0706 H   0  0  0  0  0  0
  -26.7270  -32.5280   23.0990 H   0  0  0  0  0  0
  -25.0031  -33.9598   25.0282 H   0  0  0  0  0  0
  -22.7523  -31.2831   21.3698 H   0  0  0  0  0  0
  -23.3746  -35.9608   23.3290 H   0  0  0  0  0  0
  -24.3572  -36.8922   22.2062 H   0  0  0  0  0  0
  -23.7258  -37.6466   23.6696 H   0  0  0  0  0  0
  -26.1558  -31.4612   20.6051 H   0  0  0  0  0  0
  -26.8758  -30.7697   22.0242 H   0  0  0  0  0  0
  -28.1522  -28.8180   21.1996 H   0  0  0  0  0  0
  -25.9512  -25.8002   19.0554 H   0  0  0  0  0  0
  -23.9813  -27.2560   19.0211 H   0  0  0  0  0  0
  -23.8158  -30.5417   19.3932 H   0  0  0  0  0  0
  -22.7921  -29.2132   19.8470 H   0  0  0  0  0  0
  -25.1314  -36.1861   25.0802 H   0  0  0  0  0  0
  -21.0001  -28.3306   24.1362 H   0  0  0  0  0  0
  -20.5676  -26.2333   23.3621 H   0  0  0  0  0  0
  -21.6655  -26.7425   22.1204 H   0  0  0  0  0  0
  -19.6924  -25.6277   21.1263 H   0  0  0  0  0  0
  -19.6709  -27.3167   20.6723 H   0  0  0  0  0  0
  -17.4217  -26.6677   21.4019 H   0  0  0  0  0  0
  -18.0345  -26.0083   22.9019 H   0  0  0  0  0  0
  -19.7952  -30.7303   24.2213 H   0  0  0  0  0  0
  -17.5025  -31.6271   24.5165 H   0  0  0  0  0  0
  -15.5362  -30.2974   23.7680 H   0  0  0  0  0  0
  -15.8688  -28.0815   22.7075 H   0  0  0  0  0  0
  -24.5833  -30.7164   25.7723 H   0  0  0  0  0  0
  -24.8907  -32.2961   26.4799 H   0  0  0  0  0  0
  -25.7936  -30.8946   27.0207 H   0  0  0  0  0  0
  -26.3000  -29.6681   24.1288 H   0  0  0  0  0  0
  -27.3956  -29.7253   25.4892 H   0  0  0  0  0  0
  -27.8919  -30.4191   23.9647 H   0  0  0  0  0  0
  -27.2606  -33.3628   26.2061 H   0  0  0  0  0  0
  -28.3855  -32.6901   25.0358 H   0  0  0  0  0  0
  -28.0687  -31.8481   26.5447 H   0  0  0  0  0  0
  -28.2581  -38.0102   24.7496 H   0  0  0  0  0  0
  -28.1085  -36.2626   24.6289 H   0  0  0  0  0  0
  -27.2293  -37.1449   25.8861 H   0  0  0  0  0  0
  -20.9480  -29.8751   21.6779 H   0  0  0  0  0  0
  -26.0153  -38.2811   24.1394 H   0  0  0  0  0  0
  -29.3381  -18.4773   16.6317 H   0  0  0  0  0  0
  -30.9173  -18.9367   17.4598 H   0  0  0  0  0  0
  -28.1401  -18.5536   18.7043 H   0  0  0  0  0  0
  -29.6590  -23.9609   22.2798 H   0  0  0  0  0  0
  -29.5797  -25.7112   22.2456 H   0  0  0  0  0  0
  -30.5120  -24.8605   21.0192 H   0  0  0  0  0  0
  -31.8739  -18.7224   19.6223 H   0  0  0  0  0  0
  -31.6425  -19.8430   20.9530 H   0  0  0  0  0  0
  -31.3976  -20.3835   19.3049 H   0  0  0  0  0  0
  -28.9989  -17.7365   21.6676 H   0  0  0  0  0  0
  -30.7030  -17.6866   21.6184 H   0  0  0  0  0  0
  -28.2728  -23.4141   18.9171 H   0  0  0  0  0  0
  -27.2827  -22.8365   20.1924 H   0  0  0  0  0  0
  -29.0290  -20.5213   21.7343 H   0  0  0  0  0  0
  -27.8897  -20.3703   20.4534 H   0  0  0  0  0  0
  -27.5137  -24.7628   21.4053 H   0  0  0  0  0  0
  -28.7426  -15.8790   20.3847 H   0  0  0  0  0  0
  -30.0336  -22.3274   20.8042 H   0  0  0  0  0  0
  -29.7243  -21.9089   19.2932 H   0  0  0  0  0  0
  1 25  1  0  0  0
  1 30  2  0  0  0
  1 80  1  0  0  0
  2  3  1  0  0  0
  2 25  1  0  0  0
  2 82  1  0  0  0
  2 83  1  0  0  0
  3  4  1  0  0  0
  3 84  1  0  0  0
  3 85  1  0  0  0
  4  5  1  0  0  0
  4 86  1  0  0  0
  4 87  1  0  0  0
  5  6  1  0  0  0
  5 26  1  0  0  0
  5 88  1  0  0  0
  6 25  1  0  0  0
  6 89  1  0  0  0
  6 90  1  0  0  0
  7  8  2  0  0  0
  7 26  1  0  0  0
  7 29  1  0  0  0
  8  9  1  0  0  0
  8 22  1  0  0  0
  9 10  1  0  0  0
  9 27  2  0  0  0
 10 11  2  0  0  0
 10 15  1  0  0  0
 11 12  1  0  0  0
 11 91  1  0  0  0
 12 13  2  0  0  0
 12 92  1  0  0  0
 13 14  1  0  0  0
 13 31  1  0  0  0
 14 15  2  0  0  0
 14 93  1  0  0  0
 15 94  1  0  0  0
 16 17  2  0  0  0
 16 21  1  0  0  0
 16 31  1  0  0  0
 17 18  1  0  0  0
 17 95  1  0  0  0
 18 19  2  0  0  0
 18 96  1  0  0  0
 19 20  1  0  0  0
 19 24  1  0  0  0
 20 21  2  0  0  0
 20 97  1  0  0  0
 21 23  1  0  0  0
 22 28  1  0  0  0
 22 32  2  0  0  0
 26 27  1  0  0  0
 28 98  1  0  0  0
 28 99  1  0  0  0
 29100  1  0  0  0
 29101  1  0  0  0
 33 34  1  0  0  0
 33 66  1  0  0  0
 33 70  2  0  0  0
 34 36  1  0  0  0
 34 59  1  0  0  0
 34102  1  0  0  0
 35 44  2  0  0  0
 35 45  1  0  0  0
 35 68  1  0  0  0
 36 56  1  0  0  0
 36103  1  0  0  0
 37 39  1  0  0  0
 37 47  1  0  0  0
 37 66  1  0  0  0
 37104  1  0  0  0
 38 43  2  0  0  0
 38 46  1  0  0  0
 38 47  1  0  0  0
 39 64  1  0  0  0
 39 67  2  0  0  0
 40 52  1  0  0  0
 40 53  2  0  0  0
 40 58  1  0  0  0
 41105  1  0  0  0
 41106  1  0  0  0
 41107  1  0  0  0
 41 48  1  0  0  0
 42 43  1  0  0  0
 42 66  1  0  0  0
 42108  1  0  0  0
 42109  1  0  0  0
 43 44  1  0  0  0
 44110  1  0  0  0
 45 46  2  0  0  0
 45111  1  0  0  0
 46112  1  0  0  0
 47113  1  0  0  0
 47114  1  0  0  0
 48 56  1  0  0  0
 48 65  1  0  0  0
 48115  1  0  0  0
 49 50  1  0  0  0
 49 53  1  0  0  0
 49 64  1  0  0  0
 49116  1  0  0  0
 50 51  1  0  0  0
 50117  1  0  0  0
 50118  1  0  0  0
 51 52  1  0  0  0
 51119  1  0  0  0
 51120  1  0  0  0
 52121  1  0  0  0
 52122  1  0  0  0
 53 54  1  0  0  0
 54 55  2  0  0  0
 54123  1  0  0  0
 55 57  1  0  0  0
 55124  1  0  0  0
 56 69  2  0  0  0
 57 58  2  0  0  0
 57125  1  0  0  0
 58126  1  0  0  0
 59 60  1  0  0  0
 59 61  1  0  0  0
 59 62  1  0  0  0
 60127  1  0  0  0
 60128  1  0  0  0
 60129  1  0  0  0
 61130  1  0  0  0
 61131  1  0  0  0
 61132  1  0  0  0
 62133  1  0  0  0
 62134  1  0  0  0
 62135  1  0  0  0
 63 65  1  0  0  0
 63136  1  0  0  0
 63137  1  0  0  0
 63138  1  0  0  0
 64139  1  0  0  0
 65140  1  0  0  0
 68 78  1  0  0  0
 71 72  2  0  0  0
 71141  1  0  0  0
 71142  1  0  0  0
 72143  1  0  0  0
 72 79  1  0  0  0
 73144  1  0  0  0
 73145  1  0  0  0
 73146  1  0  0  0
 73 78  1  0  0  0
 74147  1  0  0  0
 74148  1  0  0  0
 74149  1  0  0  0
 74 79  1  0  0  0
 75 79  1  0  0  0
 75 80  1  0  0  0
 75150  1  0  0  0
 75151  1  0  0  0
 76 78  1  0  0  0
 76 81  1  0  0  0
 76152  1  0  0  0
 76153  1  0  0  0
 77 79  1  0  0  0
 77 81  1  0  0  0
 77154  1  0  0  0
 77155  1  0  0  0
 78156  1  0  0  0
 80157  1  0  0  0
 81158  1  0  0  0
 81159  1  0  0  0
M  CHG  1  81   1
M  ISO  4   1 100  68 101  78 101  80 100
M  END
> <chiral flag>
0

> <version>
0

> <s_m_source_file>
/data/baiqing/PycharmProjects/Reinvent-master-3.2/result/LINK_invent/BTK/process_docking_weight1_custom_sum_contain_oxygen_bond_distance_aromatic_linkinvent_7_9_3/rearranged_h_0110.sdf

> <i_m_source_file_index>
48

> <r_mmod_Potential_Energy-OPLS-2005>
489.749267578125

> <r_mmod_Stretch_Energy-OPLS-2005>
291.854339599609

> <r_mmod_Bend_Energy-OPLS-2005>
334.441772460938

> <r_mmod_Torsional_Energy-OPLS-2005>
293.298522949219

> <r_mmod_Improper_Torsional_Energy-OPLS-2005>
5.32427597045898

> <r_mmod_Van_der_Waal_Energy-OPLS-2005>
107.657661437988

> <r_mmod_Electrostatic_Energy-OPLS-2005>
-295.879119873047

> <r_mmod_Solvation_Energy-OPLS-2005>
-448.955749511719

> <b_mmod_Minimization_Converged-OPLS-2005>
0

> <r_mmod_RMS_Derivative-OPLS-2005>
2.22309255599976

$$$$
49
                    3D
 Structure written by MMmdl.
158165  0  0  1  0            999 V2000
  -30.6237  -14.6768   20.5283 C   0  0  0  0  0  0
  -30.4381  -12.4263   19.4604 C   0  0  0  0  0  0
  -29.5208  -12.5370   18.2246 C   0  0  0  0  0  0
  -28.0361  -12.3905   18.6215 C   0  0  0  0  0  0
  -27.6590  -13.2280   19.8734 C   0  0  2  0  0  0
  -28.7022  -13.0981   21.0023 C   0  0  0  0  0  0
  -25.2575  -13.8145   20.5660 C   0  0  0  0  0  0
  -24.1848  -13.0426   20.9141 C   0  0  0  0  0  0
  -24.6423  -11.6909   20.8671 C   0  0  0  0  0  0
  -23.9068  -10.4304   21.0328 C   0  0  0  0  0  0
  -24.3605   -9.4237   21.9131 C   0  0  0  0  0  0
  -23.6310   -8.2274   22.0724 C   0  0  0  0  0  0
  -22.4314   -8.0275   21.3525 C   0  0  0  0  0  0
  -21.9916   -9.0237   20.4631 C   0  0  0  0  0  0
  -22.7213  -10.2139   20.3020 C   0  0  0  0  0  0
  -21.6871   -6.0713   22.5271 C   0  0  0  0  0  0
  -21.3997   -6.5612   23.8199 C   0  0  0  0  0  0
  -21.3674   -5.6770   24.9149 C   0  0  0  0  0  0
  -21.6077   -4.3045   24.7218 C   0  0  0  0  0  0
  -21.8809   -3.8131   23.4341 C   0  0  0  0  0  0
  -21.9193   -4.6926   22.3389 C   0  0  0  0  0  0
  -22.7882  -13.5232   21.1812 C   0  0  0  0  0  0
  -22.1676   -4.2104   21.0966 F   0  0  0  0  0  0
  -21.5652   -3.4540   25.7732 F   0  0  0  0  0  0
  -30.0057  -13.4520   20.4370 N   0  0  0  0  0  0
  -26.3048  -12.9358   20.3336 N   0  0  0  0  0  0
  -25.9386  -11.6518   20.5733 N   0  0  0  0  0  0
  -22.0508  -12.8229   22.0371 N   0  0  0  0  0  0
  -25.4275  -15.1870   20.4074 N   0  0  0  0  0  0
  -31.7871  -14.8215   20.1448 O   0  0  0  0  0  0
  -21.6692   -6.8880   21.4242 O   0  0  0  0  0  0
  -22.3608  -14.5576   20.6695 O   0  0  0  0  0  0
  -24.6260  -31.8569   23.1990 C   0  0  0  0  0  0
  -25.9114  -32.4770   23.8312 C   0  0  1  0  0  0
  -27.2258  -27.3002   20.1421 C   0  0  0  0  0  0
  -25.5928  -33.8566   24.2258 N   0  0  0  0  0  0
  -23.4198  -30.4813   21.5373 C   0  0  2  0  0  0
  -24.8642  -28.9188   20.1190 C   0  0  0  0  0  0
  -22.7464  -29.4635   22.4916 C   0  0  0  0  0  0
  -18.0308  -28.1411   22.8499 C   0  0  0  0  0  0
  -24.1470  -36.7250   23.2642 C   0  0  0  0  0  0
  -25.9590  -30.7884   21.3624 C   0  0  0  0  0  0
  -26.0346  -29.4083   20.7145 C   0  0  0  0  0  0
  -27.2189  -28.6148   20.7035 C   0  0  0  0  0  0
  -26.0277  -26.8455   19.5551 C   0  0  0  0  0  0
  -24.8629  -27.6399   19.5292 C   0  0  0  0  0  0
  -23.6348  -29.8072   20.1551 C   0  0  0  0  0  0
  -25.4089  -36.3066   24.0344 C   0  0  1  0  0  0
  -20.5896  -28.3697   23.1291 C   0  0  2  0  0  0
  -20.6801  -26.9431   22.5417 C   0  0  0  0  0  0
  -19.5777  -26.6424   21.5210 C   0  0  0  0  0  0
  -18.1951  -26.7967   22.1621 C   0  0  0  0  0  0
  -19.1546  -28.8861   23.2889 C   0  0  0  0  0  0
  -18.9473  -30.1475   23.8920 C   0  0  0  0  0  0
  -17.6481  -30.6618   24.0565 C   0  0  0  0  0  0
  -25.9049  -34.9454   23.5092 C   0  0  0  0  0  0
  -16.5360  -29.9136   23.6351 C   0  0  0  0  0  0
  -16.7294  -28.6531   23.0374 C   0  0  0  0  0  0
  -26.4514  -31.6600   25.0693 C   0  0  0  0  0  0
  -25.3785  -31.3737   26.1448 C   0  0  0  0  0  0
  -27.0326  -30.3029   24.6135 C   0  0  0  0  0  0
  -27.6055  -32.4348   25.7459 C   0  0  0  0  0  0
  -27.5567  -37.1758   24.8459 C   0  0  0  0  0  0
  -21.4183  -29.3025   22.3638 N   0  0  0  0  0  0
  -26.4258  -37.3774   23.9453 N   0  0  0  0  0  0
  -24.6874  -31.0592   22.0912 N   0  0  0  0  0  0
  -23.4167  -28.8217   23.3041 O   0  0  0  0  0  0
  -28.3691  -26.4990   20.0623 O   0  0  0  0  0  0
  -26.5603  -34.8944   22.4666 O   0  0  0  0  0  0
  -23.5449  -32.1351   23.7318 O   0  0  0  0  0  0
  -28.4160  -23.8671   18.5866 C   0  0  0  0  0  0
  -28.2808  -18.2045   22.1833 C   0  0  0  0  0  0
  -29.0836  -22.4999   20.6956 C   0  0  0  0  0  0
  -30.2649  -17.2373   20.8298 C   0  0  0  0  0  0
  -28.7294  -20.9689   20.3093 C   0  0  0  0  0  0
  -28.4863  -25.2067   20.7848 C   0  0  0  0  0  0
  -28.2439  -23.7614   20.1113 C   0  0  1  0  0  0
  -29.1398  -18.3975   20.9112 C   0  0  2  0  0  0
  -29.8571  -15.7720   20.8739 N   0  0  0  0  0  0
  -29.6440  -19.8494   20.8281 N   0  3  0  0  0  0
  -31.4778  -12.5531   19.1558 H   0  0  0  0  0  0
  -30.3706  -11.4290   19.8971 H   0  0  0  0  0  0
  -29.7919  -11.7822   17.4841 H   0  0  0  0  0  0
  -29.6791  -13.5040   17.7443 H   0  0  0  0  0  0
  -27.8489  -11.3338   18.8047 H   0  0  0  0  0  0
  -27.3975  -12.6749   17.7855 H   0  0  0  0  0  0
  -27.6772  -14.2712   19.5573 H   0  0  0  0  0  0
  -28.7267  -12.0836   21.4025 H   0  0  0  0  0  0
  -28.4519  -13.7474   21.8418 H   0  0  0  0  0  0
  -25.2736   -9.5715   22.4741 H   0  0  0  0  0  0
  -24.0003   -7.4653   22.7459 H   0  0  0  0  0  0
  -21.0848   -8.8713   19.8997 H   0  0  0  0  0  0
  -22.3592  -10.9646   19.6158 H   0  0  0  0  0  0
  -21.1998   -7.6120   23.9659 H   0  0  0  0  0  0
  -21.1514   -6.0518   25.9047 H   0  0  0  0  0  0
  -22.0600   -2.7595   23.2836 H   0  0  0  0  0  0
  -22.4153  -11.9910   22.4759 H   0  0  0  0  0  0
  -21.1126  -13.1222   22.2581 H   0  0  0  0  0  0
  -24.6495  -15.8295   20.4955 H   0  0  0  0  0  0
  -26.2687  -15.6210   20.0483 H   0  0  0  0  0  0
  -26.7187  -32.5415   23.1055 H   0  0  0  0  0  0
  -25.0149  -33.9721   25.0447 H   0  0  0  0  0  0
  -22.7147  -31.3018   21.3923 H   0  0  0  0  0  0
  -23.3772  -35.9530   23.3265 H   0  0  0  0  0  0
  -24.3609  -36.8909   22.2067 H   0  0  0  0  0  0
  -23.7174  -37.6427   23.6685 H   0  0  0  0  0  0
  -26.0937  -31.5521   20.5933 H   0  0  0  0  0  0
  -26.8404  -30.8366   21.9926 H   0  0  0  0  0  0
  -28.1304  -29.0101   21.1309 H   0  0  0  0  0  0
  -25.9964  -25.8629   19.1068 H   0  0  0  0  0  0
  -23.9625  -27.2495   19.0710 H   0  0  0  0  0  0
  -23.7578  -30.5765   19.3911 H   0  0  0  0  0  0
  -22.7545  -29.2358   19.8597 H   0  0  0  0  0  0
  -25.1276  -36.1878   25.0834 H   0  0  0  0  0  0
  -21.0001  -28.3295   24.1403 H   0  0  0  0  0  0
  -20.5680  -26.2338   23.3619 H   0  0  0  0  0  0
  -21.6681  -26.7494   22.1197 H   0  0  0  0  0  0
  -19.6920  -25.6330   21.1276 H   0  0  0  0  0  0
  -19.6719  -27.3206   20.6708 H   0  0  0  0  0  0
  -17.4227  -26.6731   21.4017 H   0  0  0  0  0  0
  -18.0317  -26.0113   22.9015 H   0  0  0  0  0  0
  -19.7948  -30.7271   24.2295 H   0  0  0  0  0  0
  -17.5052  -31.6304   24.5172 H   0  0  0  0  0  0
  -15.5366  -30.3028   23.7683 H   0  0  0  0  0  0
  -15.8703  -28.0857   22.7107 H   0  0  0  0  0  0
  -24.5933  -30.7117   25.7802 H   0  0  0  0  0  0
  -24.9011  -32.2899   26.4914 H   0  0  0  0  0  0
  -25.8154  -30.8900   27.0189 H   0  0  0  0  0  0
  -26.2859  -29.6789   24.1214 H   0  0  0  0  0  0
  -27.4102  -29.7296   25.4611 H   0  0  0  0  0  0
  -27.8709  -30.4343   23.9288 H   0  0  0  0  0  0
  -27.2660  -33.3651   26.2012 H   0  0  0  0  0  0
  -28.3862  -32.6906   25.0289 H   0  0  0  0  0  0
  -28.0718  -31.8497   26.5400 H   0  0  0  0  0  0
  -28.2546  -38.0091   24.7608 H   0  0  0  0  0  0
  -28.1126  -36.2665   24.6154 H   0  0  0  0  0  0
  -27.2352  -37.1210   25.8874 H   0  0  0  0  0  0
  -20.9348  -29.8715   21.6814 H   0  0  0  0  0  0
  -26.0129  -38.2832   24.1546 H   0  0  0  0  0  0
  -28.2044  -22.9185   18.1007 H   0  0  0  0  0  0
  -29.4336  -24.1646   18.3267 H   0  0  0  0  0  0
  -27.7266  -24.6043   18.1705 H   0  0  0  0  0  0
  -27.6625  -17.3082   22.1215 H   0  0  0  0  0  0
  -27.6168  -19.0538   22.3634 H   0  0  0  0  0  0
  -28.9025  -18.0904   23.0713 H   0  0  0  0  0  0
  -30.1278  -22.6641   20.4323 H   0  0  0  0  0  0
  -29.0542  -22.5657   21.7837 H   0  0  0  0  0  0
  -30.8485  -17.4010   19.9240 H   0  0  0  0  0  0
  -30.9625  -17.3751   21.6553 H   0  0  0  0  0  0
  -28.7515  -20.8824   19.2229 H   0  0  0  0  0  0
  -27.6988  -20.7701   20.5939 H   0  0  0  0  0  0
  -29.5294  -25.2027   21.1051 H   0  0  0  0  0  0
  -27.9083  -25.2768   21.7069 H   0  0  0  0  0  0
  -27.1910  -23.5417   20.2877 H   0  0  0  0  0  0
  -28.5011  -18.2542   20.0394 H   0  0  0  0  0  0
  -28.9088  -15.5716   21.1536 H   0  0  0  0  0  0
  -29.9960  -20.1096   21.7369 H   0  0  0  0  0  0
  -30.4390  -19.8427   20.2086 H   0  0  0  0  0  0
  1 25  1  0  0  0
  1 30  2  0  0  0
  1 79  1  0  0  0
  2  3  1  0  0  0
  2 25  1  0  0  0
  2 81  1  0  0  0
  2 82  1  0  0  0
  3  4  1  0  0  0
  3 83  1  0  0  0
  3 84  1  0  0  0
  4  5  1  0  0  0
  4 85  1  0  0  0
  4 86  1  0  0  0
  5  6  1  0  0  0
  5 26  1  0  0  0
  5 87  1  0  0  0
  6 25  1  0  0  0
  6 88  1  0  0  0
  6 89  1  0  0  0
  7  8  2  0  0  0
  7 26  1  0  0  0
  7 29  1  0  0  0
  8  9  1  0  0  0
  8 22  1  0  0  0
  9 10  1  0  0  0
  9 27  2  0  0  0
 10 11  2  0  0  0
 10 15  1  0  0  0
 11 12  1  0  0  0
 11 90  1  0  0  0
 12 13  2  0  0  0
 12 91  1  0  0  0
 13 14  1  0  0  0
 13 31  1  0  0  0
 14 15  2  0  0  0
 14 92  1  0  0  0
 15 93  1  0  0  0
 16 17  2  0  0  0
 16 21  1  0  0  0
 16 31  1  0  0  0
 17 18  1  0  0  0
 17 94  1  0  0  0
 18 19  2  0  0  0
 18 95  1  0  0  0
 19 20  1  0  0  0
 19 24  1  0  0  0
 20 21  2  0  0  0
 20 96  1  0  0  0
 21 23  1  0  0  0
 22 28  1  0  0  0
 22 32  2  0  0  0
 26 27  1  0  0  0
 28 97  1  0  0  0
 28 98  1  0  0  0
 29 99  1  0  0  0
 29100  1  0  0  0
 33 34  1  0  0  0
 33 66  1  0  0  0
 33 70  2  0  0  0
 34 36  1  0  0  0
 34 59  1  0  0  0
 34101  1  0  0  0
 35 44  2  0  0  0
 35 45  1  0  0  0
 35 68  1  0  0  0
 36 56  1  0  0  0
 36102  1  0  0  0
 37 39  1  0  0  0
 37 47  1  0  0  0
 37 66  1  0  0  0
 37103  1  0  0  0
 38 43  2  0  0  0
 38 46  1  0  0  0
 38 47  1  0  0  0
 39 64  1  0  0  0
 39 67  2  0  0  0
 40 52  1  0  0  0
 40 53  2  0  0  0
 40 58  1  0  0  0
 41104  1  0  0  0
 41105  1  0  0  0
 41106  1  0  0  0
 41 48  1  0  0  0
 42 43  1  0  0  0
 42 66  1  0  0  0
 42107  1  0  0  0
 42108  1  0  0  0
 43 44  1  0  0  0
 44109  1  0  0  0
 45 46  2  0  0  0
 45110  1  0  0  0
 46111  1  0  0  0
 47112  1  0  0  0
 47113  1  0  0  0
 48 56  1  0  0  0
 48 65  1  0  0  0
 48114  1  0  0  0
 49 50  1  0  0  0
 49 53  1  0  0  0
 49 64  1  0  0  0
 49115  1  0  0  0
 50 51  1  0  0  0
 50116  1  0  0  0
 50117  1  0  0  0
 51 52  1  0  0  0
 51118  1  0  0  0
 51119  1  0  0  0
 52120  1  0  0  0
 52121  1  0  0  0
 53 54  1  0  0  0
 54 55  2  0  0  0
 54122  1  0  0  0
 55 57  1  0  0  0
 55123  1  0  0  0
 56 69  2  0  0  0
 57 58  2  0  0  0
 57124  1  0  0  0
 58125  1  0  0  0
 59 60  1  0  0  0
 59 61  1  0  0  0
 59 62  1  0  0  0
 60126  1  0  0  0
 60127  1  0  0  0
 60128  1  0  0  0
 61129  1  0  0  0
 61130  1  0  0  0
 61131  1  0  0  0
 62132  1  0  0  0
 62133  1  0  0  0
 62134  1  0  0  0
 63 65  1  0  0  0
 63135  1  0  0  0
 63136  1  0  0  0
 63137  1  0  0  0
 64138  1  0  0  0
 65139  1  0  0  0
 68 76  1  0  0  0
 71140  1  0  0  0
 71141  1  0  0  0
 71142  1  0  0  0
 71 77  1  0  0  0
 72143  1  0  0  0
 72144  1  0  0  0
 72145  1  0  0  0
 72 78  1  0  0  0
 73 75  1  0  0  0
 73 77  1  0  0  0
 73146  1  0  0  0
 73147  1  0  0  0
 74 78  1  0  0  0
 74 79  1  0  0  0
 74148  1  0  0  0
 74149  1  0  0  0
 75 80  1  0  0  0
 75150  1  0  0  0
 75151  1  0  0  0
 76 77  1  0  0  0
 76152  1  0  0  0
 76153  1  0  0  0
 77154  1  0  0  0
 78 80  1  0  0  0
 78155  1  0  0  0
 79156  1  0  0  0
 80157  1  0  0  0
 80158  1  0  0  0
M  CHG  1  80   1
M  ISO  4   1 100  68 101  76 101  79 100
M  END
> <chiral flag>
0

> <version>
0

> <s_m_source_file>
/data/baiqing/PycharmProjects/Reinvent-master-3.2/result/LINK_invent/BTK/process_docking_weight1_custom_sum_contain_oxygen_bond_distance_aromatic_linkinvent_7_9_3/rearranged_h_0110.sdf

> <i_m_source_file_index>
49

> <r_mmod_Potential_Energy-OPLS-2005>
-91.5971984863281

> <r_mmod_Stretch_Energy-OPLS-2005>
106.569404602051

> <r_mmod_Bend_Energy-OPLS-2005>
163.019577026367

> <r_mmod_Torsional_Energy-OPLS-2005>
247.246459960938

> <r_mmod_Improper_Torsional_Energy-OPLS-2005>
4.48599004745483

> <r_mmod_Van_der_Waal_Energy-OPLS-2005>
109.497932434082

> <r_mmod_Electrostatic_Energy-OPLS-2005>
-296.152404785156

> <r_mmod_Solvation_Energy-OPLS-2005>
-479.503662109375

> <b_mmod_Minimization_Converged-OPLS-2005>
0

> <r_mmod_RMS_Derivative-OPLS-2005>
6.79303455352783

$$$$
50
                    3D
 Structure written by MMmdl.
155162  0  0  1  0            999 V2000
  -30.6245  -14.6518   20.4955 C   0  0  0  0  0  0
  -30.4286  -12.4023   19.4526 C   0  0  0  0  0  0
  -29.5035  -12.5021   18.2201 C   0  0  0  0  0  0
  -28.0273  -12.3406   18.6342 C   0  0  0  0  0  0
  -27.6466  -13.2202   19.8569 C   0  0  2  0  0  0
  -28.6896  -13.0951   20.9887 C   0  0  0  0  0  0
  -25.2547  -13.8178   20.5698 C   0  0  0  0  0  0
  -24.1812  -13.0435   20.9190 C   0  0  0  0  0  0
  -24.6376  -11.6907   20.8728 C   0  0  0  0  0  0
  -23.9042  -10.4292   21.0392 C   0  0  0  0  0  0
  -24.3600   -9.4207   21.9169 C   0  0  0  0  0  0
  -23.6272   -8.2246   22.0744 C   0  0  0  0  0  0
  -22.4255   -8.0275   21.3535 C   0  0  0  0  0  0
  -21.9884   -9.0250   20.4642 C   0  0  0  0  0  0
  -22.7206  -10.2136   20.3049 C   0  0  0  0  0  0
  -21.6847   -6.0729   22.5274 C   0  0  0  0  0  0
  -21.4019   -6.5634   23.8208 C   0  0  0  0  0  0
  -21.3654   -5.6787   24.9168 C   0  0  0  0  0  0
  -21.6039   -4.3050   24.7219 C   0  0  0  0  0  0
  -21.8818   -3.8143   23.4347 C   0  0  0  0  0  0
  -21.9187   -4.6954   22.3400 C   0  0  0  0  0  0
  -22.7850  -13.5236   21.1847 C   0  0  0  0  0  0
  -22.1666   -4.2153   21.0973 F   0  0  0  0  0  0
  -21.5616   -3.4528   25.7725 F   0  0  0  0  0  0
  -29.9967  -13.4367   20.4146 N   0  0  0  0  0  0
  -26.2955  -12.9356   20.3294 N   0  0  0  0  0  0
  -25.9304  -11.6512   20.5742 N   0  0  0  0  0  0
  -22.0474  -12.8243   22.0402 N   0  0  0  0  0  0
  -25.4266  -15.1906   20.4142 N   0  0  0  0  0  0
  -31.8050  -14.7780   20.1579 O   0  0  0  0  0  0
  -21.6627   -6.8870   21.4236 O   0  0  0  0  0  0
  -22.3541  -14.5543   20.6684 O   0  0  0  0  0  0
  -24.6259  -31.8599   23.2031 C   0  0  0  0  0  0
  -25.9107  -32.4785   23.8368 C   0  0  1  0  0  0
  -27.2293  -27.3156   20.1406 C   0  0  0  0  0  0
  -25.5952  -33.8586   24.2308 N   0  0  0  0  0  0
  -23.4201  -30.4808   21.5443 C   0  0  2  0  0  0
  -24.8706  -28.9253   20.1201 C   0  0  0  0  0  0
  -22.7475  -29.4616   22.4944 C   0  0  0  0  0  0
  -18.0281  -28.1390   22.8494 C   0  0  0  0  0  0
  -24.1471  -36.7257   23.2631 C   0  0  0  0  0  0
  -25.9589  -30.7880   21.3752 C   0  0  0  0  0  0
  -26.0347  -29.4084   20.7320 C   0  0  0  0  0  0
  -27.2175  -28.6127   20.7353 C   0  0  0  0  0  0
  -26.0564  -26.8893   19.4882 C   0  0  0  0  0  0
  -24.8825  -27.6702   19.4880 C   0  0  0  0  0  0
  -23.6382  -29.8072   20.1622 C   0  0  0  0  0  0
  -25.4105  -36.3075   24.0329 C   0  0  1  0  0  0
  -20.5883  -28.3681   23.1287 C   0  0  2  0  0  0
  -20.6768  -26.9401   22.5410 C   0  0  0  0  0  0
  -19.5735  -26.6385   21.5216 C   0  0  0  0  0  0
  -18.1915  -26.7935   22.1627 C   0  0  0  0  0  0
  -19.1539  -28.8854   23.2886 C   0  0  0  0  0  0
  -18.9460  -30.1460   23.8897 C   0  0  0  0  0  0
  -17.6458  -30.6594   24.0554 C   0  0  0  0  0  0
  -25.9054  -34.9448   23.5112 C   0  0  0  0  0  0
  -16.5349  -29.9091   23.6327 C   0  0  0  0  0  0
  -16.7269  -28.6509   23.0357 C   0  0  0  0  0  0
  -26.4488  -31.6591   25.0736 C   0  0  0  0  0  0
  -25.3713  -31.3734   26.1458 C   0  0  0  0  0  0
  -27.0336  -30.3023   24.6170 C   0  0  0  0  0  0
  -27.6051  -32.4327   25.7516 C   0  0  0  0  0  0
  -27.5564  -37.1779   24.8474 C   0  0  0  0  0  0
  -21.4195  -29.3027   22.3674 N   0  0  0  0  0  0
  -26.4275  -37.3778   23.9422 N   0  0  0  0  0  0
  -24.6867  -31.0601   22.0985 N   0  0  0  0  0  0
  -23.4189  -28.8159   23.3033 O   0  0  0  0  0  0
  -28.3682  -26.5090   20.0729 O   0  0  0  0  0  0
  -26.5581  -34.8913   22.4655 O   0  0  0  0  0  0
  -23.5424  -32.1394   23.7363 O   0  0  0  0  0  0
  -26.6500  -23.4907   20.5983 C   0  0  0  0  0  0
  -29.6464  -19.8767   20.7432 C   0  0  0  0  0  0
  -28.6435  -21.0711   20.3787 C   0  0  0  0  0  0
  -29.1931  -18.3520   20.5408 C   0  0  0  0  0  0
  -29.0331  -22.5771   20.7735 C   0  0  0  0  0  0
  -30.2834  -17.2053   20.7832 C   0  0  0  0  0  0
  -28.4862  -25.2624   20.8631 C   0  0  0  0  0  0
  -28.1214  -23.8104   20.2845 C   0  0  2  0  0  0
  -29.8503  -15.7557   20.7650 N   0  0  0  0  0  0
  -31.4719  -12.5223   19.1541 H   0  0  0  0  0  0
  -30.3578  -11.4108   19.9020 H   0  0  0  0  0  0
  -29.7696  -11.7421   17.4844 H   0  0  0  0  0  0
  -29.6456  -13.4645   17.7266 H   0  0  0  0  0  0
  -27.8694  -11.2889   18.8743 H   0  0  0  0  0  0
  -27.3716  -12.5597   17.7911 H   0  0  0  0  0  0
  -27.6585  -14.2529   19.5075 H   0  0  0  0  0  0
  -28.7065  -12.0791   21.3859 H   0  0  0  0  0  0
  -28.4365  -13.7418   21.8303 H   0  0  0  0  0  0
  -25.2737   -9.5686   22.4751 H   0  0  0  0  0  0
  -23.9995   -7.4655   22.7465 H   0  0  0  0  0  0
  -21.0818   -8.8754   19.8951 H   0  0  0  0  0  0
  -22.3651  -10.9676   19.6160 H   0  0  0  0  0  0
  -21.2034   -7.6145   23.9726 H   0  0  0  0  0  0
  -21.1470   -6.0515   25.9071 H   0  0  0  0  0  0
  -22.0605   -2.7605   23.2847 H   0  0  0  0  0  0
  -22.4070  -11.9897   22.4808 H   0  0  0  0  0  0
  -21.1085  -13.1268   22.2560 H   0  0  0  0  0  0
  -24.6589  -15.8449   20.5216 H   0  0  0  0  0  0
  -26.2734  -15.6299   20.0762 H   0  0  0  0  0  0
  -26.7170  -32.5461   23.1115 H   0  0  0  0  0  0
  -25.0214  -33.9743   25.0533 H   0  0  0  0  0  0
  -22.7144  -31.3012   21.3967 H   0  0  0  0  0  0
  -23.3765  -35.9560   23.3311 H   0  0  0  0  0  0
  -24.3538  -36.8851   22.2035 H   0  0  0  0  0  0
  -23.7198  -37.6451   23.6644 H   0  0  0  0  0  0
  -26.0826  -31.5426   20.5974 H   0  0  0  0  0  0
  -26.8429  -30.8483   21.9979 H   0  0  0  0  0  0
  -28.1184  -28.9828   21.2038 H   0  0  0  0  0  0
  -26.0596  -25.9513   18.9540 H   0  0  0  0  0  0
  -23.9975  -27.3068   18.9836 H   0  0  0  0  0  0
  -23.7559  -30.5774   19.3999 H   0  0  0  0  0  0
  -22.7604  -29.2309   19.8630 H   0  0  0  0  0  0
  -25.1283  -36.1915   25.0821 H   0  0  0  0  0  0
  -20.9984  -28.3248   24.1404 H   0  0  0  0  0  0
  -20.5671  -26.2280   23.3605 H   0  0  0  0  0  0
  -21.6631  -26.7429   22.1181 H   0  0  0  0  0  0
  -19.6880  -25.6295   21.1238 H   0  0  0  0  0  0
  -19.6673  -27.3200   20.6745 H   0  0  0  0  0  0
  -17.4181  -26.6700   21.4025 H   0  0  0  0  0  0
  -18.0301  -26.0083   22.9025 H   0  0  0  0  0  0
  -19.7935  -30.7282   24.2265 H   0  0  0  0  0  0
  -17.5010  -31.6275   24.5152 H   0  0  0  0  0  0
  -15.5349  -30.2987   23.7668 H   0  0  0  0  0  0
  -15.8668  -28.0828   22.7078 H   0  0  0  0  0  0
  -24.5903  -30.7068   25.7781 H   0  0  0  0  0  0
  -24.8894  -32.2907   26.4857 H   0  0  0  0  0  0
  -25.8012  -30.8930   27.0256 H   0  0  0  0  0  0
  -26.2891  -29.6768   24.1231 H   0  0  0  0  0  0
  -27.4091  -29.7286   25.4655 H   0  0  0  0  0  0
  -27.8737  -30.4336   23.9346 H   0  0  0  0  0  0
  -27.2667  -33.3645   26.2065 H   0  0  0  0  0  0
  -28.3877  -32.6857   25.0352 H   0  0  0  0  0  0
  -28.0693  -31.8471   26.5458 H   0  0  0  0  0  0
  -28.2599  -38.0058   24.7524 H   0  0  0  0  0  0
  -28.1036  -36.2594   24.6312 H   0  0  0  0  0  0
  -27.2270  -37.1433   25.8871 H   0  0  0  0  0  0
  -20.9385  -29.8730   21.6864 H   0  0  0  0  0  0
  -26.0153  -38.2844   24.1465 H   0  0  0  0  0  0
  -25.9884  -24.3249   20.3826 H   0  0  0  0  0  0
  -26.5202  -23.2479   21.6540 H   0  0  0  0  0  0
  -26.2949  -22.6404   20.0172 H   0  0  0  0  0  0
  -29.9331  -19.9913   21.7889 H   0  0  0  0  0  0
  -30.5642  -20.0330   20.1749 H   0  0  0  0  0  0
  -27.6834  -20.8418   20.8424 H   0  0  0  0  0  0
  -28.4588  -21.0412   19.3035 H   0  0  0  0  0  0
  -28.3418  -18.1651   21.1959 H   0  0  0  0  0  0
  -28.8094  -18.2434   19.5255 H   0  0  0  0  0  0
  -30.0507  -22.7618   20.4270 H   0  0  0  0  0  0
  -29.0994  -22.6200   21.8616 H   0  0  0  0  0  0
  -31.0714  -17.3326   20.0393 H   0  0  0  0  0  0
  -30.7620  -17.3821   21.7469 H   0  0  0  0  0  0
  -27.9920  -25.4096   21.8242 H   0  0  0  0  0  0
  -29.5466  -25.2247   21.1142 H   0  0  0  0  0  0
  -28.2307  -23.8702   19.2015 H   0  0  0  0  0  0
  -28.8822  -15.5674   20.9805 H   0  0  0  0  0  0
  1 25  1  0  0  0
  1 30  2  0  0  0
  1 79  1  0  0  0
  2  3  1  0  0  0
  2 25  1  0  0  0
  2 80  1  0  0  0
  2 81  1  0  0  0
  3  4  1  0  0  0
  3 82  1  0  0  0
  3 83  1  0  0  0
  4  5  1  0  0  0
  4 84  1  0  0  0
  4 85  1  0  0  0
  5  6  1  0  0  0
  5 26  1  0  0  0
  5 86  1  0  0  0
  6 25  1  0  0  0
  6 87  1  0  0  0
  6 88  1  0  0  0
  7  8  2  0  0  0
  7 26  1  0  0  0
  7 29  1  0  0  0
  8  9  1  0  0  0
  8 22  1  0  0  0
  9 10  1  0  0  0
  9 27  2  0  0  0
 10 11  2  0  0  0
 10 15  1  0  0  0
 11 12  1  0  0  0
 11 89  1  0  0  0
 12 13  2  0  0  0
 12 90  1  0  0  0
 13 14  1  0  0  0
 13 31  1  0  0  0
 14 15  2  0  0  0
 14 91  1  0  0  0
 15 92  1  0  0  0
 16 17  2  0  0  0
 16 21  1  0  0  0
 16 31  1  0  0  0
 17 18  1  0  0  0
 17 93  1  0  0  0
 18 19  2  0  0  0
 18 94  1  0  0  0
 19 20  1  0  0  0
 19 24  1  0  0  0
 20 21  2  0  0  0
 20 95  1  0  0  0
 21 23  1  0  0  0
 22 28  1  0  0  0
 22 32  2  0  0  0
 26 27  1  0  0  0
 28 96  1  0  0  0
 28 97  1  0  0  0
 29 98  1  0  0  0
 29 99  1  0  0  0
 33 34  1  0  0  0
 33 66  1  0  0  0
 33 70  2  0  0  0
 34 36  1  0  0  0
 34 59  1  0  0  0
 34100  1  0  0  0
 35 44  2  0  0  0
 35 45  1  0  0  0
 35 68  1  0  0  0
 36 56  1  0  0  0
 36101  1  0  0  0
 37 39  1  0  0  0
 37 47  1  0  0  0
 37 66  1  0  0  0
 37102  1  0  0  0
 38 43  2  0  0  0
 38 46  1  0  0  0
 38 47  1  0  0  0
 39 64  1  0  0  0
 39 67  2  0  0  0
 40 52  1  0  0  0
 40 53  2  0  0  0
 40 58  1  0  0  0
 41103  1  0  0  0
 41104  1  0  0  0
 41105  1  0  0  0
 41 48  1  0  0  0
 42 43  1  0  0  0
 42 66  1  0  0  0
 42106  1  0  0  0
 42107  1  0  0  0
 43 44  1  0  0  0
 44108  1  0  0  0
 45 46  2  0  0  0
 45109  1  0  0  0
 46110  1  0  0  0
 47111  1  0  0  0
 47112  1  0  0  0
 48 56  1  0  0  0
 48 65  1  0  0  0
 48113  1  0  0  0
 49 50  1  0  0  0
 49 53  1  0  0  0
 49 64  1  0  0  0
 49114  1  0  0  0
 50 51  1  0  0  0
 50115  1  0  0  0
 50116  1  0  0  0
 51 52  1  0  0  0
 51117  1  0  0  0
 51118  1  0  0  0
 52119  1  0  0  0
 52120  1  0  0  0
 53 54  1  0  0  0
 54 55  2  0  0  0
 54121  1  0  0  0
 55 57  1  0  0  0
 55122  1  0  0  0
 56 69  2  0  0  0
 57 58  2  0  0  0
 57123  1  0  0  0
 58124  1  0  0  0
 59 60  1  0  0  0
 59 61  1  0  0  0
 59 62  1  0  0  0
 60125  1  0  0  0
 60126  1  0  0  0
 60127  1  0  0  0
 61128  1  0  0  0
 61129  1  0  0  0
 61130  1  0  0  0
 62131  1  0  0  0
 62132  1  0  0  0
 62133  1  0  0  0
 63 65  1  0  0  0
 63134  1  0  0  0
 63135  1  0  0  0
 63136  1  0  0  0
 64137  1  0  0  0
 65138  1  0  0  0
 68 77  1  0  0  0
 71139  1  0  0  0
 71140  1  0  0  0
 71141  1  0  0  0
 71 78  1  0  0  0
 72 73  1  0  0  0
 72 74  1  0  0  0
 72142  1  0  0  0
 72143  1  0  0  0
 73 75  1  0  0  0
 73144  1  0  0  0
 73145  1  0  0  0
 74 76  1  0  0  0
 74146  1  0  0  0
 74147  1  0  0  0
 75 78  1  0  0  0
 75148  1  0  0  0
 75149  1  0  0  0
 76 79  1  0  0  0
 76150  1  0  0  0
 76151  1  0  0  0
 77 78  1  0  0  0
 77152  1  0  0  0
 77153  1  0  0  0
 78154  1  0  0  0
 79155  1  0  0  0
M  ISO  4   1 100  68 101  77 101  79 100
M  END
> <chiral flag>
0

> <version>
0

> <s_m_source_file>
/data/baiqing/PycharmProjects/Reinvent-master-3.2/result/LINK_invent/BTK/process_docking_weight1_custom_sum_contain_oxygen_bond_distance_aromatic_linkinvent_7_9_3/rearranged_h_0110.sdf

> <i_m_source_file_index>
50

> <r_mmod_Potential_Energy-OPLS-2005>
82.8735733032227

> <r_mmod_Stretch_Energy-OPLS-2005>
89.7058334350586

> <r_mmod_Bend_Energy-OPLS-2005>
147.128692626953

> <r_mmod_Torsional_Energy-OPLS-2005>
232.251052856445

> <r_mmod_Improper_Torsional_Energy-OPLS-2005>
4.62878513336182

> <r_mmod_Van_der_Waal_Energy-OPLS-2005>
114.620903015137

> <r_mmod_Electrostatic_Energy-OPLS-2005>
-356.455535888672

> <r_mmod_Solvation_Energy-OPLS-2005>
-197.010437011719

> <b_mmod_Minimization_Converged-OPLS-2005>
0

> <r_mmod_RMS_Derivative-OPLS-2005>
2.02900123596191

$$$$
51
                    3D
 Structure written by MMmdl.
173181  0  0  1  0            999 V2000
  -30.7034  -14.4574   20.6132 C   0  0  0  0  0  0
  -30.4241  -12.3160   19.4111 C   0  0  0  0  0  0
  -29.4902  -12.5116   18.1994 C   0  0  0  0  0  0
  -28.0129  -12.3666   18.6154 C   0  0  0  0  0  0
  -27.6605  -13.2030   19.8740 C   0  0  2  0  0  0
  -28.7008  -12.9713   20.9919 C   0  0  0  0  0  0
  -25.2584  -13.8147   20.5674 C   0  0  0  0  0  0
  -24.1839  -13.0434   20.9186 C   0  0  0  0  0  0
  -24.6385  -11.6898   20.8739 C   0  0  0  0  0  0
  -23.9050  -10.4288   21.0411 C   0  0  0  0  0  0
  -24.3604   -9.4202   21.9188 C   0  0  0  0  0  0
  -23.6281   -8.2236   22.0755 C   0  0  0  0  0  0
  -22.4262   -8.0276   21.3545 C   0  0  0  0  0  0
  -21.9898   -9.0250   20.4646 C   0  0  0  0  0  0
  -22.7223  -10.2130   20.3058 C   0  0  0  0  0  0
  -21.6850   -6.0730   22.5278 C   0  0  0  0  0  0
  -21.4015   -6.5637   23.8210 C   0  0  0  0  0  0
  -21.3659   -5.6791   24.9174 C   0  0  0  0  0  0
  -21.6044   -4.3054   24.7226 C   0  0  0  0  0  0
  -21.8819   -3.8143   23.4348 C   0  0  0  0  0  0
  -21.9191   -4.6958   22.3402 C   0  0  0  0  0  0
  -22.7864  -13.5241   21.1846 C   0  0  0  0  0  0
  -22.1661   -4.2143   21.0980 F   0  0  0  0  0  0
  -21.5626   -3.4538   25.7739 F   0  0  0  0  0  0
  -30.0311  -13.2873   20.4432 N   0  0  0  0  0  0
  -26.3011  -12.9310   20.3347 N   0  0  0  0  0  0
  -25.9306  -11.6475   20.5753 N   0  0  0  0  0  0
  -22.0499  -12.8237   22.0399 N   0  0  0  0  0  0
  -25.4318  -15.1860   20.4058 N   0  0  0  0  0  0
  -31.8068  -14.6816   20.1092 O   0  0  0  0  0  0
  -21.6633   -6.8870   21.4237 O   0  0  0  0  0  0
  -22.3560  -14.5553   20.6695 O   0  0  0  0  0  0
  -24.6136  -31.8677   23.2091 C   0  0  0  0  0  0
  -25.9035  -32.4819   23.8389 C   0  0  1  0  0  0
  -27.2415  -27.4351   20.1189 C   0  0  0  0  0  0
  -25.5890  -33.8619   24.2326 N   0  0  0  0  0  0
  -23.4017  -30.4889   21.5490 C   0  0  2  0  0  0
  -24.8504  -28.9479   20.1209 C   0  0  0  0  0  0
  -22.7402  -29.4660   22.4996 C   0  0  0  0  0  0
  -18.0273  -28.1377   22.8498 C   0  0  0  0  0  0
  -24.1487  -36.7311   23.2640 C   0  0  0  0  0  0
  -25.9272  -30.8374   21.3579 C   0  0  0  0  0  0
  -26.0080  -29.4697   20.7108 C   0  0  0  0  0  0
  -27.2087  -28.7267   20.6961 C   0  0  0  0  0  0
  -26.0722  -26.9272   19.5185 C   0  0  0  0  0  0
  -24.8774  -27.6756   19.5197 C   0  0  0  0  0  0
  -23.6104  -29.8133   20.1666 C   0  0  0  0  0  0
  -25.4110  -36.3113   24.0338 C   0  0  1  0  0  0
  -20.5860  -28.3664   23.1324 C   0  0  2  0  0  0
  -20.6762  -26.9402   22.5424 C   0  0  0  0  0  0
  -19.5744  -26.6387   21.5217 C   0  0  0  0  0  0
  -18.1921  -26.7926   22.1627 C   0  0  0  0  0  0
  -19.1521  -28.8836   23.2910 C   0  0  0  0  0  0
  -18.9451  -30.1438   23.8931 C   0  0  0  0  0  0
  -17.6454  -30.6587   24.0568 C   0  0  0  0  0  0
  -25.9030  -34.9476   23.5129 C   0  0  0  0  0  0
  -16.5346  -29.9092   23.6323 C   0  0  0  0  0  0
  -16.7263  -28.6505   23.0351 C   0  0  0  0  0  0
  -26.4478  -31.6594   25.0709 C   0  0  0  0  0  0
  -25.3749  -31.3686   26.1460 C   0  0  0  0  0  0
  -27.0312  -30.3040   24.6063 C   0  0  0  0  0  0
  -27.6056  -32.4311   25.7474 C   0  0  0  0  0  0
  -27.5584  -37.1810   24.8468 C   0  0  0  0  0  0
  -21.4130  -29.3033   22.3731 N   0  0  0  0  0  0
  -26.4301  -37.3791   23.9403 N   0  0  0  0  0  0
  -24.6657  -31.0784   22.0981 N   0  0  0  0  0  0
  -23.4173  -28.8215   23.3050 O   0  0  0  0  0  0
  -28.4061  -26.6977   20.0557 O   0  0  0  0  0  0
  -26.5597  -34.8930   22.4693 O   0  0  0  0  0  0
  -23.5333  -32.1423   23.7493 O   0  0  0  0  0  0
  -27.3386  -21.5478   21.0743 C   0  0  0  0  0  0
  -29.4830  -21.0057   20.4182 C   0  0  0  0  0  0
  -27.4798  -20.0382   21.3740 C   0  0  1  0  0  0
  -28.9720  -19.7224   21.1174 C   0  0  1  0  0  0
  -25.4975  -19.7405   22.9915 C   0  0  0  0  0  0
  -28.7011  -26.6943   22.5355 C   0  0  0  0  0  0
  -28.8257  -18.4213   18.9621 C   0  0  0  0  0  0
  -27.0200  -19.6627   22.7989 C   0  0  0  0  0  0
  -28.1634  -24.5083   21.3014 C   0  0  0  0  0  0
  -28.8453  -23.3984   20.4528 C   0  0  0  0  0  0
  -30.5836  -16.7183   21.7133 C   0  0  0  0  0  0
  -30.5525  -17.8223   20.6210 C   0  0  0  0  0  0
  -28.8089  -25.9225   21.2048 C   0  0  1  0  0  0
  -28.7036  -22.0648   21.0638 N   0  0  0  0  0  0
  -30.0455  -15.4089   21.3032 N   0  0  0  0  0  0
  -29.2010  -18.4200   20.3993 N   0  3  1  0  0  0
  -31.4666  -12.4283   19.1073 H   0  0  0  0  0  0
  -30.3363  -11.3010   19.8017 H   0  0  0  0  0  0
  -29.7299  -11.7883   17.4186 H   0  0  0  0  0  0
  -29.6543  -13.4978   17.7627 H   0  0  0  0  0  0
  -27.8270  -11.3100   18.8116 H   0  0  0  0  0  0
  -27.3592  -12.6400   17.7862 H   0  0  0  0  0  0
  -27.7091  -14.2523   19.5827 H   0  0  0  0  0  0
  -28.6796  -11.9296   21.3161 H   0  0  0  0  0  0
  -28.4532  -13.5518   21.8812 H   0  0  0  0  0  0
  -25.2748   -9.5677   22.4764 H   0  0  0  0  0  0
  -23.9988   -7.4629   22.7478 H   0  0  0  0  0  0
  -21.0827   -8.8769   19.8957 H   0  0  0  0  0  0
  -22.3681  -10.9670   19.6167 H   0  0  0  0  0  0
  -21.2013   -7.6146   23.9712 H   0  0  0  0  0  0
  -21.1481   -6.0524   25.9077 H   0  0  0  0  0  0
  -22.0600   -2.7606   23.2852 H   0  0  0  0  0  0
  -22.4108  -11.9893   22.4786 H   0  0  0  0  0  0
  -21.1120  -13.1271   22.2603 H   0  0  0  0  0  0
  -24.6591  -15.8364   20.4958 H   0  0  0  0  0  0
  -26.2675  -15.6105   20.0285 H   0  0  0  0  0  0
  -26.7109  -32.5545   23.1162 H   0  0  0  0  0  0
  -25.0047  -33.9782   25.0477 H   0  0  0  0  0  0
  -22.6896  -31.3045   21.4068 H   0  0  0  0  0  0
  -23.3750  -35.9644   23.3315 H   0  0  0  0  0  0
  -24.3575  -36.8913   22.2050 H   0  0  0  0  0  0
  -23.7242  -37.6519   23.6654 H   0  0  0  0  0  0
  -26.0335  -31.6020   20.5872 H   0  0  0  0  0  0
  -26.8163  -30.8954   21.9740 H   0  0  0  0  0  0
  -28.1071  -29.1429   21.1291 H   0  0  0  0  0  0
  -26.0890  -25.9520   19.0524 H   0  0  0  0  0  0
  -23.9880  -27.2669   19.0603 H   0  0  0  0  0  0
  -23.7168  -30.5843   19.4021 H   0  0  0  0  0  0
  -22.7352  -29.2293   19.8762 H   0  0  0  0  0  0
  -25.1290  -36.1979   25.0830 H   0  0  0  0  0  0
  -20.9957  -28.3238   24.1442 H   0  0  0  0  0  0
  -20.5663  -26.2275   23.3610 H   0  0  0  0  0  0
  -21.6634  -26.7444   22.1222 H   0  0  0  0  0  0
  -19.6903  -25.6301   21.1240 H   0  0  0  0  0  0
  -19.6685  -27.3202   20.6748 H   0  0  0  0  0  0
  -17.4192  -26.6679   21.4028 H   0  0  0  0  0  0
  -18.0319  -26.0065   22.9017 H   0  0  0  0  0  0
  -19.7927  -30.7239   24.2328 H   0  0  0  0  0  0
  -17.5016  -31.6275   24.5154 H   0  0  0  0  0  0
  -15.5350  -30.3006   23.7626 H   0  0  0  0  0  0
  -15.8663  -28.0830   22.7052 H   0  0  0  0  0  0
  -24.5921  -30.7038   25.7792 H   0  0  0  0  0  0
  -24.8944  -32.2835   26.4936 H   0  0  0  0  0  0
  -25.8107  -30.8835   27.0203 H   0  0  0  0  0  0
  -26.2847  -29.6789   24.1146 H   0  0  0  0  0  0
  -27.4127  -29.7284   25.4508 H   0  0  0  0  0  0
  -27.8664  -30.4364   23.9177 H   0  0  0  0  0  0
  -27.2681  -33.3598   26.2088 H   0  0  0  0  0  0
  -28.3851  -32.6884   25.0289 H   0  0  0  0  0  0
  -28.0748  -31.8412   26.5358 H   0  0  0  0  0  0
  -28.2615  -38.0097   24.7509 H   0  0  0  0  0  0
  -28.1068  -36.2627   24.6309 H   0  0  0  0  0  0
  -27.2298  -37.1476   25.8871 H   0  0  0  0  0  0
  -20.9286  -29.8751   21.6952 H   0  0  0  0  0  0
  -26.0194  -38.2872   24.1398 H   0  0  0  0  0  0
  -26.7175  -22.0741   21.8005 H   0  0  0  0  0  0
  -26.8804  -21.6858   20.0926 H   0  0  0  0  0  0
  -29.2637  -21.0048   19.3499 H   0  0  0  0  0  0
  -30.5573  -21.1483   20.5459 H   0  0  0  0  0  0
  -26.8423  -19.5034   20.6699 H   0  0  0  0  0  0
  -29.4689  -19.6616   22.0883 H   0  0  0  0  0  0
  -25.2210  -19.4733   24.0121 H   0  0  0  0  0  0
  -24.9796  -19.0537   22.3215 H   0  0  0  0  0  0
  -25.1147  -20.7434   22.8020 H   0  0  0  0  0  0
  -29.1411  -26.1227   23.3530 H   0  0  0  0  0  0
  -27.6654  -26.8984   22.8076 H   0  0  0  0  0  0
  -29.2370  -27.6419   22.4897 H   0  0  0  0  0  0
  -27.8334  -18.8364   18.7908 H   0  0  0  0  0  0
  -28.8170  -17.4019   18.5739 H   0  0  0  0  0  0
  -29.5370  -18.9910   18.3633 H   0  0  0  0  0  0
  -27.5148  -20.3057   23.5287 H   0  0  0  0  0  0
  -27.3397  -18.6454   23.0281 H   0  0  0  0  0  0
  -28.2277  -24.1971   22.3454 H   0  0  0  0  0  0
  -27.0960  -24.5594   21.0859 H   0  0  0  0  0  0
  -29.9133  -23.6121   20.3866 H   0  0  0  0  0  0
  -28.4673  -23.4115   19.4286 H   0  0  0  0  0  0
  -30.0594  -17.0553   22.6084 H   0  0  0  0  0  0
  -31.6192  -16.5728   22.0277 H   0  0  0  0  0  0
  -30.9517  -17.4074   19.6941 H   0  0  0  0  0  0
  -31.2531  -18.6144   20.8904 H   0  0  0  0  0  0
  -29.8790  -25.7664   21.0635 H   0  0  0  0  0  0
  -29.1482  -15.1359   21.6773 H   0  0  0  0  0  0
  -28.5696  -17.7660   20.8357 H   0  0  0  0  0  0
  1 25  1  0  0  0
  1 30  2  0  0  0
  1 85  1  0  0  0
  2  3  1  0  0  0
  2 25  1  0  0  0
  2 87  1  0  0  0
  2 88  1  0  0  0
  3  4  1  0  0  0
  3 89  1  0  0  0
  3 90  1  0  0  0
  4  5  1  0  0  0
  4 91  1  0  0  0
  4 92  1  0  0  0
  5  6  1  0  0  0
  5 26  1  0  0  0
  5 93  1  0  0  0
  6 25  1  0  0  0
  6 94  1  0  0  0
  6 95  1  0  0  0
  7  8  2  0  0  0
  7 26  1  0  0  0
  7 29  1  0  0  0
  8  9  1  0  0  0
  8 22  1  0  0  0
  9 10  1  0  0  0
  9 27  2  0  0  0
 10 11  2  0  0  0
 10 15  1  0  0  0
 11 12  1  0  0  0
 11 96  1  0  0  0
 12 13  2  0  0  0
 12 97  1  0  0  0
 13 14  1  0  0  0
 13 31  1  0  0  0
 14 15  2  0  0  0
 14 98  1  0  0  0
 15 99  1  0  0  0
 16 17  2  0  0  0
 16 21  1  0  0  0
 16 31  1  0  0  0
 17 18  1  0  0  0
 17100  1  0  0  0
 18 19  2  0  0  0
 18101  1  0  0  0
 19 20  1  0  0  0
 19 24  1  0  0  0
 20 21  2  0  0  0
 20102  1  0  0  0
 21 23  1  0  0  0
 22 28  1  0  0  0
 22 32  2  0  0  0
 26 27  1  0  0  0
 28103  1  0  0  0
 28104  1  0  0  0
 29105  1  0  0  0
 29106  1  0  0  0
 33 34  1  0  0  0
 33 66  1  0  0  0
 33 70  2  0  0  0
 34 36  1  0  0  0
 34 59  1  0  0  0
 34107  1  0  0  0
 35 44  2  0  0  0
 35 45  1  0  0  0
 35 68  1  0  0  0
 36 56  1  0  0  0
 36108  1  0  0  0
 37 39  1  0  0  0
 37 47  1  0  0  0
 37 66  1  0  0  0
 37109  1  0  0  0
 38 43  2  0  0  0
 38 46  1  0  0  0
 38 47  1  0  0  0
 39 64  1  0  0  0
 39 67  2  0  0  0
 40 52  1  0  0  0
 40 53  2  0  0  0
 40 58  1  0  0  0
 41110  1  0  0  0
 41111  1  0  0  0
 41112  1  0  0  0
 41 48  1  0  0  0
 42 43  1  0  0  0
 42 66  1  0  0  0
 42113  1  0  0  0
 42114  1  0  0  0
 43 44  1  0  0  0
 44115  1  0  0  0
 45 46  2  0  0  0
 45116  1  0  0  0
 46117  1  0  0  0
 47118  1  0  0  0
 47119  1  0  0  0
 48 56  1  0  0  0
 48 65  1  0  0  0
 48120  1  0  0  0
 49 50  1  0  0  0
 49 53  1  0  0  0
 49 64  1  0  0  0
 49121  1  0  0  0
 50 51  1  0  0  0
 50122  1  0  0  0
 50123  1  0  0  0
 51 52  1  0  0  0
 51124  1  0  0  0
 51125  1  0  0  0
 52126  1  0  0  0
 52127  1  0  0  0
 53 54  1  0  0  0
 54 55  2  0  0  0
 54128  1  0  0  0
 55 57  1  0  0  0
 55129  1  0  0  0
 56 69  2  0  0  0
 57 58  2  0  0  0
 57130  1  0  0  0
 58131  1  0  0  0
 59 60  1  0  0  0
 59 61  1  0  0  0
 59 62  1  0  0  0
 60132  1  0  0  0
 60133  1  0  0  0
 60134  1  0  0  0
 61135  1  0  0  0
 61136  1  0  0  0
 61137  1  0  0  0
 62138  1  0  0  0
 62139  1  0  0  0
 62140  1  0  0  0
 63 65  1  0  0  0
 63141  1  0  0  0
 63142  1  0  0  0
 63143  1  0  0  0
 64144  1  0  0  0
 65145  1  0  0  0
 68 83  1  0  0  0
 71 73  1  0  0  0
 71 84  1  0  0  0
 71146  1  0  0  0
 71147  1  0  0  0
 72 84  1  0  0  0
 72148  1  0  0  0
 72149  1  0  0  0
 72 74  1  0  0  0
 73 74  1  0  0  0
 73 78  1  0  0  0
 73150  1  0  0  0
 74 86  1  0  0  0
 74151  1  0  0  0
 75 78  1  0  0  0
 75152  1  0  0  0
 75153  1  0  0  0
 75154  1  0  0  0
 76155  1  0  0  0
 76156  1  0  0  0
 76157  1  0  0  0
 76 83  1  0  0  0
 77158  1  0  0  0
 77159  1  0  0  0
 77160  1  0  0  0
 77 86  1  0  0  0
 78161  1  0  0  0
 78162  1  0  0  0
 79 80  1  0  0  0
 79 83  1  0  0  0
 79163  1  0  0  0
 79164  1  0  0  0
 80 84  1  0  0  0
 80165  1  0  0  0
 80166  1  0  0  0
 81 82  1  0  0  0
 81 85  1  0  0  0
 81167  1  0  0  0
 81168  1  0  0  0
 82 86  1  0  0  0
 82169  1  0  0  0
 82170  1  0  0  0
 83171  1  0  0  0
 85172  1  0  0  0
 86173  1  0  0  0
M  CHG  1  86   1
M  ISO  4   1 100  68 101  83 101  85 100
M  END
> <chiral flag>
0

> <version>
0

> <s_m_source_file>
/data/baiqing/PycharmProjects/Reinvent-master-3.2/result/LINK_invent/BTK/process_docking_weight1_custom_sum_contain_oxygen_bond_distance_aromatic_linkinvent_7_9_3/rearranged_h_0110.sdf

> <i_m_source_file_index>
51

> <r_mmod_Potential_Energy-OPLS-2005>
-34.7092132568359

> <r_mmod_Stretch_Energy-OPLS-2005>
40.6339340209961

> <r_mmod_Bend_Energy-OPLS-2005>
135.079971313477

> <r_mmod_Torsional_Energy-OPLS-2005>
344.871612548828

> <r_mmod_Improper_Torsional_Energy-OPLS-2005>
2.8622727394104

> <r_mmod_Van_der_Waal_Energy-OPLS-2005>
125.757278442383

> <r_mmod_Electrostatic_Energy-OPLS-2005>
-249.500991821289

> <r_mmod_Solvation_Energy-OPLS-2005>
-444.523315429688

> <b_mmod_Minimization_Converged-OPLS-2005>
0

> <r_mmod_RMS_Derivative-OPLS-2005>
0.804701328277588

$$$$
52
                    3D
 Structure written by MMmdl.
162170  0  0  1  0            999 V2000
  -30.6130  -14.7658   20.4552 C   0  0  0  0  0  0
  -30.4294  -12.4686   19.4740 C   0  0  0  0  0  0
  -29.5104  -12.5094   18.2338 C   0  0  0  0  0  0
  -28.0383  -12.3281   18.6485 C   0  0  0  0  0  0
  -27.6395  -13.2349   19.8446 C   0  0  2  0  0  0
  -28.6831  -13.1956   20.9797 C   0  0  0  0  0  0
  -25.2535  -13.8226   20.5727 C   0  0  0  0  0  0
  -24.1828  -13.0463   20.9230 C   0  0  0  0  0  0
  -24.6414  -11.6938   20.8752 C   0  0  0  0  0  0
  -23.9081  -10.4313   21.0389 C   0  0  0  0  0  0
  -24.3630   -9.4226   21.9174 C   0  0  0  0  0  0
  -23.6314   -8.2264   22.0738 C   0  0  0  0  0  0
  -22.4303   -8.0289   21.3533 C   0  0  0  0  0  0
  -21.9935   -9.0255   20.4633 C   0  0  0  0  0  0
  -22.7248  -10.2144   20.3038 C   0  0  0  0  0  0
  -21.6863   -6.0744   22.5276 C   0  0  0  0  0  0
  -21.4020   -6.5644   23.8212 C   0  0  0  0  0  0
  -21.3669   -5.6793   24.9171 C   0  0  0  0  0  0
  -21.6052   -4.3056   24.7209 C   0  0  0  0  0  0
  -21.8823   -3.8145   23.4323 C   0  0  0  0  0  0
  -21.9206   -4.6976   22.3393 C   0  0  0  0  0  0
  -22.7846  -13.5242   21.1872 C   0  0  0  0  0  0
  -22.1668   -4.2162   21.0967 F   0  0  0  0  0  0
  -21.5626   -3.4535   25.7717 F   0  0  0  0  0  0
  -29.9774  -13.5425   20.3889 N   0  0  0  0  0  0
  -26.2942  -12.9425   20.3278 N   0  0  0  0  0  0
  -25.9337  -11.6563   20.5754 N   0  0  0  0  0  0
  -22.0482  -12.8220   22.0411 N   0  0  0  0  0  0
  -25.4292  -15.1954   20.4180 N   0  0  0  0  0  0
  -31.8132  -14.8359   20.1838 O   0  0  0  0  0  0
  -21.6652   -6.8886   21.4234 O   0  0  0  0  0  0
  -22.3543  -14.5542   20.6696 O   0  0  0  0  0  0
  -24.6310  -31.8552   23.1936 C   0  0  0  0  0  0
  -25.9129  -32.4743   23.8308 C   0  0  1  0  0  0
  -27.2161  -27.2530   20.1299 C   0  0  0  0  0  0
  -25.5925  -33.8550   24.2228 N   0  0  0  0  0  0
  -23.4286  -30.4740   21.5406 C   0  0  2  0  0  0
  -24.8724  -28.9125   20.1163 C   0  0  0  0  0  0
  -22.7510  -29.4603   22.4925 C   0  0  0  0  0  0
  -18.0300  -28.1411   22.8467 C   0  0  0  0  0  0
  -24.1495  -36.7286   23.2640 C   0  0  0  0  0  0
  -25.9749  -30.7635   21.3731 C   0  0  0  0  0  0
  -26.0475  -29.3841   20.7171 C   0  0  0  0  0  0
  -27.2257  -28.5680   20.7064 C   0  0  0  0  0  0
  -26.0210  -26.8479   19.5001 C   0  0  0  0  0  0
  -24.8629  -27.6518   19.4989 C   0  0  0  0  0  0
  -23.6441  -29.8016   20.1603 C   0  0  0  0  0  0
  -25.4127  -36.3071   24.0318 C   0  0  1  0  0  0
  -20.5900  -28.3727   23.1263 C   0  0  2  0  0  0
  -20.6784  -26.9443   22.5407 C   0  0  0  0  0  0
  -19.5767  -26.6391   21.5209 C   0  0  0  0  0  0
  -18.1948  -26.7946   22.1618 C   0  0  0  0  0  0
  -19.1555  -28.8890   23.2850 C   0  0  0  0  0  0
  -18.9475  -30.1486   23.8862 C   0  0  0  0  0  0
  -17.6471  -30.6593   24.0574 C   0  0  0  0  0  0
  -25.9071  -34.9437   23.5088 C   0  0  0  0  0  0
  -16.5359  -29.9092   23.6339 C   0  0  0  0  0  0
  -16.7283  -28.6529   23.0320 C   0  0  0  0  0  0
  -26.4488  -31.6569   25.0705 C   0  0  0  0  0  0
  -25.3687  -31.3718   26.1407 C   0  0  0  0  0  0
  -27.0337  -30.2980   24.6197 C   0  0  0  0  0  0
  -27.6045  -32.4314   25.7470 C   0  0  0  0  0  0
  -27.5589  -37.1796   24.8468 C   0  0  0  0  0  0
  -21.4224  -29.3051   22.3644 N   0  0  0  0  0  0
  -26.4308  -37.3765   23.9397 N   0  0  0  0  0  0
  -24.6975  -31.0499   22.0912 N   0  0  0  0  0  0
  -23.4209  -28.8161   23.3039 O   0  0  0  0  0  0
  -28.3094  -26.3553   20.1375 O   0  0  0  0  0  0
  -26.5669  -34.8914   22.4667 O   0  0  0  0  0  0
  -23.5456  -32.1395   23.7217 O   0  0  0  0  0  0
  -30.1208  -17.1220   19.5810 C   0  0  0  0  0  0
  -29.8143  -16.9714   21.5535 C   0  0  0  0  0  0
  -29.2524  -18.0065   20.5219 C   0  0  0  0  0  0
  -26.8374  -19.6924   19.0808 C   0  0  0  0  0  0
  -28.7865  -19.9079   17.4474 C   0  0  0  0  0  0
  -28.7517  -23.6235   19.9145 C   0  0  0  0  0  0
  -28.6815  -22.1492   20.6332 C   0  0  0  0  0  0
  -28.0970  -24.9396   20.6172 C   0  0  0  0  0  0
  -28.1157  -20.4632   18.7135 C   0  0  0  0  0  0
  -29.1094  -20.7518   19.8811 C   0  0  2  0  0  0
  -29.8374  -15.9319   20.4698 N   0  0  0  0  0  0
  -29.4910  -19.5293   20.7760 N   0  3  0  0  0  0
  -31.4696  -12.5935   19.1699 H   0  0  0  0  0  0
  -30.3722  -11.4961   19.9664 H   0  0  0  0  0  0
  -29.7997  -11.7326   17.5254 H   0  0  0  0  0  0
  -29.6347  -13.4594   17.7131 H   0  0  0  0  0  0
  -27.9051  -11.2824   18.9265 H   0  0  0  0  0  0
  -27.3798  -12.5046   17.7959 H   0  0  0  0  0  0
  -27.6275  -14.2530   19.4565 H   0  0  0  0  0  0
  -28.7209  -12.2130   21.4533 H   0  0  0  0  0  0
  -28.4175  -13.9101   21.7612 H   0  0  0  0  0  0
  -25.2766   -9.5727   22.4754 H   0  0  0  0  0  0
  -24.0035   -7.4662   22.7453 H   0  0  0  0  0  0
  -21.0866   -8.8762   19.8943 H   0  0  0  0  0  0
  -22.3687  -10.9681   19.6148 H   0  0  0  0  0  0
  -21.2000   -7.6151   23.9728 H   0  0  0  0  0  0
  -21.1497   -6.0508   25.9084 H   0  0  0  0  0  0
  -22.0597   -2.7611   23.2814 H   0  0  0  0  0  0
  -22.4069  -11.9879   22.4821 H   0  0  0  0  0  0
  -21.1092  -13.1244   22.2550 H   0  0  0  0  0  0
  -24.6738  -15.8613   20.5333 H   0  0  0  0  0  0
  -26.2956  -15.6264   20.1191 H   0  0  0  0  0  0
  -26.7194  -32.5381   23.1051 H   0  0  0  0  0  0
  -25.0018  -33.9693   25.0337 H   0  0  0  0  0  0
  -22.7265  -31.2965   21.3905 H   0  0  0  0  0  0
  -23.3757  -35.9620   23.3304 H   0  0  0  0  0  0
  -24.3590  -36.8910   22.2056 H   0  0  0  0  0  0
  -23.7242  -37.6479   23.6675 H   0  0  0  0  0  0
  -26.1167  -31.5218   20.6031 H   0  0  0  0  0  0
  -26.8512  -30.8146   22.0077 H   0  0  0  0  0  0
  -28.1302  -28.9258   21.1773 H   0  0  0  0  0  0
  -25.9692  -25.8837   19.0142 H   0  0  0  0  0  0
  -23.9621  -27.2841   19.0263 H   0  0  0  0  0  0
  -23.7656  -30.5732   19.3991 H   0  0  0  0  0  0
  -22.7611  -29.2339   19.8591 H   0  0  0  0  0  0
  -25.1301  -36.1932   25.0811 H   0  0  0  0  0  0
  -20.9998  -28.3304   24.1386 H   0  0  0  0  0  0
  -20.5696  -26.2340   23.3611 H   0  0  0  0  0  0
  -21.6642  -26.7466   22.1191 H   0  0  0  0  0  0
  -19.6932  -25.6300   21.1243 H   0  0  0  0  0  0
  -19.6699  -27.3195   20.6730 H   0  0  0  0  0  0
  -17.4211  -26.6689   21.4016 H   0  0  0  0  0  0
  -18.0355  -26.0097   22.9031 H   0  0  0  0  0  0
  -19.7951  -30.7317   24.2192 H   0  0  0  0  0  0
  -17.5022  -31.6258   24.5204 H   0  0  0  0  0  0
  -15.5361  -30.2978   23.7674 H   0  0  0  0  0  0
  -15.8690  -28.0845   22.7012 H   0  0  0  0  0  0
  -24.5872  -30.7072   25.7699 H   0  0  0  0  0  0
  -24.8869  -32.2886   26.4812 H   0  0  0  0  0  0
  -25.7978  -30.8885   27.0194 H   0  0  0  0  0  0
  -26.2918  -29.6712   24.1235 H   0  0  0  0  0  0
  -27.4023  -29.7258   25.4720 H   0  0  0  0  0  0
  -27.8793  -30.4237   23.9434 H   0  0  0  0  0  0
  -27.2658  -33.3624   26.2025 H   0  0  0  0  0  0
  -28.3852  -32.6856   25.0289 H   0  0  0  0  0  0
  -28.0720  -31.8457   26.5391 H   0  0  0  0  0  0
  -28.2599  -38.0097   24.7510 H   0  0  0  0  0  0
  -28.1093  -36.2627   24.6307 H   0  0  0  0  0  0
  -27.2312  -37.1446   25.8872 H   0  0  0  0  0  0
  -20.9445  -29.8764   21.6817 H   0  0  0  0  0  0
  -26.0193  -38.2846   24.1378 H   0  0  0  0  0  0
  -31.1741  -17.4098   19.5312 H   0  0  0  0  0  0
  -29.7161  -17.0165   18.5748 H   0  0  0  0  0  0
  -29.1298  -16.7532   22.3754 H   0  0  0  0  0  0
  -30.8039  -17.2200   21.9499 H   0  0  0  0  0  0
  -28.1906  -17.8074   20.3975 H   0  0  0  0  0  0
  -26.0066  -20.0220   18.4559 H   0  0  0  0  0  0
  -26.5427  -19.8497   20.1179 H   0  0  0  0  0  0
  -26.9377  -18.6237   18.8957 H   0  0  0  0  0  0
  -28.0437  -19.6586   16.6883 H   0  0  0  0  0  0
  -29.3688  -19.0122   17.6427 H   0  0  0  0  0  0
  -29.4538  -20.6479   17.0040 H   0  0  0  0  0  0
  -28.3035  -23.5479   18.9240 H   0  0  0  0  0  0
  -29.8041  -23.8438   19.7280 H   0  0  0  0  0  0
  -27.6545  -22.0173   20.9750 H   0  0  0  0  0  0
  -29.2634  -22.2269   21.5515 H   0  0  0  0  0  0
  -28.4655  -24.9569   21.6435 H   0  0  0  0  0  0
  -27.0295  -24.7447   20.7245 H   0  0  0  0  0  0
  -27.7491  -21.4367   18.3940 H   0  0  0  0  0  0
  -30.0554  -20.9975   19.3964 H   0  0  0  0  0  0
  -30.4704  -19.6460   20.9812 H   0  0  0  0  0  0
  -29.0173  -19.7104   21.6457 H   0  0  0  0  0  0
  1 25  1  0  0  0
  1 30  2  0  0  0
  1 81  1  0  0  0
  2  3  1  0  0  0
  2 25  1  0  0  0
  2 83  1  0  0  0
  2 84  1  0  0  0
  3  4  1  0  0  0
  3 85  1  0  0  0
  3 86  1  0  0  0
  4  5  1  0  0  0
  4 87  1  0  0  0
  4 88  1  0  0  0
  5  6  1  0  0  0
  5 26  1  0  0  0
  5 89  1  0  0  0
  6 25  1  0  0  0
  6 90  1  0  0  0
  6 91  1  0  0  0
  7  8  2  0  0  0
  7 26  1  0  0  0
  7 29  1  0  0  0
  8  9  1  0  0  0
  8 22  1  0  0  0
  9 10  1  0  0  0
  9 27  2  0  0  0
 10 11  2  0  0  0
 10 15  1  0  0  0
 11 12  1  0  0  0
 11 92  1  0  0  0
 12 13  2  0  0  0
 12 93  1  0  0  0
 13 14  1  0  0  0
 13 31  1  0  0  0
 14 15  2  0  0  0
 14 94  1  0  0  0
 15 95  1  0  0  0
 16 17  2  0  0  0
 16 21  1  0  0  0
 16 31  1  0  0  0
 17 18  1  0  0  0
 17 96  1  0  0  0
 18 19  2  0  0  0
 18 97  1  0  0  0
 19 20  1  0  0  0
 19 24  1  0  0  0
 20 21  2  0  0  0
 20 98  1  0  0  0
 21 23  1  0  0  0
 22 28  1  0  0  0
 22 32  2  0  0  0
 26 27  1  0  0  0
 28 99  1  0  0  0
 28100  1  0  0  0
 29101  1  0  0  0
 29102  1  0  0  0
 33 34  1  0  0  0
 33 66  1  0  0  0
 33 70  2  0  0  0
 34 36  1  0  0  0
 34 59  1  0  0  0
 34103  1  0  0  0
 35 44  2  0  0  0
 35 45  1  0  0  0
 35 68  1  0  0  0
 36 56  1  0  0  0
 36104  1  0  0  0
 37 39  1  0  0  0
 37 47  1  0  0  0
 37 66  1  0  0  0
 37105  1  0  0  0
 38 43  2  0  0  0
 38 46  1  0  0  0
 38 47  1  0  0  0
 39 64  1  0  0  0
 39 67  2  0  0  0
 40 52  1  0  0  0
 40 53  2  0  0  0
 40 58  1  0  0  0
 41106  1  0  0  0
 41107  1  0  0  0
 41108  1  0  0  0
 41 48  1  0  0  0
 42 43  1  0  0  0
 42 66  1  0  0  0
 42109  1  0  0  0
 42110  1  0  0  0
 43 44  1  0  0  0
 44111  1  0  0  0
 45 46  2  0  0  0
 45112  1  0  0  0
 46113  1  0  0  0
 47114  1  0  0  0
 47115  1  0  0  0
 48 56  1  0  0  0
 48 65  1  0  0  0
 48116  1  0  0  0
 49 50  1  0  0  0
 49 53  1  0  0  0
 49 64  1  0  0  0
 49117  1  0  0  0
 50 51  1  0  0  0
 50118  1  0  0  0
 50119  1  0  0  0
 51 52  1  0  0  0
 51120  1  0  0  0
 51121  1  0  0  0
 52122  1  0  0  0
 52123  1  0  0  0
 53 54  1  0  0  0
 54 55  2  0  0  0
 54124  1  0  0  0
 55 57  1  0  0  0
 55125  1  0  0  0
 56 69  2  0  0  0
 57 58  2  0  0  0
 57126  1  0  0  0
 58127  1  0  0  0
 59 60  1  0  0  0
 59 61  1  0  0  0
 59 62  1  0  0  0
 60128  1  0  0  0
 60129  1  0  0  0
 60130  1  0  0  0
 61131  1  0  0  0
 61132  1  0  0  0
 61133  1  0  0  0
 62134  1  0  0  0
 62135  1  0  0  0
 62136  1  0  0  0
 63 65  1  0  0  0
 63137  1  0  0  0
 63138  1  0  0  0
 63139  1  0  0  0
 64140  1  0  0  0
 65141  1  0  0  0
 68 78  1  0  0  0
 71 73  1  0  0  0
 71 81  1  0  0  0
 71142  1  0  0  0
 71143  1  0  0  0
 72 73  1  0  0  0
 72 81  1  0  0  0
 72144  1  0  0  0
 72145  1  0  0  0
 73 82  1  0  0  0
 73146  1  0  0  0
 74147  1  0  0  0
 74148  1  0  0  0
 74149  1  0  0  0
 74 79  1  0  0  0
 75 79  1  0  0  0
 75150  1  0  0  0
 75151  1  0  0  0
 75152  1  0  0  0
 76 77  1  0  0  0
 76 78  1  0  0  0
 76153  1  0  0  0
 76154  1  0  0  0
 77155  1  0  0  0
 77156  1  0  0  0
 77 80  1  0  0  0
 78157  1  0  0  0
 78158  1  0  0  0
 79 80  1  0  0  0
 79159  1  0  0  0
 80 82  1  0  0  0
 80160  1  0  0  0
 82161  1  0  0  0
 82162  1  0  0  0
M  CHG  1  82   1
M  ISO  4   1 100  68 101  78 101  81 100
M  END
> <chiral flag>
0

> <version>
0

> <s_m_source_file>
/data/baiqing/PycharmProjects/Reinvent-master-3.2/result/LINK_invent/BTK/process_docking_weight1_custom_sum_contain_oxygen_bond_distance_aromatic_linkinvent_7_9_3/rearranged_h_0110.sdf

> <i_m_source_file_index>
52

> <r_mmod_Potential_Energy-OPLS-2005>
224.359588623047

> <r_mmod_Stretch_Energy-OPLS-2005>
144.353240966797

> <r_mmod_Bend_Energy-OPLS-2005>
230.691711425781

> <r_mmod_Torsional_Energy-OPLS-2005>
334.665740966797

> <r_mmod_Improper_Torsional_Energy-OPLS-2005>
16.7417697906494

> <r_mmod_Van_der_Waal_Energy-OPLS-2005>
116.72013092041

> <r_mmod_Electrostatic_Energy-OPLS-2005>
-240.500244140625

> <r_mmod_Solvation_Energy-OPLS-2005>
-471.348297119141

> <b_mmod_Minimization_Converged-OPLS-2005>
0

> <r_mmod_RMS_Derivative-OPLS-2005>
3.0138726234436

$$$$
53
                    3D
 Structure written by MMmdl.
151159  0  0  1  0            999 V2000
  -30.3953  -15.3589   20.3530 C   0  0  0  0  0  0
  -30.4372  -12.8691   19.5486 C   0  0  0  0  0  0
  -29.5451  -12.6029   18.3068 C   0  0  0  0  0  0
  -28.0965  -12.3076   18.7290 C   0  0  0  0  0  0
  -27.6102  -13.2857   19.8263 C   0  0  2  0  0  0
  -28.6357  -13.4909   20.9641 C   0  0  0  0  0  0
  -25.2372  -13.8263   20.5750 C   0  0  0  0  0  0
  -24.1735  -13.0440   20.9262 C   0  0  0  0  0  0
  -24.6407  -11.6943   20.8762 C   0  0  0  0  0  0
  -23.9105  -10.4298   21.0402 C   0  0  0  0  0  0
  -24.3648   -9.4210   21.9178 C   0  0  0  0  0  0
  -23.6314   -8.2247   22.0751 C   0  0  0  0  0  0
  -22.4292   -8.0289   21.3546 C   0  0  0  0  0  0
  -21.9935   -9.0265   20.4647 C   0  0  0  0  0  0
  -22.7274  -10.2140   20.3053 C   0  0  0  0  0  0
  -21.6859   -6.0743   22.5281 C   0  0  0  0  0  0
  -21.4019   -6.5643   23.8215 C   0  0  0  0  0  0
  -21.3662   -5.6794   24.9177 C   0  0  0  0  0  0
  -21.6042   -4.3056   24.7224 C   0  0  0  0  0  0
  -21.8818   -3.8151   23.4344 C   0  0  0  0  0  0
  -21.9193   -4.6970   22.3402 C   0  0  0  0  0  0
  -22.7751  -13.5185   21.1907 C   0  0  0  0  0  0
  -22.1659   -4.2155   21.0980 F   0  0  0  0  0  0
  -21.5630   -3.4539   25.7735 F   0  0  0  0  0  0
  -29.8627  -14.0250   20.3460 N   0  0  0  0  0  0
  -26.2810  -12.9558   20.3226 N   0  0  0  0  0  0
  -25.9348  -11.6653   20.5715 N   0  0  0  0  0  0
  -22.0409  -12.8170   22.0463 N   0  0  0  0  0  0
  -25.3990  -15.2001   20.4190 N   0  0  0  0  0  0
  -31.6076  -15.3551   20.0826 O   0  0  0  0  0  0
  -21.6648   -6.8890   21.4245 O   0  0  0  0  0  0
  -22.3430  -14.5487   20.6748 O   0  0  0  0  0  0
  -24.6681  -31.8164   23.1647 C   0  0  0  0  0  0
  -25.9335  -32.4550   23.8136 C   0  0  1  0  0  0
  -27.2244  -26.8644   20.1917 C   0  0  0  0  0  0
  -25.5978  -33.8370   24.2037 N   0  0  0  0  0  0
  -23.4869  -30.4244   21.5144 C   0  0  2  0  0  0
  -24.9434  -28.7990   20.1092 C   0  0  0  0  0  0
  -22.7696  -29.4398   22.4756 C   0  0  0  0  0  0
  -18.0326  -28.1410   22.8463 C   0  0  0  0  0  0
  -24.1494  -36.7187   23.2649 C   0  0  0  0  0  0
  -26.0588  -30.6011   21.4064 C   0  0  0  0  0  0
  -26.1259  -29.1845   20.7514 C   0  0  0  0  0  0
  -27.2548  -28.2383   20.7694 C   0  0  0  0  0  0
  -26.0162  -26.6519   19.4863 C   0  0  0  0  0  0
  -24.9182  -27.5555   19.4553 C   0  0  0  0  0  0
  -23.7310  -29.7331   20.1429 C   0  0  0  0  0  0
  -25.4138  -36.2946   24.0296 C   0  0  1  0  0  0
  -20.5955  -28.3758   23.1174 C   0  0  2  0  0  0
  -20.6797  -26.9432   22.5403 C   0  0  0  0  0  0
  -19.5772  -26.6374   21.5213 C   0  0  0  0  0  0
  -18.1955  -26.7942   22.1621 C   0  0  0  0  0  0
  -19.1590  -28.8906   23.2804 C   0  0  0  0  0  0
  -18.9498  -30.1493   23.8843 C   0  0  0  0  0  0
  -17.6491  -30.6598   24.0553 C   0  0  0  0  0  0
  -25.9107  -34.9330   23.4994 C   0  0  0  0  0  0
  -16.5380  -29.9083   23.6347 C   0  0  0  0  0  0
  -16.7308  -28.6505   23.0366 C   0  0  0  0  0  0
  -26.4567  -31.6527   25.0696 C   0  0  0  0  0  0
  -25.3676  -31.3797   26.1342 C   0  0  0  0  0  0
  -27.0481  -30.2886   24.6487 C   0  0  0  0  0  0
  -27.6047  -32.4354   25.7500 C   0  0  0  0  0  0
  -27.5569  -37.1748   24.8465 C   0  0  0  0  0  0
  -21.4358  -29.3033   22.3511 N   0  0  0  0  0  0
  -26.4276  -37.3690   23.9410 N   0  0  0  0  0  0
  -24.7596  -30.9763   22.0816 N   0  0  0  0  0  0
  -23.4215  -28.7978   23.3027 O   0  0  0  0  0  0
  -28.2133  -25.7292   20.3251 O   0  0  0  0  0  0
  -26.5730  -34.8879   22.4598 O   0  0  0  0  0  0
  -23.5736  -32.1164   23.6702 O   0  0  0  0  0  0
  -30.1386  -20.8812   19.0234 C   0  0  0  0  0  0
  -30.6080  -18.5353   19.1147 C   0  0  0  0  0  0
  -29.2149  -20.8879   20.0941 C   0  0  0  0  0  0
  -29.7248  -18.2375   20.1806 C   0  0  0  0  0  0
  -28.6385  -24.1023   18.4817 C   0  0  0  0  0  0
  -28.6786  -22.4855   20.6764 C   0  0  1  0  0  0
  -28.1371  -24.0904   19.9282 C   0  0  1  0  0  0
  -30.7944  -19.7733   18.5648 N   0  0  0  0  0  0
  -29.0478  -19.5003   20.6397 N   0  0  0  0  0  0
  -29.6242  -16.6377   20.5398 N   0  0  0  0  0  0
  -27.7597  -22.1848   21.7859 N   0  3  0  0  0  0
  -31.4547  -13.0793   19.2168 H   0  0  0  0  0  0
  -30.5175  -11.9719   20.1649 H   0  0  0  0  0  0
  -29.9441  -11.7741   17.7207 H   0  0  0  0  0  0
  -29.5636  -13.4779   17.6553 H   0  0  0  0  0  0
  -28.0650  -11.2863   19.1101 H   0  0  0  0  0  0
  -27.4315  -12.3332   17.8648 H   0  0  0  0  0  0
  -27.5163  -14.2459   19.3177 H   0  0  0  0  0  0
  -28.8182  -12.5647   21.5112 H   0  0  0  0  0  0
  -28.2538  -14.2086   21.6918 H   0  0  0  0  0  0
  -25.2787   -9.5683   22.4763 H   0  0  0  0  0  0
  -24.0018   -7.4637   22.7473 H   0  0  0  0  0  0
  -21.0861   -8.8796   19.8958 H   0  0  0  0  0  0
  -22.3728  -10.9685   19.6170 H   0  0  0  0  0  0
  -21.2012   -7.6151   23.9722 H   0  0  0  0  0  0
  -21.1484   -6.0522   25.9080 H   0  0  0  0  0  0
  -22.0594   -2.7613   23.2841 H   0  0  0  0  0  0
  -22.4035  -11.9840   22.4857 H   0  0  0  0  0  0
  -21.1019  -13.1179   22.2660 H   0  0  0  0  0  0
  -24.6236  -15.8455   20.5259 H   0  0  0  0  0  0
  -26.2342  -15.6433   20.0601 H   0  0  0  0  0  0
  -26.7407  -32.5068   23.0849 H   0  0  0  0  0  0
  -25.0058  -33.9437   25.0142 H   0  0  0  0  0  0
  -22.8035  -31.2574   21.3374 H   0  0  0  0  0  0
  -23.3774  -35.9498   23.3274 H   0  0  0  0  0  0
  -24.3567  -36.8874   22.2070 H   0  0  0  0  0  0
  -23.7233  -37.6355   23.6733 H   0  0  0  0  0  0
  -26.2485  -31.3386   20.6252 H   0  0  0  0  0  0
  -26.9153  -30.6592   22.0663 H   0  0  0  0  0  0
  -28.1437  -28.5299   21.3112 H   0  0  0  0  0  0
  -25.8764  -25.7065   18.9839 H   0  0  0  0  0  0
  -24.0219  -27.2557   18.9294 H   0  0  0  0  0  0
  -23.8898  -30.4988   19.3828 H   0  0  0  0  0  0
  -22.8400  -29.1889   19.8247 H   0  0  0  0  0  0
  -25.1340  -36.1730   25.0786 H   0  0  0  0  0  0
  -21.0042  -28.3369   24.1298 H   0  0  0  0  0  0
  -20.5662  -26.2378   23.3649 H   0  0  0  0  0  0
  -21.6659  -26.7390   22.1216 H   0  0  0  0  0  0
  -19.6927  -25.6271   21.1274 H   0  0  0  0  0  0
  -19.6712  -27.3157   20.6720 H   0  0  0  0  0  0
  -17.4221  -26.6683   21.4027 H   0  0  0  0  0  0
  -18.0350  -26.0096   22.9030 H   0  0  0  0  0  0
  -19.7974  -30.7323   24.2190 H   0  0  0  0  0  0
  -17.5043  -31.6273   24.5162 H   0  0  0  0  0  0
  -15.5378  -30.2966   23.7705 H   0  0  0  0  0  0
  -15.8708  -28.0803   22.7114 H   0  0  0  0  0  0
  -24.5866  -30.7143   25.7640 H   0  0  0  0  0  0
  -24.8859  -32.3007   26.4636 H   0  0  0  0  0  0
  -25.7890  -30.9040   27.0207 H   0  0  0  0  0  0
  -26.3169  -29.6537   24.1474 H   0  0  0  0  0  0
  -27.3962  -29.7283   25.5175 H   0  0  0  0  0  0
  -27.9129  -30.4053   23.9954 H   0  0  0  0  0  0
  -27.2605  -33.3700   26.1941 H   0  0  0  0  0  0
  -28.3926  -32.6845   25.0379 H   0  0  0  0  0  0
  -28.0643  -31.8576   26.5529 H   0  0  0  0  0  0
  -28.2561  -38.0068   24.7523 H   0  0  0  0  0  0
  -28.1092  -36.2595   24.6281 H   0  0  0  0  0  0
  -27.2287  -37.1372   25.8868 H   0  0  0  0  0  0
  -20.9626  -29.8710   21.6619 H   0  0  0  0  0  0
  -26.0119  -38.2743   24.1427 H   0  0  0  0  0  0
  -30.4131  -21.8093   18.5441 H   0  0  0  0  0  0
  -31.1716  -17.7404   18.6488 H   0  0  0  0  0  0
  -28.4021  -23.1667   17.9754 H   0  0  0  0  0  0
  -29.7182  -24.2434   18.4469 H   0  0  0  0  0  0
  -28.1776  -24.9083   17.9113 H   0  0  0  0  0  0
  -29.6016  -22.7987   21.1654 H   0  0  0  0  0  0
  -27.0626  -23.9367   19.8330 H   0  0  0  0  0  0
  -28.7245  -16.4195   20.9383 H   0  0  0  0  0  0
  -26.8602  -21.9086   21.4352 H   0  0  0  0  0  0
  -27.6464  -22.9824   22.3858 H   0  0  0  0  0  0
  -28.1297  -21.4236   22.3268 H   0  0  0  0  0  0
  1 25  1  0  0  0
  1 30  2  0  0  0
  1 80  1  0  0  0
  2  3  1  0  0  0
  2 25  1  0  0  0
  2 82  1  0  0  0
  2 83  1  0  0  0
  3  4  1  0  0  0
  3 84  1  0  0  0
  3 85  1  0  0  0
  4  5  1  0  0  0
  4 86  1  0  0  0
  4 87  1  0  0  0
  5  6  1  0  0  0
  5 26  1  0  0  0
  5 88  1  0  0  0
  6 25  1  0  0  0
  6 89  1  0  0  0
  6 90  1  0  0  0
  7  8  2  0  0  0
  7 26  1  0  0  0
  7 29  1  0  0  0
  8  9  1  0  0  0
  8 22  1  0  0  0
  9 10  1  0  0  0
  9 27  2  0  0  0
 10 11  2  0  0  0
 10 15  1  0  0  0
 11 12  1  0  0  0
 11 91  1  0  0  0
 12 13  2  0  0  0
 12 92  1  0  0  0
 13 14  1  0  0  0
 13 31  1  0  0  0
 14 15  2  0  0  0
 14 93  1  0  0  0
 15 94  1  0  0  0
 16 17  2  0  0  0
 16 21  1  0  0  0
 16 31  1  0  0  0
 17 18  1  0  0  0
 17 95  1  0  0  0
 18 19  2  0  0  0
 18 96  1  0  0  0
 19 20  1  0  0  0
 19 24  1  0  0  0
 20 21  2  0  0  0
 20 97  1  0  0  0
 21 23  1  0  0  0
 22 28  1  0  0  0
 22 32  2  0  0  0
 26 27  1  0  0  0
 28 98  1  0  0  0
 28 99  1  0  0  0
 29100  1  0  0  0
 29101  1  0  0  0
 33 34  1  0  0  0
 33 66  1  0  0  0
 33 70  2  0  0  0
 34 36  1  0  0  0
 34 59  1  0  0  0
 34102  1  0  0  0
 35 44  2  0  0  0
 35 45  1  0  0  0
 35 68  1  0  0  0
 36 56  1  0  0  0
 36103  1  0  0  0
 37 39  1  0  0  0
 37 47  1  0  0  0
 37 66  1  0  0  0
 37104  1  0  0  0
 38 43  2  0  0  0
 38 46  1  0  0  0
 38 47  1  0  0  0
 39 64  1  0  0  0
 39 67  2  0  0  0
 40 52  1  0  0  0
 40 53  2  0  0  0
 40 58  1  0  0  0
 41105  1  0  0  0
 41106  1  0  0  0
 41107  1  0  0  0
 41 48  1  0  0  0
 42 43  1  0  0  0
 42 66  1  0  0  0
 42108  1  0  0  0
 42109  1  0  0  0
 43 44  1  0  0  0
 44110  1  0  0  0
 45 46  2  0  0  0
 45111  1  0  0  0
 46112  1  0  0  0
 47113  1  0  0  0
 47114  1  0  0  0
 48 56  1  0  0  0
 48 65  1  0  0  0
 48115  1  0  0  0
 49 50  1  0  0  0
 49 53  1  0  0  0
 49 64  1  0  0  0
 49116  1  0  0  0
 50 51  1  0  0  0
 50117  1  0  0  0
 50118  1  0  0  0
 51 52  1  0  0  0
 51119  1  0  0  0
 51120  1  0  0  0
 52121  1  0  0  0
 52122  1  0  0  0
 53 54  1  0  0  0
 54 55  2  0  0  0
 54123  1  0  0  0
 55 57  1  0  0  0
 55124  1  0  0  0
 56 69  2  0  0  0
 57 58  2  0  0  0
 57125  1  0  0  0
 58126  1  0  0  0
 59 60  1  0  0  0
 59 61  1  0  0  0
 59 62  1  0  0  0
 60127  1  0  0  0
 60128  1  0  0  0
 60129  1  0  0  0
 61130  1  0  0  0
 61131  1  0  0  0
 61132  1  0  0  0
 62133  1  0  0  0
 62134  1  0  0  0
 62135  1  0  0  0
 63 65  1  0  0  0
 63136  1  0  0  0
 63137  1  0  0  0
 63138  1  0  0  0
 64139  1  0  0  0
 65140  1  0  0  0
 68 77  1  0  0  0
 71 73  2  0  0  0
 71 78  1  0  0  0
 71141  1  0  0  0
 72 74  1  0  0  0
 72 78  2  0  0  0
 72142  1  0  0  0
 73 76  1  0  0  0
 73 79  1  0  0  0
 74 79  2  0  0  0
 74 80  1  0  0  0
 75143  1  0  0  0
 75144  1  0  0  0
 75145  1  0  0  0
 75 77  1  0  0  0
 76 77  1  0  0  0
 76 81  1  0  0  0
 76146  1  0  0  0
 77147  1  0  0  0
 80148  1  0  0  0
 81149  1  0  0  0
 81150  1  0  0  0
 81151  1  0  0  0
M  CHG  1  81   1
M  ISO  4   1 100  68 101  77 101  80 100
M  END
> <chiral flag>
0

> <version>
0

> <s_m_source_file>
/data/baiqing/PycharmProjects/Reinvent-master-3.2/result/LINK_invent/BTK/process_docking_weight1_custom_sum_contain_oxygen_bond_distance_aromatic_linkinvent_7_9_3/rearranged_h_0110.sdf

> <i_m_source_file_index>
53

> <r_mmod_Potential_Energy-OPLS-2005>
1216.23352050781

> <r_mmod_Stretch_Energy-OPLS-2005>
710.543273925781

> <r_mmod_Bend_Energy-OPLS-2005>
473.239074707031

> <r_mmod_Torsional_Energy-OPLS-2005>
225.954360961914

> <r_mmod_Improper_Torsional_Energy-OPLS-2005>
3.98423552513123

> <r_mmod_Van_der_Waal_Energy-OPLS-2005>
119.383529663086

> <r_mmod_Electrostatic_Energy-OPLS-2005>
-359.621948242188

> <r_mmod_Solvation_Energy-OPLS-2005>
-518.679077148438

> <b_mmod_Minimization_Converged-OPLS-2005>
0

> <r_mmod_RMS_Derivative-OPLS-2005>
0.547173500061035

$$$$
54
                    3D
 Structure written by MMmdl.
165173  0  0  1  0            999 V2000
  -30.6149  -14.7255   20.4287 C   0  0  0  0  0  0
  -30.4443  -12.4465   19.4458 C   0  0  0  0  0  0
  -29.5237  -12.5375   18.2117 C   0  0  0  0  0  0
  -28.0403  -12.3773   18.6077 C   0  0  0  0  0  0
  -27.6538  -13.2293   19.8483 C   0  0  2  0  0  0
  -28.7034  -13.1372   20.9819 C   0  0  0  0  0  0
  -25.2633  -13.8126   20.5618 C   0  0  0  0  0  0
  -24.1958  -13.0452   20.9200 C   0  0  0  0  0  0
  -24.6526  -11.6891   20.8723 C   0  0  0  0  0  0
  -23.9165  -10.4289   21.0406 C   0  0  0  0  0  0
  -24.3678   -9.4220   21.9195 C   0  0  0  0  0  0
  -23.6334   -8.2271   22.0781 C   0  0  0  0  0  0
  -22.4303   -8.0313   21.3577 C   0  0  0  0  0  0
  -21.9959   -9.0302   20.4677 C   0  0  0  0  0  0
  -22.7328  -10.2173   20.3082 C   0  0  0  0  0  0
  -21.6852   -6.0763   22.5282 C   0  0  0  0  0  0
  -21.4036   -6.5670   23.8213 C   0  0  0  0  0  0
  -21.3657   -5.6826   24.9165 C   0  0  0  0  0  0
  -21.6020   -4.3077   24.7220 C   0  0  0  0  0  0
  -21.8823   -3.8179   23.4338 C   0  0  0  0  0  0
  -21.9212   -4.6997   22.3399 C   0  0  0  0  0  0
  -22.7974  -13.5260   21.1819 C   0  0  0  0  0  0
  -22.1668   -4.2189   21.0970 F   0  0  0  0  0  0
  -21.5619   -3.4542   25.7722 F   0  0  0  0  0  0
  -30.0043  -13.4898   20.3986 N   0  0  0  0  0  0
  -26.3032  -12.9343   20.3155 N   0  0  0  0  0  0
  -25.9425  -11.6479   20.5662 N   0  0  0  0  0  0
  -22.0558  -12.8284   22.0334 N   0  0  0  0  0  0
  -25.4293  -15.1819   20.3770 N   0  0  0  0  0  0
  -31.7829  -14.8476   20.0569 O   0  0  0  0  0  0
  -21.6673   -6.8928   21.4250 O   0  0  0  0  0  0
  -22.3701  -14.5569   20.6619 O   0  0  0  0  0  0
  -24.6314  -31.8577   23.1961 C   0  0  0  0  0  0
  -25.9139  -32.4763   23.8335 C   0  0  1  0  0  0
  -27.2036  -27.2779   20.0806 C   0  0  0  0  0  0
  -25.5922  -33.8577   24.2250 N   0  0  0  0  0  0
  -23.4291  -30.4885   21.5440 C   0  0  2  0  0  0
  -24.8628  -28.9370   20.1017 C   0  0  0  0  0  0
  -22.7482  -29.4691   22.4877 C   0  0  0  0  0  0
  -18.0333  -28.1392   22.8617 C   0  0  0  0  0  0
  -24.1482  -36.7266   23.2649 C   0  0  0  0  0  0
  -25.9759  -30.7679   21.3765 C   0  0  0  0  0  0
  -26.0404  -29.3944   20.7091 C   0  0  0  0  0  0
  -27.2138  -28.5750   20.6875 C   0  0  0  0  0  0
  -26.0105  -26.9031   19.4265 C   0  0  0  0  0  0
  -24.8525  -27.6985   19.4460 C   0  0  0  0  0  0
  -23.6342  -29.8220   20.1611 C   0  0  0  0  0  0
  -25.4115  -36.3086   24.0340 C   0  0  1  0  0  0
  -20.5919  -28.3918   23.1345 C   0  0  2  0  0  0
  -20.6940  -26.9573   22.5718 C   0  0  0  0  0  0
  -19.5858  -26.5890   21.5808 C   0  0  0  0  0  0
  -18.2061  -26.7629   22.2325 C   0  0  0  0  0  0
  -19.1573  -28.9006   23.2860 C   0  0  0  0  0  0
  -18.9375  -30.1690   23.8667 C   0  0  0  0  0  0
  -17.6332  -30.6709   24.0367 C   0  0  0  0  0  0
  -25.9074  -34.9437   23.5088 C   0  0  0  0  0  0
  -16.5244  -29.9142   23.6295 C   0  0  0  0  0  0
  -16.7334  -28.6457   23.0438 C   0  0  0  0  0  0
  -26.4510  -31.6590   25.0723 C   0  0  0  0  0  0
  -25.3702  -31.3717   26.1405 C   0  0  0  0  0  0
  -27.0358  -30.2998   24.6209 C   0  0  0  0  0  0
  -27.6058  -32.4346   25.7506 C   0  0  0  0  0  0
  -27.5570  -37.1792   24.8468 C   0  0  0  0  0  0
  -21.4192  -29.3250   22.3732 N   0  0  0  0  0  0
  -26.4287  -37.3776   23.9412 N   0  0  0  0  0  0
  -24.7011  -31.0568   22.0966 N   0  0  0  0  0  0
  -23.4176  -28.8126   23.2934 O   0  0  0  0  0  0
  -28.2960  -26.3840   20.0917 O   0  0  0  0  0  0
  -26.5644  -34.8923   22.4664 O   0  0  0  0  0  0
  -23.5475  -32.1405   23.7291 O   0  0  0  0  0  0
  -27.4224  -19.7999   19.5821 C   0  0  0  0  0  0
  -26.7388  -18.7780   20.1585 C   0  0  0  0  0  0
  -28.9294  -18.3055   20.2778 C   0  0  0  0  0  0
  -24.4968  -19.8624   19.9488 C   0  0  0  0  0  0
  -28.8352  -23.6410   18.2870 C   0  0  0  0  0  0
  -30.1496  -17.3229   20.5037 C   0  0  0  0  0  0
  -28.7690  -22.2891   20.4707 C   0  0  0  0  0  0
  -29.5560  -20.9327   19.9698 C   0  0  0  0  0  0
  -28.0214  -24.9300   20.3448 C   0  0  0  0  0  0
  -25.3152  -18.7262   20.5713 C   0  0  2  0  0  0
  -28.9847  -23.7470   19.8095 C   0  0  2  0  0  0
  -28.7227  -19.6548   19.9669 N   0  0  0  0  0  0
  -27.6837  -17.8566   20.5154 N   0  3  0  0  0  0
  -25.2404  -18.8861   22.0096 N   0  0  0  0  0  0
  -29.8235  -15.8311   20.6604 N   0  0  0  0  0  0
  -31.4817  -12.5782   19.1410 H   0  0  0  0  0  0
  -30.3937  -11.4531   19.8966 H   0  0  0  0  0  0
  -29.7983  -11.7847   17.4706 H   0  0  0  0  0  0
  -29.6657  -13.5012   17.7191 H   0  0  0  0  0  0
  -27.8485  -11.3180   18.7896 H   0  0  0  0  0  0
  -27.4088  -12.6511   17.7589 H   0  0  0  0  0  0
  -27.6560  -14.2630   19.4938 H   0  0  0  0  0  0
  -28.7352  -12.1355   21.4157 H   0  0  0  0  0  0
  -28.4416  -13.8104   21.8015 H   0  0  0  0  0  0
  -25.2837   -9.5672   22.4748 H   0  0  0  0  0  0
  -24.0025   -7.4671   22.7517 H   0  0  0  0  0  0
  -21.0872   -8.8860   19.8986 H   0  0  0  0  0  0
  -22.3808  -10.9714   19.6173 H   0  0  0  0  0  0
  -21.2032   -7.6172   23.9728 H   0  0  0  0  0  0
  -21.1461   -6.0535   25.9068 H   0  0  0  0  0  0
  -22.0599   -2.7634   23.2820 H   0  0  0  0  0  0
  -22.4162  -11.9918   22.4737 H   0  0  0  0  0  0
  -21.1174  -13.1301   22.2515 H   0  0  0  0  0  0
  -24.5359  -15.6621   20.3554 H   0  0  0  0  0  0
  -25.9962  -15.4286   19.5770 H   0  0  0  0  0  0
  -26.7183  -32.5398   23.1064 H   0  0  0  0  0  0
  -25.0044  -33.9719   25.0376 H   0  0  0  0  0  0
  -22.7301  -31.3133   21.4051 H   0  0  0  0  0  0
  -23.3765  -35.9571   23.3322 H   0  0  0  0  0  0
  -24.3554  -36.8873   22.2054 H   0  0  0  0  0  0
  -23.7209  -37.6464   23.6672 H   0  0  0  0  0  0
  -26.1263  -31.5425   20.6245 H   0  0  0  0  0  0
  -26.8487  -30.8101   22.0162 H   0  0  0  0  0  0
  -28.1186  -28.9134   21.1667 H   0  0  0  0  0  0
  -25.9529  -25.9843   18.8690 H   0  0  0  0  0  0
  -23.9555  -27.3696   18.9408 H   0  0  0  0  0  0
  -23.7422  -30.6012   19.4027 H   0  0  0  0  0  0
  -22.7468  -29.2547   19.8643 H   0  0  0  0  0  0
  -25.1305  -36.1946   25.0837 H   0  0  0  0  0  0
  -20.9838  -28.3722   24.1550 H   0  0  0  0  0  0
  -20.6153  -26.2822   23.4209 H   0  0  0  0  0  0
  -21.6805  -26.7710   22.1527 H   0  0  0  0  0  0
  -19.7050  -25.5465   21.2700 H   0  0  0  0  0  0
  -19.6609  -27.2133   20.6867 H   0  0  0  0  0  0
  -17.4054  -26.5749   21.5116 H   0  0  0  0  0  0
  -18.0916  -26.0225   23.0290 H   0  0  0  0  0  0
  -19.7756  -30.7702   24.1966 H   0  0  0  0  0  0
  -17.4820  -31.6493   24.4726 H   0  0  0  0  0  0
  -15.5189  -30.2949   23.7556 H   0  0  0  0  0  0
  -15.8815  -28.0567   22.7327 H   0  0  0  0  0  0
  -24.5905  -30.7072   25.7673 H   0  0  0  0  0  0
  -24.8866  -32.2875   26.4806 H   0  0  0  0  0  0
  -25.7986  -30.8879   27.0180 H   0  0  0  0  0  0
  -26.2956  -29.6757   24.1182 H   0  0  0  0  0  0
  -27.3980  -29.7274   25.4756 H   0  0  0  0  0  0
  -27.8870  -30.4263   23.9512 H   0  0  0  0  0  0
  -27.2659  -33.3657   26.2041 H   0  0  0  0  0  0
  -28.3885  -32.6862   25.0348 H   0  0  0  0  0  0
  -28.0689  -31.8476   26.5438 H   0  0  0  0  0  0
  -28.2614  -38.0066   24.7511 H   0  0  0  0  0  0
  -28.1058  -36.2604   24.6335 H   0  0  0  0  0  0
  -27.2280  -37.1469   25.8868 H   0  0  0  0  0  0
  -20.9306  -29.9072   21.7079 H   0  0  0  0  0  0
  -26.0181  -38.2862   24.1405 H   0  0  0  0  0  0
  -27.0162  -20.7156   19.1628 H   0  0  0  0  0  0
  -24.4741  -19.7803   18.8586 H   0  0  0  0  0  0
  -24.9123  -20.8403   20.2076 H   0  0  0  0  0  0
  -23.4708  -19.8449   20.3093 H   0  0  0  0  0  0
  -29.5142  -22.9121   17.8525 H   0  0  0  0  0  0
  -29.0553  -24.5941   17.8057 H   0  0  0  0  0  0
  -27.8264  -23.3451   18.0032 H   0  0  0  0  0  0
  -30.6845  -17.6652   21.3916 H   0  0  0  0  0  0
  -30.7907  -17.4294   19.6263 H   0  0  0  0  0  0
  -28.9777  -22.3947   21.5365 H   0  0  0  0  0  0
  -27.6993  -22.1322   20.4824 H   0  0  0  0  0  0
  -30.4144  -20.7516   20.6067 H   0  0  0  0  0  0
  -29.9273  -21.0541   18.9561 H   0  0  0  0  0  0
  -27.9568  -24.8234   21.4240 H   0  0  0  0  0  0
  -27.0273  -24.6542   20.0067 H   0  0  0  0  0  0
  -24.8986  -17.7605   20.2863 H   0  0  0  0  0  0
  -30.0113  -24.0311   20.0287 H   0  0  0  0  0  0
  -27.4630  -17.0046   21.0158 H   0  0  0  0  0  0
  -24.8354  -19.7972   22.2101 H   0  0  0  0  0  0
  -24.5386  -18.2461   22.3576 H   0  0  0  0  0  0
  -28.8995  -15.5991   20.9780 H   0  0  0  0  0  0
  1 25  1  0  0  0
  1 30  2  0  0  0
  1 85  1  0  0  0
  2  3  1  0  0  0
  2 25  1  0  0  0
  2 86  1  0  0  0
  2 87  1  0  0  0
  3  4  1  0  0  0
  3 88  1  0  0  0
  3 89  1  0  0  0
  4  5  1  0  0  0
  4 90  1  0  0  0
  4 91  1  0  0  0
  5  6  1  0  0  0
  5 26  1  0  0  0
  5 92  1  0  0  0
  6 25  1  0  0  0
  6 93  1  0  0  0
  6 94  1  0  0  0
  7  8  2  0  0  0
  7 26  1  0  0  0
  7 29  1  0  0  0
  8  9  1  0  0  0
  8 22  1  0  0  0
  9 10  1  0  0  0
  9 27  2  0  0  0
 10 11  2  0  0  0
 10 15  1  0  0  0
 11 12  1  0  0  0
 11 95  1  0  0  0
 12 13  2  0  0  0
 12 96  1  0  0  0
 13 14  1  0  0  0
 13 31  1  0  0  0
 14 15  2  0  0  0
 14 97  1  0  0  0
 15 98  1  0  0  0
 16 17  2  0  0  0
 16 21  1  0  0  0
 16 31  1  0  0  0
 17 18  1  0  0  0
 17 99  1  0  0  0
 18 19  2  0  0  0
 18100  1  0  0  0
 19 20  1  0  0  0
 19 24  1  0  0  0
 20 21  2  0  0  0
 20101  1  0  0  0
 21 23  1  0  0  0
 22 28  1  0  0  0
 22 32  2  0  0  0
 26 27  1  0  0  0
 28102  1  0  0  0
 28103  1  0  0  0
 29104  1  0  0  0
 29105  1  0  0  0
 33 34  1  0  0  0
 33 66  1  0  0  0
 33 70  2  0  0  0
 34 36  1  0  0  0
 34 59  1  0  0  0
 34106  1  0  0  0
 35 44  2  0  0  0
 35 45  1  0  0  0
 35 68  1  0  0  0
 36 56  1  0  0  0
 36107  1  0  0  0
 37 39  1  0  0  0
 37 47  1  0  0  0
 37 66  1  0  0  0
 37108  1  0  0  0
 38 43  2  0  0  0
 38 46  1  0  0  0
 38 47  1  0  0  0
 39 64  1  0  0  0
 39 67  2  0  0  0
 40 52  1  0  0  0
 40 53  2  0  0  0
 40 58  1  0  0  0
 41109  1  0  0  0
 41110  1  0  0  0
 41111  1  0  0  0
 41 48  1  0  0  0
 42 43  1  0  0  0
 42 66  1  0  0  0
 42112  1  0  0  0
 42113  1  0  0  0
 43 44  1  0  0  0
 44114  1  0  0  0
 45 46  2  0  0  0
 45115  1  0  0  0
 46116  1  0  0  0
 47117  1  0  0  0
 47118  1  0  0  0
 48 56  1  0  0  0
 48 65  1  0  0  0
 48119  1  0  0  0
 49 50  1  0  0  0
 49 53  1  0  0  0
 49 64  1  0  0  0
 49120  1  0  0  0
 50 51  1  0  0  0
 50121  1  0  0  0
 50122  1  0  0  0
 51 52  1  0  0  0
 51123  1  0  0  0
 51124  1  0  0  0
 52125  1  0  0  0
 52126  1  0  0  0
 53 54  1  0  0  0
 54 55  2  0  0  0
 54127  1  0  0  0
 55 57  1  0  0  0
 55128  1  0  0  0
 56 69  2  0  0  0
 57 58  2  0  0  0
 57129  1  0  0  0
 58130  1  0  0  0
 59 60  1  0  0  0
 59 61  1  0  0  0
 59 62  1  0  0  0
 60131  1  0  0  0
 60132  1  0  0  0
 60133  1  0  0  0
 61134  1  0  0  0
 61135  1  0  0  0
 61136  1  0  0  0
 62137  1  0  0  0
 62138  1  0  0  0
 62139  1  0  0  0
 63 65  1  0  0  0
 63140  1  0  0  0
 63141  1  0  0  0
 63142  1  0  0  0
 64143  1  0  0  0
 65144  1  0  0  0
 68 79  1  0  0  0
 71 72  2  0  0  0
 71 82  1  0  0  0
 71145  1  0  0  0
 72 80  1  0  0  0
 72 83  1  0  0  0
 73 76  1  0  0  0
 73 82  1  0  0  0
 73 83  2  0  0  0
 74146  1  0  0  0
 74147  1  0  0  0
 74148  1  0  0  0
 74 80  1  0  0  0
 75149  1  0  0  0
 75150  1  0  0  0
 75151  1  0  0  0
 75 81  1  0  0  0
 76 85  1  0  0  0
 76152  1  0  0  0
 76153  1  0  0  0
 77 78  1  0  0  0
 77 81  1  0  0  0
 77154  1  0  0  0
 77155  1  0  0  0
 78 82  1  0  0  0
 78156  1  0  0  0
 78157  1  0  0  0
 79 81  1  0  0  0
 79158  1  0  0  0
 79159  1  0  0  0
 80 84  1  0  0  0
 80160  1  0  0  0
 81161  1  0  0  0
 83162  1  0  0  0
 84163  1  0  0  0
 84164  1  0  0  0
 85165  1  0  0  0
M  CHG  1  83   1
M  ISO  4   1 100  68 101  79 101  85 100
M  END
> <chiral flag>
0

> <version>
0

> <s_m_source_file>
/data/baiqing/PycharmProjects/Reinvent-master-3.2/result/LINK_invent/BTK/process_docking_weight1_custom_sum_contain_oxygen_bond_distance_aromatic_linkinvent_7_9_3/rearranged_h_0110.sdf

> <i_m_source_file_index>
54

> <r_mmod_Potential_Energy-OPLS-2005>
26.7752666473389

> <r_mmod_Stretch_Energy-OPLS-2005>
125.917251586914

> <r_mmod_Bend_Energy-OPLS-2005>
190.449996948242

> <r_mmod_Torsional_Energy-OPLS-2005>
287.767669677734

> <r_mmod_Improper_Torsional_Energy-OPLS-2005>
12.9034299850464

> <r_mmod_Van_der_Waal_Energy-OPLS-2005>
123.266532897949

> <r_mmod_Electrostatic_Energy-OPLS-2005>
-372.251434326172

> <r_mmod_Solvation_Energy-OPLS-2005>
-419.983947753906

> <b_mmod_Minimization_Converged-OPLS-2005>
0

> <r_mmod_RMS_Derivative-OPLS-2005>
11.8008060455322

$$$$
55
                    3D
 Structure written by MMmdl.
168176  0  0  1  0            999 V2000
  -30.5541  -14.9478   20.4269 C   0  0  0  0  0  0
  -30.4455  -12.5903   19.5018 C   0  0  0  0  0  0
  -29.5272  -12.5281   18.2587 C   0  0  0  0  0  0
  -28.0596  -12.3110   18.6764 C   0  0  0  0  0  0
  -27.6314  -13.2503   19.8351 C   0  0  2  0  0  0
  -28.6724  -13.2842   20.9747 C   0  0  0  0  0  0
  -25.2475  -13.8238   20.5735 C   0  0  0  0  0  0
  -24.1793  -13.0456   20.9264 C   0  0  0  0  0  0
  -24.6398  -11.6943   20.8759 C   0  0  0  0  0  0
  -23.9079  -10.4303   21.0409 C   0  0  0  0  0  0
  -24.3628   -9.4212   21.9182 C   0  0  0  0  0  0
  -23.6315   -8.2231   22.0735 C   0  0  0  0  0  0
  -22.4290   -8.0280   21.3532 C   0  0  0  0  0  0
  -21.9933   -9.0257   20.4642 C   0  0  0  0  0  0
  -22.7247  -10.2148   20.3053 C   0  0  0  0  0  0
  -21.6844   -6.0742   22.5287 C   0  0  0  0  0  0
  -21.4010   -6.5643   23.8224 C   0  0  0  0  0  0
  -21.3658   -5.6785   24.9179 C   0  0  0  0  0  0
  -21.6037   -4.3048   24.7221 C   0  0  0  0  0  0
  -21.8818   -3.8149   23.4342 C   0  0  0  0  0  0
  -21.9196   -4.6974   22.3402 C   0  0  0  0  0  0
  -22.7795  -13.5218   21.1894 C   0  0  0  0  0  0
  -22.1662   -4.2162   21.0977 F   0  0  0  0  0  0
  -21.5632   -3.4529   25.7734 F   0  0  0  0  0  0
  -29.9501  -13.6925   20.3784 N   0  0  0  0  0  0
  -26.2900  -12.9481   20.3235 N   0  0  0  0  0  0
  -25.9325  -11.6605   20.5710 N   0  0  0  0  0  0
  -22.0418  -12.8229   22.0449 N   0  0  0  0  0  0
  -25.4162  -15.1961   20.4162 N   0  0  0  0  0  0
  -31.7593  -15.0021   20.1662 O   0  0  0  0  0  0
  -21.6640   -6.8888   21.4241 O   0  0  0  0  0  0
  -22.3478  -14.5504   20.6709 O   0  0  0  0  0  0
  -24.6441  -31.8414   23.1855 C   0  0  0  0  0  0
  -25.9194  -32.4677   23.8273 C   0  0  1  0  0  0
  -27.2302  -27.1119   20.1679 C   0  0  0  0  0  0
  -25.5935  -33.8488   24.2168 N   0  0  0  0  0  0
  -23.4501  -30.4564   21.5335 C   0  0  2  0  0  0
  -24.9036  -28.8748   20.1193 C   0  0  0  0  0  0
  -22.7583  -29.4506   22.4880 C   0  0  0  0  0  0
  -18.0302  -28.1368   22.8480 C   0  0  0  0  0  0
  -24.1484  -36.7256   23.2647 C   0  0  0  0  0  0
  -26.0099  -30.7068   21.3894 C   0  0  0  0  0  0
  -26.0817  -29.3145   20.7357 C   0  0  0  0  0  0
  -27.2456  -28.4509   20.7368 C   0  0  0  0  0  0
  -26.0226  -26.7798   19.5112 C   0  0  0  0  0  0
  -24.8872  -27.6203   19.4902 C   0  0  0  0  0  0
  -23.6789  -29.7780   20.1562 C   0  0  0  0  0  0
  -25.4115  -36.3029   24.0314 C   0  0  1  0  0  0
  -20.5913  -28.3699   23.1245 C   0  0  2  0  0  0
  -20.6770  -26.9395   22.5420 C   0  0  0  0  0  0
  -19.5755  -26.6349   21.5212 C   0  0  0  0  0  0
  -18.1932  -26.7905   22.1611 C   0  0  0  0  0  0
  -19.1553  -28.8854   23.2843 C   0  0  0  0  0  0
  -18.9472  -30.1457   23.8858 C   0  0  0  0  0  0
  -17.6468  -30.6572   24.0546 C   0  0  0  0  0  0
  -25.9072  -34.9401   23.5058 C   0  0  0  0  0  0
  -16.5357  -29.9059   23.6332 C   0  0  0  0  0  0
  -16.7288  -28.6468   23.0365 C   0  0  0  0  0  0
  -26.4502  -31.6567   25.0736 C   0  0  0  0  0  0
  -25.3694  -31.3786   26.1447 C   0  0  0  0  0  0
  -27.0368  -30.2954   24.6345 C   0  0  0  0  0  0
  -27.6020  -32.4358   25.7523 C   0  0  0  0  0  0
  -27.5571  -37.1774   24.8457 C   0  0  0  0  0  0
  -21.4266  -29.3018   22.3621 N   0  0  0  0  0  0
  -26.4274  -37.3745   23.9416 N   0  0  0  0  0  0
  -24.7216  -31.0239   22.0910 N   0  0  0  0  0  0
  -23.4224  -28.8058   23.3027 O   0  0  0  0  0  0
  -28.2979  -26.1301   20.2101 O   0  0  0  0  0  0
  -26.5677  -34.8907   22.4644 O   0  0  0  0  0  0
  -23.5552  -32.1315   23.7049 O   0  0  0  0  0  0
  -29.9150  -21.3017   21.6019 C   0  0  0  0  0  0
  -29.9795  -22.8537   21.3793 C   0  0  0  0  0  0
  -29.5031  -20.6591   20.2671 C   0  0  1  0  0  0
  -29.0608  -23.2389   20.1854 C   0  0  2  0  0  0
  -26.0930  -20.7317   16.8976 C   0  0  0  0  0  0
  -27.7371  -23.0667   17.6453 C   0  0  0  0  0  0
  -29.2222  -21.0924   17.4103 C   0  0  0  0  0  0
  -29.1156  -18.9917   20.3351 C   0  0  0  0  0  0
  -28.0371  -24.5930   20.4185 C   0  0  0  0  0  0
  -26.8225  -20.8159   18.2508 C   0  0  0  0  0  0
  -30.1853  -17.6849   20.4946 C   0  0  0  0  0  0
  -28.1046  -21.6986   18.2953 C   0  0  0  0  0  0
  -29.7909  -16.1465   20.5612 N   0  0  0  0  0  0
  -28.5462  -21.8090   19.7482 N   0  3  1  0  0  0
  -31.4775  -12.7529   19.1878 H   0  0  0  0  0  0
  -30.4465  -11.6382   20.0364 H   0  0  0  0  0  0
  -29.8524  -11.7296   17.5911 H   0  0  0  0  0  0
  -29.6150  -13.4560   17.6909 H   0  0  0  0  0  0
  -27.9570  -11.2723   18.9932 H   0  0  0  0  0  0
  -27.3964  -12.4324   17.8176 H   0  0  0  0  0  0
  -27.5940  -14.2489   19.3970 H   0  0  0  0  0  0
  -28.7569  -12.3115   21.4633 H   0  0  0  0  0  0
  -28.3703  -13.9962   21.7449 H   0  0  0  0  0  0
  -25.2766   -9.5697   22.4762 H   0  0  0  0  0  0
  -24.0023   -7.4622   22.7452 H   0  0  0  0  0  0
  -21.0855   -8.8779   19.8961 H   0  0  0  0  0  0
  -22.3694  -10.9683   19.6168 H   0  0  0  0  0  0
  -21.1989   -7.6149   23.9745 H   0  0  0  0  0  0
  -21.1484   -6.0501   25.9090 H   0  0  0  0  0  0
  -22.0603   -2.7610   23.2828 H   0  0  0  0  0  0
  -22.3999  -11.9901   22.4884 H   0  0  0  0  0  0
  -21.1038  -13.1276   22.2627 H   0  0  0  0  0  0
  -24.6453  -15.8461   20.5301 H   0  0  0  0  0  0
  -26.2557  -15.6378   20.0654 H   0  0  0  0  0  0
  -26.7266  -32.5273   23.1014 H   0  0  0  0  0  0
  -25.0052  -33.9583   25.0297 H   0  0  0  0  0  0
  -22.7549  -31.2834   21.3729 H   0  0  0  0  0  0
  -23.3747  -35.9582   23.3280 H   0  0  0  0  0  0
  -24.3587  -36.8922   22.2068 H   0  0  0  0  0  0
  -23.7224  -37.6434   23.6713 H   0  0  0  0  0  0
  -26.1665  -31.4557   20.6119 H   0  0  0  0  0  0
  -26.8817  -30.7656   22.0306 H   0  0  0  0  0  0
  -28.1459  -28.7832   21.2333 H   0  0  0  0  0  0
  -25.9223  -25.8302   19.0101 H   0  0  0  0  0  0
  -23.9893  -27.2724   18.9971 H   0  0  0  0  0  0
  -23.8156  -30.5483   19.3966 H   0  0  0  0  0  0
  -22.7949  -29.2172   19.8462 H   0  0  0  0  0  0
  -25.1288  -36.1862   25.0804 H   0  0  0  0  0  0
  -20.9998  -28.3276   24.1366 H   0  0  0  0  0  0
  -20.5640  -26.2303   23.3638 H   0  0  0  0  0  0
  -21.6637  -26.7387   22.1229 H   0  0  0  0  0  0
  -19.6909  -25.6252   21.1251 H   0  0  0  0  0  0
  -19.6680  -27.3141   20.6729 H   0  0  0  0  0  0
  -17.4203  -26.6672   21.4006 H   0  0  0  0  0  0
  -18.0319  -26.0047   22.9009 H   0  0  0  0  0  0
  -19.7951  -30.7280   24.2200 H   0  0  0  0  0  0
  -17.5023  -31.6248   24.5150 H   0  0  0  0  0  0
  -15.5357  -30.2950   23.7670 H   0  0  0  0  0  0
  -15.8684  -28.0774   22.7116 H   0  0  0  0  0  0
  -24.5856  -30.7130   25.7805 H   0  0  0  0  0  0
  -24.8887  -32.2981   26.4810 H   0  0  0  0  0  0
  -25.7990  -30.9024   27.0273 H   0  0  0  0  0  0
  -26.2995  -29.6682   24.1317 H   0  0  0  0  0  0
  -27.3923  -29.7248   25.4936 H   0  0  0  0  0  0
  -27.8930  -30.4160   23.9705 H   0  0  0  0  0  0
  -27.2578  -33.3670   26.2040 H   0  0  0  0  0  0
  -28.3861  -32.6909   25.0383 H   0  0  0  0  0  0
  -28.0666  -31.8542   26.5496 H   0  0  0  0  0  0
  -28.2559  -38.0097   24.7523 H   0  0  0  0  0  0
  -28.1091  -36.2624   24.6244 H   0  0  0  0  0  0
  -27.2315  -37.1384   25.8867 H   0  0  0  0  0  0
  -20.9487  -29.8748   21.6807 H   0  0  0  0  0  0
  -26.0136  -38.2808   24.1436 H   0  0  0  0  0  0
  -29.1524  -21.0822   22.3510 H   0  0  0  0  0  0
  -30.8546  -20.8909   21.9760 H   0  0  0  0  0  0
  -31.0064  -23.1382   21.1394 H   0  0  0  0  0  0
  -29.7210  -23.3946   22.2889 H   0  0  0  0  0  0
  -30.4013  -20.7114   19.6518 H   0  0  0  0  0  0
  -29.7603  -23.5287   19.4031 H   0  0  0  0  0  0
  -25.2712  -20.0176   16.9557 H   0  0  0  0  0  0
  -26.7541  -20.4063   16.0942 H   0  0  0  0  0  0
  -25.6562  -21.6898   16.6144 H   0  0  0  0  0  0
  -27.5898  -22.9665   16.5708 H   0  0  0  0  0  0
  -28.5067  -23.8302   17.7242 H   0  0  0  0  0  0
  -26.7994  -23.4668   18.0244 H   0  0  0  0  0  0
  -28.9776  -21.1477   16.3491 H   0  0  0  0  0  0
  -29.4069  -20.0404   17.6219 H   0  0  0  0  0  0
  -30.1637  -21.6271   17.5411 H   0  0  0  0  0  0
  -28.6017  -18.7519   19.4116 H   0  0  0  0  0  0
  -28.3580  -18.8715   21.1106 H   0  0  0  0  0  0
  -27.7382  -24.5346   21.4648 H   0  0  0  0  0  0
  -27.1095  -24.3579   19.9140 H   0  0  0  0  0  0
  -27.0410  -19.7963   18.5525 H   0  0  0  0  0  0
  -26.1058  -21.1836   18.9877 H   0  0  0  0  0  0
  -30.7852  -17.8706   21.3854 H   0  0  0  0  0  0
  -30.8967  -17.7622   19.6716 H   0  0  0  0  0  0
  -28.8136  -15.9760   20.7404 H   0  0  0  0  0  0
  -27.6996  -21.6789   20.2822 H   0  0  0  0  0  0
  1 25  1  0  0  0
  1 30  2  0  0  0
  1 83  1  0  0  0
  2  3  1  0  0  0
  2 25  1  0  0  0
  2 85  1  0  0  0
  2 86  1  0  0  0
  3  4  1  0  0  0
  3 87  1  0  0  0
  3 88  1  0  0  0
  4  5  1  0  0  0
  4 89  1  0  0  0
  4 90  1  0  0  0
  5  6  1  0  0  0
  5 26  1  0  0  0
  5 91  1  0  0  0
  6 25  1  0  0  0
  6 92  1  0  0  0
  6 93  1  0  0  0
  7  8  2  0  0  0
  7 26  1  0  0  0
  7 29  1  0  0  0
  8  9  1  0  0  0
  8 22  1  0  0  0
  9 10  1  0  0  0
  9 27  2  0  0  0
 10 11  2  0  0  0
 10 15  1  0  0  0
 11 12  1  0  0  0
 11 94  1  0  0  0
 12 13  2  0  0  0
 12 95  1  0  0  0
 13 14  1  0  0  0
 13 31  1  0  0  0
 14 15  2  0  0  0
 14 96  1  0  0  0
 15 97  1  0  0  0
 16 17  2  0  0  0
 16 21  1  0  0  0
 16 31  1  0  0  0
 17 18  1  0  0  0
 17 98  1  0  0  0
 18 19  2  0  0  0
 18 99  1  0  0  0
 19 20  1  0  0  0
 19 24  1  0  0  0
 20 21  2  0  0  0
 20100  1  0  0  0
 21 23  1  0  0  0
 22 28  1  0  0  0
 22 32  2  0  0  0
 26 27  1  0  0  0
 28101  1  0  0  0
 28102  1  0  0  0
 29103  1  0  0  0
 29104  1  0  0  0
 33 34  1  0  0  0
 33 66  1  0  0  0
 33 70  2  0  0  0
 34 36  1  0  0  0
 34 59  1  0  0  0
 34105  1  0  0  0
 35 44  2  0  0  0
 35 45  1  0  0  0
 35 68  1  0  0  0
 36 56  1  0  0  0
 36106  1  0  0  0
 37 39  1  0  0  0
 37 47  1  0  0  0
 37 66  1  0  0  0
 37107  1  0  0  0
 38 43  2  0  0  0
 38 46  1  0  0  0
 38 47  1  0  0  0
 39 64  1  0  0  0
 39 67  2  0  0  0
 40 52  1  0  0  0
 40 53  2  0  0  0
 40 58  1  0  0  0
 41108  1  0  0  0
 41109  1  0  0  0
 41110  1  0  0  0
 41 48  1  0  0  0
 42 43  1  0  0  0
 42 66  1  0  0  0
 42111  1  0  0  0
 42112  1  0  0  0
 43 44  1  0  0  0
 44113  1  0  0  0
 45 46  2  0  0  0
 45114  1  0  0  0
 46115  1  0  0  0
 47116  1  0  0  0
 47117  1  0  0  0
 48 56  1  0  0  0
 48 65  1  0  0  0
 48118  1  0  0  0
 49 50  1  0  0  0
 49 53  1  0  0  0
 49 64  1  0  0  0
 49119  1  0  0  0
 50 51  1  0  0  0
 50120  1  0  0  0
 50121  1  0  0  0
 51 52  1  0  0  0
 51122  1  0  0  0
 51123  1  0  0  0
 52124  1  0  0  0
 52125  1  0  0  0
 53 54  1  0  0  0
 54 55  2  0  0  0
 54126  1  0  0  0
 55 57  1  0  0  0
 55127  1  0  0  0
 56 69  2  0  0  0
 57 58  2  0  0  0
 57128  1  0  0  0
 58129  1  0  0  0
 59 60  1  0  0  0
 59 61  1  0  0  0
 59 62  1  0  0  0
 60130  1  0  0  0
 60131  1  0  0  0
 60132  1  0  0  0
 61133  1  0  0  0
 61134  1  0  0  0
 61135  1  0  0  0
 62136  1  0  0  0
 62137  1  0  0  0
 62138  1  0  0  0
 63 65  1  0  0  0
 63139  1  0  0  0
 63140  1  0  0  0
 63141  1  0  0  0
 64142  1  0  0  0
 65143  1  0  0  0
 68 79  1  0  0  0
 71 72  1  0  0  0
 71 73  1  0  0  0
 71144  1  0  0  0
 71145  1  0  0  0
 72 74  1  0  0  0
 72146  1  0  0  0
 72147  1  0  0  0
 73 78  1  0  0  0
 73 84  1  0  0  0
 73148  1  0  0  0
 74 79  1  0  0  0
 74 84  1  0  0  0
 74149  1  0  0  0
 75 80  1  0  0  0
 75150  1  0  0  0
 75151  1  0  0  0
 75152  1  0  0  0
 76153  1  0  0  0
 76154  1  0  0  0
 76155  1  0  0  0
 76 82  1  0  0  0
 77 82  1  0  0  0
 77156  1  0  0  0
 77157  1  0  0  0
 77158  1  0  0  0
 78 81  1  0  0  0
 78159  1  0  0  0
 78160  1  0  0  0
 79161  1  0  0  0
 79162  1  0  0  0
 80 82  1  0  0  0
 80163  1  0  0  0
 80164  1  0  0  0
 81 83  1  0  0  0
 81165  1  0  0  0
 81166  1  0  0  0
 82 84  1  0  0  0
 83167  1  0  0  0
 84168  1  0  0  0
M  CHG  1  84   1
M  ISO  4   1 100  68 101  79 101  83 100
M  END
> <chiral flag>
0

> <version>
0

> <s_m_source_file>
/data/baiqing/PycharmProjects/Reinvent-master-3.2/result/LINK_invent/BTK/process_docking_weight1_custom_sum_contain_oxygen_bond_distance_aromatic_linkinvent_7_9_3/rearranged_h_0110.sdf

> <i_m_source_file_index>
55

> <r_mmod_Potential_Energy-OPLS-2005>
633.69775390625

> <r_mmod_Stretch_Energy-OPLS-2005>
302.299652099609

> <r_mmod_Bend_Energy-OPLS-2005>
314.173034667969

> <r_mmod_Torsional_Energy-OPLS-2005>
305.810760498047

> <r_mmod_Improper_Torsional_Energy-OPLS-2005>
4.23593378067017

> <r_mmod_Van_der_Waal_Energy-OPLS-2005>
129.023574829102

> <r_mmod_Electrostatic_Energy-OPLS-2005>
-201.433792114258

> <r_mmod_Solvation_Energy-OPLS-2005>
-420.307006835938

> <b_mmod_Minimization_Converged-OPLS-2005>
0

> <r_mmod_RMS_Derivative-OPLS-2005>
3.13614320755005

$$$$
56
                    3D
 Structure written by MMmdl.
152159  0  0  1  0            999 V2000
  -30.4055  -15.3613   20.3094 C   0  0  0  0  0  0
  -30.4412  -12.8757   19.5390 C   0  0  0  0  0  0
  -29.5360  -12.5786   18.3146 C   0  0  0  0  0  0
  -28.0974  -12.2810   18.7554 C   0  0  0  0  0  0
  -27.6131  -13.2781   19.8333 C   0  0  2  0  0  0
  -28.6442  -13.4953   20.9645 C   0  0  0  0  0  0
  -25.2424  -13.8268   20.5834 C   0  0  0  0  0  0
  -24.1748  -13.0464   20.9291 C   0  0  0  0  0  0
  -24.6393  -11.6955   20.8788 C   0  0  0  0  0  0
  -23.9092  -10.4323   21.0434 C   0  0  0  0  0  0
  -24.3657   -9.4225   21.9172 C   0  0  0  0  0  0
  -23.6328   -8.2257   22.0721 C   0  0  0  0  0  0
  -22.4298   -8.0313   21.3532 C   0  0  0  0  0  0
  -21.9952   -9.0282   20.4628 C   0  0  0  0  0  0
  -22.7281  -10.2153   20.3069 C   0  0  0  0  0  0
  -21.6862   -6.0762   22.5273 C   0  0  0  0  0  0
  -21.3995   -6.5641   23.8213 C   0  0  0  0  0  0
  -21.3672   -5.6787   24.9164 C   0  0  0  0  0  0
  -21.6073   -4.3060   24.7211 C   0  0  0  0  0  0
  -21.8823   -3.8160   23.4322 C   0  0  0  0  0  0
  -21.9192   -4.6985   22.3389 C   0  0  0  0  0  0
  -22.7773  -13.5217   21.1946 C   0  0  0  0  0  0
  -22.1667   -4.2186   21.0960 F   0  0  0  0  0  0
  -21.5660   -3.4528   25.7716 F   0  0  0  0  0  0
  -29.8700  -14.0292   20.3374 N   0  0  0  0  0  0
  -26.2836  -12.9527   20.3316 N   0  0  0  0  0  0
  -25.9335  -11.6635   20.5786 N   0  0  0  0  0  0
  -22.0444  -12.8163   22.0484 N   0  0  0  0  0  0
  -25.4174  -15.2002   20.4369 N   0  0  0  0  0  0
  -31.6064  -15.3645   19.9920 O   0  0  0  0  0  0
  -21.6657   -6.8902   21.4237 O   0  0  0  0  0  0
  -22.3456  -14.5533   20.6823 O   0  0  0  0  0  0
  -24.6580  -31.8291   23.1714 C   0  0  0  0  0  0
  -25.9271  -32.4632   23.8210 C   0  0  1  0  0  0
  -27.2193  -26.9405   20.1713 C   0  0  0  0  0  0
  -25.5952  -33.8444   24.2138 N   0  0  0  0  0  0
  -23.4741  -30.4372   21.5193 C   0  0  2  0  0  0
  -24.9300  -28.8293   20.1060 C   0  0  0  0  0  0
  -22.7674  -29.4444   22.4789 C   0  0  0  0  0  0
  -18.0329  -28.1397   22.8482 C   0  0  0  0  0  0
  -24.1493  -36.7218   23.2646 C   0  0  0  0  0  0
  -26.0404  -30.6405   21.3958 C   0  0  0  0  0  0
  -26.1105  -29.2275   20.7459 C   0  0  0  0  0  0
  -27.2471  -28.3000   20.7603 C   0  0  0  0  0  0
  -26.0177  -26.7018   19.4700 C   0  0  0  0  0  0
  -24.9097  -27.5882   19.4483 C   0  0  0  0  0  0
  -23.7136  -29.7566   20.1437 C   0  0  0  0  0  0
  -25.4122  -36.2985   24.0326 C   0  0  1  0  0  0
  -20.5948  -28.3733   23.1202 C   0  0  2  0  0  0
  -20.6778  -26.9412   22.5406 C   0  0  0  0  0  0
  -19.5757  -26.6355   21.5223 C   0  0  0  0  0  0
  -18.1943  -26.7946   22.1629 C   0  0  0  0  0  0
  -19.1576  -28.8889   23.2832 C   0  0  0  0  0  0
  -18.9496  -30.1491   23.8877 C   0  0  0  0  0  0
  -17.6477  -30.6581   24.0565 C   0  0  0  0  0  0
  -25.9088  -34.9378   23.5049 C   0  0  0  0  0  0
  -16.5370  -29.9076   23.6320 C   0  0  0  0  0  0
  -16.7302  -28.6490   23.0362 C   0  0  0  0  0  0
  -26.4544  -31.6540   25.0706 C   0  0  0  0  0  0
  -25.3691  -31.3735   26.1369 C   0  0  0  0  0  0
  -27.0411  -30.2926   24.6350 C   0  0  0  0  0  0
  -27.6099  -32.4290   25.7463 C   0  0  0  0  0  0
  -27.5572  -37.1753   24.8476 C   0  0  0  0  0  0
  -21.4337  -29.3049   22.3585 N   0  0  0  0  0  0
  -26.4265  -37.3715   23.9435 N   0  0  0  0  0  0
  -24.7467  -30.9973   22.0838 N   0  0  0  0  0  0
  -23.4240  -28.7996   23.3009 O   0  0  0  0  0  0
  -28.2179  -25.8357   20.2824 O   0  0  0  0  0  0
  -26.5692  -34.8899   22.4641 O   0  0  0  0  0  0
  -23.5653  -32.1246   23.6792 O   0  0  0  0  0  0
  -29.3001  -19.4217   20.4669 C   0  0  0  0  0  0
  -29.2223  -19.4966   21.9610 C   0  0  0  0  0  0
  -27.6376  -21.8603   17.6070 C   0  0  0  0  0  0
  -27.7836  -20.8000   18.7221 C   0  0  0  0  0  0
  -28.7566  -22.6588   20.4560 C   0  0  0  0  0  0
  -28.0767  -24.2414   19.8823 C   0  0  0  0  0  0
  -28.9466  -21.0072   19.7284 C   0  0  1  0  0  0
  -29.6509  -18.1613   19.9490 N   0  0  0  0  0  0
  -29.6609  -16.6458   20.5248 N   0  0  0  0  0  0
  -31.4406  -13.1037   19.1721 H   0  0  0  0  0  0
  -30.5649  -11.9946   20.1680 H   0  0  0  0  0  0
  -29.9369  -11.7386   17.7442 H   0  0  0  0  0  0
  -29.5420  -13.4379   17.6434 H   0  0  0  0  0  0
  -28.0780  -11.2669   19.1603 H   0  0  0  0  0  0
  -27.4265  -12.2831   17.8972 H   0  0  0  0  0  0
  -27.5199  -14.2341   19.3149 H   0  0  0  0  0  0
  -28.8420  -12.5698   21.5078 H   0  0  0  0  0  0
  -28.2651  -14.2083   21.6989 H   0  0  0  0  0  0
  -25.2801   -9.5683   22.4760 H   0  0  0  0  0  0
  -24.0057   -7.4629   22.7413 H   0  0  0  0  0  0
  -21.0890   -8.8800   19.8914 H   0  0  0  0  0  0
  -22.3739  -10.9708   19.6215 H   0  0  0  0  0  0
  -21.1944   -7.6144   23.9725 H   0  0  0  0  0  0
  -21.1506   -6.0498   25.9074 H   0  0  0  0  0  0
  -22.0588   -2.7624   23.2798 H   0  0  0  0  0  0
  -22.4081  -11.9811   22.4834 H   0  0  0  0  0  0
  -21.1077  -13.1168   22.2734 H   0  0  0  0  0  0
  -24.6877  -15.8753   20.6376 H   0  0  0  0  0  0
  -26.2785  -15.6317   20.1239 H   0  0  0  0  0  0
  -26.7365  -32.5220   23.0958 H   0  0  0  0  0  0
  -25.0115  -33.9590   25.0296 H   0  0  0  0  0  0
  -22.7838  -31.2660   21.3502 H   0  0  0  0  0  0
  -23.3764  -35.9539   23.3273 H   0  0  0  0  0  0
  -24.3572  -36.8878   22.2064 H   0  0  0  0  0  0
  -23.7227  -37.6393   23.6710 H   0  0  0  0  0  0
  -26.2073  -31.3793   20.6091 H   0  0  0  0  0  0
  -26.9071  -30.7162   22.0409 H   0  0  0  0  0  0
  -28.1359  -28.5922   21.2990 H   0  0  0  0  0  0
  -25.8975  -25.7574   18.9552 H   0  0  0  0  0  0
  -24.0171  -27.2795   18.9221 H   0  0  0  0  0  0
  -23.8679  -30.5288   19.3901 H   0  0  0  0  0  0
  -22.8273  -29.2088   19.8207 H   0  0  0  0  0  0
  -25.1297  -36.1810   25.0812 H   0  0  0  0  0  0
  -21.0061  -28.3321   24.1313 H   0  0  0  0  0  0
  -20.5631  -26.2367   23.3654 H   0  0  0  0  0  0
  -21.6649  -26.7361   22.1246 H   0  0  0  0  0  0
  -19.6910  -25.6255   21.1290 H   0  0  0  0  0  0
  -19.6695  -27.3145   20.6745 H   0  0  0  0  0  0
  -17.4215  -26.6717   21.4023 H   0  0  0  0  0  0
  -18.0311  -26.0085   22.9017 H   0  0  0  0  0  0
  -19.7962  -30.7302   24.2244 H   0  0  0  0  0  0
  -17.5020  -31.6266   24.5158 H   0  0  0  0  0  0
  -15.5372  -30.2961   23.7641 H   0  0  0  0  0  0
  -15.8714  -28.0780   22.7098 H   0  0  0  0  0  0
  -24.5939  -30.7028   25.7640 H   0  0  0  0  0  0
  -24.8800  -32.2905   26.4674 H   0  0  0  0  0  0
  -25.7930  -30.8974   27.0228 H   0  0  0  0  0  0
  -26.3042  -29.6630   24.1357 H   0  0  0  0  0  0
  -27.3997  -29.7242   25.4943 H   0  0  0  0  0  0
  -27.8971  -30.4123   23.9705 H   0  0  0  0  0  0
  -27.2774  -33.3667   26.1917 H   0  0  0  0  0  0
  -28.3945  -32.6707   25.0285 H   0  0  0  0  0  0
  -28.0744  -31.8486   26.5444 H   0  0  0  0  0  0
  -28.2568  -38.0061   24.7489 H   0  0  0  0  0  0
  -28.1067  -36.2586   24.6305 H   0  0  0  0  0  0
  -27.2305  -37.1399   25.8879 H   0  0  0  0  0  0
  -20.9578  -29.8819   21.6801 H   0  0  0  0  0  0
  -26.0129  -38.2784   24.1405 H   0  0  0  0  0  0
  -28.1898  -19.5424   22.3017 H   0  0  0  0  0  0
  -29.7303  -20.3971   22.3087 H   0  0  0  0  0  0
  -29.7199  -18.6522   22.4387 H   0  0  0  0  0  0
  -27.0759  -22.7328   17.9352 H   0  0  0  0  0  0
  -27.0767  -21.4587   16.7611 H   0  0  0  0  0  0
  -28.5982  -22.2008   17.2183 H   0  0  0  0  0  0
  -27.9412  -19.8454   18.2228 H   0  0  0  0  0  0
  -26.8325  -20.7188   19.2532 H   0  0  0  0  0  0
  -28.2504  -22.4815   21.4039 H   0  0  0  0  0  0
  -29.7698  -22.9256   20.7531 H   0  0  0  0  0  0
  -26.9992  -24.0676   19.8911 H   0  0  0  0  0  0
  -28.3457  -24.2748   18.8276 H   0  0  0  0  0  0
  -29.8178  -21.1641   19.0897 H   0  0  0  0  0  0
  -28.8349  -16.4892   21.0871 H   0  0  0  0  0  0
  1 25  1  0  0  0
  1 30  2  0  0  0
  1 79  1  0  0  0
  2  3  1  0  0  0
  2 25  1  0  0  0
  2 80  1  0  0  0
  2 81  1  0  0  0
  3  4  1  0  0  0
  3 82  1  0  0  0
  3 83  1  0  0  0
  4  5  1  0  0  0
  4 84  1  0  0  0
  4 85  1  0  0  0
  5  6  1  0  0  0
  5 26  1  0  0  0
  5 86  1  0  0  0
  6 25  1  0  0  0
  6 87  1  0  0  0
  6 88  1  0  0  0
  7  8  2  0  0  0
  7 26  1  0  0  0
  7 29  1  0  0  0
  8  9  1  0  0  0
  8 22  1  0  0  0
  9 10  1  0  0  0
  9 27  2  0  0  0
 10 11  2  0  0  0
 10 15  1  0  0  0
 11 12  1  0  0  0
 11 89  1  0  0  0
 12 13  2  0  0  0
 12 90  1  0  0  0
 13 14  1  0  0  0
 13 31  1  0  0  0
 14 15  2  0  0  0
 14 91  1  0  0  0
 15 92  1  0  0  0
 16 17  2  0  0  0
 16 21  1  0  0  0
 16 31  1  0  0  0
 17 18  1  0  0  0
 17 93  1  0  0  0
 18 19  2  0  0  0
 18 94  1  0  0  0
 19 20  1  0  0  0
 19 24  1  0  0  0
 20 21  2  0  0  0
 20 95  1  0  0  0
 21 23  1  0  0  0
 22 28  1  0  0  0
 22 32  2  0  0  0
 26 27  1  0  0  0
 28 96  1  0  0  0
 28 97  1  0  0  0
 29 98  1  0  0  0
 29 99  1  0  0  0
 33 34  1  0  0  0
 33 66  1  0  0  0
 33 70  2  0  0  0
 34 36  1  0  0  0
 34 59  1  0  0  0
 34100  1  0  0  0
 35 44  2  0  0  0
 35 45  1  0  0  0
 35 68  1  0  0  0
 36 56  1  0  0  0
 36101  1  0  0  0
 37 39  1  0  0  0
 37 47  1  0  0  0
 37 66  1  0  0  0
 37102  1  0  0  0
 38 43  2  0  0  0
 38 46  1  0  0  0
 38 47  1  0  0  0
 39 64  1  0  0  0
 39 67  2  0  0  0
 40 52  1  0  0  0
 40 53  2  0  0  0
 40 58  1  0  0  0
 41103  1  0  0  0
 41104  1  0  0  0
 41105  1  0  0  0
 41 48  1  0  0  0
 42 43  1  0  0  0
 42 66  1  0  0  0
 42106  1  0  0  0
 42107  1  0  0  0
 43 44  1  0  0  0
 44108  1  0  0  0
 45 46  2  0  0  0
 45109  1  0  0  0
 46110  1  0  0  0
 47111  1  0  0  0
 47112  1  0  0  0
 48 56  1  0  0  0
 48 65  1  0  0  0
 48113  1  0  0  0
 49 50  1  0  0  0
 49 53  1  0  0  0
 49 64  1  0  0  0
 49114  1  0  0  0
 50 51  1  0  0  0
 50115  1  0  0  0
 50116  1  0  0  0
 51 52  1  0  0  0
 51117  1  0  0  0
 51118  1  0  0  0
 52119  1  0  0  0
 52120  1  0  0  0
 53 54  1  0  0  0
 54 55  2  0  0  0
 54121  1  0  0  0
 55 57  1  0  0  0
 55122  1  0  0  0
 56 69  2  0  0  0
 57 58  2  0  0  0
 57123  1  0  0  0
 58124  1  0  0  0
 59 60  1  0  0  0
 59 61  1  0  0  0
 59 62  1  0  0  0
 60125  1  0  0  0
 60126  1  0  0  0
 60127  1  0  0  0
 61128  1  0  0  0
 61129  1  0  0  0
 61130  1  0  0  0
 62131  1  0  0  0
 62132  1  0  0  0
 62133  1  0  0  0
 63 65  1  0  0  0
 63134  1  0  0  0
 63135  1  0  0  0
 63136  1  0  0  0
 64137  1  0  0  0
 65138  1  0  0  0
 68 76  1  0  0  0
 71 72  1  0  0  0
 71 77  1  0  0  0
 71 78  2  0  0  0
 72139  1  0  0  0
 72140  1  0  0  0
 72141  1  0  0  0
 73 74  1  0  0  0
 73142  1  0  0  0
 73143  1  0  0  0
 73144  1  0  0  0
 74145  1  0  0  0
 74146  1  0  0  0
 74 77  1  0  0  0
 75 76  1  0  0  0
 75 77  1  0  0  0
 75147  1  0  0  0
 75148  1  0  0  0
 76149  1  0  0  0
 76150  1  0  0  0
 77151  1  0  0  0
 78 79  1  0  0  0
 79152  1  0  0  0
M  ISO  4   1 100  68 101  76 101  79 100
M  END
> <chiral flag>
0

> <version>
0

> <s_m_source_file>
/data/baiqing/PycharmProjects/Reinvent-master-3.2/result/LINK_invent/BTK/process_docking_weight1_custom_sum_contain_oxygen_bond_distance_aromatic_linkinvent_7_9_3/rearranged_h_0110.sdf

> <i_m_source_file_index>
56

> <r_mmod_Potential_Energy-OPLS-2005>
1467.09020996094

> <r_mmod_Stretch_Energy-OPLS-2005>
677.713989257812

> <r_mmod_Bend_Energy-OPLS-2005>
455.193786621094

> <r_mmod_Torsional_Energy-OPLS-2005>
252.98942565918

> <r_mmod_Improper_Torsional_Energy-OPLS-2005>
2.39594793319702

> <r_mmod_Van_der_Waal_Energy-OPLS-2005>
111.991874694824

> <r_mmod_Electrostatic_Energy-OPLS-2005>
-335.157836914062

> <r_mmod_Solvation_Energy-OPLS-2005>
-214.17854309082

> <b_mmod_Minimization_Converged-OPLS-2005>
0

> <r_mmod_RMS_Derivative-OPLS-2005>
5.1833872795105

$$$$
57
                    3D
 Structure written by MMmdl.
167175  0  0  1  0            999 V2000
  -30.5474  -14.9616   20.4397 C   0  0  0  0  0  0
  -30.4413  -12.6025   19.5001 C   0  0  0  0  0  0
  -29.5227  -12.5253   18.2573 C   0  0  0  0  0  0
  -28.0591  -12.3045   18.6813 C   0  0  0  0  0  0
  -27.6291  -13.2471   19.8370 C   0  0  2  0  0  0
  -28.6693  -13.2875   20.9755 C   0  0  0  0  0  0
  -25.2461  -13.8209   20.5703 C   0  0  0  0  0  0
  -24.1777  -13.0441   20.9235 C   0  0  0  0  0  0
  -24.6388  -11.6928   20.8741 C   0  0  0  0  0  0
  -23.9081  -10.4301   21.0409 C   0  0  0  0  0  0
  -24.3627   -9.4220   21.9189 C   0  0  0  0  0  0
  -23.6301   -8.2251   22.0754 C   0  0  0  0  0  0
  -22.4283   -8.0277   21.3545 C   0  0  0  0  0  0
  -21.9927   -9.0251   20.4643 C   0  0  0  0  0  0
  -22.7256  -10.2133   20.3060 C   0  0  0  0  0  0
  -21.6857   -6.0737   22.5280 C   0  0  0  0  0  0
  -21.4013   -6.5640   23.8214 C   0  0  0  0  0  0
  -21.3664   -5.6786   24.9171 C   0  0  0  0  0  0
  -21.6045   -4.3050   24.7216 C   0  0  0  0  0  0
  -21.8824   -3.8148   23.4336 C   0  0  0  0  0  0
  -21.9195   -4.6966   22.3396 C   0  0  0  0  0  0
  -22.7806  -13.5224   21.1884 C   0  0  0  0  0  0
  -22.1667   -4.2156   21.0974 F   0  0  0  0  0  0
  -21.5631   -3.4536   25.7733 F   0  0  0  0  0  0
  -29.9420  -13.7052   20.3750 N   0  0  0  0  0  0
  -26.2872  -12.9433   20.3233 N   0  0  0  0  0  0
  -25.9317  -11.6567   20.5723 N   0  0  0  0  0  0
  -22.0456  -12.8195   22.0424 N   0  0  0  0  0  0
  -25.4155  -15.1923   20.4122 N   0  0  0  0  0  0
  -31.7550  -15.0087   20.1832 O   0  0  0  0  0  0
  -21.6643   -6.8877   21.4243 O   0  0  0  0  0  0
  -22.3507  -14.5540   20.6740 O   0  0  0  0  0  0
  -24.6478  -31.8426   23.1890 C   0  0  0  0  0  0
  -25.9243  -32.4675   23.8282 C   0  0  1  0  0  0
  -27.1938  -27.0829   20.1463 C   0  0  0  0  0  0
  -25.5998  -33.8483   24.2194 N   0  0  0  0  0  0
  -23.4517  -30.4672   21.5346 C   0  0  2  0  0  0
  -24.9000  -28.9042   20.1005 C   0  0  0  0  0  0
  -22.7596  -29.4546   22.4826 C   0  0  0  0  0  0
  -18.0318  -28.1399   22.8470 C   0  0  0  0  0  0
  -24.1492  -36.7224   23.2645 C   0  0  0  0  0  0
  -26.0155  -30.6941   21.4058 C   0  0  0  0  0  0
  -26.0790  -29.3062   20.7400 C   0  0  0  0  0  0
  -27.2219  -28.4110   20.7552 C   0  0  0  0  0  0
  -26.0078  -26.8402   19.4148 C   0  0  0  0  0  0
  -24.8822  -27.6855   19.4190 C   0  0  0  0  0  0
  -23.6783  -29.8062   20.1511 C   0  0  0  0  0  0
  -25.4131  -36.3015   24.0320 C   0  0  1  0  0  0
  -20.5937  -28.3727   23.1205 C   0  0  2  0  0  0
  -20.6806  -26.9428   22.5384 C   0  0  0  0  0  0
  -19.5776  -26.6381   21.5193 C   0  0  0  0  0  0
  -18.1951  -26.7938   22.1603 C   0  0  0  0  0  0
  -19.1578  -28.8879   23.2823 C   0  0  0  0  0  0
  -18.9499  -30.1479   23.8850 C   0  0  0  0  0  0
  -17.6491  -30.6595   24.0553 C   0  0  0  0  0  0
  -25.9088  -34.9391   23.5062 C   0  0  0  0  0  0
  -16.5383  -29.9085   23.6347 C   0  0  0  0  0  0
  -16.7298  -28.6508   23.0361 C   0  0  0  0  0  0
  -26.4542  -31.6554   25.0739 C   0  0  0  0  0  0
  -25.3699  -31.3753   26.1412 C   0  0  0  0  0  0
  -27.0445  -30.2941   24.6407 C   0  0  0  0  0  0
  -27.6077  -32.4334   25.7506 C   0  0  0  0  0  0
  -27.5573  -37.1768   24.8480 C   0  0  0  0  0  0
  -21.4284  -29.3051   22.3571 N   0  0  0  0  0  0
  -26.4292  -37.3733   23.9410 N   0  0  0  0  0  0
  -24.7253  -31.0236   22.0962 N   0  0  0  0  0  0
  -23.4222  -28.8099   23.3000 O   0  0  0  0  0  0
  -28.1928  -26.0244   20.2815 O   0  0  0  0  0  0
  -26.5656  -34.8898   22.4628 O   0  0  0  0  0  0
  -23.5589  -32.1350   23.7073 O   0  0  0  0  0  0
  -30.7416  -22.6072   22.0487 C   0  0  0  0  0  0
  -29.9334  -23.6055   21.4824 C   0  0  0  0  0  0
  -30.5824  -21.2312   21.7391 C   0  0  0  0  0  0
  -28.9301  -23.2563   20.5806 C   0  0  0  0  0  0
  -29.5729  -20.7943   20.8271 C   0  0  0  0  0  0
  -33.3717  -21.1058   20.8007 C   0  0  0  0  0  0
  -33.8669  -19.2381   22.4445 C   0  0  0  0  0  0
  -27.9884  -24.3005   18.4983 C   0  0  0  0  0  0
  -26.5919  -24.0629   20.6884 C   0  0  0  0  0  0
  -31.5538  -20.2817   22.4324 C   0  0  0  0  0  0
  -29.3466  -19.1544   20.4913 C   0  0  0  0  0  0
  -30.2624  -17.6902   20.6354 C   0  0  0  0  0  0
  -32.7925  -19.9119   21.5813 C   0  0  0  0  0  0
  -27.9401  -24.4682   20.0316 C   0  0  0  0  0  0
  -28.7763  -21.8544   20.2867 N   0  0  0  0  0  0
  -29.7956  -16.1684   20.5888 N   0  0  0  0  0  0
  -31.4751  -12.7635   19.1860 H   0  0  0  0  0  0
  -30.4406  -11.6543   20.0426 H   0  0  0  0  0  0
  -29.8480  -11.7197   17.5971 H   0  0  0  0  0  0
  -29.6057  -13.4477   17.6798 H   0  0  0  0  0  0
  -27.9673  -11.2672   19.0032 H   0  0  0  0  0  0
  -27.3915  -12.4144   17.8258 H   0  0  0  0  0  0
  -27.5914  -14.2455   19.3998 H   0  0  0  0  0  0
  -28.7621  -12.3141   21.4598 H   0  0  0  0  0  0
  -28.3650  -13.9924   21.7501 H   0  0  0  0  0  0
  -25.2770   -9.5690   22.4770 H   0  0  0  0  0  0
  -24.0009   -7.4647   22.7478 H   0  0  0  0  0  0
  -21.0862   -8.8767   19.8944 H   0  0  0  0  0  0
  -22.3718  -10.9665   19.6162 H   0  0  0  0  0  0
  -21.2006   -7.6153   23.9715 H   0  0  0  0  0  0
  -21.1485   -6.0521   25.9074 H   0  0  0  0  0  0
  -22.0600   -2.7614   23.2833 H   0  0  0  0  0  0
  -22.4070  -11.9844   22.4797 H   0  0  0  0  0  0
  -21.1069  -13.1199   22.2629 H   0  0  0  0  0  0
  -24.6483  -15.8456   20.5247 H   0  0  0  0  0  0
  -26.2540  -15.6274   20.0499 H   0  0  0  0  0  0
  -26.7310  -32.5243   23.1000 H   0  0  0  0  0  0
  -25.0183  -33.9606   25.0373 H   0  0  0  0  0  0
  -22.7583  -31.2970   21.3849 H   0  0  0  0  0  0
  -23.3771  -35.9542   23.3312 H   0  0  0  0  0  0
  -24.3575  -36.8849   22.2057 H   0  0  0  0  0  0
  -23.7236  -37.6424   23.6673 H   0  0  0  0  0  0
  -26.1952  -31.4499   20.6411 H   0  0  0  0  0  0
  -26.8763  -30.7281   22.0609 H   0  0  0  0  0  0
  -28.1060  -28.7067   21.3028 H   0  0  0  0  0  0
  -25.8699  -25.9379   18.8496 H   0  0  0  0  0  0
  -23.9946  -27.3809   18.8803 H   0  0  0  0  0  0
  -23.8139  -30.5856   19.4010 H   0  0  0  0  0  0
  -22.7923  -29.2506   19.8374 H   0  0  0  0  0  0
  -25.1318  -36.1847   25.0817 H   0  0  0  0  0  0
  -21.0020  -28.3314   24.1326 H   0  0  0  0  0  0
  -20.5700  -26.2332   23.3598 H   0  0  0  0  0  0
  -21.6665  -26.7437   22.1172 H   0  0  0  0  0  0
  -19.6939  -25.6281   21.1243 H   0  0  0  0  0  0
  -19.6717  -27.3174   20.6707 H   0  0  0  0  0  0
  -17.4222  -26.6687   21.4004 H   0  0  0  0  0  0
  -18.0357  -26.0088   22.9005 H   0  0  0  0  0  0
  -19.7974  -30.7304   24.2190 H   0  0  0  0  0  0
  -17.5052  -31.6275   24.5154 H   0  0  0  0  0  0
  -15.5377  -30.2966   23.7711 H   0  0  0  0  0  0
  -15.8699  -28.0810   22.7093 H   0  0  0  0  0  0
  -24.5931  -30.7056   25.7705 H   0  0  0  0  0  0
  -24.8837  -32.2928   26.4727 H   0  0  0  0  0  0
  -25.7955  -30.9001   27.0257 H   0  0  0  0  0  0
  -26.3110  -29.6627   24.1400 H   0  0  0  0  0  0
  -27.4004  -29.7292   25.5034 H   0  0  0  0  0  0
  -27.9031  -30.4161   23.9805 H   0  0  0  0  0  0
  -27.2713  -33.3698   26.1970 H   0  0  0  0  0  0
  -28.3937  -32.6795   25.0347 H   0  0  0  0  0  0
  -28.0699  -31.8540   26.5517 H   0  0  0  0  0  0
  -28.2598  -38.0054   24.7513 H   0  0  0  0  0  0
  -28.1059  -36.2583   24.6335 H   0  0  0  0  0  0
  -27.2282  -37.1454   25.8881 H   0  0  0  0  0  0
  -20.9500  -29.8751   21.6738 H   0  0  0  0  0  0
  -26.0159  -38.2806   24.1396 H   0  0  0  0  0  0
  -31.5068  -22.9122   22.7487 H   0  0  0  0  0  0
  -30.0733  -24.6423   21.7586 H   0  0  0  0  0  0
  -34.2686  -20.8224   20.2521 H   0  0  0  0  0  0
  -33.6310  -21.9305   21.4636 H   0  0  0  0  0  0
  -32.6608  -21.4851   20.0639 H   0  0  0  0  0  0
  -34.7361  -18.9527   21.8507 H   0  0  0  0  0  0
  -33.4808  -18.3316   22.9127 H   0  0  0  0  0  0
  -34.2083  -19.9006   23.2406 H   0  0  0  0  0  0
  -27.6084  -23.3232   18.1966 H   0  0  0  0  0  0
  -29.0234  -24.3554   18.1608 H   0  0  0  0  0  0
  -27.4495  -25.0515   17.9308 H   0  0  0  0  0  0
  -25.6997  -24.5913   20.3800 H   0  0  0  0  0  0
  -26.6598  -24.1651   21.7718 H   0  0  0  0  0  0
  -26.3673  -23.0154   20.4905 H   0  0  0  0  0  0
  -31.0329  -19.4085   22.8169 H   0  0  0  0  0  0
  -31.9068  -20.7775   23.3380 H   0  0  0  0  0  0
  -29.1089  -19.1129   21.5539 H   0  0  0  0  0  0
  -30.2324  -19.4986   19.9595 H   0  0  0  0  0  0
  -30.7883  -17.7234   21.5865 H   0  0  0  0  0  0
  -31.0622  -17.7141   19.8922 H   0  0  0  0  0  0
  -32.4954  -19.1897   20.8260 H   0  0  0  0  0  0
  -28.8064  -16.0209   20.7216 H   0  0  0  0  0  0
  1 25  1  0  0  0
  1 30  2  0  0  0
  1 86  1  0  0  0
  2  3  1  0  0  0
  2 25  1  0  0  0
  2 87  1  0  0  0
  2 88  1  0  0  0
  3  4  1  0  0  0
  3 89  1  0  0  0
  3 90  1  0  0  0
  4  5  1  0  0  0
  4 91  1  0  0  0
  4 92  1  0  0  0
  5  6  1  0  0  0
  5 26  1  0  0  0
  5 93  1  0  0  0
  6 25  1  0  0  0
  6 94  1  0  0  0
  6 95  1  0  0  0
  7  8  2  0  0  0
  7 26  1  0  0  0
  7 29  1  0  0  0
  8  9  1  0  0  0
  8 22  1  0  0  0
  9 10  1  0  0  0
  9 27  2  0  0  0
 10 11  2  0  0  0
 10 15  1  0  0  0
 11 12  1  0  0  0
 11 96  1  0  0  0
 12 13  2  0  0  0
 12 97  1  0  0  0
 13 14  1  0  0  0
 13 31  1  0  0  0
 14 15  2  0  0  0
 14 98  1  0  0  0
 15 99  1  0  0  0
 16 17  2  0  0  0
 16 21  1  0  0  0
 16 31  1  0  0  0
 17 18  1  0  0  0
 17100  1  0  0  0
 18 19  2  0  0  0
 18101  1  0  0  0
 19 20  1  0  0  0
 19 24  1  0  0  0
 20 21  2  0  0  0
 20102  1  0  0  0
 21 23  1  0  0  0
 22 28  1  0  0  0
 22 32  2  0  0  0
 26 27  1  0  0  0
 28103  1  0  0  0
 28104  1  0  0  0
 29105  1  0  0  0
 29106  1  0  0  0
 33 34  1  0  0  0
 33 66  1  0  0  0
 33 70  2  0  0  0
 34 36  1  0  0  0
 34 59  1  0  0  0
 34107  1  0  0  0
 35 44  2  0  0  0
 35 45  1  0  0  0
 35 68  1  0  0  0
 36 56  1  0  0  0
 36108  1  0  0  0
 37 39  1  0  0  0
 37 47  1  0  0  0
 37 66  1  0  0  0
 37109  1  0  0  0
 38 43  2  0  0  0
 38 46  1  0  0  0
 38 47  1  0  0  0
 39 64  1  0  0  0
 39 67  2  0  0  0
 40 52  1  0  0  0
 40 53  2  0  0  0
 40 58  1  0  0  0
 41110  1  0  0  0
 41111  1  0  0  0
 41112  1  0  0  0
 41 48  1  0  0  0
 42 43  1  0  0  0
 42 66  1  0  0  0
 42113  1  0  0  0
 42114  1  0  0  0
 43 44  1  0  0  0
 44115  1  0  0  0
 45 46  2  0  0  0
 45116  1  0  0  0
 46117  1  0  0  0
 47118  1  0  0  0
 47119  1  0  0  0
 48 56  1  0  0  0
 48 65  1  0  0  0
 48120  1  0  0  0
 49 50  1  0  0  0
 49 53  1  0  0  0
 49 64  1  0  0  0
 49121  1  0  0  0
 50 51  1  0  0  0
 50122  1  0  0  0
 50123  1  0  0  0
 51 52  1  0  0  0
 51124  1  0  0  0
 51125  1  0  0  0
 52126  1  0  0  0
 52127  1  0  0  0
 53 54  1  0  0  0
 54 55  2  0  0  0
 54128  1  0  0  0
 55 57  1  0  0  0
 55129  1  0  0  0
 56 69  2  0  0  0
 57 58  2  0  0  0
 57130  1  0  0  0
 58131  1  0  0  0
 59 60  1  0  0  0
 59 61  1  0  0  0
 59 62  1  0  0  0
 60132  1  0  0  0
 60133  1  0  0  0
 60134  1  0  0  0
 61135  1  0  0  0
 61136  1  0  0  0
 61137  1  0  0  0
 62138  1  0  0  0
 62139  1  0  0  0
 62140  1  0  0  0
 63 65  1  0  0  0
 63141  1  0  0  0
 63142  1  0  0  0
 63143  1  0  0  0
 64144  1  0  0  0
 65145  1  0  0  0
 68 84  1  0  0  0
 71 72  2  0  0  0
 71 73  1  0  0  0
 71146  1  0  0  0
 72 74  1  0  0  0
 72147  1  0  0  0
 73 75  2  0  0  0
 73 80  1  0  0  0
 74 84  1  0  0  0
 74 85  2  0  0  0
 75 81  1  0  0  0
 75 85  1  0  0  0
 76148  1  0  0  0
 76149  1  0  0  0
 76150  1  0  0  0
 76 83  1  0  0  0
 77 83  1  0  0  0
 77151  1  0  0  0
 77152  1  0  0  0
 77153  1  0  0  0
 78154  1  0  0  0
 78155  1  0  0  0
 78156  1  0  0  0
 78 84  1  0  0  0
 79 84  1  0  0  0
 79157  1  0  0  0
 79158  1  0  0  0
 79159  1  0  0  0
 80 83  1  0  0  0
 80160  1  0  0  0
 80161  1  0  0  0
 81 82  1  0  0  0
 81162  1  0  0  0
 81163  1  0  0  0
 82 86  1  0  0  0
 82164  1  0  0  0
 82165  1  0  0  0
 83166  1  0  0  0
 86167  1  0  0  0
M  ISO  4   1 100  68 101  84 101  86 100
M  END
> <chiral flag>
0

> <version>
0

> <s_m_source_file>
/data/baiqing/PycharmProjects/Reinvent-master-3.2/result/LINK_invent/BTK/process_docking_weight1_custom_sum_contain_oxygen_bond_distance_aromatic_linkinvent_7_9_3/rearranged_h_0110.sdf

> <i_m_source_file_index>
57

> <r_mmod_Potential_Energy-OPLS-2005>
667.261169433594

> <r_mmod_Stretch_Energy-OPLS-2005>
326.807037353516

> <r_mmod_Bend_Energy-OPLS-2005>
503.360809326172

> <r_mmod_Torsional_Energy-OPLS-2005>
202.349304199219

> <r_mmod_Improper_Torsional_Energy-OPLS-2005>
4.5657811164856

> <r_mmod_Van_der_Waal_Energy-OPLS-2005>
155.736923217773

> <r_mmod_Electrostatic_Energy-OPLS-2005>
-543.117248535156

> <r_mmod_Solvation_Energy-OPLS-2005>
-212.935806274414

> <b_mmod_Minimization_Converged-OPLS-2005>
0

> <r_mmod_RMS_Derivative-OPLS-2005>
2.5673394203186

$$$$
58
                    3D
 Structure written by MMmdl.
163171  0  0  1  0            999 V2000
  -30.3918  -15.3493   20.4186 C   0  0  0  0  0  0
  -30.4448  -12.8901   19.5218 C   0  0  0  0  0  0
  -29.5416  -12.5908   18.3006 C   0  0  0  0  0  0
  -28.1063  -12.2593   18.7468 C   0  0  0  0  0  0
  -27.6092  -13.2594   19.8205 C   0  0  2  0  0  0
  -28.6384  -13.4705   20.9473 C   0  0  0  0  0  0
  -25.2361  -13.8200   20.5724 C   0  0  0  0  0  0
  -24.1693  -13.0417   20.9230 C   0  0  0  0  0  0
  -24.6306  -11.6898   20.8726 C   0  0  0  0  0  0
  -23.8983  -10.4255   21.0365 C   0  0  0  0  0  0
  -24.3551   -9.4183   21.9149 C   0  0  0  0  0  0
  -23.6260   -8.2219   22.0755 C   0  0  0  0  0  0
  -22.4240   -8.0248   21.3554 C   0  0  0  0  0  0
  -21.9848   -9.0193   20.4638 C   0  0  0  0  0  0
  -22.7149  -10.2080   20.3026 C   0  0  0  0  0  0
  -21.6869   -6.0662   22.5259 C   0  0  0  0  0  0
  -21.3989   -6.5563   23.8181 C   0  0  0  0  0  0
  -21.3677   -5.6747   24.9170 C   0  0  0  0  0  0
  -21.6070   -4.3007   24.7234 C   0  0  0  0  0  0
  -21.8816   -3.8076   23.4351 C   0  0  0  0  0  0
  -21.9164   -4.6879   22.3382 C   0  0  0  0  0  0
  -22.7709  -13.5216   21.1827 C   0  0  0  0  0  0
  -22.1660   -4.2071   21.0976 F   0  0  0  0  0  0
  -21.5671   -3.4492   25.7733 F   0  0  0  0  0  0
  -29.8458  -14.0294   20.3153 N   0  0  0  0  0  0
  -26.2768  -12.9438   20.3191 N   0  0  0  0  0  0
  -25.9239  -11.6543   20.5669 N   0  0  0  0  0  0
  -22.0324  -12.8282   22.0407 N   0  0  0  0  0  0
  -25.3969  -15.1948   20.4146 N   0  0  0  0  0  0
  -31.6219  -15.3522   20.2634 O   0  0  0  0  0  0
  -21.6634   -6.8826   21.4248 O   0  0  0  0  0  0
  -22.3411  -14.5499   20.6594 O   0  0  0  0  0  0
  -24.6571  -31.8208   23.1608 C   0  0  0  0  0  0
  -25.9276  -32.4593   23.8019 C   0  0  1  0  0  0
  -27.2315  -26.9287   20.2012 C   0  0  0  0  0  0
  -25.5979  -33.8379   24.2008 N   0  0  0  0  0  0
  -23.4727  -30.4359   21.5019 C   0  0  2  0  0  0
  -24.9373  -28.8117   20.1084 C   0  0  0  0  0  0
  -22.7661  -29.4478   22.4676 C   0  0  0  0  0  0
  -18.0342  -28.1500   22.8476 C   0  0  0  0  0  0
  -24.1548  -36.7232   23.2618 C   0  0  0  0  0  0
  -26.0364  -30.6314   21.3888 C   0  0  0  0  0  0
  -26.1121  -29.2129   20.7544 C   0  0  0  0  0  0
  -27.2483  -28.2859   20.7913 C   0  0  0  0  0  0
  -26.0381  -26.6825   19.4853 C   0  0  0  0  0  0
  -24.9266  -27.5655   19.4545 C   0  0  0  0  0  0
  -23.7225  -29.7422   20.1306 C   0  0  0  0  0  0
  -25.4166  -36.2932   24.0301 C   0  0  1  0  0  0
  -20.5961  -28.3810   23.1225 C   0  0  2  0  0  0
  -20.6865  -26.9512   22.5388 C   0  0  0  0  0  0
  -19.5801  -26.6442   21.5239 C   0  0  0  0  0  0
  -18.1980  -26.8032   22.1616 C   0  0  0  0  0  0
  -19.1591  -28.8961   23.2868 C   0  0  0  0  0  0
  -18.9478  -30.1581   23.8890 C   0  0  0  0  0  0
  -17.6450  -30.6673   24.0577 C   0  0  0  0  0  0
  -25.9089  -34.9342   23.4957 C   0  0  0  0  0  0
  -16.5363  -29.9163   23.6373 C   0  0  0  0  0  0
  -16.7304  -28.6612   23.0340 C   0  0  0  0  0  0
  -26.4624  -31.6436   25.0465 C   0  0  0  0  0  0
  -25.3779  -31.3561   26.1119 C   0  0  0  0  0  0
  -27.0540  -30.2845   24.6041 C   0  0  0  0  0  0
  -27.6201  -32.4158   25.7231 C   0  0  0  0  0  0
  -27.5622  -37.1772   24.8459 C   0  0  0  0  0  0
  -21.4295  -29.3102   22.3531 N   0  0  0  0  0  0
  -26.4303  -37.3690   23.9408 N   0  0  0  0  0  0
  -24.7427  -30.9956   22.0700 N   0  0  0  0  0  0
  -23.4233  -28.8004   23.2849 O   0  0  0  0  0  0
  -28.2434  -25.8400   20.3572 O   0  0  0  0  0  0
  -26.5664  -34.8893   22.4548 O   0  0  0  0  0  0
  -23.5679  -32.1039   23.6837 O   0  0  0  0  0  0
  -28.1583  -22.7592   20.6393 C   0  0  0  0  0  0
  -28.4973  -21.3066   20.8357 C   0  0  0  0  0  0
  -32.2657  -20.6204   22.6121 C   0  0  0  0  0  0
  -30.8830  -20.7156   23.1695 C   0  0  0  0  0  0
  -31.2158  -21.4028   21.8352 C   0  0  0  0  0  0
  -27.5786  -20.6843   21.8802 C   0  0  0  0  0  0
  -31.1467  -23.8481   22.7957 C   0  0  0  0  0  0
  -28.3612  -24.2764   19.8267 C   0  0  0  0  0  0
  -31.5345  -22.9003   21.6393 C   0  0  0  0  0  0
  -29.7593  -18.2613   20.9732 C   0  0  0  0  0  0
  -29.5550  -20.0047   20.3495 C   0  0  2  0  0  0
  -29.6079  -16.6297   20.5008 N   0  0  0  0  0  0
  -30.8851  -20.6795   20.5471 N   0  3  0  0  0  0
  -31.4451  -13.1357   19.1620 H   0  0  0  0  0  0
  -30.5811  -12.0103   20.1504 H   0  0  0  0  0  0
  -29.9674  -11.7777   17.7119 H   0  0  0  0  0  0
  -29.5268  -13.4674   17.6506 H   0  0  0  0  0  0
  -28.1271  -11.2597   19.1853 H   0  0  0  0  0  0
  -27.4333  -12.1986   17.8886 H   0  0  0  0  0  0
  -27.5137  -14.2072   19.2930 H   0  0  0  0  0  0
  -28.8434  -12.5347   21.4717 H   0  0  0  0  0  0
  -28.2491  -14.1624   21.6959 H   0  0  0  0  0  0
  -25.2705   -9.5668   22.4711 H   0  0  0  0  0  0
  -23.9951   -7.4607   22.7466 H   0  0  0  0  0  0
  -21.0799   -8.8625   19.8963 H   0  0  0  0  0  0
  -22.3571  -10.9566   19.6086 H   0  0  0  0  0  0
  -21.1981   -7.6065   23.9677 H   0  0  0  0  0  0
  -21.1550   -6.0472   25.9083 H   0  0  0  0  0  0
  -22.0590   -2.7538   23.2856 H   0  0  0  0  0  0
  -22.3945  -12.0035   22.4923 H   0  0  0  0  0  0
  -21.0896  -13.1321   22.2462 H   0  0  0  0  0  0
  -24.6145  -15.8388   20.5012 H   0  0  0  0  0  0
  -26.2267  -15.6289   20.0342 H   0  0  0  0  0  0
  -26.7268  -32.5201   23.0683 H   0  0  0  0  0  0
  -25.0280  -33.9382   25.0258 H   0  0  0  0  0  0
  -22.7800  -31.2630   21.3306 H   0  0  0  0  0  0
  -23.3808  -35.9567   23.3177 H   0  0  0  0  0  0
  -24.3615  -36.8940   22.2031 H   0  0  0  0  0  0
  -23.7304  -37.6396   23.6740 H   0  0  0  0  0  0
  -26.1896  -31.3551   20.5888 H   0  0  0  0  0  0
  -26.9095  -30.7148   22.0252 H   0  0  0  0  0  0
  -28.1233  -28.5875   21.3504 H   0  0  0  0  0  0
  -25.9309  -25.7405   18.9692 H   0  0  0  0  0  0
  -24.0385  -27.2551   18.9177 H   0  0  0  0  0  0
  -23.8802  -30.5026   19.3642 H   0  0  0  0  0  0
  -22.8325  -29.1941   19.8127 H   0  0  0  0  0  0
  -25.1395  -36.1673   25.0792 H   0  0  0  0  0  0
  -21.0090  -28.3442   24.1331 H   0  0  0  0  0  0
  -20.5840  -26.2422   23.3608 H   0  0  0  0  0  0
  -21.6734  -26.7581   22.1139 H   0  0  0  0  0  0
  -19.6902  -25.6312   21.1355 H   0  0  0  0  0  0
  -19.6767  -27.3241   20.6762 H   0  0  0  0  0  0
  -17.4276  -26.6836   21.4006 H   0  0  0  0  0  0
  -18.0319  -26.0210   22.9027 H   0  0  0  0  0  0
  -19.7935  -30.7472   24.2222 H   0  0  0  0  0  0
  -17.4985  -31.6333   24.5219 H   0  0  0  0  0  0
  -15.5354  -30.3037   23.7734 H   0  0  0  0  0  0
  -15.8724  -28.0970   22.6962 H   0  0  0  0  0  0
  -24.6102  -30.6801   25.7348 H   0  0  0  0  0  0
  -24.8811  -32.2691   26.4373 H   0  0  0  0  0  0
  -25.8044  -30.8764   26.9937 H   0  0  0  0  0  0
  -26.3135  -29.6478   24.1207 H   0  0  0  0  0  0
  -27.4373  -29.7219   25.4551 H   0  0  0  0  0  0
  -27.8954  -30.4109   23.9246 H   0  0  0  0  0  0
  -27.2967  -33.3624   26.1571 H   0  0  0  0  0  0
  -28.4173  -32.6346   25.0122 H   0  0  0  0  0  0
  -28.0706  -31.8286   26.5240 H   0  0  0  0  0  0
  -28.2578  -38.0125   24.7620 H   0  0  0  0  0  0
  -28.1176  -36.2663   24.6224 H   0  0  0  0  0  0
  -27.2327  -37.1378   25.8840 H   0  0  0  0  0  0
  -20.9462  -29.8842   21.6769 H   0  0  0  0  0  0
  -26.0125  -38.2727   24.1420 H   0  0  0  0  0  0
  -27.3432  -23.0202   21.2947 H   0  0  0  0  0  0
  -32.5936  -19.6663   22.2046 H   0  0  0  0  0  0
  -33.0307  -21.1647   23.1659 H   0  0  0  0  0  0
  -30.7419  -21.3404   24.0530 H   0  0  0  0  0  0
  -30.3534  -19.7718   23.2234 H   0  0  0  0  0  0
  -26.5726  -21.1080   21.8568 H   0  0  0  0  0  0
  -27.9833  -20.8303   22.8850 H   0  0  0  0  0  0
  -27.4245  -19.6208   21.7096 H   0  0  0  0  0  0
  -31.4408  -24.8761   22.5607 H   0  0  0  0  0  0
  -31.6343  -23.5883   23.7389 H   0  0  0  0  0  0
  -30.0681  -23.8598   22.9499 H   0  0  0  0  0  0
  -27.6716  -24.2309   18.9796 H   0  0  0  0  0  0
  -29.3424  -24.1973   19.3530 H   0  0  0  0  0  0
  -31.0448  -23.2745   20.7432 H   0  0  0  0  0  0
  -32.6080  -23.0028   21.4632 H   0  0  0  0  0  0
  -29.1071  -18.2613   21.8454 H   0  0  0  0  0  0
  -30.7473  -18.2541   21.4303 H   0  0  0  0  0  0
  -29.4041  -19.9089   19.2748 H   0  0  0  0  0  0
  -28.6277  -16.3754   20.4863 H   0  0  0  0  0  0
  -31.6345  -20.0481   20.3145 H   0  0  0  0  0  0
  -30.9060  -21.3955   19.8382 H   0  0  0  0  0  0
  1 25  1  0  0  0
  1 30  2  0  0  0
  1 82  1  0  0  0
  2  3  1  0  0  0
  2 25  1  0  0  0
  2 84  1  0  0  0
  2 85  1  0  0  0
  3  4  1  0  0  0
  3 86  1  0  0  0
  3 87  1  0  0  0
  4  5  1  0  0  0
  4 88  1  0  0  0
  4 89  1  0  0  0
  5  6  1  0  0  0
  5 26  1  0  0  0
  5 90  1  0  0  0
  6 25  1  0  0  0
  6 91  1  0  0  0
  6 92  1  0  0  0
  7  8  2  0  0  0
  7 26  1  0  0  0
  7 29  1  0  0  0
  8  9  1  0  0  0
  8 22  1  0  0  0
  9 10  1  0  0  0
  9 27  2  0  0  0
 10 11  2  0  0  0
 10 15  1  0  0  0
 11 12  1  0  0  0
 11 93  1  0  0  0
 12 13  2  0  0  0
 12 94  1  0  0  0
 13 14  1  0  0  0
 13 31  1  0  0  0
 14 15  2  0  0  0
 14 95  1  0  0  0
 15 96  1  0  0  0
 16 17  2  0  0  0
 16 21  1  0  0  0
 16 31  1  0  0  0
 17 18  1  0  0  0
 17 97  1  0  0  0
 18 19  2  0  0  0
 18 98  1  0  0  0
 19 20  1  0  0  0
 19 24  1  0  0  0
 20 21  2  0  0  0
 20 99  1  0  0  0
 21 23  1  0  0  0
 22 28  1  0  0  0
 22 32  2  0  0  0
 26 27  1  0  0  0
 28100  1  0  0  0
 28101  1  0  0  0
 29102  1  0  0  0
 29103  1  0  0  0
 33 34  1  0  0  0
 33 66  1  0  0  0
 33 70  2  0  0  0
 34 36  1  0  0  0
 34 59  1  0  0  0
 34104  1  0  0  0
 35 44  2  0  0  0
 35 45  1  0  0  0
 35 68  1  0  0  0
 36 56  1  0  0  0
 36105  1  0  0  0
 37 39  1  0  0  0
 37 47  1  0  0  0
 37 66  1  0  0  0
 37106  1  0  0  0
 38 43  2  0  0  0
 38 46  1  0  0  0
 38 47  1  0  0  0
 39 64  1  0  0  0
 39 67  2  0  0  0
 40 52  1  0  0  0
 40 53  2  0  0  0
 40 58  1  0  0  0
 41107  1  0  0  0
 41108  1  0  0  0
 41109  1  0  0  0
 41 48  1  0  0  0
 42 43  1  0  0  0
 42 66  1  0  0  0
 42110  1  0  0  0
 42111  1  0  0  0
 43 44  1  0  0  0
 44112  1  0  0  0
 45 46  2  0  0  0
 45113  1  0  0  0
 46114  1  0  0  0
 47115  1  0  0  0
 47116  1  0  0  0
 48 56  1  0  0  0
 48 65  1  0  0  0
 48117  1  0  0  0
 49 50  1  0  0  0
 49 53  1  0  0  0
 49 64  1  0  0  0
 49118  1  0  0  0
 50 51  1  0  0  0
 50119  1  0  0  0
 50120  1  0  0  0
 51 52  1  0  0  0
 51121  1  0  0  0
 51122  1  0  0  0
 52123  1  0  0  0
 52124  1  0  0  0
 53 54  1  0  0  0
 54 55  2  0  0  0
 54125  1  0  0  0
 55 57  1  0  0  0
 55126  1  0  0  0
 56 69  2  0  0  0
 57 58  2  0  0  0
 57127  1  0  0  0
 58128  1  0  0  0
 59 60  1  0  0  0
 59 61  1  0  0  0
 59 62  1  0  0  0
 60129  1  0  0  0
 60130  1  0  0  0
 60131  1  0  0  0
 61132  1  0  0  0
 61133  1  0  0  0
 61134  1  0  0  0
 62135  1  0  0  0
 62136  1  0  0  0
 62137  1  0  0  0
 63 65  1  0  0  0
 63138  1  0  0  0
 63139  1  0  0  0
 63140  1  0  0  0
 64141  1  0  0  0
 65142  1  0  0  0
 68 78  1  0  0  0
 71 72  2  0  0  0
 71 78  1  0  0  0
 71143  1  0  0  0
 72 76  1  0  0  0
 72 81  1  0  0  0
 73 74  1  0  0  0
 73 75  1  0  0  0
 73144  1  0  0  0
 73145  1  0  0  0
 74 75  1  0  0  0
 74146  1  0  0  0
 74147  1  0  0  0
 75 79  1  0  0  0
 75 83  1  0  0  0
 76148  1  0  0  0
 76149  1  0  0  0
 76150  1  0  0  0
 77 79  1  0  0  0
 77151  1  0  0  0
 77152  1  0  0  0
 77153  1  0  0  0
 78154  1  0  0  0
 78155  1  0  0  0
 79156  1  0  0  0
 79157  1  0  0  0
 80 82  1  0  0  0
 80158  1  0  0  0
 80159  1  0  0  0
 80 81  1  0  0  0
 81 83  1  0  0  0
 81160  1  0  0  0
 82161  1  0  0  0
 83162  1  0  0  0
 83163  1  0  0  0
M  CHG  1  83   1
M  ISO  4   1 100  68 101  78 101  82 100
M  END
> <chiral flag>
0

> <version>
0

> <s_m_source_file>
/data/baiqing/PycharmProjects/Reinvent-master-3.2/result/LINK_invent/BTK/process_docking_weight1_custom_sum_contain_oxygen_bond_distance_aromatic_linkinvent_7_9_3/rearranged_h_0110.sdf

> <i_m_source_file_index>
58

> <r_mmod_Potential_Energy-OPLS-2005>
1520.49523925781

> <r_mmod_Stretch_Energy-OPLS-2005>
681.858642578125

> <r_mmod_Bend_Energy-OPLS-2005>
631.510620117188

> <r_mmod_Torsional_Energy-OPLS-2005>
328.940460205078

> <r_mmod_Improper_Torsional_Energy-OPLS-2005>
5.42843532562256

> <r_mmod_Van_der_Waal_Energy-OPLS-2005>
108.724250793457

> <r_mmod_Electrostatic_Energy-OPLS-2005>
-289.054260253906

> <r_mmod_Solvation_Energy-OPLS-2005>
-468.406005859375

> <b_mmod_Minimization_Converged-OPLS-2005>
0

> <r_mmod_RMS_Derivative-OPLS-2005>
8.41183853149414

$$$$
59
                    3D
 Structure written by MMmdl.
174183  0  0  1  0            999 V2000
  -30.6916  -14.5227   20.4042 C   0  0  0  0  0  0
  -30.4038  -12.2945   19.4168 C   0  0  0  0  0  0
  -29.4700  -12.4368   18.1965 C   0  0  0  0  0  0
  -27.9963  -12.3352   18.6311 C   0  0  0  0  0  0
  -27.6491  -13.2064   19.8705 C   0  0  2  0  0  0
  -28.7119  -13.0750   20.9837 C   0  0  0  0  0  0
  -25.2560  -13.8127   20.5752 C   0  0  0  0  0  0
  -24.1811  -13.0389   20.9232 C   0  0  0  0  0  0
  -24.6379  -11.6879   20.8808 C   0  0  0  0  0  0
  -23.9046  -10.4258   21.0434 C   0  0  0  0  0  0
  -24.3590   -9.4163   21.9203 C   0  0  0  0  0  0
  -23.6254   -8.2194   22.0762 C   0  0  0  0  0  0
  -22.4238   -8.0247   21.3543 C   0  0  0  0  0  0
  -21.9882   -9.0228   20.4646 C   0  0  0  0  0  0
  -22.7221  -10.2110   20.3064 C   0  0  0  0  0  0
  -21.6838   -6.0710   22.5278 C   0  0  0  0  0  0
  -21.4004   -6.5620   23.8215 C   0  0  0  0  0  0
  -21.3654   -5.6774   24.9175 C   0  0  0  0  0  0
  -21.6045   -4.3041   24.7235 C   0  0  0  0  0  0
  -21.8813   -3.8129   23.4361 C   0  0  0  0  0  0
  -21.9188   -4.6940   22.3411 C   0  0  0  0  0  0
  -22.7842  -13.5197   21.1864 C   0  0  0  0  0  0
  -22.1661   -4.2120   21.0993 F   0  0  0  0  0  0
  -21.5632   -3.4540   25.7762 F   0  0  0  0  0  0
  -30.0212  -13.3404   20.3755 N   0  0  0  0  0  0
  -26.2992  -12.9295   20.3476 N   0  0  0  0  0  0
  -25.9324  -11.6464   20.5912 N   0  0  0  0  0  0
  -22.0451  -12.8198   22.0414 N   0  0  0  0  0  0
  -25.4240  -15.1820   20.4152 N   0  0  0  0  0  0
  -31.9183  -14.5868   20.2803 O   0  0  0  0  0  0
  -21.6603   -6.8843   21.4232 O   0  0  0  0  0  0
  -22.3549  -14.5511   20.6707 O   0  0  0  0  0  0
  -24.6178  -31.8607   23.2033 C   0  0  0  0  0  0
  -25.9041  -32.4771   23.8382 C   0  0  1  0  0  0
  -27.2531  -27.3966   20.1304 C   0  0  0  0  0  0
  -25.5903  -33.8584   24.2271 N   0  0  0  0  0  0
  -23.4101  -30.4765   21.5409 C   0  0  2  0  0  0
  -24.8660  -28.9265   20.1280 C   0  0  0  0  0  0
  -22.7423  -29.4581   22.4938 C   0  0  0  0  0  0
  -18.0287  -28.1310   22.8443 C   0  0  0  0  0  0
  -24.1496  -36.7333   23.2648 C   0  0  0  0  0  0
  -25.9437  -30.8160   21.3629 C   0  0  0  0  0  0
  -26.0240  -29.4426   20.7216 C   0  0  0  0  0  0
  -27.2229  -28.6860   20.7114 C   0  0  0  0  0  0
  -26.0798  -26.8951   19.5341 C   0  0  0  0  0  0
  -24.8886  -27.6506   19.5320 C   0  0  0  0  0  0
  -23.6276  -29.7971   20.1639 C   0  0  0  0  0  0
  -25.4121  -36.3083   24.0320 C   0  0  1  0  0  0
  -20.5879  -28.3612   23.1278 C   0  0  2  0  0  0
  -20.6775  -26.9327   22.5399 C   0  0  0  0  0  0
  -19.5776  -26.6319   21.5163 C   0  0  0  0  0  0
  -18.1946  -26.7861   22.1568 C   0  0  0  0  0  0
  -19.1538  -28.8784   23.2853 C   0  0  0  0  0  0
  -18.9471  -30.1380   23.8872 C   0  0  0  0  0  0
  -17.6481  -30.6536   24.0526 C   0  0  0  0  0  0
  -25.9065  -34.9450   23.5095 C   0  0  0  0  0  0
  -16.5364  -29.9028   23.6300 C   0  0  0  0  0  0
  -16.7283  -28.6448   23.0306 C   0  0  0  0  0  0
  -26.4445  -31.6585   25.0732 C   0  0  0  0  0  0
  -25.3704  -31.3788   26.1489 C   0  0  0  0  0  0
  -27.0278  -30.3032   24.6124 C   0  0  0  0  0  0
  -27.6007  -32.4338   25.7501 C   0  0  0  0  0  0
  -27.5574  -37.1798   24.8450 C   0  0  0  0  0  0
  -21.4147  -29.2990   22.3688 N   0  0  0  0  0  0
  -26.4301  -37.3763   23.9385 N   0  0  0  0  0  0
  -24.6755  -31.0687   22.0943 N   0  0  0  0  0  0
  -23.4175  -28.8099   23.2985 O   0  0  0  0  0  0
  -28.4393  -26.6937   20.0450 O   0  0  0  0  0  0
  -26.5598  -34.8886   22.4635 O   0  0  0  0  0  0
  -23.5366  -32.1344   23.7403 O   0  0  0  0  0  0
  -30.7301  -23.0772   19.1776 C   0  0  0  0  0  0
  -31.9341  -22.6182   18.6329 C   0  0  0  0  0  0
  -30.0448  -22.2966   20.1347 C   0  0  0  0  0  0
  -30.6351  -21.0419   20.5164 C   0  0  0  0  0  0
  -31.8791  -20.6910   19.9142 C   0  0  0  0  0  0
  -28.3021  -17.5327   17.8777 C   0  0  0  0  0  0
  -28.9738  -16.1679   17.6970 C   0  0  0  0  0  0
  -28.0052  -17.9523   19.3245 C   0  0  0  0  0  0
  -30.2477  -15.9642   18.5396 C   0  0  0  0  0  0
  -29.6781  -16.7256   20.8673 C   0  0  0  0  0  0
  -29.2547  -18.1032   20.2168 C   0  0  2  0  0  0
  -32.6807  -19.4506   20.2889 C   0  0  0  0  0  0
  -28.7185  -22.8284   20.7198 C   0  0  0  0  0  0
  -30.0461  -20.1257   21.6215 C   0  0  0  0  0  0
  -28.1328  -24.1700   20.1492 C   0  0  0  0  0  0
  -28.6181  -25.4874   20.8208 C   0  0  0  0  0  0
  -32.4957  -21.4524   18.9903 N   0  0  0  0  0  0
  -29.9704  -15.5880   19.9477 N   0  0  0  0  0  0
  -28.9709  -19.1797   21.2141 N   0  3  0  0  0  0
  -31.4475  -12.3660   19.1068 H   0  0  0  0  0  0
  -30.2837  -11.3057   19.8596 H   0  0  0  0  0  0
  -29.6864  -11.6614   17.4587 H   0  0  0  0  0  0
  -29.6366  -13.3789   17.6815 H   0  0  0  0  0  0
  -27.8013  -11.2867   18.8567 H   0  0  0  0  0  0
  -27.3358  -12.5888   17.7994 H   0  0  0  0  0  0
  -27.6583  -14.2421   19.5493 H   0  0  0  0  0  0
  -28.6968  -12.0760   21.4198 H   0  0  0  0  0  0
  -28.5216  -13.7731   21.8001 H   0  0  0  0  0  0
  -25.2730   -9.5624   22.4799 H   0  0  0  0  0  0
  -23.9954   -7.4576   22.7497 H   0  0  0  0  0  0
  -21.0795   -8.8738   19.8970 H   0  0  0  0  0  0
  -22.3658  -10.9646   19.6186 H   0  0  0  0  0  0
  -21.1984   -7.6128   23.9708 H   0  0  0  0  0  0
  -21.1489   -6.0515   25.9080 H   0  0  0  0  0  0
  -22.0601   -2.7587   23.2877 H   0  0  0  0  0  0
  -22.4035  -11.9850   22.4798 H   0  0  0  0  0  0
  -21.1082  -13.1278   22.2632 H   0  0  0  0  0  0
  -24.6465  -15.8290   20.4988 H   0  0  0  0  0  0
  -26.2727  -15.6163   20.0784 H   0  0  0  0  0  0
  -26.7124  -32.5490   23.1198 H   0  0  0  0  0  0
  -25.0077  -33.9778   25.0425 H   0  0  0  0  0  0
  -22.6975  -31.2890   21.3860 H   0  0  0  0  0  0
  -23.3710  -35.9713   23.3306 H   0  0  0  0  0  0
  -24.3642  -36.8953   22.2067 H   0  0  0  0  0  0
  -23.7274  -37.6561   23.6678 H   0  0  0  0  0  0
  -26.0561  -31.5650   20.5794 H   0  0  0  0  0  0
  -26.8346  -30.8875   21.9762 H   0  0  0  0  0  0
  -28.1271  -29.0846   21.1450 H   0  0  0  0  0  0
  -26.0881  -25.9266   19.0538 H   0  0  0  0  0  0
  -23.9986  -27.2447   19.0728 H   0  0  0  0  0  0
  -23.7568  -30.5650   19.4027 H   0  0  0  0  0  0
  -22.7520  -29.2219   19.8590 H   0  0  0  0  0  0
  -25.1273  -36.1979   25.0808 H   0  0  0  0  0  0
  -21.0005  -28.3220   24.1385 H   0  0  0  0  0  0
  -20.5667  -26.2198   23.3592 H   0  0  0  0  0  0
  -21.6642  -26.7348   22.1179 H   0  0  0  0  0  0
  -19.6952  -25.6226   21.1200 H   0  0  0  0  0  0
  -19.6762  -27.3099   20.6672 H   0  0  0  0  0  0
  -17.4191  -26.6555   21.3984 H   0  0  0  0  0  0
  -18.0401  -25.9979   22.8958 H   0  0  0  0  0  0
  -19.7962  -30.7172   24.2251 H   0  0  0  0  0  0
  -17.5043  -31.6238   24.5091 H   0  0  0  0  0  0
  -15.5361  -30.2925   23.7670 H   0  0  0  0  0  0
  -15.8654  -28.0799   22.7012 H   0  0  0  0  0  0
  -24.5843  -30.7154   25.7869 H   0  0  0  0  0  0
  -24.8967  -32.2992   26.4913 H   0  0  0  0  0  0
  -25.8046  -30.8992   27.0265 H   0  0  0  0  0  0
  -26.2858  -29.6820   24.1100 H   0  0  0  0  0  0
  -27.3943  -29.7241   25.4606 H   0  0  0  0  0  0
  -27.8714  -30.4310   23.9335 H   0  0  0  0  0  0
  -27.2618  -33.3643   26.2070 H   0  0  0  0  0  0
  -28.3855  -32.6890   25.0363 H   0  0  0  0  0  0
  -28.0623  -31.8463   26.5442 H   0  0  0  0  0  0
  -28.2520  -38.0136   24.7475 H   0  0  0  0  0  0
  -28.1113  -36.2654   24.6290 H   0  0  0  0  0  0
  -27.2327  -37.1492   25.8861 H   0  0  0  0  0  0
  -20.9307  -29.8824   21.6992 H   0  0  0  0  0  0
  -26.0174  -38.2844   24.1378 H   0  0  0  0  0  0
  -30.3723  -24.0365   18.8359 H   0  0  0  0  0  0
  -32.4616  -23.2033   17.8950 H   0  0  0  0  0  0
  -27.3643  -17.5340   17.3197 H   0  0  0  0  0  0
  -28.9216  -18.2947   17.4037 H   0  0  0  0  0  0
  -29.2479  -16.0810   16.6436 H   0  0  0  0  0  0
  -28.2524  -15.3703   17.8545 H   0  0  0  0  0  0
  -27.2783  -17.2942   19.8040 H   0  0  0  0  0  0
  -27.5055  -18.9199   19.2423 H   0  0  0  0  0  0
  -30.9110  -16.8251   18.4762 H   0  0  0  0  0  0
  -30.8261  -15.1816   18.0393 H   0  0  0  0  0  0
  -28.8772  -16.3782   21.5190 H   0  0  0  0  0  0
  -30.5421  -16.8860   21.5153 H   0  0  0  0  0  0
  -30.0563  -18.4778   19.5852 H   0  0  0  0  0  0
  -33.3317  -19.1408   19.4700 H   0  0  0  0  0  0
  -32.0517  -18.5973   20.5175 H   0  0  0  0  0  0
  -33.3088  -19.6470   21.1600 H   0  0  0  0  0  0
  -28.8072  -22.9060   21.8034 H   0  0  0  0  0  0
  -27.9792  -22.0530   20.5148 H   0  0  0  0  0  0
  -29.6537  -20.7513   22.4229 H   0  0  0  0  0  0
  -30.8276  -19.5549   22.1189 H   0  0  0  0  0  0
  -27.0549  -24.1364   20.3072 H   0  0  0  0  0  0
  -28.2348  -24.2145   19.0670 H   0  0  0  0  0  0
  -29.6927  -25.4147   20.9957 H   0  0  0  0  0  0
  -28.1737  -25.5971   21.8106 H   0  0  0  0  0  0
  -28.5994  -18.7590   22.0521 H   0  0  0  0  0  0
  -28.2412  -19.7552   20.8284 H   0  0  0  0  0  0
  1 25  1  0  0  0
  1 30  2  0  0  0
  1 88  1  0  0  0
  2  3  1  0  0  0
  2 25  1  0  0  0
  2 90  1  0  0  0
  2 91  1  0  0  0
  3  4  1  0  0  0
  3 92  1  0  0  0
  3 93  1  0  0  0
  4  5  1  0  0  0
  4 94  1  0  0  0
  4 95  1  0  0  0
  5  6  1  0  0  0
  5 26  1  0  0  0
  5 96  1  0  0  0
  6 25  1  0  0  0
  6 97  1  0  0  0
  6 98  1  0  0  0
  7  8  2  0  0  0
  7 26  1  0  0  0
  7 29  1  0  0  0
  8  9  1  0  0  0
  8 22  1  0  0  0
  9 10  1  0  0  0
  9 27  2  0  0  0
 10 11  2  0  0  0
 10 15  1  0  0  0
 11 12  1  0  0  0
 11 99  1  0  0  0
 12 13  2  0  0  0
 12100  1  0  0  0
 13 14  1  0  0  0
 13 31  1  0  0  0
 14 15  2  0  0  0
 14101  1  0  0  0
 15102  1  0  0  0
 16 17  2  0  0  0
 16 21  1  0  0  0
 16 31  1  0  0  0
 17 18  1  0  0  0
 17103  1  0  0  0
 18 19  2  0  0  0
 18104  1  0  0  0
 19 20  1  0  0  0
 19 24  1  0  0  0
 20 21  2  0  0  0
 20105  1  0  0  0
 21 23  1  0  0  0
 22 28  1  0  0  0
 22 32  2  0  0  0
 26 27  1  0  0  0
 28106  1  0  0  0
 28107  1  0  0  0
 29108  1  0  0  0
 29109  1  0  0  0
 33 34  1  0  0  0
 33 66  1  0  0  0
 33 70  2  0  0  0
 34 36  1  0  0  0
 34 59  1  0  0  0
 34110  1  0  0  0
 35 44  2  0  0  0
 35 45  1  0  0  0
 35 68  1  0  0  0
 36 56  1  0  0  0
 36111  1  0  0  0
 37 39  1  0  0  0
 37 47  1  0  0  0
 37 66  1  0  0  0
 37112  1  0  0  0
 38 43  2  0  0  0
 38 46  1  0  0  0
 38 47  1  0  0  0
 39 64  1  0  0  0
 39 67  2  0  0  0
 40 52  1  0  0  0
 40 53  2  0  0  0
 40 58  1  0  0  0
 41113  1  0  0  0
 41114  1  0  0  0
 41115  1  0  0  0
 41 48  1  0  0  0
 42 43  1  0  0  0
 42 66  1  0  0  0
 42116  1  0  0  0
 42117  1  0  0  0
 43 44  1  0  0  0
 44118  1  0  0  0
 45 46  2  0  0  0
 45119  1  0  0  0
 46120  1  0  0  0
 47121  1  0  0  0
 47122  1  0  0  0
 48 56  1  0  0  0
 48 65  1  0  0  0
 48123  1  0  0  0
 49 50  1  0  0  0
 49 53  1  0  0  0
 49 64  1  0  0  0
 49124  1  0  0  0
 50 51  1  0  0  0
 50125  1  0  0  0
 50126  1  0  0  0
 51 52  1  0  0  0
 51127  1  0  0  0
 51128  1  0  0  0
 52129  1  0  0  0
 52130  1  0  0  0
 53 54  1  0  0  0
 54 55  2  0  0  0
 54131  1  0  0  0
 55 57  1  0  0  0
 55132  1  0  0  0
 56 69  2  0  0  0
 57 58  2  0  0  0
 57133  1  0  0  0
 58134  1  0  0  0
 59 60  1  0  0  0
 59 61  1  0  0  0
 59 62  1  0  0  0
 60135  1  0  0  0
 60136  1  0  0  0
 60137  1  0  0  0
 61138  1  0  0  0
 61139  1  0  0  0
 61140  1  0  0  0
 62141  1  0  0  0
 62142  1  0  0  0
 62143  1  0  0  0
 63 65  1  0  0  0
 63144  1  0  0  0
 63145  1  0  0  0
 63146  1  0  0  0
 64147  1  0  0  0
 65148  1  0  0  0
 68 86  1  0  0  0
 71 72  2  0  0  0
 71 73  1  0  0  0
 71149  1  0  0  0
 72 87  1  0  0  0
 72150  1  0  0  0
 73 74  2  0  0  0
 73 83  1  0  0  0
 74 75  1  0  0  0
 74 84  1  0  0  0
 75 82  1  0  0  0
 75 87  2  0  0  0
 76 77  1  0  0  0
 76 78  1  0  0  0
 76151  1  0  0  0
 76152  1  0  0  0
 77 79  1  0  0  0
 77153  1  0  0  0
 77154  1  0  0  0
 78 81  1  0  0  0
 78155  1  0  0  0
 78156  1  0  0  0
 79 88  1  0  0  0
 79157  1  0  0  0
 79158  1  0  0  0
 80 81  1  0  0  0
 80 88  1  0  0  0
 80159  1  0  0  0
 80160  1  0  0  0
 81 89  1  0  0  0
 81161  1  0  0  0
 82162  1  0  0  0
 82163  1  0  0  0
 82164  1  0  0  0
 83 85  1  0  0  0
 83165  1  0  0  0
 83166  1  0  0  0
 84 89  1  0  0  0
 84167  1  0  0  0
 84168  1  0  0  0
 85 86  1  0  0  0
 85169  1  0  0  0
 85170  1  0  0  0
 86171  1  0  0  0
 86172  1  0  0  0
 89173  1  0  0  0
 89174  1  0  0  0
M  CHG  1  89   1
M  ISO  4   1 100  68 101  86 101  88 100
M  END
> <chiral flag>
0

> <version>
0

> <s_m_source_file>
/data/baiqing/PycharmProjects/Reinvent-master-3.2/result/LINK_invent/BTK/process_docking_weight1_custom_sum_contain_oxygen_bond_distance_aromatic_linkinvent_7_9_3/rearranged_h_0110.sdf

> <i_m_source_file_index>
59

> <r_mmod_Potential_Energy-OPLS-2005>
-41.3756294250488

> <r_mmod_Stretch_Energy-OPLS-2005>
54.668098449707

> <r_mmod_Bend_Energy-OPLS-2005>
140.392318725586

> <r_mmod_Torsional_Energy-OPLS-2005>
371.721466064453

> <r_mmod_Improper_Torsional_Energy-OPLS-2005>
25.0182037353516

> <r_mmod_Van_der_Waal_Energy-OPLS-2005>
142.423965454102

> <r_mmod_Electrostatic_Energy-OPLS-2005>
-332.570343017578

> <r_mmod_Solvation_Energy-OPLS-2005>
-476.348052978516

> <b_mmod_Minimization_Converged-OPLS-2005>
0

> <r_mmod_RMS_Derivative-OPLS-2005>
5.22816133499146

$$$$
60
                    3D
 Structure written by MMmdl.
154162  0  0  1  0            999 V2000
  -30.3823  -15.3771   20.3701 C   0  0  0  0  0  0
  -30.4329  -12.8897   19.5395 C   0  0  0  0  0  0
  -29.5345  -12.6189   18.3030 C   0  0  0  0  0  0
  -28.0951  -12.3013   18.7371 C   0  0  0  0  0  0
  -27.6036  -13.2872   19.8242 C   0  0  2  0  0  0
  -28.6284  -13.5040   20.9597 C   0  0  0  0  0  0
  -25.2316  -13.8268   20.5738 C   0  0  0  0  0  0
  -24.1692  -13.0431   20.9270 C   0  0  0  0  0  0
  -24.6373  -11.6936   20.8770 C   0  0  0  0  0  0
  -23.9090  -10.4286   21.0397 C   0  0  0  0  0  0
  -24.3629   -9.4199   21.9182 C   0  0  0  0  0  0
  -23.6287   -8.2241   22.0756 C   0  0  0  0  0  0
  -22.4281   -8.0278   21.3533 C   0  0  0  0  0  0
  -21.9915   -9.0257   20.4640 C   0  0  0  0  0  0
  -22.7259  -10.2132   20.3044 C   0  0  0  0  0  0
  -21.6855   -6.0726   22.5280 C   0  0  0  0  0  0
  -21.4018   -6.5631   23.8210 C   0  0  0  0  0  0
  -21.3660   -5.6786   24.9165 C   0  0  0  0  0  0
  -21.6039   -4.3049   24.7226 C   0  0  0  0  0  0
  -21.8814   -3.8140   23.4344 C   0  0  0  0  0  0
  -21.9187   -4.6955   22.3396 C   0  0  0  0  0  0
  -22.7705  -13.5170   21.1939 C   0  0  0  0  0  0
  -22.1654   -4.2138   21.0980 F   0  0  0  0  0  0
  -21.5627   -3.4536   25.7737 F   0  0  0  0  0  0
  -29.8537  -14.0405   20.3396 N   0  0  0  0  0  0
  -26.2757  -12.9570   20.3221 N   0  0  0  0  0  0
  -25.9317  -11.6666   20.5721 N   0  0  0  0  0  0
  -22.0369  -12.8132   22.0489 N   0  0  0  0  0  0
  -25.3915  -15.2009   20.4155 N   0  0  0  0  0  0
  -31.6021  -15.3799   20.1327 O   0  0  0  0  0  0
  -21.6638   -6.8877   21.4246 O   0  0  0  0  0  0
  -22.3371  -14.5467   20.6787 O   0  0  0  0  0  0
  -24.6663  -31.8136   23.1607 C   0  0  0  0  0  0
  -25.9323  -32.4540   23.8087 C   0  0  1  0  0  0
  -27.2256  -26.8447   20.2071 C   0  0  0  0  0  0
  -25.5962  -33.8358   24.1987 N   0  0  0  0  0  0
  -23.4875  -30.4207   21.5097 C   0  0  2  0  0  0
  -24.9473  -28.7901   20.1074 C   0  0  0  0  0  0
  -22.7687  -29.4371   22.4709 C   0  0  0  0  0  0
  -18.0327  -28.1433   22.8420 C   0  0  0  0  0  0
  -24.1496  -36.7212   23.2645 C   0  0  0  0  0  0
  -26.0580  -30.5949   21.4036 C   0  0  0  0  0  0
  -26.1271  -29.1745   20.7544 C   0  0  0  0  0  0
  -27.2513  -28.2207   20.7862 C   0  0  0  0  0  0
  -26.0220  -26.6393   19.4899 C   0  0  0  0  0  0
  -24.9251  -27.5457   19.4551 C   0  0  0  0  0  0
  -23.7366  -29.7285   20.1386 C   0  0  0  0  0  0
  -25.4131  -36.2930   24.0281 C   0  0  1  0  0  0
  -20.5944  -28.3772   23.1173 C   0  0  2  0  0  0
  -20.6809  -26.9447   22.5401 C   0  0  0  0  0  0
  -19.5796  -26.6381   21.5209 C   0  0  0  0  0  0
  -18.1962  -26.7952   22.1591 C   0  0  0  0  0  0
  -19.1594  -28.8918   23.2781 C   0  0  0  0  0  0
  -18.9509  -30.1489   23.8842 C   0  0  0  0  0  0
  -17.6513  -30.6602   24.0560 C   0  0  0  0  0  0
  -25.9105  -34.9320   23.4960 C   0  0  0  0  0  0
  -16.5393  -29.9088   23.6365 C   0  0  0  0  0  0
  -16.7319  -28.6535   23.0335 C   0  0  0  0  0  0
  -26.4558  -31.6514   25.0657 C   0  0  0  0  0  0
  -25.3646  -31.3796   26.1285 C   0  0  0  0  0  0
  -27.0483  -30.2870   24.6434 C   0  0  0  0  0  0
  -27.6014  -32.4358   25.7472 C   0  0  0  0  0  0
  -27.5561  -37.1736   24.8444 C   0  0  0  0  0  0
  -21.4352  -29.3040   22.3501 N   0  0  0  0  0  0
  -26.4257  -37.3681   23.9417 N   0  0  0  0  0  0
  -24.7591  -30.9710   22.0788 N   0  0  0  0  0  0
  -23.4196  -28.7933   23.2977 O   0  0  0  0  0  0
  -28.2190  -25.7116   20.3501 O   0  0  0  0  0  0
  -26.5743  -34.8878   22.4563 O   0  0  0  0  0  0
  -23.5724  -32.1169   23.6638 O   0  0  0  0  0  0
  -30.7016  -19.1050   19.8365 C   0  0  0  0  0  0
  -28.7374  -19.4164   20.6750 C   0  0  0  0  0  0
  -29.6402  -18.2930   20.3710 C   0  0  0  0  0  0
  -30.4256  -20.4942   19.8152 C   0  0  0  0  0  0
  -32.3466  -21.0645   18.2651 C   0  0  0  0  0  0
  -32.0910  -22.2898   20.4490 C   0  0  0  0  0  0
  -28.5766  -22.4303   20.7638 C   0  0  0  0  0  0
  -28.2142  -24.0601   19.9563 C   0  0  0  0  0  0
  -31.3415  -21.5784   19.3107 C   0  0  0  0  0  0
  -29.1630  -20.8483   20.3671 N   0  0  0  0  0  0
  -29.5760  -16.6453   20.5129 N   0  0  0  0  0  0
  -31.4459  -13.1117   19.2010 H   0  0  0  0  0  0
  -30.5229  -11.9937   20.1556 H   0  0  0  0  0  0
  -29.9377  -11.8065   17.6982 H   0  0  0  0  0  0
  -29.5266  -13.5056   17.6671 H   0  0  0  0  0  0
  -28.0836  -11.2857   19.1356 H   0  0  0  0  0  0
  -27.4219  -12.3027   17.8798 H   0  0  0  0  0  0
  -27.5015  -14.2425   19.3064 H   0  0  0  0  0  0
  -28.8125  -12.5809   21.5096 H   0  0  0  0  0  0
  -28.2416  -14.2249   21.6827 H   0  0  0  0  0  0
  -25.2777   -9.5668   22.4770 H   0  0  0  0  0  0
  -23.9983   -7.4624   22.7489 H   0  0  0  0  0  0
  -21.0846   -8.8785   19.8953 H   0  0  0  0  0  0
  -22.3727  -10.9665   19.6153 H   0  0  0  0  0  0
  -21.2023   -7.6139   23.9712 H   0  0  0  0  0  0
  -21.1484   -6.0515   25.9066 H   0  0  0  0  0  0
  -22.0595   -2.7605   23.2852 H   0  0  0  0  0  0
  -22.4010  -11.9782   22.4840 H   0  0  0  0  0  0
  -21.0989  -13.1147   22.2734 H   0  0  0  0  0  0
  -24.6134  -15.8461   20.5067 H   0  0  0  0  0  0
  -26.2220  -15.6394   20.0406 H   0  0  0  0  0  0
  -26.7361  -32.5068   23.0763 H   0  0  0  0  0  0
  -25.0046  -33.9437   25.0094 H   0  0  0  0  0  0
  -22.8060  -31.2550   21.3266 H   0  0  0  0  0  0
  -23.3765  -35.9528   23.3225 H   0  0  0  0  0  0
  -24.3575  -36.8968   22.2079 H   0  0  0  0  0  0
  -23.7254  -37.6361   23.6789 H   0  0  0  0  0  0
  -26.2341  -31.3281   20.6141 H   0  0  0  0  0  0
  -26.9192  -30.6663   22.0553 H   0  0  0  0  0  0
  -28.1304  -28.5089   21.3450 H   0  0  0  0  0  0
  -25.8862  -25.6945   18.9843 H   0  0  0  0  0  0
  -24.0313  -27.2457   18.9228 H   0  0  0  0  0  0
  -23.8985  -30.4975   19.3824 H   0  0  0  0  0  0
  -22.8484  -29.1867   19.8103 H   0  0  0  0  0  0
  -25.1309  -36.1684   25.0767 H   0  0  0  0  0  0
  -21.0031  -28.3399   24.1302 H   0  0  0  0  0  0
  -20.5720  -26.2379   23.3638 H   0  0  0  0  0  0
  -21.6665  -26.7433   22.1182 H   0  0  0  0  0  0
  -19.6982  -25.6285   21.1266 H   0  0  0  0  0  0
  -19.6766  -27.3162   20.6723 H   0  0  0  0  0  0
  -17.4231  -26.6703   21.3991 H   0  0  0  0  0  0
  -18.0338  -26.0120   22.9026 H   0  0  0  0  0  0
  -19.7999  -30.7304   24.2189 H   0  0  0  0  0  0
  -17.5071  -31.6281   24.5155 H   0  0  0  0  0  0
  -15.5394  -30.2973   23.7746 H   0  0  0  0  0  0
  -15.8710  -28.0850   22.7056 H   0  0  0  0  0  0
  -24.5873  -30.7130   25.7524 H   0  0  0  0  0  0
  -24.8814  -32.3025   26.4507 H   0  0  0  0  0  0
  -25.7810  -30.9066   27.0185 H   0  0  0  0  0  0
  -26.3166  -29.6515   24.1440 H   0  0  0  0  0  0
  -27.4017  -29.7245   25.5076 H   0  0  0  0  0  0
  -27.9081  -30.4049   23.9845 H   0  0  0  0  0  0
  -27.2564  -33.3732   26.1840 H   0  0  0  0  0  0
  -28.3920  -32.6799   25.0373 H   0  0  0  0  0  0
  -28.0573  -31.8651   26.5578 H   0  0  0  0  0  0
  -28.2445  -38.0146   24.7528 H   0  0  0  0  0  0
  -28.1182  -36.2649   24.6185 H   0  0  0  0  0  0
  -27.2296  -37.1251   25.8851 H   0  0  0  0  0  0
  -20.9614  -29.8775   21.6661 H   0  0  0  0  0  0
  -26.0088  -38.2709   24.1504 H   0  0  0  0  0  0
  -31.6355  -18.6973   19.4764 H   0  0  0  0  0  0
  -27.7685  -19.3225   21.1480 H   0  0  0  0  0  0
  -31.8369  -20.5297   17.4629 H   0  0  0  0  0  0
  -33.0795  -20.3864   18.7042 H   0  0  0  0  0  0
  -32.8973  -21.8880   17.8102 H   0  0  0  0  0  0
  -31.4100  -22.7886   21.1344 H   0  0  0  0  0  0
  -32.7681  -23.0532   20.0640 H   0  0  0  0  0  0
  -32.6858  -21.5843   21.0303 H   0  0  0  0  0  0
  -27.6519  -22.2183   21.3001 H   0  0  0  0  0  0
  -29.2394  -22.7236   21.5765 H   0  0  0  0  0  0
  -27.2136  -23.9116   19.5511 H   0  0  0  0  0  0
  -28.8507  -24.0489   19.0716 H   0  0  0  0  0  0
  -30.7275  -22.3243   18.8035 H   0  0  0  0  0  0
  -28.6373  -16.3571   20.7561 H   0  0  0  0  0  0
  1 25  1  0  0  0
  1 30  2  0  0  0
  1 81  1  0  0  0
  2  3  1  0  0  0
  2 25  1  0  0  0
  2 82  1  0  0  0
  2 83  1  0  0  0
  3  4  1  0  0  0
  3 84  1  0  0  0
  3 85  1  0  0  0
  4  5  1  0  0  0
  4 86  1  0  0  0
  4 87  1  0  0  0
  5  6  1  0  0  0
  5 26  1  0  0  0
  5 88  1  0  0  0
  6 25  1  0  0  0
  6 89  1  0  0  0
  6 90  1  0  0  0
  7  8  2  0  0  0
  7 26  1  0  0  0
  7 29  1  0  0  0
  8  9  1  0  0  0
  8 22  1  0  0  0
  9 10  1  0  0  0
  9 27  2  0  0  0
 10 11  2  0  0  0
 10 15  1  0  0  0
 11 12  1  0  0  0
 11 91  1  0  0  0
 12 13  2  0  0  0
 12 92  1  0  0  0
 13 14  1  0  0  0
 13 31  1  0  0  0
 14 15  2  0  0  0
 14 93  1  0  0  0
 15 94  1  0  0  0
 16 17  2  0  0  0
 16 21  1  0  0  0
 16 31  1  0  0  0
 17 18  1  0  0  0
 17 95  1  0  0  0
 18 19  2  0  0  0
 18 96  1  0  0  0
 19 20  1  0  0  0
 19 24  1  0  0  0
 20 21  2  0  0  0
 20 97  1  0  0  0
 21 23  1  0  0  0
 22 28  1  0  0  0
 22 32  2  0  0  0
 26 27  1  0  0  0
 28 98  1  0  0  0
 28 99  1  0  0  0
 29100  1  0  0  0
 29101  1  0  0  0
 33 34  1  0  0  0
 33 66  1  0  0  0
 33 70  2  0  0  0
 34 36  1  0  0  0
 34 59  1  0  0  0
 34102  1  0  0  0
 35 44  2  0  0  0
 35 45  1  0  0  0
 35 68  1  0  0  0
 36 56  1  0  0  0
 36103  1  0  0  0
 37 39  1  0  0  0
 37 47  1  0  0  0
 37 66  1  0  0  0
 37104  1  0  0  0
 38 43  2  0  0  0
 38 46  1  0  0  0
 38 47  1  0  0  0
 39 64  1  0  0  0
 39 67  2  0  0  0
 40 52  1  0  0  0
 40 53  2  0  0  0
 40 58  1  0  0  0
 41105  1  0  0  0
 41106  1  0  0  0
 41107  1  0  0  0
 41 48  1  0  0  0
 42 43  1  0  0  0
 42 66  1  0  0  0
 42108  1  0  0  0
 42109  1  0  0  0
 43 44  1  0  0  0
 44110  1  0  0  0
 45 46  2  0  0  0
 45111  1  0  0  0
 46112  1  0  0  0
 47113  1  0  0  0
 47114  1  0  0  0
 48 56  1  0  0  0
 48 65  1  0  0  0
 48115  1  0  0  0
 49 50  1  0  0  0
 49 53  1  0  0  0
 49 64  1  0  0  0
 49116  1  0  0  0
 50 51  1  0  0  0
 50117  1  0  0  0
 50118  1  0  0  0
 51 52  1  0  0  0
 51119  1  0  0  0
 51120  1  0  0  0
 52121  1  0  0  0
 52122  1  0  0  0
 53 54  1  0  0  0
 54 55  2  0  0  0
 54123  1  0  0  0
 55 57  1  0  0  0
 55124  1  0  0  0
 56 69  2  0  0  0
 57 58  2  0  0  0
 57125  1  0  0  0
 58126  1  0  0  0
 59 60  1  0  0  0
 59 61  1  0  0  0
 59 62  1  0  0  0
 60127  1  0  0  0
 60128  1  0  0  0
 60129  1  0  0  0
 61130  1  0  0  0
 61131  1  0  0  0
 61132  1  0  0  0
 62133  1  0  0  0
 62134  1  0  0  0
 62135  1  0  0  0
 63 65  1  0  0  0
 63136  1  0  0  0
 63137  1  0  0  0
 63138  1  0  0  0
 64139  1  0  0  0
 65140  1  0  0  0
 68 78  1  0  0  0
 71 73  1  0  0  0
 71 74  2  0  0  0
 71141  1  0  0  0
 72 73  2  0  0  0
 72 80  1  0  0  0
 72142  1  0  0  0
 73 81  1  0  0  0
 74 79  1  0  0  0
 74 80  1  0  0  0
 75143  1  0  0  0
 75144  1  0  0  0
 75145  1  0  0  0
 75 79  1  0  0  0
 76 79  1  0  0  0
 76146  1  0  0  0
 76147  1  0  0  0
 76148  1  0  0  0
 77 78  1  0  0  0
 77 80  1  0  0  0
 77149  1  0  0  0
 77150  1  0  0  0
 78151  1  0  0  0
 78152  1  0  0  0
 79153  1  0  0  0
 81154  1  0  0  0
M  ISO  4   1 100  68 101  78 101  81 100
M  END
> <chiral flag>
0

> <version>
0

> <s_m_source_file>
/data/baiqing/PycharmProjects/Reinvent-master-3.2/result/LINK_invent/BTK/process_docking_weight1_custom_sum_contain_oxygen_bond_distance_aromatic_linkinvent_7_9_3/rearranged_h_0110.sdf

> <i_m_source_file_index>
60

> <r_mmod_Potential_Energy-OPLS-2005>
1587.36145019531

> <r_mmod_Stretch_Energy-OPLS-2005>
710.054443359375

> <r_mmod_Bend_Energy-OPLS-2005>
525.717529296875

> <r_mmod_Torsional_Energy-OPLS-2005>
235.833526611328

> <r_mmod_Improper_Torsional_Energy-OPLS-2005>
5.12999629974365

> <r_mmod_Van_der_Waal_Energy-OPLS-2005>
105.562698364258

> <r_mmod_Electrostatic_Energy-OPLS-2005>
-366.561157226562

> <r_mmod_Solvation_Energy-OPLS-2005>
-218.222412109375

> <b_mmod_Minimization_Converged-OPLS-2005>
0

> <r_mmod_RMS_Derivative-OPLS-2005>
3.28113293647766

$$$$
61
                    3D
 Structure written by MMmdl.
154162  0  0  1  0            999 V2000
  -30.5746  -14.8535   20.4412 C   0  0  0  0  0  0
  -30.4363  -12.5271   19.4821 C   0  0  0  0  0  0
  -29.5145  -12.5189   18.2422 C   0  0  0  0  0  0
  -28.0441  -12.3237   18.6599 C   0  0  0  0  0  0
  -27.6341  -13.2412   19.8423 C   0  0  2  0  0  0
  -28.6793  -13.2255   20.9776 C   0  0  0  0  0  0
  -25.2479  -13.8207   20.5708 C   0  0  0  0  0  0
  -24.1787  -13.0440   20.9229 C   0  0  0  0  0  0
  -24.6392  -11.6923   20.8756 C   0  0  0  0  0  0
  -23.9069  -10.4297   21.0409 C   0  0  0  0  0  0
  -24.3619   -9.4209   21.9187 C   0  0  0  0  0  0
  -23.6297   -8.2240   22.0750 C   0  0  0  0  0  0
  -22.4278   -8.0279   21.3541 C   0  0  0  0  0  0
  -21.9914   -9.0253   20.4643 C   0  0  0  0  0  0
  -22.7242  -10.2136   20.3056 C   0  0  0  0  0  0
  -21.6856   -6.0735   22.5281 C   0  0  0  0  0  0
  -21.4015   -6.5637   23.8215 C   0  0  0  0  0  0
  -21.3661   -5.6788   24.9177 C   0  0  0  0  0  0
  -21.6044   -4.3051   24.7225 C   0  0  0  0  0  0
  -21.8818   -3.8144   23.4344 C   0  0  0  0  0  0
  -21.9196   -4.6963   22.3403 C   0  0  0  0  0  0
  -22.7808  -13.5217   21.1886 C   0  0  0  0  0  0
  -22.1663   -4.2150   21.0981 F   0  0  0  0  0  0
  -21.5631   -3.4534   25.7735 F   0  0  0  0  0  0
  -29.9641  -13.6109   20.3817 N   0  0  0  0  0  0
  -26.2904  -12.9430   20.3257 N   0  0  0  0  0  0
  -25.9323  -11.6563   20.5741 N   0  0  0  0  0  0
  -22.0452  -12.8207   22.0440 N   0  0  0  0  0  0
  -25.4142  -15.1935   20.4124 N   0  0  0  0  0  0
  -31.7769  -14.9305   20.1701 O   0  0  0  0  0  0
  -21.6640   -6.8876   21.4242 O   0  0  0  0  0  0
  -22.3494  -14.5526   20.6737 O   0  0  0  0  0  0
  -24.6393  -31.8479   23.1920 C   0  0  0  0  0  0
  -25.9192  -32.4709   23.8288 C   0  0  1  0  0  0
  -27.2189  -27.1814   20.1385 C   0  0  0  0  0  0
  -25.5962  -33.8513   24.2216 N   0  0  0  0  0  0
  -23.4388  -30.4691   21.5374 C   0  0  2  0  0  0
  -24.8849  -28.9006   20.1121 C   0  0  0  0  0  0
  -22.7539  -29.4568   22.4886 C   0  0  0  0  0  0
  -18.0297  -28.1387   22.8469 C   0  0  0  0  0  0
  -24.1493  -36.7258   23.2641 C   0  0  0  0  0  0
  -25.9906  -30.7357   21.3820 C   0  0  0  0  0  0
  -26.0603  -29.3506   20.7248 C   0  0  0  0  0  0
  -27.2265  -28.5063   20.7209 C   0  0  0  0  0  0
  -26.0145  -26.8189   19.4941 C   0  0  0  0  0  0
  -24.8724  -27.6466   19.4837 C   0  0  0  0  0  0
  -23.6607  -29.7989   20.1558 C   0  0  0  0  0  0
  -25.4122  -36.3041   24.0322 C   0  0  1  0  0  0
  -20.5905  -28.3709   23.1245 C   0  0  2  0  0  0
  -20.6783  -26.9420   22.5401 C   0  0  0  0  0  0
  -19.5763  -26.6379   21.5202 C   0  0  0  0  0  0
  -18.1941  -26.7924   22.1613 C   0  0  0  0  0  0
  -19.1553  -28.8865   23.2847 C   0  0  0  0  0  0
  -18.9474  -30.1462   23.8874 C   0  0  0  0  0  0
  -17.6473  -30.6587   24.0554 C   0  0  0  0  0  0
  -25.9070  -34.9415   23.5074 C   0  0  0  0  0  0
  -16.5362  -29.9081   23.6330 C   0  0  0  0  0  0
  -16.7283  -28.6499   23.0349 C   0  0  0  0  0  0
  -26.4534  -31.6554   25.0707 C   0  0  0  0  0  0
  -25.3741  -31.3714   26.1417 C   0  0  0  0  0  0
  -27.0391  -30.2961   24.6243 C   0  0  0  0  0  0
  -27.6078  -32.4303   25.7486 C   0  0  0  0  0  0
  -27.5578  -37.1786   24.8466 C   0  0  0  0  0  0
  -21.4240  -29.3044   22.3628 N   0  0  0  0  0  0
  -26.4287  -37.3754   23.9413 N   0  0  0  0  0  0
  -24.7093  -31.0378   22.0928 N   0  0  0  0  0  0
  -23.4204  -28.8116   23.3022 O   0  0  0  0  0  0
  -28.3205  -26.2672   20.1901 O   0  0  0  0  0  0
  -26.5648  -34.8907   22.4647 O   0  0  0  0  0  0
  -23.5527  -32.1336   23.7177 O   0  0  0  0  0  0
  -29.2791  -18.7645   20.2173 C   0  0  0  0  0  0
  -29.9922  -22.6085   19.7684 C   0  0  0  0  0  0
  -27.8796  -22.2102   20.9965 C   0  0  0  0  0  0
  -29.4906  -24.0673   19.3115 C   0  0  0  0  0  0
  -27.9738  -23.8044   21.2390 C   0  0  0  0  0  0
  -28.9375  -21.4763   20.0675 C   0  0  2  0  0  0
  -28.2314  -24.7384   19.9949 C   0  0  1  0  0  0
  -30.2089  -17.5164   20.7034 C   0  0  0  0  0  0
  -29.5390  -20.1097   20.5387 N   0  0  0  0  0  0
  -29.8038  -16.0141   20.6147 N   0  0  0  0  0  0
  -28.3146  -18.4887   19.5037 O   0  0  0  0  0  0
  -31.4732  -12.6712   19.1746 H   0  0  0  0  0  0
  -30.4078  -11.5642   19.9942 H   0  0  0  0  0  0
  -29.8149  -11.7303   17.5510 H   0  0  0  0  0  0
  -29.6203  -13.4595   17.6992 H   0  0  0  0  0  0
  -27.9210  -11.2790   18.9467 H   0  0  0  0  0  0
  -27.3830  -12.4847   17.8075 H   0  0  0  0  0  0
  -27.6116  -14.2523   19.4356 H   0  0  0  0  0  0
  -28.7443  -12.2387   21.4386 H   0  0  0  0  0  0
  -28.3974  -13.9195   21.7709 H   0  0  0  0  0  0
  -25.2758   -9.5692   22.4768 H   0  0  0  0  0  0
  -24.0009   -7.4629   22.7465 H   0  0  0  0  0  0
  -21.0847   -8.8771   19.8947 H   0  0  0  0  0  0
  -22.3694  -10.9676   19.6166 H   0  0  0  0  0  0
  -21.2002   -7.6143   23.9718 H   0  0  0  0  0  0
  -21.1487   -6.0516   25.9082 H   0  0  0  0  0  0
  -22.0596   -2.7606   23.2843 H   0  0  0  0  0  0
  -22.4070  -11.9869   22.4827 H   0  0  0  0  0  0
  -21.1067  -13.1230   22.2641 H   0  0  0  0  0  0
  -24.6404  -15.8407   20.5176 H   0  0  0  0  0  0
  -26.2499  -15.6368   20.0533 H   0  0  0  0  0  0
  -26.7255  -32.5328   23.1016 H   0  0  0  0  0  0
  -25.0119  -33.9629   25.0372 H   0  0  0  0  0  0
  -22.7394  -31.2942   21.3872 H   0  0  0  0  0  0
  -23.3763  -35.9582   23.3288 H   0  0  0  0  0  0
  -24.3585  -36.8903   22.2059 H   0  0  0  0  0  0
  -23.7241  -37.6449   23.6681 H   0  0  0  0  0  0
  -26.1397  -31.4916   20.6095 H   0  0  0  0  0  0
  -26.8645  -30.7851   22.0199 H   0  0  0  0  0  0
  -28.1262  -28.8499   21.2117 H   0  0  0  0  0  0
  -25.9128  -25.8703   18.9933 H   0  0  0  0  0  0
  -23.9745  -27.2983   18.9924 H   0  0  0  0  0  0
  -23.7960  -30.5739   19.4004 H   0  0  0  0  0  0
  -22.7751  -29.2407   19.8459 H   0  0  0  0  0  0
  -25.1308  -36.1874   25.0814 H   0  0  0  0  0  0
  -20.9988  -28.3294   24.1369 H   0  0  0  0  0  0
  -20.5672  -26.2325   23.3613 H   0  0  0  0  0  0
  -21.6654  -26.7430   22.1211 H   0  0  0  0  0  0
  -19.6931  -25.6285   21.1245 H   0  0  0  0  0  0
  -19.6704  -27.3178   20.6722 H   0  0  0  0  0  0
  -17.4212  -26.6659   21.4014 H   0  0  0  0  0  0
  -18.0350  -26.0072   22.9018 H   0  0  0  0  0  0
  -19.7954  -30.7276   24.2237 H   0  0  0  0  0  0
  -17.5032  -31.6264   24.5164 H   0  0  0  0  0  0
  -15.5363  -30.2979   23.7669 H   0  0  0  0  0  0
  -15.8679  -28.0812   22.7078 H   0  0  0  0  0  0
  -24.5940  -30.7035   25.7747 H   0  0  0  0  0  0
  -24.8902  -32.2878   26.4804 H   0  0  0  0  0  0
  -25.8055  -30.8926   27.0217 H   0  0  0  0  0  0
  -26.2988  -29.6681   24.1270 H   0  0  0  0  0  0
  -27.4054  -29.7256   25.4787 H   0  0  0  0  0  0
  -27.8877  -30.4214   23.9516 H   0  0  0  0  0  0
  -27.2694  -33.3627   26.2017 H   0  0  0  0  0  0
  -28.3916  -32.6819   25.0329 H   0  0  0  0  0  0
  -28.0715  -31.8451   26.5437 H   0  0  0  0  0  0
  -28.2587  -38.0092   24.7524 H   0  0  0  0  0  0
  -28.1086  -36.2623   24.6280 H   0  0  0  0  0  0
  -27.2298  -37.1422   25.8870 H   0  0  0  0  0  0
  -20.9445  -29.8754   21.6808 H   0  0  0  0  0  0
  -26.0154  -38.2823   24.1417 H   0  0  0  0  0  0
  -30.5894  -22.7411   20.6716 H   0  0  0  0  0  0
  -30.6967  -22.2401   19.0225 H   0  0  0  0  0  0
  -26.8901  -21.9962   20.5911 H   0  0  0  0  0  0
  -27.8848  -21.7272   21.9739 H   0  0  0  0  0  0
  -29.3150  -24.0499   18.2352 H   0  0  0  0  0  0
  -30.3362  -24.7445   19.4382 H   0  0  0  0  0  0
  -28.7691  -23.9892   21.9623 H   0  0  0  0  0  0
  -27.0594  -24.1320   21.7344 H   0  0  0  0  0  0
  -28.4375  -21.2673   19.1197 H   0  0  0  0  0  0
  -27.4159  -24.5288   19.3090 H   0  0  0  0  0  0
  -30.4544  -17.7058   21.7485 H   0  0  0  0  0  0
  -31.1538  -17.6223   20.1691 H   0  0  0  0  0  0
  -30.3337  -20.2164   21.1567 H   0  0  0  0  0  0
  -28.8158  -15.8511   20.7346 H   0  0  0  0  0  0
  1 25  1  0  0  0
  1 30  2  0  0  0
  1 80  1  0  0  0
  2  3  1  0  0  0
  2 25  1  0  0  0
  2 82  1  0  0  0
  2 83  1  0  0  0
  3  4  1  0  0  0
  3 84  1  0  0  0
  3 85  1  0  0  0
  4  5  1  0  0  0
  4 86  1  0  0  0
  4 87  1  0  0  0
  5  6  1  0  0  0
  5 26  1  0  0  0
  5 88  1  0  0  0
  6 25  1  0  0  0
  6 89  1  0  0  0
  6 90  1  0  0  0
  7  8  2  0  0  0
  7 26  1  0  0  0
  7 29  1  0  0  0
  8  9  1  0  0  0
  8 22  1  0  0  0
  9 10  1  0  0  0
  9 27  2  0  0  0
 10 11  2  0  0  0
 10 15  1  0  0  0
 11 12  1  0  0  0
 11 91  1  0  0  0
 12 13  2  0  0  0
 12 92  1  0  0  0
 13 14  1  0  0  0
 13 31  1  0  0  0
 14 15  2  0  0  0
 14 93  1  0  0  0
 15 94  1  0  0  0
 16 17  2  0  0  0
 16 21  1  0  0  0
 16 31  1  0  0  0
 17 18  1  0  0  0
 17 95  1  0  0  0
 18 19  2  0  0  0
 18 96  1  0  0  0
 19 20  1  0  0  0
 19 24  1  0  0  0
 20 21  2  0  0  0
 20 97  1  0  0  0
 21 23  1  0  0  0
 22 28  1  0  0  0
 22 32  2  0  0  0
 26 27  1  0  0  0
 28 98  1  0  0  0
 28 99  1  0  0  0
 29100  1  0  0  0
 29101  1  0  0  0
 33 34  1  0  0  0
 33 66  1  0  0  0
 33 70  2  0  0  0
 34 36  1  0  0  0
 34 59  1  0  0  0
 34102  1  0  0  0
 35 44  2  0  0  0
 35 45  1  0  0  0
 35 68  1  0  0  0
 36 56  1  0  0  0
 36103  1  0  0  0
 37 39  1  0  0  0
 37 47  1  0  0  0
 37 66  1  0  0  0
 37104  1  0  0  0
 38 43  2  0  0  0
 38 46  1  0  0  0
 38 47  1  0  0  0
 39 64  1  0  0  0
 39 67  2  0  0  0
 40 52  1  0  0  0
 40 53  2  0  0  0
 40 58  1  0  0  0
 41105  1  0  0  0
 41106  1  0  0  0
 41107  1  0  0  0
 41 48  1  0  0  0
 42 43  1  0  0  0
 42 66  1  0  0  0
 42108  1  0  0  0
 42109  1  0  0  0
 43 44  1  0  0  0
 44110  1  0  0  0
 45 46  2  0  0  0
 45111  1  0  0  0
 46112  1  0  0  0
 47113  1  0  0  0
 47114  1  0  0  0
 48 56  1  0  0  0
 48 65  1  0  0  0
 48115  1  0  0  0
 49 50  1  0  0  0
 49 53  1  0  0  0
 49 64  1  0  0  0
 49116  1  0  0  0
 50 51  1  0  0  0
 50117  1  0  0  0
 50118  1  0  0  0
 51 52  1  0  0  0
 51119  1  0  0  0
 51120  1  0  0  0
 52121  1  0  0  0
 52122  1  0  0  0
 53 54  1  0  0  0
 54 55  2  0  0  0
 54123  1  0  0  0
 55 57  1  0  0  0
 55124  1  0  0  0
 56 69  2  0  0  0
 57 58  2  0  0  0
 57125  1  0  0  0
 58126  1  0  0  0
 59 60  1  0  0  0
 59 61  1  0  0  0
 59 62  1  0  0  0
 60127  1  0  0  0
 60128  1  0  0  0
 60129  1  0  0  0
 61130  1  0  0  0
 61131  1  0  0  0
 61132  1  0  0  0
 62133  1  0  0  0
 62134  1  0  0  0
 62135  1  0  0  0
 63 65  1  0  0  0
 63136  1  0  0  0
 63137  1  0  0  0
 63138  1  0  0  0
 64139  1  0  0  0
 65140  1  0  0  0
 68 77  1  0  0  0
 71 78  1  0  0  0
 71 79  1  0  0  0
 71 81  2  0  0  0
 72 74  1  0  0  0
 72 76  1  0  0  0
 72141  1  0  0  0
 72142  1  0  0  0
 73 75  1  0  0  0
 73 76  1  0  0  0
 73143  1  0  0  0
 73144  1  0  0  0
 74 77  1  0  0  0
 74145  1  0  0  0
 74146  1  0  0  0
 75 77  1  0  0  0
 75147  1  0  0  0
 75148  1  0  0  0
 76 79  1  0  0  0
 76149  1  0  0  0
 77150  1  0  0  0
 78 80  1  0  0  0
 78151  1  0  0  0
 78152  1  0  0  0
 79153  1  0  0  0
 80154  1  0  0  0
M  ISO  4   1 100  68 101  77 101  80 100
M  END
> <chiral flag>
0

> <version>
0

> <s_m_source_file>
/data/baiqing/PycharmProjects/Reinvent-master-3.2/result/LINK_invent/BTK/process_docking_weight1_custom_sum_contain_oxygen_bond_distance_aromatic_linkinvent_7_9_3/rearranged_h_0110.sdf

> <i_m_source_file_index>
61

> <r_mmod_Potential_Energy-OPLS-2005>
147.35432434082

> <r_mmod_Stretch_Energy-OPLS-2005>
176.778961181641

> <r_mmod_Bend_Energy-OPLS-2005>
224.428024291992

> <r_mmod_Torsional_Energy-OPLS-2005>
236.238403320312

> <r_mmod_Improper_Torsional_Energy-OPLS-2005>
4.10532999038696

> <r_mmod_Van_der_Waal_Energy-OPLS-2005>
119.603073120117

> <r_mmod_Electrostatic_Energy-OPLS-2005>
-517.395385742188

> <r_mmod_Solvation_Energy-OPLS-2005>
-233.254943847656

> <b_mmod_Minimization_Converged-OPLS-2005>
0

> <r_mmod_RMS_Derivative-OPLS-2005>
0.727289855480194

$$$$
62
                    3D
 Structure written by MMmdl.
171180  0  0  1  0            999 V2000
  -30.5342  -14.7304   20.3579 C   0  0  0  0  0  0
  -30.4695  -12.3693   19.5516 C   0  0  0  0  0  0
  -29.5690  -12.3012   18.3072 C   0  0  0  0  0  0
  -28.0548  -12.2833   18.6652 C   0  0  0  0  0  0
  -27.6470  -13.1897   19.8676 C   0  0  2  0  0  0
  -28.6872  -13.1211   21.0031 C   0  0  0  0  0  0
  -25.2533  -13.8075   20.5729 C   0  0  0  0  0  0
  -24.1764  -13.0370   20.9213 C   0  0  0  0  0  0
  -24.6311  -11.6842   20.8785 C   0  0  0  0  0  0
  -23.8985  -10.4238   21.0437 C   0  0  0  0  0  0
  -24.3539   -9.4159   21.9216 C   0  0  0  0  0  0
  -23.6253   -8.2187   22.0761 C   0  0  0  0  0  0
  -22.4250   -8.0222   21.3535 C   0  0  0  0  0  0
  -21.9867   -9.0200   20.4651 C   0  0  0  0  0  0
  -22.7164  -10.2099   20.3080 C   0  0  0  0  0  0
  -21.6814   -6.0705   22.5257 C   0  0  0  0  0  0
  -21.3979   -6.5637   23.8181 C   0  0  0  0  0  0
  -21.3681   -5.6798   24.9166 C   0  0  0  0  0  0
  -21.6073   -4.3063   24.7218 C   0  0  0  0  0  0
  -21.8832   -3.8138   23.4344 C   0  0  0  0  0  0
  -21.9181   -4.6943   22.3384 C   0  0  0  0  0  0
  -22.7789  -13.5195   21.1872 C   0  0  0  0  0  0
  -22.1615   -4.2111   21.0974 F   0  0  0  0  0  0
  -21.5678   -3.4554   25.7739 F   0  0  0  0  0  0
  -29.9867  -13.4697   20.4122 N   0  0  0  0  0  0
  -26.2947  -12.9199   20.3401 N   0  0  0  0  0  0
  -25.9259  -11.6404   20.5918 N   0  0  0  0  0  0
  -22.0401  -12.8198   22.0439 N   0  0  0  0  0  0
  -25.4220  -15.1814   20.4157 N   0  0  0  0  0  0
  -31.7240  -14.8758   20.0555 O   0  0  0  0  0  0
  -21.6600   -6.8846   21.4222 O   0  0  0  0  0  0
  -22.3494  -14.5504   20.6717 O   0  0  0  0  0  0
  -24.6316  -31.8585   23.2007 C   0  0  0  0  0  0
  -25.9163  -32.4759   23.8340 C   0  0  1  0  0  0
  -27.2030  -27.2852   20.1260 C   0  0  0  0  0  0
  -25.5981  -33.8553   24.2274 N   0  0  0  0  0  0
  -23.4237  -30.4846   21.5445 C   0  0  2  0  0  0
  -24.8661  -28.9402   20.1076 C   0  0  0  0  0  0
  -22.7478  -29.4632   22.4904 C   0  0  0  0  0  0
  -18.0297  -28.1402   22.8484 C   0  0  0  0  0  0
  -24.1506  -36.7255   23.2636 C   0  0  0  0  0  0
  -25.9668  -30.7789   21.3775 C   0  0  0  0  0  0
  -26.0393  -29.4073   20.7142 C   0  0  0  0  0  0
  -27.2111  -28.5909   20.7141 C   0  0  0  0  0  0
  -26.0107  -26.8890   19.4765 C   0  0  0  0  0  0
  -24.8537  -27.6874   19.4818 C   0  0  0  0  0  0
  -23.6402  -29.8268   20.1582 C   0  0  0  0  0  0
  -25.4130  -36.3049   24.0325 C   0  0  1  0  0  0
  -20.5893  -28.3708   23.1278 C   0  0  2  0  0  0
  -20.6773  -26.9434   22.5392 C   0  0  0  0  0  0
  -19.5752  -26.6397   21.5201 C   0  0  0  0  0  0
  -18.1933  -26.7953   22.1611 C   0  0  0  0  0  0
  -19.1547  -28.8872   23.2877 C   0  0  0  0  0  0
  -18.9462  -30.1474   23.8897 C   0  0  0  0  0  0
  -17.6460  -30.6598   24.0568 C   0  0  0  0  0  0
  -25.9071  -34.9429   23.5085 C   0  0  0  0  0  0
  -16.5354  -29.9089   23.6348 C   0  0  0  0  0  0
  -16.7283  -28.6507   23.0370 C   0  0  0  0  0  0
  -26.4531  -31.6580   25.0717 C   0  0  0  0  0  0
  -25.3767  -31.3702   26.1430 C   0  0  0  0  0  0
  -27.0381  -30.3003   24.6196 C   0  0  0  0  0  0
  -27.6089  -32.4324   25.7494 C   0  0  0  0  0  0
  -27.5583  -37.1783   24.8465 C   0  0  0  0  0  0
  -21.4188  -29.3053   22.3645 N   0  0  0  0  0  0
  -26.4298  -37.3752   23.9414 N   0  0  0  0  0  0
  -24.6926  -31.0581   22.0971 N   0  0  0  0  0  0
  -23.4176  -28.8188   23.3015 O   0  0  0  0  0  0
  -28.2908  -26.3925   20.2201 O   0  0  0  0  0  0
  -26.5600  -34.8909   22.4634 O   0  0  0  0  0  0
  -23.5473  -32.1420   23.7318 O   0  0  0  0  0  0
  -29.8367  -18.7683   16.6019 C   0  0  0  0  0  0
  -29.6500  -18.3674   20.7147 C   0  0  0  0  0  0
  -29.4618  -17.5201   16.2144 C   0  0  0  0  0  0
  -29.7692  -18.7819   18.0225 C   0  0  0  0  0  0
  -29.5812  -17.4397   18.4930 C   0  0  0  0  0  0
  -29.6891  -17.1733   19.8996 C   0  0  0  0  0  0
  -29.6442  -19.6901   20.1274 C   0  0  0  0  0  0
  -26.1295  -14.0746   15.5763 C   0  0  0  0  0  0
  -29.5452  -21.0688   20.8889 C   0  0  0  0  0  0
  -28.7576  -22.2837   20.1859 C   0  0  0  0  0  0
  -28.9616  -23.8031   20.6745 C   0  0  0  0  0  0
  -28.5956  -14.6847   15.9191 C   0  0  0  0  0  0
  -28.5452  -15.4431   17.2790 C   0  0  0  0  0  0
  -28.0266  -24.9331   20.0321 C   0  0  0  0  0  0
  -27.3558  -14.8263   15.0086 C   0  0  1  0  0  0
  -29.8499  -19.8522   18.8074 N   0  0  0  0  0  0
  -29.2116  -16.7331   17.3337 N   0  0  0  0  0  0
  -29.6626  -15.8049   20.4798 N   0  0  0  0  0  0
  -27.6670  -14.3205   13.6572 N   0  3  0  0  0  0
  -31.5119  -12.5075   19.2529 H   0  0  0  0  0  0
  -30.4473  -11.4265   20.1000 H   0  0  0  0  0  0
  -29.8076  -11.4150   17.7196 H   0  0  0  0  0  0
  -29.8817  -13.1075   17.6648 H   0  0  0  0  0  0
  -27.8213  -11.2455   18.9103 H   0  0  0  0  0  0
  -27.4495  -12.5141   17.7905 H   0  0  0  0  0  0
  -27.6287  -14.2116   19.5108 H   0  0  0  0  0  0
  -28.7138  -12.1284   21.4553 H   0  0  0  0  0  0
  -28.4232  -13.8062   21.8120 H   0  0  0  0  0  0
  -25.2664   -9.5640   22.4818 H   0  0  0  0  0  0
  -23.9976   -7.4564   22.7465 H   0  0  0  0  0  0
  -21.0816   -8.8707   19.8931 H   0  0  0  0  0  0
  -22.3610  -10.9651   19.6209 H   0  0  0  0  0  0
  -21.1900   -7.6140   23.9676 H   0  0  0  0  0  0
  -21.1521   -6.0519   25.9075 H   0  0  0  0  0  0
  -22.0597   -2.7601   23.2829 H   0  0  0  0  0  0
  -22.3981  -11.9835   22.4805 H   0  0  0  0  0  0
  -21.1025  -13.1241   22.2666 H   0  0  0  0  0  0
  -24.6475  -15.8253   20.5338 H   0  0  0  0  0  0
  -26.2652  -15.6405   20.0981 H   0  0  0  0  0  0
  -26.7205  -32.5415   23.1055 H   0  0  0  0  0  0
  -25.0214  -33.9696   25.0481 H   0  0  0  0  0  0
  -22.7216  -31.3077   21.4016 H   0  0  0  0  0  0
  -23.3780  -35.9577   23.3287 H   0  0  0  0  0  0
  -24.3601  -36.8886   22.2053 H   0  0  0  0  0  0
  -23.7250  -37.6453   23.6661 H   0  0  0  0  0  0
  -26.1037  -31.5492   20.6182 H   0  0  0  0  0  0
  -26.8406  -30.8201   22.0138 H   0  0  0  0  0  0
  -28.1049  -28.9352   21.2160 H   0  0  0  0  0  0
  -25.9304  -25.9352   18.9770 H   0  0  0  0  0  0
  -23.9509  -27.3241   19.0101 H   0  0  0  0  0  0
  -23.7695  -30.6062   19.4046 H   0  0  0  0  0  0
  -22.7589  -29.2625   19.8502 H   0  0  0  0  0  0
  -25.1323  -36.1863   25.0814 H   0  0  0  0  0  0
  -20.9993  -28.3270   24.1407 H   0  0  0  0  0  0
  -20.5685  -26.2316   23.3578 H   0  0  0  0  0  0
  -21.6638  -26.7465   22.1192 H   0  0  0  0  0  0
  -19.6908  -25.6299   21.1262 H   0  0  0  0  0  0
  -19.6732  -27.3180   20.6710 H   0  0  0  0  0  0
  -17.4216  -26.6733   21.3994 H   0  0  0  0  0  0
  -18.0349  -26.0097   22.9012 H   0  0  0  0  0  0
  -19.7931  -30.7286   24.2262 H   0  0  0  0  0  0
  -17.5024  -31.6288   24.5146 H   0  0  0  0  0  0
  -15.5348  -30.2987   23.7681 H   0  0  0  0  0  0
  -15.8688  -28.0808   22.7099 H   0  0  0  0  0  0
  -24.5977  -30.7010   25.7737 H   0  0  0  0  0  0
  -24.8908  -32.2861   26.4824 H   0  0  0  0  0  0
  -25.8110  -30.8902   27.0212 H   0  0  0  0  0  0
  -26.2941  -29.6738   24.1250 H   0  0  0  0  0  0
  -27.4097  -29.7278   25.4702 H   0  0  0  0  0  0
  -27.8824  -30.4261   23.9412 H   0  0  0  0  0  0
  -27.2687  -33.3644   26.2022 H   0  0  0  0  0  0
  -28.3928  -32.6850   25.0341 H   0  0  0  0  0  0
  -28.0729  -31.8488   26.5453 H   0  0  0  0  0  0
  -28.2565  -38.0112   24.7525 H   0  0  0  0  0  0
  -28.1109  -36.2628   24.6275 H   0  0  0  0  0  0
  -27.2294  -37.1403   25.8867 H   0  0  0  0  0  0
  -20.9359  -29.8766   21.6846 H   0  0  0  0  0  0
  -26.0162  -38.2821   24.1431 H   0  0  0  0  0  0
  -30.0393  -19.6212   15.9698 H   0  0  0  0  0  0
  -29.6156  -18.2775   21.7940 H   0  0  0  0  0  0
  -29.2917  -17.1633   15.2090 H   0  0  0  0  0  0
  -25.8475  -14.4322   16.5662 H   0  0  0  0  0  0
  -26.3144  -13.0024   15.6556 H   0  0  0  0  0  0
  -25.2539  -14.1996   14.9371 H   0  0  0  0  0  0
  -30.5642  -21.3877   21.1077 H   0  0  0  0  0  0
  -29.0814  -20.8839   21.8587 H   0  0  0  0  0  0
  -27.6937  -22.0388   20.1915 H   0  0  0  0  0  0
  -29.0369  -22.2841   19.1328 H   0  0  0  0  0  0
  -30.0003  -24.0743   20.4893 H   0  0  0  0  0  0
  -28.8365  -23.8418   21.7582 H   0  0  0  0  0  0
  -28.6815  -13.6158   16.0889 H   0  0  0  0  0  0
  -29.5084  -14.9441   15.3850 H   0  0  0  0  0  0
  -29.0199  -14.8694   18.0493 H   0  0  0  0  0  0
  -27.5160  -15.5795   17.6115 H   0  0  0  0  0  0
  -27.0312  -24.7061   20.4186 H   0  0  0  0  0  0
  -27.9845  -24.7535   18.9567 H   0  0  0  0  0  0
  -27.1055  -15.8837   14.9114 H   0  0  0  0  0  0
  -28.7785  -15.5552   20.8983 H   0  0  0  0  0  0
  -28.0105  -13.3757   13.6933 H   0  0  0  0  0  0
  -28.3628  -14.8930   13.2099 H   0  0  0  0  0  0
  -26.8439  -14.3335   13.0814 H   0  0  0  0  0  0
  1 25  1  0  0  0
  1 30  2  0  0  0
  1 88  1  0  0  0
  2  3  1  0  0  0
  2 25  1  0  0  0
  2 90  1  0  0  0
  2 91  1  0  0  0
  3  4  1  0  0  0
  3 92  1  0  0  0
  3 93  1  0  0  0
  4  5  1  0  0  0
  4 94  1  0  0  0
  4 95  1  0  0  0
  5  6  1  0  0  0
  5 26  1  0  0  0
  5 96  1  0  0  0
  6 25  1  0  0  0
  6 97  1  0  0  0
  6 98  1  0  0  0
  7  8  2  0  0  0
  7 26  1  0  0  0
  7 29  1  0  0  0
  8  9  1  0  0  0
  8 22  1  0  0  0
  9 10  1  0  0  0
  9 27  2  0  0  0
 10 11  2  0  0  0
 10 15  1  0  0  0
 11 12  1  0  0  0
 11 99  1  0  0  0
 12 13  2  0  0  0
 12100  1  0  0  0
 13 14  1  0  0  0
 13 31  1  0  0  0
 14 15  2  0  0  0
 14101  1  0  0  0
 15102  1  0  0  0
 16 17  2  0  0  0
 16 21  1  0  0  0
 16 31  1  0  0  0
 17 18  1  0  0  0
 17103  1  0  0  0
 18 19  2  0  0  0
 18104  1  0  0  0
 19 20  1  0  0  0
 19 24  1  0  0  0
 20 21  2  0  0  0
 20105  1  0  0  0
 21 23  1  0  0  0
 22 28  1  0  0  0
 22 32  2  0  0  0
 26 27  1  0  0  0
 28106  1  0  0  0
 28107  1  0  0  0
 29108  1  0  0  0
 29109  1  0  0  0
 33 34  1  0  0  0
 33 66  1  0  0  0
 33 70  2  0  0  0
 34 36  1  0  0  0
 34 59  1  0  0  0
 34110  1  0  0  0
 35 44  2  0  0  0
 35 45  1  0  0  0
 35 68  1  0  0  0
 36 56  1  0  0  0
 36111  1  0  0  0
 37 39  1  0  0  0
 37 47  1  0  0  0
 37 66  1  0  0  0
 37112  1  0  0  0
 38 43  2  0  0  0
 38 46  1  0  0  0
 38 47  1  0  0  0
 39 64  1  0  0  0
 39 67  2  0  0  0
 40 52  1  0  0  0
 40 53  2  0  0  0
 40 58  1  0  0  0
 41113  1  0  0  0
 41114  1  0  0  0
 41115  1  0  0  0
 41 48  1  0  0  0
 42 43  1  0  0  0
 42 66  1  0  0  0
 42116  1  0  0  0
 42117  1  0  0  0
 43 44  1  0  0  0
 44118  1  0  0  0
 45 46  2  0  0  0
 45119  1  0  0  0
 46120  1  0  0  0
 47121  1  0  0  0
 47122  1  0  0  0
 48 56  1  0  0  0
 48 65  1  0  0  0
 48123  1  0  0  0
 49 50  1  0  0  0
 49 53  1  0  0  0
 49 64  1  0  0  0
 49124  1  0  0  0
 50 51  1  0  0  0
 50125  1  0  0  0
 50126  1  0  0  0
 51 52  1  0  0  0
 51127  1  0  0  0
 51128  1  0  0  0
 52129  1  0  0  0
 52130  1  0  0  0
 53 54  1  0  0  0
 54 55  2  0  0  0
 54131  1  0  0  0
 55 57  1  0  0  0
 55132  1  0  0  0
 56 69  2  0  0  0
 57 58  2  0  0  0
 57133  1  0  0  0
 58134  1  0  0  0
 59 60  1  0  0  0
 59 61  1  0  0  0
 59 62  1  0  0  0
 60135  1  0  0  0
 60136  1  0  0  0
 60137  1  0  0  0
 61138  1  0  0  0
 61139  1  0  0  0
 61140  1  0  0  0
 62141  1  0  0  0
 62142  1  0  0  0
 62143  1  0  0  0
 63 65  1  0  0  0
 63144  1  0  0  0
 63145  1  0  0  0
 63146  1  0  0  0
 64147  1  0  0  0
 65148  1  0  0  0
 68 84  1  0  0  0
 71 73  2  0  0  0
 71 74  1  0  0  0
 71149  1  0  0  0
 72 76  2  0  0  0
 72 77  1  0  0  0
 72150  1  0  0  0
 73 87  1  0  0  0
 73151  1  0  0  0
 74 75  2  0  0  0
 74 86  1  0  0  0
 75 76  1  0  0  0
 75 87  1  0  0  0
 76 88  1  0  0  0
 77 79  1  0  0  0
 77 86  2  0  0  0
 78152  1  0  0  0
 78153  1  0  0  0
 78154  1  0  0  0
 78 85  1  0  0  0
 79 80  1  0  0  0
 79155  1  0  0  0
 79156  1  0  0  0
 80 81  1  0  0  0
 80157  1  0  0  0
 80158  1  0  0  0
 81 84  1  0  0  0
 81159  1  0  0  0
 81160  1  0  0  0
 82 83  1  0  0  0
 82 85  1  0  0  0
 82161  1  0  0  0
 82162  1  0  0  0
 83 87  1  0  0  0
 83163  1  0  0  0
 83164  1  0  0  0
 84165  1  0  0  0
 84166  1  0  0  0
 85 89  1  0  0  0
 85167  1  0  0  0
 88168  1  0  0  0
 89169  1  0  0  0
 89170  1  0  0  0
 89171  1  0  0  0
M  CHG  1  89   1
M  ISO  4   1 100  68 101  84 101  88 100
M  END
> <chiral flag>
0

> <version>
0

> <s_m_source_file>
/data/baiqing/PycharmProjects/Reinvent-master-3.2/result/LINK_invent/BTK/process_docking_weight1_custom_sum_contain_oxygen_bond_distance_aromatic_linkinvent_7_9_3/rearranged_h_0110.sdf

> <i_m_source_file_index>
62

> <r_mmod_Potential_Energy-OPLS-2005>
-19.1529712677002

> <r_mmod_Stretch_Energy-OPLS-2005>
108.805534362793

> <r_mmod_Bend_Energy-OPLS-2005>
170.353912353516

> <r_mmod_Torsional_Energy-OPLS-2005>
301.604705810547

> <r_mmod_Improper_Torsional_Energy-OPLS-2005>
6.29687070846558

> <r_mmod_Van_der_Waal_Energy-OPLS-2005>
144.95036315918

> <r_mmod_Electrostatic_Energy-OPLS-2005>
-311.36572265625

> <r_mmod_Solvation_Energy-OPLS-2005>
-533.56298828125

> <b_mmod_Minimization_Converged-OPLS-2005>
0

> <r_mmod_RMS_Derivative-OPLS-2005>
4.73249483108521

$$$$
63
                    3D
 Structure written by MMmdl.
164173  0  0  1  0            999 V2000
  -30.4216  -15.3543   20.3846 C   0  0  0  0  0  0
  -30.4384  -12.8832   19.5149 C   0  0  0  0  0  0
  -29.5355  -12.5879   18.2894 C   0  0  0  0  0  0
  -28.0929  -12.2881   18.7315 C   0  0  0  0  0  0
  -27.6062  -13.2811   19.8146 C   0  0  2  0  0  0
  -28.6408  -13.5026   20.9393 C   0  0  0  0  0  0
  -25.2372  -13.8246   20.5749 C   0  0  0  0  0  0
  -24.1737  -13.0425   20.9265 C   0  0  0  0  0  0
  -24.6407  -11.6922   20.8769 C   0  0  0  0  0  0
  -23.9106  -10.4283   21.0411 C   0  0  0  0  0  0
  -24.3650   -9.4194   21.9190 C   0  0  0  0  0  0
  -23.6306   -8.2239   22.0763 C   0  0  0  0  0  0
  -22.4289   -8.0289   21.3550 C   0  0  0  0  0  0
  -21.9935   -9.0260   20.4653 C   0  0  0  0  0  0
  -22.7276  -10.2130   20.3056 C   0  0  0  0  0  0
  -21.6851   -6.0743   22.5277 C   0  0  0  0  0  0
  -21.4013   -6.5643   23.8209 C   0  0  0  0  0  0
  -21.3655   -5.6797   24.9170 C   0  0  0  0  0  0
  -21.6045   -4.3059   24.7218 C   0  0  0  0  0  0
  -21.8819   -3.8153   23.4336 C   0  0  0  0  0  0
  -21.9186   -4.6973   22.3392 C   0  0  0  0  0  0
  -22.7750  -13.5171   21.1901 C   0  0  0  0  0  0
  -22.1660   -4.2158   21.0972 F   0  0  0  0  0  0
  -21.5623   -3.4543   25.7726 F   0  0  0  0  0  0
  -29.8526  -14.0424   20.2939 N   0  0  0  0  0  0
  -26.2802  -12.9532   20.3209 N   0  0  0  0  0  0
  -25.9346  -11.6630   20.5725 N   0  0  0  0  0  0
  -22.0415  -12.8159   22.0465 N   0  0  0  0  0  0
  -25.3994  -15.1982   20.4181 N   0  0  0  0  0  0
  -31.6552  -15.3234   20.2580 O   0  0  0  0  0  0
  -21.6640   -6.8895   21.4243 O   0  0  0  0  0  0
  -22.3419  -14.5457   20.6722 O   0  0  0  0  0  0
  -24.6691  -31.8189   23.1678 C   0  0  0  0  0  0
  -25.9347  -32.4558   23.8155 C   0  0  1  0  0  0
  -27.2077  -26.8608   20.2078 C   0  0  0  0  0  0
  -25.6005  -33.8375   24.2068 N   0  0  0  0  0  0
  -23.4850  -30.4320   21.5167 C   0  0  2  0  0  0
  -24.9385  -28.8086   20.1186 C   0  0  0  0  0  0
  -22.7694  -29.4431   22.4756 C   0  0  0  0  0  0
  -18.0335  -28.1421   22.8478 C   0  0  0  0  0  0
  -24.1482  -36.7175   23.2650 C   0  0  0  0  0  0
  -26.0585  -30.6034   21.4115 C   0  0  0  0  0  0
  -26.1230  -29.1838   20.7650 C   0  0  0  0  0  0
  -27.2507  -28.2341   20.7857 C   0  0  0  0  0  0
  -26.0093  -26.6798   19.4758 C   0  0  0  0  0  0
  -24.9104  -27.5767   19.4503 C   0  0  0  0  0  0
  -23.7298  -29.7452   20.1446 C   0  0  0  0  0  0
  -25.4126  -36.2939   24.0304 C   0  0  1  0  0  0
  -20.5961  -28.3760   23.1177 C   0  0  2  0  0  0
  -20.6816  -26.9443   22.5398 C   0  0  0  0  0  0
  -19.5774  -26.6390   21.5225 C   0  0  0  0  0  0
  -18.1958  -26.7952   22.1636 C   0  0  0  0  0  0
  -19.1598  -28.8912   23.2813 C   0  0  0  0  0  0
  -18.9507  -30.1506   23.8841 C   0  0  0  0  0  0
  -17.6501  -30.6601   24.0562 C   0  0  0  0  0  0
  -25.9098  -34.9325   23.5004 C   0  0  0  0  0  0
  -16.5385  -29.9093   23.6356 C   0  0  0  0  0  0
  -16.7313  -28.6517   23.0377 C   0  0  0  0  0  0
  -26.4581  -31.6525   25.0696 C   0  0  0  0  0  0
  -25.3691  -31.3805   26.1339 C   0  0  0  0  0  0
  -27.0488  -30.2890   24.6478 C   0  0  0  0  0  0
  -27.6060  -32.4351   25.7498 C   0  0  0  0  0  0
  -27.5557  -37.1745   24.8468 C   0  0  0  0  0  0
  -21.4357  -29.3043   22.3504 N   0  0  0  0  0  0
  -26.4249  -37.3696   23.9429 N   0  0  0  0  0  0
  -24.7584  -30.9811   22.0837 N   0  0  0  0  0  0
  -23.4223  -28.8021   23.3017 O   0  0  0  0  0  0
  -28.1889  -25.7077   20.2221 O   0  0  0  0  0  0
  -26.5693  -34.8875   22.4593 O   0  0  0  0  0  0
  -23.5739  -32.1187   23.6739 O   0  0  0  0  0  0
  -28.5950  -21.0596   20.8665 C   0  0  0  0  0  0
  -29.6947  -22.1308   19.3898 C   0  0  0  0  0  0
  -28.7272  -22.4986   20.3060 C   0  0  0  0  0  0
  -29.4134  -19.9415   20.3721 C   0  0  0  0  0  0
  -35.0069  -20.6973   19.1961 C   0  0  0  0  0  0
  -34.5052  -22.1204   19.4737 C   0  0  0  0  0  0
  -33.8046  -19.9390   18.6283 C   0  0  0  0  0  0
  -32.9717  -22.0604   19.4016 C   0  0  0  0  0  0
  -32.5992  -20.5702   19.3291 C   0  0  0  0  0  0
  -26.4318  -23.8019   20.6326 C   0  0  0  0  0  0
  -29.9568  -18.2856   20.7979 C   0  0  0  0  0  0
  -31.2401  -20.2658   18.6559 C   0  0  0  0  0  0
  -27.9369  -24.0910   20.6343 C   0  0  2  0  0  0
  -30.1181  -20.7532   19.4505 N   0  0  0  0  0  0
  -29.6737  -16.6591   20.4242 N   0  0  0  0  0  0
  -31.4461  -13.1109   19.1663 H   0  0  0  0  0  0
  -30.5415  -11.9982   20.1453 H   0  0  0  0  0  0
  -29.9328  -11.7518   17.7129 H   0  0  0  0  0  0
  -29.5420  -13.4506   17.6213 H   0  0  0  0  0  0
  -28.0759  -11.2759   19.1378 H   0  0  0  0  0  0
  -27.4187  -12.2859   17.8745 H   0  0  0  0  0  0
  -27.5054  -14.2331   19.2908 H   0  0  0  0  0  0
  -28.8397  -12.5817   21.4902 H   0  0  0  0  0  0
  -28.2603  -14.2242   21.6650 H   0  0  0  0  0  0
  -25.2796   -9.5648   22.4773 H   0  0  0  0  0  0
  -23.9996   -7.4627   22.7491 H   0  0  0  0  0  0
  -21.0861   -8.8785   19.8966 H   0  0  0  0  0  0
  -22.3738  -10.9667   19.6165 H   0  0  0  0  0  0
  -21.2018   -7.6158   23.9712 H   0  0  0  0  0  0
  -21.1472   -6.0529   25.9072 H   0  0  0  0  0  0
  -22.0603   -2.7620   23.2828 H   0  0  0  0  0  0
  -22.4044  -11.9820   22.4837 H   0  0  0  0  0  0
  -21.1034  -13.1177   22.2690 H   0  0  0  0  0  0
  -24.6287  -15.8477   20.5312 H   0  0  0  0  0  0
  -26.2403  -15.6415   20.0733 H   0  0  0  0  0  0
  -26.7414  -32.5089   23.0866 H   0  0  0  0  0  0
  -25.0155  -33.9461   25.0220 H   0  0  0  0  0  0
  -22.8004  -31.2657   21.3445 H   0  0  0  0  0  0
  -23.3748  -35.9497   23.3273 H   0  0  0  0  0  0
  -24.3565  -36.8853   22.2072 H   0  0  0  0  0  0
  -23.7230  -37.6358   23.6707 H   0  0  0  0  0  0
  -26.2481  -31.3361   20.6257 H   0  0  0  0  0  0
  -26.9162  -30.6626   22.0697 H   0  0  0  0  0  0
  -28.1450  -28.5258   21.3191 H   0  0  0  0  0  0
  -25.8869  -25.7623   18.9219 H   0  0  0  0  0  0
  -24.0227  -27.2909   18.9030 H   0  0  0  0  0  0
  -23.8950  -30.5118   19.3861 H   0  0  0  0  0  0
  -22.8369  -29.2056   19.8232 H   0  0  0  0  0  0
  -25.1339  -36.1706   25.0792 H   0  0  0  0  0  0
  -21.0067  -28.3355   24.1291 H   0  0  0  0  0  0
  -20.5697  -26.2390   23.3651 H   0  0  0  0  0  0
  -21.6682  -26.7419   22.1207 H   0  0  0  0  0  0
  -19.6918  -25.6291   21.1298 H   0  0  0  0  0  0
  -19.6708  -27.3169   20.6731 H   0  0  0  0  0  0
  -17.4247  -26.6720   21.4020 H   0  0  0  0  0  0
  -18.0323  -26.0104   22.9037 H   0  0  0  0  0  0
  -19.7980  -30.7357   24.2173 H   0  0  0  0  0  0
  -17.5049  -31.6276   24.5179 H   0  0  0  0  0  0
  -15.5380  -30.2981   23.7700 H   0  0  0  0  0  0
  -15.8725  -28.0817   22.7122 H   0  0  0  0  0  0
  -24.5876  -30.7138   25.7670 H   0  0  0  0  0  0
  -24.8865  -32.3017   26.4597 H   0  0  0  0  0  0
  -25.7917  -30.9091   27.0217 H   0  0  0  0  0  0
  -26.3172  -29.6545   24.1457 H   0  0  0  0  0  0
  -27.3961  -29.7292   25.5166 H   0  0  0  0  0  0
  -27.9142  -30.4072   23.9953 H   0  0  0  0  0  0
  -27.2622  -33.3707   26.1923 H   0  0  0  0  0  0
  -28.3943  -32.6832   25.0373 H   0  0  0  0  0  0
  -28.0638  -31.8575   26.5540 H   0  0  0  0  0  0
  -28.2558  -38.0062   24.7543 H   0  0  0  0  0  0
  -28.1072  -36.2595   24.6249 H   0  0  0  0  0  0
  -27.2293  -37.1344   25.8877 H   0  0  0  0  0  0
  -20.9601  -29.8726   21.6639 H   0  0  0  0  0  0
  -26.0073  -38.2737   24.1460 H   0  0  0  0  0  0
  -27.9163  -20.8709   21.6873 H   0  0  0  0  0  0
  -30.1914  -22.7789   18.6799 H   0  0  0  0  0  0
  -35.3212  -20.2370   20.1345 H   0  0  0  0  0  0
  -35.8655  -20.6817   18.5233 H   0  0  0  0  0  0
  -34.8927  -22.8231   18.7334 H   0  0  0  0  0  0
  -34.8446  -22.4644   20.4523 H   0  0  0  0  0  0
  -33.8727  -18.8639   18.7989 H   0  0  0  0  0  0
  -33.7406  -20.1020   17.5511 H   0  0  0  0  0  0
  -32.6397  -22.5721   18.4966 H   0  0  0  0  0  0
  -32.4990  -22.5608   20.2487 H   0  0  0  0  0  0
  -32.5739  -20.1823   20.3484 H   0  0  0  0  0  0
  -26.2169  -22.9016   21.2073 H   0  0  0  0  0  0
  -26.0632  -23.6378   19.6205 H   0  0  0  0  0  0
  -25.8560  -24.6011   21.0966 H   0  0  0  0  0  0
  -29.7959  -18.2559   21.8765 H   0  0  0  0  0  0
  -31.0436  -18.3281   20.7373 H   0  0  0  0  0  0
  -31.1277  -19.1927   18.4987 H   0  0  0  0  0  0
  -31.1940  -20.7182   17.6650 H   0  0  0  0  0  0
  -28.1771  -24.1687   21.6955 H   0  0  0  0  0  0
  -28.6827  -16.4841   20.3531 H   0  0  0  0  0  0
  1 25  1  0  0  0
  1 30  2  0  0  0
  1 85  1  0  0  0
  2  3  1  0  0  0
  2 25  1  0  0  0
  2 86  1  0  0  0
  2 87  1  0  0  0
  3  4  1  0  0  0
  3 88  1  0  0  0
  3 89  1  0  0  0
  4  5  1  0  0  0
  4 90  1  0  0  0
  4 91  1  0  0  0
  5  6  1  0  0  0
  5 26  1  0  0  0
  5 92  1  0  0  0
  6 25  1  0  0  0
  6 93  1  0  0  0
  6 94  1  0  0  0
  7  8  2  0  0  0
  7 26  1  0  0  0
  7 29  1  0  0  0
  8  9  1  0  0  0
  8 22  1  0  0  0
  9 10  1  0  0  0
  9 27  2  0  0  0
 10 11  2  0  0  0
 10 15  1  0  0  0
 11 12  1  0  0  0
 11 95  1  0  0  0
 12 13  2  0  0  0
 12 96  1  0  0  0
 13 14  1  0  0  0
 13 31  1  0  0  0
 14 15  2  0  0  0
 14 97  1  0  0  0
 15 98  1  0  0  0
 16 17  2  0  0  0
 16 21  1  0  0  0
 16 31  1  0  0  0
 17 18  1  0  0  0
 17 99  1  0  0  0
 18 19  2  0  0  0
 18100  1  0  0  0
 19 20  1  0  0  0
 19 24  1  0  0  0
 20 21  2  0  0  0
 20101  1  0  0  0
 21 23  1  0  0  0
 22 28  1  0  0  0
 22 32  2  0  0  0
 26 27  1  0  0  0
 28102  1  0  0  0
 28103  1  0  0  0
 29104  1  0  0  0
 29105  1  0  0  0
 33 34  1  0  0  0
 33 66  1  0  0  0
 33 70  2  0  0  0
 34 36  1  0  0  0
 34 59  1  0  0  0
 34106  1  0  0  0
 35 44  2  0  0  0
 35 45  1  0  0  0
 35 68  1  0  0  0
 36 56  1  0  0  0
 36107  1  0  0  0
 37 39  1  0  0  0
 37 47  1  0  0  0
 37 66  1  0  0  0
 37108  1  0  0  0
 38 43  2  0  0  0
 38 46  1  0  0  0
 38 47  1  0  0  0
 39 64  1  0  0  0
 39 67  2  0  0  0
 40 52  1  0  0  0
 40 53  2  0  0  0
 40 58  1  0  0  0
 41109  1  0  0  0
 41110  1  0  0  0
 41111  1  0  0  0
 41 48  1  0  0  0
 42 43  1  0  0  0
 42 66  1  0  0  0
 42112  1  0  0  0
 42113  1  0  0  0
 43 44  1  0  0  0
 44114  1  0  0  0
 45 46  2  0  0  0
 45115  1  0  0  0
 46116  1  0  0  0
 47117  1  0  0  0
 47118  1  0  0  0
 48 56  1  0  0  0
 48 65  1  0  0  0
 48119  1  0  0  0
 49 50  1  0  0  0
 49 53  1  0  0  0
 49 64  1  0  0  0
 49120  1  0  0  0
 50 51  1  0  0  0
 50121  1  0  0  0
 50122  1  0  0  0
 51 52  1  0  0  0
 51123  1  0  0  0
 51124  1  0  0  0
 52125  1  0  0  0
 52126  1  0  0  0
 53 54  1  0  0  0
 54 55  2  0  0  0
 54127  1  0  0  0
 55 57  1  0  0  0
 55128  1  0  0  0
 56 69  2  0  0  0
 57 58  2  0  0  0
 57129  1  0  0  0
 58130  1  0  0  0
 59 60  1  0  0  0
 59 61  1  0  0  0
 59 62  1  0  0  0
 60131  1  0  0  0
 60132  1  0  0  0
 60133  1  0  0  0
 61134  1  0  0  0
 61135  1  0  0  0
 61136  1  0  0  0
 62137  1  0  0  0
 62138  1  0  0  0
 62139  1  0  0  0
 63 65  1  0  0  0
 63140  1  0  0  0
 63141  1  0  0  0
 63142  1  0  0  0
 64143  1  0  0  0
 65144  1  0  0  0
 68 83  1  0  0  0
 71 73  1  0  0  0
 71 74  2  0  0  0
 71145  1  0  0  0
 72 73  2  0  0  0
 72 84  1  0  0  0
 72146  1  0  0  0
 73 83  1  0  0  0
 74 81  1  0  0  0
 74 84  1  0  0  0
 75 76  1  0  0  0
 75 77  1  0  0  0
 75147  1  0  0  0
 75148  1  0  0  0
 76 78  1  0  0  0
 76149  1  0  0  0
 76150  1  0  0  0
 77 79  1  0  0  0
 77151  1  0  0  0
 77152  1  0  0  0
 78 79  1  0  0  0
 78153  1  0  0  0
 78154  1  0  0  0
 79 82  1  0  0  0
 79155  1  0  0  0
 80156  1  0  0  0
 80157  1  0  0  0
 80158  1  0  0  0
 80 83  1  0  0  0
 81 85  1  0  0  0
 81159  1  0  0  0
 81160  1  0  0  0
 82 84  1  0  0  0
 82161  1  0  0  0
 82162  1  0  0  0
 83163  1  0  0  0
 85164  1  0  0  0
M  ISO  4   1 100  68 101  83 101  85 100
M  END
> <chiral flag>
0

> <version>
0

> <s_m_source_file>
/data/baiqing/PycharmProjects/Reinvent-master-3.2/result/LINK_invent/BTK/process_docking_weight1_custom_sum_contain_oxygen_bond_distance_aromatic_linkinvent_7_9_3/rearranged_h_0110.sdf

> <i_m_source_file_index>
63

> <r_mmod_Potential_Energy-OPLS-2005>
1584.92724609375

> <r_mmod_Stretch_Energy-OPLS-2005>
671.228393554688

> <r_mmod_Bend_Energy-OPLS-2005>
525.469360351562

> <r_mmod_Torsional_Energy-OPLS-2005>
314.192932128906

> <r_mmod_Improper_Torsional_Energy-OPLS-2005>
6.12105703353882

> <r_mmod_Van_der_Waal_Energy-OPLS-2005>
106.095977783203

> <r_mmod_Electrostatic_Energy-OPLS-2005>
-386.115203857422

> <r_mmod_Solvation_Energy-OPLS-2005>
-212.25700378418

> <b_mmod_Minimization_Converged-OPLS-2005>
0

> <r_mmod_RMS_Derivative-OPLS-2005>
2.0235230922699

$$$$
64
                    3D
 Structure written by MMmdl.
189198  0  0  1  0            999 V2000
  -29.8709  -13.8902   21.2695 C   0  0  0  0  0  0
  -30.7849  -12.5714   19.2190 C   0  0  0  0  0  0
  -29.8471  -12.5863   17.9209 C   0  0  0  0  0  0
  -28.3070  -12.4260   18.1114 C   0  0  0  0  0  0
  -28.0595  -13.0498   19.4285 C   0  0  2  0  0  0
  -28.9539  -12.0750   20.3489 C   0  0  0  0  0  0
  -25.9419  -13.9007   20.1376 C   0  0  0  0  0  0
  -24.4395  -13.2433   21.1789 C   0  0  0  0  0  0
  -24.5084  -12.0235   21.6374 C   0  0  0  0  0  0
  -23.8672  -10.6271   21.3311 C   0  0  0  0  0  0
  -24.3435   -9.5071   22.0637 C   0  0  0  0  0  0
  -23.6596   -8.2668   22.0975 C   0  0  0  0  0  0
  -22.4749   -8.0774   21.3496 C   0  0  0  0  0  0
  -22.0690   -9.1229   20.4979 C   0  0  0  0  0  0
  -22.7418  -10.3704   20.4910 C   0  0  0  0  0  0
  -21.7067   -6.0940   22.5020 C   0  0  0  0  0  0
  -21.4130   -6.5788   23.7971 C   0  0  0  0  0  0
  -21.3692   -5.6926   24.8982 C   0  0  0  0  0  0
  -21.6068   -4.3174   24.7066 C   0  0  0  0  0  0
  -21.8777   -3.8279   23.4179 C   0  0  0  0  0  0
  -21.9253   -4.7098   22.3235 C   0  0  0  0  0  0
  -22.7945  -13.6025   21.4414 C   0  0  0  0  0  0
  -22.1699   -4.2216   21.0822 F   0  0  0  0  0  0
  -21.5644   -3.4627   25.7583 F   0  0  0  0  0  0
  -30.0684  -12.8203   20.4852 N   0  0  0  0  0  0
  -26.5920  -13.4055   19.6543 N   0  0  0  0  0  0
  -25.1526  -13.1396   20.8869 N   0  0  0  0  0  0
  -22.0661  -12.8704   22.2828 N   0  0  0  0  0  0
  -26.5749  -15.0868   19.5118 N   0  0  0  0  0  0
  -30.7735  -14.7630   21.0769 O   0  0  0  0  0  0
  -21.7191   -6.9181   21.3948 O   0  0  0  0  0  0
  -22.1424  -14.4896   20.8714 O   0  0  0  0  0  0
  -24.6363  -31.8505   23.1989 C   0  0  0  0  0  0
  -25.9184  -32.4730   23.8357 C   0  0  1  0  0  0
  -27.0296  -27.0995   20.1521 C   0  0  0  0  0  0
  -25.5981  -33.8555   24.2239 N   0  0  0  0  0  0
  -23.4307  -30.4853   21.5424 C   0  0  2  0  0  0
  -24.8561  -28.9423   20.0733 C   0  0  0  0  0  0
  -22.7508  -29.4568   22.4827 C   0  0  0  0  0  0
  -18.0264  -28.1388   22.8469 C   0  0  0  0  0  0
  -24.1484  -36.7203   23.2633 C   0  0  0  0  0  0
  -25.9922  -30.7103   21.4086 C   0  0  0  0  0  0
  -26.0304  -29.3355   20.7238 C   0  0  0  0  0  0
  -27.1376  -28.4158   20.7600 C   0  0  0  0  0  0
  -25.8954  -26.8534   19.3848 C   0  0  0  0  0  0
  -24.8068  -27.7318   19.3776 C   0  0  0  0  0  0
  -23.6508  -29.8514   20.1460 C   0  0  0  0  0  0
  -25.4136  -36.3038   24.0306 C   0  0  1  0  0  0
  -20.5884  -28.3684   23.1259 C   0  0  2  0  0  0
  -20.6787  -26.9394   22.5410 C   0  0  0  0  0  0
  -19.5773  -26.6357   21.5220 C   0  0  0  0  0  0
  -18.1931  -26.7924   22.1609 C   0  0  0  0  0  0
  -19.1526  -28.8853   23.2849 C   0  0  0  0  0  0
  -18.9461  -30.1460   23.8846 C   0  0  0  0  0  0
  -17.6466  -30.6596   24.0548 C   0  0  0  0  0  0
  -25.9083  -34.9425   23.5059 C   0  0  0  0  0  0
  -16.5346  -29.9084   23.6364 C   0  0  0  0  0  0
  -16.7246  -28.6509   23.0360 C   0  0  0  0  0  0
  -26.4526  -31.6656   25.0821 C   0  0  0  0  0  0
  -25.3690  -31.3918   26.1508 C   0  0  0  0  0  0
  -27.0454  -30.3043   24.6530 C   0  0  0  0  0  0
  -27.6030  -32.4475   25.7573 C   0  0  0  0  0  0
  -27.5595  -37.1757   24.8462 C   0  0  0  0  0  0
  -21.4199  -29.3017   22.3617 N   0  0  0  0  0  0
  -26.4298  -37.3755   23.9408 N   0  0  0  0  0  0
  -24.7060  -31.0402   22.1009 N   0  0  0  0  0  0
  -23.4179  -28.8067   23.2916 O   0  0  0  0  0  0
  -27.8942  -25.9954   20.3463 O   0  0  0  0  0  0
  -26.5631  -34.8916   22.4605 O   0  0  0  0  0  0
  -23.5497  -32.1416   23.7214 O   0  0  0  0  0  0
  -25.9265  -14.9762   22.0867 C   0  0  0  0  0  0
  -24.4705  -15.4990   20.5397 C   0  0  0  0  0  0
  -24.0652  -13.8726   18.9470 C   0  0  0  0  0  0
  -25.0466  -11.8561   19.1060 C   0  0  0  0  0  0
  -27.0873  -13.1499   22.0085 C   0  0  0  0  0  0
  -24.6489  -18.1821   21.5286 C   0  0  0  0  0  0
  -25.6281  -17.8228   19.3761 C   0  0  0  0  0  0
  -24.8922  -19.7944   21.3164 C   0  0  0  0  0  0
  -25.8835  -19.4136   19.1531 C   0  0  0  0  0  0
  -24.4514  -17.1816   20.2818 C   0  0  1  0  0  0
  -25.7056   -9.4768   18.4551 C   0  0  0  0  0  0
  -23.8888  -23.2000   20.0329 C   0  0  0  0  0  0
  -23.0980  -12.3811   15.8988 C   0  0  0  0  0  0
  -21.3574  -12.8422   17.7370 C   0  0  0  0  0  0
  -23.5014  -14.3209   17.6069 C   0  0  0  0  0  0
  -24.9330  -10.7521   18.0740 C   0  0  0  0  0  0
  -25.1428  -23.7252   20.7563 C   0  0  0  0  0  0
  -26.8436  -21.6451   20.4698 C   0  0  0  0  0  0
  -27.6441  -24.4932   19.9559 C   0  0  0  0  0  0
  -22.4759  -13.4246   16.8548 C   0  0  0  0  0  0
  -26.4501  -23.2533   20.0699 C   0  0  2  0  0  0
  -26.5407  -11.4587   20.6841 N   0  0  0  0  0  0
  -28.6049  -13.8194   22.0941 N   0  0  0  0  0  0
  -26.0354  -20.2376   20.4093 N   0  3  1  0  0  0
  -31.5891  -13.2995   19.0947 H   0  0  0  0  0  0
  -31.2915  -11.6039   19.2949 H   0  0  0  0  0  0
  -30.2025  -11.8497   17.1979 H   0  0  0  0  0  0
  -30.0013  -13.5486   17.4288 H   0  0  0  0  0  0
  -28.0097  -11.3809   18.0822 H   0  0  0  0  0  0
  -27.7551  -12.9203   17.3115 H   0  0  0  0  0  0
  -28.5551  -14.0036   19.2262 H   0  0  0  0  0  0
  -29.1466  -11.1026   19.8765 H   0  0  0  0  0  0
  -28.7362  -11.6302   21.3259 H   0  0  0  0  0  0
  -25.2185   -9.6300   22.6831 H   0  0  0  0  0  0
  -24.0416   -7.4856   22.7366 H   0  0  0  0  0  0
  -21.1942   -8.9965   19.8756 H   0  0  0  0  0  0
  -22.3383  -11.1829   19.9034 H   0  0  0  0  0  0
  -21.2167   -7.6299   23.9458 H   0  0  0  0  0  0
  -21.1558   -6.0695   25.8857 H   0  0  0  0  0  0
  -22.0500   -2.7709   23.2656 H   0  0  0  0  0  0
  -22.4559  -12.0861   22.7870 H   0  0  0  0  0  0
  -21.0877  -13.0895   22.4009 H   0  0  0  0  0  0
  -26.1483  -15.9943   19.5949 H   0  0  0  0  0  0
  -27.2385  -15.0169   18.7579 H   0  0  0  0  0  0
  -26.7208  -32.5320   23.1046 H   0  0  0  0  0  0
  -25.0180  -33.9738   25.0422 H   0  0  0  0  0  0
  -22.7214  -31.3064   21.4085 H   0  0  0  0  0  0
  -23.3811  -35.9467   23.3293 H   0  0  0  0  0  0
  -24.3553  -36.8839   22.2046 H   0  0  0  0  0  0
  -23.7184  -37.6358   23.6695 H   0  0  0  0  0  0
  -26.1864  -31.4856   20.6641 H   0  0  0  0  0  0
  -26.8394  -30.7218   22.0831 H   0  0  0  0  0  0
  -28.0170  -28.6860   21.3233 H   0  0  0  0  0  0
  -25.7906  -25.9134   18.8602 H   0  0  0  0  0  0
  -23.9033  -27.4607   18.8507 H   0  0  0  0  0  0
  -23.7935  -30.6353   19.4016 H   0  0  0  0  0  0
  -22.7605  -29.3044   19.8336 H   0  0  0  0  0  0
  -25.1336  -36.1826   25.0799 H   0  0  0  0  0  0
  -20.9984  -28.3295   24.1384 H   0  0  0  0  0  0
  -20.5752  -26.2261   23.3604 H   0  0  0  0  0  0
  -21.6648  -26.7461   22.1171 H   0  0  0  0  0  0
  -19.6951  -25.6261   21.1273 H   0  0  0  0  0  0
  -19.6759  -27.3153   20.6751 H   0  0  0  0  0  0
  -17.4216  -26.6621   21.4003 H   0  0  0  0  0  0
  -18.0315  -26.0084   22.9020 H   0  0  0  0  0  0
  -19.7936  -30.7279   24.2191 H   0  0  0  0  0  0
  -17.5030  -31.6294   24.5121 H   0  0  0  0  0  0
  -15.5356  -30.2982   23.7763 H   0  0  0  0  0  0
  -15.8615  -28.0852   22.7115 H   0  0  0  0  0  0
  -24.5807  -30.7333   25.7853 H   0  0  0  0  0  0
  -24.8960  -32.3149   26.4876 H   0  0  0  0  0  0
  -25.7949  -30.9120   27.0322 H   0  0  0  0  0  0
  -26.3127  -29.6651   24.1591 H   0  0  0  0  0  0
  -27.4061  -29.7502   25.5210 H   0  0  0  0  0  0
  -27.9038  -30.4267   23.9916 H   0  0  0  0  0  0
  -27.2570  -33.3757   26.2137 H   0  0  0  0  0  0
  -28.3821  -32.7072   25.0396 H   0  0  0  0  0  0
  -28.0713  -31.8632   26.5502 H   0  0  0  0  0  0
  -28.2567  -38.0101   24.7589 H   0  0  0  0  0  0
  -28.1150  -36.2640   24.6209 H   0  0  0  0  0  0
  -27.2322  -37.1281   25.8864 H   0  0  0  0  0  0
  -20.9336  -29.8712   21.6830 H   0  0  0  0  0  0
  -26.0159  -38.2804   24.1458 H   0  0  0  0  0  0
  -26.3376  -15.7960   22.6521 H   0  0  0  0  0  0
  -23.7795  -18.0644   22.1794 H   0  0  0  0  0  0
  -25.4864  -17.8190   22.1230 H   0  0  0  0  0  0
  -26.5690  -17.5331   19.8407 H   0  0  0  0  0  0
  -25.5967  -17.3497   18.3916 H   0  0  0  0  0  0
  -25.0350  -20.2842   22.2812 H   0  0  0  0  0  0
  -23.9530  -20.1841   20.9339 H   0  0  0  0  0  0
  -25.1291  -19.8564   18.5030 H   0  0  0  0  0  0
  -26.8242  -19.5257   18.6187 H   0  0  0  0  0  0
  -23.4936  -17.4099   19.8124 H   0  0  0  0  0  0
  -25.6097   -8.7174   17.6777 H   0  0  0  0  0  0
  -25.3468   -9.0451   19.3893 H   0  0  0  0  0  0
  -26.7663   -9.6711   18.5899 H   0  0  0  0  0  0
  -22.9769  -23.6862   20.3787 H   0  0  0  0  0  0
  -23.7662  -22.1381   20.2089 H   0  0  0  0  0  0
  -23.9311  -23.3499   18.9535 H   0  0  0  0  0  0
  -22.5445  -12.3290   14.9611 H   0  0  0  0  0  0
  -23.0590  -11.3746   16.2957 H   0  0  0  0  0  0
  -24.1354  -12.6056   15.6465 H   0  0  0  0  0  0
  -20.3957  -13.2880   17.4779 H   0  0  0  0  0  0
  -21.5282  -13.0498   18.7907 H   0  0  0  0  0  0
  -21.2493  -11.7644   17.6322 H   0  0  0  0  0  0
  -24.3572  -14.5198   16.9604 H   0  0  0  0  0  0
  -23.0435  -15.2924   17.7832 H   0  0  0  0  0  0
  -25.2892  -11.1329   17.1152 H   0  0  0  0  0  0
  -23.8833  -10.4830   17.9925 H   0  0  0  0  0  0
  -25.1079  -23.4232   21.8020 H   0  0  0  0  0  0
  -25.0786  -24.8107   20.7653 H   0  0  0  0  0  0
  -27.1852  -21.7020   21.4972 H   0  0  0  0  0  0
  -27.7798  -21.4646   19.9260 H   0  0  0  0  0  0
  -28.4967  -24.0636   20.4767 H   0  0  0  0  0  0
  -27.9610  -24.4721   18.9125 H   0  0  0  0  0  0
  -21.9849  -14.1189   16.1682 H   0  0  0  0  0  0
  -26.1739  -23.1394   19.0214 H   0  0  0  0  0  0
  -28.5981  -14.6120   22.7157 H   0  0  0  0  0  0
  -26.7784  -19.7164   20.8552 H   0  0  0  0  0  0
  1 25  1  0  0  0
  1 30  2  0  0  0
  1 93  1  0  0  0
  2  3  1  0  0  0
  2 25  1  0  0  0
  2 95  1  0  0  0
  2 96  1  0  0  0
  3  4  1  0  0  0
  3 97  1  0  0  0
  3 98  1  0  0  0
  4  5  1  0  0  0
  4 99  1  0  0  0
  4100  1  0  0  0
  5  6  1  0  0  0
  5 26  1  0  0  0
  5101  1  0  0  0
  6 25  1  0  0  0
  6102  1  0  0  0
  6103  1  0  0  0
  7  8  2  0  0  0
  7 26  1  0  0  0
  7 29  1  0  0  0
  8  9  1  0  0  0
  8 22  1  0  0  0
  9 10  1  0  0  0
  9 27  2  0  0  0
 10 11  2  0  0  0
 10 15  1  0  0  0
 11 12  1  0  0  0
 11104  1  0  0  0
 12 13  2  0  0  0
 12105  1  0  0  0
 13 14  1  0  0  0
 13 31  1  0  0  0
 14 15  2  0  0  0
 14106  1  0  0  0
 15107  1  0  0  0
 16 17  2  0  0  0
 16 21  1  0  0  0
 16 31  1  0  0  0
 17 18  1  0  0  0
 17108  1  0  0  0
 18 19  2  0  0  0
 18109  1  0  0  0
 19 20  1  0  0  0
 19 24  1  0  0  0
 20 21  2  0  0  0
 20110  1  0  0  0
 21 23  1  0  0  0
 22 28  1  0  0  0
 22 32  2  0  0  0
 26 27  1  0  0  0
 28111  1  0  0  0
 28112  1  0  0  0
 29113  1  0  0  0
 29114  1  0  0  0
 33 34  1  0  0  0
 33 66  1  0  0  0
 33 70  2  0  0  0
 34 36  1  0  0  0
 34 59  1  0  0  0
 34115  1  0  0  0
 35 44  2  0  0  0
 35 45  1  0  0  0
 35 68  1  0  0  0
 36 56  1  0  0  0
 36116  1  0  0  0
 37 39  1  0  0  0
 37 47  1  0  0  0
 37 66  1  0  0  0
 37117  1  0  0  0
 38 43  2  0  0  0
 38 46  1  0  0  0
 38 47  1  0  0  0
 39 64  1  0  0  0
 39 67  2  0  0  0
 40 52  1  0  0  0
 40 53  2  0  0  0
 40 58  1  0  0  0
 41118  1  0  0  0
 41119  1  0  0  0
 41120  1  0  0  0
 41 48  1  0  0  0
 42 43  1  0  0  0
 42 66  1  0  0  0
 42121  1  0  0  0
 42122  1  0  0  0
 43 44  1  0  0  0
 44123  1  0  0  0
 45 46  2  0  0  0
 45124  1  0  0  0
 46125  1  0  0  0
 47126  1  0  0  0
 47127  1  0  0  0
 48 56  1  0  0  0
 48 65  1  0  0  0
 48128  1  0  0  0
 49 50  1  0  0  0
 49 53  1  0  0  0
 49 64  1  0  0  0
 49129  1  0  0  0
 50 51  1  0  0  0
 50130  1  0  0  0
 50131  1  0  0  0
 51 52  1  0  0  0
 51132  1  0  0  0
 51133  1  0  0  0
 52134  1  0  0  0
 52135  1  0  0  0
 53 54  1  0  0  0
 54 55  2  0  0  0
 54136  1  0  0  0
 55 57  1  0  0  0
 55137  1  0  0  0
 56 69  2  0  0  0
 57 58  2  0  0  0
 57138  1  0  0  0
 58139  1  0  0  0
 59 60  1  0  0  0
 59 61  1  0  0  0
 59 62  1  0  0  0
 60140  1  0  0  0
 60141  1  0  0  0
 60142  1  0  0  0
 61143  1  0  0  0
 61144  1  0  0  0
 61145  1  0  0  0
 62146  1  0  0  0
 62147  1  0  0  0
 62148  1  0  0  0
 63 65  1  0  0  0
 63149  1  0  0  0
 63150  1  0  0  0
 63151  1  0  0  0
 64152  1  0  0  0
 65153  1  0  0  0
 68 89  1  0  0  0
 71 72  2  0  0  0
 71 75  1  0  0  0
 71154  1  0  0  0
 72 73  1  0  0  0
 72 80  1  0  0  0
 73 74  2  0  0  0
 73 85  1  0  0  0
 74 86  1  0  0  0
 74 92  1  0  0  0
 75 92  2  0  0  0
 75 93  1  0  0  0
 76 78  1  0  0  0
 76 80  1  0  0  0
 76155  1  0  0  0
 76156  1  0  0  0
 77 79  1  0  0  0
 77 80  1  0  0  0
 77157  1  0  0  0
 77158  1  0  0  0
 78 94  1  0  0  0
 78159  1  0  0  0
 78160  1  0  0  0
 79 94  1  0  0  0
 79161  1  0  0  0
 79162  1  0  0  0
 80163  1  0  0  0
 81 86  1  0  0  0
 81164  1  0  0  0
 81165  1  0  0  0
 81166  1  0  0  0
 82 87  1  0  0  0
 82167  1  0  0  0
 82168  1  0  0  0
 82169  1  0  0  0
 83170  1  0  0  0
 83171  1  0  0  0
 83172  1  0  0  0
 83 90  1  0  0  0
 84 90  1  0  0  0
 84173  1  0  0  0
 84174  1  0  0  0
 84175  1  0  0  0
 85 90  1  0  0  0
 85176  1  0  0  0
 85177  1  0  0  0
 86178  1  0  0  0
 86179  1  0  0  0
 87180  1  0  0  0
 87181  1  0  0  0
 87 91  1  0  0  0
 88 91  1  0  0  0
 88182  1  0  0  0
 88183  1  0  0  0
 88 94  1  0  0  0
 89 91  1  0  0  0
 89184  1  0  0  0
 89185  1  0  0  0
 90186  1  0  0  0
 91187  1  0  0  0
 93188  1  0  0  0
 94189  1  0  0  0
M  CHG  1  94   1
M  ISO  4   1 100  68 101  89 101  93 100
M  END
> <chiral flag>
0

> <version>
0

> <s_m_source_file>
/data/baiqing/PycharmProjects/Reinvent-master-3.2/result/LINK_invent/BTK/process_docking_weight1_custom_sum_contain_oxygen_bond_distance_aromatic_linkinvent_7_9_3/rearranged_h_0110.sdf

> <i_m_source_file_index>
64

> <r_mmod_Potential_Energy-OPLS-2005>
18899.796875

> <r_mmod_Stretch_Energy-OPLS-2005>
10813.361328125

> <r_mmod_Bend_Energy-OPLS-2005>
2112.78881835938

> <r_mmod_Torsional_Energy-OPLS-2005>
610.959228515625

> <r_mmod_Improper_Torsional_Energy-OPLS-2005>
92.364013671875

> <r_mmod_Van_der_Waal_Energy-OPLS-2005>
4542.71923828125

> <r_mmod_Electrostatic_Energy-OPLS-2005>
-370.801422119141

> <r_mmod_Solvation_Energy-OPLS-2005>
-450.796264648438

> <b_mmod_Minimization_Converged-OPLS-2005>
0

> <r_mmod_RMS_Derivative-OPLS-2005>
15.5159120559692

$$$$
65
                    3D
 Structure written by MMmdl.
162170  0  0  1  0            999 V2000
  -29.9170  -14.4215   19.0613 C   0  0  0  0  0  0
  -31.2035  -12.5922   19.6470 C   0  0  0  0  0  0
  -30.1845  -11.6387   19.1387 C   0  0  0  0  0  0
  -29.2194  -11.7386   20.4719 C   0  0  0  0  0  0
  -28.4111  -13.3416   20.8231 C   0  0  2  0  0  0
  -29.6570  -13.9707   21.2620 C   0  0  0  0  0  0
  -24.9748  -14.2701   20.5321 C   0  0  0  0  0  0
  -23.9926  -13.3618   20.9576 C   0  0  0  0  0  0
  -24.3687  -12.0631   20.6661 C   0  0  0  0  0  0
  -23.8087  -10.6322   20.8944 C   0  0  0  0  0  0
  -24.2735   -9.6244   21.8265 C   0  0  0  0  0  0
  -23.6134   -8.3789   22.0212 C   0  0  0  0  0  0
  -22.4239   -8.0923   21.3189 C   0  0  0  0  0  0
  -21.9583   -9.0568   20.4073 C   0  0  0  0  0  0
  -22.6351  -10.2800   20.1969 C   0  0  0  0  0  0
  -21.7157   -6.1016   22.5256 C   0  0  0  0  0  0
  -21.4261   -6.5834   23.8215 C   0  0  0  0  0  0
  -21.3789   -5.6933   24.9145 C   0  0  0  0  0  0
  -21.6063   -4.3184   24.7189 C   0  0  0  0  0  0
  -21.8769   -3.8308   23.4290 C   0  0  0  0  0  0
  -21.9279   -4.7181   22.3371 C   0  0  0  0  0  0
  -22.5997  -13.6854   21.2884 C   0  0  0  0  0  0
  -22.1639   -4.2311   21.0952 F   0  0  0  0  0  0
  -21.5591   -3.4630   25.7667 F   0  0  0  0  0  0
  -30.4927  -13.8102   20.0703 N   0  0  0  0  0  0
  -26.2012  -13.6873   20.1543 N   0  0  0  0  0  0
  -25.2622  -12.5053   19.7738 N   0  0  0  0  0  0
  -21.9589  -12.8809   22.1255 N   0  0  0  0  0  0
  -24.8640  -15.6184   20.3688 N   0  0  0  0  0  0
  -30.7645  -15.2832   18.7970 O   0  0  0  0  0  0
  -21.6970   -6.9194   21.4165 O   0  0  0  0  0  0
  -22.0750  -14.6653   20.7739 O   0  0  0  0  0  0
  -24.6873  -31.7962   23.1558 C   0  0  0  0  0  0
  -25.9448  -32.4433   23.8069 C   0  0  1  0  0  0
  -26.9628  -26.5288   20.3522 C   0  0  0  0  0  0
  -25.6033  -33.8279   24.1945 N   0  0  0  0  0  0
  -23.5031  -30.4125   21.5148 C   0  0  2  0  0  0
  -24.9160  -28.7402   20.1176 C   0  0  0  0  0  0
  -22.7738  -29.4315   22.4721 C   0  0  0  0  0  0
  -18.0321  -28.1409   22.8459 C   0  0  0  0  0  0
  -24.1505  -36.7161   23.2649 C   0  0  0  0  0  0
  -26.0841  -30.4725   21.4423 C   0  0  0  0  0  0
  -26.0984  -29.0243   20.8094 C   0  0  0  0  0  0
  -27.1283  -27.9437   20.8877 C   0  0  0  0  0  0
  -25.8213  -26.5061   19.5266 C   0  0  0  0  0  0
  -24.8316  -27.5188   19.4339 C   0  0  0  0  0  0
  -23.7515  -29.7359   20.1375 C   0  0  0  0  0  0
  -25.4152  -36.2899   24.0281 C   0  0  1  0  0  0
  -20.5953  -28.3770   23.1154 C   0  0  2  0  0  0
  -20.6796  -26.9432   22.5408 C   0  0  0  0  0  0
  -19.5773  -26.6362   21.5225 C   0  0  0  0  0  0
  -18.1950  -26.7936   22.1622 C   0  0  0  0  0  0
  -19.1586  -28.8913   23.2788 C   0  0  0  0  0  0
  -18.9493  -30.1496   23.8834 C   0  0  0  0  0  0
  -17.6484  -30.6597   24.0548 C   0  0  0  0  0  0
  -25.9139  -34.9283   23.4953 C   0  0  0  0  0  0
  -16.5373  -29.9079   23.6348 C   0  0  0  0  0  0
  -16.7303  -28.6500   23.0368 C   0  0  0  0  0  0
  -26.4590  -31.6494   25.0714 C   0  0  0  0  0  0
  -25.3651  -31.3831   26.1328 C   0  0  0  0  0  0
  -27.0510  -30.2824   24.6657 C   0  0  0  0  0  0
  -27.6042  -32.4358   25.7519 C   0  0  0  0  0  0
  -27.5580  -37.1740   24.8461 C   0  0  0  0  0  0
  -21.4389  -29.3024   22.3480 N   0  0  0  0  0  0
  -26.4279  -37.3666   23.9415 N   0  0  0  0  0  0
  -24.7850  -30.9316   22.0882 N   0  0  0  0  0  0
  -23.4183  -28.7886   23.3042 O   0  0  0  0  0  0
  -27.7277  -25.1725   20.4492 O   0  0  0  0  0  0
  -26.5773  -34.8863   22.4569 O   0  0  0  0  0  0
  -23.5899  -32.1121   23.6470 O   0  0  0  0  0  0
  -26.8777  -11.9279   21.4334 C   0  0  0  0  0  0
  -26.8492  -14.0170   22.3805 C   0  0  0  0  0  0
  -27.5248  -12.3412   18.9061 C   0  0  0  0  0  0
  -27.8609  -15.4685   19.4413 C   0  0  0  0  0  0
  -27.4042  -15.7916   21.2306 C   0  0  1  0  0  0
  -29.0230  -19.5057   20.7491 C   0  0  0  0  0  0
  -27.6312  -19.8264   22.7717 C   0  0  0  0  0  0
  -26.9357  -17.7549   21.1271 C   0  0  0  0  0  0
  -27.1987  -21.5138   20.5920 C   0  0  0  0  0  0
  -27.3777  -23.4736   20.9926 C   0  0  0  0  0  0
  -27.5771  -19.6496   21.2449 C   0  0  0  0  0  0
  -28.4654  -14.0749   18.6479 N   0  0  0  0  0  0
  -31.9594  -12.8060   18.8896 H   0  0  0  0  0  0
  -31.7457  -12.1758   20.4986 H   0  0  0  0  0  0
  -30.6122  -10.6381   19.0531 H   0  0  0  0  0  0
  -29.8450  -11.9084   18.1408 H   0  0  0  0  0  0
  -29.8087  -11.4111   21.3516 H   0  0  0  0  0  0
  -28.6293  -10.8037   20.3877 H   0  0  0  0  0  0
  -28.8951  -12.6713   20.3053 H   0  0  0  0  0  0
  -29.7623  -14.9923   21.5772 H   0  0  0  0  0  0
  -30.0994  -13.4214   22.0974 H   0  0  0  0  0  0
  -25.1225   -9.7632   22.4723 H   0  0  0  0  0  0
  -24.0190   -7.6665   22.7263 H   0  0  0  0  0  0
  -21.0523   -8.8593   19.8538 H   0  0  0  0  0  0
  -22.2127  -10.9892   19.4995 H   0  0  0  0  0  0
  -21.2299   -7.6352   23.9778 H   0  0  0  0  0  0
  -21.1649   -6.0651   25.9064 H   0  0  0  0  0  0
  -22.0399   -2.7750   23.2745 H   0  0  0  0  0  0
  -22.4139  -12.0781   22.5346 H   0  0  0  0  0  0
  -21.0021  -13.0843   22.3722 H   0  0  0  0  0  0
  -24.0061  -16.1291   20.5408 H   0  0  0  0  0  0
  -25.6471  -16.1973   20.1020 H   0  0  0  0  0  0
  -26.7506  -32.4820   23.0742 H   0  0  0  0  0  0
  -25.0106  -33.9323   25.0049 H   0  0  0  0  0  0
  -22.8329  -31.2564   21.3418 H   0  0  0  0  0  0
  -23.3797  -35.9460   23.3236 H   0  0  0  0  0  0
  -24.3584  -36.8898   22.2082 H   0  0  0  0  0  0
  -23.7223  -37.6307   23.6765 H   0  0  0  0  0  0
  -26.3072  -31.1725   20.6355 H   0  0  0  0  0  0
  -26.9387  -30.5309   22.1018 H   0  0  0  0  0  0
  -28.0124  -28.1458   21.4771 H   0  0  0  0  0  0
  -25.6187  -25.5862   18.9940 H   0  0  0  0  0  0
  -23.9460  -27.3079   18.8480 H   0  0  0  0  0  0
  -23.9767  -30.5064   19.4010 H   0  0  0  0  0  0
  -22.8405  -29.2489   19.7859 H   0  0  0  0  0  0
  -25.1355  -36.1679   25.0772 H   0  0  0  0  0  0
  -21.0017  -28.3395   24.1288 H   0  0  0  0  0  0
  -20.5680  -26.2391   23.3667 H   0  0  0  0  0  0
  -21.6658  -26.7391   22.1216 H   0  0  0  0  0  0
  -19.6935  -25.6255   21.1302 H   0  0  0  0  0  0
  -19.6720  -27.3133   20.6726 H   0  0  0  0  0  0
  -17.4228  -26.6680   21.4018 H   0  0  0  0  0  0
  -18.0333  -26.0086   22.9025 H   0  0  0  0  0  0
  -19.7968  -30.7325   24.2183 H   0  0  0  0  0  0
  -17.5034  -31.6269   24.5160 H   0  0  0  0  0  0
  -15.5372  -30.2960   23.7707 H   0  0  0  0  0  0
  -15.8702  -28.0794   22.7125 H   0  0  0  0  0  0
  -24.5876  -30.7115   25.7656 H   0  0  0  0  0  0
  -24.8776  -32.3047   26.4527 H   0  0  0  0  0  0
  -25.7828  -30.9169   27.0261 H   0  0  0  0  0  0
  -26.3207  -29.6426   24.1685 H   0  0  0  0  0  0
  -27.3939  -29.7287   25.5408 H   0  0  0  0  0  0
  -27.9209  -30.3941   24.0180 H   0  0  0  0  0  0
  -27.2595  -33.3753   26.1858 H   0  0  0  0  0  0
  -28.3961  -32.6764   25.0410 H   0  0  0  0  0  0
  -28.0578  -31.8639   26.5627 H   0  0  0  0  0  0
  -28.2539  -38.0092   24.7551 H   0  0  0  0  0  0
  -28.1135  -36.2619   24.6233 H   0  0  0  0  0  0
  -27.2304  -37.1309   25.8862 H   0  0  0  0  0  0
  -20.9683  -29.8718   21.6584 H   0  0  0  0  0  0
  -26.0112  -38.2721   24.1423 H   0  0  0  0  0  0
  -26.1700  -11.1970   21.7200 H   0  0  0  0  0  0
  -27.5951  -11.4126   22.0810 H   0  0  0  0  0  0
  -27.5328  -13.9782   23.2315 H   0  0  0  0  0  0
  -25.9041  -14.1889   22.8977 H   0  0  0  0  0  0
  -26.7668  -12.4460   18.1222 H   0  0  0  0  0  0
  -27.9008  -11.4417   18.4243 H   0  0  0  0  0  0
  -28.4656  -16.3377   19.1595 H   0  0  0  0  0  0
  -26.9763  -15.6891   18.8422 H   0  0  0  0  0  0
  -28.2507  -16.0933   21.8314 H   0  0  0  0  0  0
  -29.5860  -20.4289   20.9008 H   0  0  0  0  0  0
  -29.0433  -19.2823   19.6822 H   0  0  0  0  0  0
  -29.5548  -18.7075   21.2681 H   0  0  0  0  0  0
  -28.0547  -18.9431   23.2550 H   0  0  0  0  0  0
  -26.6378  -19.9784   23.1946 H   0  0  0  0  0  0
  -28.2491  -20.6766   23.0634 H   0  0  0  0  0  0
  -26.0058  -17.7991   21.6971 H   0  0  0  0  0  0
  -26.5728  -17.7893   20.0983 H   0  0  0  0  0  0
  -27.6489  -21.4750   19.6014 H   0  0  0  0  0  0
  -26.1376  -21.4450   20.3533 H   0  0  0  0  0  0
  -26.4956  -23.6569   21.6088 H   0  0  0  0  0  0
  -28.1753  -23.4171   21.7319 H   0  0  0  0  0  0
  1 25  1  0  0  0
  1 30  2  0  0  0
  1 82  1  0  0  0
  2  3  1  0  0  0
  2 25  1  0  0  0
  2 83  1  0  0  0
  2 84  1  0  0  0
  3  4  1  0  0  0
  3 85  1  0  0  0
  3 86  1  0  0  0
  4  5  1  0  0  0
  4 87  1  0  0  0
  4 88  1  0  0  0
  5  6  1  0  0  0
  5 26  1  0  0  0
  5 89  1  0  0  0
  6 25  1  0  0  0
  6 90  1  0  0  0
  6 91  1  0  0  0
  7  8  2  0  0  0
  7 26  1  0  0  0
  7 29  1  0  0  0
  8  9  1  0  0  0
  8 22  1  0  0  0
  9 10  1  0  0  0
  9 27  2  0  0  0
 10 11  2  0  0  0
 10 15  1  0  0  0
 11 12  1  0  0  0
 11 92  1  0  0  0
 12 13  2  0  0  0
 12 93  1  0  0  0
 13 14  1  0  0  0
 13 31  1  0  0  0
 14 15  2  0  0  0
 14 94  1  0  0  0
 15 95  1  0  0  0
 16 17  2  0  0  0
 16 21  1  0  0  0
 16 31  1  0  0  0
 17 18  1  0  0  0
 17 96  1  0  0  0
 18 19  2  0  0  0
 18 97  1  0  0  0
 19 20  1  0  0  0
 19 24  1  0  0  0
 20 21  2  0  0  0
 20 98  1  0  0  0
 21 23  1  0  0  0
 22 28  1  0  0  0
 22 32  2  0  0  0
 26 27  1  0  0  0
 28 99  1  0  0  0
 28100  1  0  0  0
 29101  1  0  0  0
 29102  1  0  0  0
 33 34  1  0  0  0
 33 66  1  0  0  0
 33 70  2  0  0  0
 34 36  1  0  0  0
 34 59  1  0  0  0
 34103  1  0  0  0
 35 44  2  0  0  0
 35 45  1  0  0  0
 35 68  1  0  0  0
 36 56  1  0  0  0
 36104  1  0  0  0
 37 39  1  0  0  0
 37 47  1  0  0  0
 37 66  1  0  0  0
 37105  1  0  0  0
 38 43  2  0  0  0
 38 46  1  0  0  0
 38 47  1  0  0  0
 39 64  1  0  0  0
 39 67  2  0  0  0
 40 52  1  0  0  0
 40 53  2  0  0  0
 40 58  1  0  0  0
 41106  1  0  0  0
 41107  1  0  0  0
 41108  1  0  0  0
 41 48  1  0  0  0
 42 43  1  0  0  0
 42 66  1  0  0  0
 42109  1  0  0  0
 42110  1  0  0  0
 43 44  1  0  0  0
 44111  1  0  0  0
 45 46  2  0  0  0
 45112  1  0  0  0
 46113  1  0  0  0
 47114  1  0  0  0
 47115  1  0  0  0
 48 56  1  0  0  0
 48 65  1  0  0  0
 48116  1  0  0  0
 49 50  1  0  0  0
 49 53  1  0  0  0
 49 64  1  0  0  0
 49117  1  0  0  0
 50 51  1  0  0  0
 50118  1  0  0  0
 50119  1  0  0  0
 51 52  1  0  0  0
 51120  1  0  0  0
 51121  1  0  0  0
 52122  1  0  0  0
 52123  1  0  0  0
 53 54  1  0  0  0
 54 55  2  0  0  0
 54124  1  0  0  0
 55 57  1  0  0  0
 55125  1  0  0  0
 56 69  2  0  0  0
 57 58  2  0  0  0
 57126  1  0  0  0
 58127  1  0  0  0
 59 60  1  0  0  0
 59 61  1  0  0  0
 59 62  1  0  0  0
 60128  1  0  0  0
 60129  1  0  0  0
 60130  1  0  0  0
 61131  1  0  0  0
 61132  1  0  0  0
 61133  1  0  0  0
 62134  1  0  0  0
 62135  1  0  0  0
 62136  1  0  0  0
 63 65  1  0  0  0
 63137  1  0  0  0
 63138  1  0  0  0
 63139  1  0  0  0
 64140  1  0  0  0
 65141  1  0  0  0
 68 80  1  0  0  0
 71 72  1  0  0  0
 71 73  1  0  0  0
 71142  1  0  0  0
 71143  1  0  0  0
 72 75  1  0  0  0
 72144  1  0  0  0
 72145  1  0  0  0
 73 82  1  0  0  0
 73146  1  0  0  0
 73147  1  0  0  0
 74 75  1  0  0  0
 74 82  1  0  0  0
 74148  1  0  0  0
 74149  1  0  0  0
 75 78  1  0  0  0
 75150  1  0  0  0
 76151  1  0  0  0
 76152  1  0  0  0
 76153  1  0  0  0
 76 81  1  0  0  0
 77 81  1  0  0  0
 77154  1  0  0  0
 77155  1  0  0  0
 77156  1  0  0  0
 78 81  1  0  0  0
 78157  1  0  0  0
 78158  1  0  0  0
 79 80  1  0  0  0
 79 81  1  0  0  0
 79159  1  0  0  0
 79160  1  0  0  0
 80161  1  0  0  0
 80162  1  0  0  0
M  ISO  4   1 100  68 101  80 101  82 100
M  END
> <chiral flag>
0

> <version>
0

> <s_m_source_file>
/data/baiqing/PycharmProjects/Reinvent-master-3.2/result/LINK_invent/BTK/process_docking_weight1_custom_sum_contain_oxygen_bond_distance_aromatic_linkinvent_7_9_3/rearranged_h_0110.sdf

> <i_m_source_file_index>
65

> <r_mmod_Potential_Energy-OPLS-2005>
13318.189453125

> <r_mmod_Stretch_Energy-OPLS-2005>
6004.96630859375

> <r_mmod_Bend_Energy-OPLS-2005>
1841.39514160156

> <r_mmod_Torsional_Energy-OPLS-2005>
652.078186035156

> <r_mmod_Improper_Torsional_Energy-OPLS-2005>
25.5893230438232

> <r_mmod_Van_der_Waal_Energy-OPLS-2005>
2375.53564453125

> <r_mmod_Electrostatic_Energy-OPLS-2005>
-256.179870605469

> <r_mmod_Solvation_Energy-OPLS-2005>
-208.688934326172

> <b_mmod_Minimization_Converged-OPLS-2005>
0

> <r_mmod_RMS_Derivative-OPLS-2005>
6.41686153411865

$$$$
66
                    3D
 Structure written by MMmdl.
187195  0  0  1  0            999 V2000
  -30.6971  -14.4171   20.5659 C   0  0  0  0  0  0
  -30.4175  -12.2646   19.4144 C   0  0  0  0  0  0
  -29.4938  -12.5024   18.2002 C   0  0  0  0  0  0
  -28.0088  -12.3855   18.6042 C   0  0  0  0  0  0
  -27.6670  -13.2028   19.8796 C   0  0  2  0  0  0
  -28.7051  -12.9428   20.9985 C   0  0  0  0  0  0
  -25.2629  -13.8140   20.5678 C   0  0  0  0  0  0
  -24.1863  -13.0444   20.9150 C   0  0  0  0  0  0
  -24.6392  -11.6905   20.8718 C   0  0  0  0  0  0
  -23.9025  -10.4310   21.0412 C   0  0  0  0  0  0
  -24.3592   -9.4229   21.9195 C   0  0  0  0  0  0
  -23.6299   -8.2247   22.0756 C   0  0  0  0  0  0
  -22.4286   -8.0281   21.3540 C   0  0  0  0  0  0
  -21.9887   -9.0238   20.4641 C   0  0  0  0  0  0
  -22.7193  -10.2135   20.3062 C   0  0  0  0  0  0
  -21.6858   -6.0741   22.5285 C   0  0  0  0  0  0
  -21.4008   -6.5646   23.8220 C   0  0  0  0  0  0
  -21.3654   -5.6806   24.9182 C   0  0  0  0  0  0
  -21.6048   -4.3067   24.7245 C   0  0  0  0  0  0
  -21.8812   -3.8152   23.4369 C   0  0  0  0  0  0
  -21.9193   -4.6962   22.3426 C   0  0  0  0  0  0
  -22.7888  -13.5244   21.1826 C   0  0  0  0  0  0
  -22.1672   -4.2158   21.1005 F   0  0  0  0  0  0
  -21.5621   -3.4542   25.7750 F   0  0  0  0  0  0
  -30.0448  -13.2327   20.4563 N   0  0  0  0  0  0
  -26.3051  -12.9301   20.3359 N   0  0  0  0  0  0
  -25.9317  -11.6459   20.5747 N   0  0  0  0  0  0
  -22.0522  -12.8259   22.0389 N   0  0  0  0  0  0
  -25.4384  -15.1860   20.4123 N   0  0  0  0  0  0
  -31.8139  -14.6235   20.0814 O   0  0  0  0  0  0
  -21.6653   -6.8874   21.4249 O   0  0  0  0  0  0
  -22.3584  -14.5575   20.6705 O   0  0  0  0  0  0
  -24.6138  -31.8682   23.2100 C   0  0  0  0  0  0
  -25.9040  -32.4814   23.8401 C   0  0  1  0  0  0
  -27.2421  -27.4533   20.0978 C   0  0  0  0  0  0
  -25.5866  -33.8605   24.2331 N   0  0  0  0  0  0
  -23.4003  -30.4918   21.5500 C   0  0  2  0  0  0
  -24.8476  -28.9577   20.1212 C   0  0  0  0  0  0
  -22.7391  -29.4661   22.4988 C   0  0  0  0  0  0
  -18.0260  -28.1381   22.8490 C   0  0  0  0  0  0
  -24.1484  -36.7341   23.2637 C   0  0  0  0  0  0
  -25.9285  -30.8433   21.3564 C   0  0  0  0  0  0
  -26.0071  -29.4771   20.7084 C   0  0  0  0  0  0
  -27.2080  -28.7343   20.6880 C   0  0  0  0  0  0
  -26.0645  -26.9465   19.4989 C   0  0  0  0  0  0
  -24.8710  -27.6920   19.5128 C   0  0  0  0  0  0
  -23.6062  -29.8199   20.1668 C   0  0  0  0  0  0
  -25.4096  -36.3116   24.0335 C   0  0  1  0  0  0
  -20.5855  -28.3669   23.1307 C   0  0  2  0  0  0
  -20.6744  -26.9403   22.5421 C   0  0  0  0  0  0
  -19.5733  -26.6390   21.5209 C   0  0  0  0  0  0
  -18.1910  -26.7922   22.1624 C   0  0  0  0  0  0
  -19.1514  -28.8842   23.2894 C   0  0  0  0  0  0
  -18.9441  -30.1433   23.8927 C   0  0  0  0  0  0
  -17.6440  -30.6589   24.0565 C   0  0  0  0  0  0
  -25.9013  -34.9469   23.5150 C   0  0  0  0  0  0
  -16.5330  -29.9101   23.6315 C   0  0  0  0  0  0
  -16.7239  -28.6512   23.0349 C   0  0  0  0  0  0
  -26.4463  -31.6576   25.0724 C   0  0  0  0  0  0
  -25.3709  -31.3686   26.1453 C   0  0  0  0  0  0
  -27.0267  -30.3001   24.6096 C   0  0  0  0  0  0
  -27.6059  -32.4257   25.7486 C   0  0  0  0  0  0
  -27.5576  -37.1821   24.8450 C   0  0  0  0  0  0
  -21.4125  -29.3037   22.3722 N   0  0  0  0  0  0
  -26.4294  -37.3800   23.9401 N   0  0  0  0  0  0
  -24.6667  -31.0805   22.0981 N   0  0  0  0  0  0
  -23.4171  -28.8205   23.3030 O   0  0  0  0  0  0
  -28.4307  -26.7513   20.1118 O   0  0  0  0  0  0
  -26.5583  -34.8928   22.4717 O   0  0  0  0  0  0
  -23.5326  -32.1421   23.7491 O   0  0  0  0  0  0
  -31.8566  -20.3086   20.7346 C   0  0  0  0  0  0
  -33.2884  -21.9401   21.7858 C   0  0  0  0  0  0
  -32.3957  -21.6157   20.7478 C   0  0  0  0  0  0
  -32.2605  -19.3772   21.7196 C   0  0  0  0  0  0
  -33.2102  -19.8040   22.6789 C   0  0  0  0  0  0
  -33.7972  -18.8421   23.6982 C   0  0  0  0  0  0
  -33.2238  -22.3380   18.5055 C   0  0  0  0  0  0
  -27.5605  -19.8033   24.0679 C   0  0  0  0  0  0
  -29.6339  -21.2063   24.4334 C   0  0  0  0  0  0
  -28.0274  -25.1189   21.8649 C   0  0  0  0  0  0
  -29.8587  -18.7097   24.0472 C   0  0  0  0  0  0
  -29.7104  -17.5585   23.0257 C   0  0  0  0  0  0
  -30.0301  -16.7966   20.5551 C   0  0  0  0  0  0
  -30.7631  -22.6736   18.9973 C   0  0  0  0  0  0
  -29.7700  -24.7401   20.0328 C   0  0  0  0  0  0
  -32.1874  -22.6149   19.6043 C   0  0  1  0  0  0
  -29.0461  -19.9796   23.7210 C   0  0  0  0  0  0
  -30.3414  -17.8419   21.6418 C   0  0  2  0  0  0
  -28.3885  -25.3410   20.3860 C   0  0  2  0  0  0
  -33.6887  -21.0644   22.7292 N   0  0  0  0  0  0
  -31.7828  -18.0533   21.7341 N   0  0  0  0  0  0
  -29.9398  -15.4186   21.0316 N   0  0  0  0  0  0
  -29.7364  -23.2551   19.8930 N   0  3  0  0  0  0
  -31.4671  -12.3379   19.1212 H   0  0  0  0  0  0
  -30.2893  -11.2486   19.7872 H   0  0  0  0  0  0
  -29.7114  -11.7883   17.4043 H   0  0  0  0  0  0
  -29.6880  -13.4913   17.7800 H   0  0  0  0  0  0
  -27.7785  -11.3290   18.7577 H   0  0  0  0  0  0
  -27.3712  -12.7113   17.7813 H   0  0  0  0  0  0
  -27.7213  -14.2566   19.6004 H   0  0  0  0  0  0
  -28.6657  -11.8969   21.3074 H   0  0  0  0  0  0
  -28.4805  -13.5209   21.8972 H   0  0  0  0  0  0
  -25.2741   -9.5725   22.4755 H   0  0  0  0  0  0
  -24.0012   -7.4645   22.7489 H   0  0  0  0  0  0
  -21.0800   -8.8744   19.8963 H   0  0  0  0  0  0
  -22.3636  -10.9666   19.6171 H   0  0  0  0  0  0
  -21.2000   -7.6157   23.9723 H   0  0  0  0  0  0
  -21.1474   -6.0544   25.9089 H   0  0  0  0  0  0
  -22.0594   -2.7610   23.2876 H   0  0  0  0  0  0
  -22.4113  -11.9908   22.4749 H   0  0  0  0  0  0
  -21.1148  -13.1289   22.2623 H   0  0  0  0  0  0
  -24.6706  -15.8407   20.5156 H   0  0  0  0  0  0
  -26.2974  -15.6224   20.0988 H   0  0  0  0  0  0
  -26.7116  -32.5540   23.1176 H   0  0  0  0  0  0
  -25.0002  -33.9780   25.0453 H   0  0  0  0  0  0
  -22.6888  -31.3093   21.4085 H   0  0  0  0  0  0
  -23.3730  -35.9696   23.3301 H   0  0  0  0  0  0
  -24.3588  -36.8965   22.2056 H   0  0  0  0  0  0
  -23.7256  -37.6553   23.6655 H   0  0  0  0  0  0
  -26.0272  -31.6084   20.5852 H   0  0  0  0  0  0
  -26.8208  -30.9035   21.9692 H   0  0  0  0  0  0
  -28.1084  -29.1343   21.1340 H   0  0  0  0  0  0
  -26.0491  -25.9880   19.0008 H   0  0  0  0  0  0
  -23.9799  -27.2945   19.0482 H   0  0  0  0  0  0
  -23.7071  -30.5904   19.4015 H   0  0  0  0  0  0
  -22.7320  -29.2346   19.8776 H   0  0  0  0  0  0
  -25.1271  -36.2004   25.0827 H   0  0  0  0  0  0
  -20.9938  -28.3273   24.1428 H   0  0  0  0  0  0
  -20.5634  -26.2304   23.3625 H   0  0  0  0  0  0
  -21.6621  -26.7443   22.1237 H   0  0  0  0  0  0
  -19.6907  -25.6311   21.1228 H   0  0  0  0  0  0
  -19.6677  -27.3209   20.6745 H   0  0  0  0  0  0
  -17.4174  -26.6658   21.4020 H   0  0  0  0  0  0
  -18.0316  -26.0062   22.9024 H   0  0  0  0  0  0
  -19.7918  -30.7225   24.2342 H   0  0  0  0  0  0
  -17.5004  -31.6273   24.5154 H   0  0  0  0  0  0
  -15.5335  -30.3015   23.7616 H   0  0  0  0  0  0
  -15.8636  -28.0822   22.7070 H   0  0  0  0  0  0
  -24.5884  -30.7041   25.7774 H   0  0  0  0  0  0
  -24.8895  -32.2838   26.4895 H   0  0  0  0  0  0
  -25.8027  -30.8846   27.0214 H   0  0  0  0  0  0
  -26.2820  -29.6801   24.1093 H   0  0  0  0  0  0
  -27.3944  -29.7205   25.4570 H   0  0  0  0  0  0
  -27.8698  -30.4293   23.9308 H   0  0  0  0  0  0
  -27.2707  -33.3551   26.2099 H   0  0  0  0  0  0
  -28.3862  -32.6803   25.0303 H   0  0  0  0  0  0
  -28.0723  -31.8333   26.5371 H   0  0  0  0  0  0
  -28.2588  -38.0123   24.7478 H   0  0  0  0  0  0
  -28.1076  -36.2641   24.6287 H   0  0  0  0  0  0
  -27.2288  -37.1489   25.8855 H   0  0  0  0  0  0
  -20.9283  -29.8774   21.6947 H   0  0  0  0  0  0
  -26.0184  -38.2891   24.1385 H   0  0  0  0  0  0
  -31.1957  -20.0000   19.9387 H   0  0  0  0  0  0
  -33.7541  -22.9146   21.8263 H   0  0  0  0  0  0
  -33.0271  -18.4414   24.3557 H   0  0  0  0  0  0
  -34.5506  -19.3241   24.3234 H   0  0  0  0  0  0
  -34.2762  -18.0066   23.1888 H   0  0  0  0  0  0
  -34.2402  -22.4038   18.8928 H   0  0  0  0  0  0
  -33.1419  -23.0595   17.6914 H   0  0  0  0  0  0
  -33.0919  -21.3434   18.0807 H   0  0  0  0  0  0
  -26.9641  -20.6414   23.7059 H   0  0  0  0  0  0
  -27.4112  -19.7285   25.1465 H   0  0  0  0  0  0
  -27.1547  -18.8951   23.6232 H   0  0  0  0  0  0
  -29.1365  -22.1244   24.1174 H   0  0  0  0  0  0
  -30.6958  -21.3178   24.2057 H   0  0  0  0  0  0
  -29.5286  -21.1279   25.5165 H   0  0  0  0  0  0
  -27.9279  -24.0573   22.0867 H   0  0  0  0  0  0
  -28.7881  -25.5341   22.5281 H   0  0  0  0  0  0
  -27.0734  -25.5808   22.1188 H   0  0  0  0  0  0
  -30.9092  -18.9679   24.1324 H   0  0  0  0  0  0
  -29.5892  -18.3536   25.0424 H   0  0  0  0  0  0
  -28.6524  -17.3212   22.9043 H   0  0  0  0  0  0
  -30.1566  -16.6603   23.4520 H   0  0  0  0  0  0
  -30.7227  -16.9039   19.7162 H   0  0  0  0  0  0
  -29.0461  -17.0181   20.1382 H   0  0  0  0  0  0
  -30.4440  -21.6792   18.6768 H   0  0  0  0  0  0
  -30.7772  -23.2717   18.0875 H   0  0  0  0  0  0
  -30.5240  -25.0348   20.7641 H   0  0  0  0  0  0
  -30.0829  -25.1772   19.0850 H   0  0  0  0  0  0
  -32.4184  -23.6088   19.9956 H   0  0  0  0  0  0
  -29.1206  -20.1834   22.6538 H   0  0  0  0  0  0
  -29.8842  -18.7548   21.2687 H   0  0  0  0  0  0
  -27.6529  -24.8504   19.7505 H   0  0  0  0  0  0
  -32.2334  -17.4384   22.4036 H   0  0  0  0  0  0
  -29.0627  -15.1500   21.4540 H   0  0  0  0  0  0
  -29.7756  -22.8059   20.7934 H   0  0  0  0  0  0
  -28.8530  -23.0153   19.4698 H   0  0  0  0  0  0
  1 25  1  0  0  0
  1 30  2  0  0  0
  1 92  1  0  0  0
  2  3  1  0  0  0
  2 25  1  0  0  0
  2 94  1  0  0  0
  2 95  1  0  0  0
  3  4  1  0  0  0
  3 96  1  0  0  0
  3 97  1  0  0  0
  4  5  1  0  0  0
  4 98  1  0  0  0
  4 99  1  0  0  0
  5  6  1  0  0  0
  5 26  1  0  0  0
  5100  1  0  0  0
  6 25  1  0  0  0
  6101  1  0  0  0
  6102  1  0  0  0
  7  8  2  0  0  0
  7 26  1  0  0  0
  7 29  1  0  0  0
  8  9  1  0  0  0
  8 22  1  0  0  0
  9 10  1  0  0  0
  9 27  2  0  0  0
 10 11  2  0  0  0
 10 15  1  0  0  0
 11 12  1  0  0  0
 11103  1  0  0  0
 12 13  2  0  0  0
 12104  1  0  0  0
 13 14  1  0  0  0
 13 31  1  0  0  0
 14 15  2  0  0  0
 14105  1  0  0  0
 15106  1  0  0  0
 16 17  2  0  0  0
 16 21  1  0  0  0
 16 31  1  0  0  0
 17 18  1  0  0  0
 17107  1  0  0  0
 18 19  2  0  0  0
 18108  1  0  0  0
 19 20  1  0  0  0
 19 24  1  0  0  0
 20 21  2  0  0  0
 20109  1  0  0  0
 21 23  1  0  0  0
 22 28  1  0  0  0
 22 32  2  0  0  0
 26 27  1  0  0  0
 28110  1  0  0  0
 28111  1  0  0  0
 29112  1  0  0  0
 29113  1  0  0  0
 33 34  1  0  0  0
 33 66  1  0  0  0
 33 70  2  0  0  0
 34 36  1  0  0  0
 34 59  1  0  0  0
 34114  1  0  0  0
 35 44  2  0  0  0
 35 45  1  0  0  0
 35 68  1  0  0  0
 36 56  1  0  0  0
 36115  1  0  0  0
 37 39  1  0  0  0
 37 47  1  0  0  0
 37 66  1  0  0  0
 37116  1  0  0  0
 38 43  2  0  0  0
 38 46  1  0  0  0
 38 47  1  0  0  0
 39 64  1  0  0  0
 39 67  2  0  0  0
 40 52  1  0  0  0
 40 53  2  0  0  0
 40 58  1  0  0  0
 41117  1  0  0  0
 41118  1  0  0  0
 41119  1  0  0  0
 41 48  1  0  0  0
 42 43  1  0  0  0
 42 66  1  0  0  0
 42120  1  0  0  0
 42121  1  0  0  0
 43 44  1  0  0  0
 44122  1  0  0  0
 45 46  2  0  0  0
 45123  1  0  0  0
 46124  1  0  0  0
 47125  1  0  0  0
 47126  1  0  0  0
 48 56  1  0  0  0
 48 65  1  0  0  0
 48127  1  0  0  0
 49 50  1  0  0  0
 49 53  1  0  0  0
 49 64  1  0  0  0
 49128  1  0  0  0
 50 51  1  0  0  0
 50129  1  0  0  0
 50130  1  0  0  0
 51 52  1  0  0  0
 51131  1  0  0  0
 51132  1  0  0  0
 52133  1  0  0  0
 52134  1  0  0  0
 53 54  1  0  0  0
 54 55  2  0  0  0
 54135  1  0  0  0
 55 57  1  0  0  0
 55136  1  0  0  0
 56 69  2  0  0  0
 57 58  2  0  0  0
 57137  1  0  0  0
 58138  1  0  0  0
 59 60  1  0  0  0
 59 61  1  0  0  0
 59 62  1  0  0  0
 60139  1  0  0  0
 60140  1  0  0  0
 60141  1  0  0  0
 61142  1  0  0  0
 61143  1  0  0  0
 61144  1  0  0  0
 62145  1  0  0  0
 62146  1  0  0  0
 62147  1  0  0  0
 63 65  1  0  0  0
 63148  1  0  0  0
 63149  1  0  0  0
 63150  1  0  0  0
 64151  1  0  0  0
 65152  1  0  0  0
 68 89  1  0  0  0
 71 73  2  0  0  0
 71 74  1  0  0  0
 71153  1  0  0  0
 72 73  1  0  0  0
 72 90  2  0  0  0
 72154  1  0  0  0
 73 86  1  0  0  0
 74 75  2  0  0  0
 74 91  1  0  0  0
 75 76  1  0  0  0
 75 90  1  0  0  0
 76155  1  0  0  0
 76156  1  0  0  0
 76157  1  0  0  0
 77158  1  0  0  0
 77159  1  0  0  0
 77160  1  0  0  0
 77 86  1  0  0  0
 78161  1  0  0  0
 78162  1  0  0  0
 78163  1  0  0  0
 78 87  1  0  0  0
 79 87  1  0  0  0
 79164  1  0  0  0
 79165  1  0  0  0
 79166  1  0  0  0
 80167  1  0  0  0
 80168  1  0  0  0
 80169  1  0  0  0
 80 89  1  0  0  0
 81 82  1  0  0  0
 81 87  1  0  0  0
 81170  1  0  0  0
 81171  1  0  0  0
 82172  1  0  0  0
 82173  1  0  0  0
 82 88  1  0  0  0
 83 88  1  0  0  0
 83 92  1  0  0  0
 83174  1  0  0  0
 83175  1  0  0  0
 84 86  1  0  0  0
 84 93  1  0  0  0
 84176  1  0  0  0
 84177  1  0  0  0
 85 89  1  0  0  0
 85 93  1  0  0  0
 85178  1  0  0  0
 85179  1  0  0  0
 86180  1  0  0  0
 87181  1  0  0  0
 88 91  1  0  0  0
 88182  1  0  0  0
 89183  1  0  0  0
 91184  1  0  0  0
 92185  1  0  0  0
 93186  1  0  0  0
 93187  1  0  0  0
M  CHG  1  93   1
M  ISO  4   1 100  68 101  89 101  92 100
M  END
> <chiral flag>
0

> <version>
0

> <s_m_source_file>
/data/baiqing/PycharmProjects/Reinvent-master-3.2/result/LINK_invent/BTK/process_docking_weight1_custom_sum_contain_oxygen_bond_distance_aromatic_linkinvent_7_9_3/rearranged_h_0110.sdf

> <i_m_source_file_index>
66

> <r_mmod_Potential_Energy-OPLS-2005>
-374.12158203125

> <r_mmod_Stretch_Energy-OPLS-2005>
37.391773223877

> <r_mmod_Bend_Energy-OPLS-2005>
111.547096252441

> <r_mmod_Torsional_Energy-OPLS-2005>
279.612487792969

> <r_mmod_Improper_Torsional_Energy-OPLS-2005>
11.409930229187

> <r_mmod_Van_der_Waal_Energy-OPLS-2005>
150.059265136719

> <r_mmod_Electrostatic_Energy-OPLS-2005>
-506.717681884766

> <r_mmod_Solvation_Energy-OPLS-2005>
-467.22265625

> <b_mmod_Minimization_Converged-OPLS-2005>
0

> <r_mmod_RMS_Derivative-OPLS-2005>
4.31149435043335

$$$$
67
                    3D
 Structure written by MMmdl.
153161  0  0  1  0            999 V2000
  -30.6010  -14.7436   20.4938 C   0  0  0  0  0  0
  -30.4476  -12.4630   19.4654 C   0  0  0  0  0  0
  -29.5134  -12.5153   18.2355 C   0  0  0  0  0  0
  -28.0417  -12.3332   18.6567 C   0  0  0  0  0  0
  -27.6473  -13.2294   19.8598 C   0  0  2  0  0  0
  -28.6952  -13.1506   20.9912 C   0  0  0  0  0  0
  -25.2565  -13.8179   20.5736 C   0  0  0  0  0  0
  -24.1845  -13.0430   20.9223 C   0  0  0  0  0  0
  -24.6415  -11.6905   20.8763 C   0  0  0  0  0  0
  -23.9087  -10.4294   21.0424 C   0  0  0  0  0  0
  -24.3619   -9.4212   21.9210 C   0  0  0  0  0  0
  -23.6295   -8.2242   22.0764 C   0  0  0  0  0  0
  -22.4282   -8.0283   21.3540 C   0  0  0  0  0  0
  -21.9920   -9.0274   20.4657 C   0  0  0  0  0  0
  -22.7251  -10.2156   20.3087 C   0  0  0  0  0  0
  -21.6858   -6.0738   22.5256 C   0  0  0  0  0  0
  -21.4017   -6.5641   23.8192 C   0  0  0  0  0  0
  -21.3665   -5.6793   24.9163 C   0  0  0  0  0  0
  -21.6039   -4.3047   24.7219 C   0  0  0  0  0  0
  -21.8812   -3.8148   23.4336 C   0  0  0  0  0  0
  -21.9202   -4.6965   22.3400 C   0  0  0  0  0  0
  -22.7871  -13.5224   21.1872 C   0  0  0  0  0  0
  -22.1662   -4.2153   21.0974 F   0  0  0  0  0  0
  -21.5652   -3.4532   25.7735 F   0  0  0  0  0  0
  -29.9925  -13.5127   20.4061 N   0  0  0  0  0  0
  -26.2985  -12.9385   20.3351 N   0  0  0  0  0  0
  -25.9346  -11.6520   20.5782 N   0  0  0  0  0  0
  -22.0487  -12.8236   22.0409 N   0  0  0  0  0  0
  -25.4248  -15.1885   20.4099 N   0  0  0  0  0  0
  -31.7895  -14.8710   20.1862 O   0  0  0  0  0  0
  -21.6642   -6.8880   21.4221 O   0  0  0  0  0  0
  -22.3597  -14.5548   20.6735 O   0  0  0  0  0  0
  -24.6310  -31.8541   23.1998 C   0  0  0  0  0  0
  -25.9144  -32.4740   23.8329 C   0  0  1  0  0  0
  -27.2130  -27.2520   20.1445 C   0  0  0  0  0  0
  -25.5951  -33.8546   24.2258 N   0  0  0  0  0  0
  -23.4274  -30.4788   21.5420 C   0  0  2  0  0  0
  -24.8755  -28.9221   20.1127 C   0  0  0  0  0  0
  -22.7501  -29.4611   22.4902 C   0  0  0  0  0  0
  -18.0303  -28.1338   22.8538 C   0  0  0  0  0  0
  -24.1490  -36.7290   23.2635 C   0  0  0  0  0  0
  -25.9731  -30.7635   21.3808 C   0  0  0  0  0  0
  -26.0452  -29.3833   20.7308 C   0  0  0  0  0  0
  -27.2174  -28.5619   20.7362 C   0  0  0  0  0  0
  -26.0300  -26.8705   19.4783 C   0  0  0  0  0  0
  -24.8742  -27.6749   19.4736 C   0  0  0  0  0  0
  -23.6468  -29.8111   20.1581 C   0  0  0  0  0  0
  -25.4115  -36.3063   24.0319 C   0  0  1  0  0  0
  -20.5912  -28.3710   23.1245 C   0  0  2  0  0  0
  -20.6845  -26.9426   22.5328 C   0  0  0  0  0  0
  -19.5697  -26.6226   21.5315 C   0  0  0  0  0  0
  -18.1967  -26.7781   22.1885 C   0  0  0  0  0  0
  -19.1559  -28.8857   23.2852 C   0  0  0  0  0  0
  -18.9482  -30.1505   23.8761 C   0  0  0  0  0  0
  -17.6465  -30.6599   24.0451 C   0  0  0  0  0  0
  -25.9064  -34.9432   23.5087 C   0  0  0  0  0  0
  -16.5359  -29.9040   23.6328 C   0  0  0  0  0  0
  -16.7279  -28.6445   23.0383 C   0  0  0  0  0  0
  -26.4506  -31.6564   25.0720 C   0  0  0  0  0  0
  -25.3757  -31.3747   26.1473 C   0  0  0  0  0  0
  -27.0349  -30.2971   24.6216 C   0  0  0  0  0  0
  -27.6031  -32.4314   25.7517 C   0  0  0  0  0  0
  -27.5573  -37.1810   24.8460 C   0  0  0  0  0  0
  -21.4212  -29.3092   22.3685 N   0  0  0  0  0  0
  -26.4282  -37.3767   23.9413 N   0  0  0  0  0  0
  -24.6960  -31.0493   22.0983 N   0  0  0  0  0  0
  -23.4202  -28.8112   23.2972 O   0  0  0  0  0  0
  -28.2966  -26.3452   20.1798 O   0  0  0  0  0  0
  -26.5606  -34.8903   22.4654 O   0  0  0  0  0  0
  -23.5465  -32.1370   23.7302 O   0  0  0  0  0  0
  -28.3788  -20.2997   21.6514 C   0  0  0  0  0  0
  -29.4810  -21.0938   19.9185 C   0  0  0  0  0  0
  -29.2294  -19.8874   20.5810 C   0  0  0  0  0  0
  -28.1223  -21.6569   21.5842 C   0  0  0  0  0  0
  -29.6941  -18.4672   20.1197 C   0  0  0  0  0  0
  -27.1981  -22.4456   22.4557 C   0  0  0  0  0  0
  -30.1254  -17.2949   21.1132 C   0  0  0  0  0  0
  -28.9950  -23.6901   20.0784 C   0  0  0  0  0  0
  -28.0391  -24.9067   20.5733 C   0  0  0  0  0  0
  -28.8437  -22.2173   20.5228 N   0  0  0  0  0  0
  -29.8018  -15.8372   20.7707 N   0  0  0  0  0  0
  -29.7925  -18.2354   18.9122 O   0  0  0  0  0  0
  -31.4845  -12.6171   19.1565 H   0  0  0  0  0  0
  -30.4162  -11.4800   19.9407 H   0  0  0  0  0  0
  -29.7927  -11.7473   17.5134 H   0  0  0  0  0  0
  -29.6331  -13.4744   17.7292 H   0  0  0  0  0  0
  -27.9040  -11.2848   18.9222 H   0  0  0  0  0  0
  -27.3805  -12.5188   17.8110 H   0  0  0  0  0  0
  -27.6432  -14.2533   19.4842 H   0  0  0  0  0  0
  -28.7326  -12.1458   21.4160 H   0  0  0  0  0  0
  -28.4376  -13.8187   21.8137 H   0  0  0  0  0  0
  -25.2741   -9.5706   22.4818 H   0  0  0  0  0  0
  -23.9997   -7.4641   22.7484 H   0  0  0  0  0  0
  -21.0854   -8.8789   19.8968 H   0  0  0  0  0  0
  -22.3667  -10.9710   19.6230 H   0  0  0  0  0  0
  -21.1975   -7.6140   23.9698 H   0  0  0  0  0  0
  -21.1511   -6.0525   25.9066 H   0  0  0  0  0  0
  -22.0589   -2.7607   23.2827 H   0  0  0  0  0  0
  -22.4041  -11.9860   22.4783 H   0  0  0  0  0  0
  -21.1138  -13.1325   22.2651 H   0  0  0  0  0  0
  -24.6495  -15.8346   20.5147 H   0  0  0  0  0  0
  -26.2553  -15.6193   20.0265 H   0  0  0  0  0  0
  -26.7208  -32.5378   23.1058 H   0  0  0  0  0  0
  -25.0111  -33.9689   25.0404 H   0  0  0  0  0  0
  -22.7260  -31.3028   21.3960 H   0  0  0  0  0  0
  -23.3735  -35.9640   23.3297 H   0  0  0  0  0  0
  -24.3568  -36.8918   22.2048 H   0  0  0  0  0  0
  -23.7268  -37.6506   23.6662 H   0  0  0  0  0  0
  -26.1087  -31.5189   20.6064 H   0  0  0  0  0  0
  -26.8527  -30.8152   22.0109 H   0  0  0  0  0  0
  -28.1067  -28.9100   21.2415 H   0  0  0  0  0  0
  -25.9840  -25.9225   18.9614 H   0  0  0  0  0  0
  -23.9847  -27.3247   18.9690 H   0  0  0  0  0  0
  -23.7715  -30.5906   19.4057 H   0  0  0  0  0  0
  -22.7656  -29.2454   19.8485 H   0  0  0  0  0  0
  -25.1301  -36.1901   25.0807 H   0  0  0  0  0  0
  -21.0011  -28.3273   24.1365 H   0  0  0  0  0  0
  -20.6042  -26.2311   23.3559 H   0  0  0  0  0  0
  -21.6662  -26.7580   22.0938 H   0  0  0  0  0  0
  -19.6847  -25.6055   21.1525 H   0  0  0  0  0  0
  -19.6468  -27.2868   20.6695 H   0  0  0  0  0  0
  -17.4101  -26.6234   21.4487 H   0  0  0  0  0  0
  -18.0612  -26.0094   22.9506 H   0  0  0  0  0  0
  -19.7952  -30.7391   24.1978 H   0  0  0  0  0  0
  -17.5016  -31.6313   24.4956 H   0  0  0  0  0  0
  -15.5346  -30.2915   23.7666 H   0  0  0  0  0  0
  -15.8680  -28.0721   22.7148 H   0  0  0  0  0  0
  -24.5914  -30.7083   25.7853 H   0  0  0  0  0  0
  -24.8979  -32.2943   26.4863 H   0  0  0  0  0  0
  -25.8119  -30.8977   27.0263 H   0  0  0  0  0  0
  -26.2940  -29.6724   24.1220 H   0  0  0  0  0  0
  -27.3987  -29.7215   25.4737 H   0  0  0  0  0  0
  -27.8829  -30.4209   23.9485 H   0  0  0  0  0  0
  -27.2586  -33.3590   26.2095 H   0  0  0  0  0  0
  -28.3871  -32.6916   25.0394 H   0  0  0  0  0  0
  -28.0676  -31.8455   26.5464 H   0  0  0  0  0  0
  -28.2589  -38.0103   24.7486 H   0  0  0  0  0  0
  -28.1068  -36.2635   24.6307 H   0  0  0  0  0  0
  -27.2290  -37.1488   25.8859 H   0  0  0  0  0  0
  -20.9369  -29.8884   21.6970 H   0  0  0  0  0  0
  -26.0153  -38.2837   24.1413 H   0  0  0  0  0  0
  -27.9355  -19.6390   22.3873 H   0  0  0  0  0  0
  -30.0839  -21.2549   19.0347 H   0  0  0  0  0  0
  -26.6384  -21.7878   23.1227 H   0  0  0  0  0  0
  -26.4613  -22.9829   21.8593 H   0  0  0  0  0  0
  -27.7406  -23.1587   23.0743 H   0  0  0  0  0  0
  -29.6858  -17.5122   22.0864 H   0  0  0  0  0  0
  -31.2041  -17.3836   21.2477 H   0  0  0  0  0  0
  -30.0185  -23.9719   20.3234 H   0  0  0  0  0  0
  -28.9498  -23.6810   18.9893 H   0  0  0  0  0  0
  -27.0198  -24.6181   20.3220 H   0  0  0  0  0  0
  -28.0664  -24.9230   21.6614 H   0  0  0  0  0  0
  -28.8273  -15.6090   20.8946 H   0  0  0  0  0  0
  1 25  1  0  0  0
  1 30  2  0  0  0
  1 81  1  0  0  0
  2  3  1  0  0  0
  2 25  1  0  0  0
  2 83  1  0  0  0
  2 84  1  0  0  0
  3  4  1  0  0  0
  3 85  1  0  0  0
  3 86  1  0  0  0
  4  5  1  0  0  0
  4 87  1  0  0  0
  4 88  1  0  0  0
  5  6  1  0  0  0
  5 26  1  0  0  0
  5 89  1  0  0  0
  6 25  1  0  0  0
  6 90  1  0  0  0
  6 91  1  0  0  0
  7  8  2  0  0  0
  7 26  1  0  0  0
  7 29  1  0  0  0
  8  9  1  0  0  0
  8 22  1  0  0  0
  9 10  1  0  0  0
  9 27  2  0  0  0
 10 11  2  0  0  0
 10 15  1  0  0  0
 11 12  1  0  0  0
 11 92  1  0  0  0
 12 13  2  0  0  0
 12 93  1  0  0  0
 13 14  1  0  0  0
 13 31  1  0  0  0
 14 15  2  0  0  0
 14 94  1  0  0  0
 15 95  1  0  0  0
 16 17  2  0  0  0
 16 21  1  0  0  0
 16 31  1  0  0  0
 17 18  1  0  0  0
 17 96  1  0  0  0
 18 19  2  0  0  0
 18 97  1  0  0  0
 19 20  1  0  0  0
 19 24  1  0  0  0
 20 21  2  0  0  0
 20 98  1  0  0  0
 21 23  1  0  0  0
 22 28  1  0  0  0
 22 32  2  0  0  0
 26 27  1  0  0  0
 28 99  1  0  0  0
 28100  1  0  0  0
 29101  1  0  0  0
 29102  1  0  0  0
 33 34  1  0  0  0
 33 66  1  0  0  0
 33 70  2  0  0  0
 34 36  1  0  0  0
 34 59  1  0  0  0
 34103  1  0  0  0
 35 44  2  0  0  0
 35 45  1  0  0  0
 35 68  1  0  0  0
 36 56  1  0  0  0
 36104  1  0  0  0
 37 39  1  0  0  0
 37 47  1  0  0  0
 37 66  1  0  0  0
 37105  1  0  0  0
 38 43  2  0  0  0
 38 46  1  0  0  0
 38 47  1  0  0  0
 39 64  1  0  0  0
 39 67  2  0  0  0
 40 52  1  0  0  0
 40 53  2  0  0  0
 40 58  1  0  0  0
 41106  1  0  0  0
 41107  1  0  0  0
 41108  1  0  0  0
 41 48  1  0  0  0
 42 43  1  0  0  0
 42 66  1  0  0  0
 42109  1  0  0  0
 42110  1  0  0  0
 43 44  1  0  0  0
 44111  1  0  0  0
 45 46  2  0  0  0
 45112  1  0  0  0
 46113  1  0  0  0
 47114  1  0  0  0
 47115  1  0  0  0
 48 56  1  0  0  0
 48 65  1  0  0  0
 48116  1  0  0  0
 49 50  1  0  0  0
 49 53  1  0  0  0
 49 64  1  0  0  0
 49117  1  0  0  0
 50 51  1  0  0  0
 50118  1  0  0  0
 50119  1  0  0  0
 51 52  1  0  0  0
 51120  1  0  0  0
 51121  1  0  0  0
 52122  1  0  0  0
 52123  1  0  0  0
 53 54  1  0  0  0
 54 55  2  0  0  0
 54124  1  0  0  0
 55 57  1  0  0  0
 55125  1  0  0  0
 56 69  2  0  0  0
 57 58  2  0  0  0
 57126  1  0  0  0
 58127  1  0  0  0
 59 60  1  0  0  0
 59 61  1  0  0  0
 59 62  1  0  0  0
 60128  1  0  0  0
 60129  1  0  0  0
 60130  1  0  0  0
 61131  1  0  0  0
 61132  1  0  0  0
 61133  1  0  0  0
 62134  1  0  0  0
 62135  1  0  0  0
 62136  1  0  0  0
 63 65  1  0  0  0
 63137  1  0  0  0
 63138  1  0  0  0
 63139  1  0  0  0
 64140  1  0  0  0
 65141  1  0  0  0
 68 79  1  0  0  0
 71 73  1  0  0  0
 71 74  2  0  0  0
 71142  1  0  0  0
 72 73  2  0  0  0
 72 80  1  0  0  0
 72143  1  0  0  0
 73 75  1  0  0  0
 74 76  1  0  0  0
 74 80  1  0  0  0
 75 77  1  0  0  0
 75 82  2  0  0  0
 76144  1  0  0  0
 76145  1  0  0  0
 76146  1  0  0  0
 77 81  1  0  0  0
 77147  1  0  0  0
 77148  1  0  0  0
 78 79  1  0  0  0
 78 80  1  0  0  0
 78149  1  0  0  0
 78150  1  0  0  0
 79151  1  0  0  0
 79152  1  0  0  0
 81153  1  0  0  0
M  ISO  4   1 100  68 101  79 101  81 100
M  END
> <chiral flag>
0

> <version>
0

> <s_m_source_file>
/data/baiqing/PycharmProjects/Reinvent-master-3.2/result/LINK_invent/BTK/process_docking_weight1_custom_sum_contain_oxygen_bond_distance_aromatic_linkinvent_7_9_3/rearranged_h_0110.sdf

> <i_m_source_file_index>
67

> <r_mmod_Potential_Energy-OPLS-2005>
131.437698364258

> <r_mmod_Stretch_Energy-OPLS-2005>
121.909118652344

> <r_mmod_Bend_Energy-OPLS-2005>
172.938949584961

> <r_mmod_Torsional_Energy-OPLS-2005>
260.477142333984

> <r_mmod_Improper_Torsional_Energy-OPLS-2005>
4.59160089492798

> <r_mmod_Van_der_Waal_Energy-OPLS-2005>
115.239646911621

> <r_mmod_Electrostatic_Energy-OPLS-2005>
-400.703094482422

> <r_mmod_Solvation_Energy-OPLS-2005>
-231.475357055664

> <b_mmod_Minimization_Converged-OPLS-2005>
0

> <r_mmod_RMS_Derivative-OPLS-2005>
3.60700678825378

$$$$
68
                    3D
 Structure written by MMmdl.
171179  0  0  1  0            999 V2000
  -30.6495  -14.6600   20.4746 C   0  0  0  0  0  0
  -30.4274  -12.4091   19.4414 C   0  0  0  0  0  0
  -29.4937  -12.4954   18.2150 C   0  0  0  0  0  0
  -28.0204  -12.3387   18.6367 C   0  0  0  0  0  0
  -27.6451  -13.2248   19.8553 C   0  0  2  0  0  0
  -28.6979  -13.1195   20.9817 C   0  0  0  0  0  0
  -25.2532  -13.8188   20.5734 C   0  0  0  0  0  0
  -24.1815  -13.0444   20.9229 C   0  0  0  0  0  0
  -24.6379  -11.6911   20.8765 C   0  0  0  0  0  0
  -23.9036  -10.4294   21.0406 C   0  0  0  0  0  0
  -24.3588   -9.4225   21.9182 C   0  0  0  0  0  0
  -23.6283   -8.2249   22.0750 C   0  0  0  0  0  0
  -22.4274   -8.0269   21.3543 C   0  0  0  0  0  0
  -21.9901   -9.0224   20.4647 C   0  0  0  0  0  0
  -22.7205  -10.2115   20.3061 C   0  0  0  0  0  0
  -21.6855   -6.0727   22.5272 C   0  0  0  0  0  0
  -21.3994   -6.5638   23.8208 C   0  0  0  0  0  0
  -21.3678   -5.6798   24.9178 C   0  0  0  0  0  0
  -21.6065   -4.3056   24.7239 C   0  0  0  0  0  0
  -21.8820   -3.8143   23.4356 C   0  0  0  0  0  0
  -21.9200   -4.6950   22.3405 C   0  0  0  0  0  0
  -22.7844  -13.5220   21.1888 C   0  0  0  0  0  0
  -22.1660   -4.2139   21.0978 F   0  0  0  0  0  0
  -21.5654   -3.4536   25.7753 F   0  0  0  0  0  0
  -30.0012  -13.4541   20.3934 N   0  0  0  0  0  0
  -26.2948  -12.9378   20.3323 N   0  0  0  0  0  0
  -25.9310  -11.6524   20.5780 N   0  0  0  0  0  0
  -22.0478  -12.8187   22.0420 N   0  0  0  0  0  0
  -25.4218  -15.1910   20.4162 N   0  0  0  0  0  0
  -31.8375  -14.7632   20.1638 O   0  0  0  0  0  0
  -21.6654   -6.8850   21.4233 O   0  0  0  0  0  0
  -22.3534  -14.5541   20.6755 O   0  0  0  0  0  0
  -24.6304  -31.8581   23.2044 C   0  0  0  0  0  0
  -25.9147  -32.4756   23.8367 C   0  0  1  0  0  0
  -27.2127  -27.2899   20.0986 C   0  0  0  0  0  0
  -25.5963  -33.8567   24.2285 N   0  0  0  0  0  0
  -23.4238  -30.4855   21.5479 C   0  0  2  0  0  0
  -24.8672  -28.9467   20.1079 C   0  0  0  0  0  0
  -22.7495  -29.4606   22.4921 C   0  0  0  0  0  0
  -18.0285  -28.1397   22.8477 C   0  0  0  0  0  0
  -24.1495  -36.7281   23.2639 C   0  0  0  0  0  0
  -25.9722  -30.7758   21.3841 C   0  0  0  0  0  0
  -26.0418  -29.4058   20.7171 C   0  0  0  0  0  0
  -27.2184  -28.5902   20.7040 C   0  0  0  0  0  0
  -26.0087  -26.9022   19.4606 C   0  0  0  0  0  0
  -24.8547  -27.7026   19.4692 C   0  0  0  0  0  0
  -23.6400  -29.8330   20.1599 C   0  0  0  0  0  0
  -25.4115  -36.3062   24.0326 C   0  0  1  0  0  0
  -20.5889  -28.3698   23.1270 C   0  0  2  0  0  0
  -20.6783  -26.9420   22.5399 C   0  0  0  0  0  0
  -19.5761  -26.6388   21.5204 C   0  0  0  0  0  0
  -18.1938  -26.7938   22.1611 C   0  0  0  0  0  0
  -19.1541  -28.8863   23.2870 C   0  0  0  0  0  0
  -18.9461  -30.1462   23.8888 C   0  0  0  0  0  0
  -17.6462  -30.6596   24.0564 C   0  0  0  0  0  0
  -25.9058  -34.9436   23.5094 C   0  0  0  0  0  0
  -16.5353  -29.9087   23.6348 C   0  0  0  0  0  0
  -16.7269  -28.6512   23.0348 C   0  0  0  0  0  0
  -26.4527  -31.6568   25.0744 C   0  0  0  0  0  0
  -25.3768  -31.3686   26.1472 C   0  0  0  0  0  0
  -27.0375  -30.2986   24.6219 C   0  0  0  0  0  0
  -27.6097  -32.4299   25.7503 C   0  0  0  0  0  0
  -27.5572  -37.1796   24.8468 C   0  0  0  0  0  0
  -21.4201  -29.3049   22.3672 N   0  0  0  0  0  0
  -26.4283  -37.3762   23.9411 N   0  0  0  0  0  0
  -24.6941  -31.0569   22.1012 N   0  0  0  0  0  0
  -23.4217  -28.8131   23.2985 O   0  0  0  0  0  0
  -28.3053  -26.3932   20.1413 O   0  0  0  0  0  0
  -26.5620  -34.8906   22.4652 O   0  0  0  0  0  0
  -23.5459  -32.1382   23.7356 O   0  0  0  0  0  0
  -26.1256  -22.2853   21.6636 C   0  0  0  0  0  0
  -28.2996  -22.3177   22.9486 C   0  0  0  0  0  0
  -25.4108  -21.7855   22.9370 C   0  0  0  0  0  0
  -27.5397  -21.8283   24.1970 C   0  0  0  0  0  0
  -27.6116  -21.8528   21.6462 C   0  0  0  0  0  0
  -31.3868  -20.1973   20.8271 C   0  0  0  0  0  0
  -29.6076  -18.4230   20.1942 C   0  0  0  0  0  0
  -29.0115  -23.7245   20.2631 C   0  0  0  0  0  0
  -30.3481  -17.2093   20.9405 C   0  0  0  0  0  0
  -27.9891  -24.9380   20.0070 C   0  0  0  0  0  0
  -28.4081  -22.2172   20.3462 C   0  0  1  0  0  0
  -29.8765  -19.9358   20.6940 C   0  0  2  0  0  0
  -29.8906  -15.7796   20.7191 N   0  0  0  0  0  0
  -26.1177  -22.2347   24.1565 N   0  3  0  0  0  0
  -29.2666  -21.0483   19.8322 N   0  3  0  0  0  0
  -31.4649  -12.5326   19.1300 H   0  0  0  0  0  0
  -30.3710  -11.4213   19.9041 H   0  0  0  0  0  0
  -29.7507  -11.7253   17.4862 H   0  0  0  0  0  0
  -29.6332  -13.4534   17.7097 H   0  0  0  0  0  0
  -27.8585  -11.2874   18.8797 H   0  0  0  0  0  0
  -27.3610  -12.5573   17.7965 H   0  0  0  0  0  0
  -27.6490  -14.2536   19.4972 H   0  0  0  0  0  0
  -28.7188  -12.1124   21.4019 H   0  0  0  0  0  0
  -28.4577  -13.7872   21.8093 H   0  0  0  0  0  0
  -25.2717   -9.5730   22.4764 H   0  0  0  0  0  0
  -24.0019   -7.4657   22.7471 H   0  0  0  0  0  0
  -21.0837   -8.8708   19.8952 H   0  0  0  0  0  0
  -22.3630  -10.9637   19.6184 H   0  0  0  0  0  0
  -21.1946   -7.6142   23.9693 H   0  0  0  0  0  0
  -21.1505   -6.0536   25.9076 H   0  0  0  0  0  0
  -22.0583   -2.7601   23.2865 H   0  0  0  0  0  0
  -22.4064  -11.9812   22.4764 H   0  0  0  0  0  0
  -21.1096  -13.1219   22.2609 H   0  0  0  0  0  0
  -24.6545  -15.8447   20.5323 H   0  0  0  0  0  0
  -26.2694  -15.6320   20.0827 H   0  0  0  0  0  0
  -26.7206  -32.5408   23.1104 H   0  0  0  0  0  0
  -25.0164  -33.9724   25.0464 H   0  0  0  0  0  0
  -22.7200  -31.3089   21.4088 H   0  0  0  0  0  0
  -23.3752  -35.9617   23.3293 H   0  0  0  0  0  0
  -24.3583  -36.8907   22.2052 H   0  0  0  0  0  0
  -23.7255  -37.6482   23.6671 H   0  0  0  0  0  0
  -26.1196  -31.5416   20.6221 H   0  0  0  0  0  0
  -26.8484  -30.8137   22.0200 H   0  0  0  0  0  0
  -28.1159  -28.9361   21.1968 H   0  0  0  0  0  0
  -25.9107  -25.9611   18.9447 H   0  0  0  0  0  0
  -23.9592  -27.3514   18.9755 H   0  0  0  0  0  0
  -23.7702  -30.6174   19.4131 H   0  0  0  0  0  0
  -22.7578  -29.2722   19.8468 H   0  0  0  0  0  0
  -25.1291  -36.1899   25.0815 H   0  0  0  0  0  0
  -20.9970  -28.3260   24.1391 H   0  0  0  0  0  0
  -20.5694  -26.2298   23.3593 H   0  0  0  0  0  0
  -21.6649  -26.7463   22.1180 H   0  0  0  0  0  0
  -19.6931  -25.6293   21.1246 H   0  0  0  0  0  0
  -19.6705  -27.3192   20.6729 H   0  0  0  0  0  0
  -17.4203  -26.6672   21.4017 H   0  0  0  0  0  0
  -18.0344  -26.0082   22.9009 H   0  0  0  0  0  0
  -19.7932  -30.7294   24.2244 H   0  0  0  0  0  0
  -17.5008  -31.6279   24.5159 H   0  0  0  0  0  0
  -15.5350  -30.2985   23.7688 H   0  0  0  0  0  0
  -15.8661  -28.0841   22.7058 H   0  0  0  0  0  0
  -24.5947  -30.7035   25.7788 H   0  0  0  0  0  0
  -24.8970  -32.2842   26.4938 H   0  0  0  0  0  0
  -25.8105  -30.8828   27.0223 H   0  0  0  0  0  0
  -26.2950  -29.6718   24.1267 H   0  0  0  0  0  0
  -27.4081  -29.7256   25.4730 H   0  0  0  0  0  0
  -27.8825  -30.4255   23.9449 H   0  0  0  0  0  0
  -27.2732  -33.3611   26.2066 H   0  0  0  0  0  0
  -28.3916  -32.6823   25.0331 H   0  0  0  0  0  0
  -28.0760  -31.8431   26.5424 H   0  0  0  0  0  0
  -28.2580  -38.0106   24.7512 H   0  0  0  0  0  0
  -28.1082  -36.2631   24.6290 H   0  0  0  0  0  0
  -27.2303  -37.1432   25.8879 H   0  0  0  0  0  0
  -20.9379  -29.8780   21.6897 H   0  0  0  0  0  0
  -26.0155  -38.2832   24.1410 H   0  0  0  0  0  0
  -26.0105  -23.3629   21.6226 H   0  0  0  0  0  0
  -25.6092  -21.8893   20.7875 H   0  0  0  0  0  0
  -29.3293  -21.9605   22.9914 H   0  0  0  0  0  0
  -28.3588  -23.4059   22.9776 H   0  0  0  0  0  0
  -25.3446  -20.6963   22.9357 H   0  0  0  0  0  0
  -24.3855  -22.1583   22.9614 H   0  0  0  0  0  0
  -28.0033  -22.2287   25.0985 H   0  0  0  0  0  0
  -27.6016  -20.7414   24.2724 H   0  0  0  0  0  0
  -27.5281  -20.7671   21.6801 H   0  0  0  0  0  0
  -31.8931  -20.0977   19.8662 H   0  0  0  0  0  0
  -31.8565  -19.4984   21.5185 H   0  0  0  0  0  0
  -31.5840  -21.1993   21.2107 H   0  0  0  0  0  0
  -28.5331  -18.2431   20.2442 H   0  0  0  0  0  0
  -29.8676  -18.3585   19.1369 H   0  0  0  0  0  0
  -29.6082  -23.9312   21.1491 H   0  0  0  0  0  0
  -29.7267  -23.7535   19.4410 H   0  0  0  0  0  0
  -30.2652  -17.3844   22.0133 H   0  0  0  0  0  0
  -31.4151  -17.2741   20.7242 H   0  0  0  0  0  0
  -27.1438  -24.7813   20.6656 H   0  0  0  0  0  0
  -27.6270  -24.7752   18.9921 H   0  0  0  0  0  0
  -27.6553  -22.2256   19.5559 H   0  0  0  0  0  0
  -29.4887  -19.9936   21.7069 H   0  0  0  0  0  0
  -28.9110  -15.5981   20.8804 H   0  0  0  0  0  0
  -25.6481  -21.8556   24.9635 H   0  0  0  0  0  0
  -26.0571  -23.2375   24.2264 H   0  0  0  0  0  0
  -29.9960  -21.4239   19.2473 H   0  0  0  0  0  0
  -28.6515  -20.5680   19.1932 H   0  0  0  0  0  0
  1 25  1  0  0  0
  1 30  2  0  0  0
  1 83  1  0  0  0
  2  3  1  0  0  0
  2 25  1  0  0  0
  2 86  1  0  0  0
  2 87  1  0  0  0
  3  4  1  0  0  0
  3 88  1  0  0  0
  3 89  1  0  0  0
  4  5  1  0  0  0
  4 90  1  0  0  0
  4 91  1  0  0  0
  5  6  1  0  0  0
  5 26  1  0  0  0
  5 92  1  0  0  0
  6 25  1  0  0  0
  6 93  1  0  0  0
  6 94  1  0  0  0
  7  8  2  0  0  0
  7 26  1  0  0  0
  7 29  1  0  0  0
  8  9  1  0  0  0
  8 22  1  0  0  0
  9 10  1  0  0  0
  9 27  2  0  0  0
 10 11  2  0  0  0
 10 15  1  0  0  0
 11 12  1  0  0  0
 11 95  1  0  0  0
 12 13  2  0  0  0
 12 96  1  0  0  0
 13 14  1  0  0  0
 13 31  1  0  0  0
 14 15  2  0  0  0
 14 97  1  0  0  0
 15 98  1  0  0  0
 16 17  2  0  0  0
 16 21  1  0  0  0
 16 31  1  0  0  0
 17 18  1  0  0  0
 17 99  1  0  0  0
 18 19  2  0  0  0
 18100  1  0  0  0
 19 20  1  0  0  0
 19 24  1  0  0  0
 20 21  2  0  0  0
 20101  1  0  0  0
 21 23  1  0  0  0
 22 28  1  0  0  0
 22 32  2  0  0  0
 26 27  1  0  0  0
 28102  1  0  0  0
 28103  1  0  0  0
 29104  1  0  0  0
 29105  1  0  0  0
 33 34  1  0  0  0
 33 66  1  0  0  0
 33 70  2  0  0  0
 34 36  1  0  0  0
 34 59  1  0  0  0
 34106  1  0  0  0
 35 44  2  0  0  0
 35 45  1  0  0  0
 35 68  1  0  0  0
 36 56  1  0  0  0
 36107  1  0  0  0
 37 39  1  0  0  0
 37 47  1  0  0  0
 37 66  1  0  0  0
 37108  1  0  0  0
 38 43  2  0  0  0
 38 46  1  0  0  0
 38 47  1  0  0  0
 39 64  1  0  0  0
 39 67  2  0  0  0
 40 52  1  0  0  0
 40 53  2  0  0  0
 40 58  1  0  0  0
 41109  1  0  0  0
 41110  1  0  0  0
 41111  1  0  0  0
 41 48  1  0  0  0
 42 43  1  0  0  0
 42 66  1  0  0  0
 42112  1  0  0  0
 42113  1  0  0  0
 43 44  1  0  0  0
 44114  1  0  0  0
 45 46  2  0  0  0
 45115  1  0  0  0
 46116  1  0  0  0
 47117  1  0  0  0
 47118  1  0  0  0
 48 56  1  0  0  0
 48 65  1  0  0  0
 48119  1  0  0  0
 49 50  1  0  0  0
 49 53  1  0  0  0
 49 64  1  0  0  0
 49120  1  0  0  0
 50 51  1  0  0  0
 50121  1  0  0  0
 50122  1  0  0  0
 51 52  1  0  0  0
 51123  1  0  0  0
 51124  1  0  0  0
 52125  1  0  0  0
 52126  1  0  0  0
 53 54  1  0  0  0
 54 55  2  0  0  0
 54127  1  0  0  0
 55 57  1  0  0  0
 55128  1  0  0  0
 56 69  2  0  0  0
 57 58  2  0  0  0
 57129  1  0  0  0
 58130  1  0  0  0
 59 60  1  0  0  0
 59 61  1  0  0  0
 59 62  1  0  0  0
 60131  1  0  0  0
 60132  1  0  0  0
 60133  1  0  0  0
 61134  1  0  0  0
 61135  1  0  0  0
 61136  1  0  0  0
 62137  1  0  0  0
 62138  1  0  0  0
 62139  1  0  0  0
 63 65  1  0  0  0
 63140  1  0  0  0
 63141  1  0  0  0
 63142  1  0  0  0
 64143  1  0  0  0
 65144  1  0  0  0
 68 80  1  0  0  0
 71 73  1  0  0  0
 71145  1  0  0  0
 71146  1  0  0  0
 71 75  1  0  0  0
 72 74  1  0  0  0
 72 75  1  0  0  0
 72147  1  0  0  0
 72148  1  0  0  0
 73 84  1  0  0  0
 73149  1  0  0  0
 73150  1  0  0  0
 74 84  1  0  0  0
 74151  1  0  0  0
 74152  1  0  0  0
 75 81  1  0  0  0
 75153  1  0  0  0
 76154  1  0  0  0
 76155  1  0  0  0
 76156  1  0  0  0
 76 82  1  0  0  0
 77 79  1  0  0  0
 77 82  1  0  0  0
 77157  1  0  0  0
 77158  1  0  0  0
 78 80  1  0  0  0
 78159  1  0  0  0
 78160  1  0  0  0
 78 81  1  0  0  0
 79 83  1  0  0  0
 79161  1  0  0  0
 79162  1  0  0  0
 80163  1  0  0  0
 80164  1  0  0  0
 81 85  1  0  0  0
 81165  1  0  0  0
 82 85  1  0  0  0
 82166  1  0  0  0
 83167  1  0  0  0
 84168  1  0  0  0
 84169  1  0  0  0
 85170  1  0  0  0
 85171  1  0  0  0
M  CHG  2  84   1  85   1
M  ISO  4   1 100  68 101  80 101  83 100
M  END
> <chiral flag>
0

> <version>
0

> <s_m_source_file>
/data/baiqing/PycharmProjects/Reinvent-master-3.2/result/LINK_invent/BTK/process_docking_weight1_custom_sum_contain_oxygen_bond_distance_aromatic_linkinvent_7_9_3/rearranged_h_0110.sdf

> <i_m_source_file_index>
68

> <r_mmod_Potential_Energy-OPLS-2005>
-116.452537536621

> <r_mmod_Stretch_Energy-OPLS-2005>
108.740211486816

> <r_mmod_Bend_Energy-OPLS-2005>
184.389144897461

> <r_mmod_Torsional_Energy-OPLS-2005>
282.063354492188

> <r_mmod_Improper_Torsional_Energy-OPLS-2005>
4.21243047714233

> <r_mmod_Van_der_Waal_Energy-OPLS-2005>
133.832275390625

> <r_mmod_Electrostatic_Energy-OPLS-2005>
97.5098342895508

> <r_mmod_Solvation_Energy-OPLS-2005>
-990.05419921875

> <b_mmod_Minimization_Converged-OPLS-2005>
0

> <r_mmod_RMS_Derivative-OPLS-2005>
2.38249778747559

$$$$
69
                    3D
 Structure written by MMmdl.
176185  0  0  1  0            999 V2000
  -30.8655  -14.3220   19.9949 C   0  0  0  0  0  0
  -30.3856  -12.0586   19.4524 C   0  0  0  0  0  0
  -29.3132  -12.0402   18.3390 C   0  0  0  0  0  0
  -27.8815  -12.2001   18.9014 C   0  0  0  0  0  0
  -27.7532  -13.3375   19.9800 C   0  0  2  0  0  0
  -28.8525  -13.1456   21.0413 C   0  0  0  0  0  0
  -25.4033  -15.0619   20.4958 C   0  0  0  0  0  0
  -24.3836  -13.8866   20.9621 C   0  0  0  0  0  0
  -24.6977  -12.3775   20.9210 C   0  0  0  0  0  0
  -23.9886  -10.8952   21.0553 C   0  0  0  0  0  0
  -24.4283   -9.7910   21.8923 C   0  0  0  0  0  0
  -23.7469   -8.5229   22.0511 C   0  0  0  0  0  0
  -22.5441   -8.2282   21.3583 C   0  0  0  0  0  0
  -22.1190   -9.2468   20.4716 C   0  0  0  0  0  0
  -22.8067  -10.5013   20.3309 C   0  0  0  0  0  0
  -21.7748   -6.1677   22.5105 C   0  0  0  0  0  0
  -21.4676   -6.6244   23.8120 C   0  0  0  0  0  0
  -21.3872   -5.7188   24.8977 C   0  0  0  0  0  0
  -21.6015   -4.3420   24.6905 C   0  0  0  0  0  0
  -21.8711   -3.8691   23.3975 C   0  0  0  0  0  0
  -21.9450   -4.7713   22.3141 C   0  0  0  0  0  0
  -22.8735  -13.9226   21.3156 C   0  0  0  0  0  0
  -22.1774   -4.2769   21.0748 F   0  0  0  0  0  0
  -21.5477   -3.4780   25.7362 F   0  0  0  0  0  0
  -30.1562  -13.2102   20.3235 N   0  0  0  0  0  0
  -26.3520  -13.7342   20.4665 N   0  0  0  0  0  0
  -25.9523  -12.4185   20.7635 N   0  0  0  0  0  0
  -22.3359  -13.0346   22.1626 N   0  0  0  0  0  0
  -25.2812  -17.1520   18.7773 N   0  0  0  0  0  0
  -31.9907  -14.5704   20.3921 O   0  0  0  0  0  0
  -21.8150   -7.0294   21.4177 O   0  0  0  0  0  0
  -22.0799  -14.7116   20.8444 O   0  0  0  0  0  0
  -24.7249  -31.7385   23.1225 C   0  0  0  0  0  0
  -25.9662  -32.4128   23.7835 C   0  0  1  0  0  0
  -26.5851  -25.9535   20.4091 C   0  0  0  0  0  0
  -25.6060  -33.8015   24.1639 N   0  0  0  0  0  0
  -23.5422  -30.3593   21.4901 C   0  0  2  0  0  0
  -24.8946  -28.5873   20.0981 C   0  0  0  0  0  0
  -22.7808  -29.4063   22.4506 C   0  0  0  0  0  0
  -18.0337  -28.1456   22.8426 C   0  0  0  0  0  0
  -24.1489  -36.7043   23.2656 C   0  0  0  0  0  0
  -26.1184  -30.1957   21.5059 C   0  0  0  0  0  0
  -26.0470  -28.7020   20.8701 C   0  0  0  0  0  0
  -26.8905  -27.4096   20.9880 C   0  0  0  0  0  0
  -25.6020  -26.2559   19.4392 C   0  0  0  0  0  0
  -24.7744  -27.4218   19.3295 C   0  0  0  0  0  0
  -23.7979  -29.6725   20.1130 C   0  0  0  0  0  0
  -25.4169  -36.2726   24.0226 C   0  0  1  0  0  0
  -20.5965  -28.3826   23.1051 C   0  0  2  0  0  0
  -20.6792  -26.9443   22.5416 C   0  0  0  0  0  0
  -19.5783  -26.6343   21.5229 C   0  0  0  0  0  0
  -18.1958  -26.7974   22.1603 C   0  0  0  0  0  0
  -19.1606  -28.8972   23.2708 C   0  0  0  0  0  0
  -18.9520  -30.1546   23.8772 C   0  0  0  0  0  0
  -17.6509  -30.6618   24.0555 C   0  0  0  0  0  0
  -25.9198  -34.9124   23.4804 C   0  0  0  0  0  0
  -16.5394  -29.9089   23.6370 C   0  0  0  0  0  0
  -16.7319  -28.6525   23.0360 C   0  0  0  0  0  0
  -26.4676  -31.6464   25.0713 C   0  0  0  0  0  0
  -25.3571  -31.4009   26.1212 C   0  0  0  0  0  0
  -27.0714  -30.2732   24.7146 C   0  0  0  0  0  0
  -27.6028  -32.4491   25.7513 C   0  0  0  0  0  0
  -27.5554  -37.1671   24.8453 C   0  0  0  0  0  0
  -21.4429  -29.2995   22.3282 N   0  0  0  0  0  0
  -26.4247  -37.3552   23.9399 N   0  0  0  0  0  0
  -24.8316  -30.8223   22.0845 N   0  0  0  0  0  0
  -23.4097  -28.7670   23.2989 O   0  0  0  0  0  0
  -26.9661  -24.3067   20.6471 O   0  0  0  0  0  0
  -26.5903  -34.8807   22.4468 O   0  0  0  0  0  0
  -23.6203  -32.0830   23.5871 O   0  0  0  0  0  0
  -25.6754  -14.2750   17.0394 C   0  0  0  0  0  0
  -23.7372  -15.6127   19.0609 C   0  0  0  0  0  0
  -27.0048  -14.2666   16.4898 C   0  0  0  0  0  0
  -23.9574  -16.9770   20.5428 C   0  0  0  0  0  0
  -28.0217  -15.9130   18.0296 C   0  0  0  0  0  0
  -25.4149  -15.0021   18.2221 C   0  0  0  0  0  0
  -28.1306  -15.0227   16.9653 C   0  0  0  0  0  0
  -27.0041  -15.7937   18.9429 C   0  0  0  0  0  0
  -25.6054  -17.9534   20.8777 C   0  0  0  0  0  0
  -32.7461  -16.7233   18.0230 C   0  0  0  0  0  0
  -26.7531  -19.7111   24.8869 C   0  0  0  0  0  0
  -31.8656  -13.9624   16.9971 C   0  0  0  0  0  0
  -31.4743  -16.4256   17.2167 C   0  0  0  0  0  0
  -25.9172  -19.8128   23.6018 C   0  0  0  0  0  0
  -26.3979  -22.2956   20.4423 C   0  0  0  0  0  0
  -29.5549  -14.9324   16.3876 C   0  0  2  0  0  0
  -25.9657  -20.1024   21.1289 C   0  0  2  0  0  0
  -30.8116  -15.0272   17.4183 C   0  0  1  0  0  0
  -26.9677  -17.0028   20.2867 N   0  0  0  0  0  0
  -30.4173  -14.9408   18.8775 N   0  0  0  0  0  0
  -26.7427  -19.9915   22.3843 N   0  3  0  0  0  0
  -29.6270  -15.8491   15.4216 F   0  0  0  0  0  0
  -31.3940  -12.0619   19.0311 H   0  0  0  0  0  0
  -30.3250  -11.1455   20.0450 H   0  0  0  0  0  0
  -29.3727  -11.0774   17.8240 H   0  0  0  0  0  0
  -29.4787  -12.7653   17.5727 H   0  0  0  0  0  0
  -27.6214  -11.2419   19.3516 H   0  0  0  0  0  0
  -27.1631  -12.3178   18.1029 H   0  0  0  0  0  0
  -28.2360  -14.0910   19.4660 H   0  0  0  0  0  0
  -28.7466  -12.1837   21.5516 H   0  0  0  0  0  0
  -28.8027  -13.9285   21.8019 H   0  0  0  0  0  0
  -25.3330   -9.9459   22.4654 H   0  0  0  0  0  0
  -24.1672   -7.7824   22.7177 H   0  0  0  0  0  0
  -21.2305   -9.0802   19.8792 H   0  0  0  0  0  0
  -22.3916  -11.2247   19.6430 H   0  0  0  0  0  0
  -21.2992   -7.6757   23.9868 H   0  0  0  0  0  0
  -21.1706   -6.0833   25.8891 H   0  0  0  0  0  0
  -22.0183   -2.8129   23.2286 H   0  0  0  0  0  0
  -22.8990  -12.3333   22.6224 H   0  0  0  0  0  0
  -21.3508  -13.0921   22.3784 H   0  0  0  0  0  0
  -24.4408  -17.4594   19.2777 H   0  0  0  0  0  0
  -26.1139  -17.5506   19.2359 H   0  0  0  0  0  0
  -26.7745  -32.4352   23.0506 H   0  0  0  0  0  0
  -25.0006  -33.8974   24.9666 H   0  0  0  0  0  0
  -22.8980  -31.2209   21.2994 H   0  0  0  0  0  0
  -23.3782  -35.9332   23.3191 H   0  0  0  0  0  0
  -24.3543  -36.8880   22.2097 H   0  0  0  0  0  0
  -23.7219  -37.6152   23.6868 H   0  0  0  0  0  0
  -26.4319  -30.8506   20.6930 H   0  0  0  0  0  0
  -26.9562  -30.2202   22.1887 H   0  0  0  0  0  0
  -27.7029  -27.4668   21.6983 H   0  0  0  0  0  0
  -25.2875  -25.4224   18.8275 H   0  0  0  0  0  0
  -23.9426  -27.3582   18.6408 H   0  0  0  0  0  0
  -24.0829  -30.4291   19.3823 H   0  0  0  0  0  0
  -22.8669  -29.2421   19.7399 H   0  0  0  0  0  0
  -25.1386  -36.1408   25.0708 H   0  0  0  0  0  0
  -21.0050  -28.3533   24.1178 H   0  0  0  0  0  0
  -20.5646  -26.2451   23.3722 H   0  0  0  0  0  0
  -21.6638  -26.7341   22.1232 H   0  0  0  0  0  0
  -19.6915  -25.6212   21.1344 H   0  0  0  0  0  0
  -19.6758  -27.3078   20.6698 H   0  0  0  0  0  0
  -17.4231  -26.6730   21.3995 H   0  0  0  0  0  0
  -18.0315  -26.0165   22.9035 H   0  0  0  0  0  0
  -19.7995  -30.7397   24.2077 H   0  0  0  0  0  0
  -17.5058  -31.6288   24.5180 H   0  0  0  0  0  0
  -15.5385  -30.2953   23.7785 H   0  0  0  0  0  0
  -15.8724  -28.0822   22.7113 H   0  0  0  0  0  0
  -24.5778  -30.7361   25.7467 H   0  0  0  0  0  0
  -24.8757  -32.3316   26.4217 H   0  0  0  0  0  0
  -25.7549  -30.9401   27.0260 H   0  0  0  0  0  0
  -26.3489  -29.6057   24.2444 H   0  0  0  0  0  0
  -27.4101  -29.7569   25.6142 H   0  0  0  0  0  0
  -27.9503  -30.3695   24.0772 H   0  0  0  0  0  0
  -27.2516  -33.3945   26.1662 H   0  0  0  0  0  0
  -28.4014  -32.6820   25.0457 H   0  0  0  0  0  0
  -28.0506  -31.8943   26.5764 H   0  0  0  0  0  0
  -28.2473  -38.0055   24.7532 H   0  0  0  0  0  0
  -28.1137  -36.2567   24.6216 H   0  0  0  0  0  0
  -27.2273  -37.1224   25.8854 H   0  0  0  0  0  0
  -20.9797  -29.8627   21.6313 H   0  0  0  0  0  0
  -26.0015  -38.2563   24.1448 H   0  0  0  0  0  0
  -24.8740  -13.7451   16.5427 H   0  0  0  0  0  0
  -22.7791  -15.3013   18.6639 H   0  0  0  0  0  0
  -27.1629  -13.6532   15.6105 H   0  0  0  0  0  0
  -23.0405  -17.4347   20.8924 H   0  0  0  0  0  0
  -28.7887  -16.6319   18.2437 H   0  0  0  0  0  0
  -33.1109  -17.7171   17.7627 H   0  0  0  0  0  0
  -33.5485  -16.0201   17.8011 H   0  0  0  0  0  0
  -32.5685  -16.7177   19.0965 H   0  0  0  0  0  0
  -26.0958  -19.7289   25.7554 H   0  0  0  0  0  0
  -27.4446  -20.5476   24.9838 H   0  0  0  0  0  0
  -27.3283  -18.7840   24.9334 H   0  0  0  0  0  0
  -32.2658  -14.1991   16.0119 H   0  0  0  0  0  0
  -31.4774  -12.9490   16.9148 H   0  0  0  0  0  0
  -32.7123  -13.9245   17.6775 H   0  0  0  0  0  0
  -31.7349  -16.5735   16.1692 H   0  0  0  0  0  0
  -30.7508  -17.2073   17.4420 H   0  0  0  0  0  0
  -25.2355  -20.6604   23.6950 H   0  0  0  0  0  0
  -25.2986  -18.9161   23.5096 H   0  0  0  0  0  0
  -25.6087  -22.4220   19.7013 H   0  0  0  0  0  0
  -27.2648  -22.0437   19.8296 H   0  0  0  0  0  0
  -29.6121  -13.9989   15.8272 H   0  0  0  0  0  0
  -24.9374  -20.3211   21.4164 H   0  0  0  0  0  0
  -30.0754  -15.8513   19.1537 H   0  0  0  0  0  0
  -27.3409  -19.1859   22.2731 H   0  0  0  0  0  0
  -27.3273  -20.8016   22.4890 H   0  0  0  0  0  0
  1 25  1  0  0  0
  1 30  2  0  0  0
  1 90  1  0  0  0
  2  3  1  0  0  0
  2 25  1  0  0  0
  2 93  1  0  0  0
  2 94  1  0  0  0
  3  4  1  0  0  0
  3 95  1  0  0  0
  3 96  1  0  0  0
  4  5  1  0  0  0
  4 97  1  0  0  0
  4 98  1  0  0  0
  5  6  1  0  0  0
  5 26  1  0  0  0
  5 99  1  0  0  0
  6 25  1  0  0  0
  6100  1  0  0  0
  6101  1  0  0  0
  7  8  2  0  0  0
  7 26  1  0  0  0
  7 29  1  0  0  0
  8  9  1  0  0  0
  8 22  1  0  0  0
  9 10  1  0  0  0
  9 27  2  0  0  0
 10 11  2  0  0  0
 10 15  1  0  0  0
 11 12  1  0  0  0
 11102  1  0  0  0
 12 13  2  0  0  0
 12103  1  0  0  0
 13 14  1  0  0  0
 13 31  1  0  0  0
 14 15  2  0  0  0
 14104  1  0  0  0
 15105  1  0  0  0
 16 17  2  0  0  0
 16 21  1  0  0  0
 16 31  1  0  0  0
 17 18  1  0  0  0
 17106  1  0  0  0
 18 19  2  0  0  0
 18107  1  0  0  0
 19 20  1  0  0  0
 19 24  1  0  0  0
 20 21  2  0  0  0
 20108  1  0  0  0
 21 23  1  0  0  0
 22 28  1  0  0  0
 22 32  2  0  0  0
 26 27  1  0  0  0
 28109  1  0  0  0
 28110  1  0  0  0
 29111  1  0  0  0
 29112  1  0  0  0
 33 34  1  0  0  0
 33 66  1  0  0  0
 33 70  2  0  0  0
 34 36  1  0  0  0
 34 59  1  0  0  0
 34113  1  0  0  0
 35 44  2  0  0  0
 35 45  1  0  0  0
 35 68  1  0  0  0
 36 56  1  0  0  0
 36114  1  0  0  0
 37 39  1  0  0  0
 37 47  1  0  0  0
 37 66  1  0  0  0
 37115  1  0  0  0
 38 43  2  0  0  0
 38 46  1  0  0  0
 38 47  1  0  0  0
 39 64  1  0  0  0
 39 67  2  0  0  0
 40 52  1  0  0  0
 40 53  2  0  0  0
 40 58  1  0  0  0
 41116  1  0  0  0
 41117  1  0  0  0
 41118  1  0  0  0
 41 48  1  0  0  0
 42 43  1  0  0  0
 42 66  1  0  0  0
 42119  1  0  0  0
 42120  1  0  0  0
 43 44  1  0  0  0
 44121  1  0  0  0
 45 46  2  0  0  0
 45122  1  0  0  0
 46123  1  0  0  0
 47124  1  0  0  0
 47125  1  0  0  0
 48 56  1  0  0  0
 48 65  1  0  0  0
 48126  1  0  0  0
 49 50  1  0  0  0
 49 53  1  0  0  0
 49 64  1  0  0  0
 49127  1  0  0  0
 50 51  1  0  0  0
 50128  1  0  0  0
 50129  1  0  0  0
 51 52  1  0  0  0
 51130  1  0  0  0
 51131  1  0  0  0
 52132  1  0  0  0
 52133  1  0  0  0
 53 54  1  0  0  0
 54 55  2  0  0  0
 54134  1  0  0  0
 55 57  1  0  0  0
 55135  1  0  0  0
 56 69  2  0  0  0
 57 58  2  0  0  0
 57136  1  0  0  0
 58137  1  0  0  0
 59 60  1  0  0  0
 59 61  1  0  0  0
 59 62  1  0  0  0
 60138  1  0  0  0
 60139  1  0  0  0
 60140  1  0  0  0
 61141  1  0  0  0
 61142  1  0  0  0
 61143  1  0  0  0
 62144  1  0  0  0
 62145  1  0  0  0
 62146  1  0  0  0
 63 65  1  0  0  0
 63147  1  0  0  0
 63148  1  0  0  0
 63149  1  0  0  0
 64150  1  0  0  0
 65151  1  0  0  0
 68 85  1  0  0  0
 71 73  2  0  0  0
 71 76  1  0  0  0
 71152  1  0  0  0
 72 74  1  0  0  0
 72 76  2  0  0  0
 72153  1  0  0  0
 73 77  1  0  0  0
 73154  1  0  0  0
 74 79  2  0  0  0
 74155  1  0  0  0
 75 77  2  0  0  0
 75 78  1  0  0  0
 75156  1  0  0  0
 76 78  1  0  0  0
 77 86  1  0  0  0
 78 89  2  0  0  0
 79 87  1  0  0  0
 79 89  1  0  0  0
 80 83  1  0  0  0
 80157  1  0  0  0
 80158  1  0  0  0
 80159  1  0  0  0
 81 84  1  0  0  0
 81160  1  0  0  0
 81161  1  0  0  0
 81162  1  0  0  0
 82163  1  0  0  0
 82164  1  0  0  0
 82165  1  0  0  0
 82 88  1  0  0  0
 83 88  1  0  0  0
 83166  1  0  0  0
 83167  1  0  0  0
 84 91  1  0  0  0
 84168  1  0  0  0
 84169  1  0  0  0
 85170  1  0  0  0
 85171  1  0  0  0
 85 87  1  0  0  0
 86 88  1  0  0  0
 86 92  1  0  0  0
 86172  1  0  0  0
 87 91  1  0  0  0
 87173  1  0  0  0
 88 90  1  0  0  0
 90174  1  0  0  0
 91175  1  0  0  0
 91176  1  0  0  0
M  CHG  1  91   1
M  ISO  4   1 100  68 101  85 101  90 100
M  END
> <chiral flag>
0

> <version>
0

> <s_m_source_file>
/data/baiqing/PycharmProjects/Reinvent-master-3.2/result/LINK_invent/BTK/process_docking_weight1_custom_sum_contain_oxygen_bond_distance_aromatic_linkinvent_7_9_3/rearranged_h_0110.sdf

> <i_m_source_file_index>
69

> <r_mmod_Potential_Energy-OPLS-2005>
15944.3564453125

> <r_mmod_Stretch_Energy-OPLS-2005>
9196.14453125

> <r_mmod_Bend_Energy-OPLS-2005>
1266.50561523438

> <r_mmod_Torsional_Energy-OPLS-2005>
594.183898925781

> <r_mmod_Improper_Torsional_Energy-OPLS-2005>
66.6659851074219

> <r_mmod_Van_der_Waal_Energy-OPLS-2005>
2898.61010742188

> <r_mmod_Electrostatic_Energy-OPLS-2005>
-504.715301513672

> <r_mmod_Solvation_Energy-OPLS-2005>
-477.346343994141

> <b_mmod_Minimization_Converged-OPLS-2005>
0

> <r_mmod_RMS_Derivative-OPLS-2005>
13.9656667709351

$$$$
70
                    3D
 Structure written by MMmdl.
167175  0  0  1  0            999 V2000
  -30.6051  -14.5464   20.5726 C   0  0  0  0  0  0
  -30.4505  -12.3537   19.4171 C   0  0  0  0  0  0
  -29.5031  -12.5091   18.2057 C   0  0  0  0  0  0
  -28.0239  -12.3487   18.6192 C   0  0  0  0  0  0
  -27.6603  -13.1886   19.8709 C   0  0  2  0  0  0
  -28.7030  -12.9512   20.9859 C   0  0  0  0  0  0
  -25.2602  -13.8105   20.5640 C   0  0  0  0  0  0
  -24.1837  -13.0416   20.9169 C   0  0  0  0  0  0
  -24.6367  -11.6875   20.8727 C   0  0  0  0  0  0
  -23.9026  -10.4274   21.0410 C   0  0  0  0  0  0
  -24.3584   -9.4196   21.9190 C   0  0  0  0  0  0
  -23.6266   -8.2227   22.0757 C   0  0  0  0  0  0
  -22.4251   -8.0264   21.3541 C   0  0  0  0  0  0
  -21.9882   -9.0237   20.4644 C   0  0  0  0  0  0
  -22.7200  -10.2118   20.3057 C   0  0  0  0  0  0
  -21.6848   -6.0718   22.5278 C   0  0  0  0  0  0
  -21.4011   -6.5627   23.8207 C   0  0  0  0  0  0
  -21.3660   -5.6786   24.9170 C   0  0  0  0  0  0
  -21.6043   -4.3046   24.7226 C   0  0  0  0  0  0
  -21.8822   -3.8135   23.4347 C   0  0  0  0  0  0
  -21.9191   -4.6947   22.3400 C   0  0  0  0  0  0
  -22.7868  -13.5244   21.1842 C   0  0  0  0  0  0
  -22.1660   -4.2132   21.0975 F   0  0  0  0  0  0
  -21.5634   -3.4534   25.7740 F   0  0  0  0  0  0
  -30.0252  -13.3182   20.4423 N   0  0  0  0  0  0
  -26.3005  -12.9228   20.3308 N   0  0  0  0  0  0
  -25.9280  -11.6414   20.5737 N   0  0  0  0  0  0
  -22.0499  -12.8237   22.0393 N   0  0  0  0  0  0
  -25.4372  -15.1817   20.4014 N   0  0  0  0  0  0
  -31.7371  -14.8117   20.1581 O   0  0  0  0  0  0
  -21.6629   -6.8858   21.4234 O   0  0  0  0  0  0
  -22.3572  -14.5564   20.6701 O   0  0  0  0  0  0
  -24.6187  -31.8655   23.2071 C   0  0  0  0  0  0
  -25.9059  -32.4815   23.8382 C   0  0  1  0  0  0
  -27.2333  -27.3892   20.1177 C   0  0  0  0  0  0
  -25.5915  -33.8617   24.2304 N   0  0  0  0  0  0
  -23.4097  -30.4877   21.5470 C   0  0  2  0  0  0
  -24.8601  -28.9486   20.1190 C   0  0  0  0  0  0
  -22.7440  -29.4630   22.4952 C   0  0  0  0  0  0
  -18.0278  -28.1366   22.8477 C   0  0  0  0  0  0
  -24.1496  -36.7314   23.2637 C   0  0  0  0  0  0
  -25.9438  -30.8166   21.3693 C   0  0  0  0  0  0
  -26.0209  -29.4449   20.7251 C   0  0  0  0  0  0
  -27.2120  -28.6723   20.7238 C   0  0  0  0  0  0
  -26.0578  -26.9269   19.4922 C   0  0  0  0  0  0
  -24.8742  -27.6878   19.4995 C   0  0  0  0  0  0
  -23.6247  -29.8221   20.1619 C   0  0  0  0  0  0
  -25.4109  -36.3100   24.0330 C   0  0  1  0  0  0
  -20.5870  -28.3662   23.1295 C   0  0  2  0  0  0
  -20.6775  -26.9393   22.5404 C   0  0  0  0  0  0
  -19.5760  -26.6371   21.5206 C   0  0  0  0  0  0
  -18.1933  -26.7907   22.1618 C   0  0  0  0  0  0
  -19.1525  -28.8831   23.2882 C   0  0  0  0  0  0
  -18.9467  -30.1440   23.8899 C   0  0  0  0  0  0
  -17.6474  -30.6574   24.0556 C   0  0  0  0  0  0
  -25.9041  -34.9474   23.5107 C   0  0  0  0  0  0
  -16.5362  -29.9081   23.6323 C   0  0  0  0  0  0
  -16.7267  -28.6499   23.0334 C   0  0  0  0  0  0
  -26.4474  -31.6603   25.0721 C   0  0  0  0  0  0
  -25.3728  -31.3721   26.1466 C   0  0  0  0  0  0
  -27.0299  -30.3043   24.6085 C   0  0  0  0  0  0
  -27.6055  -32.4317   25.7487 C   0  0  0  0  0  0
  -27.5579  -37.1802   24.8459 C   0  0  0  0  0  0
  -21.4161  -29.3029   22.3703 N   0  0  0  0  0  0
  -26.4288  -37.3787   23.9411 N   0  0  0  0  0  0
  -24.6752  -31.0726   22.0996 N   0  0  0  0  0  0
  -23.4208  -28.8161   23.2982 O   0  0  0  0  0  0
  -28.3806  -26.6114   20.0628 O   0  0  0  0  0  0
  -26.5606  -34.8942   22.4665 O   0  0  0  0  0  0
  -23.5367  -32.1433   23.7438 O   0  0  0  0  0  0
  -27.5824  -21.5130   19.6838 C   0  0  0  0  0  0
  -29.0635  -22.9344   20.9484 C   0  0  0  0  0  0
  -26.9449  -22.6805   19.2341 C   0  0  0  0  0  0
  -28.6900  -21.6121   20.5531 C   0  0  0  0  0  0
  -28.3281  -24.0726   20.4850 C   0  0  0  0  0  0
  -29.8646  -25.7593   21.7226 C   0  0  0  0  0  0
  -28.7856  -19.8983   22.4611 C   0  0  0  0  0  0
  -29.7584  -16.9381   21.3100 C   0  0  0  0  0  0
  -28.7604  -20.9406   23.6089 C   0  0  0  0  0  0
  -30.0569  -17.9165   20.1258 C   0  0  0  0  0  0
  -29.3836  -20.3183   21.0858 C   0  0  1  0  0  0
  -28.5158  -25.5283   21.0270 C   0  0  1  0  0  0
  -27.3032  -23.9171   19.6237 N   0  0  0  0  0  0
  -29.7428  -15.4773   21.0456 N   0  0  0  0  0  0
  -30.0566  -21.1111   24.2997 N   0  3  0  0  0  0
  -29.2710  -19.2073   20.0760 N   0  3  0  0  0  0
  -31.4867  -12.5130   19.1137 H   0  0  0  0  0  0
  -30.4071  -11.3385   19.8141 H   0  0  0  0  0  0
  -29.7563  -11.7777   17.4377 H   0  0  0  0  0  0
  -29.6481  -13.4903   17.7506 H   0  0  0  0  0  0
  -27.8506  -11.2912   18.8245 H   0  0  0  0  0  0
  -27.3689  -12.6063   17.7862 H   0  0  0  0  0  0
  -27.7046  -14.2352   19.5714 H   0  0  0  0  0  0
  -28.7040  -11.9005   21.2801 H   0  0  0  0  0  0
  -28.4475  -13.4977   21.8949 H   0  0  0  0  0  0
  -25.2728   -9.5675   22.4758 H   0  0  0  0  0  0
  -23.9981   -7.4619   22.7475 H   0  0  0  0  0  0
  -21.0814   -8.8741   19.8948 H   0  0  0  0  0  0
  -22.3658  -10.9651   19.6158 H   0  0  0  0  0  0
  -21.1999   -7.6135   23.9703 H   0  0  0  0  0  0
  -21.1485   -6.0517   25.9073 H   0  0  0  0  0  0
  -22.0603   -2.7595   23.2855 H   0  0  0  0  0  0
  -22.4091  -11.9869   22.4748 H   0  0  0  0  0  0
  -21.1125  -13.1279   22.2614 H   0  0  0  0  0  0
  -24.6662  -15.8355   20.4871 H   0  0  0  0  0  0
  -26.2760  -15.6052   20.0264 H   0  0  0  0  0  0
  -26.7132  -32.5514   23.1149 H   0  0  0  0  0  0
  -25.0093  -33.9780   25.0470 H   0  0  0  0  0  0
  -22.7002  -31.3051   21.4017 H   0  0  0  0  0  0
  -23.3764  -35.9646   23.3297 H   0  0  0  0  0  0
  -24.3591  -36.8932   22.2055 H   0  0  0  0  0  0
  -23.7265  -37.6523   23.6655 H   0  0  0  0  0  0
  -26.0548  -31.5742   20.5926 H   0  0  0  0  0  0
  -26.8332  -30.8761   21.9849 H   0  0  0  0  0  0
  -28.1094  -29.0549   21.1884 H   0  0  0  0  0  0
  -26.0498  -25.9748   18.9844 H   0  0  0  0  0  0
  -23.9847  -27.2998   19.0229 H   0  0  0  0  0  0
  -23.7459  -30.6008   19.4075 H   0  0  0  0  0  0
  -22.7480  -29.2478   19.8565 H   0  0  0  0  0  0
  -25.1281  -36.1958   25.0822 H   0  0  0  0  0  0
  -20.9953  -28.3228   24.1418 H   0  0  0  0  0  0
  -20.5686  -26.2270   23.3583 H   0  0  0  0  0  0
  -21.6643  -26.7425   22.1189 H   0  0  0  0  0  0
  -19.6932  -25.6284   21.1232 H   0  0  0  0  0  0
  -19.6718  -27.3195   20.6741 H   0  0  0  0  0  0
  -17.4197  -26.6659   21.4019 H   0  0  0  0  0  0
  -18.0335  -26.0033   22.8998 H   0  0  0  0  0  0
  -19.7954  -30.7242   24.2272 H   0  0  0  0  0  0
  -17.5037  -31.6258   24.5150 H   0  0  0  0  0  0
  -15.5368  -30.2987   23.7650 H   0  0  0  0  0  0
  -15.8662  -28.0836   22.7027 H   0  0  0  0  0  0
  -24.5892  -30.7070   25.7806 H   0  0  0  0  0  0
  -24.8928  -32.2890   26.4905 H   0  0  0  0  0  0
  -25.8064  -30.8895   27.0229 H   0  0  0  0  0  0
  -26.2837  -29.6825   24.1114 H   0  0  0  0  0  0
  -27.4068  -29.7240   25.4517 H   0  0  0  0  0  0
  -27.8671  -30.4377   23.9226 H   0  0  0  0  0  0
  -27.2671  -33.3609   26.2077 H   0  0  0  0  0  0
  -28.3855  -32.6879   25.0307 H   0  0  0  0  0  0
  -28.0722  -31.8424   26.5392 H   0  0  0  0  0  0
  -28.2564  -38.0124   24.7501 H   0  0  0  0  0  0
  -28.1095  -36.2644   24.6267 H   0  0  0  0  0  0
  -27.2291  -37.1427   25.8860 H   0  0  0  0  0  0
  -20.9326  -29.8799   21.6961 H   0  0  0  0  0  0
  -26.0176  -38.2860   24.1432 H   0  0  0  0  0  0
  -27.1827  -20.5675   19.3481 H   0  0  0  0  0  0
  -29.8806  -23.0714   21.6402 H   0  0  0  0  0  0
  -26.1025  -22.6187   18.5616 H   0  0  0  0  0  0
  -29.9798  -25.1207   22.5978 H   0  0  0  0  0  0
  -29.9506  -26.7898   22.0675 H   0  0  0  0  0  0
  -30.6954  -25.5656   21.0449 H   0  0  0  0  0  0
  -27.7515  -19.5967   22.2891 H   0  0  0  0  0  0
  -29.2879  -19.0148   22.8432 H   0  0  0  0  0  0
  -28.7564  -17.1438   21.6876 H   0  0  0  0  0  0
  -30.4410  -17.1368   22.1371 H   0  0  0  0  0  0
  -28.0528  -20.5894   24.3628 H   0  0  0  0  0  0
  -28.3714  -21.9053   23.2864 H   0  0  0  0  0  0
  -29.8342  -17.3982   19.1913 H   0  0  0  0  0  0
  -31.1244  -18.1373   20.0893 H   0  0  0  0  0  0
  -30.4441  -20.5433   21.2096 H   0  0  0  0  0  0
  -27.7454  -25.6535   21.7905 H   0  0  0  0  0  0
  -28.8665  -15.0467   21.3019 H   0  0  0  0  0  0
  -30.3984  -20.2354   24.6546 H   0  0  0  0  0  0
  -29.9302  -21.7193   25.0909 H   0  0  0  0  0  0
  -30.7610  -21.5214   23.7144 H   0  0  0  0  0  0
  -28.2955  -18.9866   19.9696 H   0  0  0  0  0  0
  -29.5417  -19.6422   19.2085 H   0  0  0  0  0  0
  1 25  1  0  0  0
  1 30  2  0  0  0
  1 84  1  0  0  0
  2  3  1  0  0  0
  2 25  1  0  0  0
  2 87  1  0  0  0
  2 88  1  0  0  0
  3  4  1  0  0  0
  3 89  1  0  0  0
  3 90  1  0  0  0
  4  5  1  0  0  0
  4 91  1  0  0  0
  4 92  1  0  0  0
  5  6  1  0  0  0
  5 26  1  0  0  0
  5 93  1  0  0  0
  6 25  1  0  0  0
  6 94  1  0  0  0
  6 95  1  0  0  0
  7  8  2  0  0  0
  7 26  1  0  0  0
  7 29  1  0  0  0
  8  9  1  0  0  0
  8 22  1  0  0  0
  9 10  1  0  0  0
  9 27  2  0  0  0
 10 11  2  0  0  0
 10 15  1  0  0  0
 11 12  1  0  0  0
 11 96  1  0  0  0
 12 13  2  0  0  0
 12 97  1  0  0  0
 13 14  1  0  0  0
 13 31  1  0  0  0
 14 15  2  0  0  0
 14 98  1  0  0  0
 15 99  1  0  0  0
 16 17  2  0  0  0
 16 21  1  0  0  0
 16 31  1  0  0  0
 17 18  1  0  0  0
 17100  1  0  0  0
 18 19  2  0  0  0
 18101  1  0  0  0
 19 20  1  0  0  0
 19 24  1  0  0  0
 20 21  2  0  0  0
 20102  1  0  0  0
 21 23  1  0  0  0
 22 28  1  0  0  0
 22 32  2  0  0  0
 26 27  1  0  0  0
 28103  1  0  0  0
 28104  1  0  0  0
 29105  1  0  0  0
 29106  1  0  0  0
 33 34  1  0  0  0
 33 66  1  0  0  0
 33 70  2  0  0  0
 34 36  1  0  0  0
 34 59  1  0  0  0
 34107  1  0  0  0
 35 44  2  0  0  0
 35 45  1  0  0  0
 35 68  1  0  0  0
 36 56  1  0  0  0
 36108  1  0  0  0
 37 39  1  0  0  0
 37 47  1  0  0  0
 37 66  1  0  0  0
 37109  1  0  0  0
 38 43  2  0  0  0
 38 46  1  0  0  0
 38 47  1  0  0  0
 39 64  1  0  0  0
 39 67  2  0  0  0
 40 52  1  0  0  0
 40 53  2  0  0  0
 40 58  1  0  0  0
 41110  1  0  0  0
 41111  1  0  0  0
 41112  1  0  0  0
 41 48  1  0  0  0
 42 43  1  0  0  0
 42 66  1  0  0  0
 42113  1  0  0  0
 42114  1  0  0  0
 43 44  1  0  0  0
 44115  1  0  0  0
 45 46  2  0  0  0
 45116  1  0  0  0
 46117  1  0  0  0
 47118  1  0  0  0
 47119  1  0  0  0
 48 56  1  0  0  0
 48 65  1  0  0  0
 48120  1  0  0  0
 49 50  1  0  0  0
 49 53  1  0  0  0
 49 64  1  0  0  0
 49121  1  0  0  0
 50 51  1  0  0  0
 50122  1  0  0  0
 50123  1  0  0  0
 51 52  1  0  0  0
 51124  1  0  0  0
 51125  1  0  0  0
 52126  1  0  0  0
 52127  1  0  0  0
 53 54  1  0  0  0
 54 55  2  0  0  0
 54128  1  0  0  0
 55 57  1  0  0  0
 55129  1  0  0  0
 56 69  2  0  0  0
 57 58  2  0  0  0
 57130  1  0  0  0
 58131  1  0  0  0
 59 60  1  0  0  0
 59 61  1  0  0  0
 59 62  1  0  0  0
 60132  1  0  0  0
 60133  1  0  0  0
 60134  1  0  0  0
 61135  1  0  0  0
 61136  1  0  0  0
 61137  1  0  0  0
 62138  1  0  0  0
 62139  1  0  0  0
 62140  1  0  0  0
 63 65  1  0  0  0
 63141  1  0  0  0
 63142  1  0  0  0
 63143  1  0  0  0
 64144  1  0  0  0
 65145  1  0  0  0
 68 82  1  0  0  0
 71 73  2  0  0  0
 71 74  1  0  0  0
 71146  1  0  0  0
 72 74  2  0  0  0
 72 75  1  0  0  0
 72147  1  0  0  0
 73 83  1  0  0  0
 73148  1  0  0  0
 74 81  1  0  0  0
 75 82  1  0  0  0
 75 83  2  0  0  0
 76149  1  0  0  0
 76150  1  0  0  0
 76151  1  0  0  0
 76 82  1  0  0  0
 77 79  1  0  0  0
 77152  1  0  0  0
 77153  1  0  0  0
 77 81  1  0  0  0
 78 80  1  0  0  0
 78 84  1  0  0  0
 78154  1  0  0  0
 78155  1  0  0  0
 79 85  1  0  0  0
 79156  1  0  0  0
 79157  1  0  0  0
 80 86  1  0  0  0
 80158  1  0  0  0
 80159  1  0  0  0
 81 86  1  0  0  0
 81160  1  0  0  0
 82161  1  0  0  0
 84162  1  0  0  0
 85163  1  0  0  0
 85164  1  0  0  0
 85165  1  0  0  0
 86166  1  0  0  0
 86167  1  0  0  0
M  CHG  2  85   1  86   1
M  ISO  4   1 100  68 101  82 101  84 100
M  END
> <chiral flag>
0

> <version>
0

> <s_m_source_file>
/data/baiqing/PycharmProjects/Reinvent-master-3.2/result/LINK_invent/BTK/process_docking_weight1_custom_sum_contain_oxygen_bond_distance_aromatic_linkinvent_7_9_3/rearranged_h_0110.sdf

> <i_m_source_file_index>
70

> <r_mmod_Potential_Energy-OPLS-2005>
-651.319274902344

> <r_mmod_Stretch_Energy-OPLS-2005>
56.6115264892578

> <r_mmod_Bend_Energy-OPLS-2005>
150.477340698242

> <r_mmod_Torsional_Energy-OPLS-2005>
258.657379150391

> <r_mmod_Improper_Torsional_Energy-OPLS-2005>
4.71347570419312

> <r_mmod_Van_der_Waal_Energy-OPLS-2005>
146.705795288086

> <r_mmod_Electrostatic_Energy-OPLS-2005>
-182.607086181641

> <r_mmod_Solvation_Energy-OPLS-2005>
-1110.15991210938

> <b_mmod_Minimization_Converged-OPLS-2005>
0

> <r_mmod_RMS_Derivative-OPLS-2005>
1.89625704288483

$$$$
71
                    3D
 Structure written by MMmdl.
161169  0  0  1  0            999 V2000
  -30.5685  -14.7985   20.4396 C   0  0  0  0  0  0
  -30.4465  -12.4886   19.4439 C   0  0  0  0  0  0
  -29.5071  -12.4892   18.2179 C   0  0  0  0  0  0
  -28.0381  -12.2954   18.6507 C   0  0  0  0  0  0
  -27.6373  -13.2201   19.8322 C   0  0  2  0  0  0
  -28.6921  -13.1729   20.9563 C   0  0  0  0  0  0
  -25.2521  -13.8155   20.5652 C   0  0  0  0  0  0
  -24.1827  -13.0417   20.9250 C   0  0  0  0  0  0
  -24.6415  -11.6893   20.8805 C   0  0  0  0  0  0
  -23.9094  -10.4269   21.0444 C   0  0  0  0  0  0
  -24.3640   -9.4166   21.9196 C   0  0  0  0  0  0
  -23.6315   -8.2209   22.0739 C   0  0  0  0  0  0
  -22.4293   -8.0271   21.3545 C   0  0  0  0  0  0
  -21.9935   -9.0251   20.4637 C   0  0  0  0  0  0
  -22.7277  -10.2125   20.3061 C   0  0  0  0  0  0
  -21.6840   -6.0748   22.5297 C   0  0  0  0  0  0
  -21.4012   -6.5656   23.8227 C   0  0  0  0  0  0
  -21.3637   -5.6797   24.9184 C   0  0  0  0  0  0
  -21.6035   -4.3068   24.7234 C   0  0  0  0  0  0
  -21.8817   -3.8163   23.4355 C   0  0  0  0  0  0
  -21.9192   -4.6982   22.3415 C   0  0  0  0  0  0
  -22.7847  -13.5213   21.1873 C   0  0  0  0  0  0
  -22.1655   -4.2168   21.0987 F   0  0  0  0  0  0
  -21.5614   -3.4543   25.7744 F   0  0  0  0  0  0
  -29.9756  -13.5560   20.3527 N   0  0  0  0  0  0
  -26.2934  -12.9347   20.3229 N   0  0  0  0  0  0
  -25.9345  -11.6513   20.5793 N   0  0  0  0  0  0
  -22.0458  -12.8207   22.0424 N   0  0  0  0  0  0
  -25.4169  -15.1869   20.3921 N   0  0  0  0  0  0
  -31.7887  -14.9053   20.2979 O   0  0  0  0  0  0
  -21.6630   -6.8895   21.4252 O   0  0  0  0  0  0
  -22.3513  -14.5494   20.6687 O   0  0  0  0  0  0
  -24.6369  -31.8509   23.1874 C   0  0  0  0  0  0
  -25.9191  -32.4721   23.8214 C   0  0  1  0  0  0
  -27.2438  -27.2324   20.1489 C   0  0  0  0  0  0
  -25.5984  -33.8511   24.2219 N   0  0  0  0  0  0
  -23.4344  -30.4689   21.5295 C   0  0  2  0  0  0
  -24.8892  -28.8972   20.1157 C   0  0  0  0  0  0
  -22.7521  -29.4617   22.4879 C   0  0  0  0  0  0
  -18.0305  -28.1406   22.8483 C   0  0  0  0  0  0
  -24.1497  -36.7272   23.2635 C   0  0  0  0  0  0
  -25.9762  -30.7655   21.3515 C   0  0  0  0  0  0
  -26.0590  -29.3731   20.7205 C   0  0  0  0  0  0
  -27.2423  -28.5566   20.7207 C   0  0  0  0  0  0
  -26.0509  -26.8346   19.5090 C   0  0  0  0  0  0
  -24.8917  -27.6367   19.4943 C   0  0  0  0  0  0
  -23.6547  -29.7813   20.1538 C   0  0  0  0  0  0
  -25.4106  -36.3046   24.0336 C   0  0  1  0  0  0
  -20.5911  -28.3741   23.1277 C   0  0  2  0  0  0
  -20.6839  -26.9469   22.5401 C   0  0  0  0  0  0
  -19.5806  -26.6414   21.5232 C   0  0  0  0  0  0
  -18.1977  -26.7939   22.1627 C   0  0  0  0  0  0
  -19.1554  -28.8876   23.2878 C   0  0  0  0  0  0
  -18.9467  -30.1474   23.8910 C   0  0  0  0  0  0
  -17.6467  -30.6595   24.0582 C   0  0  0  0  0  0
  -25.9057  -34.9422   23.5066 C   0  0  0  0  0  0
  -16.5369  -29.9097   23.6336 C   0  0  0  0  0  0
  -16.7285  -28.6524   23.0332 C   0  0  0  0  0  0
  -26.4554  -31.6485   25.0553 C   0  0  0  0  0  0
  -25.3769  -31.3625   26.1269 C   0  0  0  0  0  0
  -27.0312  -30.2901   24.5937 C   0  0  0  0  0  0
  -27.6210  -32.4094   25.7288 C   0  0  0  0  0  0
  -27.5567  -37.1783   24.8498 C   0  0  0  0  0  0
  -21.4226  -29.3077   22.3645 N   0  0  0  0  0  0
  -26.4283  -37.3754   23.9428 N   0  0  0  0  0  0
  -24.7029  -31.0474   22.0816 N   0  0  0  0  0  0
  -23.4201  -28.8170   23.3009 O   0  0  0  0  0  0
  -28.3390  -26.3226   20.1621 O   0  0  0  0  0  0
  -26.5617  -34.8939   22.4629 O   0  0  0  0  0  0
  -23.5521  -32.1271   23.7204 O   0  0  0  0  0  0
  -31.1954  -20.5272   19.5187 C   0  0  0  0  0  0
  -31.5721  -18.3289   19.6283 C   0  0  0  0  0  0
  -32.1471  -19.5076   19.2348 C   0  0  0  0  0  0
  -30.0900  -19.9819   20.1111 C   0  0  0  0  0  0
  -34.4656  -18.5228   18.9852 C   0  0  0  0  0  0
  -34.1725  -21.0248   18.9882 C   0  0  0  0  0  0
  -28.9257  -23.5549   20.0273 C   0  0  0  0  0  0
  -28.1317  -24.8802   20.6053 C   0  0  0  0  0  0
  -29.0064  -22.1662   20.9077 C   0  0  0  0  0  0
  -29.6863  -17.3587   20.9483 C   0  0  0  0  0  0
  -33.5235  -19.6818   18.6127 C   0  0  0  0  0  0
  -30.3395  -18.5388   20.2258 N   0  0  0  0  0  0
  -29.7174  -15.9023   20.4194 N   0  0  0  0  0  0
  -28.9494  -20.7158   20.4513 O   0  0  0  0  0  0
  -31.4786  -12.6480   19.1292 H   0  0  0  0  0  0
  -30.4267  -11.5193   19.9466 H   0  0  0  0  0  0
  -29.7963  -11.7002   17.5231 H   0  0  0  0  0  0
  -29.6071  -13.4275   17.6701 H   0  0  0  0  0  0
  -27.9257  -11.2532   18.9549 H   0  0  0  0  0  0
  -27.3665  -12.4358   17.8016 H   0  0  0  0  0  0
  -27.6189  -14.2326   19.4272 H   0  0  0  0  0  0
  -28.7568  -12.1725   21.3907 H   0  0  0  0  0  0
  -28.4272  -13.8482   21.7721 H   0  0  0  0  0  0
  -25.2788   -9.5631   22.4772 H   0  0  0  0  0  0
  -24.0031   -7.4577   22.7430 H   0  0  0  0  0  0
  -21.0882   -8.8782   19.8931 H   0  0  0  0  0  0
  -22.3763  -10.9674   19.6167 H   0  0  0  0  0  0
  -21.2007   -7.6155   23.9748 H   0  0  0  0  0  0
  -21.1450   -6.0516   25.9078 H   0  0  0  0  0  0
  -22.0620   -2.7629   23.2854 H   0  0  0  0  0  0
  -22.4099  -11.9940   22.4938 H   0  0  0  0  0  0
  -21.1028  -13.1163   22.2494 H   0  0  0  0  0  0
  -24.6365  -15.8304   20.4692 H   0  0  0  0  0  0
  -26.2340  -15.6099   19.9741 H   0  0  0  0  0  0
  -26.7237  -32.5420   23.0937 H   0  0  0  0  0  0
  -25.0271  -33.9632   25.0458 H   0  0  0  0  0  0
  -22.7337  -31.2906   21.3679 H   0  0  0  0  0  0
  -23.3799  -35.9580   23.3230 H   0  0  0  0  0  0
  -24.3621  -36.8944   22.2071 H   0  0  0  0  0  0
  -23.7183  -37.6425   23.6685 H   0  0  0  0  0  0
  -26.0771  -31.5012   20.5507 H   0  0  0  0  0  0
  -26.8717  -30.8564   21.9545 H   0  0  0  0  0  0
  -28.1379  -28.9263   21.2005 H   0  0  0  0  0  0
  -26.0094  -25.8729   19.0187 H   0  0  0  0  0  0
  -24.0016  -27.2656   19.0064 H   0  0  0  0  0  0
  -23.7675  -30.5421   19.3804 H   0  0  0  0  0  0
  -22.7768  -29.2004   19.8633 H   0  0  0  0  0  0
  -25.1273  -36.1907   25.0827 H   0  0  0  0  0  0
  -21.0015  -28.3345   24.1403 H   0  0  0  0  0  0
  -20.5856  -26.2335   23.3590 H   0  0  0  0  0  0
  -21.6677  -26.7574   22.1119 H   0  0  0  0  0  0
  -19.7011  -25.6342   21.1231 H   0  0  0  0  0  0
  -19.6742  -27.3269   20.6793 H   0  0  0  0  0  0
  -17.4256  -26.6709   21.4019 H   0  0  0  0  0  0
  -18.0368  -26.0063   22.8997 H   0  0  0  0  0  0
  -19.7937  -30.7295   24.2294 H   0  0  0  0  0  0
  -17.5011  -31.6279   24.5178 H   0  0  0  0  0  0
  -15.5370  -30.3011   23.7635 H   0  0  0  0  0  0
  -15.8685  -28.0865   22.7019 H   0  0  0  0  0  0
  -24.6055  -30.6842   25.7587 H   0  0  0  0  0  0
  -24.8829  -32.2766   26.4569 H   0  0  0  0  0  0
  -25.8079  -30.8891   27.0096 H   0  0  0  0  0  0
  -26.2773  -29.6635   24.1145 H   0  0  0  0  0  0
  -27.4218  -29.7168   25.4362 H   0  0  0  0  0  0
  -27.8576  -30.4140   23.8927 H   0  0  0  0  0  0
  -27.3107  -33.3678   26.1441 H   0  0  0  0  0  0
  -28.4245  -32.6060   25.0169 H   0  0  0  0  0  0
  -28.0525  -31.8312   26.5469 H   0  0  0  0  0  0
  -28.2608  -38.0058   24.7515 H   0  0  0  0  0  0
  -28.1014  -36.2578   24.6348 H   0  0  0  0  0  0
  -27.2272  -37.1449   25.8899 H   0  0  0  0  0  0
  -20.9444  -29.8701   21.6753 H   0  0  0  0  0  0
  -26.0182  -38.2854   24.1372 H   0  0  0  0  0  0
  -31.3163  -21.5790   19.3023 H   0  0  0  0  0  0
  -31.9740  -17.3262   19.5828 H   0  0  0  0  0  0
  -34.0879  -17.5687   18.6180 H   0  0  0  0  0  0
  -34.5859  -18.4438   20.0661 H   0  0  0  0  0  0
  -35.4592  -18.6572   18.5590 H   0  0  0  0  0  0
  -33.5413  -21.8718   18.7208 H   0  0  0  0  0  0
  -35.1176  -21.1571   18.4598 H   0  0  0  0  0  0
  -34.3796  -21.0805   20.0584 H   0  0  0  0  0  0
  -29.9539  -23.8607   19.8314 H   0  0  0  0  0  0
  -28.5085  -23.3118   19.0510 H   0  0  0  0  0  0
  -28.3152  -24.9025   21.6802 H   0  0  0  0  0  0
  -27.0731  -24.6398   20.5359 H   0  0  0  0  0  0
  -28.1307  -22.2276   21.5543 H   0  0  0  0  0  0
  -29.8401  -22.2543   21.6052 H   0  0  0  0  0  0
  -28.6366  -17.6160   21.0957 H   0  0  0  0  0  0
  -30.1135  -17.3317   21.9513 H   0  0  0  0  0  0
  -33.3834  -19.6689   17.5305 H   0  0  0  0  0  0
  -28.7835  -15.6008   20.1970 H   0  0  0  0  0  0
  1 25  1  0  0  0
  1 30  2  0  0  0
  1 83  1  0  0  0
  2  3  1  0  0  0
  2 25  1  0  0  0
  2 85  1  0  0  0
  2 86  1  0  0  0
  3  4  1  0  0  0
  3 87  1  0  0  0
  3 88  1  0  0  0
  4  5  1  0  0  0
  4 89  1  0  0  0
  4 90  1  0  0  0
  5  6  1  0  0  0
  5 26  1  0  0  0
  5 91  1  0  0  0
  6 25  1  0  0  0
  6 92  1  0  0  0
  6 93  1  0  0  0
  7  8  2  0  0  0
  7 26  1  0  0  0
  7 29  1  0  0  0
  8  9  1  0  0  0
  8 22  1  0  0  0
  9 10  1  0  0  0
  9 27  2  0  0  0
 10 11  2  0  0  0
 10 15  1  0  0  0
 11 12  1  0  0  0
 11 94  1  0  0  0
 12 13  2  0  0  0
 12 95  1  0  0  0
 13 14  1  0  0  0
 13 31  1  0  0  0
 14 15  2  0  0  0
 14 96  1  0  0  0
 15 97  1  0  0  0
 16 17  2  0  0  0
 16 21  1  0  0  0
 16 31  1  0  0  0
 17 18  1  0  0  0
 17 98  1  0  0  0
 18 19  2  0  0  0
 18 99  1  0  0  0
 19 20  1  0  0  0
 19 24  1  0  0  0
 20 21  2  0  0  0
 20100  1  0  0  0
 21 23  1  0  0  0
 22 28  1  0  0  0
 22 32  2  0  0  0
 26 27  1  0  0  0
 28101  1  0  0  0
 28102  1  0  0  0
 29103  1  0  0  0
 29104  1  0  0  0
 33 34  1  0  0  0
 33 66  1  0  0  0
 33 70  2  0  0  0
 34 36  1  0  0  0
 34 59  1  0  0  0
 34105  1  0  0  0
 35 44  2  0  0  0
 35 45  1  0  0  0
 35 68  1  0  0  0
 36 56  1  0  0  0
 36106  1  0  0  0
 37 39  1  0  0  0
 37 47  1  0  0  0
 37 66  1  0  0  0
 37107  1  0  0  0
 38 43  2  0  0  0
 38 46  1  0  0  0
 38 47  1  0  0  0
 39 64  1  0  0  0
 39 67  2  0  0  0
 40 52  1  0  0  0
 40 53  2  0  0  0
 40 58  1  0  0  0
 41108  1  0  0  0
 41109  1  0  0  0
 41110  1  0  0  0
 41 48  1  0  0  0
 42 43  1  0  0  0
 42 66  1  0  0  0
 42111  1  0  0  0
 42112  1  0  0  0
 43 44  1  0  0  0
 44113  1  0  0  0
 45 46  2  0  0  0
 45114  1  0  0  0
 46115  1  0  0  0
 47116  1  0  0  0
 47117  1  0  0  0
 48 56  1  0  0  0
 48 65  1  0  0  0
 48118  1  0  0  0
 49 50  1  0  0  0
 49 53  1  0  0  0
 49 64  1  0  0  0
 49119  1  0  0  0
 50 51  1  0  0  0
 50120  1  0  0  0
 50121  1  0  0  0
 51 52  1  0  0  0
 51122  1  0  0  0
 51123  1  0  0  0
 52124  1  0  0  0
 52125  1  0  0  0
 53 54  1  0  0  0
 54 55  2  0  0  0
 54126  1  0  0  0
 55 57  1  0  0  0
 55127  1  0  0  0
 56 69  2  0  0  0
 57 58  2  0  0  0
 57128  1  0  0  0
 58129  1  0  0  0
 59 60  1  0  0  0
 59 61  1  0  0  0
 59 62  1  0  0  0
 60130  1  0  0  0
 60131  1  0  0  0
 60132  1  0  0  0
 61133  1  0  0  0
 61134  1  0  0  0
 61135  1  0  0  0
 62136  1  0  0  0
 62137  1  0  0  0
 62138  1  0  0  0
 63 65  1  0  0  0
 63139  1  0  0  0
 63140  1  0  0  0
 63141  1  0  0  0
 64142  1  0  0  0
 65143  1  0  0  0
 68 78  1  0  0  0
 71 73  1  0  0  0
 71 74  2  0  0  0
 71144  1  0  0  0
 72 73  2  0  0  0
 72 82  1  0  0  0
 72145  1  0  0  0
 73 81  1  0  0  0
 74 82  1  0  0  0
 74 84  1  0  0  0
 75146  1  0  0  0
 75147  1  0  0  0
 75148  1  0  0  0
 75 81  1  0  0  0
 76 81  1  0  0  0
 76149  1  0  0  0
 76150  1  0  0  0
 76151  1  0  0  0
 77 78  1  0  0  0
 77 79  1  0  0  0
 77152  1  0  0  0
 77153  1  0  0  0
 78154  1  0  0  0
 78155  1  0  0  0
 79 84  1  0  0  0
 79156  1  0  0  0
 79157  1  0  0  0
 80 82  1  0  0  0
 80 83  1  0  0  0
 80158  1  0  0  0
 80159  1  0  0  0
 81160  1  0  0  0
 83161  1  0  0  0
M  ISO  4   1 100  68 101  78 101  83 100
M  END
> <chiral flag>
0

> <version>
0

> <s_m_source_file>
/data/baiqing/PycharmProjects/Reinvent-master-3.2/result/LINK_invent/BTK/process_docking_weight1_custom_sum_contain_oxygen_bond_distance_aromatic_linkinvent_7_9_3/rearranged_h_0110.sdf

> <i_m_source_file_index>
71

> <r_mmod_Potential_Energy-OPLS-2005>
260.110717773438

> <r_mmod_Stretch_Energy-OPLS-2005>
164.977691650391

> <r_mmod_Bend_Energy-OPLS-2005>
260.583038330078

> <r_mmod_Torsional_Energy-OPLS-2005>
263.080963134766

> <r_mmod_Improper_Torsional_Energy-OPLS-2005>
8.3807897567749

> <r_mmod_Van_der_Waal_Energy-OPLS-2005>
112.090057373047

> <r_mmod_Electrostatic_Energy-OPLS-2005>
-446.674102783203

> <r_mmod_Solvation_Energy-OPLS-2005>
-214.915161132812

> <b_mmod_Minimization_Converged-OPLS-2005>
0

> <r_mmod_RMS_Derivative-OPLS-2005>
4.77864646911621

$$$$
72
                    3D
 Structure written by MMmdl.
177185  0  0  1  0            999 V2000
  -30.5286  -14.5588   20.6718 C   0  0  0  0  0  0
  -30.4567  -12.3970   19.4207 C   0  0  0  0  0  0
  -29.5065  -12.5188   18.2068 C   0  0  0  0  0  0
  -28.0329  -12.3212   18.6232 C   0  0  0  0  0  0
  -27.6535  -13.1685   19.8664 C   0  0  2  0  0  0
  -28.6792  -12.9073   20.9860 C   0  0  0  0  0  0
  -25.2592  -13.8048   20.5573 C   0  0  0  0  0  0
  -24.1821  -13.0403   20.9127 C   0  0  0  0  0  0
  -24.6311  -11.6844   20.8696 C   0  0  0  0  0  0
  -23.8976  -10.4258   21.0393 C   0  0  0  0  0  0
  -24.3556   -9.4190   21.9172 C   0  0  0  0  0  0
  -23.6251   -8.2218   22.0754 C   0  0  0  0  0  0
  -22.4241   -8.0241   21.3532 C   0  0  0  0  0  0
  -21.9840   -9.0209   20.4640 C   0  0  0  0  0  0
  -22.7148  -10.2098   20.3053 C   0  0  0  0  0  0
  -21.6839   -6.0700   22.5282 C   0  0  0  0  0  0
  -21.3997   -6.5612   23.8211 C   0  0  0  0  0  0
  -21.3666   -5.6771   24.9179 C   0  0  0  0  0  0
  -21.6056   -4.3035   24.7234 C   0  0  0  0  0  0
  -21.8820   -3.8120   23.4357 C   0  0  0  0  0  0
  -21.9193   -4.6931   22.3410 C   0  0  0  0  0  0
  -22.7872  -13.5253   21.1827 C   0  0  0  0  0  0
  -22.1661   -4.2114   21.0988 F   0  0  0  0  0  0
  -21.5644   -3.4531   25.7752 F   0  0  0  0  0  0
  -29.9885  -13.3246   20.4629 N   0  0  0  0  0  0
  -26.2935  -12.9117   20.3205 N   0  0  0  0  0  0
  -25.9206  -11.6331   20.5666 N   0  0  0  0  0  0
  -22.0526  -12.8259   22.0398 N   0  0  0  0  0  0
  -25.4417  -15.1746   20.3959 N   0  0  0  0  0  0
  -31.6613  -14.8636   20.2750 O   0  0  0  0  0  0
  -21.6624   -6.8830   21.4236 O   0  0  0  0  0  0
  -22.3578  -14.5584   20.6703 O   0  0  0  0  0  0
  -24.6782  -31.9487   23.2084 C   0  0  0  0  0  0
  -25.9667  -32.5101   23.8541 C   0  0  1  0  0  0
  -26.1309  -27.1521   20.4699 C   0  0  0  0  0  0
  -25.6482  -33.8834   24.2549 N   0  0  0  0  0  0
  -23.4581  -30.6345   21.5632 C   0  0  2  0  0  0
  -24.7764  -29.2329   19.8646 C   0  0  0  0  0  0
  -23.0042  -29.6127   22.6166 C   0  0  0  0  0  0
  -18.4490  -28.1602   22.3335 C   0  0  0  0  0  0
  -24.1513  -36.7350   23.2598 C   0  0  0  0  0  0
  -25.9872  -30.8199   21.3886 C   0  0  0  0  0  0
  -25.8970  -29.4826   20.6720 C   0  0  0  0  0  0
  -26.7556  -28.3836   20.8698 C   0  0  0  0  0  0
  -25.7722  -27.1309   19.1506 C   0  0  0  0  0  0
  -24.7934  -28.1217   18.9794 C   0  0  0  0  0  0
  -23.5695  -30.0868   20.0986 C   0  0  0  0  0  0
  -25.4143  -36.3232   24.0330 C   0  0  1  0  0  0
  -21.0819  -28.4777   23.5435 C   0  0  2  0  0  0
  -21.8992  -26.8043   23.1678 C   0  0  0  0  0  0
  -20.2871  -25.6605   21.4549 C   0  0  0  0  0  0
  -18.7528  -26.7697   21.3324 C   0  0  0  0  0  0
  -19.4709  -28.8873   23.1795 C   0  0  0  0  0  0
  -19.0270  -30.0353   23.9042 C   0  0  0  0  0  0
  -17.6885  -30.4592   23.9805 C   0  0  0  0  0  0
  -25.9191  -34.9643   23.5141 C   0  0  0  0  0  0
  -16.7011  -29.6799   23.3709 C   0  0  0  0  0  0
  -17.0786  -28.5558   22.5862 C   0  0  0  0  0  0
  -26.4653  -31.6689   25.0894 C   0  0  0  0  0  0
  -25.3699  -31.3879   26.1460 C   0  0  0  0  0  0
  -27.0351  -30.3053   24.6356 C   0  0  0  0  0  0
  -27.6225  -32.4258   25.7795 C   0  0  0  0  0  0
  -27.5613  -37.1893   24.8463 C   0  0  0  0  0  0
  -21.7347  -29.6214   22.9455 N   0  0  0  0  0  0
  -26.4296  -37.3939   23.9451 N   0  0  0  0  0  0
  -24.7289  -31.1997   22.0720 N   0  0  0  0  0  0
  -23.7971  -28.9013   23.2261 O   0  0  0  0  0  0
  -24.8937  -26.8507   21.1988 O   0  0  0  0  0  0
  -26.5554  -34.9043   22.4586 O   0  0  0  0  0  0
  -23.5993  -32.2327   23.7536 O   0  0  0  0  0  0
  -20.5610  -24.7839   23.7678 C   0  0  0  0  0  0
  -19.7801  -26.3814   23.4791 C   0  0  0  0  0  0
  -22.0561  -24.3029   22.9126 C   0  0  0  0  0  0
  -21.2215  -27.6411   21.2589 C   0  0  0  0  0  0
  -22.9007  -24.9674   21.4914 C   0  0  1  0  0  0
  -23.0833  -26.6511   20.9475 C   0  0  2  0  0  0
  -23.6577  -23.1725   19.7357 C   0  0  0  0  0  0
  -29.5159  -16.5593   23.4504 C   0  0  0  0  0  0
  -26.2763  -21.0656   22.1677 C   0  0  0  0  0  0
  -27.4094  -20.2286   21.4724 C   0  0  0  0  0  0
  -28.6678  -17.8314   21.3489 C   0  0  0  0  0  0
  -26.0242  -22.4764   21.5603 C   0  0  0  0  0  0
  -24.0906  -24.0261   20.9714 C   0  0  2  0  0  0
  -29.7081  -16.7508   21.9170 C   0  0  2  0  0  0
  -27.6833  -18.8330   22.1289 C   0  0  2  0  0  0
  -29.6370  -15.4134   21.2620 N   0  0  0  0  0  0
  -24.7450  -23.1438   21.9953 N   0  3  0  0  0  0
  -26.4646  -18.3043   22.3103 F   0  0  0  0  0  0
  -31.4850  -12.6129   19.1260 H   0  0  0  0  0  0
  -30.4561  -11.3750   19.8019 H   0  0  0  0  0  0
  -29.7811  -11.7890   17.4447 H   0  0  0  0  0  0
  -29.6215  -13.5007   17.7450 H   0  0  0  0  0  0
  -27.9016  -11.2625   18.8536 H   0  0  0  0  0  0
  -27.3650  -12.5309   17.7901 H   0  0  0  0  0  0
  -27.7065  -14.2164   19.5733 H   0  0  0  0  0  0
  -28.6984  -11.8440   21.2331 H   0  0  0  0  0  0
  -28.3995  -13.3980   21.9202 H   0  0  0  0  0  0
  -25.2714   -9.5681   22.4724 H   0  0  0  0  0  0
  -23.9980   -7.4610   22.7467 H   0  0  0  0  0  0
  -21.0775   -8.8694   19.8949 H   0  0  0  0  0  0
  -22.3583  -10.9627   19.6162 H   0  0  0  0  0  0
  -21.1965   -7.6121   23.9695 H   0  0  0  0  0  0
  -21.1498   -6.0510   25.9076 H   0  0  0  0  0  0
  -22.0597   -2.7585   23.2872 H   0  0  0  0  0  0
  -22.4147  -11.9927   22.4788 H   0  0  0  0  0  0
  -21.1157  -13.1284   22.2644 H   0  0  0  0  0  0
  -24.6846  -15.8366   20.5196 H   0  0  0  0  0  0
  -26.2884  -15.6037   20.0473 H   0  0  0  0  0  0
  -26.7802  -32.5583   23.1324 H   0  0  0  0  0  0
  -25.0769  -33.9975   25.0796 H   0  0  0  0  0  0
  -22.7185  -31.4367   21.5224 H   0  0  0  0  0  0
  -23.3841  -35.9619   23.3246 H   0  0  0  0  0  0
  -24.3604  -36.8993   22.2018 H   0  0  0  0  0  0
  -23.7175  -37.6504   23.6609 H   0  0  0  0  0  0
  -26.2329  -31.5925   20.6598 H   0  0  0  0  0  0
  -26.8408  -30.7501   22.0517 H   0  0  0  0  0  0
  -27.5201  -28.4236   21.6312 H   0  0  0  0  0  0
  -25.6307  -26.2066   18.6141 H   0  0  0  0  0  0
  -24.0090  -27.9736   18.2486 H   0  0  0  0  0  0
  -23.6299  -30.9309   19.4112 H   0  0  0  0  0  0
  -22.6738  -29.5454   19.8034 H   0  0  0  0  0  0
  -25.1296  -36.2097   25.0817 H   0  0  0  0  0  0
  -21.2041  -28.6320   24.6179 H   0  0  0  0  0  0
  -21.9983  -26.4657   24.2064 H   0  0  0  0  0  0
  -22.9827  -26.7751   23.1566 H   0  0  0  0  0  0
  -19.9629  -24.6230   21.5501 H   0  0  0  0  0  0
  -20.5758  -25.5558   20.4024 H   0  0  0  0  0  0
  -18.6858  -27.1422   20.3083 H   0  0  0  0  0  0
  -17.8745  -26.1261   21.3931 H   0  0  0  0  0  0
  -19.7490  -30.5861   24.4942 H   0  0  0  0  0  0
  -17.4161  -31.3260   24.5649 H   0  0  0  0  0  0
  -15.6573  -29.9478   23.4638 H   0  0  0  0  0  0
  -16.2904  -27.9974   22.1032 H   0  0  0  0  0  0
  -24.5870  -30.7324   25.7640 H   0  0  0  0  0  0
  -24.8920  -32.3070   26.4855 H   0  0  0  0  0  0
  -25.7846  -30.8983   27.0282 H   0  0  0  0  0  0
  -26.2895  -29.6948   24.1259 H   0  0  0  0  0  0
  -27.3829  -29.7220   25.4897 H   0  0  0  0  0  0
  -27.8935  -30.4263   23.9739 H   0  0  0  0  0  0
  -27.2913  -33.3564   26.2419 H   0  0  0  0  0  0
  -28.4103  -32.6793   25.0686 H   0  0  0  0  0  0
  -28.0794  -31.8282   26.5699 H   0  0  0  0  0  0
  -28.2607  -38.0219   24.7603 H   0  0  0  0  0  0
  -28.1145  -36.2771   24.6187 H   0  0  0  0  0  0
  -27.2342  -37.1420   25.8859 H   0  0  0  0  0  0
  -21.1318  -30.3245   22.5444 H   0  0  0  0  0  0
  -26.0190  -38.2998   24.1524 H   0  0  0  0  0  0
  -19.8079  -24.0089   23.6044 H   0  0  0  0  0  0
  -20.7459  -24.6881   24.8385 H   0  0  0  0  0  0
  -19.7869  -26.8169   24.4855 H   0  0  0  0  0  0
  -18.7175  -26.1055   23.4990 H   0  0  0  0  0  0
  -21.9366  -23.2397   22.7152 H   0  0  0  0  0  0
  -22.8144  -24.3141   23.6975 H   0  0  0  0  0  0
  -21.0990  -28.6896   21.0188 H   0  0  0  0  0  0
  -20.7941  -27.5377   20.2550 H   0  0  0  0  0  0
  -22.2326  -24.6129   20.7311 H   0  0  0  0  0  0
  -23.0434  -26.5567   19.8642 H   0  0  0  0  0  0
  -23.1204  -23.7630   18.9938 H   0  0  0  0  0  0
  -23.0063  -22.3513   20.0300 H   0  0  0  0  0  0
  -24.4944  -22.7497   19.1844 H   0  0  0  0  0  0
  -29.6089  -17.5072   23.9844 H   0  0  0  0  0  0
  -30.2489  -15.8745   23.8769 H   0  0  0  0  0  0
  -28.5278  -16.1628   23.7007 H   0  0  0  0  0  0
  -26.4966  -21.1601   23.2314 H   0  0  0  0  0  0
  -25.3453  -20.5012   22.1110 H   0  0  0  0  0  0
  -28.3364  -20.8059   21.4767 H   0  0  0  0  0  0
  -27.1470  -20.0912   20.4197 H   0  0  0  0  0  0
  -29.3960  -18.5131   21.7888 H   0  0  0  0  0  0
  -27.9672  -17.0668   21.6676 H   0  0  0  0  0  0
  -26.0618  -22.3631   20.4818 H   0  0  0  0  0  0
  -26.8662  -23.1285   21.7904 H   0  0  0  0  0  0
  -24.8919  -24.6569   20.6009 H   0  0  0  0  0  0
  -30.7351  -17.0929   21.7576 H   0  0  0  0  0  0
  -28.0402  -19.0221   23.1465 H   0  0  0  0  0  0
  -28.7394  -14.9651   21.3744 H   0  0  0  0  0  0
  -24.9534  -23.6985   22.8141 H   0  0  0  0  0  0
  -24.0892  -22.4329   22.2757 H   0  0  0  0  0  0
  1 25  1  0  0  0
  1 30  2  0  0  0
  1 86  1  0  0  0
  2  3  1  0  0  0
  2 25  1  0  0  0
  2 89  1  0  0  0
  2 90  1  0  0  0
  3  4  1  0  0  0
  3 91  1  0  0  0
  3 92  1  0  0  0
  4  5  1  0  0  0
  4 93  1  0  0  0
  4 94  1  0  0  0
  5  6  1  0  0  0
  5 26  1  0  0  0
  5 95  1  0  0  0
  6 25  1  0  0  0
  6 96  1  0  0  0
  6 97  1  0  0  0
  7  8  2  0  0  0
  7 26  1  0  0  0
  7 29  1  0  0  0
  8  9  1  0  0  0
  8 22  1  0  0  0
  9 10  1  0  0  0
  9 27  2  0  0  0
 10 11  2  0  0  0
 10 15  1  0  0  0
 11 12  1  0  0  0
 11 98  1  0  0  0
 12 13  2  0  0  0
 12 99  1  0  0  0
 13 14  1  0  0  0
 13 31  1  0  0  0
 14 15  2  0  0  0
 14100  1  0  0  0
 15101  1  0  0  0
 16 17  2  0  0  0
 16 21  1  0  0  0
 16 31  1  0  0  0
 17 18  1  0  0  0
 17102  1  0  0  0
 18 19  2  0  0  0
 18103  1  0  0  0
 19 20  1  0  0  0
 19 24  1  0  0  0
 20 21  2  0  0  0
 20104  1  0  0  0
 21 23  1  0  0  0
 22 28  1  0  0  0
 22 32  2  0  0  0
 26 27  1  0  0  0
 28105  1  0  0  0
 28106  1  0  0  0
 29107  1  0  0  0
 29108  1  0  0  0
 33 34  1  0  0  0
 33 66  1  0  0  0
 33 70  2  0  0  0
 34 36  1  0  0  0
 34 59  1  0  0  0
 34109  1  0  0  0
 35 44  2  0  0  0
 35 45  1  0  0  0
 35 68  1  0  0  0
 36 56  1  0  0  0
 36110  1  0  0  0
 37 39  1  0  0  0
 37 47  1  0  0  0
 37 66  1  0  0  0
 37111  1  0  0  0
 38 43  2  0  0  0
 38 46  1  0  0  0
 38 47  1  0  0  0
 39 64  1  0  0  0
 39 67  2  0  0  0
 40 52  1  0  0  0
 40 53  2  0  0  0
 40 58  1  0  0  0
 41112  1  0  0  0
 41113  1  0  0  0
 41114  1  0  0  0
 41 48  1  0  0  0
 42 43  1  0  0  0
 42 66  1  0  0  0
 42115  1  0  0  0
 42116  1  0  0  0
 43 44  1  0  0  0
 44117  1  0  0  0
 45 46  2  0  0  0
 45118  1  0  0  0
 46119  1  0  0  0
 47120  1  0  0  0
 47121  1  0  0  0
 48 56  1  0  0  0
 48 65  1  0  0  0
 48122  1  0  0  0
 49 50  1  0  0  0
 49 53  1  0  0  0
 49 64  1  0  0  0
 49123  1  0  0  0
 50 51  1  0  0  0
 50124  1  0  0  0
 50125  1  0  0  0
 51 52  1  0  0  0
 51126  1  0  0  0
 51127  1  0  0  0
 52128  1  0  0  0
 52129  1  0  0  0
 53 54  1  0  0  0
 54 55  2  0  0  0
 54130  1  0  0  0
 55 57  1  0  0  0
 55131  1  0  0  0
 56 69  2  0  0  0
 57 58  2  0  0  0
 57132  1  0  0  0
 58133  1  0  0  0
 59 60  1  0  0  0
 59 61  1  0  0  0
 59 62  1  0  0  0
 60134  1  0  0  0
 60135  1  0  0  0
 60136  1  0  0  0
 61137  1  0  0  0
 61138  1  0  0  0
 61139  1  0  0  0
 62140  1  0  0  0
 62141  1  0  0  0
 62142  1  0  0  0
 63 65  1  0  0  0
 63143  1  0  0  0
 63144  1  0  0  0
 63145  1  0  0  0
 64146  1  0  0  0
 65147  1  0  0  0
 68 76  1  0  0  0
 71 72  1  0  0  0
 71 73  1  0  0  0
 71148  1  0  0  0
 71149  1  0  0  0
 72 74  1  0  0  0
 72150  1  0  0  0
 72151  1  0  0  0
 73152  1  0  0  0
 73153  1  0  0  0
 73 75  1  0  0  0
 74 76  1  0  0  0
 74154  1  0  0  0
 74155  1  0  0  0
 75 76  1  0  0  0
 75 83  1  0  0  0
 75156  1  0  0  0
 76157  1  0  0  0
 77158  1  0  0  0
 77159  1  0  0  0
 77160  1  0  0  0
 77 83  1  0  0  0
 78161  1  0  0  0
 78162  1  0  0  0
 78163  1  0  0  0
 78 84  1  0  0  0
 79 80  1  0  0  0
 79 82  1  0  0  0
 79164  1  0  0  0
 79165  1  0  0  0
 80 85  1  0  0  0
 80166  1  0  0  0
 80167  1  0  0  0
 81 84  1  0  0  0
 81 85  1  0  0  0
 81168  1  0  0  0
 81169  1  0  0  0
 82 87  1  0  0  0
 82170  1  0  0  0
 82171  1  0  0  0
 83 87  1  0  0  0
 83172  1  0  0  0
 84 86  1  0  0  0
 84173  1  0  0  0
 85 88  1  0  0  0
 85174  1  0  0  0
 86175  1  0  0  0
 87176  1  0  0  0
 87177  1  0  0  0
M  CHG  1  87   1
M  ISO  4   1 100  68 101  76 101  86 100
M  END
> <chiral flag>
0

> <version>
0

> <s_m_source_file>
/data/baiqing/PycharmProjects/Reinvent-master-3.2/result/LINK_invent/BTK/process_docking_weight1_custom_sum_contain_oxygen_bond_distance_aromatic_linkinvent_7_9_3/rearranged_h_0110.sdf

> <i_m_source_file_index>
72

> <r_mmod_Potential_Energy-OPLS-2005>
10474.62890625

> <r_mmod_Stretch_Energy-OPLS-2005>
5024.279296875

> <r_mmod_Bend_Energy-OPLS-2005>
922.519165039062

> <r_mmod_Torsional_Energy-OPLS-2005>
586.589477539062

> <r_mmod_Improper_Torsional_Energy-OPLS-2005>
37.3662033081055

> <r_mmod_Van_der_Waal_Energy-OPLS-2005>
2207.88403320312

> <r_mmod_Electrostatic_Energy-OPLS-2005>
-265.965209960938

> <r_mmod_Solvation_Energy-OPLS-2005>
-417.983245849609

> <b_mmod_Minimization_Converged-OPLS-2005>
0

> <r_mmod_RMS_Derivative-OPLS-2005>
7.84232568740845

$$$$
73
                    3D
 Structure written by MMmdl.
170178  0  0  1  0            999 V2000
  -30.7396  -14.4526   20.6065 C   0  0  0  0  0  0
  -30.4133  -12.3071   19.4240 C   0  0  0  0  0  0
  -29.4905  -12.5163   18.2075 C   0  0  0  0  0  0
  -28.0138  -12.3738   18.6192 C   0  0  0  0  0  0
  -27.6608  -13.2118   19.8768 C   0  0  2  0  0  0
  -28.7023  -13.0012   21.0003 C   0  0  0  0  0  0
  -25.2575  -13.8171   20.5677 C   0  0  0  0  0  0
  -24.1830  -13.0441   20.9165 C   0  0  0  0  0  0
  -24.6391  -11.6910   20.8725 C   0  0  0  0  0  0
  -23.9055  -10.4293   21.0399 C   0  0  0  0  0  0
  -24.3611   -9.4209   21.9176 C   0  0  0  0  0  0
  -23.6287   -8.2245   22.0752 C   0  0  0  0  0  0
  -22.4268   -8.0280   21.3544 C   0  0  0  0  0  0
  -21.9900   -9.0252   20.4647 C   0  0  0  0  0  0
  -22.7229  -10.2130   20.3052 C   0  0  0  0  0  0
  -21.6847   -6.0724   22.5275 C   0  0  0  0  0  0
  -21.4018   -6.5632   23.8207 C   0  0  0  0  0  0
  -21.3666   -5.6788   24.9172 C   0  0  0  0  0  0
  -21.6042   -4.3049   24.7224 C   0  0  0  0  0  0
  -21.8822   -3.8136   23.4349 C   0  0  0  0  0  0
  -21.9194   -4.6950   22.3405 C   0  0  0  0  0  0
  -22.7853  -13.5238   21.1819 C   0  0  0  0  0  0
  -22.1661   -4.2137   21.0981 F   0  0  0  0  0  0
  -21.5632   -3.4541   25.7740 F   0  0  0  0  0  0
  -30.0354  -13.2959   20.4481 N   0  0  0  0  0  0
  -26.3020  -12.9351   20.3373 N   0  0  0  0  0  0
  -25.9321  -11.6504   20.5763 N   0  0  0  0  0  0
  -22.0499  -12.8247   22.0389 N   0  0  0  0  0  0
  -25.4280  -15.1892   20.4081 N   0  0  0  0  0  0
  -31.8468  -14.6121   20.0808 O   0  0  0  0  0  0
  -21.6637   -6.8874   21.4238 O   0  0  0  0  0  0
  -22.3541  -14.5538   20.6655 O   0  0  0  0  0  0
  -24.6154  -31.8695   23.2115 C   0  0  0  0  0  0
  -25.9049  -32.4834   23.8412 C   0  0  1  0  0  0
  -27.2240  -27.4256   20.0983 C   0  0  0  0  0  0
  -25.5905  -33.8630   24.2340 N   0  0  0  0  0  0
  -23.4022  -30.4970   21.5524 C   0  0  2  0  0  0
  -24.8463  -28.9697   20.1094 C   0  0  0  0  0  0
  -22.7416  -29.4678   22.4984 C   0  0  0  0  0  0
  -18.0282  -28.1383   22.8501 C   0  0  0  0  0  0
  -24.1485  -36.7318   23.2640 C   0  0  0  0  0  0
  -25.9331  -30.8336   21.3657 C   0  0  0  0  0  0
  -26.0087  -29.4697   20.7098 C   0  0  0  0  0  0
  -27.1995  -28.7051   20.7021 C   0  0  0  0  0  0
  -26.0448  -26.9592   19.4653 C   0  0  0  0  0  0
  -24.8600  -27.7142   19.4839 C   0  0  0  0  0  0
  -23.6095  -29.8369   20.1645 C   0  0  0  0  0  0
  -25.4107  -36.3117   24.0341 C   0  0  1  0  0  0
  -20.5872  -28.3673   23.1318 C   0  0  2  0  0  0
  -20.6767  -26.9410   22.5414 C   0  0  0  0  0  0
  -19.5738  -26.6395   21.5218 C   0  0  0  0  0  0
  -18.1925  -26.7932   22.1635 C   0  0  0  0  0  0
  -19.1529  -28.8846   23.2909 C   0  0  0  0  0  0
  -18.9452  -30.1455   23.8915 C   0  0  0  0  0  0
  -17.6451  -30.6588   24.0580 C   0  0  0  0  0  0
  -25.9035  -34.9481   23.5136 C   0  0  0  0  0  0
  -16.5346  -29.9091   23.6331 C   0  0  0  0  0  0
  -16.7271  -28.6511   23.0349 C   0  0  0  0  0  0
  -26.4470  -31.6606   25.0735 C   0  0  0  0  0  0
  -25.3738  -31.3711   26.1484 C   0  0  0  0  0  0
  -27.0299  -30.3052   24.6104 C   0  0  0  0  0  0
  -27.6050  -32.4319   25.7490 C   0  0  0  0  0  0
  -27.5583  -37.1816   24.8470 C   0  0  0  0  0  0
  -21.4139  -29.3043   22.3720 N   0  0  0  0  0  0
  -26.4296  -37.3799   23.9413 N   0  0  0  0  0  0
  -24.6690  -31.0813   22.1016 N   0  0  0  0  0  0
  -23.4191  -28.8220   23.3023 O   0  0  0  0  0  0
  -28.3786  -26.6621   20.1539 O   0  0  0  0  0  0
  -26.5595  -34.8927   22.4692 O   0  0  0  0  0  0
  -23.5346  -32.1435   23.7518 O   0  0  0  0  0  0
  -31.5586  -19.3614   21.8166 C   0  0  0  0  0  0
  -29.7588  -17.8651   21.2331 C   0  0  0  0  0  0
  -30.2307  -19.1934   21.3786 C   0  0  0  0  0  0
  -32.3191  -18.2274   22.1393 C   0  0  0  0  0  0
  -30.6099  -16.7636   21.4996 C   0  0  0  0  0  0
  -33.7246  -18.3764   22.6823 C   0  0  0  0  0  0
  -30.3129  -21.3935   24.0015 C   0  0  0  0  0  0
  -27.8649  -21.5985   23.4314 C   0  0  0  0  0  0
  -30.6914  -24.6838   20.3006 C   0  0  0  0  0  0
  -29.3338  -20.3754   20.9768 C   0  0  0  0  0  0
  -28.9071  -22.8659   20.6228 C   0  0  0  0  0  0
  -28.2212  -25.2364   20.0030 C   0  0  0  0  0  0
  -29.2922  -22.0205   23.0395 C   0  0  0  0  0  0
  -29.2597  -24.3808   20.7714 C   0  0  2  0  0  0
  -29.6343  -21.8158   21.5267 C   0  0  1  0  0  0
  -31.8578  -16.9682   21.9872 N   0  0  0  0  0  0
  -30.1045  -15.4543   21.2515 N   0  0  0  0  0  0
  -31.4590  -12.3872   19.1215 H   0  0  0  0  0  0
  -30.3002  -11.2967   19.8206 H   0  0  0  0  0  0
  -29.7293  -11.7989   17.4220 H   0  0  0  0  0  0
  -29.6596  -13.5063   17.7807 H   0  0  0  0  0  0
  -27.8247  -11.3176   18.8121 H   0  0  0  0  0  0
  -27.3635  -12.6518   17.7891 H   0  0  0  0  0  0
  -27.7024  -14.2592   19.5770 H   0  0  0  0  0  0
  -28.6768  -11.9695   21.3547 H   0  0  0  0  0  0
  -28.4613  -13.6112   21.8712 H   0  0  0  0  0  0
  -25.2766   -9.5682   22.4739 H   0  0  0  0  0  0
  -23.9996   -7.4640   22.7478 H   0  0  0  0  0  0
  -21.0828   -8.8772   19.8963 H   0  0  0  0  0  0
  -22.3691  -10.9662   19.6157 H   0  0  0  0  0  0
  -21.2011   -7.6139   23.9705 H   0  0  0  0  0  0
  -21.1485   -6.0520   25.9073 H   0  0  0  0  0  0
  -22.0593   -2.7598   23.2847 H   0  0  0  0  0  0
  -22.4116  -11.9924   22.4797 H   0  0  0  0  0  0
  -21.1116  -13.1277   22.2582 H   0  0  0  0  0  0
  -24.6573  -15.8414   20.5088 H   0  0  0  0  0  0
  -26.2786  -15.6297   20.0820 H   0  0  0  0  0  0
  -26.7128  -32.5547   23.1184 H   0  0  0  0  0  0
  -25.0058  -33.9789   25.0490 H   0  0  0  0  0  0
  -22.6911  -31.3146   21.4181 H   0  0  0  0  0  0
  -23.3738  -35.9663   23.3313 H   0  0  0  0  0  0
  -24.3578  -36.8913   22.2053 H   0  0  0  0  0  0
  -23.7242  -37.6530   23.6637 H   0  0  0  0  0  0
  -26.0474  -31.6015   20.5992 H   0  0  0  0  0  0
  -26.8207  -30.8845   21.9842 H   0  0  0  0  0  0
  -28.0925  -29.0832   21.1809 H   0  0  0  0  0  0
  -26.0151  -26.0093   18.9525 H   0  0  0  0  0  0
  -23.9694  -27.3273   19.0077 H   0  0  0  0  0  0
  -23.7179  -30.6146   19.4076 H   0  0  0  0  0  0
  -22.7320  -29.2597   19.8686 H   0  0  0  0  0  0
  -25.1278  -36.1987   25.0835 H   0  0  0  0  0  0
  -20.9984  -28.3235   24.1431 H   0  0  0  0  0  0
  -20.5681  -26.2280   23.3598 H   0  0  0  0  0  0
  -21.6639  -26.7455   22.1206 H   0  0  0  0  0  0
  -19.6892  -25.6311   21.1237 H   0  0  0  0  0  0
  -19.6671  -27.3216   20.6758 H   0  0  0  0  0  0
  -17.4195  -26.6698   21.4036 H   0  0  0  0  0  0
  -18.0318  -26.0062   22.9019 H   0  0  0  0  0  0
  -19.7924  -30.7280   24.2280 H   0  0  0  0  0  0
  -17.5004  -31.6269   24.5181 H   0  0  0  0  0  0
  -15.5346  -30.3003   23.7638 H   0  0  0  0  0  0
  -15.8673  -28.0845   22.7038 H   0  0  0  0  0  0
  -24.5911  -30.7056   25.7827 H   0  0  0  0  0  0
  -24.8928  -32.2864   26.4944 H   0  0  0  0  0  0
  -25.8092  -30.8877   27.0237 H   0  0  0  0  0  0
  -26.2845  -29.6818   24.1154 H   0  0  0  0  0  0
  -27.4067  -29.7284   25.4560 H   0  0  0  0  0  0
  -27.8680  -30.4376   23.9257 H   0  0  0  0  0  0
  -27.2682  -33.3611   26.2097 H   0  0  0  0  0  0
  -28.3842  -32.6890   25.0305 H   0  0  0  0  0  0
  -28.0737  -31.8425   26.5377 H   0  0  0  0  0  0
  -28.2617  -38.0099   24.7507 H   0  0  0  0  0  0
  -28.1056  -36.2629   24.6300 H   0  0  0  0  0  0
  -27.2301  -37.1485   25.8874 H   0  0  0  0  0  0
  -20.9287  -29.8776   21.6961 H   0  0  0  0  0  0
  -26.0180  -38.2881   24.1390 H   0  0  0  0  0  0
  -31.9974  -20.3423   21.9265 H   0  0  0  0  0  0
  -28.7561  -17.6969   20.8632 H   0  0  0  0  0  0
  -33.6986  -18.8372   23.6700 H   0  0  0  0  0  0
  -34.3217  -19.0108   22.0270 H   0  0  0  0  0  0
  -34.2261  -17.4130   22.7735 H   0  0  0  0  0  0
  -30.1367  -21.7235   25.0257 H   0  0  0  0  0  0
  -31.3326  -21.6827   23.7462 H   0  0  0  0  0  0
  -30.2550  -20.3055   24.0031 H   0  0  0  0  0  0
  -27.6429  -21.8913   24.4583 H   0  0  0  0  0  0
  -27.7337  -20.5178   23.3728 H   0  0  0  0  0  0
  -27.1106  -22.0647   22.7983 H   0  0  0  0  0  0
  -31.4293  -24.1433   20.8928 H   0  0  0  0  0  0
  -30.9184  -25.7463   20.3960 H   0  0  0  0  0  0
  -30.8325  -24.4082   19.2553 H   0  0  0  0  0  0
  -28.2965  -20.1103   21.1792 H   0  0  0  0  0  0
  -29.4023  -20.4034   19.8887 H   0  0  0  0  0  0
  -29.0805  -22.6061   19.5777 H   0  0  0  0  0  0
  -27.8330  -22.7381   20.7587 H   0  0  0  0  0  0
  -27.2507  -24.9263   20.3938 H   0  0  0  0  0  0
  -28.2347  -24.9863   18.9410 H   0  0  0  0  0  0
  -29.3587  -23.0867   23.2450 H   0  0  0  0  0  0
  -29.1790  -24.6720   21.8172 H   0  0  0  0  0  0
  -30.6969  -22.0077   21.3880 H   0  0  0  0  0  0
  -29.1424  -15.2856   21.4966 H   0  0  0  0  0  0
  1 25  1  0  0  0
  1 30  2  0  0  0
  1 87  1  0  0  0
  2  3  1  0  0  0
  2 25  1  0  0  0
  2 88  1  0  0  0
  2 89  1  0  0  0
  3  4  1  0  0  0
  3 90  1  0  0  0
  3 91  1  0  0  0
  4  5  1  0  0  0
  4 92  1  0  0  0
  4 93  1  0  0  0
  5  6  1  0  0  0
  5 26  1  0  0  0
  5 94  1  0  0  0
  6 25  1  0  0  0
  6 95  1  0  0  0
  6 96  1  0  0  0
  7  8  2  0  0  0
  7 26  1  0  0  0
  7 29  1  0  0  0
  8  9  1  0  0  0
  8 22  1  0  0  0
  9 10  1  0  0  0
  9 27  2  0  0  0
 10 11  2  0  0  0
 10 15  1  0  0  0
 11 12  1  0  0  0
 11 97  1  0  0  0
 12 13  2  0  0  0
 12 98  1  0  0  0
 13 14  1  0  0  0
 13 31  1  0  0  0
 14 15  2  0  0  0
 14 99  1  0  0  0
 15100  1  0  0  0
 16 17  2  0  0  0
 16 21  1  0  0  0
 16 31  1  0  0  0
 17 18  1  0  0  0
 17101  1  0  0  0
 18 19  2  0  0  0
 18102  1  0  0  0
 19 20  1  0  0  0
 19 24  1  0  0  0
 20 21  2  0  0  0
 20103  1  0  0  0
 21 23  1  0  0  0
 22 28  1  0  0  0
 22 32  2  0  0  0
 26 27  1  0  0  0
 28104  1  0  0  0
 28105  1  0  0  0
 29106  1  0  0  0
 29107  1  0  0  0
 33 34  1  0  0  0
 33 66  1  0  0  0
 33 70  2  0  0  0
 34 36  1  0  0  0
 34 59  1  0  0  0
 34108  1  0  0  0
 35 44  2  0  0  0
 35 45  1  0  0  0
 35 68  1  0  0  0
 36 56  1  0  0  0
 36109  1  0  0  0
 37 39  1  0  0  0
 37 47  1  0  0  0
 37 66  1  0  0  0
 37110  1  0  0  0
 38 43  2  0  0  0
 38 46  1  0  0  0
 38 47  1  0  0  0
 39 64  1  0  0  0
 39 67  2  0  0  0
 40 52  1  0  0  0
 40 53  2  0  0  0
 40 58  1  0  0  0
 41111  1  0  0  0
 41112  1  0  0  0
 41113  1  0  0  0
 41 48  1  0  0  0
 42 43  1  0  0  0
 42 66  1  0  0  0
 42114  1  0  0  0
 42115  1  0  0  0
 43 44  1  0  0  0
 44116  1  0  0  0
 45 46  2  0  0  0
 45117  1  0  0  0
 46118  1  0  0  0
 47119  1  0  0  0
 47120  1  0  0  0
 48 56  1  0  0  0
 48 65  1  0  0  0
 48121  1  0  0  0
 49 50  1  0  0  0
 49 53  1  0  0  0
 49 64  1  0  0  0
 49122  1  0  0  0
 50 51  1  0  0  0
 50123  1  0  0  0
 50124  1  0  0  0
 51 52  1  0  0  0
 51125  1  0  0  0
 51126  1  0  0  0
 52127  1  0  0  0
 52128  1  0  0  0
 53 54  1  0  0  0
 54 55  2  0  0  0
 54129  1  0  0  0
 55 57  1  0  0  0
 55130  1  0  0  0
 56 69  2  0  0  0
 57 58  2  0  0  0
 57131  1  0  0  0
 58132  1  0  0  0
 59 60  1  0  0  0
 59 61  1  0  0  0
 59 62  1  0  0  0
 60133  1  0  0  0
 60134  1  0  0  0
 60135  1  0  0  0
 61136  1  0  0  0
 61137  1  0  0  0
 61138  1  0  0  0
 62139  1  0  0  0
 62140  1  0  0  0
 62141  1  0  0  0
 63 65  1  0  0  0
 63142  1  0  0  0
 63143  1  0  0  0
 63144  1  0  0  0
 64145  1  0  0  0
 65146  1  0  0  0
 68 82  1  0  0  0
 71 73  2  0  0  0
 71 74  1  0  0  0
 71147  1  0  0  0
 72 73  1  0  0  0
 72 75  2  0  0  0
 72148  1  0  0  0
 73 80  1  0  0  0
 74 76  1  0  0  0
 74 86  2  0  0  0
 75 86  1  0  0  0
 75 87  1  0  0  0
 76149  1  0  0  0
 76150  1  0  0  0
 76151  1  0  0  0
 77152  1  0  0  0
 77153  1  0  0  0
 77154  1  0  0  0
 77 83  1  0  0  0
 78 83  1  0  0  0
 78155  1  0  0  0
 78156  1  0  0  0
 78157  1  0  0  0
 79158  1  0  0  0
 79159  1  0  0  0
 79160  1  0  0  0
 79 84  1  0  0  0
 80161  1  0  0  0
 80162  1  0  0  0
 80 85  1  0  0  0
 81 84  1  0  0  0
 81 85  1  0  0  0
 81163  1  0  0  0
 81164  1  0  0  0
 82 84  1  0  0  0
 82165  1  0  0  0
 82166  1  0  0  0
 83 85  1  0  0  0
 83167  1  0  0  0
 84168  1  0  0  0
 85169  1  0  0  0
 87170  1  0  0  0
M  ISO  4   1 100  68 101  82 101  87 100
M  END
> <chiral flag>
0

> <version>
0

> <s_m_source_file>
/data/baiqing/PycharmProjects/Reinvent-master-3.2/result/LINK_invent/BTK/process_docking_weight1_custom_sum_contain_oxygen_bond_distance_aromatic_linkinvent_7_9_3/rearranged_h_0110.sdf

> <i_m_source_file_index>
73

> <r_mmod_Potential_Energy-OPLS-2005>
-139.4619140625

> <r_mmod_Stretch_Energy-OPLS-2005>
43.015193939209

> <r_mmod_Bend_Energy-OPLS-2005>
115.128608703613

> <r_mmod_Torsional_Energy-OPLS-2005>
229.944869995117

> <r_mmod_Improper_Torsional_Energy-OPLS-2005>
3.19470500946045

> <r_mmod_Van_der_Waal_Energy-OPLS-2005>
162.831008911133

> <r_mmod_Electrostatic_Energy-OPLS-2005>
-489.363647460938

> <r_mmod_Solvation_Energy-OPLS-2005>
-218.301071166992

> <b_mmod_Minimization_Converged-OPLS-2005>
0

> <r_mmod_RMS_Derivative-OPLS-2005>
1.37800049781799

$$$$
74
                    3D
 Structure written by MMmdl.
171179  0  0  1  0            999 V2000
  -30.7054  -14.4277   20.6172 C   0  0  0  0  0  0
  -30.4317  -12.2993   19.3937 C   0  0  0  0  0  0
  -29.4881  -12.5269   18.1939 C   0  0  0  0  0  0
  -28.0082  -12.3973   18.6076 C   0  0  0  0  0  0
  -27.6706  -13.2017   19.8916 C   0  0  2  0  0  0
  -28.7152  -12.9167   20.9936 C   0  0  0  0  0  0
  -25.2662  -13.8177   20.5769 C   0  0  0  0  0  0
  -24.1891  -13.0452   20.9221 C   0  0  0  0  0  0
  -24.6426  -11.6903   20.8769 C   0  0  0  0  0  0
  -23.9081  -10.4290   21.0436 C   0  0  0  0  0  0
  -24.3616   -9.4186   21.9209 C   0  0  0  0  0  0
  -23.6292   -8.2225   22.0752 C   0  0  0  0  0  0
  -22.4278   -8.0278   21.3547 C   0  0  0  0  0  0
  -21.9929   -9.0246   20.4637 C   0  0  0  0  0  0
  -22.7260  -10.2133   20.3069 C   0  0  0  0  0  0
  -21.6838   -6.0734   22.5292 C   0  0  0  0  0  0
  -21.3999   -6.5628   23.8227 C   0  0  0  0  0  0
  -21.3664   -5.6786   24.9185 C   0  0  0  0  0  0
  -21.6039   -4.3052   24.7235 C   0  0  0  0  0  0
  -21.8828   -3.8147   23.4358 C   0  0  0  0  0  0
  -21.9200   -4.6967   22.3410 C   0  0  0  0  0  0
  -22.7905  -13.5248   21.1860 C   0  0  0  0  0  0
  -22.1676   -4.2148   21.0984 F   0  0  0  0  0  0
  -21.5632   -3.4533   25.7749 F   0  0  0  0  0  0
  -30.0526  -13.2427   20.4571 N   0  0  0  0  0  0
  -26.3090  -12.9325   20.3475 N   0  0  0  0  0  0
  -25.9346  -11.6480   20.5813 N   0  0  0  0  0  0
  -22.0516  -12.8232   22.0379 N   0  0  0  0  0  0
  -25.4453  -15.1904   20.4272 N   0  0  0  0  0  0
  -31.7862  -14.6780   20.0685 O   0  0  0  0  0  0
  -21.6639   -6.8877   21.4246 O   0  0  0  0  0  0
  -22.3590  -14.5558   20.6725 O   0  0  0  0  0  0
  -24.6147  -31.8704   23.2115 C   0  0  0  0  0  0
  -25.9058  -32.4842   23.8394 C   0  0  1  0  0  0
  -27.2564  -27.4784   20.0708 C   0  0  0  0  0  0
  -25.5951  -33.8648   24.2333 N   0  0  0  0  0  0
  -23.4003  -30.4912   21.5556 C   0  0  2  0  0  0
  -24.8511  -28.9611   20.1206 C   0  0  0  0  0  0
  -22.7412  -29.4642   22.5050 C   0  0  0  0  0  0
  -18.0260  -28.1353   22.8480 C   0  0  0  0  0  0
  -24.1507  -36.7304   23.2623 C   0  0  0  0  0  0
  -25.9269  -30.8462   21.3627 C   0  0  0  0  0  0
  -26.0096  -29.4844   20.7064 C   0  0  0  0  0  0
  -27.2166  -28.7504   20.6862 C   0  0  0  0  0  0
  -26.0745  -26.9511   19.5120 C   0  0  0  0  0  0
  -24.8740  -27.6854   19.5277 C   0  0  0  0  0  0
  -23.6076  -29.8213   20.1707 C   0  0  0  0  0  0
  -25.4139  -36.3133   24.0328 C   0  0  1  0  0  0
  -20.5851  -28.3610   23.1353 C   0  0  2  0  0  0
  -20.6759  -26.9358   22.5428 C   0  0  0  0  0  0
  -19.5738  -26.6355   21.5227 C   0  0  0  0  0  0
  -18.1897  -26.7899   22.1612 C   0  0  0  0  0  0
  -19.1508  -28.8814   23.2894 C   0  0  0  0  0  0
  -18.9439  -30.1436   23.8886 C   0  0  0  0  0  0
  -17.6445  -30.6564   24.0558 C   0  0  0  0  0  0
  -25.9063  -34.9495   23.5127 C   0  0  0  0  0  0
  -16.5341  -29.9060   23.6321 C   0  0  0  0  0  0
  -16.7255  -28.6482   23.0322 C   0  0  0  0  0  0
  -26.4483  -31.6581   25.0709 C   0  0  0  0  0  0
  -25.3742  -31.3673   26.1449 C   0  0  0  0  0  0
  -27.0281  -30.3025   24.6020 C   0  0  0  0  0  0
  -27.6053  -32.4266   25.7497 C   0  0  0  0  0  0
  -27.5602  -37.1825   24.8464 C   0  0  0  0  0  0
  -21.4148  -29.2974   22.3778 N   0  0  0  0  0  0
  -26.4324  -37.3826   23.9403 N   0  0  0  0  0  0
  -24.6649  -31.0828   22.1011 N   0  0  0  0  0  0
  -23.4185  -28.8215   23.3107 O   0  0  0  0  0  0
  -28.3709  -26.6736   19.9933 O   0  0  0  0  0  0
  -26.5610  -34.8939   22.4678 O   0  0  0  0  0  0
  -23.5357  -32.1450   23.7542 O   0  0  0  0  0  0
  -30.3173  -18.7625   20.2966 C   0  0  0  0  0  0
  -28.4410  -18.6160   21.8173 C   0  0  0  0  0  0
  -28.7961  -17.2521   22.0254 C   0  0  0  0  0  0
  -29.2568  -19.4073   20.9675 C   0  0  0  0  0  0
  -29.8616  -16.6893   21.2712 C   0  0  0  0  0  0
  -28.0338  -16.3969   23.0446 C   0  0  0  0  0  0
  -26.1635  -19.7196   21.4315 C   0  0  0  0  0  0
  -27.5445  -20.3224   23.5034 C   0  0  0  0  0  0
  -29.7038  -22.9532   21.2150 C   0  0  0  0  0  0
  -30.3964  -24.2500   20.7358 C   0  0  0  0  0  0
  -30.4534  -26.7482   21.2387 C   0  0  0  0  0  0
  -29.9532  -21.6792   20.3816 C   0  0  0  0  0  0
  -29.6831  -27.2378   19.9964 C   0  0  0  0  0  0
  -27.1927  -19.2369   22.4725 C   0  0  0  0  0  0
  -30.5932  -17.4500   20.4264 N   0  0  0  0  0  0
  -30.0662  -15.2924   21.4241 N   0  0  0  0  0  0
  -30.0863  -25.3696   21.6638 N   0  3  0  0  0  0
  -28.9617  -20.7461   20.8129 O   0  0  0  0  0  0
  -31.4692  -12.4188   19.0777 H   0  0  0  0  0  0
  -30.3501  -11.2740   19.7600 H   0  0  0  0  0  0
  -29.7129  -11.8196   17.3964 H   0  0  0  0  0  0
  -29.6635  -13.5208   17.7760 H   0  0  0  0  0  0
  -27.7949  -11.3383   18.7651 H   0  0  0  0  0  0
  -27.3638  -12.7132   17.7889 H   0  0  0  0  0  0
  -27.7311  -14.2616   19.6437 H   0  0  0  0  0  0
  -28.6857  -11.8612   21.2653 H   0  0  0  0  0  0
  -28.4668  -13.4472   21.9123 H   0  0  0  0  0  0
  -25.2743   -9.5636   22.4809 H   0  0  0  0  0  0
  -23.9983   -7.4578   22.7447 H   0  0  0  0  0  0
  -21.0876   -8.8768   19.8894 H   0  0  0  0  0  0
  -22.3736  -10.9681   19.6189 H   0  0  0  0  0  0
  -21.1969   -7.6134   23.9734 H   0  0  0  0  0  0
  -21.1485   -6.0509   25.9092 H   0  0  0  0  0  0
  -22.0609   -2.7611   23.2864 H   0  0  0  0  0  0
  -22.4135  -11.9890   22.4781 H   0  0  0  0  0  0
  -21.1120  -13.1272   22.2545 H   0  0  0  0  0  0
  -24.7002  -15.8597   20.5824 H   0  0  0  0  0  0
  -26.3220  -15.6280   20.1728 H   0  0  0  0  0  0
  -26.7153  -32.5584   23.1175 H   0  0  0  0  0  0
  -25.0183  -33.9826   25.0536 H   0  0  0  0  0  0
  -22.6869  -31.3083   21.4161 H   0  0  0  0  0  0
  -23.3814  -35.9596   23.3292 H   0  0  0  0  0  0
  -24.3593  -36.8919   22.2035 H   0  0  0  0  0  0
  -23.7193  -37.6480   23.6638 H   0  0  0  0  0  0
  -26.0399  -31.6168   20.5995 H   0  0  0  0  0  0
  -26.8143  -30.8974   21.9801 H   0  0  0  0  0  0
  -28.0975  -29.1672   21.1539 H   0  0  0  0  0  0
  -26.0892  -25.9748   19.0480 H   0  0  0  0  0  0
  -23.9778  -27.2691   19.0843 H   0  0  0  0  0  0
  -23.7119  -30.5969   19.4101 H   0  0  0  0  0  0
  -22.7322  -29.2399   19.8774 H   0  0  0  0  0  0
  -25.1304  -36.2023   25.0823 H   0  0  0  0  0  0
  -20.9921  -28.3170   24.1481 H   0  0  0  0  0  0
  -20.5713  -26.2214   23.3607 H   0  0  0  0  0  0
  -21.6614  -26.7422   22.1198 H   0  0  0  0  0  0
  -19.6901  -25.6273   21.1240 H   0  0  0  0  0  0
  -19.6692  -27.3200   20.6801 H   0  0  0  0  0  0
  -17.4189  -26.6694   21.3974 H   0  0  0  0  0  0
  -18.0228  -26.0027   22.8991 H   0  0  0  0  0  0
  -19.7932  -30.7246   24.2215 H   0  0  0  0  0  0
  -17.5003  -31.6243   24.5160 H   0  0  0  0  0  0
  -15.5338  -30.2963   23.7631 H   0  0  0  0  0  0
  -15.8659  -28.0838   22.6982 H   0  0  0  0  0  0
  -24.5914  -30.7019   25.7772 H   0  0  0  0  0  0
  -24.8943  -32.2838   26.4906 H   0  0  0  0  0  0
  -25.8106  -30.8822   27.0185 H   0  0  0  0  0  0
  -26.2788  -29.6837   24.1054 H   0  0  0  0  0  0
  -27.4034  -29.7199   25.4433 H   0  0  0  0  0  0
  -27.8649  -30.4328   23.9140 H   0  0  0  0  0  0
  -27.2639  -33.3511   26.2147 H   0  0  0  0  0  0
  -28.3851  -32.6900   25.0342 H   0  0  0  0  0  0
  -28.0719  -31.8330   26.5355 H   0  0  0  0  0  0
  -28.2621  -38.0129   24.7559 H   0  0  0  0  0  0
  -28.1097  -36.2665   24.6248 H   0  0  0  0  0  0
  -27.2305  -37.1407   25.8858 H   0  0  0  0  0  0
  -20.9337  -29.8681   21.6968 H   0  0  0  0  0  0
  -26.0227  -38.2901   24.1460 H   0  0  0  0  0  0
  -30.9428  -19.2991   19.5997 H   0  0  0  0  0  0
  -27.8491  -16.9549   23.9629 H   0  0  0  0  0  0
  -28.5673  -15.5055   23.3736 H   0  0  0  0  0  0
  -27.0754  -16.0807   22.6333 H   0  0  0  0  0  0
  -25.8599  -18.9001   20.7788 H   0  0  0  0  0  0
  -26.5458  -20.5173   20.7955 H   0  0  0  0  0  0
  -25.2625  -20.0987   21.9127 H   0  0  0  0  0  0
  -28.2037  -19.9227   24.2732 H   0  0  0  0  0  0
  -26.6487  -20.6950   24.0007 H   0  0  0  0  0  0
  -28.0451  -21.1785   23.0549 H   0  0  0  0  0  0
  -28.6271  -23.1327   21.2478 H   0  0  0  0  0  0
  -30.0015  -22.7431   22.2422 H   0  0  0  0  0  0
  -30.0482  -24.4885   19.7303 H   0  0  0  0  0  0
  -31.4772  -24.1190   20.6744 H   0  0  0  0  0  0
  -30.2168  -27.4133   22.0705 H   0  0  0  0  0  0
  -31.5298  -26.8348   21.0771 H   0  0  0  0  0  0
  -30.9741  -21.3339   20.5488 H   0  0  0  0  0  0
  -29.8214  -21.8630   19.3137 H   0  0  0  0  0  0
  -30.1872  -26.8807   19.0974 H   0  0  0  0  0  0
  -29.7108  -28.3246   19.9204 H   0  0  0  0  0  0
  -26.6517  -18.4753   23.0296 H   0  0  0  0  0  0
  -29.3496  -14.8499   21.9766 H   0  0  0  0  0  0
  -30.5445  -25.1845   22.5413 H   0  0  0  0  0  0
  -29.0925  -25.3660   21.8334 H   0  0  0  0  0  0
  1 25  1  0  0  0
  1 30  2  0  0  0
  1 86  1  0  0  0
  2  3  1  0  0  0
  2 25  1  0  0  0
  2 89  1  0  0  0
  2 90  1  0  0  0
  3  4  1  0  0  0
  3 91  1  0  0  0
  3 92  1  0  0  0
  4  5  1  0  0  0
  4 93  1  0  0  0
  4 94  1  0  0  0
  5  6  1  0  0  0
  5 26  1  0  0  0
  5 95  1  0  0  0
  6 25  1  0  0  0
  6 96  1  0  0  0
  6 97  1  0  0  0
  7  8  2  0  0  0
  7 26  1  0  0  0
  7 29  1  0  0  0
  8  9  1  0  0  0
  8 22  1  0  0  0
  9 10  1  0  0  0
  9 27  2  0  0  0
 10 11  2  0  0  0
 10 15  1  0  0  0
 11 12  1  0  0  0
 11 98  1  0  0  0
 12 13  2  0  0  0
 12 99  1  0  0  0
 13 14  1  0  0  0
 13 31  1  0  0  0
 14 15  2  0  0  0
 14100  1  0  0  0
 15101  1  0  0  0
 16 17  2  0  0  0
 16 21  1  0  0  0
 16 31  1  0  0  0
 17 18  1  0  0  0
 17102  1  0  0  0
 18 19  2  0  0  0
 18103  1  0  0  0
 19 20  1  0  0  0
 19 24  1  0  0  0
 20 21  2  0  0  0
 20104  1  0  0  0
 21 23  1  0  0  0
 22 28  1  0  0  0
 22 32  2  0  0  0
 26 27  1  0  0  0
 28105  1  0  0  0
 28106  1  0  0  0
 29107  1  0  0  0
 29108  1  0  0  0
 33 34  1  0  0  0
 33 66  1  0  0  0
 33 70  2  0  0  0
 34 36  1  0  0  0
 34 59  1  0  0  0
 34109  1  0  0  0
 35 44  2  0  0  0
 35 45  1  0  0  0
 35 68  1  0  0  0
 36 56  1  0  0  0
 36110  1  0  0  0
 37 39  1  0  0  0
 37 47  1  0  0  0
 37 66  1  0  0  0
 37111  1  0  0  0
 38 43  2  0  0  0
 38 46  1  0  0  0
 38 47  1  0  0  0
 39 64  1  0  0  0
 39 67  2  0  0  0
 40 52  1  0  0  0
 40 53  2  0  0  0
 40 58  1  0  0  0
 41112  1  0  0  0
 41113  1  0  0  0
 41114  1  0  0  0
 41 48  1  0  0  0
 42 43  1  0  0  0
 42 66  1  0  0  0
 42115  1  0  0  0
 42116  1  0  0  0
 43 44  1  0  0  0
 44117  1  0  0  0
 45 46  2  0  0  0
 45118  1  0  0  0
 46119  1  0  0  0
 47120  1  0  0  0
 47121  1  0  0  0
 48 56  1  0  0  0
 48 65  1  0  0  0
 48122  1  0  0  0
 49 50  1  0  0  0
 49 53  1  0  0  0
 49 64  1  0  0  0
 49123  1  0  0  0
 50 51  1  0  0  0
 50124  1  0  0  0
 50125  1  0  0  0
 51 52  1  0  0  0
 51126  1  0  0  0
 51127  1  0  0  0
 52128  1  0  0  0
 52129  1  0  0  0
 53 54  1  0  0  0
 54 55  2  0  0  0
 54130  1  0  0  0
 55 57  1  0  0  0
 55131  1  0  0  0
 56 69  2  0  0  0
 57 58  2  0  0  0
 57132  1  0  0  0
 58133  1  0  0  0
 59 60  1  0  0  0
 59 61  1  0  0  0
 59 62  1  0  0  0
 60134  1  0  0  0
 60135  1  0  0  0
 60136  1  0  0  0
 61137  1  0  0  0
 61138  1  0  0  0
 61139  1  0  0  0
 62140  1  0  0  0
 62141  1  0  0  0
 62142  1  0  0  0
 63 65  1  0  0  0
 63143  1  0  0  0
 63144  1  0  0  0
 63145  1  0  0  0
 64146  1  0  0  0
 65147  1  0  0  0
 68 83  1  0  0  0
 71 74  2  0  0  0
 71 85  1  0  0  0
 71148  1  0  0  0
 72 73  2  0  0  0
 72 74  1  0  0  0
 72 84  1  0  0  0
 73 75  1  0  0  0
 73 76  1  0  0  0
 74 88  1  0  0  0
 75 85  2  0  0  0
 75 86  1  0  0  0
 76149  1  0  0  0
 76150  1  0  0  0
 76151  1  0  0  0
 77152  1  0  0  0
 77153  1  0  0  0
 77154  1  0  0  0
 77 84  1  0  0  0
 78 84  1  0  0  0
 78155  1  0  0  0
 78156  1  0  0  0
 78157  1  0  0  0
 79 80  1  0  0  0
 79 82  1  0  0  0
 79158  1  0  0  0
 79159  1  0  0  0
 80 87  1  0  0  0
 80160  1  0  0  0
 80161  1  0  0  0
 81 83  1  0  0  0
 81 87  1  0  0  0
 81162  1  0  0  0
 81163  1  0  0  0
 82 88  1  0  0  0
 82164  1  0  0  0
 82165  1  0  0  0
 83166  1  0  0  0
 83167  1  0  0  0
 84168  1  0  0  0
 86169  1  0  0  0
 87170  1  0  0  0
 87171  1  0  0  0
M  CHG  1  87   1
M  ISO  4   1 100  68 101  83 101  86 100
M  END
> <chiral flag>
0

> <version>
0

> <s_m_source_file>
/data/baiqing/PycharmProjects/Reinvent-master-3.2/result/LINK_invent/BTK/process_docking_weight1_custom_sum_contain_oxygen_bond_distance_aromatic_linkinvent_7_9_3/rearranged_h_0110.sdf

> <i_m_source_file_index>
74

> <r_mmod_Potential_Energy-OPLS-2005>
-296.242858886719

> <r_mmod_Stretch_Energy-OPLS-2005>
39.2296409606934

> <r_mmod_Bend_Energy-OPLS-2005>
128.965118408203

> <r_mmod_Torsional_Energy-OPLS-2005>
235.301544189453

> <r_mmod_Improper_Torsional_Energy-OPLS-2005>
3.78493928909302

> <r_mmod_Van_der_Waal_Energy-OPLS-2005>
160.711883544922

> <r_mmod_Electrostatic_Energy-OPLS-2005>
-414.569854736328

> <r_mmod_Solvation_Energy-OPLS-2005>
-457.711669921875

> <b_mmod_Minimization_Converged-OPLS-2005>
0

> <r_mmod_RMS_Derivative-OPLS-2005>
3.55156874656677

$$$$
75
                    3D
 Structure written by MMmdl.
169177  0  0  1  0            999 V2000
  -30.5959  -14.7368   20.4814 C   0  0  0  0  0  0
  -30.4397  -12.4453   19.4790 C   0  0  0  0  0  0
  -29.5214  -12.5332   18.2400 C   0  0  0  0  0  0
  -28.0413  -12.3664   18.6359 C   0  0  0  0  0  0
  -27.6544  -13.2297   19.8656 C   0  0  2  0  0  0
  -28.6985  -13.1258   21.0008 C   0  0  0  0  0  0
  -25.2605  -13.8158   20.5723 C   0  0  0  0  0  0
  -24.1874  -13.0428   20.9200 C   0  0  0  0  0  0
  -24.6431  -11.6892   20.8706 C   0  0  0  0  0  0
  -23.9069  -10.4285   21.0332 C   0  0  0  0  0  0
  -24.3626   -9.4233   21.9132 C   0  0  0  0  0  0
  -23.6322   -8.2260   22.0711 C   0  0  0  0  0  0
  -22.4313   -8.0261   21.3495 C   0  0  0  0  0  0
  -21.9928   -9.0223   20.4601 C   0  0  0  0  0  0
  -22.7223  -10.2122   20.2997 C   0  0  0  0  0  0
  -21.6851   -6.0732   22.5261 C   0  0  0  0  0  0
  -21.4021   -6.5646   23.8194 C   0  0  0  0  0  0
  -21.3677   -5.6798   24.9159 C   0  0  0  0  0  0
  -21.6037   -4.3053   24.7198 C   0  0  0  0  0  0
  -21.8830   -3.8147   23.4328 C   0  0  0  0  0  0
  -21.9223   -4.6972   22.3386 C   0  0  0  0  0  0
  -22.7914  -13.5235   21.1852 C   0  0  0  0  0  0
  -22.1683   -4.2151   21.0956 F   0  0  0  0  0  0
  -21.5616   -3.4543   25.7715 F   0  0  0  0  0  0
  -30.0075  -13.4905   20.4416 N   0  0  0  0  0  0
  -26.3022  -12.9347   20.3348 N   0  0  0  0  0  0
  -25.9374  -11.6493   20.5748 N   0  0  0  0  0  0
  -22.0576  -12.8181   22.0387 N   0  0  0  0  0  0
  -25.4331  -15.1877   20.4100 N   0  0  0  0  0  0
  -31.7474  -14.8852   20.0599 O   0  0  0  0  0  0
  -21.6655   -6.8871   21.4214 O   0  0  0  0  0  0
  -22.3612  -14.5554   20.6710 O   0  0  0  0  0  0
  -24.6334  -31.8500   23.1979 C   0  0  0  0  0  0
  -25.9139  -32.4753   23.8325 C   0  0  1  0  0  0
  -27.2314  -27.2566   20.1410 C   0  0  0  0  0  0
  -25.5958  -33.8569   24.2265 N   0  0  0  0  0  0
  -23.4311  -30.4727   21.5396 C   0  0  2  0  0  0
  -24.8777  -28.9129   20.1118 C   0  0  0  0  0  0
  -22.7492  -29.4589   22.4884 C   0  0  0  0  0  0
  -18.0295  -28.1375   22.8465 C   0  0  0  0  0  0
  -24.1468  -36.7278   23.2655 C   0  0  0  0  0  0
  -25.9774  -30.7612   21.3762 C   0  0  0  0  0  0
  -26.0438  -29.3841   20.7212 C   0  0  0  0  0  0
  -27.2192  -28.5674   20.7213 C   0  0  0  0  0  0
  -26.0362  -26.8442   19.5071 C   0  0  0  0  0  0
  -24.8802  -27.6515   19.4927 C   0  0  0  0  0  0
  -23.6468  -29.7994   20.1578 C   0  0  0  0  0  0
  -25.4097  -36.3088   24.0343 C   0  0  1  0  0  0
  -20.5896  -28.3664   23.1232 C   0  0  2  0  0  0
  -20.6750  -26.9376   22.5370 C   0  0  0  0  0  0
  -19.5752  -26.6356   21.5155 C   0  0  0  0  0  0
  -18.1938  -26.7934   22.1565 C   0  0  0  0  0  0
  -19.1548  -28.8838   23.2863 C   0  0  0  0  0  0
  -18.9492  -30.1436   23.8875 C   0  0  0  0  0  0
  -17.6478  -30.6581   24.0548 C   0  0  0  0  0  0
  -25.9037  -34.9443   23.5088 C   0  0  0  0  0  0
  -16.5373  -29.9065   23.6349 C   0  0  0  0  0  0
  -16.7280  -28.6477   23.0361 C   0  0  0  0  0  0
  -26.4492  -31.6646   25.0756 C   0  0  0  0  0  0
  -25.3700  -31.3799   26.1467 C   0  0  0  0  0  0
  -27.0413  -30.3097   24.6300 C   0  0  0  0  0  0
  -27.6052  -32.4397   25.7502 C   0  0  0  0  0  0
  -27.5573  -37.1786   24.8475 C   0  0  0  0  0  0
  -21.4184  -29.3044   22.3643 N   0  0  0  0  0  0
  -26.4275  -37.3787   23.9427 N   0  0  0  0  0  0
  -24.7002  -31.0469   22.0946 N   0  0  0  0  0  0
  -23.4171  -28.8106   23.2979 O   0  0  0  0  0  0
  -28.3672  -26.4197   20.2231 O   0  0  0  0  0  0
  -26.5591  -34.8914   22.4648 O   0  0  0  0  0  0
  -23.5479  -32.1259   23.7292 O   0  0  0  0  0  0
  -28.6074  -21.6896   19.2262 C   0  0  0  0  0  0
  -29.2587  -21.1960   21.2511 C   0  0  0  0  0  0
  -28.7902  -22.2837   20.5100 C   0  0  0  0  0  0
  -28.9726  -20.3571   19.2282 C   0  0  0  0  0  0
  -28.9874  -19.4487   18.0392 C   0  0  0  0  0  0
  -25.8504  -23.2214   23.8771 C   0  0  0  0  0  0
  -31.2326  -18.7567   21.5895 C   0  0  0  0  0  0
  -28.8742  -18.3178   22.3370 C   0  0  0  0  0  0
  -27.1556  -23.0391   23.0892 C   0  0  0  0  0  0
  -27.2104  -23.9044   21.8167 C   0  0  0  0  0  0
  -29.7375  -17.2397   20.1954 C   0  0  0  0  0  0
  -28.4120  -24.9620   19.8442 C   0  0  0  0  0  0
  -28.4958  -23.7996   20.9606 C   0  0  2  0  0  0
  -29.7748  -18.5896   21.1114 C   0  0  0  0  0  0
  -29.3373  -19.9681   20.5271 N   0  0  0  0  0  0
  -29.7938  -15.8213   20.7917 N   0  0  0  0  0  0
  -31.4839  -12.5620   19.1864 H   0  0  0  0  0  0
  -30.3682  -11.4537   19.9273 H   0  0  0  0  0  0
  -29.7947  -11.7798   17.5010 H   0  0  0  0  0  0
  -29.6646  -13.4989   17.7547 H   0  0  0  0  0  0
  -27.8725  -11.3116   18.8513 H   0  0  0  0  0  0
  -27.3970  -12.6082   17.7887 H   0  0  0  0  0  0
  -27.6593  -14.2609   19.5143 H   0  0  0  0  0  0
  -28.7367  -12.1102   21.4002 H   0  0  0  0  0  0
  -28.4369  -13.7685   21.8412 H   0  0  0  0  0  0
  -25.2754   -9.5759   22.4722 H   0  0  0  0  0  0
  -24.0036   -7.4671   22.7443 H   0  0  0  0  0  0
  -21.0845   -8.8727   19.8924 H   0  0  0  0  0  0
  -22.3633  -10.9659   19.6120 H   0  0  0  0  0  0
  -21.1992   -7.6154   23.9707 H   0  0  0  0  0  0
  -21.1489   -6.0512   25.9064 H   0  0  0  0  0  0
  -22.0600   -2.7606   23.2818 H   0  0  0  0  0  0
  -22.4238  -11.9866   22.4763 H   0  0  0  0  0  0
  -21.1162  -13.1122   22.2532 H   0  0  0  0  0  0
  -24.6611  -15.8415   20.4944 H   0  0  0  0  0  0
  -26.2696  -15.6132   20.0328 H   0  0  0  0  0  0
  -26.7205  -32.5350   23.1067 H   0  0  0  0  0  0
  -25.0247  -33.9709   25.0507 H   0  0  0  0  0  0
  -22.7340  -31.2994   21.3876 H   0  0  0  0  0  0
  -23.3754  -35.9587   23.3297 H   0  0  0  0  0  0
  -24.3603  -36.8901   22.2082 H   0  0  0  0  0  0
  -23.7128  -37.6444   23.6660 H   0  0  0  0  0  0
  -26.1256  -31.5174   20.6034 H   0  0  0  0  0  0
  -26.8552  -30.8092   22.0094 H   0  0  0  0  0  0
  -28.1139  -28.9239   21.2097 H   0  0  0  0  0  0
  -25.9572  -25.8795   19.0326 H   0  0  0  0  0  0
  -23.9851  -27.2831   19.0097 H   0  0  0  0  0  0
  -23.7659  -30.5679   19.3928 H   0  0  0  0  0  0
  -22.7630  -29.2298   19.8599 H   0  0  0  0  0  0
  -25.1265  -36.1965   25.0833 H   0  0  0  0  0  0
  -21.0025  -28.3210   24.1327 H   0  0  0  0  0  0
  -20.5589  -26.2265   23.3559 H   0  0  0  0  0  0
  -21.6614  -26.7348   22.1194 H   0  0  0  0  0  0
  -19.6905  -25.6255   21.1208 H   0  0  0  0  0  0
  -19.6728  -27.3110   20.6651 H   0  0  0  0  0  0
  -17.4186  -26.6682   21.3987 H   0  0  0  0  0  0
  -18.0372  -26.0085   22.8974 H   0  0  0  0  0  0
  -19.7972  -30.7261   24.2227 H   0  0  0  0  0  0
  -17.5047  -31.6280   24.5121 H   0  0  0  0  0  0
  -15.5369  -30.2952   23.7719 H   0  0  0  0  0  0
  -15.8674  -28.0787   22.7114 H   0  0  0  0  0  0
  -24.5858  -30.7196   25.7748 H   0  0  0  0  0  0
  -24.8934  -32.3000   26.4884 H   0  0  0  0  0  0
  -25.8005  -30.8944   27.0247 H   0  0  0  0  0  0
  -26.3078  -29.6802   24.1282 H   0  0  0  0  0  0
  -27.4075  -29.7408   25.4858 H   0  0  0  0  0  0
  -27.8917  -30.4424   23.9611 H   0  0  0  0  0  0
  -27.2705  -33.3724   26.2047 H   0  0  0  0  0  0
  -28.3880  -32.6931   25.0341 H   0  0  0  0  0  0
  -28.0724  -31.8561   26.5447 H   0  0  0  0  0  0
  -28.2575  -38.0105   24.7569 H   0  0  0  0  0  0
  -28.1090  -36.2643   24.6231 H   0  0  0  0  0  0
  -27.2337  -37.1324   25.8894 H   0  0  0  0  0  0
  -20.9334  -29.8834   21.6919 H   0  0  0  0  0  0
  -26.0174  -38.2872   24.1442 H   0  0  0  0  0  0
  -28.2385  -22.2070   18.3499 H   0  0  0  0  0  0
  -29.5378  -21.1923   22.2964 H   0  0  0  0  0  0
  -28.2423  -18.6591   18.1185 H   0  0  0  0  0  0
  -29.9749  -19.0104   17.8922 H   0  0  0  0  0  0
  -28.7503  -20.0077   17.1315 H   0  0  0  0  0  0
  -25.8149  -22.5403   24.7282 H   0  0  0  0  0  0
  -24.9813  -23.0145   23.2505 H   0  0  0  0  0  0
  -25.7434  -24.2326   24.2697 H   0  0  0  0  0  0
  -31.6357  -17.8424   22.0301 H   0  0  0  0  0  0
  -31.3316  -19.5476   22.3340 H   0  0  0  0  0  0
  -31.8760  -19.0274   20.7521 H   0  0  0  0  0  0
  -29.1412  -17.3916   22.8479 H   0  0  0  0  0  0
  -27.8246  -18.2448   22.0467 H   0  0  0  0  0  0
  -28.9498  -19.1110   23.0803 H   0  0  0  0  0  0
  -27.2466  -21.9857   22.8246 H   0  0  0  0  0  0
  -27.9996  -23.2767   23.7390 H   0  0  0  0  0  0
  -27.0776  -24.9475   22.1104 H   0  0  0  0  0  0
  -26.3598  -23.6639   21.1782 H   0  0  0  0  0  0
  -30.4742  -17.3132   19.3946 H   0  0  0  0  0  0
  -28.7708  -17.2405   19.6949 H   0  0  0  0  0  0
  -27.6395  -24.6961   19.1278 H   0  0  0  0  0  0
  -29.3351  -24.8698   19.2717 H   0  0  0  0  0  0
  -29.3327  -24.0679   21.6072 H   0  0  0  0  0  0
  -28.9344  -15.5465   21.2416 H   0  0  0  0  0  0
  1 25  1  0  0  0
  1 30  2  0  0  0
  1 86  1  0  0  0
  2  3  1  0  0  0
  2 25  1  0  0  0
  2 87  1  0  0  0
  2 88  1  0  0  0
  3  4  1  0  0  0
  3 89  1  0  0  0
  3 90  1  0  0  0
  4  5  1  0  0  0
  4 91  1  0  0  0
  4 92  1  0  0  0
  5  6  1  0  0  0
  5 26  1  0  0  0
  5 93  1  0  0  0
  6 25  1  0  0  0
  6 94  1  0  0  0
  6 95  1  0  0  0
  7  8  2  0  0  0
  7 26  1  0  0  0
  7 29  1  0  0  0
  8  9  1  0  0  0
  8 22  1  0  0  0
  9 10  1  0  0  0
  9 27  2  0  0  0
 10 11  2  0  0  0
 10 15  1  0  0  0
 11 12  1  0  0  0
 11 96  1  0  0  0
 12 13  2  0  0  0
 12 97  1  0  0  0
 13 14  1  0  0  0
 13 31  1  0  0  0
 14 15  2  0  0  0
 14 98  1  0  0  0
 15 99  1  0  0  0
 16 17  2  0  0  0
 16 21  1  0  0  0
 16 31  1  0  0  0
 17 18  1  0  0  0
 17100  1  0  0  0
 18 19  2  0  0  0
 18101  1  0  0  0
 19 20  1  0  0  0
 19 24  1  0  0  0
 20 21  2  0  0  0
 20102  1  0  0  0
 21 23  1  0  0  0
 22 28  1  0  0  0
 22 32  2  0  0  0
 26 27  1  0  0  0
 28103  1  0  0  0
 28104  1  0  0  0
 29105  1  0  0  0
 29106  1  0  0  0
 33 34  1  0  0  0
 33 66  1  0  0  0
 33 70  2  0  0  0
 34 36  1  0  0  0
 34 59  1  0  0  0
 34107  1  0  0  0
 35 44  2  0  0  0
 35 45  1  0  0  0
 35 68  1  0  0  0
 36 56  1  0  0  0
 36108  1  0  0  0
 37 39  1  0  0  0
 37 47  1  0  0  0
 37 66  1  0  0  0
 37109  1  0  0  0
 38 43  2  0  0  0
 38 46  1  0  0  0
 38 47  1  0  0  0
 39 64  1  0  0  0
 39 67  2  0  0  0
 40 52  1  0  0  0
 40 53  2  0  0  0
 40 58  1  0  0  0
 41110  1  0  0  0
 41111  1  0  0  0
 41112  1  0  0  0
 41 48  1  0  0  0
 42 43  1  0  0  0
 42 66  1  0  0  0
 42113  1  0  0  0
 42114  1  0  0  0
 43 44  1  0  0  0
 44115  1  0  0  0
 45 46  2  0  0  0
 45116  1  0  0  0
 46117  1  0  0  0
 47118  1  0  0  0
 47119  1  0  0  0
 48 56  1  0  0  0
 48 65  1  0  0  0
 48120  1  0  0  0
 49 50  1  0  0  0
 49 53  1  0  0  0
 49 64  1  0  0  0
 49121  1  0  0  0
 50 51  1  0  0  0
 50122  1  0  0  0
 50123  1  0  0  0
 51 52  1  0  0  0
 51124  1  0  0  0
 51125  1  0  0  0
 52126  1  0  0  0
 52127  1  0  0  0
 53 54  1  0  0  0
 54 55  2  0  0  0
 54128  1  0  0  0
 55 57  1  0  0  0
 55129  1  0  0  0
 56 69  2  0  0  0
 57 58  2  0  0  0
 57130  1  0  0  0
 58131  1  0  0  0
 59 60  1  0  0  0
 59 61  1  0  0  0
 59 62  1  0  0  0
 60132  1  0  0  0
 60133  1  0  0  0
 60134  1  0  0  0
 61135  1  0  0  0
 61136  1  0  0  0
 61137  1  0  0  0
 62138  1  0  0  0
 62139  1  0  0  0
 62140  1  0  0  0
 63 65  1  0  0  0
 63141  1  0  0  0
 63142  1  0  0  0
 63143  1  0  0  0
 64144  1  0  0  0
 65145  1  0  0  0
 68 82  1  0  0  0
 71 73  1  0  0  0
 71 74  2  0  0  0
 71146  1  0  0  0
 72 73  2  0  0  0
 72 85  1  0  0  0
 72147  1  0  0  0
 73 83  1  0  0  0
 74 75  1  0  0  0
 74 85  1  0  0  0
 75148  1  0  0  0
 75149  1  0  0  0
 75150  1  0  0  0
 76 79  1  0  0  0
 76151  1  0  0  0
 76152  1  0  0  0
 76153  1  0  0  0
 77154  1  0  0  0
 77155  1  0  0  0
 77156  1  0  0  0
 77 84  1  0  0  0
 78 84  1  0  0  0
 78157  1  0  0  0
 78158  1  0  0  0
 78159  1  0  0  0
 79 80  1  0  0  0
 79160  1  0  0  0
 79161  1  0  0  0
 80162  1  0  0  0
 80163  1  0  0  0
 80 83  1  0  0  0
 81 84  1  0  0  0
 81 86  1  0  0  0
 81164  1  0  0  0
 81165  1  0  0  0
 82 83  1  0  0  0
 82166  1  0  0  0
 82167  1  0  0  0
 83168  1  0  0  0
 84 85  1  0  0  0
 86169  1  0  0  0
M  ISO  4   1 100  68 101  82 101  86 100
M  END
> <chiral flag>
0

> <version>
0

> <s_m_source_file>
/data/baiqing/PycharmProjects/Reinvent-master-3.2/result/LINK_invent/BTK/process_docking_weight1_custom_sum_contain_oxygen_bond_distance_aromatic_linkinvent_7_9_3/rearranged_h_0110.sdf

> <i_m_source_file_index>
75

> <r_mmod_Potential_Energy-OPLS-2005>
160.649917602539

> <r_mmod_Stretch_Energy-OPLS-2005>
132.721466064453

> <r_mmod_Bend_Energy-OPLS-2005>
201.089874267578

> <r_mmod_Torsional_Energy-OPLS-2005>
261.904388427734

> <r_mmod_Improper_Torsional_Energy-OPLS-2005>
6.60071802139282

> <r_mmod_Van_der_Waal_Energy-OPLS-2005>
108.630737304688

> <r_mmod_Electrostatic_Energy-OPLS-2005>
-430.926635742188

> <r_mmod_Solvation_Energy-OPLS-2005>
-199.098617553711

> <b_mmod_Minimization_Converged-OPLS-2005>
0

> <r_mmod_RMS_Derivative-OPLS-2005>
5.30329513549805

$$$$
76
                    3D
 Structure written by MMmdl.
159167  0  0  1  0            999 V2000
  -30.4493  -15.2515   20.3748 C   0  0  0  0  0  0
  -30.4402  -12.8084   19.5122 C   0  0  0  0  0  0
  -29.5339  -12.5850   18.2762 C   0  0  0  0  0  0
  -28.0844  -12.3028   18.7077 C   0  0  0  0  0  0
  -27.6115  -13.2746   19.8175 C   0  0  2  0  0  0
  -28.6460  -13.4535   20.9498 C   0  0  0  0  0  0
  -25.2404  -13.8247   20.5743 C   0  0  0  0  0  0
  -24.1742  -13.0430   20.9255 C   0  0  0  0  0  0
  -24.6395  -11.6935   20.8755 C   0  0  0  0  0  0
  -23.9087  -10.4291   21.0406 C   0  0  0  0  0  0
  -24.3624   -9.4213   21.9193 C   0  0  0  0  0  0
  -23.6295   -8.2246   22.0763 C   0  0  0  0  0  0
  -22.4283   -8.0280   21.3535 C   0  0  0  0  0  0
  -21.9919   -9.0258   20.4647 C   0  0  0  0  0  0
  -22.7253  -10.2135   20.3062 C   0  0  0  0  0  0
  -21.6864   -6.0738   22.5277 C   0  0  0  0  0  0
  -21.4009   -6.5640   23.8214 C   0  0  0  0  0  0
  -21.3659   -5.6792   24.9173 C   0  0  0  0  0  0
  -21.6044   -4.3058   24.7226 C   0  0  0  0  0  0
  -21.8815   -3.8146   23.4349 C   0  0  0  0  0  0
  -21.9187   -4.6962   22.3405 C   0  0  0  0  0  0
  -22.7763  -13.5201   21.1894 C   0  0  0  0  0  0
  -22.1663   -4.2141   21.0987 F   0  0  0  0  0  0
  -21.5622   -3.4546   25.7743 F   0  0  0  0  0  0
  -29.8806  -13.9499   20.3196 N   0  0  0  0  0  0
  -26.2820  -12.9510   20.3201 N   0  0  0  0  0  0
  -25.9337  -11.6617   20.5701 N   0  0  0  0  0  0
  -22.0409  -12.8180   22.0443 N   0  0  0  0  0  0
  -25.4044  -15.1971   20.4172 N   0  0  0  0  0  0
  -31.6734  -15.2567   20.1879 O   0  0  0  0  0  0
  -21.6647   -6.8877   21.4241 O   0  0  0  0  0  0
  -22.3454  -14.5505   20.6750 O   0  0  0  0  0  0
  -24.6630  -31.8216   23.1762 C   0  0  0  0  0  0
  -25.9310  -32.4570   23.8210 C   0  0  1  0  0  0
  -27.1927  -26.9012   20.1930 C   0  0  0  0  0  0
  -25.5995  -33.8393   24.2105 N   0  0  0  0  0  0
  -23.4766  -30.4413   21.5223 C   0  0  2  0  0  0
  -24.9263  -28.8312   20.1175 C   0  0  0  0  0  0
  -22.7680  -29.4395   22.4719 C   0  0  0  0  0  0
  -18.0321  -28.1372   22.8426 C   0  0  0  0  0  0
  -24.1495  -36.7239   23.2643 C   0  0  0  0  0  0
  -26.0492  -30.6201   21.4113 C   0  0  0  0  0  0
  -26.1080  -29.2049   20.7668 C   0  0  0  0  0  0
  -27.2329  -28.2601   20.7884 C   0  0  0  0  0  0
  -25.9986  -26.7148   19.4576 C   0  0  0  0  0  0
  -24.8968  -27.6027   19.4442 C   0  0  0  0  0  0
  -23.7264  -29.7755   20.1434 C   0  0  0  0  0  0
  -25.4115  -36.2954   24.0308 C   0  0  1  0  0  0
  -20.5943  -28.3718   23.1181 C   0  0  2  0  0  0
  -20.6809  -26.9401   22.5386 C   0  0  0  0  0  0
  -19.5793  -26.6329   21.5194 C   0  0  0  0  0  0
  -18.1961  -26.7889   22.1582 C   0  0  0  0  0  0
  -19.1580  -28.8855   23.2791 C   0  0  0  0  0  0
  -18.9507  -30.1430   23.8848 C   0  0  0  0  0  0
  -17.6510  -30.6566   24.0544 C   0  0  0  0  0  0
  -25.9091  -34.9338   23.5009 C   0  0  0  0  0  0
  -16.5386  -29.9076   23.6303 C   0  0  0  0  0  0
  -16.7309  -28.6485   23.0327 C   0  0  0  0  0  0
  -26.4558  -31.6517   25.0736 C   0  0  0  0  0  0
  -25.3686  -31.3797   26.1407 C   0  0  0  0  0  0
  -27.0482  -30.2907   24.6431 C   0  0  0  0  0  0
  -27.6047  -32.4323   25.7542 C   0  0  0  0  0  0
  -27.5558  -37.1785   24.8466 C   0  0  0  0  0  0
  -21.4334  -29.3044   22.3567 N   0  0  0  0  0  0
  -26.4256  -37.3687   23.9422 N   0  0  0  0  0  0
  -24.7517  -30.9878   22.0903 N   0  0  0  0  0  0
  -23.4259  -28.7883   23.2878 O   0  0  0  0  0  0
  -28.1977  -25.7861   20.2035 O   0  0  0  0  0  0
  -26.5675  -34.8875   22.4596 O   0  0  0  0  0  0
  -23.5695  -32.1192   23.6829 O   0  0  0  0  0  0
  -28.2166  -19.8468   22.6446 C   0  0  0  0  0  0
  -27.7555  -19.1132   21.3634 C   0  0  0  0  0  0
  -28.9686  -21.1112   22.1889 C   0  0  0  0  0  0
  -28.7878  -19.5119   20.2934 C   0  0  2  0  0  0
  -28.2390  -19.3729   18.8660 C   0  0  0  0  0  0
  -26.5366  -23.7574   20.3284 C   0  0  0  0  0  0
  -29.9448  -18.1599   20.5021 C   0  0  0  0  0  0
  -28.9044  -22.6434   20.0336 C   0  0  0  0  0  0
  -28.0143  -24.1467   20.4947 C   0  0  1  0  0  0
  -29.6785  -16.5116   20.4410 N   0  0  0  0  0  0
  -28.8164  -21.1255   20.7298 N   0  3  2  0  0  0
  -31.4563  -13.0212   19.1760 H   0  0  0  0  0  0
  -30.5102  -11.9024   20.1155 H   0  0  0  0  0  0
  -29.9151  -11.7639   17.6689 H   0  0  0  0  0  0
  -29.5589  -13.4731   17.6415 H   0  0  0  0  0  0
  -28.0464  -11.2783   19.0788 H   0  0  0  0  0  0
  -27.4134  -12.3452   17.8496 H   0  0  0  0  0  0
  -27.5228  -14.2409   19.3201 H   0  0  0  0  0  0
  -28.8122  -12.5264   21.5001 H   0  0  0  0  0  0
  -28.2855  -14.1880   21.6733 H   0  0  0  0  0  0
  -25.2761   -9.5691   22.4787 H   0  0  0  0  0  0
  -23.9999   -7.4637   22.7488 H   0  0  0  0  0  0
  -21.0852   -8.8777   19.8952 H   0  0  0  0  0  0
  -22.3708  -10.9675   19.6178 H   0  0  0  0  0  0
  -21.2014   -7.6150   23.9709 H   0  0  0  0  0  0
  -21.1481   -6.0532   25.9072 H   0  0  0  0  0  0
  -22.0593   -2.7607   23.2862 H   0  0  0  0  0  0
  -22.4024  -11.9844   22.4826 H   0  0  0  0  0  0
  -21.1019  -13.1193   22.2632 H   0  0  0  0  0  0
  -24.6273  -15.8432   20.5057 H   0  0  0  0  0  0
  -26.2423  -15.6333   20.0578 H   0  0  0  0  0  0
  -26.7362  -32.5111   23.0910 H   0  0  0  0  0  0
  -25.0198  -33.9492   25.0291 H   0  0  0  0  0  0
  -22.7893  -31.2735   21.3549 H   0  0  0  0  0  0
  -23.3735  -35.9589   23.3233 H   0  0  0  0  0  0
  -24.3584  -36.8943   22.2072 H   0  0  0  0  0  0
  -23.7285  -37.6426   23.6736 H   0  0  0  0  0  0
  -26.2250  -31.3457   20.6156 H   0  0  0  0  0  0
  -26.9172  -30.6861   22.0543 H   0  0  0  0  0  0
  -28.1219  -28.5415   21.3332 H   0  0  0  0  0  0
  -25.8821  -25.8217   18.8695 H   0  0  0  0  0  0
  -24.0080  -27.3226   18.8959 H   0  0  0  0  0  0
  -23.9285  -30.5592   19.4131 H   0  0  0  0  0  0
  -22.8327  -29.2656   19.7812 H   0  0  0  0  0  0
  -25.1291  -36.1733   25.0793 H   0  0  0  0  0  0
  -21.0009  -28.3290   24.1313 H   0  0  0  0  0  0
  -20.5661  -26.2336   23.3618 H   0  0  0  0  0  0
  -21.6680  -26.7360   22.1203 H   0  0  0  0  0  0
  -19.6980  -25.6223   21.1274 H   0  0  0  0  0  0
  -19.6746  -27.3096   20.6683 H   0  0  0  0  0  0
  -17.4236  -26.6609   21.3981 H   0  0  0  0  0  0
  -18.0350  -26.0041   22.8987 H   0  0  0  0  0  0
  -19.7999  -30.7226   24.2218 H   0  0  0  0  0  0
  -17.5086  -31.6239   24.5159 H   0  0  0  0  0  0
  -15.5407  -30.3001   23.7626 H   0  0  0  0  0  0
  -15.8690  -28.0816   22.7072 H   0  0  0  0  0  0
  -24.5900  -30.7070   25.7780 H   0  0  0  0  0  0
  -24.8842  -32.3016   26.4651 H   0  0  0  0  0  0
  -25.7933  -30.9141   27.0314 H   0  0  0  0  0  0
  -26.3175  -29.6566   24.1393 H   0  0  0  0  0  0
  -27.4046  -29.7251   25.5051 H   0  0  0  0  0  0
  -27.9074  -30.4161   23.9834 H   0  0  0  0  0  0
  -27.2634  -33.3717   26.1904 H   0  0  0  0  0  0
  -28.3977  -32.6702   25.0440 H   0  0  0  0  0  0
  -28.0551  -31.8572   26.5641 H   0  0  0  0  0  0
  -28.2501  -38.0139   24.7473 H   0  0  0  0  0  0
  -28.1117  -36.2653   24.6286 H   0  0  0  0  0  0
  -27.2305  -37.1419   25.8879 H   0  0  0  0  0  0
  -20.9554  -29.8964   21.6926 H   0  0  0  0  0  0
  -26.0084  -38.2731   24.1446 H   0  0  0  0  0  0
  -28.8851  -19.2188   23.2365 H   0  0  0  0  0  0
  -27.3696  -20.0942   23.2866 H   0  0  0  0  0  0
  -26.7570  -19.4555   21.0836 H   0  0  0  0  0  0
  -27.6733  -18.0377   21.5263 H   0  0  0  0  0  0
  -30.0303  -21.0485   22.4312 H   0  0  0  0  0  0
  -28.5595  -22.0096   22.6512 H   0  0  0  0  0  0
  -27.9310  -18.3463   18.6575 H   0  0  0  0  0  0
  -29.0127  -19.6284   18.1405 H   0  0  0  0  0  0
  -27.3828  -20.0207   18.6793 H   0  0  0  0  0  0
  -25.8847  -24.3940   20.9247 H   0  0  0  0  0  0
  -26.3567  -22.7348   20.6581 H   0  0  0  0  0  0
  -26.2308  -23.7918   19.2831 H   0  0  0  0  0  0
  -30.4256  -18.3165   21.4685 H   0  0  0  0  0  0
  -30.7447  -18.3405   19.7837 H   0  0  0  0  0  0
  -29.9596  -22.9077   20.1074 H   0  0  0  0  0  0
  -28.7361  -22.4939   18.9677 H   0  0  0  0  0  0
  -28.1763  -24.1464   21.5727 H   0  0  0  0  0  0
  -28.6916  -16.3067   20.4965 H   0  0  0  0  0  0
  -27.8093  -21.1611   20.6955 H   0  0  0  0  0  0
  1 25  1  0  0  0
  1 30  2  0  0  0
  1 80  1  0  0  0
  2  3  1  0  0  0
  2 25  1  0  0  0
  2 82  1  0  0  0
  2 83  1  0  0  0
  3  4  1  0  0  0
  3 84  1  0  0  0
  3 85  1  0  0  0
  4  5  1  0  0  0
  4 86  1  0  0  0
  4 87  1  0  0  0
  5  6  1  0  0  0
  5 26  1  0  0  0
  5 88  1  0  0  0
  6 25  1  0  0  0
  6 89  1  0  0  0
  6 90  1  0  0  0
  7  8  2  0  0  0
  7 26  1  0  0  0
  7 29  1  0  0  0
  8  9  1  0  0  0
  8 22  1  0  0  0
  9 10  1  0  0  0
  9 27  2  0  0  0
 10 11  2  0  0  0
 10 15  1  0  0  0
 11 12  1  0  0  0
 11 91  1  0  0  0
 12 13  2  0  0  0
 12 92  1  0  0  0
 13 14  1  0  0  0
 13 31  1  0  0  0
 14 15  2  0  0  0
 14 93  1  0  0  0
 15 94  1  0  0  0
 16 17  2  0  0  0
 16 21  1  0  0  0
 16 31  1  0  0  0
 17 18  1  0  0  0
 17 95  1  0  0  0
 18 19  2  0  0  0
 18 96  1  0  0  0
 19 20  1  0  0  0
 19 24  1  0  0  0
 20 21  2  0  0  0
 20 97  1  0  0  0
 21 23  1  0  0  0
 22 28  1  0  0  0
 22 32  2  0  0  0
 26 27  1  0  0  0
 28 98  1  0  0  0
 28 99  1  0  0  0
 29100  1  0  0  0
 29101  1  0  0  0
 33 34  1  0  0  0
 33 66  1  0  0  0
 33 70  2  0  0  0
 34 36  1  0  0  0
 34 59  1  0  0  0
 34102  1  0  0  0
 35 44  2  0  0  0
 35 45  1  0  0  0
 35 68  1  0  0  0
 36 56  1  0  0  0
 36103  1  0  0  0
 37 39  1  0  0  0
 37 47  1  0  0  0
 37 66  1  0  0  0
 37104  1  0  0  0
 38 43  2  0  0  0
 38 46  1  0  0  0
 38 47  1  0  0  0
 39 64  1  0  0  0
 39 67  2  0  0  0
 40 52  1  0  0  0
 40 53  2  0  0  0
 40 58  1  0  0  0
 41105  1  0  0  0
 41106  1  0  0  0
 41107  1  0  0  0
 41 48  1  0  0  0
 42 43  1  0  0  0
 42 66  1  0  0  0
 42108  1  0  0  0
 42109  1  0  0  0
 43 44  1  0  0  0
 44110  1  0  0  0
 45 46  2  0  0  0
 45111  1  0  0  0
 46112  1  0  0  0
 47113  1  0  0  0
 47114  1  0  0  0
 48 56  1  0  0  0
 48 65  1  0  0  0
 48115  1  0  0  0
 49 50  1  0  0  0
 49 53  1  0  0  0
 49 64  1  0  0  0
 49116  1  0  0  0
 50 51  1  0  0  0
 50117  1  0  0  0
 50118  1  0  0  0
 51 52  1  0  0  0
 51119  1  0  0  0
 51120  1  0  0  0
 52121  1  0  0  0
 52122  1  0  0  0
 53 54  1  0  0  0
 54 55  2  0  0  0
 54123  1  0  0  0
 55 57  1  0  0  0
 55124  1  0  0  0
 56 69  2  0  0  0
 57 58  2  0  0  0
 57125  1  0  0  0
 58126  1  0  0  0
 59 60  1  0  0  0
 59 61  1  0  0  0
 59 62  1  0  0  0
 60127  1  0  0  0
 60128  1  0  0  0
 60129  1  0  0  0
 61130  1  0  0  0
 61131  1  0  0  0
 61132  1  0  0  0
 62133  1  0  0  0
 62134  1  0  0  0
 62135  1  0  0  0
 63 65  1  0  0  0
 63136  1  0  0  0
 63137  1  0  0  0
 63138  1  0  0  0
 64139  1  0  0  0
 65140  1  0  0  0
 68 79  1  0  0  0
 71 72  1  0  0  0
 71 73  1  0  0  0
 71141  1  0  0  0
 71142  1  0  0  0
 72 74  1  0  0  0
 72143  1  0  0  0
 72144  1  0  0  0
 73 81  1  0  0  0
 73145  1  0  0  0
 73146  1  0  0  0
 74 75  1  0  0  0
 74 77  1  0  0  0
 74 81  1  0  0  0
 75147  1  0  0  0
 75148  1  0  0  0
 75149  1  0  0  0
 76150  1  0  0  0
 76151  1  0  0  0
 76152  1  0  0  0
 76 79  1  0  0  0
 77 80  1  0  0  0
 77153  1  0  0  0
 77154  1  0  0  0
 78 79  1  0  0  0
 78155  1  0  0  0
 78156  1  0  0  0
 78 81  1  0  0  0
 79157  1  0  0  0
 80158  1  0  0  0
 81159  1  0  0  0
M  CHG  1  81   1
M  ISO  4   1 100  68 101  79 101  80 100
M  END
> <chiral flag>
0

> <version>
0

> <s_m_source_file>
/data/baiqing/PycharmProjects/Reinvent-master-3.2/result/LINK_invent/BTK/process_docking_weight1_custom_sum_contain_oxygen_bond_distance_aromatic_linkinvent_7_9_3/rearranged_h_0110.sdf

> <i_m_source_file_index>
76

> <r_mmod_Potential_Energy-OPLS-2005>
1341.16064453125

> <r_mmod_Stretch_Energy-OPLS-2005>
609.33447265625

> <r_mmod_Bend_Energy-OPLS-2005>
570.287719726562

> <r_mmod_Torsional_Energy-OPLS-2005>
317.638488769531

> <r_mmod_Improper_Torsional_Energy-OPLS-2005>
3.98141479492188

> <r_mmod_Van_der_Waal_Energy-OPLS-2005>
104.452529907227

> <r_mmod_Electrostatic_Energy-OPLS-2005>
-287.761993408203

> <r_mmod_Solvation_Energy-OPLS-2005>
-441.158325195312

> <b_mmod_Minimization_Converged-OPLS-2005>
0

> <r_mmod_RMS_Derivative-OPLS-2005>
3.64744114875793

$$$$
77
                    3D
 Structure written by MMmdl.
169177  0  0  1  0            999 V2000
  -30.6098  -14.7261   20.4713 C   0  0  0  0  0  0
  -30.4338  -12.4432   19.4688 C   0  0  0  0  0  0
  -29.5079  -12.5004   18.2340 C   0  0  0  0  0  0
  -28.0357  -12.3213   18.6524 C   0  0  0  0  0  0
  -27.6423  -13.2258   19.8501 C   0  0  2  0  0  0
  -28.6866  -13.1509   20.9853 C   0  0  0  0  0  0
  -25.2522  -13.8184   20.5700 C   0  0  0  0  0  0
  -24.1808  -13.0435   20.9217 C   0  0  0  0  0  0
  -24.6389  -11.6910   20.8755 C   0  0  0  0  0  0
  -23.9063  -10.4290   21.0411 C   0  0  0  0  0  0
  -24.3615   -9.4208   21.9188 C   0  0  0  0  0  0
  -23.6295   -8.2238   22.0750 C   0  0  0  0  0  0
  -22.4274   -8.0277   21.3543 C   0  0  0  0  0  0
  -21.9913   -9.0251   20.4642 C   0  0  0  0  0  0
  -22.7238  -10.2133   20.3058 C   0  0  0  0  0  0
  -21.6855   -6.0738   22.5282 C   0  0  0  0  0  0
  -21.4013   -6.5642   23.8216 C   0  0  0  0  0  0
  -21.3658   -5.6796   24.9177 C   0  0  0  0  0  0
  -21.6044   -4.3059   24.7229 C   0  0  0  0  0  0
  -21.8814   -3.8149   23.4351 C   0  0  0  0  0  0
  -21.9192   -4.6965   22.3405 C   0  0  0  0  0  0
  -22.7835  -13.5227   21.1879 C   0  0  0  0  0  0
  -22.1663   -4.2150   21.0984 F   0  0  0  0  0  0
  -21.5627   -3.4539   25.7742 F   0  0  0  0  0  0
  -29.9894  -13.5002   20.4049 N   0  0  0  0  0  0
  -26.2937  -12.9378   20.3275 N   0  0  0  0  0  0
  -25.9315  -11.6527   20.5750 N   0  0  0  0  0  0
  -22.0476  -12.8210   22.0427 N   0  0  0  0  0  0
  -25.4212  -15.1908   20.4099 N   0  0  0  0  0  0
  -31.7972  -14.8387   20.1568 O   0  0  0  0  0  0
  -21.6639   -6.8876   21.4242 O   0  0  0  0  0  0
  -22.3528  -14.5539   20.6733 O   0  0  0  0  0  0
  -24.6298  -31.8573   23.1985 C   0  0  0  0  0  0
  -25.9137  -32.4764   23.8315 C   0  0  1  0  0  0
  -27.2180  -27.2759   20.1340 C   0  0  0  0  0  0
  -25.5932  -33.8564   24.2245 N   0  0  0  0  0  0
  -23.4249  -30.4794   21.5419 C   0  0  2  0  0  0
  -24.8721  -28.9255   20.1124 C   0  0  0  0  0  0
  -22.7487  -29.4620   22.4919 C   0  0  0  0  0  0
  -18.0275  -28.1396   22.8475 C   0  0  0  0  0  0
  -24.1484  -36.7301   23.2638 C   0  0  0  0  0  0
  -25.9687  -30.7752   21.3737 C   0  0  0  0  0  0
  -26.0428  -29.3975   20.7195 C   0  0  0  0  0  0
  -27.2214  -28.5867   20.7160 C   0  0  0  0  0  0
  -26.0275  -26.8649   19.4983 C   0  0  0  0  0  0
  -24.8694  -27.6671   19.4891 C   0  0  0  0  0  0
  -23.6421  -29.8116   20.1587 C   0  0  0  0  0  0
  -25.4110  -36.3078   24.0320 C   0  0  1  0  0  0
  -20.5883  -28.3712   23.1276 C   0  0  2  0  0  0
  -20.6784  -26.9434   22.5409 C   0  0  0  0  0  0
  -19.5764  -26.6392   21.5211 C   0  0  0  0  0  0
  -18.1938  -26.7936   22.1615 C   0  0  0  0  0  0
  -19.1530  -28.8866   23.2872 C   0  0  0  0  0  0
  -18.9454  -30.1459   23.8900 C   0  0  0  0  0  0
  -17.6451  -30.6602   24.0558 C   0  0  0  0  0  0
  -25.9055  -34.9447   23.5086 C   0  0  0  0  0  0
  -16.5345  -29.9103   23.6334 C   0  0  0  0  0  0
  -16.7264  -28.6519   23.0354 C   0  0  0  0  0  0
  -26.4496  -31.6586   25.0702 C   0  0  0  0  0  0
  -25.3706  -31.3732   26.1416 C   0  0  0  0  0  0
  -27.0356  -30.3010   24.6183 C   0  0  0  0  0  0
  -27.6050  -32.4328   25.7476 C   0  0  0  0  0  0
  -27.5586  -37.1796   24.8460 C   0  0  0  0  0  0
  -21.4193  -29.3060   22.3667 N   0  0  0  0  0  0
  -26.4292  -37.3772   23.9407 N   0  0  0  0  0  0
  -24.6936  -31.0546   22.0949 N   0  0  0  0  0  0
  -23.4195  -28.8161   23.3012 O   0  0  0  0  0  0
  -28.3232  -26.4021   20.1394 O   0  0  0  0  0  0
  -26.5633  -34.8931   22.4662 O   0  0  0  0  0  0
  -23.5457  -32.1379   23.7301 O   0  0  0  0  0  0
  -29.2603  -21.9700   21.7267 C   0  0  0  0  0  0
  -28.9298  -21.0158   19.7830 C   0  0  0  0  0  0
  -28.9477  -22.2863   20.3729 C   0  0  0  0  0  0
  -29.4590  -20.6135   21.9047 C   0  0  0  0  0  0
  -32.5361  -22.2133   24.8950 C   0  0  0  0  0  0
  -28.6105  -19.1892   23.8057 C   0  0  0  0  0  0
  -31.8367  -21.4270   23.7790 C   0  0  0  0  0  0
  -30.4992  -20.8102   24.2367 C   0  0  0  0  0  0
  -29.0837  -18.4448   20.4030 C   0  0  0  0  0  0
  -30.2142  -17.3284   20.7369 C   0  0  0  0  0  0
  -28.1488  -24.9802   20.5982 C   0  0  0  0  0  0
  -28.7556  -23.7482   19.7385 C   0  0  2  0  0  0
  -29.8227  -19.8997   23.1844 C   0  0  2  0  0  0
  -29.2157  -19.9560   20.6893 N   0  0  0  0  0  0
  -29.8282  -15.8460   20.6973 N   0  0  0  0  0  0
  -28.0003  -23.6224   18.4795 N   0  3  0  0  0  0
  -31.4743  -12.5699   19.1652 H   0  0  0  0  0  0
  -30.3804  -11.4633   19.9471 H   0  0  0  0  0  0
  -29.7871  -11.7297   17.5144 H   0  0  0  0  0  0
  -29.6331  -13.4568   17.7245 H   0  0  0  0  0  0
  -27.8999  -11.2739   18.9263 H   0  0  0  0  0  0
  -27.3737  -12.4993   17.8046 H   0  0  0  0  0  0
  -27.6398  -14.2462   19.4673 H   0  0  0  0  0  0
  -28.7175  -12.1506   21.4192 H   0  0  0  0  0  0
  -28.4238  -13.8277   21.7997 H   0  0  0  0  0  0
  -25.2751   -9.5686   22.4775 H   0  0  0  0  0  0
  -24.0001   -7.4628   22.7469 H   0  0  0  0  0  0
  -21.0845   -8.8767   19.8951 H   0  0  0  0  0  0
  -22.3689  -10.9674   19.6175 H   0  0  0  0  0  0
  -21.2006   -7.6149   23.9721 H   0  0  0  0  0  0
  -21.1488   -6.0524   25.9081 H   0  0  0  0  0  0
  -22.0596   -2.7610   23.2850 H   0  0  0  0  0  0
  -22.4084  -11.9858   22.4796 H   0  0  0  0  0  0
  -21.1095  -13.1234   22.2634 H   0  0  0  0  0  0
  -24.6468  -15.8386   20.5069 H   0  0  0  0  0  0
  -26.2586  -15.6282   20.0488 H   0  0  0  0  0  0
  -26.7205  -32.5413   23.1056 H   0  0  0  0  0  0
  -25.0045  -33.9688   25.0369 H   0  0  0  0  0  0
  -22.7194  -31.3006   21.3963 H   0  0  0  0  0  0
  -23.3746  -35.9637   23.3290 H   0  0  0  0  0  0
  -24.3573  -36.8945   22.2057 H   0  0  0  0  0  0
  -23.7244  -37.6498   23.6678 H   0  0  0  0  0  0
  -26.1014  -31.5338   20.6004 H   0  0  0  0  0  0
  -26.8484  -30.8275   22.0029 H   0  0  0  0  0  0
  -28.1211  -28.9459   21.1976 H   0  0  0  0  0  0
  -25.9798  -25.9050   19.0072 H   0  0  0  0  0  0
  -23.9741  -27.3034   19.0037 H   0  0  0  0  0  0
  -23.7629  -30.5868   19.4009 H   0  0  0  0  0  0
  -22.7605  -29.2429   19.8583 H   0  0  0  0  0  0
  -25.1287  -36.1920   25.0809 H   0  0  0  0  0  0
  -20.9946  -28.3302   24.1407 H   0  0  0  0  0  0
  -20.5707  -26.2314   23.3609 H   0  0  0  0  0  0
  -21.6654  -26.7490   22.1191 H   0  0  0  0  0  0
  -19.6938  -25.6300   21.1260 H   0  0  0  0  0  0
  -19.6725  -27.3183   20.6728 H   0  0  0  0  0  0
  -17.4213  -26.6667   21.4015 H   0  0  0  0  0  0
  -18.0344  -26.0080   22.9007 H   0  0  0  0  0  0
  -19.7926  -30.7263   24.2294 H   0  0  0  0  0  0
  -17.5019  -31.6286   24.5158 H   0  0  0  0  0  0
  -15.5350  -30.3011   23.7682 H   0  0  0  0  0  0
  -15.8649  -28.0853   22.7079 H   0  0  0  0  0  0
  -24.5885  -30.7086   25.7734 H   0  0  0  0  0  0
  -24.8889  -32.2900   26.4820 H   0  0  0  0  0  0
  -25.8006  -30.8916   27.0206 H   0  0  0  0  0  0
  -26.2950  -29.6727   24.1219 H   0  0  0  0  0  0
  -27.4067  -29.7300   25.4706 H   0  0  0  0  0  0
  -27.8805  -30.4297   23.9412 H   0  0  0  0  0  0
  -27.2668  -33.3638   26.2027 H   0  0  0  0  0  0
  -28.3866  -32.6861   25.0304 H   0  0  0  0  0  0
  -28.0700  -31.8460   26.5401 H   0  0  0  0  0  0
  -28.2579  -38.0116   24.7532 H   0  0  0  0  0  0
  -28.1106  -36.2646   24.6248 H   0  0  0  0  0  0
  -27.2311  -37.1398   25.8865 H   0  0  0  0  0  0
  -20.9385  -29.8780   21.6861 H   0  0  0  0  0  0
  -26.0174  -38.2851   24.1401 H   0  0  0  0  0  0
  -29.3633  -22.6958   22.5223 H   0  0  0  0  0  0
  -28.7147  -20.7491   18.7560 H   0  0  0  0  0  0
  -33.4486  -22.6839   24.5270 H   0  0  0  0  0  0
  -32.8142  -21.5608   25.7237 H   0  0  0  0  0  0
  -31.8942  -23.0020   25.2895 H   0  0  0  0  0  0
  -28.1730  -18.4589   23.1278 H   0  0  0  0  0  0
  -27.8311  -19.9056   24.0652 H   0  0  0  0  0  0
  -28.8879  -18.6534   24.7141 H   0  0  0  0  0  0
  -32.5024  -20.6392   23.4240 H   0  0  0  0  0  0
  -31.6789  -22.0917   22.9299 H   0  0  0  0  0  0
  -29.8139  -21.6017   24.5430 H   0  0  0  0  0  0
  -30.6875  -20.2220   25.1353 H   0  0  0  0  0  0
  -28.1634  -18.1305   20.8940 H   0  0  0  0  0  0
  -28.8573  -18.3530   19.3400 H   0  0  0  0  0  0
  -30.6062  -17.4791   21.7369 H   0  0  0  0  0  0
  -31.0623  -17.4878   20.0694 H   0  0  0  0  0  0
  -28.6374  -24.9525   21.5718 H   0  0  0  0  0  0
  -27.1014  -24.7756   20.8236 H   0  0  0  0  0  0
  -29.7653  -24.0565   19.4652 H   0  0  0  0  0  0
  -30.5700  -19.1466   22.9576 H   0  0  0  0  0  0
  -28.8606  -15.6453   20.9009 H   0  0  0  0  0  0
  -27.0669  -23.2916   18.6519 H   0  0  0  0  0  0
  -28.4618  -22.9751   17.8665 H   0  0  0  0  0  0
  -27.9522  -24.5109   18.0125 H   0  0  0  0  0  0
  1 25  1  0  0  0
  1 30  2  0  0  0
  1 85  1  0  0  0
  2  3  1  0  0  0
  2 25  1  0  0  0
  2 87  1  0  0  0
  2 88  1  0  0  0
  3  4  1  0  0  0
  3 89  1  0  0  0
  3 90  1  0  0  0
  4  5  1  0  0  0
  4 91  1  0  0  0
  4 92  1  0  0  0
  5  6  1  0  0  0
  5 26  1  0  0  0
  5 93  1  0  0  0
  6 25  1  0  0  0
  6 94  1  0  0  0
  6 95  1  0  0  0
  7  8  2  0  0  0
  7 26  1  0  0  0
  7 29  1  0  0  0
  8  9  1  0  0  0
  8 22  1  0  0  0
  9 10  1  0  0  0
  9 27  2  0  0  0
 10 11  2  0  0  0
 10 15  1  0  0  0
 11 12  1  0  0  0
 11 96  1  0  0  0
 12 13  2  0  0  0
 12 97  1  0  0  0
 13 14  1  0  0  0
 13 31  1  0  0  0
 14 15  2  0  0  0
 14 98  1  0  0  0
 15 99  1  0  0  0
 16 17  2  0  0  0
 16 21  1  0  0  0
 16 31  1  0  0  0
 17 18  1  0  0  0
 17100  1  0  0  0
 18 19  2  0  0  0
 18101  1  0  0  0
 19 20  1  0  0  0
 19 24  1  0  0  0
 20 21  2  0  0  0
 20102  1  0  0  0
 21 23  1  0  0  0
 22 28  1  0  0  0
 22 32  2  0  0  0
 26 27  1  0  0  0
 28103  1  0  0  0
 28104  1  0  0  0
 29105  1  0  0  0
 29106  1  0  0  0
 33 34  1  0  0  0
 33 66  1  0  0  0
 33 70  2  0  0  0
 34 36  1  0  0  0
 34 59  1  0  0  0
 34107  1  0  0  0
 35 44  2  0  0  0
 35 45  1  0  0  0
 35 68  1  0  0  0
 36 56  1  0  0  0
 36108  1  0  0  0
 37 39  1  0  0  0
 37 47  1  0  0  0
 37 66  1  0  0  0
 37109  1  0  0  0
 38 43  2  0  0  0
 38 46  1  0  0  0
 38 47  1  0  0  0
 39 64  1  0  0  0
 39 67  2  0  0  0
 40 52  1  0  0  0
 40 53  2  0  0  0
 40 58  1  0  0  0
 41110  1  0  0  0
 41111  1  0  0  0
 41112  1  0  0  0
 41 48  1  0  0  0
 42 43  1  0  0  0
 42 66  1  0  0  0
 42113  1  0  0  0
 42114  1  0  0  0
 43 44  1  0  0  0
 44115  1  0  0  0
 45 46  2  0  0  0
 45116  1  0  0  0
 46117  1  0  0  0
 47118  1  0  0  0
 47119  1  0  0  0
 48 56  1  0  0  0
 48 65  1  0  0  0
 48120  1  0  0  0
 49 50  1  0  0  0
 49 53  1  0  0  0
 49 64  1  0  0  0
 49121  1  0  0  0
 50 51  1  0  0  0
 50122  1  0  0  0
 50123  1  0  0  0
 51 52  1  0  0  0
 51124  1  0  0  0
 51125  1  0  0  0
 52126  1  0  0  0
 52127  1  0  0  0
 53 54  1  0  0  0
 54 55  2  0  0  0
 54128  1  0  0  0
 55 57  1  0  0  0
 55129  1  0  0  0
 56 69  2  0  0  0
 57 58  2  0  0  0
 57130  1  0  0  0
 58131  1  0  0  0
 59 60  1  0  0  0
 59 61  1  0  0  0
 59 62  1  0  0  0
 60132  1  0  0  0
 60133  1  0  0  0
 60134  1  0  0  0
 61135  1  0  0  0
 61136  1  0  0  0
 61137  1  0  0  0
 62138  1  0  0  0
 62139  1  0  0  0
 62140  1  0  0  0
 63 65  1  0  0  0
 63141  1  0  0  0
 63142  1  0  0  0
 63143  1  0  0  0
 64144  1  0  0  0
 65145  1  0  0  0
 68 81  1  0  0  0
 71 73  1  0  0  0
 71 74  2  0  0  0
 71146  1  0  0  0
 72 73  2  0  0  0
 72 84  1  0  0  0
 72147  1  0  0  0
 73 82  1  0  0  0
 74 83  1  0  0  0
 74 84  1  0  0  0
 75 77  1  0  0  0
 75148  1  0  0  0
 75149  1  0  0  0
 75150  1  0  0  0
 76151  1  0  0  0
 76152  1  0  0  0
 76153  1  0  0  0
 76 83  1  0  0  0
 77 78  1  0  0  0
 77154  1  0  0  0
 77155  1  0  0  0
 78 83  1  0  0  0
 78156  1  0  0  0
 78157  1  0  0  0
 79 80  1  0  0  0
 79 84  1  0  0  0
 79158  1  0  0  0
 79159  1  0  0  0
 80 85  1  0  0  0
 80160  1  0  0  0
 80161  1  0  0  0
 81 82  1  0  0  0
 81162  1  0  0  0
 81163  1  0  0  0
 82 86  1  0  0  0
 82164  1  0  0  0
 83165  1  0  0  0
 85166  1  0  0  0
 86167  1  0  0  0
 86168  1  0  0  0
 86169  1  0  0  0
M  CHG  1  86   1
M  ISO  4   1 100  68 101  81 101  85 100
M  END
> <chiral flag>
0

> <version>
0

> <s_m_source_file>
/data/baiqing/PycharmProjects/Reinvent-master-3.2/result/LINK_invent/BTK/process_docking_weight1_custom_sum_contain_oxygen_bond_distance_aromatic_linkinvent_7_9_3/rearranged_h_0110.sdf

> <i_m_source_file_index>
77

> <r_mmod_Potential_Energy-OPLS-2005>
-105.022727966309

> <r_mmod_Stretch_Energy-OPLS-2005>
121.456604003906

> <r_mmod_Bend_Energy-OPLS-2005>
172.854431152344

> <r_mmod_Torsional_Energy-OPLS-2005>
242.989196777344

> <r_mmod_Improper_Torsional_Energy-OPLS-2005>
5.51203489303589

> <r_mmod_Van_der_Waal_Energy-OPLS-2005>
111.909141540527

> <r_mmod_Electrostatic_Energy-OPLS-2005>
-364.536651611328

> <r_mmod_Solvation_Energy-OPLS-2005>
-470.871795654297

> <b_mmod_Minimization_Converged-OPLS-2005>
0

> <r_mmod_RMS_Derivative-OPLS-2005>
1.38994753360748

$$$$
78
                    3D
 Structure written by MMmdl.
161169  0  0  1  0            999 V2000
  -30.6454  -14.5970   20.5145 C   0  0  0  0  0  0
  -30.4297  -12.3702   19.4430 C   0  0  0  0  0  0
  -29.4999  -12.4920   18.2165 C   0  0  0  0  0  0
  -28.0225  -12.3375   18.6312 C   0  0  0  0  0  0
  -27.6500  -13.2130   19.8582 C   0  0  2  0  0  0
  -28.6932  -13.0659   20.9868 C   0  0  0  0  0  0
  -25.2542  -13.8169   20.5661 C   0  0  0  0  0  0
  -24.1811  -13.0436   20.9178 C   0  0  0  0  0  0
  -24.6379  -11.6910   20.8741 C   0  0  0  0  0  0
  -23.9052  -10.4295   21.0413 C   0  0  0  0  0  0
  -24.3609   -9.4215   21.9186 C   0  0  0  0  0  0
  -23.6292   -8.2243   22.0760 C   0  0  0  0  0  0
  -22.4271   -8.0287   21.3548 C   0  0  0  0  0  0
  -21.9906   -9.0254   20.4644 C   0  0  0  0  0  0
  -22.7231  -10.2133   20.3052 C   0  0  0  0  0  0
  -21.6850   -6.0740   22.5283 C   0  0  0  0  0  0
  -21.4011   -6.5638   23.8215 C   0  0  0  0  0  0
  -21.3659   -5.6790   24.9177 C   0  0  0  0  0  0
  -21.6043   -4.3057   24.7225 C   0  0  0  0  0  0
  -21.8820   -3.8151   23.4343 C   0  0  0  0  0  0
  -21.9195   -4.6970   22.3402 C   0  0  0  0  0  0
  -22.7836  -13.5233   21.1852 C   0  0  0  0  0  0
  -22.1664   -4.2162   21.0979 F   0  0  0  0  0  0
  -21.5631   -3.4537   25.7733 F   0  0  0  0  0  0
  -30.0075  -13.3931   20.4169 N   0  0  0  0  0  0
  -26.2970  -12.9344   20.3298 N   0  0  0  0  0  0
  -25.9303  -11.6504   20.5755 N   0  0  0  0  0  0
  -22.0480  -12.8225   22.0410 N   0  0  0  0  0  0
  -25.4230  -15.1890   20.4043 N   0  0  0  0  0  0
  -31.8209  -14.7391   20.1681 O   0  0  0  0  0  0
  -21.6635   -6.8882   21.4242 O   0  0  0  0  0  0
  -22.3522  -14.5553   20.6725 O   0  0  0  0  0  0
  -24.6234  -31.8623   23.2025 C   0  0  0  0  0  0
  -25.9101  -32.4788   23.8345 C   0  0  1  0  0  0
  -27.2282  -27.3436   20.0987 C   0  0  0  0  0  0
  -25.5933  -33.8587   24.2266 N   0  0  0  0  0  0
  -23.4147  -30.4883   21.5428 C   0  0  2  0  0  0
  -24.8600  -28.9446   20.1108 C   0  0  0  0  0  0
  -22.7457  -29.4652   22.4918 C   0  0  0  0  0  0
  -18.0294  -28.1371   22.8490 C   0  0  0  0  0  0
  -24.1492  -36.7282   23.2636 C   0  0  0  0  0  0
  -25.9547  -30.7994   21.3712 C   0  0  0  0  0  0
  -26.0268  -29.4281   20.7129 C   0  0  0  0  0  0
  -27.2094  -28.6367   20.7006 C   0  0  0  0  0  0
  -26.0250  -26.8936   19.5047 C   0  0  0  0  0  0
  -24.8591  -27.6801   19.5030 C   0  0  0  0  0  0
  -23.6283  -29.8225   20.1577 C   0  0  0  0  0  0
  -25.4121  -36.3078   24.0319 C   0  0  1  0  0  0
  -20.5894  -28.3685   23.1277 C   0  0  2  0  0  0
  -20.6777  -26.9403   22.5404 C   0  0  0  0  0  0
  -19.5754  -26.6375   21.5204 C   0  0  0  0  0  0
  -18.1936  -26.7920   22.1613 C   0  0  0  0  0  0
  -19.1548  -28.8842   23.2883 C   0  0  0  0  0  0
  -18.9479  -30.1445   23.8901 C   0  0  0  0  0  0
  -17.6481  -30.6579   24.0567 C   0  0  0  0  0  0
  -25.9066  -34.9452   23.5090 C   0  0  0  0  0  0
  -16.5371  -29.9082   23.6332 C   0  0  0  0  0  0
  -16.7284  -28.6498   23.0353 C   0  0  0  0  0  0
  -26.4491  -31.6598   25.0712 C   0  0  0  0  0  0
  -25.3721  -31.3725   26.1437 C   0  0  0  0  0  0
  -27.0347  -30.3035   24.6147 C   0  0  0  0  0  0
  -27.6060  -32.4332   25.7480 C   0  0  0  0  0  0
  -27.5582  -37.1786   24.8456 C   0  0  0  0  0  0
  -21.4173  -29.3053   22.3670 N   0  0  0  0  0  0
  -26.4285  -37.3786   23.9420 N   0  0  0  0  0  0
  -24.6826  -31.0661   22.0964 N   0  0  0  0  0  0
  -23.4201  -28.8189   23.2987 O   0  0  0  0  0  0
  -28.3881  -26.5597   20.1355 O   0  0  0  0  0  0
  -26.5629  -34.8923   22.4657 O   0  0  0  0  0  0
  -23.5407  -32.1419   23.7366 O   0  0  0  0  0  0
  -30.0421  -16.9827   22.7875 C   0  0  0  0  0  0
  -28.0032  -22.6801   19.5322 C   0  0  0  0  0  0
  -30.0453  -23.5171   20.6226 C   0  0  0  0  0  0
  -28.1626  -21.3082   20.2804 C   0  0  0  0  0  0
  -30.1822  -22.1395   21.3468 C   0  0  0  0  0  0
  -28.5889  -23.9203   20.2760 C   0  0  1  0  0  0
  -28.4937  -25.2698   19.4394 C   0  0  0  0  0  0
  -29.5894  -18.2755   20.6233 C   0  0  0  0  0  0
  -29.8125  -19.6717   21.3536 C   0  0  0  0  0  0
  -30.3270  -17.0188   21.2824 C   0  0  2  0  0  0
  -29.8728  -15.6730   20.8225 N   0  0  0  0  0  0
  -29.5811  -20.9788   20.6102 N   0  3  1  0  0  0
  -28.9356  -16.5439   23.1629 O   0  5  0  0  0  0
  -30.9280  -17.3703   23.5721 O   0  0  0  0  0  0
  -31.4710  -12.4895   19.1403 H   0  0  0  0  0  0
  -30.3582  -11.3754   19.8852 H   0  0  0  0  0  0
  -29.7584  -11.7379   17.4720 H   0  0  0  0  0  0
  -29.6462  -13.4599   17.7354 H   0  0  0  0  0  0
  -27.8560  -11.2848   18.8662 H   0  0  0  0  0  0
  -27.3673  -12.5660   17.7901 H   0  0  0  0  0  0
  -27.6705  -14.2475   19.5160 H   0  0  0  0  0  0
  -28.6970  -12.0466   21.3767 H   0  0  0  0  0  0
  -28.4467  -13.7088   21.8328 H   0  0  0  0  0  0
  -25.2756   -9.5696   22.4757 H   0  0  0  0  0  0
  -24.0012   -7.4636   22.7477 H   0  0  0  0  0  0
  -21.0841   -8.8756   19.8945 H   0  0  0  0  0  0
  -22.3692  -10.9665   19.6156 H   0  0  0  0  0  0
  -21.1993   -7.6145   23.9726 H   0  0  0  0  0  0
  -21.1480   -6.0518   25.9083 H   0  0  0  0  0  0
  -22.0600   -2.7615   23.2837 H   0  0  0  0  0  0
  -22.4090  -11.9867   22.4767 H   0  0  0  0  0  0
  -21.1112  -13.1262   22.2642 H   0  0  0  0  0  0
  -24.6536  -15.8416   20.5112 H   0  0  0  0  0  0
  -26.2815  -15.6351   20.1072 H   0  0  0  0  0  0
  -26.7168  -32.5456   23.1091 H   0  0  0  0  0  0
  -25.0111  -33.9753   25.0426 H   0  0  0  0  0  0
  -22.7071  -31.3069   21.3979 H   0  0  0  0  0  0
  -23.3766  -35.9600   23.3284 H   0  0  0  0  0  0
  -24.3586  -36.8926   22.2054 H   0  0  0  0  0  0
  -23.7230  -37.6467   23.6686 H   0  0  0  0  0  0
  -26.0843  -31.5633   20.6043 H   0  0  0  0  0  0
  -26.8363  -30.8461   21.9995 H   0  0  0  0  0  0
  -28.1090  -29.0079   21.1721 H   0  0  0  0  0  0
  -25.9304  -25.9196   19.0549 H   0  0  0  0  0  0
  -23.9597  -27.2972   19.0426 H   0  0  0  0  0  0
  -23.7455  -30.5976   19.3991 H   0  0  0  0  0  0
  -22.7496  -29.2496   19.8563 H   0  0  0  0  0  0
  -25.1294  -36.1916   25.0807 H   0  0  0  0  0  0
  -21.0003  -28.3260   24.1386 H   0  0  0  0  0  0
  -20.5677  -26.2290   23.3606 H   0  0  0  0  0  0
  -21.6649  -26.7427   22.1198 H   0  0  0  0  0  0
  -19.6920  -25.6284   21.1234 H   0  0  0  0  0  0
  -19.6692  -27.3183   20.6732 H   0  0  0  0  0  0
  -17.4204  -26.6684   21.4015 H   0  0  0  0  0  0
  -18.0334  -26.0043   22.8997 H   0  0  0  0  0  0
  -19.7961  -30.7259   24.2258 H   0  0  0  0  0  0
  -17.5041  -31.6264   24.5160 H   0  0  0  0  0  0
  -15.5377  -30.2987   23.7649 H   0  0  0  0  0  0
  -15.8683  -28.0824   22.7050 H   0  0  0  0  0  0
  -24.5924  -30.7045   25.7759 H   0  0  0  0  0  0
  -24.8879  -32.2883   26.4845 H   0  0  0  0  0  0
  -25.8046  -30.8924   27.0226 H   0  0  0  0  0  0
  -26.2918  -29.6776   24.1195 H   0  0  0  0  0  0
  -27.4097  -29.7304   25.4636 H   0  0  0  0  0  0
  -27.8754  -30.4347   23.9329 H   0  0  0  0  0  0
  -27.2695  -33.3657   26.2031 H   0  0  0  0  0  0
  -28.3890  -32.6857   25.0311 H   0  0  0  0  0  0
  -28.0707  -31.8464   26.5419 H   0  0  0  0  0  0
  -28.2556  -38.0124   24.7576 H   0  0  0  0  0  0
  -28.1122  -36.2663   24.6198 H   0  0  0  0  0  0
  -27.2312  -37.1325   25.8857 H   0  0  0  0  0  0
  -20.9330  -29.8803   21.6918 H   0  0  0  0  0  0
  -26.0151  -38.2844   24.1477 H   0  0  0  0  0  0
  -26.9434  -22.8496   19.3382 H   0  0  0  0  0  0
  -28.4710  -22.5980   18.5496 H   0  0  0  0  0  0
  -30.6408  -23.4899   19.7084 H   0  0  0  0  0  0
  -30.4925  -24.2927   21.2454 H   0  0  0  0  0  0
  -27.7466  -20.5078   19.6680 H   0  0  0  0  0  0
  -27.5759  -21.3238   21.2010 H   0  0  0  0  0  0
  -29.7249  -22.2091   22.3355 H   0  0  0  0  0  0
  -31.2414  -21.9451   21.5182 H   0  0  0  0  0  0
  -28.0222  -24.0535   21.1989 H   0  0  0  0  0  0
  -27.7493  -25.1564   18.6569 H   0  0  0  0  0  0
  -29.4087  -25.3475   18.8528 H   0  0  0  0  0  0
  -29.9334  -18.3558   19.5925 H   0  0  0  0  0  0
  -28.5178  -18.0834   20.5661 H   0  0  0  0  0  0
  -30.8525  -19.6833   21.6822 H   0  0  0  0  0  0
  -29.2245  -19.6969   22.2728 H   0  0  0  0  0  0
  -31.4035  -17.1192   21.1335 H   0  0  0  0  0  0
  -28.9377  -15.4501   21.1334 H   0  0  0  0  0  0
  -30.0815  -20.9039   19.7369 H   0  0  0  0  0  0
  1 25  1  0  0  0
  1 30  2  0  0  0
  1 81  1  0  0  0
  2  3  1  0  0  0
  2 25  1  0  0  0
  2 85  1  0  0  0
  2 86  1  0  0  0
  3  4  1  0  0  0
  3 87  1  0  0  0
  3 88  1  0  0  0
  4  5  1  0  0  0
  4 89  1  0  0  0
  4 90  1  0  0  0
  5  6  1  0  0  0
  5 26  1  0  0  0
  5 91  1  0  0  0
  6 25  1  0  0  0
  6 92  1  0  0  0
  6 93  1  0  0  0
  7  8  2  0  0  0
  7 26  1  0  0  0
  7 29  1  0  0  0
  8  9  1  0  0  0
  8 22  1  0  0  0
  9 10  1  0  0  0
  9 27  2  0  0  0
 10 11  2  0  0  0
 10 15  1  0  0  0
 11 12  1  0  0  0
 11 94  1  0  0  0
 12 13  2  0  0  0
 12 95  1  0  0  0
 13 14  1  0  0  0
 13 31  1  0  0  0
 14 15  2  0  0  0
 14 96  1  0  0  0
 15 97  1  0  0  0
 16 17  2  0  0  0
 16 21  1  0  0  0
 16 31  1  0  0  0
 17 18  1  0  0  0
 17 98  1  0  0  0
 18 19  2  0  0  0
 18 99  1  0  0  0
 19 20  1  0  0  0
 19 24  1  0  0  0
 20 21  2  0  0  0
 20100  1  0  0  0
 21 23  1  0  0  0
 22 28  1  0  0  0
 22 32  2  0  0  0
 26 27  1  0  0  0
 28101  1  0  0  0
 28102  1  0  0  0
 29103  1  0  0  0
 29104  1  0  0  0
 33 34  1  0  0  0
 33 66  1  0  0  0
 33 70  2  0  0  0
 34 36  1  0  0  0
 34 59  1  0  0  0
 34105  1  0  0  0
 35 44  2  0  0  0
 35 45  1  0  0  0
 35 68  1  0  0  0
 36 56  1  0  0  0
 36106  1  0  0  0
 37 39  1  0  0  0
 37 47  1  0  0  0
 37 66  1  0  0  0
 37107  1  0  0  0
 38 43  2  0  0  0
 38 46  1  0  0  0
 38 47  1  0  0  0
 39 64  1  0  0  0
 39 67  2  0  0  0
 40 52  1  0  0  0
 40 53  2  0  0  0
 40 58  1  0  0  0
 41108  1  0  0  0
 41109  1  0  0  0
 41110  1  0  0  0
 41 48  1  0  0  0
 42 43  1  0  0  0
 42 66  1  0  0  0
 42111  1  0  0  0
 42112  1  0  0  0
 43 44  1  0  0  0
 44113  1  0  0  0
 45 46  2  0  0  0
 45114  1  0  0  0
 46115  1  0  0  0
 47116  1  0  0  0
 47117  1  0  0  0
 48 56  1  0  0  0
 48 65  1  0  0  0
 48118  1  0  0  0
 49 50  1  0  0  0
 49 53  1  0  0  0
 49 64  1  0  0  0
 49119  1  0  0  0
 50 51  1  0  0  0
 50120  1  0  0  0
 50121  1  0  0  0
 51 52  1  0  0  0
 51122  1  0  0  0
 51123  1  0  0  0
 52124  1  0  0  0
 52125  1  0  0  0
 53 54  1  0  0  0
 54 55  2  0  0  0
 54126  1  0  0  0
 55 57  1  0  0  0
 55127  1  0  0  0
 56 69  2  0  0  0
 57 58  2  0  0  0
 57128  1  0  0  0
 58129  1  0  0  0
 59 60  1  0  0  0
 59 61  1  0  0  0
 59 62  1  0  0  0
 60130  1  0  0  0
 60131  1  0  0  0
 60132  1  0  0  0
 61133  1  0  0  0
 61134  1  0  0  0
 61135  1  0  0  0
 62136  1  0  0  0
 62137  1  0  0  0
 62138  1  0  0  0
 63 65  1  0  0  0
 63139  1  0  0  0
 63140  1  0  0  0
 63141  1  0  0  0
 64142  1  0  0  0
 65143  1  0  0  0
 68 77  1  0  0  0
 71 80  1  0  0  0
 71 83  1  0  0  0
 71 84  2  0  0  0
 72 74  1  0  0  0
 72 76  1  0  0  0
 72144  1  0  0  0
 72145  1  0  0  0
 73 75  1  0  0  0
 73 76  1  0  0  0
 73146  1  0  0  0
 73147  1  0  0  0
 74 82  1  0  0  0
 74148  1  0  0  0
 74149  1  0  0  0
 75 82  1  0  0  0
 75150  1  0  0  0
 75151  1  0  0  0
 76 77  1  0  0  0
 76152  1  0  0  0
 77153  1  0  0  0
 77154  1  0  0  0
 78 79  1  0  0  0
 78155  1  0  0  0
 78156  1  0  0  0
 78 80  1  0  0  0
 79157  1  0  0  0
 79158  1  0  0  0
 79 82  1  0  0  0
 80 81  1  0  0  0
 80159  1  0  0  0
 81160  1  0  0  0
 82161  1  0  0  0
M  CHG  2  82   1  83  -1
M  ISO  4   1 100  68 101  77 101  81 100
M  END
> <chiral flag>
0

> <version>
0

> <s_m_source_file>
/data/baiqing/PycharmProjects/Reinvent-master-3.2/result/LINK_invent/BTK/process_docking_weight1_custom_sum_contain_oxygen_bond_distance_aromatic_linkinvent_7_9_3/rearranged_h_0110.sdf

> <i_m_source_file_index>
78

> <r_mmod_Potential_Energy-OPLS-2005>
-527.539306640625

> <r_mmod_Stretch_Energy-OPLS-2005>
68.9485549926758

> <r_mmod_Bend_Energy-OPLS-2005>
145.859619140625

> <r_mmod_Torsional_Energy-OPLS-2005>
237.317031860352

> <r_mmod_Improper_Torsional_Energy-OPLS-2005>
5.78933668136597

> <r_mmod_Van_der_Waal_Energy-OPLS-2005>
134.550827026367

> <r_mmod_Electrostatic_Energy-OPLS-2005>
-688.611267089844

> <r_mmod_Solvation_Energy-OPLS-2005>
-468.06640625

> <b_mmod_Minimization_Converged-OPLS-2005>
0

> <r_mmod_RMS_Derivative-OPLS-2005>
1.54016077518463

$$$$
79
                    3D
 Structure written by MMmdl.
167175  0  0  1  0            999 V2000
  -30.7040  -14.5454   20.5407 C   0  0  0  0  0  0
  -30.4136  -12.3481   19.4388 C   0  0  0  0  0  0
  -29.4880  -12.4866   18.2117 C   0  0  0  0  0  0
  -28.0134  -12.3191   18.6267 C   0  0  0  0  0  0
  -27.6408  -13.1940   19.8498 C   0  0  2  0  0  0
  -28.6876  -13.0746   20.9817 C   0  0  0  0  0  0
  -25.2524  -13.8104   20.5659 C   0  0  0  0  0  0
  -24.1782  -13.0405   20.9182 C   0  0  0  0  0  0
  -24.6323  -11.6878   20.8741 C   0  0  0  0  0  0
  -23.9000  -10.4285   21.0403 C   0  0  0  0  0  0
  -24.3567   -9.4211   21.9185 C   0  0  0  0  0  0
  -23.6280   -8.2226   22.0747 C   0  0  0  0  0  0
  -22.4273   -8.0250   21.3529 C   0  0  0  0  0  0
  -21.9880   -9.0222   20.4639 C   0  0  0  0  0  0
  -22.7174  -10.2122   20.3067 C   0  0  0  0  0  0
  -21.6858   -6.0723   22.5283 C   0  0  0  0  0  0
  -21.4000   -6.5628   23.8212 C   0  0  0  0  0  0
  -21.3664   -5.6783   24.9175 C   0  0  0  0  0  0
  -21.6059   -4.3047   24.7220 C   0  0  0  0  0  0
  -21.8820   -3.8132   23.4338 C   0  0  0  0  0  0
  -21.9184   -4.6952   22.3399 C   0  0  0  0  0  0
  -22.7824  -13.5241   21.1869 C   0  0  0  0  0  0
  -22.1660   -4.2132   21.0975 F   0  0  0  0  0  0
  -21.5647   -3.4531   25.7732 F   0  0  0  0  0  0
  -30.0096  -13.3755   20.4140 N   0  0  0  0  0  0
  -26.2902  -12.9237   20.3261 N   0  0  0  0  0  0
  -25.9236  -11.6420   20.5740 N   0  0  0  0  0  0
  -22.0446  -12.8275   22.0438 N   0  0  0  0  0  0
  -25.4257  -15.1824   20.4062 N   0  0  0  0  0  0
  -31.8737  -14.6485   20.1598 O   0  0  0  0  0  0
  -21.6630   -6.8861   21.4242 O   0  0  0  0  0  0
  -22.3530  -14.5552   20.6725 O   0  0  0  0  0  0
  -24.6161  -31.8654   23.2063 C   0  0  0  0  0  0
  -25.9043  -32.4807   23.8374 C   0  0  1  0  0  0
  -27.2420  -27.4172   20.1102 C   0  0  0  0  0  0
  -25.5888  -33.8603   24.2314 N   0  0  0  0  0  0
  -23.4059  -30.4883   21.5452 C   0  0  2  0  0  0
  -24.8526  -28.9480   20.1144 C   0  0  0  0  0  0
  -22.7433  -29.4649   22.4956 C   0  0  0  0  0  0
  -18.0276  -28.1384   22.8484 C   0  0  0  0  0  0
  -24.1487  -36.7322   23.2646 C   0  0  0  0  0  0
  -25.9340  -30.8300   21.3566 C   0  0  0  0  0  0
  -26.0114  -29.4609   20.7090 C   0  0  0  0  0  0
  -27.2047  -28.7033   20.7007 C   0  0  0  0  0  0
  -26.0606  -26.9200   19.5108 C   0  0  0  0  0  0
  -24.8735  -27.6781   19.5129 C   0  0  0  0  0  0
  -23.6160  -29.8167   20.1605 C   0  0  0  0  0  0
  -25.4105  -36.3117   24.0354 C   0  0  1  0  0  0
  -20.5871  -28.3678   23.1310 C   0  0  2  0  0  0
  -20.6759  -26.9401   22.5434 C   0  0  0  0  0  0
  -19.5749  -26.6384   21.5214 C   0  0  0  0  0  0
  -18.1919  -26.7942   22.1598 C   0  0  0  0  0  0
  -19.1530  -28.8838   23.2901 C   0  0  0  0  0  0
  -18.9452  -30.1444   23.8923 C   0  0  0  0  0  0
  -17.6458  -30.6582   24.0566 C   0  0  0  0  0  0
  -25.9031  -34.9475   23.5135 C   0  0  0  0  0  0
  -16.5348  -29.9100   23.6311 C   0  0  0  0  0  0
  -16.7269  -28.6514   23.0333 C   0  0  0  0  0  0
  -26.4480  -31.6592   25.0702 C   0  0  0  0  0  0
  -25.3757  -31.3686   26.1462 C   0  0  0  0  0  0
  -27.0313  -30.3051   24.6045 C   0  0  0  0  0  0
  -27.6069  -32.4317   25.7436 C   0  0  0  0  0  0
  -27.5595  -37.1811   24.8463 C   0  0  0  0  0  0
  -21.4156  -29.3036   22.3707 N   0  0  0  0  0  0
  -26.4299  -37.3800   23.9415 N   0  0  0  0  0  0
  -24.6707  -31.0764   22.0950 N   0  0  0  0  0  0
  -23.4199  -28.8186   23.2993 O   0  0  0  0  0  0
  -28.4295  -26.7076   20.1586 O   0  0  0  0  0  0
  -26.5600  -34.8932   22.4702 O   0  0  0  0  0  0
  -23.5354  -32.1386   23.7458 O   0  0  0  0  0  0
  -29.2271  -19.9476   21.4933 C   0  0  0  0  0  0
  -29.1944  -17.8830   20.0683 C   0  0  0  0  0  0
  -29.0554  -16.3336   20.1635 C   0  0  0  0  0  0
  -30.7423  -16.5728   21.9241 C   0  0  0  0  0  0
  -29.8310  -17.7148   22.4629 C   0  0  2  0  0  0
  -28.6331  -20.8239   20.3523 C   0  0  0  0  0  0
  -28.6976  -17.1299   23.3531 C   0  0  0  0  0  0
  -27.7386  -18.1324   24.0260 C   0  0  0  0  0  0
  -29.1411  -22.2958   20.2296 C   0  0  0  0  0  0
  -28.4997  -25.3338   19.7290 C   0  0  0  0  0  0
  -27.7714  -24.2947   20.6342 C   0  0  0  0  0  0
  -29.3473  -18.5844   21.3579 N   0  0  0  0  0  0
  -30.0413  -15.6401   21.0233 N   0  0  0  0  0  0
  -26.8413  -17.4594   24.9829 N   0  3  0  0  0  0
  -29.5326  -20.5135   22.5466 O   0  0  0  0  0  0
  -28.5911  -23.2355   21.1679 O   0  0  0  0  0  0
  -31.4588  -12.4425   19.1404 H   0  0  0  0  0  0
  -30.3184  -11.3564   19.8823 H   0  0  0  0  0  0
  -29.7499  -11.7413   17.4585 H   0  0  0  0  0  0
  -29.6285  -13.4614   17.7420 H   0  0  0  0  0  0
  -27.8524  -11.2671   18.8634 H   0  0  0  0  0  0
  -27.3537  -12.5428   17.7859 H   0  0  0  0  0  0
  -27.6407  -14.2118   19.4750 H   0  0  0  0  0  0
  -28.6847  -12.0671   21.4005 H   0  0  0  0  0  0
  -28.4380  -13.7416   21.8074 H   0  0  0  0  0  0
  -25.2694   -9.5723   22.4755 H   0  0  0  0  0  0
  -24.0005   -7.4628   22.7473 H   0  0  0  0  0  0
  -21.0811   -8.8733   19.8955 H   0  0  0  0  0  0
  -22.3611  -10.9660   19.6189 H   0  0  0  0  0  0
  -21.1983   -7.6135   23.9724 H   0  0  0  0  0  0
  -21.1499   -6.0497   25.9087 H   0  0  0  0  0  0
  -22.0594   -2.7592   23.2833 H   0  0  0  0  0  0
  -22.3994  -11.9913   22.4833 H   0  0  0  0  0  0
  -21.1070  -13.1373   22.2615 H   0  0  0  0  0  0
  -24.6560  -15.8342   20.5008 H   0  0  0  0  0  0
  -26.2687  -15.6136   20.0522 H   0  0  0  0  0  0
  -26.7113  -32.5529   23.1142 H   0  0  0  0  0  0
  -25.0036  -33.9740   25.0460 H   0  0  0  0  0  0
  -22.6977  -31.3066   21.4027 H   0  0  0  0  0  0
  -23.3750  -35.9658   23.3307 H   0  0  0  0  0  0
  -24.3584  -36.8928   22.2062 H   0  0  0  0  0  0
  -23.7231  -37.6530   23.6645 H   0  0  0  0  0  0
  -26.0426  -31.5915   20.5825 H   0  0  0  0  0  0
  -26.8243  -30.8906   21.9703 H   0  0  0  0  0  0
  -28.1009  -29.0983   21.1593 H   0  0  0  0  0  0
  -26.0347  -25.9472   19.0444 H   0  0  0  0  0  0
  -23.9809  -27.2756   19.0534 H   0  0  0  0  0  0
  -23.7268  -30.5881   19.3978 H   0  0  0  0  0  0
  -22.7405  -29.2364   19.8641 H   0  0  0  0  0  0
  -25.1280  -36.2001   25.0853 H   0  0  0  0  0  0
  -20.9974  -28.3249   24.1426 H   0  0  0  0  0  0
  -20.5624  -26.2290   23.3633 H   0  0  0  0  0  0
  -21.6634  -26.7413   22.1251 H   0  0  0  0  0  0
  -19.6904  -25.6294   21.1242 H   0  0  0  0  0  0
  -19.6711  -27.3196   20.6747 H   0  0  0  0  0  0
  -17.4210  -26.6727   21.3973 H   0  0  0  0  0  0
  -18.0279  -26.0069   22.8968 H   0  0  0  0  0  0
  -19.7929  -30.7243   24.2316 H   0  0  0  0  0  0
  -17.5013  -31.6262   24.5171 H   0  0  0  0  0  0
  -15.5354  -30.3009   23.7612 H   0  0  0  0  0  0
  -15.8673  -28.0851   22.7019 H   0  0  0  0  0  0
  -24.5907  -30.7064   25.7791 H   0  0  0  0  0  0
  -24.8974  -32.2835   26.4972 H   0  0  0  0  0  0
  -25.8123  -30.8801   27.0182 H   0  0  0  0  0  0
  -26.2830  -29.6785   24.1179 H   0  0  0  0  0  0
  -27.4201  -29.7314   25.4467 H   0  0  0  0  0  0
  -27.8614  -30.4397   23.9103 H   0  0  0  0  0  0
  -27.2695  -33.3582   26.2092 H   0  0  0  0  0  0
  -28.3817  -32.6938   25.0218 H   0  0  0  0  0  0
  -28.0819  -31.8402   26.5272 H   0  0  0  0  0  0
  -28.2625  -38.0098   24.7513 H   0  0  0  0  0  0
  -28.1074  -36.2636   24.6274 H   0  0  0  0  0  0
  -27.2318  -37.1453   25.8865 H   0  0  0  0  0  0
  -20.9320  -29.8796   21.6964 H   0  0  0  0  0  0
  -26.0203  -38.2888   24.1406 H   0  0  0  0  0  0
  -28.3173  -18.2545   19.5354 H   0  0  0  0  0  0
  -30.0629  -18.1272   19.4547 H   0  0  0  0  0  0
  -29.0773  -15.9312   19.1486 H   0  0  0  0  0  0
  -28.0666  -16.1126   20.5599 H   0  0  0  0  0  0
  -31.1461  -16.0104   22.7673 H   0  0  0  0  0  0
  -31.6050  -17.0020   21.4103 H   0  0  0  0  0  0
  -30.4750  -18.3085   23.1155 H   0  0  0  0  0  0
  -27.5462  -20.8121   20.4312 H   0  0  0  0  0  0
  -28.8732  -20.3625   19.3958 H   0  0  0  0  0  0
  -29.1731  -16.5359   24.1350 H   0  0  0  0  0  0
  -28.0970  -16.4240   22.7801 H   0  0  0  0  0  0
  -27.1264  -18.6345   23.2752 H   0  0  0  0  0  0
  -28.2946  -18.9083   24.5544 H   0  0  0  0  0  0
  -28.9522  -22.6369   19.2106 H   0  0  0  0  0  0
  -30.2261  -22.3200   20.3370 H   0  0  0  0  0  0
  -28.1704  -25.2430   18.6935 H   0  0  0  0  0  0
  -29.5616  -25.0857   19.7090 H   0  0  0  0  0  0
  -26.9265  -23.8591   20.0996 H   0  0  0  0  0  0
  -27.3436  -24.8196   21.4891 H   0  0  0  0  0  0
  -26.3405  -16.7077   24.5419 H   0  0  0  0  0  0
  -26.1689  -18.1101   25.3479 H   0  0  0  0  0  0
  -27.3612  -17.0847   25.7571 H   0  0  0  0  0  0
  1 25  1  0  0  0
  1 30  2  0  0  0
  1 83  1  0  0  0
  2  3  1  0  0  0
  2 25  1  0  0  0
  2 87  1  0  0  0
  2 88  1  0  0  0
  3  4  1  0  0  0
  3 89  1  0  0  0
  3 90  1  0  0  0
  4  5  1  0  0  0
  4 91  1  0  0  0
  4 92  1  0  0  0
  5  6  1  0  0  0
  5 26  1  0  0  0
  5 93  1  0  0  0
  6 25  1  0  0  0
  6 94  1  0  0  0
  6 95  1  0  0  0
  7  8  2  0  0  0
  7 26  1  0  0  0
  7 29  1  0  0  0
  8  9  1  0  0  0
  8 22  1  0  0  0
  9 10  1  0  0  0
  9 27  2  0  0  0
 10 11  2  0  0  0
 10 15  1  0  0  0
 11 12  1  0  0  0
 11 96  1  0  0  0
 12 13  2  0  0  0
 12 97  1  0  0  0
 13 14  1  0  0  0
 13 31  1  0  0  0
 14 15  2  0  0  0
 14 98  1  0  0  0
 15 99  1  0  0  0
 16 17  2  0  0  0
 16 21  1  0  0  0
 16 31  1  0  0  0
 17 18  1  0  0  0
 17100  1  0  0  0
 18 19  2  0  0  0
 18101  1  0  0  0
 19 20  1  0  0  0
 19 24  1  0  0  0
 20 21  2  0  0  0
 20102  1  0  0  0
 21 23  1  0  0  0
 22 28  1  0  0  0
 22 32  2  0  0  0
 26 27  1  0  0  0
 28103  1  0  0  0
 28104  1  0  0  0
 29105  1  0  0  0
 29106  1  0  0  0
 33 34  1  0  0  0
 33 66  1  0  0  0
 33 70  2  0  0  0
 34 36  1  0  0  0
 34 59  1  0  0  0
 34107  1  0  0  0
 35 44  2  0  0  0
 35 45  1  0  0  0
 35 68  1  0  0  0
 36 56  1  0  0  0
 36108  1  0  0  0
 37 39  1  0  0  0
 37 47  1  0  0  0
 37 66  1  0  0  0
 37109  1  0  0  0
 38 43  2  0  0  0
 38 46  1  0  0  0
 38 47  1  0  0  0
 39 64  1  0  0  0
 39 67  2  0  0  0
 40 52  1  0  0  0
 40 53  2  0  0  0
 40 58  1  0  0  0
 41110  1  0  0  0
 41111  1  0  0  0
 41112  1  0  0  0
 41 48  1  0  0  0
 42 43  1  0  0  0
 42 66  1  0  0  0
 42113  1  0  0  0
 42114  1  0  0  0
 43 44  1  0  0  0
 44115  1  0  0  0
 45 46  2  0  0  0
 45116  1  0  0  0
 46117  1  0  0  0
 47118  1  0  0  0
 47119  1  0  0  0
 48 56  1  0  0  0
 48 65  1  0  0  0
 48120  1  0  0  0
 49 50  1  0  0  0
 49 53  1  0  0  0
 49 64  1  0  0  0
 49121  1  0  0  0
 50 51  1  0  0  0
 50122  1  0  0  0
 50123  1  0  0  0
 51 52  1  0  0  0
 51124  1  0  0  0
 51125  1  0  0  0
 52126  1  0  0  0
 52127  1  0  0  0
 53 54  1  0  0  0
 54 55  2  0  0  0
 54128  1  0  0  0
 55 57  1  0  0  0
 55129  1  0  0  0
 56 69  2  0  0  0
 57 58  2  0  0  0
 57130  1  0  0  0
 58131  1  0  0  0
 59 60  1  0  0  0
 59 61  1  0  0  0
 59 62  1  0  0  0
 60132  1  0  0  0
 60133  1  0  0  0
 60134  1  0  0  0
 61135  1  0  0  0
 61136  1  0  0  0
 61137  1  0  0  0
 62138  1  0  0  0
 62139  1  0  0  0
 62140  1  0  0  0
 63 65  1  0  0  0
 63141  1  0  0  0
 63142  1  0  0  0
 63143  1  0  0  0
 64144  1  0  0  0
 65145  1  0  0  0
 68 80  1  0  0  0
 71 76  1  0  0  0
 71 82  1  0  0  0
 71 85  2  0  0  0
 72 73  1  0  0  0
 72 82  1  0  0  0
 72146  1  0  0  0
 72147  1  0  0  0
 73 83  1  0  0  0
 73148  1  0  0  0
 73149  1  0  0  0
 74 75  1  0  0  0
 74 83  1  0  0  0
 74150  1  0  0  0
 74151  1  0  0  0
 75 77  1  0  0  0
 75 82  1  0  0  0
 75152  1  0  0  0
 76 79  1  0  0  0
 76153  1  0  0  0
 76154  1  0  0  0
 77 78  1  0  0  0
 77155  1  0  0  0
 77156  1  0  0  0
 78 84  1  0  0  0
 78157  1  0  0  0
 78158  1  0  0  0
 79 86  1  0  0  0
 79159  1  0  0  0
 79160  1  0  0  0
 80 81  1  0  0  0
 80161  1  0  0  0
 80162  1  0  0  0
 81 86  1  0  0  0
 81163  1  0  0  0
 81164  1  0  0  0
 84165  1  0  0  0
 84166  1  0  0  0
 84167  1  0  0  0
M  CHG  1  84   1
M  ISO  4   1 100  68 101  80 101  83 100
M  END
> <chiral flag>
0

> <version>
0

> <s_m_source_file>
/data/baiqing/PycharmProjects/Reinvent-master-3.2/result/LINK_invent/BTK/process_docking_weight1_custom_sum_contain_oxygen_bond_distance_aromatic_linkinvent_7_9_3/rearranged_h_0110.sdf

> <i_m_source_file_index>
79

> <r_mmod_Potential_Energy-OPLS-2005>
21.5348129272461

> <r_mmod_Stretch_Energy-OPLS-2005>
51.9620590209961

> <r_mmod_Bend_Energy-OPLS-2005>
135.929107666016

> <r_mmod_Torsional_Energy-OPLS-2005>
395.56494140625

> <r_mmod_Improper_Torsional_Energy-OPLS-2005>
5.50300788879395

> <r_mmod_Van_der_Waal_Energy-OPLS-2005>
143.530883789062

> <r_mmod_Electrostatic_Energy-OPLS-2005>
-214.902603149414

> <r_mmod_Solvation_Energy-OPLS-2005>
-520.463562011719

> <b_mmod_Minimization_Converged-OPLS-2005>
0

> <r_mmod_RMS_Derivative-OPLS-2005>
3.11271190643311

$$$$
80
                    3D
 Structure written by MMmdl.
161170  0  0  1  0            999 V2000
  -30.5771  -14.6723   20.4822 C   0  0  0  0  0  0
  -30.4379  -12.4097   19.4646 C   0  0  0  0  0  0
  -29.5128  -12.5209   18.2316 C   0  0  0  0  0  0
  -28.0317  -12.3652   18.6348 C   0  0  0  0  0  0
  -27.6523  -13.2219   19.8729 C   0  0  2  0  0  0
  -28.6937  -13.0703   21.0037 C   0  0  0  0  0  0
  -25.2509  -13.8148   20.5671 C   0  0  0  0  0  0
  -24.1802  -13.0393   20.9219 C   0  0  0  0  0  0
  -24.6423  -11.6887   20.8792 C   0  0  0  0  0  0
  -23.9069  -10.4267   21.0449 C   0  0  0  0  0  0
  -24.3607   -9.4174   21.9202 C   0  0  0  0  0  0
  -23.6272   -8.2211   22.0761 C   0  0  0  0  0  0
  -22.4241   -8.0267   21.3554 C   0  0  0  0  0  0
  -21.9907   -9.0234   20.4657 C   0  0  0  0  0  0
  -22.7262  -10.2101   20.3079 C   0  0  0  0  0  0
  -21.6844   -6.0741   22.5295 C   0  0  0  0  0  0
  -21.4004   -6.5642   23.8227 C   0  0  0  0  0  0
  -21.3652   -5.6807   24.9188 C   0  0  0  0  0  0
  -21.6039   -4.3071   24.7253 C   0  0  0  0  0  0
  -21.8813   -3.8152   23.4368 C   0  0  0  0  0  0
  -21.9169   -4.6956   22.3416 C   0  0  0  0  0  0
  -22.7827  -13.5189   21.1877 C   0  0  0  0  0  0
  -22.1649   -4.2147   21.0998 F   0  0  0  0  0  0
  -21.5627   -3.4560   25.7772 F   0  0  0  0  0  0
  -30.0036  -13.4290   20.4406 N   0  0  0  0  0  0
  -26.2973  -12.9371   20.3363 N   0  0  0  0  0  0
  -25.9354  -11.6517   20.5817 N   0  0  0  0  0  0
  -22.0467  -12.8141   22.0415 N   0  0  0  0  0  0
  -25.4113  -15.1871   20.3992 N   0  0  0  0  0  0
  -31.7431  -14.8473   20.1089 O   0  0  0  0  0  0
  -21.6603   -6.8872   21.4264 O   0  0  0  0  0  0
  -22.3500  -14.5492   20.6757 O   0  0  0  0  0  0
  -24.6256  -31.8627   23.2002 C   0  0  0  0  0  0
  -25.9100  -32.4789   23.8327 C   0  0  1  0  0  0
  -27.2060  -27.2919   20.1384 C   0  0  0  0  0  0
  -25.5925  -33.8593   24.2260 N   0  0  0  0  0  0
  -23.4173  -30.4871   21.5433 C   0  0  2  0  0  0
  -24.8591  -28.9368   20.1113 C   0  0  0  0  0  0
  -22.7435  -29.4682   22.4915 C   0  0  0  0  0  0
  -18.0271  -28.1425   22.8490 C   0  0  0  0  0  0
  -24.1500  -36.7284   23.2634 C   0  0  0  0  0  0
  -25.9578  -30.7865   21.3696 C   0  0  0  0  0  0
  -26.0288  -29.4105   20.7189 C   0  0  0  0  0  0
  -27.2027  -28.6006   20.7203 C   0  0  0  0  0  0
  -26.0103  -26.8685   19.5148 C   0  0  0  0  0  0
  -24.8546  -27.6737   19.4994 C   0  0  0  0  0  0
  -23.6289  -29.8205   20.1597 C   0  0  0  0  0  0
  -25.4124  -36.3080   24.0314 C   0  0  1  0  0  0
  -20.5870  -28.3765   23.1273 C   0  0  2  0  0  0
  -20.6802  -26.9498   22.5414 C   0  0  0  0  0  0
  -19.5795  -26.6424   21.5216 C   0  0  0  0  0  0
  -18.1947  -26.7964   22.1607 C   0  0  0  0  0  0
  -19.1516  -28.8897   23.2876 C   0  0  0  0  0  0
  -18.9449  -30.1477   23.8931 C   0  0  0  0  0  0
  -17.6460  -30.6634   24.0578 C   0  0  0  0  0  0
  -25.9075  -34.9453   23.5087 C   0  0  0  0  0  0
  -16.5339  -29.9161   23.6345 C   0  0  0  0  0  0
  -16.7255  -28.6554   23.0376 C   0  0  0  0  0  0
  -26.4489  -31.6583   25.0707 C   0  0  0  0  0  0
  -25.3674  -31.3684   26.1385 C   0  0  0  0  0  0
  -27.0377  -30.3006   24.6184 C   0  0  0  0  0  0
  -27.6055  -32.4303   25.7499 C   0  0  0  0  0  0
  -27.5575  -37.1790   24.8453 C   0  0  0  0  0  0
  -21.4146  -29.3125   22.3644 N   0  0  0  0  0  0
  -26.4285  -37.3775   23.9398 N   0  0  0  0  0  0
  -24.6859  -31.0629   22.0945 N   0  0  0  0  0  0
  -23.4138  -28.8218   23.3008 O   0  0  0  0  0  0
  -28.3197  -26.4429   20.2567 O   0  0  0  0  0  0
  -26.5659  -34.8936   22.4668 O   0  0  0  0  0  0
  -23.5432  -32.1451   23.7352 O   0  0  0  0  0  0
  -28.7783  -22.6600   20.0812 C   0  0  0  0  0  0
  -27.1205  -23.6523   21.1686 C   0  0  0  0  0  0
  -28.1690  -21.6376   20.8028 C   0  0  0  0  0  0
  -27.0971  -22.3106   21.4975 C   0  0  0  0  0  0
  -29.8473  -19.6531   21.4841 C   0  0  0  0  0  0
  -28.3421  -19.2794   19.5561 C   0  0  0  0  0  0
  -29.9899  -18.0965   21.7037 C   0  0  0  0  0  0
  -28.5052  -17.7179   19.7135 C   0  0  0  0  0  0
  -28.4842  -20.0827   20.8768 C   0  0  2  0  0  0
  -29.8020  -17.2033   20.4327 C   0  0  2  0  0  0
  -26.0749  -21.6788   22.4192 C   0  0  0  0  0  0
  -28.4271  -25.1927   19.5233 C   0  0  0  0  0  0
  -28.1330  -23.9056   20.2644 N   0  0  0  0  0  0
  -29.7217  -15.7191   20.7391 N   0  0  0  0  0  0
  -31.4798  -12.5401   19.1679 H   0  0  0  0  0  0
  -30.3713  -11.4134   19.9058 H   0  0  0  0  0  0
  -29.7783  -11.7686   17.4868 H   0  0  0  0  0  0
  -29.6592  -13.4907   17.7546 H   0  0  0  0  0  0
  -27.8560  -11.3107   18.8471 H   0  0  0  0  0  0
  -27.3862  -12.6174   17.7925 H   0  0  0  0  0  0
  -27.6682  -14.2628   19.5468 H   0  0  0  0  0  0
  -28.7075  -12.0456   21.3800 H   0  0  0  0  0  0
  -28.4377  -13.6954   21.8615 H   0  0  0  0  0  0
  -25.2743   -9.5620   22.4785 H   0  0  0  0  0  0
  -23.9998   -7.4600   22.7476 H   0  0  0  0  0  0
  -21.0852   -8.8761   19.8948 H   0  0  0  0  0  0
  -22.3744  -10.9636   19.6196 H   0  0  0  0  0  0
  -21.2009   -7.6157   23.9711 H   0  0  0  0  0  0
  -21.1493   -6.0564   25.9096 H   0  0  0  0  0  0
  -22.0597   -2.7606   23.2912 H   0  0  0  0  0  0
  -22.4131  -11.9823   22.4781 H   0  0  0  0  0  0
  -21.1080  -13.1161   22.2670 H   0  0  0  0  0  0
  -24.6184  -15.8180   20.4607 H   0  0  0  0  0  0
  -26.2220  -15.6097   19.9658 H   0  0  0  0  0  0
  -26.7172  -32.5467   23.1083 H   0  0  0  0  0  0
  -25.0039  -33.9755   25.0380 H   0  0  0  0  0  0
  -22.7133  -31.3092   21.4051 H   0  0  0  0  0  0
  -23.3775  -35.9600   23.3280 H   0  0  0  0  0  0
  -24.3547  -36.8944   22.2037 H   0  0  0  0  0  0
  -23.7279  -37.6474   23.6705 H   0  0  0  0  0  0
  -26.0803  -31.5397   20.5903 H   0  0  0  0  0  0
  -26.8426  -30.8466   21.9926 H   0  0  0  0  0  0
  -28.0985  -28.9584   21.2071 H   0  0  0  0  0  0
  -25.9232  -25.8825   19.0834 H   0  0  0  0  0  0
  -23.9496  -27.2961   19.0424 H   0  0  0  0  0  0
  -23.7502  -30.5993   19.4066 H   0  0  0  0  0  0
  -22.7483  -29.2534   19.8528 H   0  0  0  0  0  0
  -25.1307  -36.1908   25.0795 H   0  0  0  0  0  0
  -20.9926  -28.3427   24.1416 H   0  0  0  0  0  0
  -20.5770  -26.2402   23.3614 H   0  0  0  0  0  0
  -21.6675  -26.7616   22.1201 H   0  0  0  0  0  0
  -19.7001  -25.6328   21.1285 H   0  0  0  0  0  0
  -19.6739  -27.3217   20.6719 H   0  0  0  0  0  0
  -17.4225  -26.6675   21.4009 H   0  0  0  0  0  0
  -18.0362  -26.0104   22.9004 H   0  0  0  0  0  0
  -19.7917  -30.7244   24.2370 H   0  0  0  0  0  0
  -17.5045  -31.6317   24.5169 H   0  0  0  0  0  0
  -15.5363  -30.3094   23.7667 H   0  0  0  0  0  0
  -15.8616  -28.0879   22.7150 H   0  0  0  0  0  0
  -24.5942  -30.6946   25.7654 H   0  0  0  0  0  0
  -24.8738  -32.2834   26.4679 H   0  0  0  0  0  0
  -25.7937  -30.8941   27.0239 H   0  0  0  0  0  0
  -26.2989  -29.6706   24.1230 H   0  0  0  0  0  0
  -27.4100  -29.7296   25.4702 H   0  0  0  0  0  0
  -27.8828  -30.4263   23.9411 H   0  0  0  0  0  0
  -27.2695  -33.3648   26.2008 H   0  0  0  0  0  0
  -28.3921  -32.6767   25.0346 H   0  0  0  0  0  0
  -28.0674  -31.8451   26.5476 H   0  0  0  0  0  0
  -28.2556  -38.0119   24.7548 H   0  0  0  0  0  0
  -28.1118  -36.2652   24.6249 H   0  0  0  0  0  0
  -27.2275  -37.1403   25.8848 H   0  0  0  0  0  0
  -20.9316  -29.8759   21.6785 H   0  0  0  0  0  0
  -26.0162  -38.2836   24.1445 H   0  0  0  0  0  0
  -29.6150  -22.6047   19.3989 H   0  0  0  0  0  0
  -26.4659  -24.4545   21.4784 H   0  0  0  0  0  0
  -30.6592  -20.0084   20.8465 H   0  0  0  0  0  0
  -29.9796  -20.1560   22.4432 H   0  0  0  0  0  0
  -27.3588  -19.4834   19.1300 H   0  0  0  0  0  0
  -29.0642  -19.6543   18.8316 H   0  0  0  0  0  0
  -29.2682  -17.7921   22.4631 H   0  0  0  0  0  0
  -30.9668  -17.8903   22.1419 H   0  0  0  0  0  0
  -28.4430  -17.2625   18.7211 H   0  0  0  0  0  0
  -27.6299  -17.3529   20.2535 H   0  0  0  0  0  0
  -27.7298  -19.6796   21.5540 H   0  0  0  0  0  0
  -30.6445  -17.3712   19.7616 H   0  0  0  0  0  0
  -25.1792  -22.2968   22.4964 H   0  0  0  0  0  0
  -26.4770  -21.5497   23.4220 H   0  0  0  0  0  0
  -25.7564  -20.7057   22.0476 H   0  0  0  0  0  0
  -27.8669  -25.1943   18.5917 H   0  0  0  0  0  0
  -29.4735  -25.1330   19.2251 H   0  0  0  0  0  0
  -28.8116  -15.4100   21.0510 H   0  0  0  0  0  0
  1 25  1  0  0  0
  1 30  2  0  0  0
  1 84  1  0  0  0
  2  3  1  0  0  0
  2 25  1  0  0  0
  2 85  1  0  0  0
  2 86  1  0  0  0
  3  4  1  0  0  0
  3 87  1  0  0  0
  3 88  1  0  0  0
  4  5  1  0  0  0
  4 89  1  0  0  0
  4 90  1  0  0  0
  5  6  1  0  0  0
  5 26  1  0  0  0
  5 91  1  0  0  0
  6 25  1  0  0  0
  6 92  1  0  0  0
  6 93  1  0  0  0
  7  8  2  0  0  0
  7 26  1  0  0  0
  7 29  1  0  0  0
  8  9  1  0  0  0
  8 22  1  0  0  0
  9 10  1  0  0  0
  9 27  2  0  0  0
 10 11  2  0  0  0
 10 15  1  0  0  0
 11 12  1  0  0  0
 11 94  1  0  0  0
 12 13  2  0  0  0
 12 95  1  0  0  0
 13 14  1  0  0  0
 13 31  1  0  0  0
 14 15  2  0  0  0
 14 96  1  0  0  0
 15 97  1  0  0  0
 16 17  2  0  0  0
 16 21  1  0  0  0
 16 31  1  0  0  0
 17 18  1  0  0  0
 17 98  1  0  0  0
 18 19  2  0  0  0
 18 99  1  0  0  0
 19 20  1  0  0  0
 19 24  1  0  0  0
 20 21  2  0  0  0
 20100  1  0  0  0
 21 23  1  0  0  0
 22 28  1  0  0  0
 22 32  2  0  0  0
 26 27  1  0  0  0
 28101  1  0  0  0
 28102  1  0  0  0
 29103  1  0  0  0
 29104  1  0  0  0
 33 34  1  0  0  0
 33 66  1  0  0  0
 33 70  2  0  0  0
 34 36  1  0  0  0
 34 59  1  0  0  0
 34105  1  0  0  0
 35 44  2  0  0  0
 35 45  1  0  0  0
 35 68  1  0  0  0
 36 56  1  0  0  0
 36106  1  0  0  0
 37 39  1  0  0  0
 37 47  1  0  0  0
 37 66  1  0  0  0
 37107  1  0  0  0
 38 43  2  0  0  0
 38 46  1  0  0  0
 38 47  1  0  0  0
 39 64  1  0  0  0
 39 67  2  0  0  0
 40 52  1  0  0  0
 40 53  2  0  0  0
 40 58  1  0  0  0
 41108  1  0  0  0
 41109  1  0  0  0
 41110  1  0  0  0
 41 48  1  0  0  0
 42 43  1  0  0  0
 42 66  1  0  0  0
 42111  1  0  0  0
 42112  1  0  0  0
 43 44  1  0  0  0
 44113  1  0  0  0
 45 46  2  0  0  0
 45114  1  0  0  0
 46115  1  0  0  0
 47116  1  0  0  0
 47117  1  0  0  0
 48 56  1  0  0  0
 48 65  1  0  0  0
 48118  1  0  0  0
 49 50  1  0  0  0
 49 53  1  0  0  0
 49 64  1  0  0  0
 49119  1  0  0  0
 50 51  1  0  0  0
 50120  1  0  0  0
 50121  1  0  0  0
 51 52  1  0  0  0
 51122  1  0  0  0
 51123  1  0  0  0
 52124  1  0  0  0
 52125  1  0  0  0
 53 54  1  0  0  0
 54 55  2  0  0  0
 54126  1  0  0  0
 55 57  1  0  0  0
 55127  1  0  0  0
 56 69  2  0  0  0
 57 58  2  0  0  0
 57128  1  0  0  0
 58129  1  0  0  0
 59 60  1  0  0  0
 59 61  1  0  0  0
 59 62  1  0  0  0
 60130  1  0  0  0
 60131  1  0  0  0
 60132  1  0  0  0
 61133  1  0  0  0
 61134  1  0  0  0
 61135  1  0  0  0
 62136  1  0  0  0
 62137  1  0  0  0
 62138  1  0  0  0
 63 65  1  0  0  0
 63139  1  0  0  0
 63140  1  0  0  0
 63141  1  0  0  0
 64142  1  0  0  0
 65143  1  0  0  0
 68 82  1  0  0  0
 71 73  2  0  0  0
 71 83  1  0  0  0
 71144  1  0  0  0
 72 74  2  0  0  0
 72 83  1  0  0  0
 72145  1  0  0  0
 73 74  1  0  0  0
 73 79  1  0  0  0
 74 81  1  0  0  0
 75 77  1  0  0  0
 75 79  1  0  0  0
 75146  1  0  0  0
 75147  1  0  0  0
 76 78  1  0  0  0
 76 79  1  0  0  0
 76148  1  0  0  0
 76149  1  0  0  0
 77 80  1  0  0  0
 77150  1  0  0  0
 77151  1  0  0  0
 78 80  1  0  0  0
 78152  1  0  0  0
 78153  1  0  0  0
 79154  1  0  0  0
 80 84  1  0  0  0
 80155  1  0  0  0
 81156  1  0  0  0
 81157  1  0  0  0
 81158  1  0  0  0
 82 83  1  0  0  0
 82159  1  0  0  0
 82160  1  0  0  0
 84161  1  0  0  0
M  ISO  4   1 100  68 101  82 101  84 100
M  END
> <chiral flag>
0

> <version>
0

> <s_m_source_file>
/data/baiqing/PycharmProjects/Reinvent-master-3.2/result/LINK_invent/BTK/process_docking_weight1_custom_sum_contain_oxygen_bond_distance_aromatic_linkinvent_7_9_3/rearranged_h_0110.sdf

> <i_m_source_file_index>
80

> <r_mmod_Potential_Energy-OPLS-2005>
45.2520904541016

> <r_mmod_Stretch_Energy-OPLS-2005>
85.686279296875

> <r_mmod_Bend_Energy-OPLS-2005>
153.786376953125

> <r_mmod_Torsional_Energy-OPLS-2005>
219.598571777344

> <r_mmod_Improper_Torsional_Energy-OPLS-2005>
6.96069049835205

> <r_mmod_Van_der_Waal_Energy-OPLS-2005>
113.448608398438

> <r_mmod_Electrostatic_Energy-OPLS-2005>
-390.373718261719

> <r_mmod_Solvation_Energy-OPLS-2005>
-207.230010986328

> <b_mmod_Minimization_Converged-OPLS-2005>
0

> <r_mmod_RMS_Derivative-OPLS-2005>
4.84935569763184

$$$$
81
                    3D
 Structure written by MMmdl.
165173  0  0  1  0            999 V2000
  -30.6005  -14.7075   20.4569 C   0  0  0  0  0  0
  -30.4314  -12.4156   19.4913 C   0  0  0  0  0  0
  -29.5224  -12.4984   18.2460 C   0  0  0  0  0  0
  -28.0470  -12.3149   18.6514 C   0  0  0  0  0  0
  -27.6467  -13.2099   19.8546 C   0  0  2  0  0  0
  -28.6833  -13.1384   20.9998 C   0  0  0  0  0  0
  -25.2588  -13.7951   20.5713 C   0  0  0  0  0  0
  -24.1833  -13.0321   20.9172 C   0  0  0  0  0  0
  -24.6401  -11.6798   20.8740 C   0  0  0  0  0  0
  -23.9059  -10.4231   21.0448 C   0  0  0  0  0  0
  -24.3614   -9.4145   21.9216 C   0  0  0  0  0  0
  -23.6262   -8.2204   22.0788 C   0  0  0  0  0  0
  -22.4246   -8.0265   21.3562 C   0  0  0  0  0  0
  -21.9894   -9.0244   20.4673 C   0  0  0  0  0  0
  -22.7249  -10.2095   20.3086 C   0  0  0  0  0  0
  -21.6836   -6.0745   22.5291 C   0  0  0  0  0  0
  -21.4021   -6.5659   23.8226 C   0  0  0  0  0  0
  -21.3637   -5.6799   24.9173 C   0  0  0  0  0  0
  -21.6032   -4.3062   24.7224 C   0  0  0  0  0  0
  -21.8815   -3.8167   23.4347 C   0  0  0  0  0  0
  -21.9169   -4.6977   22.3408 C   0  0  0  0  0  0
  -22.7892  -13.5198   21.1855 C   0  0  0  0  0  0
  -22.1636   -4.2171   21.0981 F   0  0  0  0  0  0
  -21.5588   -3.4539   25.7730 F   0  0  0  0  0  0
  -29.9935  -13.4742   20.4297 N   0  0  0  0  0  0
  -26.2980  -12.9181   20.3238 N   0  0  0  0  0  0
  -25.9326  -11.6346   20.5711 N   0  0  0  0  0  0
  -22.0506  -12.8223   22.0392 N   0  0  0  0  0  0
  -25.4400  -15.1584   20.4277 N   0  0  0  0  0  0
  -31.7732  -14.8311   20.0947 O   0  0  0  0  0  0
  -21.6595   -6.8886   21.4256 O   0  0  0  0  0  0
  -22.3629  -14.5558   20.6736 O   0  0  0  0  0  0
  -24.6328  -31.8569   23.1990 C   0  0  0  0  0  0
  -25.9151  -32.4795   23.8342 C   0  0  1  0  0  0
  -27.2507  -27.3167   20.1163 C   0  0  0  0  0  0
  -25.5932  -33.8584   24.2278 N   0  0  0  0  0  0
  -23.4292  -30.4809   21.5402 C   0  0  2  0  0  0
  -24.8844  -28.9432   20.1062 C   0  0  0  0  0  0
  -22.7530  -29.4613   22.4903 C   0  0  0  0  0  0
  -18.0322  -28.1355   22.8464 C   0  0  0  0  0  0
  -24.1490  -36.7299   23.2628 C   0  0  0  0  0  0
  -25.9712  -30.7981   21.3649 C   0  0  0  0  0  0
  -26.0531  -29.4219   20.7100 C   0  0  0  0  0  0
  -27.2413  -28.6267   20.6944 C   0  0  0  0  0  0
  -26.0471  -26.8952   19.4976 C   0  0  0  0  0  0
  -24.8852  -27.6876   19.4826 C   0  0  0  0  0  0
  -23.6501  -29.8191   20.1546 C   0  0  0  0  0  0
  -25.4106  -36.3073   24.0315 C   0  0  1  0  0  0
  -20.5924  -28.3702   23.1290 C   0  0  2  0  0  0
  -20.6843  -26.9417   22.5462 C   0  0  0  0  0  0
  -19.5834  -26.6349   21.5263 C   0  0  0  0  0  0
  -18.2010  -26.7890   22.1647 C   0  0  0  0  0  0
  -19.1561  -28.8845   23.2865 C   0  0  0  0  0  0
  -18.9458  -30.1433   23.8885 C   0  0  0  0  0  0
  -17.6457  -30.6565   24.0528 C   0  0  0  0  0  0
  -25.9042  -34.9455   23.5078 C   0  0  0  0  0  0
  -16.5362  -29.9055   23.6283 C   0  0  0  0  0  0
  -16.7306  -28.6478   23.0308 C   0  0  0  0  0  0
  -26.4532  -31.6605   25.0715 C   0  0  0  0  0  0
  -25.3767  -31.3752   26.1442 C   0  0  0  0  0  0
  -27.0357  -30.3032   24.6149 C   0  0  0  0  0  0
  -27.6088  -32.4331   25.7514 C   0  0  0  0  0  0
  -27.5570  -37.1792   24.8458 C   0  0  0  0  0  0
  -21.4227  -29.3059   22.3668 N   0  0  0  0  0  0
  -26.4283  -37.3769   23.9404 N   0  0  0  0  0  0
  -24.6968  -31.0604   22.0933 N   0  0  0  0  0  0
  -23.4226  -28.8146   23.2999 O   0  0  0  0  0  0
  -28.3704  -26.4555   20.1652 O   0  0  0  0  0  0
  -26.5606  -34.8910   22.4656 O   0  0  0  0  0  0
  -23.5474  -32.1353   23.7296 O   0  0  0  0  0  0
  -27.2283  -22.1605   20.3180 C   0  0  0  0  0  0
  -26.6294  -20.9051   20.4061 C   0  0  0  0  0  0
  -29.3872  -21.1087   20.6513 C   0  0  0  0  0  0
  -28.6181  -22.3265   20.4421 C   0  0  0  0  0  0
  -27.3676  -19.7210   20.5953 C   0  0  0  0  0  0
  -28.7882  -19.7799   20.7378 C   0  0  0  0  0  0
  -25.5139  -18.3433   19.5295 C   0  0  0  0  0  0
  -25.8589  -18.3114   22.0563 C   0  0  0  0  0  0
  -29.3894  -17.4270   18.7703 C   0  0  0  0  0  0
  -29.1742  -23.8158   20.3799 C   0  0  0  0  0  0
  -29.5800  -18.4650   21.1779 C   0  0  0  0  0  0
  -28.0930  -24.9926   20.1713 C   0  0  0  0  0  0
  -26.5429  -18.4333   20.6867 C   0  0  0  0  0  0
  -29.9829  -17.2565   20.1816 C   0  0  1  0  0  0
  -29.7955  -15.8142   20.6556 N   0  0  0  0  0  0
  -31.4819  -12.5161   19.2106 H   0  0  0  0  0  0
  -30.3431  -11.4357   19.9635 H   0  0  0  0  0  0
  -29.8124  -11.7423   17.5152 H   0  0  0  0  0  0
  -29.6559  -13.4646   17.7567 H   0  0  0  0  0  0
  -27.9103  -11.2629   18.9078 H   0  0  0  0  0  0
  -27.3924  -12.5053   17.8010 H   0  0  0  0  0  0
  -27.6397  -14.2317   19.4745 H   0  0  0  0  0  0
  -28.7113  -12.1432   21.4464 H   0  0  0  0  0  0
  -28.4143  -13.8237   21.8053 H   0  0  0  0  0  0
  -25.2786   -9.5577   22.4758 H   0  0  0  0  0  0
  -23.9949   -7.4600   22.7535 H   0  0  0  0  0  0
  -21.0812   -8.8796   19.9009 H   0  0  0  0  0  0
  -22.3767  -10.9631   19.6183 H   0  0  0  0  0  0
  -21.2070   -7.6178   23.9725 H   0  0  0  0  0  0
  -21.1449   -6.0539   25.9060 H   0  0  0  0  0  0
  -22.0631   -2.7634   23.2835 H   0  0  0  0  0  0
  -22.4077  -11.9854   22.4745 H   0  0  0  0  0  0
  -21.1174  -13.1372   22.2660 H   0  0  0  0  0  0
  -24.6844  -15.8141   20.5886 H   0  0  0  0  0  0
  -26.2837  -15.5949   20.0871 H   0  0  0  0  0  0
  -26.7241  -32.5514   23.1113 H   0  0  0  0  0  0
  -25.0101  -33.9746   25.0428 H   0  0  0  0  0  0
  -22.7219  -31.2990   21.3929 H   0  0  0  0  0  0
  -23.3739  -35.9648   23.3306 H   0  0  0  0  0  0
  -24.3558  -36.8917   22.2035 H   0  0  0  0  0  0
  -23.7280  -37.6508   23.6664 H   0  0  0  0  0  0
  -26.0863  -31.5621   20.5932 H   0  0  0  0  0  0
  -26.8578  -30.8622   21.9842 H   0  0  0  0  0  0
  -28.1424  -29.0031   21.1604 H   0  0  0  0  0  0
  -25.9687  -25.9385   19.0086 H   0  0  0  0  0  0
  -23.9983  -27.3224   18.9837 H   0  0  0  0  0  0
  -23.7630  -30.5967   19.3978 H   0  0  0  0  0  0
  -22.7776  -29.2393   19.8534 H   0  0  0  0  0  0
  -25.1294  -36.1883   25.0805 H   0  0  0  0  0  0
  -21.0011  -28.3280   24.1402 H   0  0  0  0  0  0
  -20.5815  -26.2285   23.3660 H   0  0  0  0  0  0
  -21.6707  -26.7492   22.1218 H   0  0  0  0  0  0
  -19.7012  -25.6249   21.1324 H   0  0  0  0  0  0
  -19.6779  -27.3143   20.6778 H   0  0  0  0  0  0
  -17.4280  -26.6584   21.4067 H   0  0  0  0  0  0
  -18.0426  -26.0056   22.9077 H   0  0  0  0  0  0
  -19.7931  -30.7231   24.2298 H   0  0  0  0  0  0
  -17.4997  -31.6242   24.5127 H   0  0  0  0  0  0
  -15.5340  -30.2942   23.7582 H   0  0  0  0  0  0
  -15.8717  -28.0795   22.7029 H   0  0  0  0  0  0
  -24.5930  -30.7121   25.7774 H   0  0  0  0  0  0
  -24.8977  -32.2924   26.4875 H   0  0  0  0  0  0
  -25.8078  -30.8920   27.0219 H   0  0  0  0  0  0
  -26.2909  -29.6797   24.1198 H   0  0  0  0  0  0
  -27.4089  -29.7277   25.4630 H   0  0  0  0  0  0
  -27.8769  -30.4327   23.9339 H   0  0  0  0  0  0
  -27.2701  -33.3621   26.2122 H   0  0  0  0  0  0
  -28.3915  -32.6917   25.0370 H   0  0  0  0  0  0
  -28.0761  -31.8443   26.5418 H   0  0  0  0  0  0
  -28.2585  -38.0090   24.7476 H   0  0  0  0  0  0
  -28.1063  -36.2606   24.6312 H   0  0  0  0  0  0
  -27.2280  -37.1480   25.8862 H   0  0  0  0  0  0
  -20.9400  -29.8727   21.6848 H   0  0  0  0  0  0
  -26.0148  -38.2837   24.1415 H   0  0  0  0  0  0
  -26.5580  -22.9892   20.1718 H   0  0  0  0  0  0
  -25.5521  -20.8795   20.3506 H   0  0  0  0  0  0
  -30.4562  -21.1998   20.7927 H   0  0  0  0  0  0
  -25.9990  -18.3848   18.5539 H   0  0  0  0  0  0
  -24.7608  -19.1284   19.5541 H   0  0  0  0  0  0
  -24.9378  -17.4259   19.5621 H   0  0  0  0  0  0
  -26.5847  -18.3362   22.8693 H   0  0  0  0  0  0
  -25.3112  -17.3717   22.1405 H   0  0  0  0  0  0
  -25.1459  -19.1192   22.2220 H   0  0  0  0  0  0
  -29.5719  -18.4312   18.3864 H   0  0  0  0  0  0
  -28.3140  -17.2576   18.7400 H   0  0  0  0  0  0
  -29.8478  -16.7312   18.0693 H   0  0  0  0  0  0
  -29.8953  -23.8658   19.5626 H   0  0  0  0  0  0
  -29.7443  -24.0095   21.2888 H   0  0  0  0  0  0
  -29.0211  -18.0372   22.0113 H   0  0  0  0  0  0
  -30.4977  -18.8052   21.6546 H   0  0  0  0  0  0
  -27.3369  -24.8567   20.9445 H   0  0  0  0  0  0
  -27.6329  -24.7539   19.2145 H   0  0  0  0  0  0
  -27.1985  -17.5716   20.6018 H   0  0  0  0  0  0
  -31.0590  -17.3685   20.0364 H   0  0  0  0  0  0
  -28.8639  -15.5910   20.9721 H   0  0  0  0  0  0
  1 25  1  0  0  0
  1 30  2  0  0  0
  1 85  1  0  0  0
  2  3  1  0  0  0
  2 25  1  0  0  0
  2 86  1  0  0  0
  2 87  1  0  0  0
  3  4  1  0  0  0
  3 88  1  0  0  0
  3 89  1  0  0  0
  4  5  1  0  0  0
  4 90  1  0  0  0
  4 91  1  0  0  0
  5  6  1  0  0  0
  5 26  1  0  0  0
  5 92  1  0  0  0
  6 25  1  0  0  0
  6 93  1  0  0  0
  6 94  1  0  0  0
  7  8  2  0  0  0
  7 26  1  0  0  0
  7 29  1  0  0  0
  8  9  1  0  0  0
  8 22  1  0  0  0
  9 10  1  0  0  0
  9 27  2  0  0  0
 10 11  2  0  0  0
 10 15  1  0  0  0
 11 12  1  0  0  0
 11 95  1  0  0  0
 12 13  2  0  0  0
 12 96  1  0  0  0
 13 14  1  0  0  0
 13 31  1  0  0  0
 14 15  2  0  0  0
 14 97  1  0  0  0
 15 98  1  0  0  0
 16 17  2  0  0  0
 16 21  1  0  0  0
 16 31  1  0  0  0
 17 18  1  0  0  0
 17 99  1  0  0  0
 18 19  2  0  0  0
 18100  1  0  0  0
 19 20  1  0  0  0
 19 24  1  0  0  0
 20 21  2  0  0  0
 20101  1  0  0  0
 21 23  1  0  0  0
 22 28  1  0  0  0
 22 32  2  0  0  0
 26 27  1  0  0  0
 28102  1  0  0  0
 28103  1  0  0  0
 29104  1  0  0  0
 29105  1  0  0  0
 33 34  1  0  0  0
 33 66  1  0  0  0
 33 70  2  0  0  0
 34 36  1  0  0  0
 34 59  1  0  0  0
 34106  1  0  0  0
 35 44  2  0  0  0
 35 45  1  0  0  0
 35 68  1  0  0  0
 36 56  1  0  0  0
 36107  1  0  0  0
 37 39  1  0  0  0
 37 47  1  0  0  0
 37 66  1  0  0  0
 37108  1  0  0  0
 38 43  2  0  0  0
 38 46  1  0  0  0
 38 47  1  0  0  0
 39 64  1  0  0  0
 39 67  2  0  0  0
 40 52  1  0  0  0
 40 53  2  0  0  0
 40 58  1  0  0  0
 41109  1  0  0  0
 41110  1  0  0  0
 41111  1  0  0  0
 41 48  1  0  0  0
 42 43  1  0  0  0
 42 66  1  0  0  0
 42112  1  0  0  0
 42113  1  0  0  0
 43 44  1  0  0  0
 44114  1  0  0  0
 45 46  2  0  0  0
 45115  1  0  0  0
 46116  1  0  0  0
 47117  1  0  0  0
 47118  1  0  0  0
 48 56  1  0  0  0
 48 65  1  0  0  0
 48119  1  0  0  0
 49 50  1  0  0  0
 49 53  1  0  0  0
 49 64  1  0  0  0
 49120  1  0  0  0
 50 51  1  0  0  0
 50121  1  0  0  0
 50122  1  0  0  0
 51 52  1  0  0  0
 51123  1  0  0  0
 51124  1  0  0  0
 52125  1  0  0  0
 52126  1  0  0  0
 53 54  1  0  0  0
 54 55  2  0  0  0
 54127  1  0  0  0
 55 57  1  0  0  0
 55128  1  0  0  0
 56 69  2  0  0  0
 57 58  2  0  0  0
 57129  1  0  0  0
 58130  1  0  0  0
 59 60  1  0  0  0
 59 61  1  0  0  0
 59 62  1  0  0  0
 60131  1  0  0  0
 60132  1  0  0  0
 60133  1  0  0  0
 61134  1  0  0  0
 61135  1  0  0  0
 61136  1  0  0  0
 62137  1  0  0  0
 62138  1  0  0  0
 62139  1  0  0  0
 63 65  1  0  0  0
 63140  1  0  0  0
 63141  1  0  0  0
 63142  1  0  0  0
 64143  1  0  0  0
 65144  1  0  0  0
 68 82  1  0  0  0
 71 72  2  0  0  0
 71 74  1  0  0  0
 71145  1  0  0  0
 72 75  1  0  0  0
 72146  1  0  0  0
 73 74  2  0  0  0
 73 76  1  0  0  0
 73147  1  0  0  0
 74 80  1  0  0  0
 75 76  2  0  0  0
 75 83  1  0  0  0
 76 81  1  0  0  0
 77148  1  0  0  0
 77149  1  0  0  0
 77150  1  0  0  0
 77 83  1  0  0  0
 78 83  1  0  0  0
 78151  1  0  0  0
 78152  1  0  0  0
 78153  1  0  0  0
 79154  1  0  0  0
 79155  1  0  0  0
 79156  1  0  0  0
 79 84  1  0  0  0
 80 82  1  0  0  0
 80157  1  0  0  0
 80158  1  0  0  0
 81 84  1  0  0  0
 81159  1  0  0  0
 81160  1  0  0  0
 82161  1  0  0  0
 82162  1  0  0  0
 83163  1  0  0  0
 84 85  1  0  0  0
 84164  1  0  0  0
 85165  1  0  0  0
M  ISO  4   1 100  68 101  82 101  85 100
M  END
> <chiral flag>
0

> <version>
0

> <s_m_source_file>
/data/baiqing/PycharmProjects/Reinvent-master-3.2/result/LINK_invent/BTK/process_docking_weight1_custom_sum_contain_oxygen_bond_distance_aromatic_linkinvent_7_9_3/rearranged_h_0110.sdf

> <i_m_source_file_index>
81

> <r_mmod_Potential_Energy-OPLS-2005>
148.973037719727

> <r_mmod_Stretch_Energy-OPLS-2005>
114.454277038574

> <r_mmod_Bend_Energy-OPLS-2005>
166.901580810547

> <r_mmod_Torsional_Energy-OPLS-2005>
216.08349609375

> <r_mmod_Improper_Torsional_Energy-OPLS-2005>
7.19613838195801

> <r_mmod_Van_der_Waal_Energy-OPLS-2005>
150.670959472656

> <r_mmod_Electrostatic_Energy-OPLS-2005>
-373.491271972656

> <r_mmod_Solvation_Energy-OPLS-2005>
-197.4658203125

> <b_mmod_Minimization_Converged-OPLS-2005>
0

> <r_mmod_RMS_Derivative-OPLS-2005>
4.10242986679077

$$$$
82
                    3D
 Structure written by MMmdl.
183191  0  0  1  0            999 V2000
  -30.6409  -14.6180   20.5126 C   0  0  0  0  0  0
  -30.4355  -12.3837   19.4423 C   0  0  0  0  0  0
  -29.5012  -12.4902   18.2184 C   0  0  0  0  0  0
  -28.0250  -12.3336   18.6363 C   0  0  0  0  0  0
  -27.6507  -13.2134   19.8581 C   0  0  2  0  0  0
  -28.6960  -13.0779   20.9864 C   0  0  0  0  0  0
  -25.2578  -13.8174   20.5685 C   0  0  0  0  0  0
  -24.1840  -13.0442   20.9196 C   0  0  0  0  0  0
  -24.6397  -11.6905   20.8754 C   0  0  0  0  0  0
  -23.9070  -10.4298   21.0414 C   0  0  0  0  0  0
  -24.3625   -9.4211   21.9193 C   0  0  0  0  0  0
  -23.6293   -8.2246   22.0760 C   0  0  0  0  0  0
  -22.4275   -8.0291   21.3543 C   0  0  0  0  0  0
  -21.9918   -9.0265   20.4652 C   0  0  0  0  0  0
  -22.7242  -10.2146   20.3065 C   0  0  0  0  0  0
  -21.6858   -6.0747   22.5284 C   0  0  0  0  0  0
  -21.4007   -6.5650   23.8212 C   0  0  0  0  0  0
  -21.3660   -5.6810   24.9171 C   0  0  0  0  0  0
  -21.6044   -4.3070   24.7233 C   0  0  0  0  0  0
  -21.8821   -3.8155   23.4348 C   0  0  0  0  0  0
  -21.9189   -4.6973   22.3394 C   0  0  0  0  0  0
  -22.7866  -13.5240   21.1847 C   0  0  0  0  0  0
  -22.1666   -4.2157   21.0973 F   0  0  0  0  0  0
  -21.5627   -3.4549   25.7739 F   0  0  0  0  0  0
  -30.0087  -13.4090   20.4136 N   0  0  0  0  0  0
  -26.2983  -12.9345   20.3310 N   0  0  0  0  0  0
  -25.9325  -11.6507   20.5767 N   0  0  0  0  0  0
  -22.0515  -12.8229   22.0406 N   0  0  0  0  0  0
  -25.4278  -15.1890   20.4085 N   0  0  0  0  0  0
  -31.8112  -14.7665   20.1517 O   0  0  0  0  0  0
  -21.6637   -6.8885   21.4239 O   0  0  0  0  0  0
  -22.3555  -14.5537   20.6684 O   0  0  0  0  0  0
  -24.6174  -31.8609   23.2015 C   0  0  0  0  0  0
  -25.9028  -32.4789   23.8325 C   0  0  1  0  0  0
  -27.2204  -27.3527   20.1018 C   0  0  0  0  0  0
  -25.5835  -33.8593   24.2211 N   0  0  0  0  0  0
  -23.4097  -30.4803   21.5473 C   0  0  2  0  0  0
  -24.8576  -28.9477   20.0985 C   0  0  0  0  0  0
  -22.7431  -29.4593   22.4978 C   0  0  0  0  0  0
  -18.0240  -28.1395   22.8464 C   0  0  0  0  0  0
  -24.1501  -36.7347   23.2640 C   0  0  0  0  0  0
  -25.9453  -30.7962   21.3771 C   0  0  0  0  0  0
  -26.0171  -29.4281   20.7173 C   0  0  0  0  0  0
  -27.1987  -28.6349   20.7211 C   0  0  0  0  0  0
  -26.0556  -26.9336   19.4236 C   0  0  0  0  0  0
  -24.8793  -27.7109   19.4340 C   0  0  0  0  0  0
  -23.6190  -29.8189   20.1585 C   0  0  0  0  0  0
  -25.4114  -36.3085   24.0295 C   0  0  1  0  0  0
  -20.5842  -28.3683   23.1342 C   0  0  2  0  0  0
  -20.6786  -26.9411   22.5452 C   0  0  0  0  0  0
  -19.5750  -26.6384   21.5262 C   0  0  0  0  0  0
  -18.1912  -26.7919   22.1639 C   0  0  0  0  0  0
  -19.1483  -28.8852   23.2892 C   0  0  0  0  0  0
  -18.9418  -30.1460   23.8868 C   0  0  0  0  0  0
  -17.6428  -30.6595   24.0569 C   0  0  0  0  0  0
  -25.9026  -34.9460   23.5064 C   0  0  0  0  0  0
  -16.5319  -29.9096   23.6336 C   0  0  0  0  0  0
  -16.7232  -28.6531   23.0307 C   0  0  0  0  0  0
  -26.4425  -31.6593   25.0695 C   0  0  0  0  0  0
  -25.3649  -31.3718   26.1423 C   0  0  0  0  0  0
  -27.0290  -30.3001   24.6158 C   0  0  0  0  0  0
  -27.5970  -32.4395   25.7446 C   0  0  0  0  0  0
  -27.5588  -37.1785   24.8412 C   0  0  0  0  0  0
  -21.4144  -29.3025   22.3726 N   0  0  0  0  0  0
  -26.4285  -37.3793   23.9381 N   0  0  0  0  0  0
  -24.6745  -31.0638   22.0982 N   0  0  0  0  0  0
  -23.4202  -28.8130   23.3024 O   0  0  0  0  0  0
  -28.3647  -26.5574   20.1730 O   0  0  0  0  0  0
  -26.5684  -34.8923   22.4692 O   0  0  0  0  0  0
  -23.5352  -32.1405   23.7380 O   0  0  0  0  0  0
  -32.1998  -20.9807   19.9810 C   0  0  0  0  0  0
  -31.0582  -21.7742   20.2142 C   0  0  0  0  0  0
  -31.8036  -19.6793   19.9181 C   0  0  0  0  0  0
  -29.9655  -20.9579   20.3275 C   0  0  0  0  0  0
  -32.6760  -18.5168   19.5440 C   0  0  0  0  0  0
  -32.1220  -21.2743   24.6642 C   0  0  0  0  0  0
  -31.7790  -23.3080   26.1214 C   0  0  0  0  0  0
  -25.5374  -24.2465   22.1566 C   0  0  0  0  0  0
  -28.5299  -21.4970   20.4544 C   0  0  0  0  0  0
  -29.7856  -22.2800   24.9226 C   0  0  0  0  0  0
  -29.6920  -18.2835   20.2265 C   0  0  0  0  0  0
  -30.2849  -17.1095   21.1403 C   0  0  0  0  0  0
  -29.1452  -21.7930   23.6046 C   0  0  0  0  0  0
  -28.3542  -25.1063   19.9184 C   0  0  0  0  0  0
  -31.3062  -22.5613   24.8632 C   0  0  0  0  0  0
  -27.7176  -24.1985   21.0436 C   0  0  2  0  0  0
  -28.2557  -22.7277   21.4358 C   0  0  2  0  0  0
  -30.4327  -19.5993   20.2137 N   0  0  0  0  0  0
  -29.8679  -15.6884   20.8684 N   0  0  0  0  0  0
  -26.2618  -24.2105   20.8861 N   0  0  0  0  0  0
  -29.2284  -22.8285   22.5471 N   0  3  0  0  0  0
  -31.4721  -12.5134   19.1304 H   0  0  0  0  0  0
  -30.3799  -11.3908   19.8900 H   0  0  0  0  0  0
  -29.7605  -11.7321   17.4776 H   0  0  0  0  0  0
  -29.6414  -13.4555   17.7293 H   0  0  0  0  0  0
  -27.8618  -11.2814   18.8755 H   0  0  0  0  0  0
  -27.3688  -12.5577   17.7948 H   0  0  0  0  0  0
  -27.6701  -14.2447   19.5071 H   0  0  0  0  0  0
  -28.7080  -12.0635   21.3896 H   0  0  0  0  0  0
  -28.4475  -13.7290   21.8264 H   0  0  0  0  0  0
  -25.2768   -9.5689   22.4767 H   0  0  0  0  0  0
  -24.0003   -7.4648   22.7492 H   0  0  0  0  0  0
  -21.0848   -8.8795   19.8965 H   0  0  0  0  0  0
  -22.3706  -10.9690   19.6186 H   0  0  0  0  0  0
  -21.2005   -7.6166   23.9712 H   0  0  0  0  0  0
  -21.1482   -6.0541   25.9076 H   0  0  0  0  0  0
  -22.0601   -2.7622   23.2846 H   0  0  0  0  0  0
  -22.4137  -11.9888   22.4775 H   0  0  0  0  0  0
  -21.1135  -13.1263   22.2631 H   0  0  0  0  0  0
  -24.6577  -15.8397   20.5135 H   0  0  0  0  0  0
  -26.2675  -15.6277   20.0520 H   0  0  0  0  0  0
  -26.7135  -32.5443   23.1101 H   0  0  0  0  0  0
  -24.9771  -33.9711   25.0209 H   0  0  0  0  0  0
  -22.7016  -31.2989   21.4147 H   0  0  0  0  0  0
  -23.3736  -35.9708   23.3240 H   0  0  0  0  0  0
  -24.3581  -36.9052   22.2066 H   0  0  0  0  0  0
  -23.7296  -37.6533   23.6751 H   0  0  0  0  0  0
  -26.0790  -31.5646   20.6150 H   0  0  0  0  0  0
  -26.8258  -30.8412   22.0056 H   0  0  0  0  0  0
  -28.0879  -28.9873   21.2261 H   0  0  0  0  0  0
  -26.0376  -26.0119   18.8651 H   0  0  0  0  0  0
  -24.0009  -27.3637   18.9080 H   0  0  0  0  0  0
  -23.7243  -30.5997   19.4043 H   0  0  0  0  0  0
  -22.7413  -29.2432   19.8635 H   0  0  0  0  0  0
  -25.1319  -36.1935   25.0792 H   0  0  0  0  0  0
  -20.9878  -28.3292   24.1490 H   0  0  0  0  0  0
  -20.5829  -26.2242   23.3638 H   0  0  0  0  0  0
  -21.6648  -26.7567   22.1163 H   0  0  0  0  0  0
  -19.6946  -25.6310   21.1264 H   0  0  0  0  0  0
  -19.6713  -27.3236   20.6837 H   0  0  0  0  0  0
  -17.4217  -26.6640   21.4022 H   0  0  0  0  0  0
  -18.0262  -26.0092   22.9043 H   0  0  0  0  0  0
  -19.7916  -30.7268   24.2216 H   0  0  0  0  0  0
  -17.5006  -31.6257   24.5224 H   0  0  0  0  0  0
  -15.5327  -30.3012   23.7695 H   0  0  0  0  0  0
  -15.8609  -28.0914   22.6983 H   0  0  0  0  0  0
  -24.5784  -30.7144   25.7674 H   0  0  0  0  0  0
  -24.8888  -32.2905   26.4885 H   0  0  0  0  0  0
  -25.7938  -30.8806   27.0162 H   0  0  0  0  0  0
  -26.2861  -29.6703   24.1235 H   0  0  0  0  0  0
  -27.4023  -29.7311   25.4676 H   0  0  0  0  0  0
  -27.8721  -30.4240   23.9354 H   0  0  0  0  0  0
  -27.2514  -33.3693   26.1984 H   0  0  0  0  0  0
  -28.3734  -32.6959   25.0224 H   0  0  0  0  0  0
  -28.0686  -31.8568   26.5358 H   0  0  0  0  0  0
  -28.2520  -38.0169   24.7565 H   0  0  0  0  0  0
  -28.1176  -36.2695   24.6137 H   0  0  0  0  0  0
  -27.2285  -37.1269   25.8801 H   0  0  0  0  0  0
  -20.9335  -29.8703   21.6894 H   0  0  0  0  0  0
  -26.0158  -38.2842   24.1461 H   0  0  0  0  0  0
  -33.2082  -21.3373   19.8131 H   0  0  0  0  0  0
  -31.0447  -22.8559   20.2386 H   0  0  0  0  0  0
  -33.4377  -18.8295   18.8289 H   0  0  0  0  0  0
  -32.1184  -17.7094   19.0712 H   0  0  0  0  0  0
  -33.2048  -18.1197   20.4114 H   0  0  0  0  0  0
  -33.1916  -21.4904   24.6293 H   0  0  0  0  0  0
  -31.8678  -20.7732   23.7299 H   0  0  0  0  0  0
  -31.9536  -20.5683   25.4786 H   0  0  0  0  0  0
  -32.8428  -23.5471   26.0591 H   0  0  0  0  0  0
  -31.6243  -22.7156   27.0247 H   0  0  0  0  0  0
  -31.2448  -24.2513   26.2486 H   0  0  0  0  0  0
  -24.4698  -24.3668   21.9680 H   0  0  0  0  0  0
  -25.8440  -25.0893   22.7788 H   0  0  0  0  0  0
  -25.6614  -23.3322   22.7378 H   0  0  0  0  0  0
  -27.8809  -20.6766   20.7597 H   0  0  0  0  0  0
  -28.1726  -21.7702   19.4617 H   0  0  0  0  0  0
  -29.5886  -21.5440   25.7056 H   0  0  0  0  0  0
  -29.2627  -23.1816   25.2447 H   0  0  0  0  0  0
  -28.6548  -18.4675   20.5021 H   0  0  0  0  0  0
  -29.6619  -17.9377   19.1935 H   0  0  0  0  0  0
  -30.0013  -17.3236   22.1705 H   0  0  0  0  0  0
  -31.3683  -17.1240   21.1742 H   0  0  0  0  0  0
  -28.1031  -21.5525   23.8195 H   0  0  0  0  0  0
  -29.6003  -20.8663   23.2543 H   0  0  0  0  0  0
  -27.9462  -24.8777   18.9343 H   0  0  0  0  0  0
  -29.4087  -24.8421   19.8414 H   0  0  0  0  0  0
  -31.5130  -23.2211   24.0196 H   0  0  0  0  0  0
  -27.8966  -24.7946   21.9404 H   0  0  0  0  0  0
  -27.3780  -22.3362   21.9454 H   0  0  0  0  0  0
  -28.9063  -15.4633   21.0769 H   0  0  0  0  0  0
  -26.0256  -25.0713   20.3990 H   0  0  0  0  0  0
  -30.1573  -22.8305   22.1560 H   0  0  0  0  0  0
  -29.0714  -23.7191   22.9896 H   0  0  0  0  0  0
  1 25  1  0  0  0
  1 30  2  0  0  0
  1 89  1  0  0  0
  2  3  1  0  0  0
  2 25  1  0  0  0
  2 92  1  0  0  0
  2 93  1  0  0  0
  3  4  1  0  0  0
  3 94  1  0  0  0
  3 95  1  0  0  0
  4  5  1  0  0  0
  4 96  1  0  0  0
  4 97  1  0  0  0
  5  6  1  0  0  0
  5 26  1  0  0  0
  5 98  1  0  0  0
  6 25  1  0  0  0
  6 99  1  0  0  0
  6100  1  0  0  0
  7  8  2  0  0  0
  7 26  1  0  0  0
  7 29  1  0  0  0
  8  9  1  0  0  0
  8 22  1  0  0  0
  9 10  1  0  0  0
  9 27  2  0  0  0
 10 11  2  0  0  0
 10 15  1  0  0  0
 11 12  1  0  0  0
 11101  1  0  0  0
 12 13  2  0  0  0
 12102  1  0  0  0
 13 14  1  0  0  0
 13 31  1  0  0  0
 14 15  2  0  0  0
 14103  1  0  0  0
 15104  1  0  0  0
 16 17  2  0  0  0
 16 21  1  0  0  0
 16 31  1  0  0  0
 17 18  1  0  0  0
 17105  1  0  0  0
 18 19  2  0  0  0
 18106  1  0  0  0
 19 20  1  0  0  0
 19 24  1  0  0  0
 20 21  2  0  0  0
 20107  1  0  0  0
 21 23  1  0  0  0
 22 28  1  0  0  0
 22 32  2  0  0  0
 26 27  1  0  0  0
 28108  1  0  0  0
 28109  1  0  0  0
 29110  1  0  0  0
 29111  1  0  0  0
 33 34  1  0  0  0
 33 66  1  0  0  0
 33 70  2  0  0  0
 34 36  1  0  0  0
 34 59  1  0  0  0
 34112  1  0  0  0
 35 44  2  0  0  0
 35 45  1  0  0  0
 35 68  1  0  0  0
 36 56  1  0  0  0
 36113  1  0  0  0
 37 39  1  0  0  0
 37 47  1  0  0  0
 37 66  1  0  0  0
 37114  1  0  0  0
 38 43  2  0  0  0
 38 46  1  0  0  0
 38 47  1  0  0  0
 39 64  1  0  0  0
 39 67  2  0  0  0
 40 52  1  0  0  0
 40 53  2  0  0  0
 40 58  1  0  0  0
 41115  1  0  0  0
 41116  1  0  0  0
 41117  1  0  0  0
 41 48  1  0  0  0
 42 43  1  0  0  0
 42 66  1  0  0  0
 42118  1  0  0  0
 42119  1  0  0  0
 43 44  1  0  0  0
 44120  1  0  0  0
 45 46  2  0  0  0
 45121  1  0  0  0
 46122  1  0  0  0
 47123  1  0  0  0
 47124  1  0  0  0
 48 56  1  0  0  0
 48 65  1  0  0  0
 48125  1  0  0  0
 49 50  1  0  0  0
 49 53  1  0  0  0
 49 64  1  0  0  0
 49126  1  0  0  0
 50 51  1  0  0  0
 50127  1  0  0  0
 50128  1  0  0  0
 51 52  1  0  0  0
 51129  1  0  0  0
 51130  1  0  0  0
 52131  1  0  0  0
 52132  1  0  0  0
 53 54  1  0  0  0
 54 55  2  0  0  0
 54133  1  0  0  0
 55 57  1  0  0  0
 55134  1  0  0  0
 56 69  2  0  0  0
 57 58  2  0  0  0
 57135  1  0  0  0
 58136  1  0  0  0
 59 60  1  0  0  0
 59 61  1  0  0  0
 59 62  1  0  0  0
 60137  1  0  0  0
 60138  1  0  0  0
 60139  1  0  0  0
 61140  1  0  0  0
 61141  1  0  0  0
 61142  1  0  0  0
 62143  1  0  0  0
 62144  1  0  0  0
 62145  1  0  0  0
 63 65  1  0  0  0
 63146  1  0  0  0
 63147  1  0  0  0
 63148  1  0  0  0
 64149  1  0  0  0
 65150  1  0  0  0
 68 84  1  0  0  0
 71 72  1  0  0  0
 71 73  2  0  0  0
 71151  1  0  0  0
 72 74  2  0  0  0
 72152  1  0  0  0
 73 75  1  0  0  0
 73 88  1  0  0  0
 74 79  1  0  0  0
 74 88  1  0  0  0
 75153  1  0  0  0
 75154  1  0  0  0
 75155  1  0  0  0
 76156  1  0  0  0
 76157  1  0  0  0
 76158  1  0  0  0
 76 85  1  0  0  0
 77 85  1  0  0  0
 77159  1  0  0  0
 77160  1  0  0  0
 77161  1  0  0  0
 78 90  1  0  0  0
 78162  1  0  0  0
 78163  1  0  0  0
 78164  1  0  0  0
 79165  1  0  0  0
 79166  1  0  0  0
 79 87  1  0  0  0
 80 83  1  0  0  0
 80 85  1  0  0  0
 80167  1  0  0  0
 80168  1  0  0  0
 81 82  1  0  0  0
 81 88  1  0  0  0
 81169  1  0  0  0
 81170  1  0  0  0
 82 89  1  0  0  0
 82171  1  0  0  0
 82172  1  0  0  0
 83 91  1  0  0  0
 83173  1  0  0  0
 83174  1  0  0  0
 84175  1  0  0  0
 84176  1  0  0  0
 84 86  1  0  0  0
 85177  1  0  0  0
 86 87  1  0  0  0
 86 90  1  0  0  0
 86178  1  0  0  0
 87 91  1  0  0  0
 87179  1  0  0  0
 89180  1  0  0  0
 90181  1  0  0  0
 91182  1  0  0  0
 91183  1  0  0  0
M  CHG  1  91   1
M  ISO  4   1 100  68 101  84 101  89 100
M  END
> <chiral flag>
0

> <version>
0

> <s_m_source_file>
/data/baiqing/PycharmProjects/Reinvent-master-3.2/result/LINK_invent/BTK/process_docking_weight1_custom_sum_contain_oxygen_bond_distance_aromatic_linkinvent_7_9_3/rearranged_h_0110.sdf

> <i_m_source_file_index>
82

> <r_mmod_Potential_Energy-OPLS-2005>
12.5862922668457

> <r_mmod_Stretch_Energy-OPLS-2005>
87.3475189208984

> <r_mmod_Bend_Energy-OPLS-2005>
202.943572998047

> <r_mmod_Torsional_Energy-OPLS-2005>
285.478149414062

> <r_mmod_Improper_Torsional_Energy-OPLS-2005>
4.69553709030151

> <r_mmod_Van_der_Waal_Energy-OPLS-2005>
120.13948059082

> <r_mmod_Electrostatic_Energy-OPLS-2005>
-300.648590087891

> <r_mmod_Solvation_Energy-OPLS-2005>
-428.068572998047

> <b_mmod_Minimization_Converged-OPLS-2005>
0

> <r_mmod_RMS_Derivative-OPLS-2005>
3.74938941001892

$$$$
83
                    3D
 Structure written by MMmdl.
160167  0  0  1  0            999 V2000
  -30.7006  -14.5114   20.4803 C   0  0  0  0  0  0
  -30.4204  -12.3075   19.4278 C   0  0  0  0  0  0
  -29.4862  -12.4547   18.2086 C   0  0  0  0  0  0
  -28.0123  -12.3196   18.6411 C   0  0  0  0  0  0
  -27.6508  -13.2057   19.8619 C   0  0  2  0  0  0
  -28.7023  -13.0507   20.9847 C   0  0  0  0  0  0
  -25.2548  -13.8180   20.5686 C   0  0  0  0  0  0
  -24.1806  -13.0432   20.9198 C   0  0  0  0  0  0
  -24.6376  -11.6902   20.8767 C   0  0  0  0  0  0
  -23.9049  -10.4271   21.0404 C   0  0  0  0  0  0
  -24.3586   -9.4192   21.9188 C   0  0  0  0  0  0
  -23.6259   -8.2233   22.0758 C   0  0  0  0  0  0
  -22.4252   -8.0261   21.3533 C   0  0  0  0  0  0
  -21.9897   -9.0234   20.4623 C   0  0  0  0  0  0
  -22.7236  -10.2113   20.3028 C   0  0  0  0  0  0
  -21.6845   -6.0716   22.5274 C   0  0  0  0  0  0
  -21.4015   -6.5628   23.8204 C   0  0  0  0  0  0
  -21.3652   -5.6787   24.9168 C   0  0  0  0  0  0
  -21.6034   -4.3049   24.7230 C   0  0  0  0  0  0
  -21.8814   -3.8133   23.4355 C   0  0  0  0  0  0
  -21.9184   -4.6943   22.3403 C   0  0  0  0  0  0
  -22.7823  -13.5217   21.1844 C   0  0  0  0  0  0
  -22.1651   -4.2111   21.0988 F   0  0  0  0  0  0
  -21.5616   -3.4542   25.7753 F   0  0  0  0  0  0
  -30.0230  -13.3328   20.4048 N   0  0  0  0  0  0
  -26.2968  -12.9338   20.3359 N   0  0  0  0  0  0
  -25.9308  -11.6505   20.5846 N   0  0  0  0  0  0
  -22.0449  -12.8161   22.0362 N   0  0  0  0  0  0
  -25.4253  -15.1893   20.4088 N   0  0  0  0  0  0
  -31.9021  -14.5931   20.2138 O   0  0  0  0  0  0
  -21.6620   -6.8859   21.4230 O   0  0  0  0  0  0
  -22.3513  -14.5529   20.6703 O   0  0  0  0  0  0
  -24.6182  -31.8641   23.2077 C   0  0  0  0  0  0
  -25.9067  -32.4802   23.8394 C   0  0  1  0  0  0
  -27.2358  -27.4133   20.1093 C   0  0  0  0  0  0
  -25.5906  -33.8603   24.2344 N   0  0  0  0  0  0
  -23.4065  -30.4845   21.5497 C   0  0  2  0  0  0
  -24.8541  -28.9443   20.1197 C   0  0  0  0  0  0
  -22.7427  -29.4617   22.4999 C   0  0  0  0  0  0
  -18.0256  -28.1358   22.8487 C   0  0  0  0  0  0
  -24.1479  -36.7297   23.2642 C   0  0  0  0  0  0
  -25.9348  -30.8301   21.3554 C   0  0  0  0  0  0
  -26.0172  -29.4589   20.7097 C   0  0  0  0  0  0
  -27.2152  -28.7032   20.6955 C   0  0  0  0  0  0
  -26.0558  -26.9149   19.5178 C   0  0  0  0  0  0
  -24.8689  -27.6729   19.5181 C   0  0  0  0  0  0
  -23.6157  -29.8129   20.1675 C   0  0  0  0  0  0
  -25.4095  -36.3092   24.0348 C   0  0  1  0  0  0
  -20.5851  -28.3648   23.1313 C   0  0  2  0  0  0
  -20.6755  -26.9390   22.5393 C   0  0  0  0  0  0
  -19.5739  -26.6394   21.5180 C   0  0  0  0  0  0
  -18.1920  -26.7917   22.1602 C   0  0  0  0  0  0
  -19.1508  -28.8822   23.2898 C   0  0  0  0  0  0
  -18.9444  -30.1428   23.8908 C   0  0  0  0  0  0
  -17.6458  -30.6584   24.0554 C   0  0  0  0  0  0
  -25.9023  -34.9465   23.5144 C   0  0  0  0  0  0
  -16.5338  -29.9084   23.6342 C   0  0  0  0  0  0
  -16.7252  -28.6493   23.0363 C   0  0  0  0  0  0
  -26.4508  -31.6549   25.0692 C   0  0  0  0  0  0
  -25.3785  -31.3548   26.1423 C   0  0  0  0  0  0
  -27.0393  -30.3042   24.5990 C   0  0  0  0  0  0
  -27.6078  -32.4255   25.7470 C   0  0  0  0  0  0
  -27.5573  -37.1796   24.8486 C   0  0  0  0  0  0
  -21.4148  -29.3024   22.3751 N   0  0  0  0  0  0
  -26.4287  -37.3776   23.9420 N   0  0  0  0  0  0
  -24.6722  -31.0740   22.0979 N   0  0  0  0  0  0
  -23.4183  -28.8167   23.3057 O   0  0  0  0  0  0
  -28.3836  -26.6455   20.0978 O   0  0  0  0  0  0
  -26.5577  -34.8914   22.4698 O   0  0  0  0  0  0
  -23.5361  -32.1388   23.7464 O   0  0  0  0  0  0
  -29.5545  -17.8933   21.3375 C   0  0  0  0  0  0
  -27.3470  -18.5801   20.1772 C   0  0  0  0  0  0
  -30.1290  -16.2611   18.9157 C   0  0  0  0  0  0
  -29.2159  -16.3732   21.2620 C   0  0  0  0  0  0
  -28.6219  -22.8193   20.9042 C   0  0  0  0  0  0
  -28.5883  -24.1125   20.0260 C   0  0  0  0  0  0
  -28.8645  -21.4748   20.1465 C   0  0  0  0  0  0
  -28.3142  -25.4091   20.8437 C   0  0  0  0  0  0
  -28.8307  -18.9352   20.4180 C   0  0  1  0  0  0
  -29.9300  -15.5999   20.2157 N   0  0  0  0  0  0
  -28.9870  -20.2842   21.0470 N   0  3  0  0  0  0
  -30.4300  -18.2532   22.1288 O   0  0  0  0  0  0
  -31.4626  -12.3997   19.1165 H   0  0  0  0  0  0
  -30.3240  -11.3132   19.8668 H   0  0  0  0  0  0
  -29.7202  -11.6923   17.4628 H   0  0  0  0  0  0
  -29.6455  -13.4171   17.7231 H   0  0  0  0  0  0
  -27.8478  -11.2726   18.8965 H   0  0  0  0  0  0
  -27.3474  -12.5312   17.8035 H   0  0  0  0  0  0
  -27.6718  -14.2372   19.5129 H   0  0  0  0  0  0
  -28.6842  -12.0370   21.3868 H   0  0  0  0  0  0
  -28.4837  -13.7134   21.8221 H   0  0  0  0  0  0
  -25.2712   -9.5675   22.4782 H   0  0  0  0  0  0
  -23.9936   -7.4633   22.7507 H   0  0  0  0  0  0
  -21.0827   -8.8772   19.8927 H   0  0  0  0  0  0
  -22.3710  -10.9647   19.6116 H   0  0  0  0  0  0
  -21.2035   -7.6140   23.9702 H   0  0  0  0  0  0
  -21.1458   -6.0519   25.9068 H   0  0  0  0  0  0
  -22.0595   -2.7592   23.2881 H   0  0  0  0  0  0
  -22.4055  -11.9806   22.4722 H   0  0  0  0  0  0
  -21.1045  -13.1146   22.2524 H   0  0  0  0  0  0
  -24.6607  -15.8464   20.5195 H   0  0  0  0  0  0
  -26.2692  -15.6220   20.0604 H   0  0  0  0  0  0
  -26.7112  -32.5542   23.1138 H   0  0  0  0  0  0
  -25.0097  -33.9739   25.0528 H   0  0  0  0  0  0
  -22.6942  -31.2994   21.4094 H   0  0  0  0  0  0
  -23.3736  -35.9639   23.3312 H   0  0  0  0  0  0
  -24.3563  -36.8907   22.2054 H   0  0  0  0  0  0
  -23.7234  -37.6507   23.6650 H   0  0  0  0  0  0
  -26.0266  -31.5900   20.5778 H   0  0  0  0  0  0
  -26.8298  -30.9016   21.9620 H   0  0  0  0  0  0
  -28.1148  -29.0949   21.1506 H   0  0  0  0  0  0
  -26.0588  -25.9366   19.0570 H   0  0  0  0  0  0
  -23.9724  -27.2708   19.0648 H   0  0  0  0  0  0
  -23.7171  -30.5836   19.4022 H   0  0  0  0  0  0
  -22.7410  -29.2269   19.8809 H   0  0  0  0  0  0
  -25.1258  -36.1947   25.0845 H   0  0  0  0  0  0
  -20.9920  -28.3194   24.1436 H   0  0  0  0  0  0
  -20.5653  -26.2244   23.3561 H   0  0  0  0  0  0
  -21.6626  -26.7445   22.1175 H   0  0  0  0  0  0
  -19.6898  -25.6318   21.1171 H   0  0  0  0  0  0
  -19.6663  -27.3232   20.6736 H   0  0  0  0  0  0
  -17.4177  -26.6654   21.4006 H   0  0  0  0  0  0
  -18.0321  -26.0042   22.8992 H   0  0  0  0  0  0
  -19.7931  -30.7229   24.2274 H   0  0  0  0  0  0
  -17.5023  -31.6263   24.5149 H   0  0  0  0  0  0
  -15.5333  -30.2987   23.7685 H   0  0  0  0  0  0
  -15.8641  -28.0822   22.7079 H   0  0  0  0  0  0
  -24.6043  -30.6802   25.7742 H   0  0  0  0  0  0
  -24.8862  -32.2638   26.4887 H   0  0  0  0  0  0
  -25.8187  -30.8734   27.0168 H   0  0  0  0  0  0
  -26.2955  -29.6709   24.1131 H   0  0  0  0  0  0
  -27.4364  -29.7307   25.4374 H   0  0  0  0  0  0
  -27.8670  -30.4442   23.9026 H   0  0  0  0  0  0
  -27.2746  -33.3591   26.1997 H   0  0  0  0  0  0
  -28.3934  -32.6717   25.0323 H   0  0  0  0  0  0
  -28.0678  -31.8384   26.5418 H   0  0  0  0  0  0
  -28.2585  -38.0104   24.7550 H   0  0  0  0  0  0
  -28.1082  -36.2628   24.6317 H   0  0  0  0  0  0
  -27.2274  -37.1446   25.8888 H   0  0  0  0  0  0
  -20.9311  -29.8784   21.7005 H   0  0  0  0  0  0
  -26.0169  -38.2859   24.1423 H   0  0  0  0  0  0
  -27.2530  -17.6775   19.5726 H   0  0  0  0  0  0
  -26.8250  -19.3652   19.6298 H   0  0  0  0  0  0
  -26.8075  -18.4109   21.1103 H   0  0  0  0  0  0
  -29.1919  -16.6671   18.5349 H   0  0  0  0  0  0
  -30.4916  -15.5615   18.1599 H   0  0  0  0  0  0
  -30.8712  -17.0585   18.9822 H   0  0  0  0  0  0
  -28.1439  -16.2281   21.1437 H   0  0  0  0  0  0
  -29.4484  -15.9480   22.2405 H   0  0  0  0  0  0
  -27.6745  -22.7458   21.4400 H   0  0  0  0  0  0
  -29.3869  -22.9417   21.6719 H   0  0  0  0  0  0
  -27.8245  -24.0069   19.2552 H   0  0  0  0  0  0
  -29.5395  -24.2161   19.5021 H   0  0  0  0  0  0
  -29.7697  -21.5466   19.5397 H   0  0  0  0  0  0
  -28.0418  -21.3201   19.4470 H   0  0  0  0  0  0
  -29.0641  -25.4833   21.6316 H   0  0  0  0  0  0
  -27.3595  -25.3115   21.3647 H   0  0  0  0  0  0
  -29.3517  -18.9551   19.4610 H   0  0  0  0  0  0
  -28.3322  -20.3517   21.8086 H   0  0  0  0  0  0
  -29.9070  -20.2771   21.4662 H   0  0  0  0  0  0
  1 25  1  0  0  0
  1 30  2  0  0  0
  1 80  1  0  0  0
  2  3  1  0  0  0
  2 25  1  0  0  0
  2 83  1  0  0  0
  2 84  1  0  0  0
  3  4  1  0  0  0
  3 85  1  0  0  0
  3 86  1  0  0  0
  4  5  1  0  0  0
  4 87  1  0  0  0
  4 88  1  0  0  0
  5  6  1  0  0  0
  5 26  1  0  0  0
  5 89  1  0  0  0
  6 25  1  0  0  0
  6 90  1  0  0  0
  6 91  1  0  0  0
  7  8  2  0  0  0
  7 26  1  0  0  0
  7 29  1  0  0  0
  8  9  1  0  0  0
  8 22  1  0  0  0
  9 10  1  0  0  0
  9 27  2  0  0  0
 10 11  2  0  0  0
 10 15  1  0  0  0
 11 12  1  0  0  0
 11 92  1  0  0  0
 12 13  2  0  0  0
 12 93  1  0  0  0
 13 14  1  0  0  0
 13 31  1  0  0  0
 14 15  2  0  0  0
 14 94  1  0  0  0
 15 95  1  0  0  0
 16 17  2  0  0  0
 16 21  1  0  0  0
 16 31  1  0  0  0
 17 18  1  0  0  0
 17 96  1  0  0  0
 18 19  2  0  0  0
 18 97  1  0  0  0
 19 20  1  0  0  0
 19 24  1  0  0  0
 20 21  2  0  0  0
 20 98  1  0  0  0
 21 23  1  0  0  0
 22 28  1  0  0  0
 22 32  2  0  0  0
 26 27  1  0  0  0
 28 99  1  0  0  0
 28100  1  0  0  0
 29101  1  0  0  0
 29102  1  0  0  0
 33 34  1  0  0  0
 33 66  1  0  0  0
 33 70  2  0  0  0
 34 36  1  0  0  0
 34 59  1  0  0  0
 34103  1  0  0  0
 35 44  2  0  0  0
 35 45  1  0  0  0
 35 68  1  0  0  0
 36 56  1  0  0  0
 36104  1  0  0  0
 37 39  1  0  0  0
 37 47  1  0  0  0
 37 66  1  0  0  0
 37105  1  0  0  0
 38 43  2  0  0  0
 38 46  1  0  0  0
 38 47  1  0  0  0
 39 64  1  0  0  0
 39 67  2  0  0  0
 40 52  1  0  0  0
 40 53  2  0  0  0
 40 58  1  0  0  0
 41106  1  0  0  0
 41107  1  0  0  0
 41108  1  0  0  0
 41 48  1  0  0  0
 42 43  1  0  0  0
 42 66  1  0  0  0
 42109  1  0  0  0
 42110  1  0  0  0
 43 44  1  0  0  0
 44111  1  0  0  0
 45 46  2  0  0  0
 45112  1  0  0  0
 46113  1  0  0  0
 47114  1  0  0  0
 47115  1  0  0  0
 48 56  1  0  0  0
 48 65  1  0  0  0
 48116  1  0  0  0
 49 50  1  0  0  0
 49 53  1  0  0  0
 49 64  1  0  0  0
 49117  1  0  0  0
 50 51  1  0  0  0
 50118  1  0  0  0
 50119  1  0  0  0
 51 52  1  0  0  0
 51120  1  0  0  0
 51121  1  0  0  0
 52122  1  0  0  0
 52123  1  0  0  0
 53 54  1  0  0  0
 54 55  2  0  0  0
 54124  1  0  0  0
 55 57  1  0  0  0
 55125  1  0  0  0
 56 69  2  0  0  0
 57 58  2  0  0  0
 57126  1  0  0  0
 58127  1  0  0  0
 59 60  1  0  0  0
 59 61  1  0  0  0
 59 62  1  0  0  0
 60128  1  0  0  0
 60129  1  0  0  0
 60130  1  0  0  0
 61131  1  0  0  0
 61132  1  0  0  0
 61133  1  0  0  0
 62134  1  0  0  0
 62135  1  0  0  0
 62136  1  0  0  0
 63 65  1  0  0  0
 63137  1  0  0  0
 63138  1  0  0  0
 63139  1  0  0  0
 64140  1  0  0  0
 65141  1  0  0  0
 68 78  1  0  0  0
 71 74  1  0  0  0
 71 79  1  0  0  0
 71 82  2  0  0  0
 72142  1  0  0  0
 72143  1  0  0  0
 72144  1  0  0  0
 72 79  1  0  0  0
 73 80  1  0  0  0
 73145  1  0  0  0
 73146  1  0  0  0
 73147  1  0  0  0
 74 80  1  0  0  0
 74148  1  0  0  0
 74149  1  0  0  0
 75 76  1  0  0  0
 75 77  1  0  0  0
 75150  1  0  0  0
 75151  1  0  0  0
 76 78  1  0  0  0
 76152  1  0  0  0
 76153  1  0  0  0
 77 81  1  0  0  0
 77154  1  0  0  0
 77155  1  0  0  0
 78156  1  0  0  0
 78157  1  0  0  0
 79 81  1  0  0  0
 79158  1  0  0  0
 81159  1  0  0  0
 81160  1  0  0  0
M  CHG  1  81   1
M  ISO  4   1 100  68 101  78 101  80 100
M  END
> <chiral flag>
0

> <version>
0

> <s_m_source_file>
/data/baiqing/PycharmProjects/Reinvent-master-3.2/result/LINK_invent/BTK/process_docking_weight1_custom_sum_contain_oxygen_bond_distance_aromatic_linkinvent_7_9_3/rearranged_h_0110.sdf

> <i_m_source_file_index>
83

> <r_mmod_Potential_Energy-OPLS-2005>
-132.662353515625

> <r_mmod_Stretch_Energy-OPLS-2005>
45.6955146789551

> <r_mmod_Bend_Energy-OPLS-2005>
102.690773010254

> <r_mmod_Torsional_Energy-OPLS-2005>
315.470031738281

> <r_mmod_Improper_Torsional_Energy-OPLS-2005>
23.3430633544922

> <r_mmod_Van_der_Waal_Energy-OPLS-2005>
124.955146789551

> <r_mmod_Electrostatic_Energy-OPLS-2005>
-299.326507568359

> <r_mmod_Solvation_Energy-OPLS-2005>
-470.012115478516

> <b_mmod_Minimization_Converged-OPLS-2005>
0

> <r_mmod_RMS_Derivative-OPLS-2005>
2.93516826629639

$$$$
84
                    3D
 Structure written by MMmdl.
161168  0  0  1  0            999 V2000
  -30.7219  -14.4849   20.5509 C   0  0  0  0  0  0
  -30.4182  -12.3123   19.4176 C   0  0  0  0  0  0
  -29.5023  -12.5430   18.2005 C   0  0  0  0  0  0
  -28.0218  -12.3975   18.6084 C   0  0  0  0  0  0
  -27.6687  -13.2187   19.8784 C   0  0  2  0  0  0
  -28.7167  -13.0047   20.9966 C   0  0  0  0  0  0
  -25.2653  -13.8160   20.5753 C   0  0  0  0  0  0
  -24.1881  -13.0426   20.9217 C   0  0  0  0  0  0
  -24.6443  -11.6920   20.8721 C   0  0  0  0  0  0
  -23.9100  -10.4302   21.0391 C   0  0  0  0  0  0
  -24.3614   -9.4208   21.9164 C   0  0  0  0  0  0
  -23.6307   -8.2237   22.0741 C   0  0  0  0  0  0
  -22.4269   -8.0287   21.3563 C   0  0  0  0  0  0
  -21.9919   -9.0264   20.4661 C   0  0  0  0  0  0
  -22.7271  -10.2140   20.3080 C   0  0  0  0  0  0
  -21.6860   -6.0750   22.5308 C   0  0  0  0  0  0
  -21.3989   -6.5646   23.8242 C   0  0  0  0  0  0
  -21.3665   -5.6796   24.9199 C   0  0  0  0  0  0
  -21.6041   -4.3064   24.7235 C   0  0  0  0  0  0
  -21.8818   -3.8165   23.4366 C   0  0  0  0  0  0
  -21.9173   -4.6974   22.3426 C   0  0  0  0  0  0
  -22.7907  -13.5257   21.1856 C   0  0  0  0  0  0
  -22.1662   -4.2169   21.1004 F   0  0  0  0  0  0
  -21.5626   -3.4539   25.7747 F   0  0  0  0  0  0
  -30.0436  -13.3076   20.4402 N   0  0  0  0  0  0
  -26.3093  -12.9354   20.3415 N   0  0  0  0  0  0
  -25.9383  -11.6492   20.5768 N   0  0  0  0  0  0
  -22.0496  -12.8283   22.0398 N   0  0  0  0  0  0
  -25.4336  -15.1881   20.4207 N   0  0  0  0  0  0
  -31.8546  -14.6360   20.0869 O   0  0  0  0  0  0
  -21.6638   -6.8882   21.4285 O   0  0  0  0  0  0
  -22.3630  -14.5571   20.6733 O   0  0  0  0  0  0
  -24.6127  -31.8674   23.2092 C   0  0  0  0  0  0
  -25.9032  -32.4836   23.8384 C   0  0  1  0  0  0
  -27.2210  -27.4383   20.0878 C   0  0  0  0  0  0
  -25.5911  -33.8630   24.2320 N   0  0  0  0  0  0
  -23.3988  -30.4908   21.5552 C   0  0  2  0  0  0
  -24.8404  -28.9577   20.1151 C   0  0  0  0  0  0
  -22.7366  -29.4627   22.5000 C   0  0  0  0  0  0
  -18.0263  -28.1363   22.8543 C   0  0  0  0  0  0
  -24.1485  -36.7256   23.2636 C   0  0  0  0  0  0
  -25.9277  -30.8364   21.3567 C   0  0  0  0  0  0
  -26.0034  -29.4707   20.7053 C   0  0  0  0  0  0
  -27.2006  -28.7210   20.6823 C   0  0  0  0  0  0
  -26.0456  -26.9371   19.4950 C   0  0  0  0  0  0
  -24.8554  -27.6893   19.5086 C   0  0  0  0  0  0
  -23.6048  -29.8275   20.1669 C   0  0  0  0  0  0
  -25.4112  -36.3109   24.0363 C   0  0  1  0  0  0
  -20.5853  -28.3631   23.1354 C   0  0  2  0  0  0
  -20.6733  -26.9365   22.5438 C   0  0  0  0  0  0
  -19.5706  -26.6387   21.5230 C   0  0  0  0  0  0
  -18.1895  -26.7928   22.1647 C   0  0  0  0  0  0
  -19.1521  -28.8813   23.2952 C   0  0  0  0  0  0
  -18.9455  -30.1428   23.8935 C   0  0  0  0  0  0
  -17.6463  -30.6585   24.0589 C   0  0  0  0  0  0
  -25.9047  -34.9489   23.5140 C   0  0  0  0  0  0
  -16.5340  -29.9109   23.6345 C   0  0  0  0  0  0
  -16.7261  -28.6514   23.0388 C   0  0  0  0  0  0
  -26.4460  -31.6609   25.0702 C   0  0  0  0  0  0
  -25.3734  -31.3714   26.1463 C   0  0  0  0  0  0
  -27.0267  -30.3082   24.6010 C   0  0  0  0  0  0
  -27.6058  -32.4289   25.7463 C   0  0  0  0  0  0
  -27.5580  -37.1783   24.8485 C   0  0  0  0  0  0
  -21.4082  -29.3028   22.3777 N   0  0  0  0  0  0
  -26.4275  -37.3817   23.9449 N   0  0  0  0  0  0
  -24.6665  -31.0764   22.1029 N   0  0  0  0  0  0
  -23.4153  -28.8148   23.3006 O   0  0  0  0  0  0
  -28.3799  -26.6941   20.0603 O   0  0  0  0  0  0
  -26.5596  -34.8946   22.4688 O   0  0  0  0  0  0
  -23.5312  -32.1399   23.7518 O   0  0  0  0  0  0
  -30.6496  -23.2566   20.6869 C   0  0  0  0  0  0
  -28.7241  -18.0151   22.4222 C   0  0  0  0  0  0
  -29.8153  -19.4625   20.6170 C   0  0  0  0  0  0
  -28.5101  -24.1948   19.6746 C   0  0  0  0  0  0
  -30.4986  -16.9522   20.9188 C   0  0  0  0  0  0
  -28.6656  -20.4338   20.1850 C   0  0  0  0  0  0
  -28.3004  -25.3863   20.6528 C   0  0  0  0  0  0
  -29.1689  -22.9476   20.3696 C   0  0  1  0  0  0
  -29.3586  -18.0156   21.0221 C   0  0  1  0  0  0
  -30.0427  -15.5457   21.0378 N   0  0  0  0  0  0
  -29.1042  -21.7124   19.5385 N   0  3  0  0  0  0
  -28.4344  -17.6253   20.1418 F   0  0  0  0  0  0
  -31.4654  -12.3882   19.1192 H   0  0  0  0  0  0
  -30.2856  -11.2952   19.7944 H   0  0  0  0  0  0
  -29.7495  -11.8452   17.3969 H   0  0  0  0  0  0
  -29.6770  -13.5440   17.7983 H   0  0  0  0  0  0
  -27.8286  -11.3397   18.7809 H   0  0  0  0  0  0
  -27.3760  -12.6906   17.7807 H   0  0  0  0  0  0
  -27.7088  -14.2729   19.5938 H   0  0  0  0  0  0
  -28.6961  -11.9726   21.3507 H   0  0  0  0  0  0
  -28.4947  -13.6255   21.8642 H   0  0  0  0  0  0
  -25.2718   -9.5687   22.4783 H   0  0  0  0  0  0
  -24.0003   -7.4626   22.7456 H   0  0  0  0  0  0
  -21.0848   -8.8830   19.8971 H   0  0  0  0  0  0
  -22.3719  -10.9700   19.6232 H   0  0  0  0  0  0
  -21.1982   -7.6145   23.9770 H   0  0  0  0  0  0
  -21.1497   -6.0502   25.9101 H   0  0  0  0  0  0
  -22.0583   -2.7634   23.2869 H   0  0  0  0  0  0
  -22.4028  -11.9936   22.4842 H   0  0  0  0  0  0
  -21.1152  -13.1438   22.2566 H   0  0  0  0  0  0
  -24.6625  -15.8346   20.5297 H   0  0  0  0  0  0
  -26.2900  -15.6460   20.1368 H   0  0  0  0  0  0
  -26.7106  -32.5547   23.1131 H   0  0  0  0  0  0
  -25.0210  -33.9818   25.0575 H   0  0  0  0  0  0
  -22.6911  -31.3119   21.4190 H   0  0  0  0  0  0
  -23.3796  -35.9535   23.3302 H   0  0  0  0  0  0
  -24.3580  -36.8833   22.2043 H   0  0  0  0  0  0
  -23.7198  -37.6451   23.6629 H   0  0  0  0  0  0
  -26.0317  -31.6066   20.5921 H   0  0  0  0  0  0
  -26.8223  -30.8931   21.9675 H   0  0  0  0  0  0
  -28.0976  -29.1158   21.1377 H   0  0  0  0  0  0
  -26.0494  -25.9709   19.0129 H   0  0  0  0  0  0
  -23.9697  -27.2868   19.0373 H   0  0  0  0  0  0
  -23.7031  -30.6062   19.4097 H   0  0  0  0  0  0
  -22.7317  -29.2447   19.8732 H   0  0  0  0  0  0
  -25.1295  -36.1927   25.0863 H   0  0  0  0  0  0
  -20.9962  -28.3142   24.1461 H   0  0  0  0  0  0
  -20.5590  -26.2211   23.3603 H   0  0  0  0  0  0
  -21.6613  -26.7387   22.1229 H   0  0  0  0  0  0
  -19.6836  -25.6320   21.1218 H   0  0  0  0  0  0
  -19.6637  -27.3243   20.6801 H   0  0  0  0  0  0
  -17.4154  -26.6726   21.4054 H   0  0  0  0  0  0
  -18.0250  -26.0057   22.9031 H   0  0  0  0  0  0
  -19.7937  -30.7267   24.2253 H   0  0  0  0  0  0
  -17.5035  -31.6270   24.5202 H   0  0  0  0  0  0
  -15.5347  -30.3045   23.7646 H   0  0  0  0  0  0
  -15.8651  -28.0863   22.7069 H   0  0  0  0  0  0
  -24.5950  -30.6997   25.7835 H   0  0  0  0  0  0
  -24.8868  -32.2865   26.4856 H   0  0  0  0  0  0
  -25.8106  -30.8963   27.0255 H   0  0  0  0  0  0
  -26.2778  -29.6875   24.1093 H   0  0  0  0  0  0
  -27.4130  -29.7275   25.4399 H   0  0  0  0  0  0
  -27.8576  -30.4477   23.9090 H   0  0  0  0  0  0
  -27.2732  -33.3620   26.2022 H   0  0  0  0  0  0
  -28.3882  -32.6771   25.0279 H   0  0  0  0  0  0
  -28.0708  -31.8405   26.5383 H   0  0  0  0  0  0
  -28.2619  -38.0075   24.7580 H   0  0  0  0  0  0
  -28.1050  -36.2619   24.6230 H   0  0  0  0  0  0
  -27.2288  -37.1309   25.8883 H   0  0  0  0  0  0
  -20.9138  -29.8846   21.7152 H   0  0  0  0  0  0
  -26.0139  -38.2865   24.1526 H   0  0  0  0  0  0
  -30.7556  -23.8794   21.5723 H   0  0  0  0  0  0
  -31.1230  -23.8024   19.8682 H   0  0  0  0  0  0
  -31.2397  -22.3572   20.8658 H   0  0  0  0  0  0
  -29.4600  -18.2772   23.1852 H   0  0  0  0  0  0
  -28.3118  -17.0403   22.6831 H   0  0  0  0  0  0
  -27.9086  -18.7315   22.4873 H   0  0  0  0  0  0
  -30.3878  -19.9002   21.4359 H   0  0  0  0  0  0
  -30.5207  -19.3856   19.7952 H   0  0  0  0  0  0
  -29.1290  -24.5237   18.8374 H   0  0  0  0  0  0
  -27.5454  -23.9288   19.2330 H   0  0  0  0  0  0
  -30.9827  -17.0766   19.9483 H   0  0  0  0  0  0
  -31.2627  -17.1434   21.6722 H   0  0  0  0  0  0
  -27.9628  -20.6152   21.0006 H   0  0  0  0  0  0
  -28.0800  -19.9347   19.4112 H   0  0  0  0  0  0
  -27.3863  -25.2336   21.2297 H   0  0  0  0  0  0
  -29.0906  -25.3835   21.3977 H   0  0  0  0  0  0
  -28.6384  -22.7532   21.3059 H   0  0  0  0  0  0
  -29.1085  -15.3880   21.3816 H   0  0  0  0  0  0
  -28.4643  -21.8759   18.7778 H   0  0  0  0  0  0
  -30.0039  -21.5693   19.1146 H   0  0  0  0  0  0
  1 25  1  0  0  0
  1 30  2  0  0  0
  1 80  1  0  0  0
  2  3  1  0  0  0
  2 25  1  0  0  0
  2 83  1  0  0  0
  2 84  1  0  0  0
  3  4  1  0  0  0
  3 85  1  0  0  0
  3 86  1  0  0  0
  4  5  1  0  0  0
  4 87  1  0  0  0
  4 88  1  0  0  0
  5  6  1  0  0  0
  5 26  1  0  0  0
  5 89  1  0  0  0
  6 25  1  0  0  0
  6 90  1  0  0  0
  6 91  1  0  0  0
  7  8  2  0  0  0
  7 26  1  0  0  0
  7 29  1  0  0  0
  8  9  1  0  0  0
  8 22  1  0  0  0
  9 10  1  0  0  0
  9 27  2  0  0  0
 10 11  2  0  0  0
 10 15  1  0  0  0
 11 12  1  0  0  0
 11 92  1  0  0  0
 12 13  2  0  0  0
 12 93  1  0  0  0
 13 14  1  0  0  0
 13 31  1  0  0  0
 14 15  2  0  0  0
 14 94  1  0  0  0
 15 95  1  0  0  0
 16 17  2  0  0  0
 16 21  1  0  0  0
 16 31  1  0  0  0
 17 18  1  0  0  0
 17 96  1  0  0  0
 18 19  2  0  0  0
 18 97  1  0  0  0
 19 20  1  0  0  0
 19 24  1  0  0  0
 20 21  2  0  0  0
 20 98  1  0  0  0
 21 23  1  0  0  0
 22 28  1  0  0  0
 22 32  2  0  0  0
 26 27  1  0  0  0
 28 99  1  0  0  0
 28100  1  0  0  0
 29101  1  0  0  0
 29102  1  0  0  0
 33 34  1  0  0  0
 33 66  1  0  0  0
 33 70  2  0  0  0
 34 36  1  0  0  0
 34 59  1  0  0  0
 34103  1  0  0  0
 35 44  2  0  0  0
 35 45  1  0  0  0
 35 68  1  0  0  0
 36 56  1  0  0  0
 36104  1  0  0  0
 37 39  1  0  0  0
 37 47  1  0  0  0
 37 66  1  0  0  0
 37105  1  0  0  0
 38 43  2  0  0  0
 38 46  1  0  0  0
 38 47  1  0  0  0
 39 64  1  0  0  0
 39 67  2  0  0  0
 40 52  1  0  0  0
 40 53  2  0  0  0
 40 58  1  0  0  0
 41106  1  0  0  0
 41107  1  0  0  0
 41108  1  0  0  0
 41 48  1  0  0  0
 42 43  1  0  0  0
 42 66  1  0  0  0
 42109  1  0  0  0
 42110  1  0  0  0
 43 44  1  0  0  0
 44111  1  0  0  0
 45 46  2  0  0  0
 45112  1  0  0  0
 46113  1  0  0  0
 47114  1  0  0  0
 47115  1  0  0  0
 48 56  1  0  0  0
 48 65  1  0  0  0
 48116  1  0  0  0
 49 50  1  0  0  0
 49 53  1  0  0  0
 49 64  1  0  0  0
 49117  1  0  0  0
 50 51  1  0  0  0
 50118  1  0  0  0
 50119  1  0  0  0
 51 52  1  0  0  0
 51120  1  0  0  0
 51121  1  0  0  0
 52122  1  0  0  0
 52123  1  0  0  0
 53 54  1  0  0  0
 54 55  2  0  0  0
 54124  1  0  0  0
 55 57  1  0  0  0
 55125  1  0  0  0
 56 69  2  0  0  0
 57 58  2  0  0  0
 57126  1  0  0  0
 58127  1  0  0  0
 59 60  1  0  0  0
 59 61  1  0  0  0
 59 62  1  0  0  0
 60128  1  0  0  0
 60129  1  0  0  0
 60130  1  0  0  0
 61131  1  0  0  0
 61132  1  0  0  0
 61133  1  0  0  0
 62134  1  0  0  0
 62135  1  0  0  0
 62136  1  0  0  0
 63 65  1  0  0  0
 63137  1  0  0  0
 63138  1  0  0  0
 63139  1  0  0  0
 64140  1  0  0  0
 65141  1  0  0  0
 68 77  1  0  0  0
 71142  1  0  0  0
 71143  1  0  0  0
 71144  1  0  0  0
 71 78  1  0  0  0
 72145  1  0  0  0
 72146  1  0  0  0
 72147  1  0  0  0
 72 79  1  0  0  0
 73 76  1  0  0  0
 73 79  1  0  0  0
 73148  1  0  0  0
 73149  1  0  0  0
 74 77  1  0  0  0
 74 78  1  0  0  0
 74150  1  0  0  0
 74151  1  0  0  0
 75 79  1  0  0  0
 75 80  1  0  0  0
 75152  1  0  0  0
 75153  1  0  0  0
 76 81  1  0  0  0
 76154  1  0  0  0
 76155  1  0  0  0
 77156  1  0  0  0
 77157  1  0  0  0
 78 81  1  0  0  0
 78158  1  0  0  0
 79 82  1  0  0  0
 80159  1  0  0  0
 81160  1  0  0  0
 81161  1  0  0  0
M  CHG  1  81   1
M  ISO  4   1 100  68 101  77 101  80 100
M  END
> <chiral flag>
0

> <version>
0

> <s_m_source_file>
/data/baiqing/PycharmProjects/Reinvent-master-3.2/result/LINK_invent/BTK/process_docking_weight1_custom_sum_contain_oxygen_bond_distance_aromatic_linkinvent_7_9_3/rearranged_h_0110.sdf

> <i_m_source_file_index>
84

> <r_mmod_Potential_Energy-OPLS-2005>
-245.55046081543

> <r_mmod_Stretch_Energy-OPLS-2005>
42.9255714416504

> <r_mmod_Bend_Energy-OPLS-2005>
104.808311462402

> <r_mmod_Torsional_Energy-OPLS-2005>
259.385711669922

> <r_mmod_Improper_Torsional_Energy-OPLS-2005>
3.9202675819397

> <r_mmod_Van_der_Waal_Energy-OPLS-2005>
129.665130615234

> <r_mmod_Electrostatic_Energy-OPLS-2005>
-335.773284912109

> <r_mmod_Solvation_Energy-OPLS-2005>
-463.888214111328

> <b_mmod_Minimization_Converged-OPLS-2005>
0

> <r_mmod_RMS_Derivative-OPLS-2005>
6.32977247238159

$$$$
85
                    3D
 Structure written by MMmdl.
165173  0  0  1  0            999 V2000
  -30.6078  -14.7091   20.5002 C   0  0  0  0  0  0
  -30.4403  -12.4324   19.4735 C   0  0  0  0  0  0
  -29.5164  -12.5211   18.2362 C   0  0  0  0  0  0
  -28.0368  -12.3518   18.6378 C   0  0  0  0  0  0
  -27.6501  -13.2260   19.8610 C   0  0  2  0  0  0
  -28.6944  -13.1059   20.9945 C   0  0  0  0  0  0
  -25.2539  -13.8183   20.5724 C   0  0  0  0  0  0
  -24.1818  -13.0427   20.9222 C   0  0  0  0  0  0
  -24.6399  -11.6906   20.8757 C   0  0  0  0  0  0
  -23.9074  -10.4282   21.0413 C   0  0  0  0  0  0
  -24.3627   -9.4184   21.9187 C   0  0  0  0  0  0
  -23.6290   -8.2228   22.0762 C   0  0  0  0  0  0
  -22.4269   -8.0277   21.3555 C   0  0  0  0  0  0
  -21.9910   -9.0258   20.4660 C   0  0  0  0  0  0
  -22.7248  -10.2129   20.3058 C   0  0  0  0  0  0
  -21.6841   -6.0735   22.5284 C   0  0  0  0  0  0
  -21.4009   -6.5632   23.8222 C   0  0  0  0  0  0
  -21.3668   -5.6779   24.9183 C   0  0  0  0  0  0
  -21.6041   -4.3042   24.7218 C   0  0  0  0  0  0
  -21.8814   -3.8145   23.4335 C   0  0  0  0  0  0
  -21.9192   -4.6969   22.3400 C   0  0  0  0  0  0
  -22.7845  -13.5236   21.1853 C   0  0  0  0  0  0
  -22.1661   -4.2158   21.0976 F   0  0  0  0  0  0
  -21.5643   -3.4520   25.7730 F   0  0  0  0  0  0
  -30.0022  -13.4726   20.4338 N   0  0  0  0  0  0
  -26.2979  -12.9390   20.3333 N   0  0  0  0  0  0
  -25.9327  -11.6530   20.5735 N   0  0  0  0  0  0
  -22.0470  -12.8269   22.0425 N   0  0  0  0  0  0
  -25.4167  -15.1918   20.4144 N   0  0  0  0  0  0
  -31.7629  -14.8145   20.0795 O   0  0  0  0  0  0
  -21.6628   -6.8872   21.4245 O   0  0  0  0  0  0
  -22.3538  -14.5528   20.6658 O   0  0  0  0  0  0
  -24.6298  -31.8566   23.1995 C   0  0  0  0  0  0
  -25.9130  -32.4765   23.8338 C   0  0  1  0  0  0
  -27.2167  -27.2798   20.1372 C   0  0  0  0  0  0
  -25.5929  -33.8567   24.2261 N   0  0  0  0  0  0
  -23.4252  -30.4790   21.5435 C   0  0  2  0  0  0
  -24.8715  -28.9267   20.1131 C   0  0  0  0  0  0
  -22.7496  -29.4604   22.4926 C   0  0  0  0  0  0
  -18.0293  -28.1391   22.8484 C   0  0  0  0  0  0
  -24.1490  -36.7292   23.2638 C   0  0  0  0  0  0
  -25.9687  -30.7762   21.3751 C   0  0  0  0  0  0
  -26.0422  -29.3989   20.7206 C   0  0  0  0  0  0
  -27.2215  -28.5901   20.7171 C   0  0  0  0  0  0
  -26.0268  -26.8690   19.4989 C   0  0  0  0  0  0
  -24.8686  -27.6701   19.4884 C   0  0  0  0  0  0
  -23.6419  -29.8127   20.1592 C   0  0  0  0  0  0
  -25.4115  -36.3078   24.0327 C   0  0  1  0  0  0
  -20.5896  -28.3700   23.1279 C   0  0  2  0  0  0
  -20.6780  -26.9419   22.5410 C   0  0  0  0  0  0
  -19.5752  -26.6386   21.5216 C   0  0  0  0  0  0
  -18.1935  -26.7932   22.1628 C   0  0  0  0  0  0
  -19.1545  -28.8862   23.2876 C   0  0  0  0  0  0
  -18.9462  -30.1465   23.8889 C   0  0  0  0  0  0
  -17.6461  -30.6589   24.0565 C   0  0  0  0  0  0
  -25.9055  -34.9448   23.5097 C   0  0  0  0  0  0
  -16.5354  -29.9085   23.6333 C   0  0  0  0  0  0
  -16.7280  -28.6508   23.0346 C   0  0  0  0  0  0
  -26.4497  -31.6586   25.0722 C   0  0  0  0  0  0
  -25.3724  -31.3732   26.1447 C   0  0  0  0  0  0
  -27.0336  -30.3005   24.6189 C   0  0  0  0  0  0
  -27.6051  -32.4325   25.7493 C   0  0  0  0  0  0
  -27.5580  -37.1800   24.8463 C   0  0  0  0  0  0
  -21.4205  -29.3049   22.3673 N   0  0  0  0  0  0
  -26.4291  -37.3775   23.9408 N   0  0  0  0  0  0
  -24.6935  -31.0553   22.0958 N   0  0  0  0  0  0
  -23.4211  -28.8151   23.3019 O   0  0  0  0  0  0
  -28.3122  -26.3951   20.1589 O   0  0  0  0  0  0
  -26.5624  -34.8918   22.4665 O   0  0  0  0  0  0
  -23.5454  -32.1381   23.7305 O   0  0  0  0  0  0
  -32.2756  -19.9638   21.5804 C   0  0  0  0  0  0
  -31.1884  -20.8242   21.3196 C   0  0  0  0  0  0
  -31.9296  -18.7096   21.1800 C   0  0  0  0  0  0
  -30.1720  -20.1032   20.7591 C   0  0  0  0  0  0
  -32.8315  -17.5151   21.1621 C   0  0  0  0  0  0
  -29.3889  -23.2911   17.6339 C   0  0  0  0  0  0
  -28.8841  -20.7969   20.2457 C   0  0  0  0  0  0
  -28.4954  -22.2909   20.7688 C   0  0  0  0  0  0
  -29.9323  -17.4491   20.1912 C   0  0  0  0  0  0
  -28.0909  -25.0094   20.6869 C   0  0  0  0  0  0
  -29.8609  -16.0423   21.0224 C   0  0  2  0  0  0
  -28.7732  -23.7057   20.0172 C   0  0  2  0  0  0
  -30.5990  -18.7117   20.7317 N   0  0  0  0  0  0
  -28.3329  -23.6502   18.6026 N   0  3  0  0  0  0
  -30.1140  -16.2350   22.4106 O   0  0  0  0  0  0
  -31.4840  -12.5507   19.1765 H   0  0  0  0  0  0
  -30.3816  -11.4454   19.9343 H   0  0  0  0  0  0
  -29.7929  -11.7641   17.5007 H   0  0  0  0  0  0
  -29.6562  -13.4890   17.7500 H   0  0  0  0  0  0
  -27.8746  -11.2975   18.8664 H   0  0  0  0  0  0
  -27.3853  -12.5794   17.7933 H   0  0  0  0  0  0
  -27.6568  -14.2579   19.5110 H   0  0  0  0  0  0
  -28.7248  -12.0842   21.3758 H   0  0  0  0  0  0
  -28.4279  -13.7338   21.8458 H   0  0  0  0  0  0
  -25.2775   -9.5642   22.4756 H   0  0  0  0  0  0
  -23.9985   -7.4610   22.7482 H   0  0  0  0  0  0
  -21.0838   -8.8795   19.8964 H   0  0  0  0  0  0
  -22.3730  -10.9673   19.6156 H   0  0  0  0  0  0
  -21.1988   -7.6139   23.9724 H   0  0  0  0  0  0
  -21.1507   -6.0514   25.9086 H   0  0  0  0  0  0
  -22.0584   -2.7610   23.2833 H   0  0  0  0  0  0
  -22.4066  -11.9923   22.4820 H   0  0  0  0  0  0
  -21.1084  -13.1313   22.2571 H   0  0  0  0  0  0
  -24.6370  -15.8317   20.5199 H   0  0  0  0  0  0
  -26.2522  -15.6436   20.0676 H   0  0  0  0  0  0
  -26.7196  -32.5421   23.1084 H   0  0  0  0  0  0
  -25.0083  -33.9705   25.0411 H   0  0  0  0  0  0
  -22.7216  -31.3010   21.3996 H   0  0  0  0  0  0
  -23.3749  -35.9627   23.3299 H   0  0  0  0  0  0
  -24.3581  -36.8914   22.2052 H   0  0  0  0  0  0
  -23.7249  -37.6495   23.6664 H   0  0  0  0  0  0
  -26.1026  -31.5341   20.6022 H   0  0  0  0  0  0
  -26.8493  -30.8280   22.0042 H   0  0  0  0  0  0
  -28.1213  -28.9488   21.1975 H   0  0  0  0  0  0
  -25.9749  -25.9064   19.0121 H   0  0  0  0  0  0
  -23.9751  -27.3071   18.9994 H   0  0  0  0  0  0
  -23.7644  -30.5894   19.4034 H   0  0  0  0  0  0
  -22.7603  -29.2455   19.8556 H   0  0  0  0  0  0
  -25.1297  -36.1921   25.0820 H   0  0  0  0  0  0
  -20.9985  -28.3273   24.1403 H   0  0  0  0  0  0
  -20.5687  -26.2307   23.3615 H   0  0  0  0  0  0
  -21.6647  -26.7447   22.1202 H   0  0  0  0  0  0
  -19.6913  -25.6295   21.1252 H   0  0  0  0  0  0
  -19.6690  -27.3191   20.6744 H   0  0  0  0  0  0
  -17.4205  -26.6682   21.4031 H   0  0  0  0  0  0
  -18.0332  -26.0079   22.9027 H   0  0  0  0  0  0
  -19.7936  -30.7285   24.2252 H   0  0  0  0  0  0
  -17.5013  -31.6265   24.5170 H   0  0  0  0  0  0
  -15.5353  -30.2981   23.7660 H   0  0  0  0  0  0
  -15.8684  -28.0827   22.7055 H   0  0  0  0  0  0
  -24.5901  -30.7077   25.7781 H   0  0  0  0  0  0
  -24.8914  -32.2899   26.4868 H   0  0  0  0  0  0
  -25.8046  -30.8918   27.0229 H   0  0  0  0  0  0
  -26.2909  -29.6761   24.1209 H   0  0  0  0  0  0
  -27.4019  -29.7258   25.4697 H   0  0  0  0  0  0
  -27.8789  -30.4285   23.9424 H   0  0  0  0  0  0
  -27.2660  -33.3628   26.2063 H   0  0  0  0  0  0
  -28.3867  -32.6880   25.0325 H   0  0  0  0  0  0
  -28.0718  -31.8457   26.5417 H   0  0  0  0  0  0
  -28.2592  -38.0101   24.7513 H   0  0  0  0  0  0
  -28.1080  -36.2632   24.6283 H   0  0  0  0  0  0
  -27.2300  -37.1445   25.8866 H   0  0  0  0  0  0
  -20.9391  -29.8767   21.6873 H   0  0  0  0  0  0
  -26.0168  -38.2847   24.1407 H   0  0  0  0  0  0
  -33.2393  -20.2467   21.9814 H   0  0  0  0  0  0
  -31.1767  -21.8931   21.4844 H   0  0  0  0  0  0
  -32.8571  -17.0606   20.1726 H   0  0  0  0  0  0
  -32.5403  -16.7695   21.8984 H   0  0  0  0  0  0
  -33.8563  -17.8009   21.4008 H   0  0  0  0  0  0
  -28.9718  -23.2159   16.6301 H   0  0  0  0  0  0
  -29.8559  -22.3377   17.8770 H   0  0  0  0  0  0
  -30.1679  -24.0549   17.6138 H   0  0  0  0  0  0
  -28.0591  -20.1435   20.5356 H   0  0  0  0  0  0
  -28.8658  -20.7642   19.1578 H   0  0  0  0  0  0
  -28.8266  -22.3797   21.8049 H   0  0  0  0  0  0
  -27.4096  -22.2573   20.8651 H   0  0  0  0  0  0
  -28.9052  -17.7330   19.9649 H   0  0  0  0  0  0
  -30.3709  -17.2506   19.2126 H   0  0  0  0  0  0
  -28.4365  -25.0473   21.7203 H   0  0  0  0  0  0
  -27.0229  -24.8089   20.7783 H   0  0  0  0  0  0
  -28.8032  -15.7881   20.9781 H   0  0  0  0  0  0
  -29.8499  -23.8832   20.0360 H   0  0  0  0  0  0
  -27.5402  -23.0357   18.4952 H   0  0  0  0  0  0
  -28.0228  -24.5757   18.3457 H   0  0  0  0  0  0
  -29.8291  -15.4485   22.8648 H   0  0  0  0  0  0
  1 25  1  0  0  0
  1 30  2  0  0  0
  1 81  1  0  0  0
  2  3  1  0  0  0
  2 25  1  0  0  0
  2 86  1  0  0  0
  2 87  1  0  0  0
  3  4  1  0  0  0
  3 88  1  0  0  0
  3 89  1  0  0  0
  4  5  1  0  0  0
  4 90  1  0  0  0
  4 91  1  0  0  0
  5  6  1  0  0  0
  5 26  1  0  0  0
  5 92  1  0  0  0
  6 25  1  0  0  0
  6 93  1  0  0  0
  6 94  1  0  0  0
  7  8  2  0  0  0
  7 26  1  0  0  0
  7 29  1  0  0  0
  8  9  1  0  0  0
  8 22  1  0  0  0
  9 10  1  0  0  0
  9 27  2  0  0  0
 10 11  2  0  0  0
 10 15  1  0  0  0
 11 12  1  0  0  0
 11 95  1  0  0  0
 12 13  2  0  0  0
 12 96  1  0  0  0
 13 14  1  0  0  0
 13 31  1  0  0  0
 14 15  2  0  0  0
 14 97  1  0  0  0
 15 98  1  0  0  0
 16 17  2  0  0  0
 16 21  1  0  0  0
 16 31  1  0  0  0
 17 18  1  0  0  0
 17 99  1  0  0  0
 18 19  2  0  0  0
 18100  1  0  0  0
 19 20  1  0  0  0
 19 24  1  0  0  0
 20 21  2  0  0  0
 20101  1  0  0  0
 21 23  1  0  0  0
 22 28  1  0  0  0
 22 32  2  0  0  0
 26 27  1  0  0  0
 28102  1  0  0  0
 28103  1  0  0  0
 29104  1  0  0  0
 29105  1  0  0  0
 33 34  1  0  0  0
 33 66  1  0  0  0
 33 70  2  0  0  0
 34 36  1  0  0  0
 34 59  1  0  0  0
 34106  1  0  0  0
 35 44  2  0  0  0
 35 45  1  0  0  0
 35 68  1  0  0  0
 36 56  1  0  0  0
 36107  1  0  0  0
 37 39  1  0  0  0
 37 47  1  0  0  0
 37 66  1  0  0  0
 37108  1  0  0  0
 38 43  2  0  0  0
 38 46  1  0  0  0
 38 47  1  0  0  0
 39 64  1  0  0  0
 39 67  2  0  0  0
 40 52  1  0  0  0
 40 53  2  0  0  0
 40 58  1  0  0  0
 41109  1  0  0  0
 41110  1  0  0  0
 41111  1  0  0  0
 41 48  1  0  0  0
 42 43  1  0  0  0
 42 66  1  0  0  0
 42112  1  0  0  0
 42113  1  0  0  0
 43 44  1  0  0  0
 44114  1  0  0  0
 45 46  2  0  0  0
 45115  1  0  0  0
 46116  1  0  0  0
 47117  1  0  0  0
 47118  1  0  0  0
 48 56  1  0  0  0
 48 65  1  0  0  0
 48119  1  0  0  0
 49 50  1  0  0  0
 49 53  1  0  0  0
 49 64  1  0  0  0
 49120  1  0  0  0
 50 51  1  0  0  0
 50121  1  0  0  0
 50122  1  0  0  0
 51 52  1  0  0  0
 51123  1  0  0  0
 51124  1  0  0  0
 52125  1  0  0  0
 52126  1  0  0  0
 53 54  1  0  0  0
 54 55  2  0  0  0
 54127  1  0  0  0
 55 57  1  0  0  0
 55128  1  0  0  0
 56 69  2  0  0  0
 57 58  2  0  0  0
 57129  1  0  0  0
 58130  1  0  0  0
 59 60  1  0  0  0
 59 61  1  0  0  0
 59 62  1  0  0  0
 60131  1  0  0  0
 60132  1  0  0  0
 60133  1  0  0  0
 61134  1  0  0  0
 61135  1  0  0  0
 61136  1  0  0  0
 62137  1  0  0  0
 62138  1  0  0  0
 62139  1  0  0  0
 63 65  1  0  0  0
 63140  1  0  0  0
 63141  1  0  0  0
 63142  1  0  0  0
 64143  1  0  0  0
 65144  1  0  0  0
 68 80  1  0  0  0
 71 72  1  0  0  0
 71 73  2  0  0  0
 71145  1  0  0  0
 72 74  2  0  0  0
 72146  1  0  0  0
 73 75  1  0  0  0
 73 83  1  0  0  0
 74 77  1  0  0  0
 74 83  1  0  0  0
 75147  1  0  0  0
 75148  1  0  0  0
 75149  1  0  0  0
 76 84  1  0  0  0
 76150  1  0  0  0
 76151  1  0  0  0
 76152  1  0  0  0
 77 78  1  0  0  0
 77153  1  0  0  0
 77154  1  0  0  0
 78155  1  0  0  0
 78156  1  0  0  0
 78 82  1  0  0  0
 79 81  1  0  0  0
 79 83  1  0  0  0
 79157  1  0  0  0
 79158  1  0  0  0
 80 82  1  0  0  0
 80159  1  0  0  0
 80160  1  0  0  0
 81 85  1  0  0  0
 81161  1  0  0  0
 82 84  1  0  0  0
 82162  1  0  0  0
 84163  1  0  0  0
 84164  1  0  0  0
 85165  1  0  0  0
M  CHG  1  84   1
M  ISO  4   1 100  68 101  80 101  81 100
M  END
> <chiral flag>
0

> <version>
0

> <s_m_source_file>
/data/baiqing/PycharmProjects/Reinvent-master-3.2/result/LINK_invent/BTK/process_docking_weight1_custom_sum_contain_oxygen_bond_distance_aromatic_linkinvent_7_9_3/rearranged_h_0110.sdf

> <i_m_source_file_index>
85

> <r_mmod_Potential_Energy-OPLS-2005>
137.545486450195

> <r_mmod_Stretch_Energy-OPLS-2005>
132.550979614258

> <r_mmod_Bend_Energy-OPLS-2005>
200.290084838867

> <r_mmod_Torsional_Energy-OPLS-2005>
243.827117919922

> <r_mmod_Improper_Torsional_Energy-OPLS-2005>
3.24666953086853

> <r_mmod_Van_der_Waal_Energy-OPLS-2005>
110.701530456543

> <r_mmod_Electrostatic_Energy-OPLS-2005>
-159.732192993164

> <r_mmod_Solvation_Energy-OPLS-2005>
-461.492828369141

> <b_mmod_Minimization_Converged-OPLS-2005>
0

> <r_mmod_RMS_Derivative-OPLS-2005>
2.27056384086609

$$$$
86
                    3D
 Structure written by MMmdl.
148156  0  0  1  0            999 V2000
  -30.3743  -15.3871   20.3541 C   0  0  0  0  0  0
  -30.4379  -12.8915   19.5481 C   0  0  0  0  0  0
  -29.5446  -12.6064   18.3111 C   0  0  0  0  0  0
  -28.1014  -12.2970   18.7406 C   0  0  0  0  0  0
  -27.6079  -13.2844   19.8251 C   0  0  2  0  0  0
  -28.6311  -13.5028   20.9618 C   0  0  0  0  0  0
  -25.2362  -13.8251   20.5760 C   0  0  0  0  0  0
  -24.1721  -13.0430   20.9264 C   0  0  0  0  0  0
  -24.6388  -11.6933   20.8753 C   0  0  0  0  0  0
  -23.9082  -10.4290   21.0395 C   0  0  0  0  0  0
  -24.3627   -9.4207   21.9179 C   0  0  0  0  0  0
  -23.6295   -8.2245   22.0752 C   0  0  0  0  0  0
  -22.4274   -8.0279   21.3543 C   0  0  0  0  0  0
  -21.9913   -9.0248   20.4639 C   0  0  0  0  0  0
  -22.7247  -10.2130   20.3046 C   0  0  0  0  0  0
  -21.6860   -6.0728   22.5270 C   0  0  0  0  0  0
  -21.4014   -6.5633   23.8204 C   0  0  0  0  0  0
  -21.3659   -5.6790   24.9167 C   0  0  0  0  0  0
  -21.6048   -4.3052   24.7220 C   0  0  0  0  0  0
  -21.8818   -3.8139   23.4342 C   0  0  0  0  0  0
  -21.9193   -4.6956   22.3394 C   0  0  0  0  0  0
  -22.7737  -13.5181   21.1906 C   0  0  0  0  0  0
  -22.1663   -4.2143   21.0973 F   0  0  0  0  0  0
  -21.5630   -3.4535   25.7729 F   0  0  0  0  0  0
  -29.8537  -14.0469   20.3420 N   0  0  0  0  0  0
  -26.2792  -12.9544   20.3219 N   0  0  0  0  0  0
  -25.9331  -11.6642   20.5715 N   0  0  0  0  0  0
  -22.0398  -12.8164   22.0462 N   0  0  0  0  0  0
  -25.3987  -15.1986   20.4199 N   0  0  0  0  0  0
  -31.5889  -15.3934   20.0893 O   0  0  0  0  0  0
  -21.6640   -6.8872   21.4231 O   0  0  0  0  0  0
  -22.3420  -14.5482   20.6749 O   0  0  0  0  0  0
  -24.6695  -31.8129   23.1642 C   0  0  0  0  0  0
  -25.9337  -32.4530   23.8126 C   0  0  1  0  0  0
  -27.2213  -26.8480   20.1985 C   0  0  0  0  0  0
  -25.5974  -33.8356   24.2017 N   0  0  0  0  0  0
  -23.4887  -30.4213   21.5134 C   0  0  2  0  0  0
  -24.9434  -28.7929   20.1078 C   0  0  0  0  0  0
  -22.7701  -29.4381   22.4753 C   0  0  0  0  0  0
  -18.0321  -28.1415   22.8451 C   0  0  0  0  0  0
  -24.1487  -36.7189   23.2653 C   0  0  0  0  0  0
  -26.0604  -30.5955   21.4032 C   0  0  0  0  0  0
  -26.1263  -29.1766   20.7504 C   0  0  0  0  0  0
  -27.2524  -28.2259   20.7701 C   0  0  0  0  0  0
  -26.0122  -26.6377   19.4936 C   0  0  0  0  0  0
  -24.9173  -27.5467   19.4576 C   0  0  0  0  0  0
  -23.7322  -29.7304   20.1410 C   0  0  0  0  0  0
  -25.4130  -36.2937   24.0294 C   0  0  1  0  0  0
  -20.5960  -28.3757   23.1174 C   0  0  2  0  0  0
  -20.6803  -26.9428   22.5407 C   0  0  0  0  0  0
  -19.5776  -26.6370   21.5224 C   0  0  0  0  0  0
  -18.1955  -26.7949   22.1614 C   0  0  0  0  0  0
  -19.1591  -28.8906   23.2805 C   0  0  0  0  0  0
  -18.9499  -30.1497   23.8844 C   0  0  0  0  0  0
  -17.6495  -30.6602   24.0555 C   0  0  0  0  0  0
  -25.9105  -34.9320   23.4982 C   0  0  0  0  0  0
  -16.5384  -29.9086   23.6350 C   0  0  0  0  0  0
  -16.7305  -28.6512   23.0359 C   0  0  0  0  0  0
  -26.4572  -31.6512   25.0687 C   0  0  0  0  0  0
  -25.3673  -31.3792   26.1323 C   0  0  0  0  0  0
  -27.0485  -30.2869   24.6467 C   0  0  0  0  0  0
  -27.6049  -32.4355   25.7485 C   0  0  0  0  0  0
  -27.5565  -37.1739   24.8469 C   0  0  0  0  0  0
  -21.4367  -29.3037   22.3519 N   0  0  0  0  0  0
  -26.4265  -37.3682   23.9423 N   0  0  0  0  0  0
  -24.7621  -30.9718   22.0808 N   0  0  0  0  0  0
  -23.4214  -28.7964   23.3035 O   0  0  0  0  0  0
  -28.2148  -25.7141   20.3299 O   0  0  0  0  0  0
  -26.5740  -34.8878   22.4593 O   0  0  0  0  0  0
  -23.5745  -32.1134   23.6670 O   0  0  0  0  0  0
  -30.3781  -19.0565   19.3642 C   0  0  0  0  0  0
  -28.8450  -19.4528   20.8324 C   0  0  0  0  0  0
  -29.5938  -18.2986   20.3063 C   0  0  0  0  0  0
  -30.1115  -20.4467   19.3731 C   0  0  0  0  0  0
  -30.7883  -21.4931   18.5487 C   0  0  0  0  0  0
  -28.6969  -22.4710   20.7483 C   0  0  0  0  0  0
  -28.1657  -24.0611   19.9622 C   0  0  0  0  0  0
  -29.1197  -20.8535   20.2977 N   0  0  0  0  0  0
  -29.5750  -16.6569   20.5398 N   0  0  0  0  0  0
  -31.4519  -13.1123   19.2122 H   0  0  0  0  0  0
  -30.5304  -12.0003   20.1706 H   0  0  0  0  0  0
  -29.9513  -11.7796   17.7276 H   0  0  0  0  0  0
  -29.5487  -13.4779   17.6548 H   0  0  0  0  0  0
  -28.0879  -11.2824   19.1412 H   0  0  0  0  0  0
  -27.4318  -12.2961   17.8801 H   0  0  0  0  0  0
  -27.5093  -14.2381   19.3054 H   0  0  0  0  0  0
  -28.8230  -12.5793   21.5106 H   0  0  0  0  0  0
  -28.2427  -14.2190   21.6872 H   0  0  0  0  0  0
  -25.2763   -9.5695   22.4760 H   0  0  0  0  0  0
  -23.9995   -7.4642   22.7483 H   0  0  0  0  0  0
  -21.0838   -8.8763   19.8949 H   0  0  0  0  0  0
  -22.3687  -10.9668   19.6156 H   0  0  0  0  0  0
  -21.2006   -7.6144   23.9704 H   0  0  0  0  0  0
  -21.1484   -6.0518   25.9068 H   0  0  0  0  0  0
  -22.0600   -2.7600   23.2836 H   0  0  0  0  0  0
  -22.4031  -11.9835   22.4852 H   0  0  0  0  0  0
  -21.1011  -13.1179   22.2671 H   0  0  0  0  0  0
  -24.6241  -15.8461   20.5220 H   0  0  0  0  0  0
  -26.2356  -15.6387   20.0599 H   0  0  0  0  0  0
  -26.7386  -32.5044   23.0817 H   0  0  0  0  0  0
  -25.0065  -33.9420   25.0128 H   0  0  0  0  0  0
  -22.8082  -31.2570   21.3352 H   0  0  0  0  0  0
  -23.3767  -35.9501   23.3263 H   0  0  0  0  0  0
  -24.3572  -36.8889   22.2080 H   0  0  0  0  0  0
  -23.7212  -37.6343   23.6748 H   0  0  0  0  0  0
  -26.2473  -31.3306   20.6191 H   0  0  0  0  0  0
  -26.9185  -30.6571   22.0605 H   0  0  0  0  0  0
  -28.1405  -28.5166   21.3122 H   0  0  0  0  0  0
  -25.8751  -25.6890   18.9958 H   0  0  0  0  0  0
  -24.0219  -27.2487   18.9294 H   0  0  0  0  0  0
  -23.8905  -30.4972   19.3819 H   0  0  0  0  0  0
  -22.8406  -29.1877   19.8227 H   0  0  0  0  0  0
  -25.1318  -36.1719   25.0781 H   0  0  0  0  0  0
  -21.0034  -28.3362   24.1304 H   0  0  0  0  0  0
  -20.5692  -26.2376   23.3656 H   0  0  0  0  0  0
  -21.6660  -26.7402   22.1207 H   0  0  0  0  0  0
  -19.6956  -25.6272   21.1274 H   0  0  0  0  0  0
  -19.6725  -27.3169   20.6748 H   0  0  0  0  0  0
  -17.4231  -26.6694   21.4017 H   0  0  0  0  0  0
  -18.0319  -26.0119   22.9027 H   0  0  0  0  0  0
  -19.7984  -30.7315   24.2190 H   0  0  0  0  0  0
  -17.5052  -31.6278   24.5155 H   0  0  0  0  0  0
  -15.5385  -30.2972   23.7725 H   0  0  0  0  0  0
  -15.8702  -28.0819   22.7103 H   0  0  0  0  0  0
  -24.5882  -30.7120   25.7609 H   0  0  0  0  0  0
  -24.8852  -32.3010   26.4589 H   0  0  0  0  0  0
  -25.7877  -30.9048   27.0204 H   0  0  0  0  0  0
  -26.3166  -29.6521   24.1456 H   0  0  0  0  0  0
  -27.3986  -29.7242   25.5132 H   0  0  0  0  0  0
  -27.9113  -30.4038   23.9911 H   0  0  0  0  0  0
  -27.2597  -33.3722   26.1874 H   0  0  0  0  0  0
  -28.3941  -32.6805   25.0366 H   0  0  0  0  0  0
  -28.0619  -31.8614   26.5552 H   0  0  0  0  0  0
  -28.2531  -38.0082   24.7536 H   0  0  0  0  0  0
  -28.1101  -36.2603   24.6250 H   0  0  0  0  0  0
  -27.2303  -37.1322   25.8877 H   0  0  0  0  0  0
  -20.9641  -29.8702   21.6614 H   0  0  0  0  0  0
  -26.0103  -38.2732   24.1463 H   0  0  0  0  0  0
  -31.1105  -18.6153   18.7010 H   0  0  0  0  0  0
  -28.1022  -19.4093   21.6184 H   0  0  0  0  0  0
  -31.7175  -21.1126   18.1225 H   0  0  0  0  0  0
  -31.0379  -22.3732   19.1421 H   0  0  0  0  0  0
  -30.1485  -21.8143   17.7261 H   0  0  0  0  0  0
  -27.9729  -22.3310   21.5512 H   0  0  0  0  0  0
  -29.5885  -22.7895   21.2884 H   0  0  0  0  0  0
  -27.1244  -23.8833   19.6981 H   0  0  0  0  0  0
  -28.6760  -24.0434   18.9997 H   0  0  0  0  0  0
  -28.6762  -16.3736   20.9041 H   0  0  0  0  0  0
  1 25  1  0  0  0
  1 30  2  0  0  0
  1 79  1  0  0  0
  2  3  1  0  0  0
  2 25  1  0  0  0
  2 80  1  0  0  0
  2 81  1  0  0  0
  3  4  1  0  0  0
  3 82  1  0  0  0
  3 83  1  0  0  0
  4  5  1  0  0  0
  4 84  1  0  0  0
  4 85  1  0  0  0
  5  6  1  0  0  0
  5 26  1  0  0  0
  5 86  1  0  0  0
  6 25  1  0  0  0
  6 87  1  0  0  0
  6 88  1  0  0  0
  7  8  2  0  0  0
  7 26  1  0  0  0
  7 29  1  0  0  0
  8  9  1  0  0  0
  8 22  1  0  0  0
  9 10  1  0  0  0
  9 27  2  0  0  0
 10 11  2  0  0  0
 10 15  1  0  0  0
 11 12  1  0  0  0
 11 89  1  0  0  0
 12 13  2  0  0  0
 12 90  1  0  0  0
 13 14  1  0  0  0
 13 31  1  0  0  0
 14 15  2  0  0  0
 14 91  1  0  0  0
 15 92  1  0  0  0
 16 17  2  0  0  0
 16 21  1  0  0  0
 16 31  1  0  0  0
 17 18  1  0  0  0
 17 93  1  0  0  0
 18 19  2  0  0  0
 18 94  1  0  0  0
 19 20  1  0  0  0
 19 24  1  0  0  0
 20 21  2  0  0  0
 20 95  1  0  0  0
 21 23  1  0  0  0
 22 28  1  0  0  0
 22 32  2  0  0  0
 26 27  1  0  0  0
 28 96  1  0  0  0
 28 97  1  0  0  0
 29 98  1  0  0  0
 29 99  1  0  0  0
 33 34  1  0  0  0
 33 66  1  0  0  0
 33 70  2  0  0  0
 34 36  1  0  0  0
 34 59  1  0  0  0
 34100  1  0  0  0
 35 44  2  0  0  0
 35 45  1  0  0  0
 35 68  1  0  0  0
 36 56  1  0  0  0
 36101  1  0  0  0
 37 39  1  0  0  0
 37 47  1  0  0  0
 37 66  1  0  0  0
 37102  1  0  0  0
 38 43  2  0  0  0
 38 46  1  0  0  0
 38 47  1  0  0  0
 39 64  1  0  0  0
 39 67  2  0  0  0
 40 52  1  0  0  0
 40 53  2  0  0  0
 40 58  1  0  0  0
 41103  1  0  0  0
 41104  1  0  0  0
 41105  1  0  0  0
 41 48  1  0  0  0
 42 43  1  0  0  0
 42 66  1  0  0  0
 42106  1  0  0  0
 42107  1  0  0  0
 43 44  1  0  0  0
 44108  1  0  0  0
 45 46  2  0  0  0
 45109  1  0  0  0
 46110  1  0  0  0
 47111  1  0  0  0
 47112  1  0  0  0
 48 56  1  0  0  0
 48 65  1  0  0  0
 48113  1  0  0  0
 49 50  1  0  0  0
 49 53  1  0  0  0
 49 64  1  0  0  0
 49114  1  0  0  0
 50 51  1  0  0  0
 50115  1  0  0  0
 50116  1  0  0  0
 51 52  1  0  0  0
 51117  1  0  0  0
 51118  1  0  0  0
 52119  1  0  0  0
 52120  1  0  0  0
 53 54  1  0  0  0
 54 55  2  0  0  0
 54121  1  0  0  0
 55 57  1  0  0  0
 55122  1  0  0  0
 56 69  2  0  0  0
 57 58  2  0  0  0
 57123  1  0  0  0
 58124  1  0  0  0
 59 60  1  0  0  0
 59 61  1  0  0  0
 59 62  1  0  0  0
 60125  1  0  0  0
 60126  1  0  0  0
 60127  1  0  0  0
 61128  1  0  0  0
 61129  1  0  0  0
 61130  1  0  0  0
 62131  1  0  0  0
 62132  1  0  0  0
 62133  1  0  0  0
 63 65  1  0  0  0
 63134  1  0  0  0
 63135  1  0  0  0
 63136  1  0  0  0
 64137  1  0  0  0
 65138  1  0  0  0
 68 77  1  0  0  0
 71 73  1  0  0  0
 71 74  2  0  0  0
 71139  1  0  0  0
 72 73  2  0  0  0
 72 78  1  0  0  0
 72140  1  0  0  0
 73 79  1  0  0  0
 74 75  1  0  0  0
 74 78  1  0  0  0
 75141  1  0  0  0
 75142  1  0  0  0
 75143  1  0  0  0
 76 77  1  0  0  0
 76 78  1  0  0  0
 76144  1  0  0  0
 76145  1  0  0  0
 77146  1  0  0  0
 77147  1  0  0  0
 79148  1  0  0  0
M  ISO  4   1 100  68 101  77 101  79 100
M  END
> <chiral flag>
0

> <version>
0

> <s_m_source_file>
/data/baiqing/PycharmProjects/Reinvent-master-3.2/result/LINK_invent/BTK/process_docking_weight1_custom_sum_contain_oxygen_bond_distance_aromatic_linkinvent_7_9_3/rearranged_h_0110.sdf

> <i_m_source_file_index>
86

> <r_mmod_Potential_Energy-OPLS-2005>
1587.74096679688

> <r_mmod_Stretch_Energy-OPLS-2005>
705.894348144531

> <r_mmod_Bend_Energy-OPLS-2005>
513.537780761719

> <r_mmod_Torsional_Energy-OPLS-2005>
232.66194152832

> <r_mmod_Improper_Torsional_Energy-OPLS-2005>
4.71247911453247

> <r_mmod_Van_der_Waal_Energy-OPLS-2005>
104.83203125

> <r_mmod_Electrostatic_Energy-OPLS-2005>
-344.2353515625

> <r_mmod_Solvation_Energy-OPLS-2005>
-223.108413696289

> <b_mmod_Minimization_Converged-OPLS-2005>
0

> <r_mmod_RMS_Derivative-OPLS-2005>
1.77367281913757

$$$$
87
                    3D
 Structure written by MMmdl.
164171  0  0  1  0            999 V2000
  -30.6366  -14.5398   20.5395 C   0  0  0  0  0  0
  -30.4360  -12.3413   19.4342 C   0  0  0  0  0  0
  -29.5024  -12.5052   18.2144 C   0  0  0  0  0  0
  -28.0207  -12.3602   18.6196 C   0  0  0  0  0  0
  -27.6591  -13.2008   19.8716 C   0  0  2  0  0  0
  -28.6996  -12.9978   20.9963 C   0  0  0  0  0  0
  -25.2611  -13.8143   20.5660 C   0  0  0  0  0  0
  -24.1855  -13.0440   20.9186 C   0  0  0  0  0  0
  -24.6392  -11.6897   20.8736 C   0  0  0  0  0  0
  -23.9050  -10.4295   21.0410 C   0  0  0  0  0  0
  -24.3614   -9.4214   21.9182 C   0  0  0  0  0  0
  -23.6300   -8.2245   22.0754 C   0  0  0  0  0  0
  -22.4284   -8.0286   21.3542 C   0  0  0  0  0  0
  -21.9909   -9.0258   20.4644 C   0  0  0  0  0  0
  -22.7229  -10.2142   20.3052 C   0  0  0  0  0  0
  -21.6861   -6.0738   22.5275 C   0  0  0  0  0  0
  -21.4010   -6.5642   23.8204 C   0  0  0  0  0  0
  -21.3652   -5.6790   24.9163 C   0  0  0  0  0  0
  -21.6052   -4.3055   24.7211 C   0  0  0  0  0  0
  -21.8827   -3.8150   23.4332 C   0  0  0  0  0  0
  -21.9201   -4.6968   22.3390 C   0  0  0  0  0  0
  -22.7891  -13.5264   21.1828 C   0  0  0  0  0  0
  -22.1678   -4.2162   21.0966 F   0  0  0  0  0  0
  -21.5620   -3.4533   25.7719 F   0  0  0  0  0  0
  -30.0240  -13.3279   20.4471 N   0  0  0  0  0  0
  -26.3013  -12.9279   20.3328 N   0  0  0  0  0  0
  -25.9314  -11.6454   20.5755 N   0  0  0  0  0  0
  -22.0529  -12.8249   22.0369 N   0  0  0  0  0  0
  -25.4379  -15.1846   20.3996 N   0  0  0  0  0  0
  -31.7741  -14.7472   20.1062 O   0  0  0  0  0  0
  -21.6655   -6.8883   21.4234 O   0  0  0  0  0  0
  -22.3583  -14.5571   20.6670 O   0  0  0  0  0  0
  -24.6167  -31.8650   23.2074 C   0  0  0  0  0  0
  -25.9049  -32.4807   23.8375 C   0  0  1  0  0  0
  -27.2343  -27.3868   20.1053 C   0  0  0  0  0  0
  -25.5901  -33.8612   24.2304 N   0  0  0  0  0  0
  -23.4069  -30.4874   21.5493 C   0  0  2  0  0  0
  -24.8518  -28.9438   20.1167 C   0  0  0  0  0  0
  -22.7410  -29.4647   22.4987 C   0  0  0  0  0  0
  -18.0271  -28.1375   22.8500 C   0  0  0  0  0  0
  -24.1487  -36.7297   23.2645 C   0  0  0  0  0  0
  -25.9399  -30.8144   21.3679 C   0  0  0  0  0  0
  -26.0144  -29.4459   20.7122 C   0  0  0  0  0  0
  -27.2036  -28.6768   20.6985 C   0  0  0  0  0  0
  -26.0443  -26.9013   19.5157 C   0  0  0  0  0  0
  -24.8648  -27.6726   19.5163 C   0  0  0  0  0  0
  -23.6166  -29.8167   20.1651 C   0  0  0  0  0  0
  -25.4114  -36.3114   24.0342 C   0  0  1  0  0  0
  -20.5861  -28.3666   23.1323 C   0  0  2  0  0  0
  -20.6774  -26.9403   22.5425 C   0  0  0  0  0  0
  -19.5750  -26.6388   21.5224 C   0  0  0  0  0  0
  -18.1922  -26.7922   22.1630 C   0  0  0  0  0  0
  -19.1518  -28.8836   23.2906 C   0  0  0  0  0  0
  -18.9456  -30.1445   23.8912 C   0  0  0  0  0  0
  -17.6461  -30.6591   24.0563 C   0  0  0  0  0  0
  -25.9043  -34.9476   23.5125 C   0  0  0  0  0  0
  -16.5347  -29.9089   23.6340 C   0  0  0  0  0  0
  -16.7262  -28.6503   23.0362 C   0  0  0  0  0  0
  -26.4459  -31.6602   25.0721 C   0  0  0  0  0  0
  -25.3712  -31.3721   26.1468 C   0  0  0  0  0  0
  -27.0293  -30.3041   24.6123 C   0  0  0  0  0  0
  -27.6028  -32.4331   25.7476 C   0  0  0  0  0  0
  -27.5583  -37.1807   24.8469 C   0  0  0  0  0  0
  -21.4137  -29.3030   22.3720 N   0  0  0  0  0  0
  -26.4304  -37.3802   23.9410 N   0  0  0  0  0  0
  -24.6731  -31.0704   22.0994 N   0  0  0  0  0  0
  -23.4161  -28.8204   23.3054 O   0  0  0  0  0  0
  -28.4259  -26.6730   20.1257 O   0  0  0  0  0  0
  -26.5612  -34.8932   22.4692 O   0  0  0  0  0  0
  -23.5358  -32.1426   23.7448 O   0  0  0  0  0  0
  -26.9974  -21.3811   21.6227 C   0  0  0  0  0  0
  -29.2285  -24.6660   22.0802 C   0  0  0  0  0  0
  -29.1688  -19.4632   18.8681 C   0  0  0  0  0  0
  -28.7920  -22.7650   20.3996 C   0  0  0  0  0  0
  -30.0288  -17.0101   20.6971 C   0  0  0  0  0  0
  -28.6805  -17.8123   20.6826 C   0  0  0  0  0  0
  -29.2922  -20.2402   21.2336 C   0  0  0  0  0  0
  -28.5289  -25.2838   19.7141 C   0  0  0  0  0  0
  -28.5069  -21.5961   21.4107 C   0  0  2  0  0  0
  -28.3956  -24.2220   20.8595 C   0  0  2  0  0  0
  -29.8345  -15.5559   20.9383 N   0  0  0  0  0  0
  -28.7110  -19.2608   20.2624 N   0  3  1  0  0  0
  -31.4774  -12.4701   19.1319 H   0  0  0  0  0  0
  -30.3669  -11.3321   19.8430 H   0  0  0  0  0  0
  -29.7523  -11.7715   17.4474 H   0  0  0  0  0  0
  -29.6598  -13.4856   17.7615 H   0  0  0  0  0  0
  -27.8259  -11.3035   18.8075 H   0  0  0  0  0  0
  -27.3759  -12.6407   17.7866 H   0  0  0  0  0  0
  -27.6957  -14.2452   19.5615 H   0  0  0  0  0  0
  -28.6914  -11.9625   21.3401 H   0  0  0  0  0  0
  -28.4567  -13.6009   21.8720 H   0  0  0  0  0  0
  -25.2767   -9.5699   22.4742 H   0  0  0  0  0  0
  -24.0032   -7.4632   22.7459 H   0  0  0  0  0  0
  -21.0847   -8.8765   19.8941 H   0  0  0  0  0  0
  -22.3693  -10.9679   19.6152 H   0  0  0  0  0  0
  -21.2002   -7.6152   23.9706 H   0  0  0  0  0  0
  -21.1464   -6.0519   25.9065 H   0  0  0  0  0  0
  -22.0617   -2.7616   23.2825 H   0  0  0  0  0  0
  -22.4177  -11.9923   22.4750 H   0  0  0  0  0  0
  -21.1139  -13.1251   22.2561 H   0  0  0  0  0  0
  -24.6609  -15.8334   20.4669 H   0  0  0  0  0  0
  -26.2541  -15.5889   19.9611 H   0  0  0  0  0  0
  -26.7102  -32.5492   23.1113 H   0  0  0  0  0  0
  -25.0067  -33.9769   25.0463 H   0  0  0  0  0  0
  -22.6986  -31.3066   21.4078 H   0  0  0  0  0  0
  -23.3769  -35.9609   23.3326 H   0  0  0  0  0  0
  -24.3577  -36.8897   22.2056 H   0  0  0  0  0  0
  -23.7210  -37.6500   23.6639 H   0  0  0  0  0  0
  -26.0611  -31.5800   20.6004 H   0  0  0  0  0  0
  -26.8237  -30.8634   21.9922 H   0  0  0  0  0  0
  -28.1013  -29.0633   21.1591 H   0  0  0  0  0  0
  -25.9945  -25.9250   19.0588 H   0  0  0  0  0  0
  -23.9676  -27.2768   19.0599 H   0  0  0  0  0  0
  -23.7246  -30.5912   19.4049 H   0  0  0  0  0  0
  -22.7394  -29.2381   19.8708 H   0  0  0  0  0  0
  -25.1285  -36.1996   25.0836 H   0  0  0  0  0  0
  -20.9940  -28.3237   24.1447 H   0  0  0  0  0  0
  -20.5715  -26.2255   23.3605 H   0  0  0  0  0  0
  -21.6641  -26.7476   22.1189 H   0  0  0  0  0  0
  -19.6927  -25.6306   21.1242 H   0  0  0  0  0  0
  -19.6706  -27.3209   20.6765 H   0  0  0  0  0  0
  -17.4200  -26.6680   21.4023 H   0  0  0  0  0  0
  -18.0323  -26.0047   22.9008 H   0  0  0  0  0  0
  -19.7932  -30.7254   24.2281 H   0  0  0  0  0  0
  -17.5022  -31.6278   24.5149 H   0  0  0  0  0  0
  -15.5350  -30.3002   23.7670 H   0  0  0  0  0  0
  -15.8652  -28.0836   22.7079 H   0  0  0  0  0  0
  -24.5891  -30.7053   25.7811 H   0  0  0  0  0  0
  -24.8884  -32.2877   26.4899 H   0  0  0  0  0  0
  -25.8057  -30.8912   27.0237 H   0  0  0  0  0  0
  -26.2849  -29.6809   24.1153 H   0  0  0  0  0  0
  -27.4031  -29.7278   25.4594 H   0  0  0  0  0  0
  -27.8689  -30.4361   23.9296 H   0  0  0  0  0  0
  -27.2650  -33.3640   26.2040 H   0  0  0  0  0  0
  -28.3829  -32.6882   25.0287 H   0  0  0  0  0  0
  -28.0689  -31.8459   26.5399 H   0  0  0  0  0  0
  -28.2613  -38.0095   24.7531 H   0  0  0  0  0  0
  -28.1069  -36.2632   24.6284 H   0  0  0  0  0  0
  -27.2297  -37.1443   25.8872 H   0  0  0  0  0  0
  -20.9300  -29.8713   21.6908 H   0  0  0  0  0  0
  -26.0204  -38.2885   24.1414 H   0  0  0  0  0  0
  -26.7935  -20.4972   22.2281 H   0  0  0  0  0  0
  -26.4588  -21.2798   20.6794 H   0  0  0  0  0  0
  -26.5653  -22.2311   22.1526 H   0  0  0  0  0  0
  -30.2942  -24.6771   21.8501 H   0  0  0  0  0  0
  -29.0836  -24.0219   22.9464 H   0  0  0  0  0  0
  -28.9525  -25.6706   22.4024 H   0  0  0  0  0  0
  -28.6448  -18.7915   18.1868 H   0  0  0  0  0  0
  -30.2385  -19.2835   18.7622 H   0  0  0  0  0  0
  -28.9635  -20.4782   18.5323 H   0  0  0  0  0  0
  -28.2761  -22.5443   19.4649 H   0  0  0  0  0  0
  -29.8527  -22.7626   20.1428 H   0  0  0  0  0  0
  -30.6929  -17.4066   21.4659 H   0  0  0  0  0  0
  -30.5405  -17.1391   19.7429 H   0  0  0  0  0  0
  -28.2086  -17.7444   21.6638 H   0  0  0  0  0  0
  -27.9937  -17.3091   20.0009 H   0  0  0  0  0  0
  -29.2937  -19.7570   22.2117 H   0  0  0  0  0  0
  -30.3443  -20.4221   21.0124 H   0  0  0  0  0  0
  -27.8799  -25.0400   18.8748 H   0  0  0  0  0  0
  -29.5325  -25.1851   19.2999 H   0  0  0  0  0  0
  -28.8838  -21.9463   22.3699 H   0  0  0  0  0  0
  -27.3483  -24.2148   21.1626 H   0  0  0  0  0  0
  -28.9395  -15.2699   21.3064 H   0  0  0  0  0  0
  -27.7328  -19.5103   20.2474 H   0  0  0  0  0  0
  1 25  1  0  0  0
  1 30  2  0  0  0
  1 81  1  0  0  0
  2  3  1  0  0  0
  2 25  1  0  0  0
  2 83  1  0  0  0
  2 84  1  0  0  0
  3  4  1  0  0  0
  3 85  1  0  0  0
  3 86  1  0  0  0
  4  5  1  0  0  0
  4 87  1  0  0  0
  4 88  1  0  0  0
  5  6  1  0  0  0
  5 26  1  0  0  0
  5 89  1  0  0  0
  6 25  1  0  0  0
  6 90  1  0  0  0
  6 91  1  0  0  0
  7  8  2  0  0  0
  7 26  1  0  0  0
  7 29  1  0  0  0
  8  9  1  0  0  0
  8 22  1  0  0  0
  9 10  1  0  0  0
  9 27  2  0  0  0
 10 11  2  0  0  0
 10 15  1  0  0  0
 11 12  1  0  0  0
 11 92  1  0  0  0
 12 13  2  0  0  0
 12 93  1  0  0  0
 13 14  1  0  0  0
 13 31  1  0  0  0
 14 15  2  0  0  0
 14 94  1  0  0  0
 15 95  1  0  0  0
 16 17  2  0  0  0
 16 21  1  0  0  0
 16 31  1  0  0  0
 17 18  1  0  0  0
 17 96  1  0  0  0
 18 19  2  0  0  0
 18 97  1  0  0  0
 19 20  1  0  0  0
 19 24  1  0  0  0
 20 21  2  0  0  0
 20 98  1  0  0  0
 21 23  1  0  0  0
 22 28  1  0  0  0
 22 32  2  0  0  0
 26 27  1  0  0  0
 28 99  1  0  0  0
 28100  1  0  0  0
 29101  1  0  0  0
 29102  1  0  0  0
 33 34  1  0  0  0
 33 66  1  0  0  0
 33 70  2  0  0  0
 34 36  1  0  0  0
 34 59  1  0  0  0
 34103  1  0  0  0
 35 44  2  0  0  0
 35 45  1  0  0  0
 35 68  1  0  0  0
 36 56  1  0  0  0
 36104  1  0  0  0
 37 39  1  0  0  0
 37 47  1  0  0  0
 37 66  1  0  0  0
 37105  1  0  0  0
 38 43  2  0  0  0
 38 46  1  0  0  0
 38 47  1  0  0  0
 39 64  1  0  0  0
 39 67  2  0  0  0
 40 52  1  0  0  0
 40 53  2  0  0  0
 40 58  1  0  0  0
 41106  1  0  0  0
 41107  1  0  0  0
 41108  1  0  0  0
 41 48  1  0  0  0
 42 43  1  0  0  0
 42 66  1  0  0  0
 42109  1  0  0  0
 42110  1  0  0  0
 43 44  1  0  0  0
 44111  1  0  0  0
 45 46  2  0  0  0
 45112  1  0  0  0
 46113  1  0  0  0
 47114  1  0  0  0
 47115  1  0  0  0
 48 56  1  0  0  0
 48 65  1  0  0  0
 48116  1  0  0  0
 49 50  1  0  0  0
 49 53  1  0  0  0
 49 64  1  0  0  0
 49117  1  0  0  0
 50 51  1  0  0  0
 50118  1  0  0  0
 50119  1  0  0  0
 51 52  1  0  0  0
 51120  1  0  0  0
 51121  1  0  0  0
 52122  1  0  0  0
 52123  1  0  0  0
 53 54  1  0  0  0
 54 55  2  0  0  0
 54124  1  0  0  0
 55 57  1  0  0  0
 55125  1  0  0  0
 56 69  2  0  0  0
 57 58  2  0  0  0
 57126  1  0  0  0
 58127  1  0  0  0
 59 60  1  0  0  0
 59 61  1  0  0  0
 59 62  1  0  0  0
 60128  1  0  0  0
 60129  1  0  0  0
 60130  1  0  0  0
 61131  1  0  0  0
 61132  1  0  0  0
 61133  1  0  0  0
 62134  1  0  0  0
 62135  1  0  0  0
 62136  1  0  0  0
 63 65  1  0  0  0
 63137  1  0  0  0
 63138  1  0  0  0
 63139  1  0  0  0
 64140  1  0  0  0
 65141  1  0  0  0
 68 78  1  0  0  0
 71142  1  0  0  0
 71143  1  0  0  0
 71144  1  0  0  0
 71 79  1  0  0  0
 72145  1  0  0  0
 72146  1  0  0  0
 72147  1  0  0  0
 72 80  1  0  0  0
 73148  1  0  0  0
 73149  1  0  0  0
 73150  1  0  0  0
 73 82  1  0  0  0
 74 79  1  0  0  0
 74 80  1  0  0  0
 74151  1  0  0  0
 74152  1  0  0  0
 75 76  1  0  0  0
 75 81  1  0  0  0
 75153  1  0  0  0
 75154  1  0  0  0
 76 82  1  0  0  0
 76155  1  0  0  0
 76156  1  0  0  0
 77 79  1  0  0  0
 77 82  1  0  0  0
 77157  1  0  0  0
 77158  1  0  0  0
 78 80  1  0  0  0
 78159  1  0  0  0
 78160  1  0  0  0
 79161  1  0  0  0
 80162  1  0  0  0
 81163  1  0  0  0
 82164  1  0  0  0
M  CHG  1  82   1
M  ISO  4   1 100  68 101  78 101  81 100
M  END
> <chiral flag>
0

> <version>
0

> <s_m_source_file>
/data/baiqing/PycharmProjects/Reinvent-master-3.2/result/LINK_invent/BTK/process_docking_weight1_custom_sum_contain_oxygen_bond_distance_aromatic_linkinvent_7_9_3/rearranged_h_0110.sdf

> <i_m_source_file_index>
87

> <r_mmod_Potential_Energy-OPLS-2005>
-137.102386474609

> <r_mmod_Stretch_Energy-OPLS-2005>
51.1147499084473

> <r_mmod_Bend_Energy-OPLS-2005>
131.93733215332

> <r_mmod_Torsional_Energy-OPLS-2005>
235.976593017578

> <r_mmod_Improper_Torsional_Energy-OPLS-2005>
5.85309028625488

> <r_mmod_Van_der_Waal_Energy-OPLS-2005>
123.982528686523

> <r_mmod_Electrostatic_Energy-OPLS-2005>
-250.71403503418

> <r_mmod_Solvation_Energy-OPLS-2005>
-457.028167724609

> <b_mmod_Minimization_Converged-OPLS-2005>
0

> <r_mmod_RMS_Derivative-OPLS-2005>
2.1293511390686

$$$$
88
                    3D
 Structure written by MMmdl.
169177  0  0  1  0            999 V2000
  -30.6790  -14.4418   20.6038 C   0  0  0  0  0  0
  -30.4285  -12.3071   19.3966 C   0  0  0  0  0  0
  -29.4808  -12.5056   18.1950 C   0  0  0  0  0  0
  -28.0037  -12.3705   18.6147 C   0  0  0  0  0  0
  -27.6609  -13.1906   19.8848 C   0  0  2  0  0  0
  -28.7042  -12.9302   20.9934 C   0  0  0  0  0  0
  -25.2579  -13.8082   20.5643 C   0  0  0  0  0  0
  -24.1829  -13.0408   20.9180 C   0  0  0  0  0  0
  -24.6351  -11.6867   20.8754 C   0  0  0  0  0  0
  -23.9008  -10.4274   21.0419 C   0  0  0  0  0  0
  -24.3572   -9.4194   21.9196 C   0  0  0  0  0  0
  -23.6267   -8.2220   22.0755 C   0  0  0  0  0  0
  -22.4263   -8.0248   21.3531 C   0  0  0  0  0  0
  -21.9879   -9.0220   20.4641 C   0  0  0  0  0  0
  -22.7178  -10.2119   20.3067 C   0  0  0  0  0  0
  -21.6841   -6.0709   22.5273 C   0  0  0  0  0  0
  -21.3995   -6.5631   23.8201 C   0  0  0  0  0  0
  -21.3674   -5.6795   24.9166 C   0  0  0  0  0  0
  -21.6042   -4.3052   24.7235 C   0  0  0  0  0  0
  -21.8812   -3.8141   23.4363 C   0  0  0  0  0  0
  -21.9182   -4.6937   22.3405 C   0  0  0  0  0  0
  -22.7864  -13.5233   21.1860 C   0  0  0  0  0  0
  -22.1654   -4.2121   21.0977 F   0  0  0  0  0  0
  -21.5631   -3.4541   25.7759 F   0  0  0  0  0  0
  -30.0315  -13.2598   20.4425 N   0  0  0  0  0  0
  -26.3001  -12.9227   20.3410 N   0  0  0  0  0  0
  -25.9275  -11.6403   20.5826 N   0  0  0  0  0  0
  -22.0505  -12.8235   22.0410 N   0  0  0  0  0  0
  -25.4354  -15.1767   20.3928 N   0  0  0  0  0  0
  -31.7875  -14.6829   20.1163 O   0  0  0  0  0  0
  -21.6623   -6.8848   21.4242 O   0  0  0  0  0  0
  -22.3567  -14.5553   20.6727 O   0  0  0  0  0  0
  -24.6160  -31.8705   23.2132 C   0  0  0  0  0  0
  -25.9064  -32.4838   23.8426 C   0  0  1  0  0  0
  -27.2232  -27.4277   20.0827 C   0  0  0  0  0  0
  -25.5929  -33.8644   24.2345 N   0  0  0  0  0  0
  -23.4021  -30.4998   21.5524 C   0  0  2  0  0  0
  -24.8428  -28.9647   20.1156 C   0  0  0  0  0  0
  -22.7419  -29.4693   22.4967 C   0  0  0  0  0  0
  -18.0286  -28.1395   22.8480 C   0  0  0  0  0  0
  -24.1477  -36.7324   23.2642 C   0  0  0  0  0  0
  -25.9346  -30.8265   21.3723 C   0  0  0  0  0  0
  -26.0061  -29.4626   20.7156 C   0  0  0  0  0  0
  -27.1975  -28.7004   20.6996 C   0  0  0  0  0  0
  -26.0364  -26.9490   19.4753 C   0  0  0  0  0  0
  -24.8517  -27.7036   19.5003 C   0  0  0  0  0  0
  -23.6116  -29.8410   20.1642 C   0  0  0  0  0  0
  -25.4099  -36.3125   24.0340 C   0  0  1  0  0  0
  -20.5875  -28.3684   23.1292 C   0  0  2  0  0  0
  -20.6781  -26.9419   22.5412 C   0  0  0  0  0  0
  -19.5761  -26.6386   21.5214 C   0  0  0  0  0  0
  -18.1932  -26.7937   22.1611 C   0  0  0  0  0  0
  -19.1536  -28.8852   23.2882 C   0  0  0  0  0  0
  -18.9478  -30.1451   23.8901 C   0  0  0  0  0  0
  -17.6488  -30.6598   24.0579 C   0  0  0  0  0  0
  -25.9029  -34.9485   23.5124 C   0  0  0  0  0  0
  -16.5375  -29.9110   23.6327 C   0  0  0  0  0  0
  -16.7273  -28.6537   23.0334 C   0  0  0  0  0  0
  -26.4486  -31.6653   25.0781 C   0  0  0  0  0  0
  -25.3768  -31.3779   26.1557 C   0  0  0  0  0  0
  -27.0341  -30.3096   24.6182 C   0  0  0  0  0  0
  -27.6051  -32.4407   25.7527 C   0  0  0  0  0  0
  -27.5571  -37.1821   24.8466 C   0  0  0  0  0  0
  -21.4151  -29.3066   22.3711 N   0  0  0  0  0  0
  -26.4281  -37.3810   23.9419 N   0  0  0  0  0  0
  -24.6690  -31.0795   22.1038 N   0  0  0  0  0  0
  -23.4190  -28.8214   23.2997 O   0  0  0  0  0  0
  -28.3922  -26.6893   20.0938 O   0  0  0  0  0  0
  -26.5580  -34.8944   22.4677 O   0  0  0  0  0  0
  -23.5352  -32.1489   23.7513 O   0  0  0  0  0  0
  -28.8847  -20.8667   22.6666 C   0  0  0  0  0  0
  -27.9851  -19.9780   23.3032 C   0  0  0  0  0  0
  -29.4666  -20.2143   21.6146 C   0  0  0  0  0  0
  -28.0274  -18.7834   22.6438 C   0  0  0  0  0  0
  -25.7333  -17.8173   22.4343 C   0  0  0  0  0  0
  -27.1834  -17.1216   24.3625 C   0  0  0  0  0  0
  -30.4574  -20.7470   20.5999 C   0  0  0  0  0  0
  -29.5595  -24.5110   20.1897 C   0  0  0  0  0  0
  -29.4177  -17.7920   20.7620 C   0  0  0  0  0  0
  -30.3351  -16.7766   21.4964 C   0  0  0  0  0  0
  -29.4018  -22.9734   20.0520 C   0  0  0  0  0  0
  -28.2756  -25.2817   19.8279 C   0  0  0  0  0  0
  -27.1762  -17.5609   22.8906 C   0  0  0  0  0  0
  -28.9952  -18.8921   21.6386 N   0  0  0  0  0  0
  -29.9640  -15.3796   21.2446 N   0  0  0  0  0  0
  -30.5744  -22.2284   20.5832 N   0  3  0  0  0  0
  -31.4652  -12.4451   19.0803 H   0  0  0  0  0  0
  -30.3618  -11.2873   19.7771 H   0  0  0  0  0  0
  -29.7077  -11.7803   17.4143 H   0  0  0  0  0  0
  -29.6436  -13.4908   17.7557 H   0  0  0  0  0  0
  -27.8038  -11.3133   18.7966 H   0  0  0  0  0  0
  -27.3479  -12.6635   17.7945 H   0  0  0  0  0  0
  -27.7145  -14.2448   19.6123 H   0  0  0  0  0  0
  -28.6871  -11.8792   21.2866 H   0  0  0  0  0  0
  -28.4649  -13.4796   21.9051 H   0  0  0  0  0  0
  -25.2731   -9.5668   22.4771 H   0  0  0  0  0  0
  -23.9966   -7.4613   22.7477 H   0  0  0  0  0  0
  -21.0792   -8.8722   19.8966 H   0  0  0  0  0  0
  -22.3613  -10.9655   19.6175 H   0  0  0  0  0  0
  -21.1983   -7.6146   23.9688 H   0  0  0  0  0  0
  -21.1514   -6.0540   25.9063 H   0  0  0  0  0  0
  -22.0593   -2.7604   23.2868 H   0  0  0  0  0  0
  -22.4117  -11.9875   22.4773 H   0  0  0  0  0  0
  -21.1131  -13.1269   22.2644 H   0  0  0  0  0  0
  -24.6751  -15.8361   20.5047 H   0  0  0  0  0  0
  -26.2815  -15.6046   20.0433 H   0  0  0  0  0  0
  -26.7144  -32.5534   23.1195 H   0  0  0  0  0  0
  -25.0165  -33.9824   25.0544 H   0  0  0  0  0  0
  -22.6908  -31.3173   21.4159 H   0  0  0  0  0  0
  -23.3744  -35.9653   23.3320 H   0  0  0  0  0  0
  -24.3559  -36.8930   22.2052 H   0  0  0  0  0  0
  -23.7231  -37.6538   23.6647 H   0  0  0  0  0  0
  -26.0556  -31.5891   20.6020 H   0  0  0  0  0  0
  -26.8197  -30.8727   21.9951 H   0  0  0  0  0  0
  -28.0928  -29.0758   21.1755 H   0  0  0  0  0  0
  -25.9983  -25.9950   18.9715 H   0  0  0  0  0  0
  -23.9550  -27.3109   19.0399 H   0  0  0  0  0  0
  -23.7405  -30.6256   19.4179 H   0  0  0  0  0  0
  -22.7309  -29.2792   19.8484 H   0  0  0  0  0  0
  -25.1264  -36.1994   25.0834 H   0  0  0  0  0  0
  -20.9960  -28.3279   24.1411 H   0  0  0  0  0  0
  -20.5689  -26.2316   23.3622 H   0  0  0  0  0  0
  -21.6649  -26.7467   22.1200 H   0  0  0  0  0  0
  -19.6929  -25.6290   21.1260 H   0  0  0  0  0  0
  -19.6698  -27.3179   20.6739 H   0  0  0  0  0  0
  -17.4208  -26.6702   21.4006 H   0  0  0  0  0  0
  -18.0317  -26.0061   22.8992 H   0  0  0  0  0  0
  -19.7968  -30.7266   24.2258 H   0  0  0  0  0  0
  -17.5064  -31.6261   24.5212 H   0  0  0  0  0  0
  -15.5383  -30.3038   23.7652 H   0  0  0  0  0  0
  -15.8675  -28.0884   22.7020 H   0  0  0  0  0  0
  -24.5902  -30.7145   25.7949 H   0  0  0  0  0  0
  -24.9008  -32.2948   26.5043 H   0  0  0  0  0  0
  -25.8142  -30.8958   27.0308 H   0  0  0  0  0  0
  -26.2898  -29.6846   24.1231 H   0  0  0  0  0  0
  -27.4124  -29.7349   25.4653 H   0  0  0  0  0  0
  -27.8727  -30.4442   23.9341 H   0  0  0  0  0  0
  -27.2646  -33.3700   26.2106 H   0  0  0  0  0  0
  -28.3838  -32.7000   25.0342 H   0  0  0  0  0  0
  -28.0751  -31.8564   26.5447 H   0  0  0  0  0  0
  -28.2598  -38.0107   24.7497 H   0  0  0  0  0  0
  -28.1051  -36.2638   24.6292 H   0  0  0  0  0  0
  -27.2295  -37.1489   25.8872 H   0  0  0  0  0  0
  -20.9323  -29.8864   21.6989 H   0  0  0  0  0  0
  -26.0176  -38.2892   24.1436 H   0  0  0  0  0  0
  -29.0619  -21.8947   22.9481 H   0  0  0  0  0  0
  -27.3481  -20.1996   24.1477 H   0  0  0  0  0  0
  -25.6992  -18.0788   21.3755 H   0  0  0  0  0  0
  -25.2827  -18.6365   22.9953 H   0  0  0  0  0  0
  -25.1067  -16.9379   22.5825 H   0  0  0  0  0  0
  -28.1952  -16.9023   24.7042 H   0  0  0  0  0  0
  -26.5865  -16.2187   24.5016 H   0  0  0  0  0  0
  -26.7648  -17.8867   25.0164 H   0  0  0  0  0  0
  -30.2068  -20.4088   19.5938 H   0  0  0  0  0  0
  -31.4439  -20.3377   20.8237 H   0  0  0  0  0  0
  -30.3753  -24.8549   19.5529 H   0  0  0  0  0  0
  -29.8330  -24.7624   21.2149 H   0  0  0  0  0  0
  -28.5198  -17.3157   20.3648 H   0  0  0  0  0  0
  -29.9413  -18.1869   19.8925 H   0  0  0  0  0  0
  -31.3751  -16.9673   21.2256 H   0  0  0  0  0  0
  -30.2797  -16.9246   22.5761 H   0  0  0  0  0  0
  -29.2469  -22.7059   19.0060 H   0  0  0  0  0  0
  -28.5022  -22.6532   20.5784 H   0  0  0  0  0  0
  -28.0497  -25.1215   18.7724 H   0  0  0  0  0  0
  -27.4506  -24.8664   20.4105 H   0  0  0  0  0  0
  -27.5488  -16.7149   22.3151 H   0  0  0  0  0  0
  -29.0595  -15.0850   21.5815 H   0  0  0  0  0  0
  -31.3799  -22.4640   20.0262 H   0  0  0  0  0  0
  -30.7709  -22.5243   21.5236 H   0  0  0  0  0  0
  1 25  1  0  0  0
  1 30  2  0  0  0
  1 85  1  0  0  0
  2  3  1  0  0  0
  2 25  1  0  0  0
  2 87  1  0  0  0
  2 88  1  0  0  0
  3  4  1  0  0  0
  3 89  1  0  0  0
  3 90  1  0  0  0
  4  5  1  0  0  0
  4 91  1  0  0  0
  4 92  1  0  0  0
  5  6  1  0  0  0
  5 26  1  0  0  0
  5 93  1  0  0  0
  6 25  1  0  0  0
  6 94  1  0  0  0
  6 95  1  0  0  0
  7  8  2  0  0  0
  7 26  1  0  0  0
  7 29  1  0  0  0
  8  9  1  0  0  0
  8 22  1  0  0  0
  9 10  1  0  0  0
  9 27  2  0  0  0
 10 11  2  0  0  0
 10 15  1  0  0  0
 11 12  1  0  0  0
 11 96  1  0  0  0
 12 13  2  0  0  0
 12 97  1  0  0  0
 13 14  1  0  0  0
 13 31  1  0  0  0
 14 15  2  0  0  0
 14 98  1  0  0  0
 15 99  1  0  0  0
 16 17  2  0  0  0
 16 21  1  0  0  0
 16 31  1  0  0  0
 17 18  1  0  0  0
 17100  1  0  0  0
 18 19  2  0  0  0
 18101  1  0  0  0
 19 20  1  0  0  0
 19 24  1  0  0  0
 20 21  2  0  0  0
 20102  1  0  0  0
 21 23  1  0  0  0
 22 28  1  0  0  0
 22 32  2  0  0  0
 26 27  1  0  0  0
 28103  1  0  0  0
 28104  1  0  0  0
 29105  1  0  0  0
 29106  1  0  0  0
 33 34  1  0  0  0
 33 66  1  0  0  0
 33 70  2  0  0  0
 34 36  1  0  0  0
 34 59  1  0  0  0
 34107  1  0  0  0
 35 44  2  0  0  0
 35 45  1  0  0  0
 35 68  1  0  0  0
 36 56  1  0  0  0
 36108  1  0  0  0
 37 39  1  0  0  0
 37 47  1  0  0  0
 37 66  1  0  0  0
 37109  1  0  0  0
 38 43  2  0  0  0
 38 46  1  0  0  0
 38 47  1  0  0  0
 39 64  1  0  0  0
 39 67  2  0  0  0
 40 52  1  0  0  0
 40 53  2  0  0  0
 40 58  1  0  0  0
 41110  1  0  0  0
 41111  1  0  0  0
 41112  1  0  0  0
 41 48  1  0  0  0
 42 43  1  0  0  0
 42 66  1  0  0  0
 42113  1  0  0  0
 42114  1  0  0  0
 43 44  1  0  0  0
 44115  1  0  0  0
 45 46  2  0  0  0
 45116  1  0  0  0
 46117  1  0  0  0
 47118  1  0  0  0
 47119  1  0  0  0
 48 56  1  0  0  0
 48 65  1  0  0  0
 48120  1  0  0  0
 49 50  1  0  0  0
 49 53  1  0  0  0
 49 64  1  0  0  0
 49121  1  0  0  0
 50 51  1  0  0  0
 50122  1  0  0  0
 50123  1  0  0  0
 51 52  1  0  0  0
 51124  1  0  0  0
 51125  1  0  0  0
 52126  1  0  0  0
 52127  1  0  0  0
 53 54  1  0  0  0
 54 55  2  0  0  0
 54128  1  0  0  0
 55 57  1  0  0  0
 55129  1  0  0  0
 56 69  2  0  0  0
 57 58  2  0  0  0
 57130  1  0  0  0
 58131  1  0  0  0
 59 60  1  0  0  0
 59 61  1  0  0  0
 59 62  1  0  0  0
 60132  1  0  0  0
 60133  1  0  0  0
 60134  1  0  0  0
 61135  1  0  0  0
 61136  1  0  0  0
 61137  1  0  0  0
 62138  1  0  0  0
 62139  1  0  0  0
 62140  1  0  0  0
 63 65  1  0  0  0
 63141  1  0  0  0
 63142  1  0  0  0
 63143  1  0  0  0
 64144  1  0  0  0
 65145  1  0  0  0
 68 82  1  0  0  0
 71 72  1  0  0  0
 71 73  2  0  0  0
 71146  1  0  0  0
 72 74  2  0  0  0
 72147  1  0  0  0
 73 77  1  0  0  0
 73 84  1  0  0  0
 74 83  1  0  0  0
 74 84  1  0  0  0
 75148  1  0  0  0
 75149  1  0  0  0
 75150  1  0  0  0
 75 83  1  0  0  0
 76 83  1  0  0  0
 76151  1  0  0  0
 76152  1  0  0  0
 76153  1  0  0  0
 77 86  1  0  0  0
 77154  1  0  0  0
 77155  1  0  0  0
 78 81  1  0  0  0
 78 82  1  0  0  0
 78156  1  0  0  0
 78157  1  0  0  0
 79 80  1  0  0  0
 79 84  1  0  0  0
 79158  1  0  0  0
 79159  1  0  0  0
 80 85  1  0  0  0
 80160  1  0  0  0
 80161  1  0  0  0
 81 86  1  0  0  0
 81162  1  0  0  0
 81163  1  0  0  0
 82164  1  0  0  0
 82165  1  0  0  0
 83166  1  0  0  0
 85167  1  0  0  0
 86168  1  0  0  0
 86169  1  0  0  0
M  CHG  1  86   1
M  ISO  4   1 100  68 101  82 101  85 100
M  END
> <chiral flag>
0

> <version>
0

> <s_m_source_file>
/data/baiqing/PycharmProjects/Reinvent-master-3.2/result/LINK_invent/BTK/process_docking_weight1_custom_sum_contain_oxygen_bond_distance_aromatic_linkinvent_7_9_3/rearranged_h_0110.sdf

> <i_m_source_file_index>
88

> <r_mmod_Potential_Energy-OPLS-2005>
-312.511138916016

> <r_mmod_Stretch_Energy-OPLS-2005>
37.0775260925293

> <r_mmod_Bend_Energy-OPLS-2005>
97.7972640991211

> <r_mmod_Torsional_Energy-OPLS-2005>
221.246856689453

> <r_mmod_Improper_Torsional_Energy-OPLS-2005>
2.752121925354

> <r_mmod_Van_der_Waal_Energy-OPLS-2005>
127.314888000488

> <r_mmod_Electrostatic_Energy-OPLS-2005>
-349.342529296875

> <r_mmod_Solvation_Energy-OPLS-2005>
-461.732391357422

> <b_mmod_Minimization_Converged-OPLS-2005>
0

> <r_mmod_RMS_Derivative-OPLS-2005>
3.0495445728302

$$$$
89
                    3D
 Structure written by MMmdl.
155162  0  0  1  0            999 V2000
  -30.5568  -14.9252   20.4230 C   0  0  0  0  0  0
  -30.4383  -12.5724   19.4979 C   0  0  0  0  0  0
  -29.5204  -12.5293   18.2551 C   0  0  0  0  0  0
  -28.0541  -12.3171   18.6740 C   0  0  0  0  0  0
  -27.6310  -13.2473   19.8393 C   0  0  2  0  0  0
  -28.6745  -13.2710   20.9777 C   0  0  0  0  0  0
  -25.2475  -13.8215   20.5724 C   0  0  0  0  0  0
  -24.1790  -13.0452   20.9269 C   0  0  0  0  0  0
  -24.6393  -11.6933   20.8771 C   0  0  0  0  0  0
  -23.9072  -10.4306   21.0421 C   0  0  0  0  0  0
  -24.3630   -9.4220   21.9199 C   0  0  0  0  0  0
  -23.6314   -8.2240   22.0755 C   0  0  0  0  0  0
  -22.4296   -8.0279   21.3540 C   0  0  0  0  0  0
  -21.9936   -9.0255   20.4639 C   0  0  0  0  0  0
  -22.7250  -10.2142   20.3061 C   0  0  0  0  0  0
  -21.6849   -6.0742   22.5286 C   0  0  0  0  0  0
  -21.3996   -6.5646   23.8220 C   0  0  0  0  0  0
  -21.3660   -5.6799   24.9183 C   0  0  0  0  0  0
  -21.6055   -4.3057   24.7231 C   0  0  0  0  0  0
  -21.8815   -3.8150   23.4345 C   0  0  0  0  0  0
  -21.9192   -4.6972   22.3402 C   0  0  0  0  0  0
  -22.7811  -13.5238   21.1904 C   0  0  0  0  0  0
  -22.1678   -4.2160   21.0980 F   0  0  0  0  0  0
  -21.5623   -3.4542   25.7739 F   0  0  0  0  0  0
  -29.9555  -13.6704   20.3833 N   0  0  0  0  0  0
  -26.2891  -12.9439   20.3241 N   0  0  0  0  0  0
  -25.9315  -11.6572   20.5736 N   0  0  0  0  0  0
  -22.0445  -12.8220   22.0433 N   0  0  0  0  0  0
  -25.4129  -15.1939   20.4077 N   0  0  0  0  0  0
  -31.7546  -14.9915   20.1283 O   0  0  0  0  0  0
  -21.6644   -6.8892   21.4248 O   0  0  0  0  0  0
  -22.3521  -14.5553   20.6749 O   0  0  0  0  0  0
  -24.6425  -31.8459   23.1899 C   0  0  0  0  0  0
  -25.9208  -32.4707   23.8271 C   0  0  1  0  0  0
  -27.2083  -27.1343   20.1692 C   0  0  0  0  0  0
  -25.5959  -33.8500   24.2201 N   0  0  0  0  0  0
  -23.4449  -30.4670   21.5342 C   0  0  2  0  0  0
  -24.8969  -28.8954   20.1127 C   0  0  0  0  0  0
  -22.7565  -29.4553   22.4839 C   0  0  0  0  0  0
  -18.0302  -28.1383   22.8471 C   0  0  0  0  0  0
  -24.1487  -36.7260   23.2640 C   0  0  0  0  0  0
  -26.0009  -30.7186   21.3926 C   0  0  0  0  0  0
  -26.0716  -29.3268   20.7417 C   0  0  0  0  0  0
  -27.2293  -28.4602   20.7601 C   0  0  0  0  0  0
  -26.0317  -26.8362   19.4512 C   0  0  0  0  0  0
  -24.8880  -27.6596   19.4526 C   0  0  0  0  0  0
  -23.6742  -29.7979   20.1532 C   0  0  0  0  0  0
  -25.4123  -36.3040   24.0320 C   0  0  1  0  0  0
  -20.5925  -28.3711   23.1215 C   0  0  2  0  0  0
  -20.6785  -26.9407   22.5390 C   0  0  0  0  0  0
  -19.5755  -26.6364   21.5196 C   0  0  0  0  0  0
  -18.1938  -26.7919   22.1614 C   0  0  0  0  0  0
  -19.1566  -28.8863   23.2837 C   0  0  0  0  0  0
  -18.9481  -30.1465   23.8860 C   0  0  0  0  0  0
  -17.6474  -30.6579   24.0559 C   0  0  0  0  0  0
  -25.9067  -34.9416   23.5064 C   0  0  0  0  0  0
  -16.5364  -29.9066   23.6339 C   0  0  0  0  0  0
  -16.7290  -28.6487   23.0352 C   0  0  0  0  0  0
  -26.4531  -31.6554   25.0699 C   0  0  0  0  0  0
  -25.3714  -31.3749   26.1398 C   0  0  0  0  0  0
  -27.0396  -30.2950   24.6282 C   0  0  0  0  0  0
  -27.6072  -32.4299   25.7479 C   0  0  0  0  0  0
  -27.5573  -37.1793   24.8463 C   0  0  0  0  0  0
  -21.4254  -29.3048   22.3601 N   0  0  0  0  0  0
  -26.4281  -37.3758   23.9408 N   0  0  0  0  0  0
  -24.7152  -31.0315   22.0937 N   0  0  0  0  0  0
  -23.4222  -28.8099   23.2982 O   0  0  0  0  0  0
  -28.2541  -26.1369   20.2044 O   0  0  0  0  0  0
  -26.5632  -34.8900   22.4632 O   0  0  0  0  0  0
  -23.5541  -32.1309   23.7143 O   0  0  0  0  0  0
  -28.5528  -18.8146   22.0576 C   0  0  0  0  0  0
  -26.5919  -24.2169   20.8018 C   0  0  0  0  0  0
  -28.9418  -23.2930   20.1907 C   0  0  0  0  0  0
  -30.1367  -17.6329   20.3400 C   0  0  0  0  0  0
  -28.6019  -21.6964   20.6438 C   0  0  0  0  0  0
  -29.0938  -18.9302   20.6214 C   0  0  2  0  0  0
  -28.0653  -24.6518   20.6863 C   0  0  1  0  0  0
  -29.7880  -16.1090   20.5760 N   0  0  0  0  0  0
  -29.5079  -20.4343   20.3134 N   0  3  0  0  0  0
  -31.4716  -12.7239   19.1828 H   0  0  0  0  0  0
  -30.4226  -11.6161   20.0233 H   0  0  0  0  0  0
  -29.8344  -11.7363   17.5766 H   0  0  0  0  0  0
  -29.6149  -13.4619   17.6967 H   0  0  0  0  0  0
  -27.9509  -11.2762   18.9814 H   0  0  0  0  0  0
  -27.3894  -12.4480   17.8198 H   0  0  0  0  0  0
  -27.5967  -14.2496   19.4123 H   0  0  0  0  0  0
  -28.7544  -12.2980   21.4623 H   0  0  0  0  0  0
  -28.3790  -13.9773   21.7533 H   0  0  0  0  0  0
  -25.2767   -9.5704   22.4782 H   0  0  0  0  0  0
  -24.0021   -7.4638   22.7471 H   0  0  0  0  0  0
  -21.0864   -8.8779   19.8954 H   0  0  0  0  0  0
  -22.3706  -10.9690   19.6176 H   0  0  0  0  0  0
  -21.1979   -7.6153   23.9728 H   0  0  0  0  0  0
  -21.1494   -6.0525   25.9093 H   0  0  0  0  0  0
  -22.0594   -2.7610   23.2837 H   0  0  0  0  0  0
  -22.4054  -11.9877   22.4811 H   0  0  0  0  0  0
  -21.1053  -13.1237   22.2634 H   0  0  0  0  0  0
  -24.6261  -15.8301   20.4756 H   0  0  0  0  0  0
  -26.2311  -15.6170   19.9901 H   0  0  0  0  0  0
  -26.7276  -32.5333   23.1002 H   0  0  0  0  0  0
  -25.0137  -33.9603   25.0367 H   0  0  0  0  0  0
  -22.7458  -31.2923   21.3807 H   0  0  0  0  0  0
  -23.3752  -35.9589   23.3289 H   0  0  0  0  0  0
  -24.3580  -36.8896   22.2056 H   0  0  0  0  0  0
  -23.7225  -37.6451   23.6671 H   0  0  0  0  0  0
  -26.1536  -31.4694   20.6159 H   0  0  0  0  0  0
  -26.8735  -30.7764   22.0310 H   0  0  0  0  0  0
  -28.1202  -28.7845   21.2781 H   0  0  0  0  0  0
  -25.9739  -25.9156   18.8933 H   0  0  0  0  0  0
  -24.0003  -27.3298   18.9307 H   0  0  0  0  0  0
  -23.8111  -30.5713   19.3956 H   0  0  0  0  0  0
  -22.7911  -29.2379   19.8429 H   0  0  0  0  0  0
  -25.1308  -36.1877   25.0815 H   0  0  0  0  0  0
  -21.0022  -28.3297   24.1334 H   0  0  0  0  0  0
  -20.5642  -26.2320   23.3605 H   0  0  0  0  0  0
  -21.6651  -26.7371   22.1218 H   0  0  0  0  0  0
  -19.6895  -25.6265   21.1239 H   0  0  0  0  0  0
  -19.6704  -27.3153   20.6712 H   0  0  0  0  0  0
  -17.4207  -26.6669   21.4015 H   0  0  0  0  0  0
  -18.0353  -26.0057   22.9017 H   0  0  0  0  0  0
  -19.7962  -30.7301   24.2193 H   0  0  0  0  0  0
  -17.5029  -31.6257   24.5174 H   0  0  0  0  0  0
  -15.5368  -30.2962   23.7668 H   0  0  0  0  0  0
  -15.8697  -28.0801   22.7066 H   0  0  0  0  0  0
  -24.5913  -30.7068   25.7721 H   0  0  0  0  0  0
  -24.8871  -32.2933   26.4728 H   0  0  0  0  0  0
  -25.8002  -30.8986   27.0226 H   0  0  0  0  0  0
  -26.3018  -29.6665   24.1290 H   0  0  0  0  0  0
  -27.4011  -29.7259   25.4850 H   0  0  0  0  0  0
  -27.8922  -30.4172   23.9603 H   0  0  0  0  0  0
  -27.2697  -33.3641   26.1979 H   0  0  0  0  0  0
  -28.3934  -32.6787   25.0335 H   0  0  0  0  0  0
  -28.0685  -31.8458   26.5449 H   0  0  0  0  0  0
  -28.2597  -38.0087   24.7526 H   0  0  0  0  0  0
  -28.1065  -36.2620   24.6283 H   0  0  0  0  0  0
  -27.2291  -37.1443   25.8866 H   0  0  0  0  0  0
  -20.9436  -29.8814   21.6848 H   0  0  0  0  0  0
  -26.0151  -38.2828   24.1416 H   0  0  0  0  0  0
  -28.2036  -17.8044   22.2679 H   0  0  0  0  0  0
  -27.7034  -19.4781   22.2197 H   0  0  0  0  0  0
  -29.3202  -19.0541   22.7950 H   0  0  0  0  0  0
  -26.4979  -23.3221   21.4166 H   0  0  0  0  0  0
  -26.1634  -23.9778   19.8292 H   0  0  0  0  0  0
  -25.9716  -24.9656   21.2921 H   0  0  0  0  0  0
  -28.9547  -23.3074   19.1010 H   0  0  0  0  0  0
  -29.9760  -23.4837   20.4787 H   0  0  0  0  0  0
  -30.4485  -17.6962   19.2971 H   0  0  0  0  0  0
  -31.0470  -17.8261   20.9098 H   0  0  0  0  0  0
  -27.6160  -21.4612   20.2408 H   0  0  0  0  0  0
  -28.4671  -21.6977   21.7247 H   0  0  0  0  0  0
  -28.2391  -18.7544   19.9663 H   0  0  0  0  0  0
  -28.3742  -24.7606   21.7280 H   0  0  0  0  0  0
  -28.8198  -15.9360   20.8004 H   0  0  0  0  0  0
  -30.3950  -20.5949   20.7636 H   0  0  0  0  0  0
  -29.6921  -20.4713   19.3237 H   0  0  0  0  0  0
  1 25  1  0  0  0
  1 30  2  0  0  0
  1 78  1  0  0  0
  2  3  1  0  0  0
  2 25  1  0  0  0
  2 80  1  0  0  0
  2 81  1  0  0  0
  3  4  1  0  0  0
  3 82  1  0  0  0
  3 83  1  0  0  0
  4  5  1  0  0  0
  4 84  1  0  0  0
  4 85  1  0  0  0
  5  6  1  0  0  0
  5 26  1  0  0  0
  5 86  1  0  0  0
  6 25  1  0  0  0
  6 87  1  0  0  0
  6 88  1  0  0  0
  7  8  2  0  0  0
  7 26  1  0  0  0
  7 29  1  0  0  0
  8  9  1  0  0  0
  8 22  1  0  0  0
  9 10  1  0  0  0
  9 27  2  0  0  0
 10 11  2  0  0  0
 10 15  1  0  0  0
 11 12  1  0  0  0
 11 89  1  0  0  0
 12 13  2  0  0  0
 12 90  1  0  0  0
 13 14  1  0  0  0
 13 31  1  0  0  0
 14 15  2  0  0  0
 14 91  1  0  0  0
 15 92  1  0  0  0
 16 17  2  0  0  0
 16 21  1  0  0  0
 16 31  1  0  0  0
 17 18  1  0  0  0
 17 93  1  0  0  0
 18 19  2  0  0  0
 18 94  1  0  0  0
 19 20  1  0  0  0
 19 24  1  0  0  0
 20 21  2  0  0  0
 20 95  1  0  0  0
 21 23  1  0  0  0
 22 28  1  0  0  0
 22 32  2  0  0  0
 26 27  1  0  0  0
 28 96  1  0  0  0
 28 97  1  0  0  0
 29 98  1  0  0  0
 29 99  1  0  0  0
 33 34  1  0  0  0
 33 66  1  0  0  0
 33 70  2  0  0  0
 34 36  1  0  0  0
 34 59  1  0  0  0
 34100  1  0  0  0
 35 44  2  0  0  0
 35 45  1  0  0  0
 35 68  1  0  0  0
 36 56  1  0  0  0
 36101  1  0  0  0
 37 39  1  0  0  0
 37 47  1  0  0  0
 37 66  1  0  0  0
 37102  1  0  0  0
 38 43  2  0  0  0
 38 46  1  0  0  0
 38 47  1  0  0  0
 39 64  1  0  0  0
 39 67  2  0  0  0
 40 52  1  0  0  0
 40 53  2  0  0  0
 40 58  1  0  0  0
 41103  1  0  0  0
 41104  1  0  0  0
 41105  1  0  0  0
 41 48  1  0  0  0
 42 43  1  0  0  0
 42 66  1  0  0  0
 42106  1  0  0  0
 42107  1  0  0  0
 43 44  1  0  0  0
 44108  1  0  0  0
 45 46  2  0  0  0
 45109  1  0  0  0
 46110  1  0  0  0
 47111  1  0  0  0
 47112  1  0  0  0
 48 56  1  0  0  0
 48 65  1  0  0  0
 48113  1  0  0  0
 49 50  1  0  0  0
 49 53  1  0  0  0
 49 64  1  0  0  0
 49114  1  0  0  0
 50 51  1  0  0  0
 50115  1  0  0  0
 50116  1  0  0  0
 51 52  1  0  0  0
 51117  1  0  0  0
 51118  1  0  0  0
 52119  1  0  0  0
 52120  1  0  0  0
 53 54  1  0  0  0
 54 55  2  0  0  0
 54121  1  0  0  0
 55 57  1  0  0  0
 55122  1  0  0  0
 56 69  2  0  0  0
 57 58  2  0  0  0
 57123  1  0  0  0
 58124  1  0  0  0
 59 60  1  0  0  0
 59 61  1  0  0  0
 59 62  1  0  0  0
 60125  1  0  0  0
 60126  1  0  0  0
 60127  1  0  0  0
 61128  1  0  0  0
 61129  1  0  0  0
 61130  1  0  0  0
 62131  1  0  0  0
 62132  1  0  0  0
 62133  1  0  0  0
 63 65  1  0  0  0
 63134  1  0  0  0
 63135  1  0  0  0
 63136  1  0  0  0
 64137  1  0  0  0
 65138  1  0  0  0
 68 77  1  0  0  0
 71139  1  0  0  0
 71140  1  0  0  0
 71141  1  0  0  0
 71 76  1  0  0  0
 72142  1  0  0  0
 72143  1  0  0  0
 72144  1  0  0  0
 72 77  1  0  0  0
 73 75  1  0  0  0
 73 77  1  0  0  0
 73145  1  0  0  0
 73146  1  0  0  0
 74 76  1  0  0  0
 74 78  1  0  0  0
 74147  1  0  0  0
 74148  1  0  0  0
 75 79  1  0  0  0
 75149  1  0  0  0
 75150  1  0  0  0
 76 79  1  0  0  0
 76151  1  0  0  0
 77152  1  0  0  0
 78153  1  0  0  0
 79154  1  0  0  0
 79155  1  0  0  0
M  CHG  1  79   1
M  ISO  4   1 100  68 101  77 101  78 100
M  END
> <chiral flag>
0

> <version>
0

> <s_m_source_file>
/data/baiqing/PycharmProjects/Reinvent-master-3.2/result/LINK_invent/BTK/process_docking_weight1_custom_sum_contain_oxygen_bond_distance_aromatic_linkinvent_7_9_3/rearranged_h_0110.sdf

> <i_m_source_file_index>
89

> <r_mmod_Potential_Energy-OPLS-2005>
278.681030273438

> <r_mmod_Stretch_Energy-OPLS-2005>
267.566131591797

> <r_mmod_Bend_Energy-OPLS-2005>
260.394226074219

> <r_mmod_Torsional_Energy-OPLS-2005>
236.829666137695

> <r_mmod_Improper_Torsional_Energy-OPLS-2005>
5.21052026748657

> <r_mmod_Van_der_Waal_Energy-OPLS-2005>
118.260078430176

> <r_mmod_Electrostatic_Energy-OPLS-2005>
-305.897644042969

> <r_mmod_Solvation_Energy-OPLS-2005>
-488.711242675781

> <b_mmod_Minimization_Converged-OPLS-2005>
0

> <r_mmod_RMS_Derivative-OPLS-2005>
2.77462339401245

$$$$
90
                    3D
 Structure written by MMmdl.
165173  0  0  1  0            999 V2000
  -30.4444  -15.2353   20.3758 C   0  0  0  0  0  0
  -30.4380  -12.7827   19.5405 C   0  0  0  0  0  0
  -29.5437  -12.5789   18.2938 C   0  0  0  0  0  0
  -28.0814  -12.3221   18.6973 C   0  0  0  0  0  0
  -27.6145  -13.2766   19.8268 C   0  0  2  0  0  0
  -28.6444  -13.4272   20.9671 C   0  0  0  0  0  0
  -25.2380  -13.8250   20.5702 C   0  0  0  0  0  0
  -24.1737  -13.0440   20.9228 C   0  0  0  0  0  0
  -24.6411  -11.6942   20.8714 C   0  0  0  0  0  0
  -23.9108  -10.4298   21.0366 C   0  0  0  0  0  0
  -24.3664   -9.4223   21.9149 C   0  0  0  0  0  0
  -23.6332   -8.2260   22.0711 C   0  0  0  0  0  0
  -22.4307   -8.0290   21.3520 C   0  0  0  0  0  0
  -21.9943   -9.0257   20.4613 C   0  0  0  0  0  0
  -22.7265  -10.2137   20.3026 C   0  0  0  0  0  0
  -21.6876   -6.0732   22.5275 C   0  0  0  0  0  0
  -21.4014   -6.5626   23.8207 C   0  0  0  0  0  0
  -21.3643   -5.6772   24.9164 C   0  0  0  0  0  0
  -21.6047   -4.3034   24.7202 C   0  0  0  0  0  0
  -21.8823   -3.8135   23.4316 C   0  0  0  0  0  0
  -21.9204   -4.6962   22.3376 C   0  0  0  0  0  0
  -22.7761  -13.5187   21.1868 C   0  0  0  0  0  0
  -22.1697   -4.2153   21.0953 F   0  0  0  0  0  0
  -21.5634   -3.4513   25.7704 F   0  0  0  0  0  0
  -29.8871  -13.9271   20.3614 N   0  0  0  0  0  0
  -26.2816  -12.9532   20.3173 N   0  0  0  0  0  0
  -25.9343  -11.6637   20.5667 N   0  0  0  0  0  0
  -22.0432  -12.8192   22.0455 N   0  0  0  0  0  0
  -25.3957  -15.1989   20.4145 N   0  0  0  0  0  0
  -31.6531  -15.2299   20.0953 O   0  0  0  0  0  0
  -21.6676   -6.8881   21.4238 O   0  0  0  0  0  0
  -22.3411  -14.5452   20.6645 O   0  0  0  0  0  0
  -24.6621  -31.8224   23.1700 C   0  0  0  0  0  0
  -25.9301  -32.4573   23.8172 C   0  0  1  0  0  0
  -27.2171  -26.9214   20.1871 C   0  0  0  0  0  0
  -25.5983  -33.8395   24.2071 N   0  0  0  0  0  0
  -23.4771  -30.4327   21.5201 C   0  0  2  0  0  0
  -24.9315  -28.8200   20.1066 C   0  0  0  0  0  0
  -22.7657  -29.4434   22.4795 C   0  0  0  0  0  0
  -18.0321  -28.1421   22.8453 C   0  0  0  0  0  0
  -24.1495  -36.7199   23.2648 C   0  0  0  0  0  0
  -26.0462  -30.6231   21.4052 C   0  0  0  0  0  0
  -26.1116  -29.2140   20.7492 C   0  0  0  0  0  0
  -27.2432  -28.2832   20.7696 C   0  0  0  0  0  0
  -26.0157  -26.6864   19.4789 C   0  0  0  0  0  0
  -24.9099  -27.5783   19.4500 C   0  0  0  0  0  0
  -23.7156  -29.7462   20.1454 C   0  0  0  0  0  0
  -25.4138  -36.2968   24.0298 C   0  0  1  0  0  0
  -20.5943  -28.3767   23.1184 C   0  0  2  0  0  0
  -20.6808  -26.9448   22.5404 C   0  0  0  0  0  0
  -19.5781  -26.6374   21.5219 C   0  0  0  0  0  0
  -18.1958  -26.7943   22.1612 C   0  0  0  0  0  0
  -19.1582  -28.8912   23.2802 C   0  0  0  0  0  0
  -18.9488  -30.1507   23.8835 C   0  0  0  0  0  0
  -17.6478  -30.6599   24.0560 C   0  0  0  0  0  0
  -25.9102  -34.9346   23.5005 C   0  0  0  0  0  0
  -16.5369  -29.9081   23.6356 C   0  0  0  0  0  0
  -16.7298  -28.6518   23.0356 C   0  0  0  0  0  0
  -26.4551  -31.6539   25.0715 C   0  0  0  0  0  0
  -25.3652  -31.3793   26.1352 C   0  0  0  0  0  0
  -27.0450  -30.2901   24.6474 C   0  0  0  0  0  0
  -27.6034  -32.4348   25.7518 C   0  0  0  0  0  0
  -27.5572  -37.1762   24.8458 C   0  0  0  0  0  0
  -21.4330  -29.3034   22.3521 N   0  0  0  0  0  0
  -26.4281  -37.3701   23.9394 N   0  0  0  0  0  0
  -24.7498  -30.9879   22.0847 N   0  0  0  0  0  0
  -23.4195  -28.8017   23.3049 O   0  0  0  0  0  0
  -28.2217  -25.8238   20.3215 O   0  0  0  0  0  0
  -26.5720  -34.8873   22.4607 O   0  0  0  0  0  0
  -23.5691  -32.1215   23.6780 O   0  0  0  0  0  0
  -26.4533  -21.5270   20.8007 C   0  0  0  0  0  0
  -27.4167  -22.3856   21.6409 C   0  0  0  0  0  0
  -27.2800  -20.9802   19.6131 C   0  0  0  0  0  0
  -28.5903  -22.6371   20.6956 C   0  0  2  0  0  0
  -29.7177  -19.1134   17.5067 C   0  0  0  0  0  0
  -29.2350  -16.6901   17.7303 C   0  0  0  0  0  0
  -31.2730  -18.3552   19.8563 C   0  0  0  0  0  0
  -28.1721  -24.2189   19.9095 C   0  0  0  0  0  0
  -29.1234  -19.6259   20.6901 C   0  0  0  0  0  0
  -29.1532  -18.0457   18.4713 C   0  0  0  0  0  0
  -29.7545  -18.0929   19.9327 C   0  0  1  0  0  0
  -29.6786  -16.5060   20.4903 N   0  0  0  0  0  0
  -28.6974  -21.1122   20.0163 N   0  3  1  0  0  0
  -31.4607  -12.9748   19.2137 H   0  0  0  0  0  0
  -30.4963  -11.8667   20.1309 H   0  0  0  0  0  0
  -29.9163  -11.7503   17.6883 H   0  0  0  0  0  0
  -29.5979  -13.4676   17.6640 H   0  0  0  0  0  0
  -28.0120  -11.2865   19.0332 H   0  0  0  0  0  0
  -27.4294  -12.4128   17.8282 H   0  0  0  0  0  0
  -27.5276  -14.2529   19.3514 H   0  0  0  0  0  0
  -28.7977  -12.4812   21.4897 H   0  0  0  0  0  0
  -28.2862  -14.1380   21.7131 H   0  0  0  0  0  0
  -25.2816   -9.5699   22.4717 H   0  0  0  0  0  0
  -24.0027   -7.4638   22.7423 H   0  0  0  0  0  0
  -21.0870   -8.8767   19.8926 H   0  0  0  0  0  0
  -22.3707  -10.9672   19.6137 H   0  0  0  0  0  0
  -21.2013   -7.6140   23.9700 H   0  0  0  0  0  0
  -21.1470   -6.0511   25.9064 H   0  0  0  0  0  0
  -22.0626   -2.7602   23.2812 H   0  0  0  0  0  0
  -22.4127  -11.9978   22.5047 H   0  0  0  0  0  0
  -21.0975  -13.1106   22.2459 H   0  0  0  0  0  0
  -24.6048  -15.8264   20.5052 H   0  0  0  0  0  0
  -26.2228  -15.6538   20.0513 H   0  0  0  0  0  0
  -26.7380  -32.5110   23.0893 H   0  0  0  0  0  0
  -25.0057  -33.9480   25.0175 H   0  0  0  0  0  0
  -22.7921  -31.2656   21.3481 H   0  0  0  0  0  0
  -23.3775  -35.9512   23.3274 H   0  0  0  0  0  0
  -24.3569  -36.8880   22.2071 H   0  0  0  0  0  0
  -23.7233  -37.6365   23.6732 H   0  0  0  0  0  0
  -26.2315  -31.3638   20.6269 H   0  0  0  0  0  0
  -26.9043  -30.6779   22.0630 H   0  0  0  0  0  0
  -28.1305  -28.5766   21.3130 H   0  0  0  0  0  0
  -25.8846  -25.7453   18.9686 H   0  0  0  0  0  0
  -24.0169  -27.2725   18.9227 H   0  0  0  0  0  0
  -23.8606  -30.5131   19.3831 H   0  0  0  0  0  0
  -22.8265  -29.1930   19.8374 H   0  0  0  0  0  0
  -25.1342  -36.1766   25.0791 H   0  0  0  0  0  0
  -21.0026  -28.3384   24.1307 H   0  0  0  0  0  0
  -20.5694  -26.2388   23.3648 H   0  0  0  0  0  0
  -21.6678  -26.7418   22.1213 H   0  0  0  0  0  0
  -19.6943  -25.6265   21.1295 H   0  0  0  0  0  0
  -19.6734  -27.3152   20.6723 H   0  0  0  0  0  0
  -17.4236  -26.6691   21.4014 H   0  0  0  0  0  0
  -18.0339  -26.0106   22.9021 H   0  0  0  0  0  0
  -19.7976  -30.7357   24.2163 H   0  0  0  0  0  0
  -17.5031  -31.6274   24.5172 H   0  0  0  0  0  0
  -15.5375  -30.2963   23.7717 H   0  0  0  0  0  0
  -15.8700  -28.0818   22.7086 H   0  0  0  0  0  0
  -24.5857  -30.7130   25.7643 H   0  0  0  0  0  0
  -24.8817  -32.2995   26.4644 H   0  0  0  0  0  0
  -25.7856  -30.9037   27.0223 H   0  0  0  0  0  0
  -26.3135  -29.6563   24.1453 H   0  0  0  0  0  0
  -27.3937  -29.7285   25.5156 H   0  0  0  0  0  0
  -27.9095  -30.4072   23.9930 H   0  0  0  0  0  0
  -27.2608  -33.3691   26.1976 H   0  0  0  0  0  0
  -28.3915  -32.6836   25.0398 H   0  0  0  0  0  0
  -28.0634  -31.8554   26.5538 H   0  0  0  0  0  0
  -28.2559  -38.0086   24.7520 H   0  0  0  0  0  0
  -28.1100  -36.2611   24.6277 H   0  0  0  0  0  0
  -27.2284  -37.1385   25.8859 H   0  0  0  0  0  0
  -20.9595  -29.8698   21.6623 H   0  0  0  0  0  0
  -26.0129  -38.2755   24.1402 H   0  0  0  0  0  0
  -25.6039  -22.1115   20.4419 H   0  0  0  0  0  0
  -26.0501  -20.7167   21.4088 H   0  0  0  0  0  0
  -27.7567  -21.8231   22.5122 H   0  0  0  0  0  0
  -26.9515  -23.3009   22.0126 H   0  0  0  0  0  0
  -27.1136  -21.6072   18.7360 H   0  0  0  0  0  0
  -26.9791  -19.9722   19.3329 H   0  0  0  0  0  0
  -29.5104  -22.7991   21.2587 H   0  0  0  0  0  0
  -29.1410  -19.1457   16.5808 H   0  0  0  0  0  0
  -30.7456  -18.8843   17.2232 H   0  0  0  0  0  0
  -29.7182  -20.1202   17.9079 H   0  0  0  0  0  0
  -28.8281  -16.7652   16.7208 H   0  0  0  0  0  0
  -28.6571  -15.9059   18.2159 H   0  0  0  0  0  0
  -30.2666  -16.3499   17.6283 H   0  0  0  0  0  0
  -31.5007  -19.3780   19.5558 H   0  0  0  0  0  0
  -31.7691  -17.6925   19.1466 H   0  0  0  0  0  0
  -31.7388  -18.2003   20.8303 H   0  0  0  0  0  0
  -27.1669  -24.0674   19.5205 H   0  0  0  0  0  0
  -28.7825  -24.2139   19.0071 H   0  0  0  0  0  0
  -29.8520  -19.8892   21.4593 H   0  0  0  0  0  0
  -28.2599  -19.3208   21.2820 H   0  0  0  0  0  0
  -28.0853  -18.2340   18.5711 H   0  0  0  0  0  0
  -28.7484  -16.2969   20.8250 H   0  0  0  0  0  0
  -29.2710  -21.2066   19.1905 H   0  0  0  0  0  0
  1 25  1  0  0  0
  1 30  2  0  0  0
  1 82  1  0  0  0
  2  3  1  0  0  0
  2 25  1  0  0  0
  2 84  1  0  0  0
  2 85  1  0  0  0
  3  4  1  0  0  0
  3 86  1  0  0  0
  3 87  1  0  0  0
  4  5  1  0  0  0
  4 88  1  0  0  0
  4 89  1  0  0  0
  5  6  1  0  0  0
  5 26  1  0  0  0
  5 90  1  0  0  0
  6 25  1  0  0  0
  6 91  1  0  0  0
  6 92  1  0  0  0
  7  8  2  0  0  0
  7 26  1  0  0  0
  7 29  1  0  0  0
  8  9  1  0  0  0
  8 22  1  0  0  0
  9 10  1  0  0  0
  9 27  2  0  0  0
 10 11  2  0  0  0
 10 15  1  0  0  0
 11 12  1  0  0  0
 11 93  1  0  0  0
 12 13  2  0  0  0
 12 94  1  0  0  0
 13 14  1  0  0  0
 13 31  1  0  0  0
 14 15  2  0  0  0
 14 95  1  0  0  0
 15 96  1  0  0  0
 16 17  2  0  0  0
 16 21  1  0  0  0
 16 31  1  0  0  0
 17 18  1  0  0  0
 17 97  1  0  0  0
 18 19  2  0  0  0
 18 98  1  0  0  0
 19 20  1  0  0  0
 19 24  1  0  0  0
 20 21  2  0  0  0
 20 99  1  0  0  0
 21 23  1  0  0  0
 22 28  1  0  0  0
 22 32  2  0  0  0
 26 27  1  0  0  0
 28100  1  0  0  0
 28101  1  0  0  0
 29102  1  0  0  0
 29103  1  0  0  0
 33 34  1  0  0  0
 33 66  1  0  0  0
 33 70  2  0  0  0
 34 36  1  0  0  0
 34 59  1  0  0  0
 34104  1  0  0  0
 35 44  2  0  0  0
 35 45  1  0  0  0
 35 68  1  0  0  0
 36 56  1  0  0  0
 36105  1  0  0  0
 37 39  1  0  0  0
 37 47  1  0  0  0
 37 66  1  0  0  0
 37106  1  0  0  0
 38 43  2  0  0  0
 38 46  1  0  0  0
 38 47  1  0  0  0
 39 64  1  0  0  0
 39 67  2  0  0  0
 40 52  1  0  0  0
 40 53  2  0  0  0
 40 58  1  0  0  0
 41107  1  0  0  0
 41108  1  0  0  0
 41109  1  0  0  0
 41 48  1  0  0  0
 42 43  1  0  0  0
 42 66  1  0  0  0
 42110  1  0  0  0
 42111  1  0  0  0
 43 44  1  0  0  0
 44112  1  0  0  0
 45 46  2  0  0  0
 45113  1  0  0  0
 46114  1  0  0  0
 47115  1  0  0  0
 47116  1  0  0  0
 48 56  1  0  0  0
 48 65  1  0  0  0
 48117  1  0  0  0
 49 50  1  0  0  0
 49 53  1  0  0  0
 49 64  1  0  0  0
 49118  1  0  0  0
 50 51  1  0  0  0
 50119  1  0  0  0
 50120  1  0  0  0
 51 52  1  0  0  0
 51121  1  0  0  0
 51122  1  0  0  0
 52123  1  0  0  0
 52124  1  0  0  0
 53 54  1  0  0  0
 54 55  2  0  0  0
 54125  1  0  0  0
 55 57  1  0  0  0
 55126  1  0  0  0
 56 69  2  0  0  0
 57 58  2  0  0  0
 57127  1  0  0  0
 58128  1  0  0  0
 59 60  1  0  0  0
 59 61  1  0  0  0
 59 62  1  0  0  0
 60129  1  0  0  0
 60130  1  0  0  0
 60131  1  0  0  0
 61132  1  0  0  0
 61133  1  0  0  0
 61134  1  0  0  0
 62135  1  0  0  0
 62136  1  0  0  0
 62137  1  0  0  0
 63 65  1  0  0  0
 63138  1  0  0  0
 63139  1  0  0  0
 63140  1  0  0  0
 64141  1  0  0  0
 65142  1  0  0  0
 68 78  1  0  0  0
 71 72  1  0  0  0
 71 73  1  0  0  0
 71143  1  0  0  0
 71144  1  0  0  0
 72 74  1  0  0  0
 72145  1  0  0  0
 72146  1  0  0  0
 73 83  1  0  0  0
 73147  1  0  0  0
 73148  1  0  0  0
 74 78  1  0  0  0
 74 83  1  0  0  0
 74149  1  0  0  0
 75150  1  0  0  0
 75151  1  0  0  0
 75152  1  0  0  0
 75 80  1  0  0  0
 76 80  1  0  0  0
 76153  1  0  0  0
 76154  1  0  0  0
 76155  1  0  0  0
 77156  1  0  0  0
 77157  1  0  0  0
 77158  1  0  0  0
 77 81  1  0  0  0
 78159  1  0  0  0
 78160  1  0  0  0
 79 81  1  0  0  0
 79161  1  0  0  0
 79162  1  0  0  0
 79 83  1  0  0  0
 80 81  1  0  0  0
 80163  1  0  0  0
 81 82  1  0  0  0
 82164  1  0  0  0
 83165  1  0  0  0
M  CHG  1  83   1
M  ISO  4   1 100  68 101  78 101  82 100
M  END
> <chiral flag>
0

> <version>
0

> <s_m_source_file>
/data/baiqing/PycharmProjects/Reinvent-master-3.2/result/LINK_invent/BTK/process_docking_weight1_custom_sum_contain_oxygen_bond_distance_aromatic_linkinvent_7_9_3/rearranged_h_0110.sdf

> <i_m_source_file_index>
90

> <r_mmod_Potential_Energy-OPLS-2005>
1370.38171386719

> <r_mmod_Stretch_Energy-OPLS-2005>
645.591125488281

> <r_mmod_Bend_Energy-OPLS-2005>
512.423217773438

> <r_mmod_Torsional_Energy-OPLS-2005>
326.096496582031

> <r_mmod_Improper_Torsional_Energy-OPLS-2005>
5.32432746887207

> <r_mmod_Van_der_Waal_Energy-OPLS-2005>
115.099067687988

> <r_mmod_Electrostatic_Energy-OPLS-2005>
-237.663269042969

> <r_mmod_Solvation_Energy-OPLS-2005>
-438.777191162109

> <b_mmod_Minimization_Converged-OPLS-2005>
0

> <r_mmod_RMS_Derivative-OPLS-2005>
3.36694240570068

$$$$
91
                    3D
 Structure written by MMmdl.
169177  0  0  1  0            999 V2000
  -30.6136  -14.5772   20.4910 C   0  0  0  0  0  0
  -30.4295  -12.3610   19.4174 C   0  0  0  0  0  0
  -29.4757  -12.5028   18.2088 C   0  0  0  0  0  0
  -28.0026  -12.3455   18.6332 C   0  0  0  0  0  0
  -27.6467  -13.2012   19.8726 C   0  0  2  0  0  0
  -28.7011  -13.0058   20.9850 C   0  0  0  0  0  0
  -25.2525  -13.8116   20.5743 C   0  0  0  0  0  0
  -24.1790  -13.0393   20.9256 C   0  0  0  0  0  0
  -24.6335  -11.6867   20.8864 C   0  0  0  0  0  0
  -23.9004  -10.4241   21.0462 C   0  0  0  0  0  0
  -24.3558   -9.4146   21.9211 C   0  0  0  0  0  0
  -23.6235   -8.2183   22.0724 C   0  0  0  0  0  0
  -22.4224   -8.0246   21.3512 C   0  0  0  0  0  0
  -21.9878   -9.0239   20.4635 C   0  0  0  0  0  0
  -22.7187  -10.2124   20.3070 C   0  0  0  0  0  0
  -21.6832   -6.0718   22.5276 C   0  0  0  0  0  0
  -21.4009   -6.5632   23.8203 C   0  0  0  0  0  0
  -21.3662   -5.6778   24.9182 C   0  0  0  0  0  0
  -21.6049   -4.3036   24.7219 C   0  0  0  0  0  0
  -21.8814   -3.8130   23.4331 C   0  0  0  0  0  0
  -21.9175   -4.6960   22.3398 C   0  0  0  0  0  0
  -22.7838  -13.5225   21.1930 C   0  0  0  0  0  0
  -22.1671   -4.2149   21.0974 F   0  0  0  0  0  0
  -21.5638   -3.4529   25.7732 F   0  0  0  0  0  0
  -30.0125  -13.3547   20.4177 N   0  0  0  0  0  0
  -26.2941  -12.9291   20.3440 N   0  0  0  0  0  0
  -25.9247  -11.6444   20.5870 N   0  0  0  0  0  0
  -22.0452  -12.8245   22.0481 N   0  0  0  0  0  0
  -25.4181  -15.1839   20.4181 N   0  0  0  0  0  0
  -31.7803  -14.7554   20.1235 O   0  0  0  0  0  0
  -21.6582   -6.8860   21.4216 O   0  0  0  0  0  0
  -22.3572  -14.5543   20.6758 O   0  0  0  0  0  0
  -24.6206  -31.8726   23.2147 C   0  0  0  0  0  0
  -25.9112  -32.4820   23.8406 C   0  0  1  0  0  0
  -27.1946  -27.3779   20.0803 C   0  0  0  0  0  0
  -25.6029  -33.8599   24.2372 N   0  0  0  0  0  0
  -23.4031  -30.5031   21.5591 C   0  0  2  0  0  0
  -24.8385  -28.9786   20.1083 C   0  0  0  0  0  0
  -22.7450  -29.4729   22.5035 C   0  0  0  0  0  0
  -18.0305  -28.1385   22.8573 C   0  0  0  0  0  0
  -24.1488  -36.7236   23.2631 C   0  0  0  0  0  0
  -25.9401  -30.8132   21.3832 C   0  0  0  0  0  0
  -26.0073  -29.4437   20.7228 C   0  0  0  0  0  0
  -27.1880  -28.6518   20.7141 C   0  0  0  0  0  0
  -26.0034  -26.9690   19.4267 C   0  0  0  0  0  0
  -24.8356  -27.7422   19.4540 C   0  0  0  0  0  0
  -23.6051  -29.8530   20.1690 C   0  0  0  0  0  0
  -25.4113  -36.3078   24.0347 C   0  0  1  0  0  0
  -20.5906  -28.3681   23.1366 C   0  0  2  0  0  0
  -20.6773  -26.9418   22.5453 C   0  0  0  0  0  0
  -19.5715  -26.6431   21.5263 C   0  0  0  0  0  0
  -18.1914  -26.7965   22.1689 C   0  0  0  0  0  0
  -19.1547  -28.8850   23.2962 C   0  0  0  0  0  0
  -18.9487  -30.1495   23.8935 C   0  0  0  0  0  0
  -17.6472  -30.6602   24.0602 C   0  0  0  0  0  0
  -25.9071  -34.9452   23.5136 C   0  0  0  0  0  0
  -16.5364  -29.9116   23.6337 C   0  0  0  0  0  0
  -16.7299  -28.6523   23.0368 C   0  0  0  0  0  0
  -26.4531  -31.6539   25.0704 C   0  0  0  0  0  0
  -25.3794  -31.3617   26.1448 C   0  0  0  0  0  0
  -27.0350  -30.2963   24.6068 C   0  0  0  0  0  0
  -27.6166  -32.4163   25.7470 C   0  0  0  0  0  0
  -27.5583  -37.1759   24.8486 C   0  0  0  0  0  0
  -21.4179  -29.3051   22.3734 N   0  0  0  0  0  0
  -26.4287  -37.3785   23.9435 N   0  0  0  0  0  0
  -24.6723  -31.0790   22.1081 N   0  0  0  0  0  0
  -23.4244  -28.8360   23.3133 O   0  0  0  0  0  0
  -28.3077  -26.5386   20.1307 O   0  0  0  0  0  0
  -26.5577  -34.8917   22.4674 O   0  0  0  0  0  0
  -23.5405  -32.1545   23.7505 O   0  0  0  0  0  0
  -29.6293  -17.4650   23.0609 C   0  0  0  0  0  0
  -29.1827  -18.4985   23.9194 C   0  0  0  0  0  0
  -29.5696  -17.9091   21.7702 C   0  0  0  0  0  0
  -28.8254  -19.5696   23.1529 C   0  0  0  0  0  0
  -29.2548  -21.7520   24.3702 C   0  0  0  0  0  0
  -26.9730  -20.6535   24.4839 C   0  0  0  0  0  0
  -28.3092  -22.3475   18.5589 C   0  0  0  0  0  0
  -29.9609  -17.0754   20.5534 C   0  0  0  0  0  0
  -28.7317  -20.1353   20.6763 C   0  0  0  0  0  0
  -29.4348  -21.5509   20.6198 C   0  0  0  0  0  0
  -29.0672  -24.0447   20.2444 C   0  0  0  0  0  0
  -28.0735  -25.1461   19.7577 C   0  0  0  0  0  0
  -28.2241  -20.8735   23.6283 C   0  0  0  0  0  0
  -29.0810  -19.2453   21.8109 N   0  0  0  0  0  0
  -29.7736  -15.6091   20.7538 N   0  0  0  0  0  0
  -28.5875  -22.6287   19.9916 N   0  3  1  0  0  0
  -31.4609  -12.5041   19.0892 H   0  0  0  0  0  0
  -30.3793  -11.3542   19.8407 H   0  0  0  0  0  0
  -29.7157  -11.7607   17.4455 H   0  0  0  0  0  0
  -29.6173  -13.4738   17.7350 H   0  0  0  0  0  0
  -27.8428  -11.2965   18.8664 H   0  0  0  0  0  0
  -27.3275  -12.5693   17.8059 H   0  0  0  0  0  0
  -27.6646  -14.2421   19.5519 H   0  0  0  0  0  0
  -28.7074  -11.9658   21.3274 H   0  0  0  0  0  0
  -28.4626  -13.6092   21.8617 H   0  0  0  0  0  0
  -25.2681   -9.5689   22.4794 H   0  0  0  0  0  0
  -23.9983   -7.4579   22.7423 H   0  0  0  0  0  0
  -21.0797   -8.8771   19.8920 H   0  0  0  0  0  0
  -22.3626  -10.9703   19.6207 H   0  0  0  0  0  0
  -21.1998   -7.6130   23.9763 H   0  0  0  0  0  0
  -21.1517   -6.0477   25.9097 H   0  0  0  0  0  0
  -22.0586   -2.7579   23.2832 H   0  0  0  0  0  0
  -22.4049  -11.9891   22.4850 H   0  0  0  0  0  0
  -21.1085  -13.1351   22.2689 H   0  0  0  0  0  0
  -24.6430  -15.8282   20.5488 H   0  0  0  0  0  0
  -26.2738  -15.6420   20.1310 H   0  0  0  0  0  0
  -26.7185  -32.5526   23.1164 H   0  0  0  0  0  0
  -25.0249  -33.9687   25.0559 H   0  0  0  0  0  0
  -22.6921  -31.3195   21.4340 H   0  0  0  0  0  0
  -23.3778  -35.9549   23.3298 H   0  0  0  0  0  0
  -24.3603  -36.8816   22.2050 H   0  0  0  0  0  0
  -23.7170  -37.6423   23.6616 H   0  0  0  0  0  0
  -26.0593  -31.5730   20.6152 H   0  0  0  0  0  0
  -26.8248  -30.8570   22.0104 H   0  0  0  0  0  0
  -28.0812  -28.9970   21.2152 H   0  0  0  0  0  0
  -25.9173  -26.0469   18.8738 H   0  0  0  0  0  0
  -23.9481  -27.3856   18.9484 H   0  0  0  0  0  0
  -23.7175  -30.6339   19.4174 H   0  0  0  0  0  0
  -22.7205  -29.2875   19.8747 H   0  0  0  0  0  0
  -25.1256  -36.1967   25.0837 H   0  0  0  0  0  0
  -20.9998  -28.3247   24.1478 H   0  0  0  0  0  0
  -20.5711  -26.2298   23.3638 H   0  0  0  0  0  0
  -21.6629  -26.7478   22.1185 H   0  0  0  0  0  0
  -19.6844  -25.6386   21.1191 H   0  0  0  0  0  0
  -19.6580  -27.3332   20.6859 H   0  0  0  0  0  0
  -17.4177  -26.6852   21.4064 H   0  0  0  0  0  0
  -18.0252  -26.0050   22.9011 H   0  0  0  0  0  0
  -19.7949  -30.7338   24.2265 H   0  0  0  0  0  0
  -17.5010  -31.6256   24.5240 H   0  0  0  0  0  0
  -15.5359  -30.2998   23.7596 H   0  0  0  0  0  0
  -15.8738  -28.0828   22.7021 H   0  0  0  0  0  0
  -24.6032  -30.6881   25.7776 H   0  0  0  0  0  0
  -24.8909  -32.2759   26.4856 H   0  0  0  0  0  0
  -25.8168  -30.8840   27.0237 H   0  0  0  0  0  0
  -26.2926  -29.6756   24.1035 H   0  0  0  0  0  0
  -27.4031  -29.7153   25.4541 H   0  0  0  0  0  0
  -27.8827  -30.4229   23.9307 H   0  0  0  0  0  0
  -27.2889  -33.3468   26.2122 H   0  0  0  0  0  0
  -28.4010  -32.6661   25.0300 H   0  0  0  0  0  0
  -28.0834  -31.8189   26.5330 H   0  0  0  0  0  0
  -28.2614  -38.0041   24.7570 H   0  0  0  0  0  0
  -28.1057  -36.2579   24.6300 H   0  0  0  0  0  0
  -27.2291  -37.1392   25.8880 H   0  0  0  0  0  0
  -20.9390  -29.8722   21.6893 H   0  0  0  0  0  0
  -26.0177  -38.2865   24.1491 H   0  0  0  0  0  0
  -29.9605  -16.4793   23.3498 H   0  0  0  0  0  0
  -29.1044  -18.4582   24.9974 H   0  0  0  0  0  0
  -30.0802  -22.0622   23.7308 H   0  0  0  0  0  0
  -29.6914  -21.2249   25.2158 H   0  0  0  0  0  0
  -28.7971  -22.6600   24.7654 H   0  0  0  0  0  0
  -26.2209  -20.0906   23.9235 H   0  0  0  0  0  0
  -26.5339  -21.6130   24.7597 H   0  0  0  0  0  0
  -27.1956  -20.1066   25.4015 H   0  0  0  0  0  0
  -29.1584  -22.6175   17.9350 H   0  0  0  0  0  0
  -28.0992  -21.2944   18.3806 H   0  0  0  0  0  0
  -27.4322  -22.8938   18.2100 H   0  0  0  0  0  0
  -30.9974  -17.2946   20.2802 H   0  0  0  0  0  0
  -29.3519  -17.3643   19.6952 H   0  0  0  0  0  0
  -28.8968  -19.6068   19.7397 H   0  0  0  0  0  0
  -27.6496  -20.2704   20.7384 H   0  0  0  0  0  0
  -29.6899  -21.8786   21.6186 H   0  0  0  0  0  0
  -30.3875  -21.4752   20.0981 H   0  0  0  0  0  0
  -30.0389  -24.2044   19.7743 H   0  0  0  0  0  0
  -29.2125  -24.1819   21.3170 H   0  0  0  0  0  0
  -28.0211  -25.1120   18.6701 H   0  0  0  0  0  0
  -27.1060  -24.8253   20.1437 H   0  0  0  0  0  0
  -27.8382  -21.4431   22.7843 H   0  0  0  0  0  0
  -28.8294  -15.3349   20.9783 H   0  0  0  0  0  0
  -27.6950  -22.5667   20.4626 H   0  0  0  0  0  0
  1 25  1  0  0  0
  1 30  2  0  0  0
  1 85  1  0  0  0
  2  3  1  0  0  0
  2 25  1  0  0  0
  2 87  1  0  0  0
  2 88  1  0  0  0
  3  4  1  0  0  0
  3 89  1  0  0  0
  3 90  1  0  0  0
  4  5  1  0  0  0
  4 91  1  0  0  0
  4 92  1  0  0  0
  5  6  1  0  0  0
  5 26  1  0  0  0
  5 93  1  0  0  0
  6 25  1  0  0  0
  6 94  1  0  0  0
  6 95  1  0  0  0
  7  8  2  0  0  0
  7 26  1  0  0  0
  7 29  1  0  0  0
  8  9  1  0  0  0
  8 22  1  0  0  0
  9 10  1  0  0  0
  9 27  2  0  0  0
 10 11  2  0  0  0
 10 15  1  0  0  0
 11 12  1  0  0  0
 11 96  1  0  0  0
 12 13  2  0  0  0
 12 97  1  0  0  0
 13 14  1  0  0  0
 13 31  1  0  0  0
 14 15  2  0  0  0
 14 98  1  0  0  0
 15 99  1  0  0  0
 16 17  2  0  0  0
 16 21  1  0  0  0
 16 31  1  0  0  0
 17 18  1  0  0  0
 17100  1  0  0  0
 18 19  2  0  0  0
 18101  1  0  0  0
 19 20  1  0  0  0
 19 24  1  0  0  0
 20 21  2  0  0  0
 20102  1  0  0  0
 21 23  1  0  0  0
 22 28  1  0  0  0
 22 32  2  0  0  0
 26 27  1  0  0  0
 28103  1  0  0  0
 28104  1  0  0  0
 29105  1  0  0  0
 29106  1  0  0  0
 33 34  1  0  0  0
 33 66  1  0  0  0
 33 70  2  0  0  0
 34 36  1  0  0  0
 34 59  1  0  0  0
 34107  1  0  0  0
 35 44  2  0  0  0
 35 45  1  0  0  0
 35 68  1  0  0  0
 36 56  1  0  0  0
 36108  1  0  0  0
 37 39  1  0  0  0
 37 47  1  0  0  0
 37 66  1  0  0  0
 37109  1  0  0  0
 38 43  2  0  0  0
 38 46  1  0  0  0
 38 47  1  0  0  0
 39 64  1  0  0  0
 39 67  2  0  0  0
 40 52  1  0  0  0
 40 53  2  0  0  0
 40 58  1  0  0  0
 41110  1  0  0  0
 41111  1  0  0  0
 41112  1  0  0  0
 41 48  1  0  0  0
 42 43  1  0  0  0
 42 66  1  0  0  0
 42113  1  0  0  0
 42114  1  0  0  0
 43 44  1  0  0  0
 44115  1  0  0  0
 45 46  2  0  0  0
 45116  1  0  0  0
 46117  1  0  0  0
 47118  1  0  0  0
 47119  1  0  0  0
 48 56  1  0  0  0
 48 65  1  0  0  0
 48120  1  0  0  0
 49 50  1  0  0  0
 49 53  1  0  0  0
 49 64  1  0  0  0
 49121  1  0  0  0
 50 51  1  0  0  0
 50122  1  0  0  0
 50123  1  0  0  0
 51 52  1  0  0  0
 51124  1  0  0  0
 51125  1  0  0  0
 52126  1  0  0  0
 52127  1  0  0  0
 53 54  1  0  0  0
 54 55  2  0  0  0
 54128  1  0  0  0
 55 57  1  0  0  0
 55129  1  0  0  0
 56 69  2  0  0  0
 57 58  2  0  0  0
 57130  1  0  0  0
 58131  1  0  0  0
 59 60  1  0  0  0
 59 61  1  0  0  0
 59 62  1  0  0  0
 60132  1  0  0  0
 60133  1  0  0  0
 60134  1  0  0  0
 61135  1  0  0  0
 61136  1  0  0  0
 61137  1  0  0  0
 62138  1  0  0  0
 62139  1  0  0  0
 62140  1  0  0  0
 63 65  1  0  0  0
 63141  1  0  0  0
 63142  1  0  0  0
 63143  1  0  0  0
 64144  1  0  0  0
 65145  1  0  0  0
 68 82  1  0  0  0
 71 72  1  0  0  0
 71 73  2  0  0  0
 71146  1  0  0  0
 72 74  2  0  0  0
 72147  1  0  0  0
 73 78  1  0  0  0
 73 84  1  0  0  0
 74 83  1  0  0  0
 74 84  1  0  0  0
 75148  1  0  0  0
 75149  1  0  0  0
 75150  1  0  0  0
 75 83  1  0  0  0
 76 83  1  0  0  0
 76151  1  0  0  0
 76152  1  0  0  0
 76153  1  0  0  0
 77154  1  0  0  0
 77155  1  0  0  0
 77156  1  0  0  0
 77 86  1  0  0  0
 78 85  1  0  0  0
 78157  1  0  0  0
 78158  1  0  0  0
 79 80  1  0  0  0
 79 84  1  0  0  0
 79159  1  0  0  0
 79160  1  0  0  0
 80 86  1  0  0  0
 80161  1  0  0  0
 80162  1  0  0  0
 81 82  1  0  0  0
 81 86  1  0  0  0
 81163  1  0  0  0
 81164  1  0  0  0
 82165  1  0  0  0
 82166  1  0  0  0
 83167  1  0  0  0
 85168  1  0  0  0
 86169  1  0  0  0
M  CHG  1  86   1
M  ISO  4   1 100  68 101  82 101  85 100
M  END
> <chiral flag>
0

> <version>
0

> <s_m_source_file>
/data/baiqing/PycharmProjects/Reinvent-master-3.2/result/LINK_invent/BTK/process_docking_weight1_custom_sum_contain_oxygen_bond_distance_aromatic_linkinvent_7_9_3/rearranged_h_0110.sdf

> <i_m_source_file_index>
91

> <r_mmod_Potential_Energy-OPLS-2005>
-150.506423950195

> <r_mmod_Stretch_Energy-OPLS-2005>
58.2908401489258

> <r_mmod_Bend_Energy-OPLS-2005>
125.906745910645

> <r_mmod_Torsional_Energy-OPLS-2005>
229.620986938477

> <r_mmod_Improper_Torsional_Energy-OPLS-2005>
6.56680917739868

> <r_mmod_Van_der_Waal_Energy-OPLS-2005>
140.949768066406

> <r_mmod_Electrostatic_Energy-OPLS-2005>
-290.522796630859

> <r_mmod_Solvation_Energy-OPLS-2005>
-456.399993896484

> <b_mmod_Minimization_Converged-OPLS-2005>
0

> <r_mmod_RMS_Derivative-OPLS-2005>
8.44747638702393

$$$$
92
                    3D
 Structure written by MMmdl.
161168  0  0  1  0            999 V2000
  -30.4642  -15.2007   20.3558 C   0  0  0  0  0  0
  -30.4493  -12.7668   19.4880 C   0  0  0  0  0  0
  -29.5351  -12.5732   18.2555 C   0  0  0  0  0  0
  -28.0768  -12.3047   18.6812 C   0  0  0  0  0  0
  -27.6160  -13.2633   19.8103 C   0  0  2  0  0  0
  -28.6630  -13.4157   20.9325 C   0  0  0  0  0  0
  -25.2434  -13.8213   20.5724 C   0  0  0  0  0  0
  -24.1766  -13.0421   20.9229 C   0  0  0  0  0  0
  -24.6393  -11.6910   20.8714 C   0  0  0  0  0  0
  -23.9027  -10.4295   21.0345 C   0  0  0  0  0  0
  -24.3600   -9.4228   21.9147 C   0  0  0  0  0  0
  -23.6320   -8.2244   22.0724 C   0  0  0  0  0  0
  -22.4299   -8.0253   21.3527 C   0  0  0  0  0  0
  -21.9904   -9.0200   20.4619 C   0  0  0  0  0  0
  -22.7181  -10.2103   20.3010 C   0  0  0  0  0  0
  -21.6858   -6.0722   22.5258 C   0  0  0  0  0  0
  -21.4027   -6.5624   23.8193 C   0  0  0  0  0  0
  -21.3684   -5.6777   24.9154 C   0  0  0  0  0  0
  -21.6037   -4.3037   24.7212 C   0  0  0  0  0  0
  -21.8829   -3.8128   23.4332 C   0  0  0  0  0  0
  -21.9210   -4.6945   22.3391 C   0  0  0  0  0  0
  -22.7783  -13.5195   21.1863 C   0  0  0  0  0  0
  -22.1672   -4.2141   21.0973 F   0  0  0  0  0  0
  -21.5630   -3.4513   25.7728 F   0  0  0  0  0  0
  -29.8951  -13.9039   20.2941 N   0  0  0  0  0  0
  -26.2837  -12.9463   20.3161 N   0  0  0  0  0  0
  -25.9327  -11.6577   20.5659 N   0  0  0  0  0  0
  -22.0413  -12.8198   22.0419 N   0  0  0  0  0  0
  -25.4095  -15.1957   20.4191 N   0  0  0  0  0  0
  -31.6985  -15.2122   20.2492 O   0  0  0  0  0  0
  -21.6669   -6.8843   21.4215 O   0  0  0  0  0  0
  -22.3477  -14.5496   20.6685 O   0  0  0  0  0  0
  -24.6612  -31.8265   23.1713 C   0  0  0  0  0  0
  -25.9315  -32.4594   23.8177 C   0  0  1  0  0  0
  -27.2242  -26.9758   20.1541 C   0  0  0  0  0  0
  -25.5997  -33.8400   24.2081 N   0  0  0  0  0  0
  -23.4711  -30.4415   21.5206 C   0  0  2  0  0  0
  -24.9193  -28.8287   20.1135 C   0  0  0  0  0  0
  -22.7653  -29.4491   22.4800 C   0  0  0  0  0  0
  -18.0330  -28.1403   22.8462 C   0  0  0  0  0  0
  -24.1499  -36.7221   23.2642 C   0  0  0  0  0  0
  -26.0384  -30.6445   21.3933 C   0  0  0  0  0  0
  -26.1046  -29.2385   20.7377 C   0  0  0  0  0  0
  -27.2551  -28.3343   20.7289 C   0  0  0  0  0  0
  -26.0060  -26.7013   19.4954 C   0  0  0  0  0  0
  -24.8903  -27.5787   19.4726 C   0  0  0  0  0  0
  -23.7037  -29.7539   20.1475 C   0  0  0  0  0  0
  -25.4136  -36.2963   24.0286 C   0  0  1  0  0  0
  -20.5953  -28.3757   23.1182 C   0  0  2  0  0  0
  -20.6806  -26.9441   22.5389 C   0  0  0  0  0  0
  -19.5777  -26.6365   21.5207 C   0  0  0  0  0  0
  -18.1960  -26.7927   22.1612 C   0  0  0  0  0  0
  -19.1589  -28.8891   23.2801 C   0  0  0  0  0  0
  -18.9495  -30.1494   23.8821 C   0  0  0  0  0  0
  -17.6491  -30.6582   24.0548 C   0  0  0  0  0  0
  -25.9110  -34.9354   23.5009 C   0  0  0  0  0  0
  -16.5377  -29.9078   23.6338 C   0  0  0  0  0  0
  -16.7313  -28.6495   23.0339 C   0  0  0  0  0  0
  -26.4553  -31.6516   25.0697 C   0  0  0  0  0  0
  -25.3689  -31.3760   26.1364 C   0  0  0  0  0  0
  -27.0442  -30.2878   24.6424 C   0  0  0  0  0  0
  -27.6029  -32.4338   25.7514 C   0  0  0  0  0  0
  -27.5570  -37.1776   24.8453 C   0  0  0  0  0  0
  -21.4327  -29.3064   22.3544 N   0  0  0  0  0  0
  -26.4278  -37.3703   23.9400 N   0  0  0  0  0  0
  -24.7451  -30.9977   22.0826 N   0  0  0  0  0  0
  -23.4229  -28.8066   23.3027 O   0  0  0  0  0  0
  -28.2665  -25.9226   20.1452 O   0  0  0  0  0  0
  -26.5717  -34.8888   22.4599 O   0  0  0  0  0  0
  -23.5696  -32.1228   23.6850 O   0  0  0  0  0  0
  -28.7991  -23.9708   17.3576 C   0  0  0  0  0  0
  -28.4685  -19.1280   18.6988 C   0  0  0  0  0  0
  -30.8189  -19.8217   19.1344 C   0  0  0  0  0  0
  -30.4197  -23.2787   19.9078 C   0  0  0  0  0  0
  -28.5521  -22.7450   18.2612 C   0  0  0  0  0  0
  -28.9061  -21.1724   20.4006 C   0  0  0  0  0  0
  -29.7648  -18.0489   20.6967 C   0  0  0  0  0  0
  -28.0682  -24.3124   20.3406 C   0  0  0  0  0  0
  -29.4564  -19.5598   19.7991 C   0  0  0  0  0  0
  -28.9430  -22.8621   19.7663 C   0  0  1  0  0  0
  -29.6735  -16.4383   20.3144 N   0  0  0  0  0  0
  -31.4710  -12.9663   19.1598 H   0  0  0  0  0  0
  -30.5018  -11.8513   20.0816 H   0  0  0  0  0  0
  -29.9134  -11.7583   17.6400 H   0  0  0  0  0  0
  -29.5761  -13.4694   17.6319 H   0  0  0  0  0  0
  -28.0139  -11.2729   19.0335 H   0  0  0  0  0  0
  -27.4125  -12.3692   17.8173 H   0  0  0  0  0  0
  -27.5332  -14.2356   19.3274 H   0  0  0  0  0  0
  -28.8247  -12.4735   21.4602 H   0  0  0  0  0  0
  -28.3204  -14.1385   21.6747 H   0  0  0  0  0  0
  -25.2724   -9.5776   22.4709 H   0  0  0  0  0  0
  -24.0059   -7.4655   22.7436 H   0  0  0  0  0  0
  -21.0828   -8.8628   19.8965 H   0  0  0  0  0  0
  -22.3537  -10.9608   19.6125 H   0  0  0  0  0  0
  -21.1986   -7.6131   23.9695 H   0  0  0  0  0  0
  -21.1517   -6.0503   25.9064 H   0  0  0  0  0  0
  -22.0600   -2.7590   23.2813 H   0  0  0  0  0  0
  -22.4067  -11.9952   22.4938 H   0  0  0  0  0  0
  -21.0995  -13.1170   22.2522 H   0  0  0  0  0  0
  -24.6302  -15.8363   20.5232 H   0  0  0  0  0  0
  -26.2403  -15.6396   20.0521 H   0  0  0  0  0  0
  -26.7388  -32.5129   23.0898 H   0  0  0  0  0  0
  -25.0085  -33.9481   25.0193 H   0  0  0  0  0  0
  -22.7843  -31.2738   21.3553 H   0  0  0  0  0  0
  -23.3765  -35.9550   23.3252 H   0  0  0  0  0  0
  -24.3581  -36.8926   22.2068 H   0  0  0  0  0  0
  -23.7269  -37.6396   23.6739 H   0  0  0  0  0  0
  -26.2210  -31.3872   20.6153 H   0  0  0  0  0  0
  -26.8995  -30.6955   22.0469 H   0  0  0  0  0  0
  -28.1636  -28.6532   21.2185 H   0  0  0  0  0  0
  -25.8976  -25.7531   18.9883 H   0  0  0  0  0  0
  -23.9923  -27.2643   18.9598 H   0  0  0  0  0  0
  -23.8528  -30.5220   19.3882 H   0  0  0  0  0  0
  -22.8119  -29.2073   19.8347 H   0  0  0  0  0  0
  -25.1344  -36.1736   25.0777 H   0  0  0  0  0  0
  -21.0056  -28.3355   24.1297 H   0  0  0  0  0  0
  -20.5673  -26.2389   23.3639 H   0  0  0  0  0  0
  -21.6672  -26.7402   22.1209 H   0  0  0  0  0  0
  -19.6939  -25.6262   21.1268 H   0  0  0  0  0  0
  -19.6698  -27.3136   20.6706 H   0  0  0  0  0  0
  -17.4240  -26.6678   21.4007 H   0  0  0  0  0  0
  -18.0350  -26.0071   22.9005 H   0  0  0  0  0  0
  -19.7981  -30.7329   24.2135 H   0  0  0  0  0  0
  -17.5045  -31.6246   24.5188 H   0  0  0  0  0  0
  -15.5381  -30.2945   23.7688 H   0  0  0  0  0  0
  -15.8724  -28.0800   22.7058 H   0  0  0  0  0  0
  -24.5861  -30.7118   25.7675 H   0  0  0  0  0  0
  -24.8892  -32.2960   26.4707 H   0  0  0  0  0  0
  -25.7931  -30.8968   27.0196 H   0  0  0  0  0  0
  -26.3091  -29.6559   24.1422 H   0  0  0  0  0  0
  -27.3957  -29.7230   25.5068 H   0  0  0  0  0  0
  -27.9044  -30.4042   23.9831 H   0  0  0  0  0  0
  -27.2550  -33.3649   26.1996 H   0  0  0  0  0  0
  -28.3887  -32.6890   25.0395 H   0  0  0  0  0  0
  -28.0647  -31.8543   26.5517 H   0  0  0  0  0  0
  -28.2548  -38.0106   24.7512 H   0  0  0  0  0  0
  -28.1102  -36.2637   24.6250 H   0  0  0  0  0  0
  -27.2296  -37.1379   25.8856 H   0  0  0  0  0  0
  -20.9586  -29.8749   21.6667 H   0  0  0  0  0  0
  -26.0110  -38.2755   24.1393 H   0  0  0  0  0  0
  -28.4223  -23.7843   16.3513 H   0  0  0  0  0  0
  -29.8613  -24.1880   17.2515 H   0  0  0  0  0  0
  -28.3006  -24.8685   17.7179 H   0  0  0  0  0  0
  -28.3824  -19.8594   17.8970 H   0  0  0  0  0  0
  -27.4692  -18.9757   19.1028 H   0  0  0  0  0  0
  -28.7898  -18.1934   18.2343 H   0  0  0  0  0  0
  -30.7671  -20.6061   18.3815 H   0  0  0  0  0  0
  -31.2132  -18.9325   18.6409 H   0  0  0  0  0  0
  -31.5575  -20.1314   19.8752 H   0  0  0  0  0  0
  -31.1017  -22.5734   19.4375 H   0  0  0  0  0  0
  -30.6987  -23.3421   20.9603 H   0  0  0  0  0  0
  -30.6116  -24.2591   19.4680 H   0  0  0  0  0  0
  -29.0819  -21.9158   17.8000 H   0  0  0  0  0  0
  -27.4941  -22.4851   18.2003 H   0  0  0  0  0  0
  -29.3776  -21.2600   21.3791 H   0  0  0  0  0  0
  -27.8591  -21.0155   20.6607 H   0  0  0  0  0  0
  -29.0864  -18.1170   21.5477 H   0  0  0  0  0  0
  -30.7471  -18.1544   21.1594 H   0  0  0  0  0  0
  -28.0977  -24.2161   21.4261 H   0  0  0  0  0  0
  -27.0212  -24.1265   20.1065 H   0  0  0  0  0  0
  -28.7119  -16.1816   20.1577 H   0  0  0  0  0  0
  1 25  1  0  0  0
  1 30  2  0  0  0
  1 81  1  0  0  0
  2  3  1  0  0  0
  2 25  1  0  0  0
  2 82  1  0  0  0
  2 83  1  0  0  0
  3  4  1  0  0  0
  3 84  1  0  0  0
  3 85  1  0  0  0
  4  5  1  0  0  0
  4 86  1  0  0  0
  4 87  1  0  0  0
  5  6  1  0  0  0
  5 26  1  0  0  0
  5 88  1  0  0  0
  6 25  1  0  0  0
  6 89  1  0  0  0
  6 90  1  0  0  0
  7  8  2  0  0  0
  7 26  1  0  0  0
  7 29  1  0  0  0
  8  9  1  0  0  0
  8 22  1  0  0  0
  9 10  1  0  0  0
  9 27  2  0  0  0
 10 11  2  0  0  0
 10 15  1  0  0  0
 11 12  1  0  0  0
 11 91  1  0  0  0
 12 13  2  0  0  0
 12 92  1  0  0  0
 13 14  1  0  0  0
 13 31  1  0  0  0
 14 15  2  0  0  0
 14 93  1  0  0  0
 15 94  1  0  0  0
 16 17  2  0  0  0
 16 21  1  0  0  0
 16 31  1  0  0  0
 17 18  1  0  0  0
 17 95  1  0  0  0
 18 19  2  0  0  0
 18 96  1  0  0  0
 19 20  1  0  0  0
 19 24  1  0  0  0
 20 21  2  0  0  0
 20 97  1  0  0  0
 21 23  1  0  0  0
 22 28  1  0  0  0
 22 32  2  0  0  0
 26 27  1  0  0  0
 28 98  1  0  0  0
 28 99  1  0  0  0
 29100  1  0  0  0
 29101  1  0  0  0
 33 34  1  0  0  0
 33 66  1  0  0  0
 33 70  2  0  0  0
 34 36  1  0  0  0
 34 59  1  0  0  0
 34102  1  0  0  0
 35 44  2  0  0  0
 35 45  1  0  0  0
 35 68  1  0  0  0
 36 56  1  0  0  0
 36103  1  0  0  0
 37 39  1  0  0  0
 37 47  1  0  0  0
 37 66  1  0  0  0
 37104  1  0  0  0
 38 43  2  0  0  0
 38 46  1  0  0  0
 38 47  1  0  0  0
 39 64  1  0  0  0
 39 67  2  0  0  0
 40 52  1  0  0  0
 40 53  2  0  0  0
 40 58  1  0  0  0
 41105  1  0  0  0
 41106  1  0  0  0
 41107  1  0  0  0
 41 48  1  0  0  0
 42 43  1  0  0  0
 42 66  1  0  0  0
 42108  1  0  0  0
 42109  1  0  0  0
 43 44  1  0  0  0
 44110  1  0  0  0
 45 46  2  0  0  0
 45111  1  0  0  0
 46112  1  0  0  0
 47113  1  0  0  0
 47114  1  0  0  0
 48 56  1  0  0  0
 48 65  1  0  0  0
 48115  1  0  0  0
 49 50  1  0  0  0
 49 53  1  0  0  0
 49 64  1  0  0  0
 49116  1  0  0  0
 50 51  1  0  0  0
 50117  1  0  0  0
 50118  1  0  0  0
 51 52  1  0  0  0
 51119  1  0  0  0
 51120  1  0  0  0
 52121  1  0  0  0
 52122  1  0  0  0
 53 54  1  0  0  0
 54 55  2  0  0  0
 54123  1  0  0  0
 55 57  1  0  0  0
 55124  1  0  0  0
 56 69  2  0  0  0
 57 58  2  0  0  0
 57125  1  0  0  0
 58126  1  0  0  0
 59 60  1  0  0  0
 59 61  1  0  0  0
 59 62  1  0  0  0
 60127  1  0  0  0
 60128  1  0  0  0
 60129  1  0  0  0
 61130  1  0  0  0
 61131  1  0  0  0
 61132  1  0  0  0
 62133  1  0  0  0
 62134  1  0  0  0
 62135  1  0  0  0
 63 65  1  0  0  0
 63136  1  0  0  0
 63137  1  0  0  0
 63138  1  0  0  0
 64139  1  0  0  0
 65140  1  0  0  0
 68 78  1  0  0  0
 71 75  1  0  0  0
 71141  1  0  0  0
 71142  1  0  0  0
 71143  1  0  0  0
 72144  1  0  0  0
 72145  1  0  0  0
 72146  1  0  0  0
 72 79  1  0  0  0
 73 79  1  0  0  0
 73147  1  0  0  0
 73148  1  0  0  0
 73149  1  0  0  0
 74150  1  0  0  0
 74151  1  0  0  0
 74152  1  0  0  0
 74 80  1  0  0  0
 75 80  1  0  0  0
 75153  1  0  0  0
 75154  1  0  0  0
 76 79  1  0  0  0
 76 80  1  0  0  0
 76155  1  0  0  0
 76156  1  0  0  0
 77 79  1  0  0  0
 77 81  1  0  0  0
 77157  1  0  0  0
 77158  1  0  0  0
 78 80  1  0  0  0
 78159  1  0  0  0
 78160  1  0  0  0
 81161  1  0  0  0
M  ISO  4   1 100  68 101  78 101  81 100
M  END
> <chiral flag>
0

> <version>
0

> <s_m_source_file>
/data/baiqing/PycharmProjects/Reinvent-master-3.2/result/LINK_invent/BTK/process_docking_weight1_custom_sum_contain_oxygen_bond_distance_aromatic_linkinvent_7_9_3/rearranged_h_0110.sdf

> <i_m_source_file_index>
92

> <r_mmod_Potential_Energy-OPLS-2005>
1203.31286621094

> <r_mmod_Stretch_Energy-OPLS-2005>
586.344055175781

> <r_mmod_Bend_Energy-OPLS-2005>
441.602569580078

> <r_mmod_Torsional_Energy-OPLS-2005>
273.382598876953

> <r_mmod_Improper_Torsional_Energy-OPLS-2005>
5.19278812408447

> <r_mmod_Van_der_Waal_Energy-OPLS-2005>
103.930953979492

> <r_mmod_Electrostatic_Energy-OPLS-2005>
-398.657287597656

> <r_mmod_Solvation_Energy-OPLS-2005>
-195.993728637695

> <b_mmod_Minimization_Converged-OPLS-2005>
0

> <r_mmod_RMS_Derivative-OPLS-2005>
4.17061185836792

$$$$
93
                    3D
 Structure written by MMmdl.
159167  0  0  1  0            999 V2000
  -30.5982  -14.7547   20.4707 C   0  0  0  0  0  0
  -30.4384  -12.4668   19.4552 C   0  0  0  0  0  0
  -29.5052  -12.5053   18.2248 C   0  0  0  0  0  0
  -28.0336  -12.3232   18.6482 C   0  0  0  0  0  0
  -27.6405  -13.2273   19.8461 C   0  0  2  0  0  0
  -28.6895  -13.1577   20.9759 C   0  0  0  0  0  0
  -25.2514  -13.8183   20.5694 C   0  0  0  0  0  0
  -24.1809  -13.0430   20.9211 C   0  0  0  0  0  0
  -24.6398  -11.6909   20.8756 C   0  0  0  0  0  0
  -23.9082  -10.4289   21.0411 C   0  0  0  0  0  0
  -24.3631   -9.4200   21.9187 C   0  0  0  0  0  0
  -23.6300   -8.2240   22.0756 C   0  0  0  0  0  0
  -22.4280   -8.0286   21.3544 C   0  0  0  0  0  0
  -21.9920   -9.0262   20.4644 C   0  0  0  0  0  0
  -22.7257  -10.2133   20.3058 C   0  0  0  0  0  0
  -21.6851   -6.0740   22.5280 C   0  0  0  0  0  0
  -21.4016   -6.5643   23.8214 C   0  0  0  0  0  0
  -21.3660   -5.6793   24.9177 C   0  0  0  0  0  0
  -21.6038   -4.3055   24.7224 C   0  0  0  0  0  0
  -21.8821   -3.8150   23.4342 C   0  0  0  0  0  0
  -21.9193   -4.6969   22.3401 C   0  0  0  0  0  0
  -22.7829  -13.5204   21.1877 C   0  0  0  0  0  0
  -22.1660   -4.2153   21.0979 F   0  0  0  0  0  0
  -21.5625   -3.4541   25.7735 F   0  0  0  0  0  0
  -29.9839  -13.5248   20.3854 N   0  0  0  0  0  0
  -26.2937  -12.9386   20.3272 N   0  0  0  0  0  0
  -25.9326  -11.6527   20.5756 N   0  0  0  0  0  0
  -22.0491  -12.8185   22.0432 N   0  0  0  0  0  0
  -25.4183  -15.1912   20.4088 N   0  0  0  0  0  0
  -31.7975  -14.8654   20.2030 O   0  0  0  0  0  0
  -21.6637   -6.8884   21.4241 O   0  0  0  0  0  0
  -22.3512  -14.5515   20.6726 O   0  0  0  0  0  0
  -24.6306  -31.8545   23.1965 C   0  0  0  0  0  0
  -25.9134  -32.4748   23.8316 C   0  0  1  0  0  0
  -27.2236  -27.2573   20.1407 C   0  0  0  0  0  0
  -25.5932  -33.8548   24.2249 N   0  0  0  0  0  0
  -23.4289  -30.4731   21.5406 C   0  0  2  0  0  0
  -24.8779  -28.9134   20.1135 C   0  0  0  0  0  0
  -22.7501  -29.4582   22.4921 C   0  0  0  0  0  0
  -18.0288  -28.1391   22.8475 C   0  0  0  0  0  0
  -24.1500  -36.7280   23.2642 C   0  0  0  0  0  0
  -25.9739  -30.7673   21.3742 C   0  0  0  0  0  0
  -26.0495  -29.3881   20.7186 C   0  0  0  0  0  0
  -27.2290  -28.5755   20.7107 C   0  0  0  0  0  0
  -26.0304  -26.8431   19.5149 C   0  0  0  0  0  0
  -24.8730  -27.6504   19.4979 C   0  0  0  0  0  0
  -23.6481  -29.8019   20.1587 C   0  0  0  0  0  0
  -25.4124  -36.3058   24.0323 C   0  0  1  0  0  0
  -20.5889  -28.3701   23.1275 C   0  0  2  0  0  0
  -20.6784  -26.9424   22.5410 C   0  0  0  0  0  0
  -19.5763  -26.6392   21.5210 C   0  0  0  0  0  0
  -18.1941  -26.7933   22.1616 C   0  0  0  0  0  0
  -19.1543  -28.8860   23.2865 C   0  0  0  0  0  0
  -18.9467  -30.1462   23.8887 C   0  0  0  0  0  0
  -17.6465  -30.6594   24.0557 C   0  0  0  0  0  0
  -25.9060  -34.9431   23.5090 C   0  0  0  0  0  0
  -16.5356  -29.9092   23.6331 C   0  0  0  0  0  0
  -16.7272  -28.6512   23.0345 C   0  0  0  0  0  0
  -26.4510  -31.6564   25.0698 C   0  0  0  0  0  0
  -25.3735  -31.3677   26.1413 C   0  0  0  0  0  0
  -27.0368  -30.2984   24.6165 C   0  0  0  0  0  0
  -27.6071  -32.4307   25.7464 C   0  0  0  0  0  0
  -27.5588  -37.1784   24.8458 C   0  0  0  0  0  0
  -21.4205  -29.3041   22.3664 N   0  0  0  0  0  0
  -26.4299  -37.3760   23.9404 N   0  0  0  0  0  0
  -24.6974  -31.0488   22.0942 N   0  0  0  0  0  0
  -23.4191  -28.8131   23.3038 O   0  0  0  0  0  0
  -28.3306  -26.3804   20.1440 O   0  0  0  0  0  0
  -26.5649  -34.8911   22.4671 O   0  0  0  0  0  0
  -23.5452  -32.1379   23.7253 O   0  0  0  0  0  0
  -29.4039  -19.8933   20.6914 C   0  0  0  0  0  0
  -29.7876  -19.4777   18.0652 C   0  0  0  0  0  0
  -29.4468  -20.8009   18.4579 C   0  0  0  0  0  0
  -29.2152  -21.0678   19.8523 C   0  0  0  0  0  0
  -29.7582  -18.5767   20.1896 C   0  0  0  0  0  0
  -28.7010  -21.3714   16.0511 C   0  0  0  0  0  0
  -30.8672  -22.3001   16.9962 C   0  0  0  0  0  0
  -30.1414  -17.3058   21.0697 C   0  0  0  0  0  0
  -28.1830  -24.9700   20.6583 C   0  0  0  0  0  0
  -28.6095  -23.6532   19.8071 C   0  0  0  0  0  0
  -29.4383  -21.8392   17.3213 C   0  0  0  0  0  0
  -29.9259  -18.4064   18.8717 N   0  0  0  0  0  0
  -29.8002  -15.8659   20.6828 N   0  0  0  0  0  0
  -28.8687  -22.3270   20.4686 O   0  0  0  0  0  0
  -31.4743  -12.6105   19.1437 H   0  0  0  0  0  0
  -30.4007  -11.4896   19.9398 H   0  0  0  0  0  0
  -29.7860  -11.7293   17.5110 H   0  0  0  0  0  0
  -29.6213  -13.4572   17.7046 H   0  0  0  0  0  0
  -27.8990  -11.2751   18.9198 H   0  0  0  0  0  0
  -27.3691  -12.5039   17.8024 H   0  0  0  0  0  0
  -27.6330  -14.2482   19.4630 H   0  0  0  0  0  0
  -28.7345  -12.1552   21.4041 H   0  0  0  0  0  0
  -28.4248  -13.8283   21.7952 H   0  0  0  0  0  0
  -25.2781   -9.5667   22.4761 H   0  0  0  0  0  0
  -24.0003   -7.4628   22.7475 H   0  0  0  0  0  0
  -21.0849   -8.8786   19.8951 H   0  0  0  0  0  0
  -22.3724  -10.9675   19.6165 H   0  0  0  0  0  0
  -21.2017   -7.6153   23.9719 H   0  0  0  0  0  0
  -21.1474   -6.0524   25.9077 H   0  0  0  0  0  0
  -22.0599   -2.7612   23.2843 H   0  0  0  0  0  0
  -22.4121  -11.9839   22.4792 H   0  0  0  0  0  0
  -21.1109  -13.1196   22.2668 H   0  0  0  0  0  0
  -24.6438  -15.8380   20.5155 H   0  0  0  0  0  0
  -26.2515  -15.6333   20.0441 H   0  0  0  0  0  0
  -26.7194  -32.5399   23.1057 H   0  0  0  0  0  0
  -25.0020  -33.9684   25.0350 H   0  0  0  0  0  0
  -22.7256  -31.2949   21.3919 H   0  0  0  0  0  0
  -23.3762  -35.9613   23.3289 H   0  0  0  0  0  0
  -24.3575  -36.8931   22.2059 H   0  0  0  0  0  0
  -23.7265  -37.6477   23.6683 H   0  0  0  0  0  0
  -26.1094  -31.5279   20.6041 H   0  0  0  0  0  0
  -26.8516  -30.8201   22.0060 H   0  0  0  0  0  0
  -28.1349  -28.9369   21.1766 H   0  0  0  0  0  0
  -25.9876  -25.8726   19.0402 H   0  0  0  0  0  0
  -23.9760  -27.2836   19.0176 H   0  0  0  0  0  0
  -23.7716  -30.5759   19.4002 H   0  0  0  0  0  0
  -22.7659  -29.2334   19.8569 H   0  0  0  0  0  0
  -25.1310  -36.1906   25.0817 H   0  0  0  0  0  0
  -20.9972  -28.3297   24.1394 H   0  0  0  0  0  0
  -20.5703  -26.2316   23.3613 H   0  0  0  0  0  0
  -21.6656  -26.7468   22.1199 H   0  0  0  0  0  0
  -19.6935  -25.6300   21.1252 H   0  0  0  0  0  0
  -19.6707  -27.3199   20.6737 H   0  0  0  0  0  0
  -17.4212  -26.6668   21.4014 H   0  0  0  0  0  0
  -18.0328  -26.0082   22.9018 H   0  0  0  0  0  0
  -19.7944  -30.7269   24.2264 H   0  0  0  0  0  0
  -17.5025  -31.6271   24.5166 H   0  0  0  0  0  0
  -15.5357  -30.2989   23.7674 H   0  0  0  0  0  0
  -15.8667  -28.0835   22.7062 H   0  0  0  0  0  0
  -24.5935  -30.7016   25.7706 H   0  0  0  0  0  0
  -24.8892  -32.2819   26.4846 H   0  0  0  0  0  0
  -25.8056  -30.8833   27.0180 H   0  0  0  0  0  0
  -26.2940  -29.6692   24.1242 H   0  0  0  0  0  0
  -27.4118  -29.7277   25.4672 H   0  0  0  0  0  0
  -27.8790  -30.4261   23.9359 H   0  0  0  0  0  0
  -27.2706  -33.3629   26.2006 H   0  0  0  0  0  0
  -28.3889  -32.6828   25.0289 H   0  0  0  0  0  0
  -28.0727  -31.8446   26.5396 H   0  0  0  0  0  0
  -28.2580  -38.0107   24.7530 H   0  0  0  0  0  0
  -28.1117  -36.2632   24.6267 H   0  0  0  0  0  0
  -27.2290  -37.1414   25.8857 H   0  0  0  0  0  0
  -20.9410  -29.8747   21.6841 H   0  0  0  0  0  0
  -26.0175  -38.2831   24.1413 H   0  0  0  0  0  0
  -29.3045  -20.0117   21.7617 H   0  0  0  0  0  0
  -30.0070  -19.2533   17.0336 H   0  0  0  0  0  0
  -27.6831  -21.0535   16.2810 H   0  0  0  0  0  0
  -29.2031  -20.5541   15.5346 H   0  0  0  0  0  0
  -28.6251  -22.1901   15.3341 H   0  0  0  0  0  0
  -31.3629  -22.7033   17.8798 H   0  0  0  0  0  0
  -30.8670  -23.0848   16.2388 H   0  0  0  0  0  0
  -31.4776  -21.4782   16.6191 H   0  0  0  0  0  0
  -29.6813  -17.4661   22.0446 H   0  0  0  0  0  0
  -31.2152  -17.3594   21.2571 H   0  0  0  0  0  0
  -28.7963  -24.9536   21.5590 H   0  0  0  0  0  0
  -27.1669  -24.8225   21.0273 H   0  0  0  0  0  0
  -29.5100  -23.9178   19.2540 H   0  0  0  0  0  0
  -27.7917  -23.5125   19.1018 H   0  0  0  0  0  0
  -28.8756  -22.7144   17.5845 H   0  0  0  0  0  0
  -28.8159  -15.6612   20.7354 H   0  0  0  0  0  0
  1 25  1  0  0  0
  1 30  2  0  0  0
  1 83  1  0  0  0
  2  3  1  0  0  0
  2 25  1  0  0  0
  2 85  1  0  0  0
  2 86  1  0  0  0
  3  4  1  0  0  0
  3 87  1  0  0  0
  3 88  1  0  0  0
  4  5  1  0  0  0
  4 89  1  0  0  0
  4 90  1  0  0  0
  5  6  1  0  0  0
  5 26  1  0  0  0
  5 91  1  0  0  0
  6 25  1  0  0  0
  6 92  1  0  0  0
  6 93  1  0  0  0
  7  8  2  0  0  0
  7 26  1  0  0  0
  7 29  1  0  0  0
  8  9  1  0  0  0
  8 22  1  0  0  0
  9 10  1  0  0  0
  9 27  2  0  0  0
 10 11  2  0  0  0
 10 15  1  0  0  0
 11 12  1  0  0  0
 11 94  1  0  0  0
 12 13  2  0  0  0
 12 95  1  0  0  0
 13 14  1  0  0  0
 13 31  1  0  0  0
 14 15  2  0  0  0
 14 96  1  0  0  0
 15 97  1  0  0  0
 16 17  2  0  0  0
 16 21  1  0  0  0
 16 31  1  0  0  0
 17 18  1  0  0  0
 17 98  1  0  0  0
 18 19  2  0  0  0
 18 99  1  0  0  0
 19 20  1  0  0  0
 19 24  1  0  0  0
 20 21  2  0  0  0
 20100  1  0  0  0
 21 23  1  0  0  0
 22 28  1  0  0  0
 22 32  2  0  0  0
 26 27  1  0  0  0
 28101  1  0  0  0
 28102  1  0  0  0
 29103  1  0  0  0
 29104  1  0  0  0
 33 34  1  0  0  0
 33 66  1  0  0  0
 33 70  2  0  0  0
 34 36  1  0  0  0
 34 59  1  0  0  0
 34105  1  0  0  0
 35 44  2  0  0  0
 35 45  1  0  0  0
 35 68  1  0  0  0
 36 56  1  0  0  0
 36106  1  0  0  0
 37 39  1  0  0  0
 37 47  1  0  0  0
 37 66  1  0  0  0
 37107  1  0  0  0
 38 43  2  0  0  0
 38 46  1  0  0  0
 38 47  1  0  0  0
 39 64  1  0  0  0
 39 67  2  0  0  0
 40 52  1  0  0  0
 40 53  2  0  0  0
 40 58  1  0  0  0
 41108  1  0  0  0
 41109  1  0  0  0
 41110  1  0  0  0
 41 48  1  0  0  0
 42 43  1  0  0  0
 42 66  1  0  0  0
 42111  1  0  0  0
 42112  1  0  0  0
 43 44  1  0  0  0
 44113  1  0  0  0
 45 46  2  0  0  0
 45114  1  0  0  0
 46115  1  0  0  0
 47116  1  0  0  0
 47117  1  0  0  0
 48 56  1  0  0  0
 48 65  1  0  0  0
 48118  1  0  0  0
 49 50  1  0  0  0
 49 53  1  0  0  0
 49 64  1  0  0  0
 49119  1  0  0  0
 50 51  1  0  0  0
 50120  1  0  0  0
 50121  1  0  0  0
 51 52  1  0  0  0
 51122  1  0  0  0
 51123  1  0  0  0
 52124  1  0  0  0
 52125  1  0  0  0
 53 54  1  0  0  0
 54 55  2  0  0  0
 54126  1  0  0  0
 55 57  1  0  0  0
 55127  1  0  0  0
 56 69  2  0  0  0
 57 58  2  0  0  0
 57128  1  0  0  0
 58129  1  0  0  0
 59 60  1  0  0  0
 59 61  1  0  0  0
 59 62  1  0  0  0
 60130  1  0  0  0
 60131  1  0  0  0
 60132  1  0  0  0
 61133  1  0  0  0
 61134  1  0  0  0
 61135  1  0  0  0
 62136  1  0  0  0
 62137  1  0  0  0
 62138  1  0  0  0
 63 65  1  0  0  0
 63139  1  0  0  0
 63140  1  0  0  0
 63141  1  0  0  0
 64142  1  0  0  0
 65143  1  0  0  0
 68 79  1  0  0  0
 71 74  2  0  0  0
 71 75  1  0  0  0
 71144  1  0  0  0
 72 73  2  0  0  0
 72 82  1  0  0  0
 72145  1  0  0  0
 73 74  1  0  0  0
 73 81  1  0  0  0
 74 84  1  0  0  0
 75 78  1  0  0  0
 75 82  2  0  0  0
 76146  1  0  0  0
 76147  1  0  0  0
 76148  1  0  0  0
 76 81  1  0  0  0
 77 81  1  0  0  0
 77149  1  0  0  0
 77150  1  0  0  0
 77151  1  0  0  0
 78 83  1  0  0  0
 78152  1  0  0  0
 78153  1  0  0  0
 79 80  1  0  0  0
 79154  1  0  0  0
 79155  1  0  0  0
 80 84  1  0  0  0
 80156  1  0  0  0
 80157  1  0  0  0
 81158  1  0  0  0
 83159  1  0  0  0
M  ISO  4   1 100  68 101  79 101  83 100
M  END
> <chiral flag>
0

> <version>
0

> <s_m_source_file>
/data/baiqing/PycharmProjects/Reinvent-master-3.2/result/LINK_invent/BTK/process_docking_weight1_custom_sum_contain_oxygen_bond_distance_aromatic_linkinvent_7_9_3/rearranged_h_0110.sdf

> <i_m_source_file_index>
93

> <r_mmod_Potential_Energy-OPLS-2005>
-57.6686058044434

> <r_mmod_Stretch_Energy-OPLS-2005>
130.475509643555

> <r_mmod_Bend_Energy-OPLS-2005>
206.488800048828

> <r_mmod_Torsional_Energy-OPLS-2005>
222.450775146484

> <r_mmod_Improper_Torsional_Energy-OPLS-2005>
4.7202353477478

> <r_mmod_Van_der_Waal_Energy-OPLS-2005>
146.877212524414

> <r_mmod_Electrostatic_Energy-OPLS-2005>
-626.865905761719

> <r_mmod_Solvation_Energy-OPLS-2005>
-229.160720825195

> <b_mmod_Minimization_Converged-OPLS-2005>
0

> <r_mmod_RMS_Derivative-OPLS-2005>
1.60291802883148

$$$$
94
                    3D
 Structure written by MMmdl.
175183  0  0  1  0            999 V2000
  -30.6633  -14.4907   20.5562 C   0  0  0  0  0  0
  -30.4358  -12.3091   19.4312 C   0  0  0  0  0  0
  -29.5051  -12.5066   18.2146 C   0  0  0  0  0  0
  -28.0240  -12.3649   18.6213 C   0  0  0  0  0  0
  -27.6691  -13.1976   19.8825 C   0  0  2  0  0  0
  -28.7101  -12.9636   21.0030 C   0  0  0  0  0  0
  -25.2642  -13.8129   20.5691 C   0  0  0  0  0  0
  -24.1859  -13.0439   20.9179 C   0  0  0  0  0  0
  -24.6381  -11.6899   20.8718 C   0  0  0  0  0  0
  -23.9040  -10.4290   21.0381 C   0  0  0  0  0  0
  -24.3603   -9.4209   21.9167 C   0  0  0  0  0  0
  -23.6278   -8.2249   22.0746 C   0  0  0  0  0  0
  -22.4256   -8.0281   21.3544 C   0  0  0  0  0  0
  -21.9885   -9.0255   20.4647 C   0  0  0  0  0  0
  -22.7211  -10.2125   20.3041 C   0  0  0  0  0  0
  -21.6852   -6.0728   22.5276 C   0  0  0  0  0  0
  -21.4021   -6.5631   23.8211 C   0  0  0  0  0  0
  -21.3655   -5.6779   24.9171 C   0  0  0  0  0  0
  -21.6037   -4.3047   24.7216 C   0  0  0  0  0  0
  -21.8816   -3.8140   23.4340 C   0  0  0  0  0  0
  -21.9195   -4.6960   22.3396 C   0  0  0  0  0  0
  -22.7880  -13.5271   21.1821 C   0  0  0  0  0  0
  -22.1663   -4.2151   21.0975 F   0  0  0  0  0  0
  -21.5631   -3.4525   25.7726 F   0  0  0  0  0  0
  -30.0421  -13.2844   20.4591 N   0  0  0  0  0  0
  -26.3068  -12.9275   20.3383 N   0  0  0  0  0  0
  -25.9307  -11.6451   20.5757 N   0  0  0  0  0  0
  -22.0494  -12.8283   22.0374 N   0  0  0  0  0  0
  -25.4405  -15.1845   20.4096 N   0  0  0  0  0  0
  -31.7774  -14.7185   20.0764 O   0  0  0  0  0  0
  -21.6636   -6.8870   21.4229 O   0  0  0  0  0  0
  -22.3579  -14.5582   20.6676 O   0  0  0  0  0  0
  -24.6090  -31.8670   23.2100 C   0  0  0  0  0  0
  -25.8995  -32.4812   23.8388 C   0  0  1  0  0  0
  -27.2579  -27.4404   20.1297 C   0  0  0  0  0  0
  -25.5843  -33.8610   24.2309 N   0  0  0  0  0  0
  -23.3971  -30.4877   21.5488 C   0  0  2  0  0  0
  -24.8516  -28.9485   20.1232 C   0  0  0  0  0  0
  -22.7383  -29.4644   22.5014 C   0  0  0  0  0  0
  -18.0263  -28.1382   22.8481 C   0  0  0  0  0  0
  -24.1487  -36.7348   23.2650 C   0  0  0  0  0  0
  -25.9217  -30.8416   21.3577 C   0  0  0  0  0  0
  -26.0047  -29.4701   20.7194 C   0  0  0  0  0  0
  -27.2056  -28.7283   20.7186 C   0  0  0  0  0  0
  -26.0892  -26.9428   19.5131 C   0  0  0  0  0  0
  -24.8876  -27.6814   19.5158 C   0  0  0  0  0  0
  -23.6073  -29.8098   20.1677 C   0  0  0  0  0  0
  -25.4105  -36.3110   24.0332 C   0  0  1  0  0  0
  -20.5844  -28.3647   23.1341 C   0  0  2  0  0  0
  -20.6740  -26.9388   22.5427 C   0  0  0  0  0  0
  -19.5716  -26.6384   21.5219 C   0  0  0  0  0  0
  -18.1896  -26.7928   22.1628 C   0  0  0  0  0  0
  -19.1506  -28.8838   23.2901 C   0  0  0  0  0  0
  -18.9444  -30.1457   23.8901 C   0  0  0  0  0  0
  -17.6441  -30.6578   24.0579 C   0  0  0  0  0  0
  -25.9020  -34.9469   23.5121 C   0  0  0  0  0  0
  -16.5334  -29.9082   23.6342 C   0  0  0  0  0  0
  -16.7256  -28.6513   23.0335 C   0  0  0  0  0  0
  -26.4452  -31.6581   25.0691 C   0  0  0  0  0  0
  -25.3733  -31.3661   26.1448 C   0  0  0  0  0  0
  -27.0285  -30.3016   24.6060 C   0  0  0  0  0  0
  -27.6045  -32.4307   25.7430 C   0  0  0  0  0  0
  -27.5580  -37.1824   24.8457 C   0  0  0  0  0  0
  -21.4114  -29.3011   22.3756 N   0  0  0  0  0  0
  -26.4301  -37.3788   23.9395 N   0  0  0  0  0  0
  -24.6602  -31.0799   22.0986 N   0  0  0  0  0  0
  -23.4169  -28.8214   23.3061 O   0  0  0  0  0  0
  -28.3937  -26.6476   20.0790 O   0  0  0  0  0  0
  -26.5609  -34.8923   22.4696 O   0  0  0  0  0  0
  -23.5286  -32.1416   23.7510 O   0  0  0  0  0  0
  -28.0303  -21.8539   21.8025 C   0  0  0  0  0  0
  -29.5555  -22.6383   20.3985 C   0  0  0  0  0  0
  -28.8813  -21.4855   20.7219 C   0  0  0  0  0  0
  -28.2399  -23.1673   22.1377 C   0  0  0  0  0  0
  -30.3021  -19.8502   19.3122 C   0  0  0  0  0  0
  -27.2650  -23.1076   24.4769 C   0  0  0  0  0  0
  -26.2990  -24.6175   22.7183 C   0  0  0  0  0  0
  -30.3475  -18.3969   22.4949 C   0  0  0  0  0  0
  -30.1364  -27.4566   21.5927 C   0  0  0  0  0  0
  -29.8733  -24.9898   21.2432 C   0  0  0  0  0  0
  -29.8227  -16.8586   20.4822 C   0  0  0  0  0  0
  -28.9699  -20.1119   20.0435 C   0  0  1  0  0  0
  -27.5856  -23.9576   23.2336 C   0  0  0  0  0  0
  -29.2768  -17.9018   21.5054 C   0  0  2  0  0  0
  -29.0949  -26.3521   21.3051 C   0  0  2  0  0  0
  -29.1816  -23.6817   21.2436 N   0  0  0  0  0  0
  -29.8735  -15.4818   21.0113 N   0  0  0  0  0  0
  -28.4583  -19.0162   20.9210 N   0  3  0  0  0  0
  -31.4806  -12.4191   19.1349 H   0  0  0  0  0  0
  -30.3478  -11.2949   19.8264 H   0  0  0  0  0  0
  -29.7511  -11.7840   17.4372 H   0  0  0  0  0  0
  -29.6708  -13.4933   17.7787 H   0  0  0  0  0  0
  -27.8311  -11.3077   18.8099 H   0  0  0  0  0  0
  -27.3769  -12.6480   17.7893 H   0  0  0  0  0  0
  -27.7205  -14.2456   19.5883 H   0  0  0  0  0  0
  -28.6912  -11.9212   21.3280 H   0  0  0  0  0  0
  -28.4716  -13.5449   21.8938 H   0  0  0  0  0  0
  -25.2745   -9.5704   22.4746 H   0  0  0  0  0  0
  -23.9994   -7.4639   22.7464 H   0  0  0  0  0  0
  -21.0820   -8.8757   19.8959 H   0  0  0  0  0  0
  -22.3655  -10.9659   19.6157 H   0  0  0  0  0  0
  -21.2016   -7.6137   23.9719 H   0  0  0  0  0  0
  -21.1484   -6.0506   25.9077 H   0  0  0  0  0  0
  -22.0603   -2.7606   23.2827 H   0  0  0  0  0  0
  -22.4073  -11.9951   22.4791 H   0  0  0  0  0  0
  -21.1116  -13.1329   22.2566 H   0  0  0  0  0  0
  -24.6716  -15.8383   20.5126 H   0  0  0  0  0  0
  -26.2753  -15.6051   20.0251 H   0  0  0  0  0  0
  -26.7059  -32.5565   23.1170 H   0  0  0  0  0  0
  -24.9907  -33.9773   25.0382 H   0  0  0  0  0  0
  -22.6828  -31.3019   21.4072 H   0  0  0  0  0  0
  -23.3709  -35.9722   23.3326 H   0  0  0  0  0  0
  -24.3579  -36.8949   22.2060 H   0  0  0  0  0  0
  -23.7286  -37.6576   23.6668 H   0  0  0  0  0  0
  -26.0212  -31.6034   20.5827 H   0  0  0  0  0  0
  -26.8143  -30.9085   21.9671 H   0  0  0  0  0  0
  -28.0793  -29.1805   21.1510 H   0  0  0  0  0  0
  -26.1086  -25.9696   19.0431 H   0  0  0  0  0  0
  -24.0024  -27.2695   19.0520 H   0  0  0  0  0  0
  -23.7062  -30.5794   19.4006 H   0  0  0  0  0  0
  -22.7339  -29.2215   19.8809 H   0  0  0  0  0  0
  -25.1278  -36.1983   25.0824 H   0  0  0  0  0  0
  -20.9939  -28.3217   24.1461 H   0  0  0  0  0  0
  -20.5633  -26.2250   23.3605 H   0  0  0  0  0  0
  -21.6614  -26.7435   22.1226 H   0  0  0  0  0  0
  -19.6864  -25.6302   21.1230 H   0  0  0  0  0  0
  -19.6658  -27.3216   20.6764 H   0  0  0  0  0  0
  -17.4161  -26.6695   21.4033 H   0  0  0  0  0  0
  -18.0293  -26.0079   22.9030 H   0  0  0  0  0  0
  -19.7919  -30.7281   24.2254 H   0  0  0  0  0  0
  -17.4997  -31.6259   24.5185 H   0  0  0  0  0  0
  -15.5334  -30.2977   23.7679 H   0  0  0  0  0  0
  -15.8653  -28.0858   22.7007 H   0  0  0  0  0  0
  -24.5907  -30.6997   25.7807 H   0  0  0  0  0  0
  -24.8913  -32.2791   26.4944 H   0  0  0  0  0  0
  -25.8106  -30.8811   27.0176 H   0  0  0  0  0  0
  -26.2816  -29.6739   24.1166 H   0  0  0  0  0  0
  -27.4091  -29.7284   25.4532 H   0  0  0  0  0  0
  -27.8638  -30.4318   23.9164 H   0  0  0  0  0  0
  -27.2676  -33.3597   26.2046 H   0  0  0  0  0  0
  -28.3814  -32.6882   25.0213 H   0  0  0  0  0  0
  -28.0760  -31.8402   26.5298 H   0  0  0  0  0  0
  -28.2604  -38.0117   24.7471 H   0  0  0  0  0  0
  -28.1064  -36.2636   24.6307 H   0  0  0  0  0  0
  -27.2293  -37.1506   25.8863 H   0  0  0  0  0  0
  -20.9261  -29.8730   21.6979 H   0  0  0  0  0  0
  -26.0177  -38.2871   24.1359 H   0  0  0  0  0  0
  -27.3249  -21.2126   22.3124 H   0  0  0  0  0  0
  -30.3030  -22.8035   19.6333 H   0  0  0  0  0  0
  -30.4863  -20.6295   18.5734 H   0  0  0  0  0  0
  -30.2732  -18.9155   18.7560 H   0  0  0  0  0  0
  -31.1597  -19.8352   19.9794 H   0  0  0  0  0  0
  -28.1562  -22.6119   24.8653 H   0  0  0  0  0  0
  -26.5206  -22.3395   24.2620 H   0  0  0  0  0  0
  -26.8650  -23.7269   25.2797 H   0  0  0  0  0  0
  -26.4791  -25.1915   21.8108 H   0  0  0  0  0  0
  -25.8718  -25.2894   23.4610 H   0  0  0  0  0  0
  -25.5463  -23.8685   22.4702 H   0  0  0  0  0  0
  -30.7947  -17.5602   23.0331 H   0  0  0  0  0  0
  -29.9167  -19.0655   23.2411 H   0  0  0  0  0  0
  -31.1579  -18.9300   22.0010 H   0  0  0  0  0  0
  -30.8711  -27.1300   22.3297 H   0  0  0  0  0  0
  -29.7065  -28.3553   22.0238 H   0  0  0  0  0  0
  -30.6799  -27.7333   20.6899 H   0  0  0  0  0  0
  -30.5554  -24.9438   22.0933 H   0  0  0  0  0  0
  -30.5202  -25.0187   20.3663 H   0  0  0  0  0  0
  -30.8118  -17.1603   20.1318 H   0  0  0  0  0  0
  -29.1793  -16.8275   19.6024 H   0  0  0  0  0  0
  -28.2169  -20.1746   19.2572 H   0  0  0  0  0  0
  -28.2764  -24.7284   23.5742 H   0  0  0  0  0  0
  -28.5450  -17.3653   22.1118 H   0  0  0  0  0  0
  -28.3979  -26.3494   22.1378 H   0  0  0  0  0  0
  -29.0231  -15.1496   21.4426 H   0  0  0  0  0  0
  -27.7041  -18.5889   20.4067 H   0  0  0  0  0  0
  -28.0167  -19.4960   21.6877 H   0  0  0  0  0  0
  1 25  1  0  0  0
  1 30  2  0  0  0
  1 87  1  0  0  0
  2  3  1  0  0  0
  2 25  1  0  0  0
  2 89  1  0  0  0
  2 90  1  0  0  0
  3  4  1  0  0  0
  3 91  1  0  0  0
  3 92  1  0  0  0
  4  5  1  0  0  0
  4 93  1  0  0  0
  4 94  1  0  0  0
  5  6  1  0  0  0
  5 26  1  0  0  0
  5 95  1  0  0  0
  6 25  1  0  0  0
  6 96  1  0  0  0
  6 97  1  0  0  0
  7  8  2  0  0  0
  7 26  1  0  0  0
  7 29  1  0  0  0
  8  9  1  0  0  0
  8 22  1  0  0  0
  9 10  1  0  0  0
  9 27  2  0  0  0
 10 11  2  0  0  0
 10 15  1  0  0  0
 11 12  1  0  0  0
 11 98  1  0  0  0
 12 13  2  0  0  0
 12 99  1  0  0  0
 13 14  1  0  0  0
 13 31  1  0  0  0
 14 15  2  0  0  0
 14100  1  0  0  0
 15101  1  0  0  0
 16 17  2  0  0  0
 16 21  1  0  0  0
 16 31  1  0  0  0
 17 18  1  0  0  0
 17102  1  0  0  0
 18 19  2  0  0  0
 18103  1  0  0  0
 19 20  1  0  0  0
 19 24  1  0  0  0
 20 21  2  0  0  0
 20104  1  0  0  0
 21 23  1  0  0  0
 22 28  1  0  0  0
 22 32  2  0  0  0
 26 27  1  0  0  0
 28105  1  0  0  0
 28106  1  0  0  0
 29107  1  0  0  0
 29108  1  0  0  0
 33 34  1  0  0  0
 33 66  1  0  0  0
 33 70  2  0  0  0
 34 36  1  0  0  0
 34 59  1  0  0  0
 34109  1  0  0  0
 35 44  2  0  0  0
 35 45  1  0  0  0
 35 68  1  0  0  0
 36 56  1  0  0  0
 36110  1  0  0  0
 37 39  1  0  0  0
 37 47  1  0  0  0
 37 66  1  0  0  0
 37111  1  0  0  0
 38 43  2  0  0  0
 38 46  1  0  0  0
 38 47  1  0  0  0
 39 64  1  0  0  0
 39 67  2  0  0  0
 40 52  1  0  0  0
 40 53  2  0  0  0
 40 58  1  0  0  0
 41112  1  0  0  0
 41113  1  0  0  0
 41114  1  0  0  0
 41 48  1  0  0  0
 42 43  1  0  0  0
 42 66  1  0  0  0
 42115  1  0  0  0
 42116  1  0  0  0
 43 44  1  0  0  0
 44117  1  0  0  0
 45 46  2  0  0  0
 45118  1  0  0  0
 46119  1  0  0  0
 47120  1  0  0  0
 47121  1  0  0  0
 48 56  1  0  0  0
 48 65  1  0  0  0
 48122  1  0  0  0
 49 50  1  0  0  0
 49 53  1  0  0  0
 49 64  1  0  0  0
 49123  1  0  0  0
 50 51  1  0  0  0
 50124  1  0  0  0
 50125  1  0  0  0
 51 52  1  0  0  0
 51126  1  0  0  0
 51127  1  0  0  0
 52128  1  0  0  0
 52129  1  0  0  0
 53 54  1  0  0  0
 54 55  2  0  0  0
 54130  1  0  0  0
 55 57  1  0  0  0
 55131  1  0  0  0
 56 69  2  0  0  0
 57 58  2  0  0  0
 57132  1  0  0  0
 58133  1  0  0  0
 59 60  1  0  0  0
 59 61  1  0  0  0
 59 62  1  0  0  0
 60134  1  0  0  0
 60135  1  0  0  0
 60136  1  0  0  0
 61137  1  0  0  0
 61138  1  0  0  0
 61139  1  0  0  0
 62140  1  0  0  0
 62141  1  0  0  0
 62142  1  0  0  0
 63 65  1  0  0  0
 63143  1  0  0  0
 63144  1  0  0  0
 63145  1  0  0  0
 64146  1  0  0  0
 65147  1  0  0  0
 68 85  1  0  0  0
 71 73  1  0  0  0
 71 74  2  0  0  0
 71148  1  0  0  0
 72 73  2  0  0  0
 72 86  1  0  0  0
 72149  1  0  0  0
 73 82  1  0  0  0
 74 83  1  0  0  0
 74 86  1  0  0  0
 75150  1  0  0  0
 75151  1  0  0  0
 75152  1  0  0  0
 75 82  1  0  0  0
 76153  1  0  0  0
 76154  1  0  0  0
 76155  1  0  0  0
 76 83  1  0  0  0
 77 83  1  0  0  0
 77156  1  0  0  0
 77157  1  0  0  0
 77158  1  0  0  0
 78159  1  0  0  0
 78160  1  0  0  0
 78161  1  0  0  0
 78 84  1  0  0  0
 79162  1  0  0  0
 79163  1  0  0  0
 79164  1  0  0  0
 79 85  1  0  0  0
 80 85  1  0  0  0
 80 86  1  0  0  0
 80165  1  0  0  0
 80166  1  0  0  0
 81 84  1  0  0  0
 81 87  1  0  0  0
 81167  1  0  0  0
 81168  1  0  0  0
 82 88  1  0  0  0
 82169  1  0  0  0
 83170  1  0  0  0
 84 88  1  0  0  0
 84171  1  0  0  0
 85172  1  0  0  0
 87173  1  0  0  0
 88174  1  0  0  0
 88175  1  0  0  0
M  CHG  1  88   1
M  ISO  4   1 100  68 101  85 101  87 100
M  END
> <chiral flag>
0

> <version>
0

> <s_m_source_file>
/data/baiqing/PycharmProjects/Reinvent-master-3.2/result/LINK_invent/BTK/process_docking_weight1_custom_sum_contain_oxygen_bond_distance_aromatic_linkinvent_7_9_3/rearranged_h_0110.sdf

> <i_m_source_file_index>
94

> <r_mmod_Potential_Energy-OPLS-2005>
-208.662902832031

> <r_mmod_Stretch_Energy-OPLS-2005>
43.4822425842285

> <r_mmod_Bend_Energy-OPLS-2005>
155.291137695312

> <r_mmod_Torsional_Energy-OPLS-2005>
280.014404296875

> <r_mmod_Improper_Torsional_Energy-OPLS-2005>
8.5825834274292

> <r_mmod_Van_der_Waal_Energy-OPLS-2005>
118.323875427246

> <r_mmod_Electrostatic_Energy-OPLS-2005>
-370.620880126953

> <r_mmod_Solvation_Energy-OPLS-2005>
-456.598449707031

> <b_mmod_Minimization_Converged-OPLS-2005>
0

> <r_mmod_RMS_Derivative-OPLS-2005>
2.99740099906921

$$$$
95
                    3D
 Structure written by MMmdl.
170178  0  0  1  0            999 V2000
  -30.7338  -14.4638   20.6092 C   0  0  0  0  0  0
  -30.4108  -12.3151   19.4254 C   0  0  0  0  0  0
  -29.4853  -12.4701   18.2010 C   0  0  0  0  0  0
  -28.0145  -12.2904   18.6257 C   0  0  0  0  0  0
  -27.6440  -13.1713   19.8434 C   0  0  2  0  0  0
  -28.6843  -13.0256   20.9801 C   0  0  0  0  0  0
  -25.2567  -13.8038   20.5630 C   0  0  0  0  0  0
  -24.1809  -13.0376   20.9236 C   0  0  0  0  0  0
  -24.6341  -11.6846   20.8817 C   0  0  0  0  0  0
  -23.9021  -10.4235   21.0475 C   0  0  0  0  0  0
  -24.3576   -9.4136   21.9222 C   0  0  0  0  0  0
  -23.6254   -8.2173   22.0768 C   0  0  0  0  0  0
  -22.4231   -8.0250   21.3569 C   0  0  0  0  0  0
  -21.9874   -9.0233   20.4669 C   0  0  0  0  0  0
  -22.7212  -10.2100   20.3093 C   0  0  0  0  0  0
  -21.6821   -6.0727   22.5292 C   0  0  0  0  0  0
  -21.3984   -6.5636   23.8225 C   0  0  0  0  0  0
  -21.3653   -5.6796   24.9190 C   0  0  0  0  0  0
  -21.6054   -4.3067   24.7232 C   0  0  0  0  0  0
  -21.8823   -3.8153   23.4351 C   0  0  0  0  0  0
  -21.9176   -4.6961   22.3408 C   0  0  0  0  0  0
  -22.7842  -13.5209   21.1919 C   0  0  0  0  0  0
  -22.1668   -4.2145   21.0990 F   0  0  0  0  0  0
  -21.5626   -3.4546   25.7738 F   0  0  0  0  0  0
  -30.0119  -13.3241   20.4235 N   0  0  0  0  0  0
  -26.2924  -12.9133   20.3215 N   0  0  0  0  0  0
  -25.9232  -11.6359   20.5802 N   0  0  0  0  0  0
  -22.0504  -12.8163   22.0462 N   0  0  0  0  0  0
  -25.4296  -15.1733   20.3922 N   0  0  0  0  0  0
  -31.8867  -14.5732   20.1801 O   0  0  0  0  0  0
  -21.6626   -6.8840   21.4237 O   0  0  0  0  0  0
  -22.3519  -14.5524   20.6793 O   0  0  0  0  0  0
  -24.6095  -31.8707   23.2138 C   0  0  0  0  0  0
  -25.9003  -32.4840   23.8421 C   0  0  1  0  0  0
  -27.2301  -27.4742   20.0934 C   0  0  0  0  0  0
  -25.5885  -33.8648   24.2363 N   0  0  0  0  0  0
  -23.3953  -30.4974   21.5506 C   0  0  2  0  0  0
  -24.8439  -28.9691   20.1122 C   0  0  0  0  0  0
  -22.7361  -29.4687   22.4976 C   0  0  0  0  0  0
  -18.0265  -28.1348   22.8471 C   0  0  0  0  0  0
  -24.1477  -36.7331   23.2635 C   0  0  0  0  0  0
  -25.9196  -30.8529   21.3597 C   0  0  0  0  0  0
  -26.0005  -29.4908   20.7056 C   0  0  0  0  0  0
  -27.2003  -28.7485   20.6990 C   0  0  0  0  0  0
  -26.0651  -26.9628   19.4826 C   0  0  0  0  0  0
  -24.8698  -27.7047   19.4956 C   0  0  0  0  0  0
  -23.6041  -29.8306   20.1631 C   0  0  0  0  0  0
  -25.4100  -36.3141   24.0339 C   0  0  1  0  0  0
  -20.5847  -28.3631   23.1301 C   0  0  2  0  0  0
  -20.6755  -26.9379   22.5359 C   0  0  0  0  0  0
  -19.5711  -26.6358   21.5173 C   0  0  0  0  0  0
  -18.1921  -26.7883   22.1618 C   0  0  0  0  0  0
  -19.1510  -28.8807   23.2889 C   0  0  0  0  0  0
  -18.9443  -30.1403   23.8900 C   0  0  0  0  0  0
  -17.6437  -30.6554   24.0547 C   0  0  0  0  0  0
  -25.9026  -34.9495   23.5149 C   0  0  0  0  0  0
  -16.5344  -29.9050   23.6298 C   0  0  0  0  0  0
  -16.7261  -28.6465   23.0322 C   0  0  0  0  0  0
  -26.4467  -31.6604   25.0728 C   0  0  0  0  0  0
  -25.3735  -31.3695   26.1470 C   0  0  0  0  0  0
  -27.0295  -30.3057   24.6069 C   0  0  0  0  0  0
  -27.6060  -32.4309   25.7487 C   0  0  0  0  0  0
  -27.5590  -37.1830   24.8473 C   0  0  0  0  0  0
  -21.4089  -29.3030   22.3732 N   0  0  0  0  0  0
  -26.4308  -37.3818   23.9409 N   0  0  0  0  0  0
  -24.6598  -31.0855   22.1015 N   0  0  0  0  0  0
  -23.4152  -28.8243   23.3002 O   0  0  0  0  0  0
  -28.3639  -26.7080   20.1396 O   0  0  0  0  0  0
  -26.5582  -34.8943   22.4706 O   0  0  0  0  0  0
  -23.5302  -32.1433   23.7556 O   0  0  0  0  0  0
  -29.9078  -17.5284   22.3510 C   0  0  0  0  0  0
  -30.6366  -16.2184   22.2045 C   0  0  0  0  0  0
  -28.8689  -17.5943   21.2718 C   0  0  0  0  0  0
  -29.0354  -16.2932   20.4891 C   0  0  2  0  0  0
  -28.0517  -17.2343   18.3006 C   0  0  0  0  0  0
  -30.5619  -17.2198   18.5745 C   0  0  0  0  0  0
  -28.6554  -22.9354   22.6987 C   0  0  0  0  0  0
  -28.9086  -21.7532   21.7448 C   0  0  0  0  0  0
  -29.6835  -24.0817   22.5883 C   0  0  0  0  0  0
  -29.9397  -20.7234   22.2467 C   0  0  0  0  0  0
  -29.5884  -24.9439   21.3079 C   0  0  0  0  0  0
  -29.3494  -19.6733   23.2196 C   0  0  0  0  0  0
  -28.2922  -25.7609   21.2037 C   0  0  0  0  0  0
  -29.2426  -16.5139   18.9542 C   0  0  0  0  0  0
  -30.1421  -18.4451   23.2215 N   0  0  0  0  0  0
  -30.0990  -15.5250   21.1746 N   0  0  0  0  0  0
  -31.5652  -15.8685   22.9513 O   0  0  0  0  0  0
  -31.4529  -12.4079   19.1204 H   0  0  0  0  0  0
  -30.3195  -11.3151   19.8512 H   0  0  0  0  0  0
  -29.7472  -11.7429   17.4299 H   0  0  0  0  0  0
  -29.6255  -13.4512   17.7481 H   0  0  0  0  0  0
  -27.8729  -11.2379   18.8813 H   0  0  0  0  0  0
  -27.3475  -12.4979   17.7883 H   0  0  0  0  0  0
  -27.6491  -14.1776   19.4430 H   0  0  0  0  0  0
  -28.6744  -12.0079   21.3730 H   0  0  0  0  0  0
  -28.4290  -13.6690   21.8234 H   0  0  0  0  0  0
  -25.2703   -9.5599   22.4818 H   0  0  0  0  0  0
  -23.9994   -7.4514   22.7428 H   0  0  0  0  0  0
  -21.0834   -8.8748   19.8919 H   0  0  0  0  0  0
  -22.3705  -10.9659   19.6222 H   0  0  0  0  0  0
  -21.1982   -7.6149   23.9704 H   0  0  0  0  0  0
  -21.1488   -6.0563   25.9099 H   0  0  0  0  0  0
  -22.0608   -2.7612   23.2881 H   0  0  0  0  0  0
  -22.4118  -11.9792   22.4787 H   0  0  0  0  0  0
  -21.1162  -13.1209   22.2767 H   0  0  0  0  0  0
  -24.6558  -15.8231   20.4711 H   0  0  0  0  0  0
  -26.2645  -15.5912   20.0056 H   0  0  0  0  0  0
  -26.7089  -32.5586   23.1209 H   0  0  0  0  0  0
  -25.0041  -33.9837   25.0512 H   0  0  0  0  0  0
  -22.6826  -31.3132   21.4149 H   0  0  0  0  0  0
  -23.3740  -35.9671   23.3323 H   0  0  0  0  0  0
  -24.3580  -36.8922   22.2055 H   0  0  0  0  0  0
  -23.7245  -37.6545   23.6628 H   0  0  0  0  0  0
  -26.0241  -31.6206   20.5910 H   0  0  0  0  0  0
  -26.8118  -30.9077   21.9723 H   0  0  0  0  0  0
  -28.0924  -29.1394   21.1736 H   0  0  0  0  0  0
  -26.0840  -25.9868   19.0160 H   0  0  0  0  0  0
  -23.9798  -27.3009   19.0330 H   0  0  0  0  0  0
  -23.7099  -30.6107   19.4082 H   0  0  0  0  0  0
  -22.7279  -29.2524   19.8634 H   0  0  0  0  0  0
  -25.1284  -36.2014   25.0839 H   0  0  0  0  0  0
  -20.9952  -28.3214   24.1408 H   0  0  0  0  0  0
  -20.5681  -26.2229   23.3532 H   0  0  0  0  0  0
  -21.6610  -26.7428   22.1124 H   0  0  0  0  0  0
  -19.6854  -25.6272   21.1222 H   0  0  0  0  0  0
  -19.6612  -27.3161   20.6680 H   0  0  0  0  0  0
  -17.4193  -26.6591   21.4033 H   0  0  0  0  0  0
  -18.0359  -25.9992   22.8995 H   0  0  0  0  0  0
  -19.7920  -30.7210   24.2288 H   0  0  0  0  0  0
  -17.4993  -31.6238   24.5134 H   0  0  0  0  0  0
  -15.5349  -30.2982   23.7555 H   0  0  0  0  0  0
  -15.8643  -28.0815   22.7019 H   0  0  0  0  0  0
  -24.5884  -30.7089   25.7788 H   0  0  0  0  0  0
  -24.8951  -32.2847   26.4959 H   0  0  0  0  0  0
  -25.8067  -30.8812   27.0199 H   0  0  0  0  0  0
  -26.2843  -29.6833   24.1099 H   0  0  0  0  0  0
  -27.4068  -29.7284   25.4520 H   0  0  0  0  0  0
  -27.8669  -30.4413   23.9218 H   0  0  0  0  0  0
  -27.2684  -33.3574   26.2132 H   0  0  0  0  0  0
  -28.3812  -32.6915   25.0276 H   0  0  0  0  0  0
  -28.0763  -31.8376   26.5334 H   0  0  0  0  0  0
  -28.2630  -38.0104   24.7497 H   0  0  0  0  0  0
  -28.1054  -36.2644   24.6306 H   0  0  0  0  0  0
  -27.2306  -37.1497   25.8875 H   0  0  0  0  0  0
  -20.9204  -29.8776   21.7011 H   0  0  0  0  0  0
  -26.0189  -38.2904   24.1381 H   0  0  0  0  0  0
  -29.0141  -18.4791   20.6539 H   0  0  0  0  0  0
  -27.8726  -17.6460   21.7147 H   0  0  0  0  0  0
  -28.1012  -15.7668   20.6552 H   0  0  0  0  0  0
  -28.1652  -17.2599   17.2159 H   0  0  0  0  0  0
  -27.9561  -18.2676   18.6296 H   0  0  0  0  0  0
  -27.1123  -16.7238   18.5096 H   0  0  0  0  0  0
  -31.4441  -16.7004   18.9384 H   0  0  0  0  0  0
  -30.6050  -18.2401   18.9514 H   0  0  0  0  0  0
  -30.6597  -17.2761   17.4891 H   0  0  0  0  0  0
  -28.6326  -22.5702   23.7254 H   0  0  0  0  0  0
  -27.6551  -23.3288   22.5168 H   0  0  0  0  0  0
  -29.2243  -22.1357   20.7748 H   0  0  0  0  0  0
  -27.9668  -21.2364   21.5460 H   0  0  0  0  0  0
  -30.6910  -23.6735   22.6711 H   0  0  0  0  0  0
  -29.5669  -24.7283   23.4591 H   0  0  0  0  0  0
  -30.8015  -21.2173   22.6955 H   0  0  0  0  0  0
  -30.3331  -20.2182   21.3669 H   0  0  0  0  0  0
  -29.7042  -24.3285   20.4167 H   0  0  0  0  0  0
  -30.4295  -25.6361   21.2999 H   0  0  0  0  0  0
  -28.3025  -19.4753   22.9887 H   0  0  0  0  0  0
  -29.3190  -20.0923   24.2282 H   0  0  0  0  0  0
  -28.1027  -26.2773   22.1492 H   0  0  0  0  0  0
  -27.4473  -25.0902   21.0417 H   0  0  0  0  0  0
  -29.2721  -15.5338   18.4822 H   0  0  0  0  0  0
  1 25  1  0  0  0
  1 30  2  0  0  0
  1 86  1  0  0  0
  2  3  1  0  0  0
  2 25  1  0  0  0
  2 88  1  0  0  0
  2 89  1  0  0  0
  3  4  1  0  0  0
  3 90  1  0  0  0
  3 91  1  0  0  0
  4  5  1  0  0  0
  4 92  1  0  0  0
  4 93  1  0  0  0
  5  6  1  0  0  0
  5 26  1  0  0  0
  5 94  1  0  0  0
  6 25  1  0  0  0
  6 95  1  0  0  0
  6 96  1  0  0  0
  7  8  2  0  0  0
  7 26  1  0  0  0
  7 29  1  0  0  0
  8  9  1  0  0  0
  8 22  1  0  0  0
  9 10  1  0  0  0
  9 27  2  0  0  0
 10 11  2  0  0  0
 10 15  1  0  0  0
 11 12  1  0  0  0
 11 97  1  0  0  0
 12 13  2  0  0  0
 12 98  1  0  0  0
 13 14  1  0  0  0
 13 31  1  0  0  0
 14 15  2  0  0  0
 14 99  1  0  0  0
 15100  1  0  0  0
 16 17  2  0  0  0
 16 21  1  0  0  0
 16 31  1  0  0  0
 17 18  1  0  0  0
 17101  1  0  0  0
 18 19  2  0  0  0
 18102  1  0  0  0
 19 20  1  0  0  0
 19 24  1  0  0  0
 20 21  2  0  0  0
 20103  1  0  0  0
 21 23  1  0  0  0
 22 28  1  0  0  0
 22 32  2  0  0  0
 26 27  1  0  0  0
 28104  1  0  0  0
 28105  1  0  0  0
 29106  1  0  0  0
 29107  1  0  0  0
 33 34  1  0  0  0
 33 66  1  0  0  0
 33 70  2  0  0  0
 34 36  1  0  0  0
 34 59  1  0  0  0
 34108  1  0  0  0
 35 44  2  0  0  0
 35 45  1  0  0  0
 35 68  1  0  0  0
 36 56  1  0  0  0
 36109  1  0  0  0
 37 39  1  0  0  0
 37 47  1  0  0  0
 37 66  1  0  0  0
 37110  1  0  0  0
 38 43  2  0  0  0
 38 46  1  0  0  0
 38 47  1  0  0  0
 39 64  1  0  0  0
 39 67  2  0  0  0
 40 52  1  0  0  0
 40 53  2  0  0  0
 40 58  1  0  0  0
 41111  1  0  0  0
 41112  1  0  0  0
 41113  1  0  0  0
 41 48  1  0  0  0
 42 43  1  0  0  0
 42 66  1  0  0  0
 42114  1  0  0  0
 42115  1  0  0  0
 43 44  1  0  0  0
 44116  1  0  0  0
 45 46  2  0  0  0
 45117  1  0  0  0
 46118  1  0  0  0
 47119  1  0  0  0
 47120  1  0  0  0
 48 56  1  0  0  0
 48 65  1  0  0  0
 48121  1  0  0  0
 49 50  1  0  0  0
 49 53  1  0  0  0
 49 64  1  0  0  0
 49122  1  0  0  0
 50 51  1  0  0  0
 50123  1  0  0  0
 50124  1  0  0  0
 51 52  1  0  0  0
 51125  1  0  0  0
 51126  1  0  0  0
 52127  1  0  0  0
 52128  1  0  0  0
 53 54  1  0  0  0
 54 55  2  0  0  0
 54129  1  0  0  0
 55 57  1  0  0  0
 55130  1  0  0  0
 56 69  2  0  0  0
 57 58  2  0  0  0
 57131  1  0  0  0
 58132  1  0  0  0
 59 60  1  0  0  0
 59 61  1  0  0  0
 59 62  1  0  0  0
 60133  1  0  0  0
 60134  1  0  0  0
 60135  1  0  0  0
 61136  1  0  0  0
 61137  1  0  0  0
 61138  1  0  0  0
 62139  1  0  0  0
 62140  1  0  0  0
 62141  1  0  0  0
 63 65  1  0  0  0
 63142  1  0  0  0
 63143  1  0  0  0
 63144  1  0  0  0
 64145  1  0  0  0
 65146  1  0  0  0
 68 83  1  0  0  0
 71 72  1  0  0  0
 71 73  1  0  0  0
 71 85  2  0  0  0
 72 86  1  0  0  0
 72 87  2  0  0  0
 73147  1  0  0  0
 73148  1  0  0  0
 73 74  1  0  0  0
 74 84  1  0  0  0
 74 86  1  0  0  0
 74149  1  0  0  0
 75150  1  0  0  0
 75151  1  0  0  0
 75152  1  0  0  0
 75 84  1  0  0  0
 76 84  1  0  0  0
 76153  1  0  0  0
 76154  1  0  0  0
 76155  1  0  0  0
 77 78  1  0  0  0
 77 79  1  0  0  0
 77156  1  0  0  0
 77157  1  0  0  0
 78 80  1  0  0  0
 78158  1  0  0  0
 78159  1  0  0  0
 79 81  1  0  0  0
 79160  1  0  0  0
 79161  1  0  0  0
 80 82  1  0  0  0
 80162  1  0  0  0
 80163  1  0  0  0
 81 83  1  0  0  0
 81164  1  0  0  0
 81165  1  0  0  0
 82 85  1  0  0  0
 82166  1  0  0  0
 82167  1  0  0  0
 83168  1  0  0  0
 83169  1  0  0  0
 84170  1  0  0  0
M  ISO  4   1 100  68 101  83 101  86 100
M  END
> <chiral flag>
0

> <version>
0

> <s_m_source_file>
/data/baiqing/PycharmProjects/Reinvent-master-3.2/result/LINK_invent/BTK/process_docking_weight1_custom_sum_contain_oxygen_bond_distance_aromatic_linkinvent_7_9_3/rearranged_h_0110.sdf

> <i_m_source_file_index>
95

> <r_mmod_Potential_Energy-OPLS-2005>
169.804351806641

> <r_mmod_Stretch_Energy-OPLS-2005>
38.2843399047852

> <r_mmod_Bend_Energy-OPLS-2005>
124.075691223145

> <r_mmod_Torsional_Energy-OPLS-2005>
348.549713134766

> <r_mmod_Improper_Torsional_Energy-OPLS-2005>
3.96591567993164

> <r_mmod_Van_der_Waal_Energy-OPLS-2005>
134.357116699219

> <r_mmod_Electrostatic_Energy-OPLS-2005>
-292.627227783203

> <r_mmod_Solvation_Energy-OPLS-2005>
-204.568511962891

> <b_mmod_Minimization_Converged-OPLS-2005>
0

> <r_mmod_RMS_Derivative-OPLS-2005>
4.71228408813477

$$$$
96
                    3D
 Structure written by MMmdl.
159167  0  0  1  0            999 V2000
  -30.5767  -14.7763   20.6264 C   0  0  0  0  0  0
  -30.4310  -12.5467   19.4917 C   0  0  0  0  0  0
  -29.5226  -12.5628   18.2521 C   0  0  0  0  0  0
  -28.0610  -12.3162   18.6730 C   0  0  0  0  0  0
  -27.6267  -13.2004   19.8959 C   0  0  2  0  0  0
  -28.6684  -13.1714   21.0526 C   0  0  0  0  0  0
  -25.2227  -13.7902   20.6132 C   0  0  0  0  0  0
  -24.1652  -12.9963   21.0187 C   0  0  0  0  0  0
  -24.6488  -11.6572   20.9298 C   0  0  0  0  0  0
  -23.9183  -10.4030   21.0806 C   0  0  0  0  0  0
  -24.3314   -9.4050   21.9982 C   0  0  0  0  0  0
  -23.5949   -8.2273   22.1664 C   0  0  0  0  0  0
  -22.4336   -7.9893   21.3835 C   0  0  0  0  0  0
  -22.0605   -8.9918   20.4514 C   0  0  0  0  0  0
  -22.7640  -10.1947   20.3106 C   0  0  0  0  0  0
  -21.6890   -6.0270   22.5426 C   0  0  0  0  0  0
  -21.4106   -6.5262   23.8323 C   0  0  0  0  0  0
  -21.3625   -5.6472   24.9306 C   0  0  0  0  0  0
  -21.6107   -4.2741   24.7493 C   0  0  0  0  0  0
  -21.8825   -3.7776   23.4668 C   0  0  0  0  0  0
  -21.9316   -4.6524   22.3686 C   0  0  0  0  0  0
  -22.7470  -13.3934   21.3465 C   0  0  0  0  0  0
  -22.1823   -4.1533   21.1328 F   0  0  0  0  0  0
  -21.5659   -3.4365   25.8122 F   0  0  0  0  0  0
  -29.9367  -13.5786   20.4709 N   0  0  0  0  0  0
  -26.2662  -12.9007   20.3225 N   0  0  0  0  0  0
  -25.9281  -11.6088   20.5865 N   0  0  0  0  0  0
  -22.0885  -12.6710   22.2697 N   0  0  0  0  0  0
  -25.4060  -15.1660   20.4168 N   0  0  0  0  0  0
  -31.6963  -14.8759   20.1045 O   0  0  0  0  0  0
  -21.6554   -6.8493   21.4304 O   0  0  0  0  0  0
  -22.2037  -14.2870   20.6829 O   0  0  0  0  0  0
  -24.6524  -31.8432   23.1782 C   0  0  0  0  0  0
  -25.9291  -32.4631   23.8156 C   0  0  1  0  0  0
  -27.0620  -27.0701   20.2400 C   0  0  0  0  0  0
  -25.6068  -33.8441   24.2130 N   0  0  0  0  0  0
  -23.4449  -30.4752   21.5326 C   0  0  2  0  0  0
  -24.8510  -28.8904   20.1015 C   0  0  0  0  0  0
  -22.7610  -29.4581   22.4887 C   0  0  0  0  0  0
  -18.0320  -28.1386   22.8501 C   0  0  0  0  0  0
  -24.1546  -36.7276   23.2633 C   0  0  0  0  0  0
  -25.9972  -30.6974   21.3685 C   0  0  0  0  0  0
  -26.0399  -29.3088   20.7175 C   0  0  0  0  0  0
  -27.1551  -28.4032   20.7775 C   0  0  0  0  0  0
  -25.8953  -26.7655   19.5139 C   0  0  0  0  0  0
  -24.8027  -27.6534   19.4442 C   0  0  0  0  0  0
  -23.6462  -29.8138   20.1446 C   0  0  0  0  0  0
  -25.4154  -36.2981   24.0297 C   0  0  1  0  0  0
  -20.5931  -28.3694   23.1268 C   0  0  2  0  0  0
  -20.6797  -26.9422   22.5385 C   0  0  0  0  0  0
  -19.5760  -26.6397   21.5213 C   0  0  0  0  0  0
  -18.1944  -26.7938   22.1658 C   0  0  0  0  0  0
  -19.1557  -28.8869   23.2890 C   0  0  0  0  0  0
  -18.9488  -30.1465   23.8902 C   0  0  0  0  0  0
  -17.6470  -30.6574   24.0560 C   0  0  0  0  0  0
  -25.9116  -34.9354   23.5000 C   0  0  0  0  0  0
  -16.5372  -29.9063   23.6307 C   0  0  0  0  0  0
  -16.7304  -28.6491   23.0347 C   0  0  0  0  0  0
  -26.4594  -31.6470   25.0620 C   0  0  0  0  0  0
  -25.3765  -31.3636   26.1329 C   0  0  0  0  0  0
  -27.0406  -30.2849   24.6118 C   0  0  0  0  0  0
  -27.6135  -32.4224   25.7426 C   0  0  0  0  0  0
  -27.5596  -37.1784   24.8462 C   0  0  0  0  0  0
  -21.4287  -29.3076   22.3653 N   0  0  0  0  0  0
  -26.4306  -37.3690   23.9402 N   0  0  0  0  0  0
  -24.7178  -31.0277   22.0805 N   0  0  0  0  0  0
  -23.4275  -28.8086   23.2974 O   0  0  0  0  0  0
  -28.0023  -26.0142   20.3986 O   0  0  0  0  0  0
  -26.5685  -34.8883   22.4586 O   0  0  0  0  0  0
  -23.5630  -32.1358   23.7069 O   0  0  0  0  0  0
  -27.2877  -18.7284   22.9170 C   0  0  0  0  0  0
  -28.6346  -18.0175   21.0564 C   0  0  0  0  0  0
  -27.8713  -19.0870   21.6609 C   0  0  0  0  0  0
  -27.5447  -17.4413   23.4844 C   0  0  0  0  0  0
  -28.8899  -16.7192   21.6636 C   0  0  0  0  0  0
  -25.6141  -16.4153   24.8997 C   0  0  0  0  0  0
  -26.9039  -18.2567   25.8983 C   0  0  0  0  0  0
  -27.4251  -23.1317   20.6699 C   0  0  0  0  0  0
  -27.6529  -24.7195   21.1759 C   0  0  0  0  0  0
  -27.5757  -21.7639   21.6150 C   0  0  0  0  0  0
  -27.0071  -17.0888   24.9085 C   0  0  0  0  0  0
  -28.3283  -16.4918   22.8782 N   0  0  0  0  0  0
  -30.0914  -15.9542   21.2325 N   0  0  0  0  0  0
  -27.7551  -20.3715   20.9903 O   0  0  0  0  0  0
  -31.4699  -12.7205   19.1690 H   0  0  0  0  0  0
  -30.4198  -11.5710   19.9681 H   0  0  0  0  0  0
  -29.8688  -11.7988   17.5467 H   0  0  0  0  0  0
  -29.6399  -13.5050   17.7150 H   0  0  0  0  0  0
  -27.9755  -11.2392   18.8862 H   0  0  0  0  0  0
  -27.4060  -12.5015   17.8114 H   0  0  0  0  0  0
  -27.6281  -14.2160   19.4892 H   0  0  0  0  0  0
  -28.7853  -12.1989   21.5261 H   0  0  0  0  0  0
  -28.4110  -13.8701   21.8533 H   0  0  0  0  0  0
  -25.1793   -9.6106   22.6197 H   0  0  0  0  0  0
  -23.9225   -7.5087   22.9261 H   0  0  0  0  0  0
  -21.2564   -8.7858   19.7581 H   0  0  0  0  0  0
  -22.3716  -10.9697   19.6773 H   0  0  0  0  0  0
  -21.1991   -7.5697   23.9945 H   0  0  0  0  0  0
  -21.1388   -6.0041   25.9224 H   0  0  0  0  0  0
  -22.0584   -2.7207   23.3505 H   0  0  0  0  0  0
  -22.5000  -11.8454   22.7216 H   0  0  0  0  0  0
  -21.1113  -12.7920   22.4816 H   0  0  0  0  0  0
  -24.7813  -15.9269   20.6277 H   0  0  0  0  0  0
  -26.1936  -15.5731   19.9376 H   0  0  0  0  0  0
  -26.7405  -32.5146   23.0890 H   0  0  0  0  0  0
  -25.0143  -33.9492   25.0237 H   0  0  0  0  0  0
  -22.7474  -31.3049   21.3899 H   0  0  0  0  0  0
  -23.3753  -35.9670   23.3231 H   0  0  0  0  0  0
  -24.3655  -36.8965   22.2065 H   0  0  0  0  0  0
  -23.7377  -37.6483   23.6704 H   0  0  0  0  0  0
  -26.1435  -31.4297   20.5733 H   0  0  0  0  0  0
  -26.8792  -30.7557   21.9934 H   0  0  0  0  0  0
  -28.0499  -28.6727   21.3229 H   0  0  0  0  0  0
  -25.7718  -25.7886   19.0585 H   0  0  0  0  0  0
  -23.8984  -27.3504   18.9448 H   0  0  0  0  0  0
  -23.7806  -30.5847   19.3825 H   0  0  0  0  0  0
  -22.7496  -29.2675   19.8440 H   0  0  0  0  0  0
  -25.1348  -36.1779   25.0780 H   0  0  0  0  0  0
  -21.0055  -28.3243   24.1388 H   0  0  0  0  0  0
  -20.5690  -26.2322   23.3599 H   0  0  0  0  0  0
  -21.6655  -26.7417   22.1176 H   0  0  0  0  0  0
  -19.6906  -25.6313   21.1231 H   0  0  0  0  0  0
  -19.6649  -27.3219   20.6747 H   0  0  0  0  0  0
  -17.4206  -26.6693   21.4064 H   0  0  0  0  0  0
  -18.0347  -26.0058   22.9039 H   0  0  0  0  0  0
  -19.7926  -30.7297   24.2296 H   0  0  0  0  0  0
  -17.4982  -31.6257   24.5182 H   0  0  0  0  0  0
  -15.5345  -30.2971   23.7600 H   0  0  0  0  0  0
  -15.8721  -28.0797   22.7068 H   0  0  0  0  0  0
  -24.5966  -30.6984   25.7608 H   0  0  0  0  0  0
  -24.8984  -32.2810   26.4737 H   0  0  0  0  0  0
  -25.8107  -30.8791   27.0080 H   0  0  0  0  0  0
  -26.2959  -29.6618   24.1150 H   0  0  0  0  0  0
  -27.4056  -29.7115   25.4642 H   0  0  0  0  0  0
  -27.8857  -30.4071   23.9352 H   0  0  0  0  0  0
  -27.2699  -33.3524   26.1955 H   0  0  0  0  0  0
  -28.3955  -32.6770   25.0259 H   0  0  0  0  0  0
  -28.0762  -31.8357   26.5357 H   0  0  0  0  0  0
  -28.2565  -38.0112   24.7476 H   0  0  0  0  0  0
  -28.1133  -36.2636   24.6314 H   0  0  0  0  0  0
  -27.2304  -37.1449   25.8854 H   0  0  0  0  0  0
  -20.9521  -29.8848   21.6885 H   0  0  0  0  0  0
  -26.0159  -38.2762   24.1340 H   0  0  0  0  0  0
  -26.6504  -19.4230   23.4635 H   0  0  0  0  0  0
  -29.0981  -18.2325   20.1049 H   0  0  0  0  0  0
  -25.6653  -15.5083   24.3150 H   0  0  0  0  0  0
  -24.8467  -17.0375   24.4665 H   0  0  0  0  0  0
  -25.2257  -16.1842   25.9055 H   0  0  0  0  0  0
  -27.7579  -18.9233   25.7550 H   0  0  0  0  0  0
  -26.9571  -17.9121   26.9279 H   0  0  0  0  0  0
  -25.9355  -18.7701   25.7981 H   0  0  0  0  0  0
  -28.1112  -23.0191   19.8438 H   0  0  0  0  0  0
  -26.4140  -23.0546   20.2677 H   0  0  0  0  0  0
  -28.5208  -24.6230   21.8301 H   0  0  0  0  0  0
  -26.8385  -24.9728   21.8581 H   0  0  0  0  0  0
  -26.7503  -21.7641   22.3424 H   0  0  0  0  0  0
  -28.4820  -21.8908   22.2026 H   0  0  0  0  0  0
  -27.6996  -16.3696   25.3395 H   0  0  0  0  0  0
  -30.8673  -16.5794   21.1803 H   0  0  0  0  0  0
  1 25  1  0  0  0
  1 30  2  0  0  0
  1 83  1  0  0  0
  2  3  1  0  0  0
  2 25  1  0  0  0
  2 85  1  0  0  0
  2 86  1  0  0  0
  3  4  1  0  0  0
  3 87  1  0  0  0
  3 88  1  0  0  0
  4  5  1  0  0  0
  4 89  1  0  0  0
  4 90  1  0  0  0
  5  6  1  0  0  0
  5 26  1  0  0  0
  5 91  1  0  0  0
  6 25  1  0  0  0
  6 92  1  0  0  0
  6 93  1  0  0  0
  7  8  2  0  0  0
  7 26  1  0  0  0
  7 29  1  0  0  0
  8  9  1  0  0  0
  8 22  1  0  0  0
  9 10  1  0  0  0
  9 27  2  0  0  0
 10 11  2  0  0  0
 10 15  1  0  0  0
 11 12  1  0  0  0
 11 94  1  0  0  0
 12 13  2  0  0  0
 12 95  1  0  0  0
 13 14  1  0  0  0
 13 31  1  0  0  0
 14 15  2  0  0  0
 14 96  1  0  0  0
 15 97  1  0  0  0
 16 17  2  0  0  0
 16 21  1  0  0  0
 16 31  1  0  0  0
 17 18  1  0  0  0
 17 98  1  0  0  0
 18 19  2  0  0  0
 18 99  1  0  0  0
 19 20  1  0  0  0
 19 24  1  0  0  0
 20 21  2  0  0  0
 20100  1  0  0  0
 21 23  1  0  0  0
 22 28  1  0  0  0
 22 32  2  0  0  0
 26 27  1  0  0  0
 28101  1  0  0  0
 28102  1  0  0  0
 29103  1  0  0  0
 29104  1  0  0  0
 33 34  1  0  0  0
 33 66  1  0  0  0
 33 70  2  0  0  0
 34 36  1  0  0  0
 34 59  1  0  0  0
 34105  1  0  0  0
 35 44  2  0  0  0
 35 45  1  0  0  0
 35 68  1  0  0  0
 36 56  1  0  0  0
 36106  1  0  0  0
 37 39  1  0  0  0
 37 47  1  0  0  0
 37 66  1  0  0  0
 37107  1  0  0  0
 38 43  2  0  0  0
 38 46  1  0  0  0
 38 47  1  0  0  0
 39 64  1  0  0  0
 39 67  2  0  0  0
 40 52  1  0  0  0
 40 53  2  0  0  0
 40 58  1  0  0  0
 41108  1  0  0  0
 41109  1  0  0  0
 41110  1  0  0  0
 41 48  1  0  0  0
 42 43  1  0  0  0
 42 66  1  0  0  0
 42111  1  0  0  0
 42112  1  0  0  0
 43 44  1  0  0  0
 44113  1  0  0  0
 45 46  2  0  0  0
 45114  1  0  0  0
 46115  1  0  0  0
 47116  1  0  0  0
 47117  1  0  0  0
 48 56  1  0  0  0
 48 65  1  0  0  0
 48118  1  0  0  0
 49 50  1  0  0  0
 49 53  1  0  0  0
 49 64  1  0  0  0
 49119  1  0  0  0
 50 51  1  0  0  0
 50120  1  0  0  0
 50121  1  0  0  0
 51 52  1  0  0  0
 51122  1  0  0  0
 51123  1  0  0  0
 52124  1  0  0  0
 52125  1  0  0  0
 53 54  1  0  0  0
 54 55  2  0  0  0
 54126  1  0  0  0
 55 57  1  0  0  0
 55127  1  0  0  0
 56 69  2  0  0  0
 57 58  2  0  0  0
 57128  1  0  0  0
 58129  1  0  0  0
 59 60  1  0  0  0
 59 61  1  0  0  0
 59 62  1  0  0  0
 60130  1  0  0  0
 60131  1  0  0  0
 60132  1  0  0  0
 61133  1  0  0  0
 61134  1  0  0  0
 61135  1  0  0  0
 62136  1  0  0  0
 62137  1  0  0  0
 62138  1  0  0  0
 63 65  1  0  0  0
 63139  1  0  0  0
 63140  1  0  0  0
 63141  1  0  0  0
 64142  1  0  0  0
 65143  1  0  0  0
 68 79  1  0  0  0
 71 73  2  0  0  0
 71 74  1  0  0  0
 71144  1  0  0  0
 72 73  1  0  0  0
 72 75  2  0  0  0
 72145  1  0  0  0
 73 84  1  0  0  0
 74 81  1  0  0  0
 74 82  2  0  0  0
 75 82  1  0  0  0
 75 83  1  0  0  0
 76146  1  0  0  0
 76147  1  0  0  0
 76148  1  0  0  0
 76 81  1  0  0  0
 77 81  1  0  0  0
 77149  1  0  0  0
 77150  1  0  0  0
 77151  1  0  0  0
 78 79  1  0  0  0
 78 80  1  0  0  0
 78152  1  0  0  0
 78153  1  0  0  0
 79154  1  0  0  0
 79155  1  0  0  0
 80 84  1  0  0  0
 80156  1  0  0  0
 80157  1  0  0  0
 81158  1  0  0  0
 83159  1  0  0  0
M  ISO  4   1 100  68 101  79 101  83 100
M  END
> <chiral flag>
0

> <version>
0

> <s_m_source_file>
/data/baiqing/PycharmProjects/Reinvent-master-3.2/result/LINK_invent/BTK/process_docking_weight1_custom_sum_contain_oxygen_bond_distance_aromatic_linkinvent_7_9_3/rearranged_h_0110.sdf

> <i_m_source_file_index>
96

> <r_mmod_Potential_Energy-OPLS-2005>
420.385925292969

> <r_mmod_Stretch_Energy-OPLS-2005>
212.441787719727

> <r_mmod_Bend_Energy-OPLS-2005>
346.663726806641

> <r_mmod_Torsional_Energy-OPLS-2005>
287.687530517578

> <r_mmod_Improper_Torsional_Energy-OPLS-2005>
10.6575222015381

> <r_mmod_Van_der_Waal_Energy-OPLS-2005>
120.799667358398

> <r_mmod_Electrostatic_Energy-OPLS-2005>
-584.566284179688

> <r_mmod_Solvation_Energy-OPLS-2005>
-209.810028076172

> <b_mmod_Minimization_Converged-OPLS-2005>
0

> <r_mmod_RMS_Derivative-OPLS-2005>
37.8153381347656

$$$$
97
                    3D
 Structure written by MMmdl.
150158  0  0  1  0            999 V2000
  -30.4284  -15.2980   20.3651 C   0  0  0  0  0  0
  -30.4378  -12.8331   19.5251 C   0  0  0  0  0  0
  -29.5365  -12.5829   18.2894 C   0  0  0  0  0  0
  -28.0872  -12.2990   18.7196 C   0  0  0  0  0  0
  -27.6098  -13.2780   19.8207 C   0  0  2  0  0  0
  -28.6428  -13.4686   20.9521 C   0  0  0  0  0  0
  -25.2382  -13.8253   20.5746 C   0  0  0  0  0  0
  -24.1739  -13.0438   20.9262 C   0  0  0  0  0  0
  -24.6401  -11.6936   20.8766 C   0  0  0  0  0  0
  -23.9097  -10.4295   21.0405 C   0  0  0  0  0  0
  -24.3639   -9.4207   21.9182 C   0  0  0  0  0  0
  -23.6307   -8.2245   22.0752 C   0  0  0  0  0  0
  -22.4288   -8.0285   21.3542 C   0  0  0  0  0  0
  -21.9931   -9.0261   20.4643 C   0  0  0  0  0  0
  -22.7268  -10.2137   20.3052 C   0  0  0  0  0  0
  -21.6857   -6.0739   22.5279 C   0  0  0  0  0  0
  -21.4018   -6.5641   23.8214 C   0  0  0  0  0  0
  -21.3660   -5.6792   24.9174 C   0  0  0  0  0  0
  -21.6044   -4.3055   24.7222 C   0  0  0  0  0  0
  -21.8819   -3.8148   23.4343 C   0  0  0  0  0  0
  -21.9195   -4.6967   22.3401 C   0  0  0  0  0  0
  -22.7756  -13.5188   21.1904 C   0  0  0  0  0  0
  -22.1661   -4.2152   21.0978 F   0  0  0  0  0  0
  -21.5627   -3.4537   25.7733 F   0  0  0  0  0  0
  -29.8686  -13.9854   20.3205 N   0  0  0  0  0  0
  -26.2812  -12.9531   20.3216 N   0  0  0  0  0  0
  -25.9338  -11.6634   20.5720 N   0  0  0  0  0  0
  -22.0413  -12.8173   22.0459 N   0  0  0  0  0  0
  -25.4010  -15.1988   20.4170 N   0  0  0  0  0  0
  -31.6524  -15.2910   20.1673 O   0  0  0  0  0  0
  -21.6645   -6.8886   21.4242 O   0  0  0  0  0  0
  -22.3435  -14.5488   20.6740 O   0  0  0  0  0  0
  -24.6650  -31.8212   23.1680 C   0  0  0  0  0  0
  -25.9322  -32.4576   23.8152 C   0  0  1  0  0  0
  -27.2207  -26.9059   20.1893 C   0  0  0  0  0  0
  -25.5980  -33.8391   24.2056 N   0  0  0  0  0  0
  -23.4810  -30.4316   21.5180 C   0  0  2  0  0  0
  -24.9347  -28.8127   20.1141 C   0  0  0  0  0  0
  -22.7679  -29.4431   22.4778 C   0  0  0  0  0  0
  -18.0327  -28.1411   22.8471 C   0  0  0  0  0  0
  -24.1494  -36.7202   23.2647 C   0  0  0  0  0  0
  -26.0514  -30.6213   21.4009 C   0  0  0  0  0  0
  -26.1198  -29.2081   20.7468 C   0  0  0  0  0  0
  -27.2571  -28.2776   20.7563 C   0  0  0  0  0  0
  -26.0052  -26.6673   19.5086 C   0  0  0  0  0  0
  -24.9044  -27.5634   19.4736 C   0  0  0  0  0  0
  -23.7220  -29.7435   20.1460 C   0  0  0  0  0  0
  -25.4136  -36.2959   24.0296 C   0  0  1  0  0  0
  -20.5953  -28.3759   23.1187 C   0  0  2  0  0  0
  -20.6803  -26.9439   22.5406 C   0  0  0  0  0  0
  -19.5775  -26.6379   21.5220 C   0  0  0  0  0  0
  -18.1957  -26.7945   22.1627 C   0  0  0  0  0  0
  -19.1589  -28.8907   23.2815 C   0  0  0  0  0  0
  -18.9496  -30.1497   23.8851 C   0  0  0  0  0  0
  -17.6487  -30.6600   24.0557 C   0  0  0  0  0  0
  -25.9104  -34.9345   23.4999 C   0  0  0  0  0  0
  -16.5378  -29.9087   23.6345 C   0  0  0  0  0  0
  -16.7308  -28.6507   23.0365 C   0  0  0  0  0  0
  -26.4561  -31.6530   25.0691 C   0  0  0  0  0  0
  -25.3680  -31.3789   26.1342 C   0  0  0  0  0  0
  -27.0465  -30.2896   24.6444 C   0  0  0  0  0  0
  -27.6044  -32.4349   25.7499 C   0  0  0  0  0  0
  -27.5573  -37.1754   24.8463 C   0  0  0  0  0  0
  -21.4347  -29.3041   22.3528 N   0  0  0  0  0  0
  -26.4276  -37.3701   23.9412 N   0  0  0  0  0  0
  -24.7542  -30.9857   22.0824 N   0  0  0  0  0  0
  -23.4216  -28.8008   23.3032 O   0  0  0  0  0  0
  -28.2223  -25.7923   20.2594 O   0  0  0  0  0  0
  -26.5720  -34.8886   22.4601 O   0  0  0  0  0  0
  -23.5714  -32.1188   23.6761 O   0  0  0  0  0  0
  -30.3920  -23.4834   20.4673 C   0  0  0  0  0  0
  -31.3464  -22.4510   20.5831 C   0  0  0  0  0  0
  -29.1538  -22.9138   20.3246 C   0  0  0  0  0  0
  -32.8308  -22.5792   20.7588 C   0  0  0  0  0  0
  -27.9456  -24.1524   20.1716 C   0  0  0  0  0  0
  -28.9521  -19.7558   20.3190 C   0  0  0  0  0  0
  -29.9721  -18.2395   20.3774 C   0  0  0  0  0  0
  -30.8113  -21.2547   20.5231 N   0  0  0  0  0  0
  -29.4686  -21.3526   20.3636 N   0  0  0  0  0  0
  -29.6669  -16.5810   20.4328 N   0  0  0  0  0  0
  -31.4541  -13.0434   19.1896 H   0  0  0  0  0  0
  -30.5144  -11.9344   20.1394 H   0  0  0  0  0  0
  -29.9237  -11.7537   17.6957 H   0  0  0  0  0  0
  -29.5589  -13.4610   17.6422 H   0  0  0  0  0  0
  -28.0511  -11.2775   19.1000 H   0  0  0  0  0  0
  -27.4180  -12.3296   17.8588 H   0  0  0  0  0  0
  -27.5198  -14.2403   19.3152 H   0  0  0  0  0  0
  -28.8202  -12.5399   21.4963 H   0  0  0  0  0  0
  -28.2765  -14.1921   21.6821 H   0  0  0  0  0  0
  -25.2780   -9.5682   22.4764 H   0  0  0  0  0  0
  -24.0010   -7.4638   22.7477 H   0  0  0  0  0  0
  -21.0860   -8.8789   19.8953 H   0  0  0  0  0  0
  -22.3727  -10.9677   19.6164 H   0  0  0  0  0  0
  -21.2014   -7.6149   23.9720 H   0  0  0  0  0  0
  -21.1481   -6.0519   25.9078 H   0  0  0  0  0  0
  -22.0598   -2.7610   23.2841 H   0  0  0  0  0  0
  -22.4042  -11.9843   22.4854 H   0  0  0  0  0  0
  -21.1024  -13.1182   22.2657 H   0  0  0  0  0  0
  -24.6285  -15.8472   20.5256 H   0  0  0  0  0  0
  -26.2379  -15.6390   20.0581 H   0  0  0  0  0  0
  -26.7395  -32.5107   23.0867 H   0  0  0  0  0  0
  -25.0066  -33.9463   25.0166 H   0  0  0  0  0  0
  -22.7954  -31.2636   21.3446 H   0  0  0  0  0  0
  -23.3775  -35.9513   23.3257 H   0  0  0  0  0  0
  -24.3577  -36.8906   22.2073 H   0  0  0  0  0  0
  -23.7228  -37.6364   23.6740 H   0  0  0  0  0  0
  -26.2339  -31.3607   20.6200 H   0  0  0  0  0  0
  -26.9107  -30.6796   22.0571 H   0  0  0  0  0  0
  -28.1547  -28.5810   21.2766 H   0  0  0  0  0  0
  -25.8716  -25.7144   19.0178 H   0  0  0  0  0  0
  -24.0046  -27.2544   18.9592 H   0  0  0  0  0  0
  -23.8792  -30.5098   19.3861 H   0  0  0  0  0  0
  -22.8310  -29.1987   19.8287 H   0  0  0  0  0  0
  -25.1334  -36.1748   25.0786 H   0  0  0  0  0  0
  -21.0041  -28.3368   24.1311 H   0  0  0  0  0  0
  -20.5691  -26.2377   23.3648 H   0  0  0  0  0  0
  -21.6664  -26.7418   22.1205 H   0  0  0  0  0  0
  -19.6933  -25.6277   21.1281 H   0  0  0  0  0  0
  -19.6710  -27.3164   20.6730 H   0  0  0  0  0  0
  -17.4226  -26.6693   21.4029 H   0  0  0  0  0  0
  -18.0347  -26.0099   22.9034 H   0  0  0  0  0  0
  -19.7968  -30.7330   24.2195 H   0  0  0  0  0  0
  -17.5036  -31.6275   24.5168 H   0  0  0  0  0  0
  -15.5375  -30.2971   23.7696 H   0  0  0  0  0  0
  -15.8709  -28.0808   22.7106 H   0  0  0  0  0  0
  -24.5876  -30.7127   25.7646 H   0  0  0  0  0  0
  -24.8854  -32.2994   26.4636 H   0  0  0  0  0  0
  -25.7902  -30.9037   27.0206 H   0  0  0  0  0  0
  -26.3138  -29.6562   24.1433 H   0  0  0  0  0  0
  -27.3970  -29.7273   25.5108 H   0  0  0  0  0  0
  -27.9088  -30.4072   23.9880 H   0  0  0  0  0  0
  -27.2604  -33.3695   26.1942 H   0  0  0  0  0  0
  -28.3924  -32.6841   25.0380 H   0  0  0  0  0  0
  -28.0637  -31.8568   26.5527 H   0  0  0  0  0  0
  -28.2553  -38.0084   24.7535 H   0  0  0  0  0  0
  -28.1103  -36.2611   24.6257 H   0  0  0  0  0  0
  -27.2294  -37.1355   25.8866 H   0  0  0  0  0  0
  -20.9607  -29.8714   21.6640 H   0  0  0  0  0  0
  -26.0120  -38.2755   24.1432 H   0  0  0  0  0  0
  -30.5918  -24.5463   20.4858 H   0  0  0  0  0  0
  -33.1583  -22.1270   21.6952 H   0  0  0  0  0  0
  -33.1392  -23.6245   20.7737 H   0  0  0  0  0  0
  -33.3695  -22.0901   19.9470 H   0  0  0  0  0  0
  -27.1787  -23.9449   20.9177 H   0  0  0  0  0  0
  -27.4475  -23.9870   19.2168 H   0  0  0  0  0  0
  -28.2359  -19.6700   21.1362 H   0  0  0  0  0  0
  -28.3400  -19.6787   19.4203 H   0  0  0  0  0  0
  -30.6202  -18.3902   21.2410 H   0  0  0  0  0  0
  -30.6523  -18.3377   19.5308 H   0  0  0  0  0  0
  -28.6810  -16.3912   20.5427 H   0  0  0  0  0  0
  1 25  1  0  0  0
  1 30  2  0  0  0
  1 80  1  0  0  0
  2  3  1  0  0  0
  2 25  1  0  0  0
  2 81  1  0  0  0
  2 82  1  0  0  0
  3  4  1  0  0  0
  3 83  1  0  0  0
  3 84  1  0  0  0
  4  5  1  0  0  0
  4 85  1  0  0  0
  4 86  1  0  0  0
  5  6  1  0  0  0
  5 26  1  0  0  0
  5 87  1  0  0  0
  6 25  1  0  0  0
  6 88  1  0  0  0
  6 89  1  0  0  0
  7  8  2  0  0  0
  7 26  1  0  0  0
  7 29  1  0  0  0
  8  9  1  0  0  0
  8 22  1  0  0  0
  9 10  1  0  0  0
  9 27  2  0  0  0
 10 11  2  0  0  0
 10 15  1  0  0  0
 11 12  1  0  0  0
 11 90  1  0  0  0
 12 13  2  0  0  0
 12 91  1  0  0  0
 13 14  1  0  0  0
 13 31  1  0  0  0
 14 15  2  0  0  0
 14 92  1  0  0  0
 15 93  1  0  0  0
 16 17  2  0  0  0
 16 21  1  0  0  0
 16 31  1  0  0  0
 17 18  1  0  0  0
 17 94  1  0  0  0
 18 19  2  0  0  0
 18 95  1  0  0  0
 19 20  1  0  0  0
 19 24  1  0  0  0
 20 21  2  0  0  0
 20 96  1  0  0  0
 21 23  1  0  0  0
 22 28  1  0  0  0
 22 32  2  0  0  0
 26 27  1  0  0  0
 28 97  1  0  0  0
 28 98  1  0  0  0
 29 99  1  0  0  0
 29100  1  0  0  0
 33 34  1  0  0  0
 33 66  1  0  0  0
 33 70  2  0  0  0
 34 36  1  0  0  0
 34 59  1  0  0  0
 34101  1  0  0  0
 35 44  2  0  0  0
 35 45  1  0  0  0
 35 68  1  0  0  0
 36 56  1  0  0  0
 36102  1  0  0  0
 37 39  1  0  0  0
 37 47  1  0  0  0
 37 66  1  0  0  0
 37103  1  0  0  0
 38 43  2  0  0  0
 38 46  1  0  0  0
 38 47  1  0  0  0
 39 64  1  0  0  0
 39 67  2  0  0  0
 40 52  1  0  0  0
 40 53  2  0  0  0
 40 58  1  0  0  0
 41104  1  0  0  0
 41105  1  0  0  0
 41106  1  0  0  0
 41 48  1  0  0  0
 42 43  1  0  0  0
 42 66  1  0  0  0
 42107  1  0  0  0
 42108  1  0  0  0
 43 44  1  0  0  0
 44109  1  0  0  0
 45 46  2  0  0  0
 45110  1  0  0  0
 46111  1  0  0  0
 47112  1  0  0  0
 47113  1  0  0  0
 48 56  1  0  0  0
 48 65  1  0  0  0
 48114  1  0  0  0
 49 50  1  0  0  0
 49 53  1  0  0  0
 49 64  1  0  0  0
 49115  1  0  0  0
 50 51  1  0  0  0
 50116  1  0  0  0
 50117  1  0  0  0
 51 52  1  0  0  0
 51118  1  0  0  0
 51119  1  0  0  0
 52120  1  0  0  0
 52121  1  0  0  0
 53 54  1  0  0  0
 54 55  2  0  0  0
 54122  1  0  0  0
 55 57  1  0  0  0
 55123  1  0  0  0
 56 69  2  0  0  0
 57 58  2  0  0  0
 57124  1  0  0  0
 58125  1  0  0  0
 59 60  1  0  0  0
 59 61  1  0  0  0
 59 62  1  0  0  0
 60126  1  0  0  0
 60127  1  0  0  0
 60128  1  0  0  0
 61129  1  0  0  0
 61130  1  0  0  0
 61131  1  0  0  0
 62132  1  0  0  0
 62133  1  0  0  0
 62134  1  0  0  0
 63 65  1  0  0  0
 63135  1  0  0  0
 63136  1  0  0  0
 63137  1  0  0  0
 64138  1  0  0  0
 65139  1  0  0  0
 68 75  1  0  0  0
 71 72  1  0  0  0
 71 73  2  0  0  0
 71140  1  0  0  0
 72 74  1  0  0  0
 72 78  2  0  0  0
 73 75  1  0  0  0
 73 79  1  0  0  0
 74141  1  0  0  0
 74142  1  0  0  0
 74143  1  0  0  0
 75144  1  0  0  0
 75145  1  0  0  0
 76 77  1  0  0  0
 76 79  1  0  0  0
 76146  1  0  0  0
 76147  1  0  0  0
 77 80  1  0  0  0
 77148  1  0  0  0
 77149  1  0  0  0
 78 79  1  0  0  0
 80150  1  0  0  0
M  ISO  4   1 100  68 101  75 101  80 100
M  END
> <chiral flag>
0

> <version>
0

> <s_m_source_file>
/data/baiqing/PycharmProjects/Reinvent-master-3.2/result/LINK_invent/BTK/process_docking_weight1_custom_sum_contain_oxygen_bond_distance_aromatic_linkinvent_7_9_3/rearranged_h_0110.sdf

> <i_m_source_file_index>
97

> <r_mmod_Potential_Energy-OPLS-2005>
1374.74353027344

> <r_mmod_Stretch_Energy-OPLS-2005>
668.852661132812

> <r_mmod_Bend_Energy-OPLS-2005>
499.949615478516

> <r_mmod_Torsional_Energy-OPLS-2005>
218.893356323242

> <r_mmod_Improper_Torsional_Energy-OPLS-2005>
3.8670756816864

> <r_mmod_Van_der_Waal_Energy-OPLS-2005>
105.31884765625

> <r_mmod_Electrostatic_Energy-OPLS-2005>
-381.370422363281

> <r_mmod_Solvation_Energy-OPLS-2005>
-232.654510498047

> <b_mmod_Minimization_Converged-OPLS-2005>
0

> <r_mmod_RMS_Derivative-OPLS-2005>
0.44806233048439

$$$$
98
                    3D
 Structure written by MMmdl.
166174  0  0  1  0            999 V2000
  -30.5905  -15.0270   20.3724 C   0  0  0  0  0  0
  -30.4407  -12.6238   19.5323 C   0  0  0  0  0  0
  -29.5288  -12.4672   18.2940 C   0  0  0  0  0  0
  -28.0648  -12.2775   18.7131 C   0  0  0  0  0  0
  -27.6328  -13.2639   19.8317 C   0  0  2  0  0  0
  -28.6800  -13.3672   20.9642 C   0  0  0  0  0  0
  -25.2498  -13.8188   20.5701 C   0  0  0  0  0  0
  -24.1836  -13.0439   20.9254 C   0  0  0  0  0  0
  -24.6438  -11.6921   20.8887 C   0  0  0  0  0  0
  -23.9088  -10.4313   21.0508 C   0  0  0  0  0  0
  -24.3649   -9.4200   21.9228 C   0  0  0  0  0  0
  -23.6371   -8.2228   22.0700 C   0  0  0  0  0  0
  -22.4346   -8.0240   21.3457 C   0  0  0  0  0  0
  -22.0002   -9.0249   20.4587 C   0  0  0  0  0  0
  -22.7312  -10.2131   20.3078 C   0  0  0  0  0  0
  -21.6843   -6.0748   22.5257 C   0  0  0  0  0  0
  -21.4005   -6.5650   23.8192 C   0  0  0  0  0  0
  -21.3677   -5.6816   24.9177 C   0  0  0  0  0  0
  -21.6042   -4.3084   24.7210 C   0  0  0  0  0  0
  -21.8857   -3.8164   23.4348 C   0  0  0  0  0  0
  -21.9212   -4.6981   22.3373 C   0  0  0  0  0  0
  -22.7846  -13.5150   21.2018 C   0  0  0  0  0  0
  -22.1669   -4.2152   21.0983 F   0  0  0  0  0  0
  -21.5667   -3.4578   25.7739 F   0  0  0  0  0  0
  -29.9427  -13.7841   20.3391 N   0  0  0  0  0  0
  -26.2979  -12.9473   20.3340 N   0  0  0  0  0  0
  -25.9394  -11.6616   20.5934 N   0  0  0  0  0  0
  -22.0483  -12.8109   22.0511 N   0  0  0  0  0  0
  -25.4333  -15.1916   20.4043 N   0  0  0  0  0  0
  -31.8148  -14.9889   20.2301 O   0  0  0  0  0  0
  -21.6626   -6.8892   21.4209 O   0  0  0  0  0  0
  -22.3536  -14.5489   20.6936 O   0  0  0  0  0  0
  -24.6483  -31.8391   23.1957 C   0  0  0  0  0  0
  -25.9241  -32.4639   23.8364 C   0  0  1  0  0  0
  -27.2054  -27.1108   20.1942 C   0  0  0  0  0  0
  -25.6017  -33.8461   24.2259 N   0  0  0  0  0  0
  -23.4496  -30.4724   21.5305 C   0  0  2  0  0  0
  -24.8998  -28.8861   20.1192 C   0  0  0  0  0  0
  -22.7559  -29.4551   22.4763 C   0  0  0  0  0  0
  -18.0328  -28.1362   22.8501 C   0  0  0  0  0  0
  -24.1509  -36.7141   23.2672 C   0  0  0  0  0  0
  -26.0074  -30.7146   21.3964 C   0  0  0  0  0  0
  -26.0803  -29.3259   20.7335 C   0  0  0  0  0  0
  -27.2419  -28.4611   20.7409 C   0  0  0  0  0  0
  -26.0011  -26.7736   19.5445 C   0  0  0  0  0  0
  -24.8723  -27.6212   19.5102 C   0  0  0  0  0  0
  -23.6844  -29.8077   20.1509 C   0  0  0  0  0  0
  -25.4155  -36.2968   24.0345 C   0  0  1  0  0  0
  -20.5954  -28.3719   23.1180 C   0  0  2  0  0  0
  -20.6785  -26.9414   22.5374 C   0  0  0  0  0  0
  -19.5743  -26.6362   21.5201 C   0  0  0  0  0  0
  -18.1948  -26.7906   22.1655 C   0  0  0  0  0  0
  -19.1592  -28.8860   23.2858 C   0  0  0  0  0  0
  -18.9516  -30.1454   23.8879 C   0  0  0  0  0  0
  -17.6509  -30.6580   24.0559 C   0  0  0  0  0  0
  -25.9092  -34.9354   23.5100 C   0  0  0  0  0  0
  -16.5402  -29.9065   23.6324 C   0  0  0  0  0  0
  -16.7313  -28.6475   23.0369 C   0  0  0  0  0  0
  -26.4569  -31.6548   25.0852 C   0  0  0  0  0  0
  -25.3797  -31.3753   26.1607 C   0  0  0  0  0  0
  -27.0494  -30.2933   24.6510 C   0  0  0  0  0  0
  -27.6016  -32.4380   25.7702 C   0  0  0  0  0  0
  -27.5588  -37.1743   24.8503 C   0  0  0  0  0  0
  -21.4251  -29.3061   22.3547 N   0  0  0  0  0  0
  -26.4317  -37.3674   23.9423 N   0  0  0  0  0  0
  -24.7200  -31.0319   22.0938 N   0  0  0  0  0  0
  -23.4235  -28.8063   23.2867 O   0  0  0  0  0  0
  -28.2482  -26.1092   20.2193 O   0  0  0  0  0  0
  -26.5642  -34.8841   22.4652 O   0  0  0  0  0  0
  -23.5596  -32.1241   23.7212 O   0  0  0  0  0  0
  -29.4656  -18.5634   17.6792 C   0  0  0  0  0  0
  -28.8554  -19.2925   18.6334 C   0  0  0  0  0  0
  -30.2649  -17.5454   18.2871 C   0  0  0  0  0  0
  -29.8532  -17.4979   19.6316 C   0  0  0  0  0  0
  -27.5868  -23.0035   18.8831 C   0  0  0  0  0  0
  -31.3095  -15.3850   17.1469 C   0  0  0  0  0  0
  -32.7403  -17.3100   18.1315 C   0  0  0  0  0  0
  -31.4656  -17.5093   16.0292 C   0  0  0  0  0  0
  -28.4297  -21.5783   20.8901 C   0  0  0  0  0  0
  -29.0200  -19.9336   21.0241 C   0  0  0  0  0  0
  -28.0419  -24.6490   20.7662 C   0  0  0  0  0  0
  -28.5151  -23.1354   20.1219 C   0  0  2  0  0  0
  -31.4125  -16.8972   17.4570 C   0  0  0  0  0  0
  -29.2786  -18.8819   19.8751 N   0  0  0  0  0  0
  -29.9109  -16.2968   20.4534 N   0  0  0  0  0  0
  -31.4819  -12.7634   19.2287 H   0  0  0  0  0  0
  -30.4369  -11.7140   20.1321 H   0  0  0  0  0  0
  -29.5889  -13.3562   17.6740 H   0  0  0  0  0  0
  -29.8711  -11.6326   17.6744 H   0  0  0  0  0  0
  -27.9659  -11.2537   19.0721 H   0  0  0  0  0  0
  -27.4053  -12.3445   17.8501 H   0  0  0  0  0  0
  -27.5736  -14.2503   19.3622 H   0  0  0  0  0  0
  -28.3765  -14.0895   21.7236 H   0  0  0  0  0  0
  -28.7853  -12.4084   21.4800 H   0  0  0  0  0  0
  -25.2826   -9.5631   22.4774 H   0  0  0  0  0  0
  -24.0036   -7.4585   22.7400 H   0  0  0  0  0  0
  -21.0921   -8.8863   19.8869 H   0  0  0  0  0  0
  -22.3878  -10.9687   19.6173 H   0  0  0  0  0  0
  -21.1945   -7.6154   23.9717 H   0  0  0  0  0  0
  -21.1459   -6.0520   25.9080 H   0  0  0  0  0  0
  -22.0634   -2.7610   23.2853 H   0  0  0  0  0  0
  -22.4077  -11.9669   22.4796 H   0  0  0  0  0  0
  -21.1074  -13.1087   22.2694 H   0  0  0  0  0  0
  -26.3325  -15.6125   20.2235 H   0  0  0  0  0  0
  -24.6935  -15.8666   20.5361 H   0  0  0  0  0  0
  -26.7325  -32.5226   23.1127 H   0  0  0  0  0  0
  -25.0344  -33.9554   25.0546 H   0  0  0  0  0  0
  -22.7497  -31.3005   21.3753 H   0  0  0  0  0  0
  -23.3824  -35.9414   23.3334 H   0  0  0  0  0  0
  -24.3613  -36.8764   22.2081 H   0  0  0  0  0  0
  -23.7205  -37.6314   23.6696 H   0  0  0  0  0  0
  -26.1945  -31.4792   20.6399 H   0  0  0  0  0  0
  -26.8642  -30.7422   22.0579 H   0  0  0  0  0  0
  -28.1465  -28.8117   21.2185 H   0  0  0  0  0  0
  -25.9203  -25.8027   19.0756 H   0  0  0  0  0  0
  -23.9655  -27.2732   19.0397 H   0  0  0  0  0  0
  -23.8510  -30.5871   19.4087 H   0  0  0  0  0  0
  -22.7907  -29.2775   19.8193 H   0  0  0  0  0  0
  -25.1353  -36.1800   25.0826 H   0  0  0  0  0  0
  -21.0093  -28.3320   24.1285 H   0  0  0  0  0  0
  -20.5613  -26.2349   23.3617 H   0  0  0  0  0  0
  -21.6650  -26.7335   22.1216 H   0  0  0  0  0  0
  -19.6885  -25.6254   21.1259 H   0  0  0  0  0  0
  -19.6661  -27.3145   20.6707 H   0  0  0  0  0  0
  -17.4190  -26.6680   21.4075 H   0  0  0  0  0  0
  -18.0367  -26.0037   22.9034 H   0  0  0  0  0  0
  -19.8000  -30.7284   24.2228 H   0  0  0  0  0  0
  -17.5065  -31.6256   24.5163 H   0  0  0  0  0  0
  -15.5394  -30.2969   23.7610 H   0  0  0  0  0  0
  -15.8730  -28.0763   22.7071 H   0  0  0  0  0  0
  -24.5955  -30.7071   25.8039 H   0  0  0  0  0  0
  -24.9070  -32.2934   26.5049 H   0  0  0  0  0  0
  -25.8183  -30.8993   27.0391 H   0  0  0  0  0  0
  -26.3071  -29.6499   24.1758 H   0  0  0  0  0  0
  -27.4311  -29.7422   25.5121 H   0  0  0  0  0  0
  -27.8902  -30.4164   23.9696 H   0  0  0  0  0  0
  -27.2452  -33.3619   26.2294 H   0  0  0  0  0  0
  -28.3862  -32.7071   25.0612 H   0  0  0  0  0  0
  -28.0645  -31.8567   26.5688 H   0  0  0  0  0  0
  -28.2605  -38.0038   24.7544 H   0  0  0  0  0  0
  -28.1097  -36.2569   24.6371 H   0  0  0  0  0  0
  -27.2302  -37.1401   25.8908 H   0  0  0  0  0  0
  -20.9409  -29.8859   21.6849 H   0  0  0  0  0  0
  -26.0187  -38.2749   24.1410 H   0  0  0  0  0  0
  -29.4132  -18.8713   16.6455 H   0  0  0  0  0  0
  -28.2397  -20.1687   18.5046 H   0  0  0  0  0  0
  -28.0656  -22.4757   18.0565 H   0  0  0  0  0  0
  -27.2651  -23.9660   18.4898 H   0  0  0  0  0  0
  -26.6731  -22.4599   19.1457 H   0  0  0  0  0  0
  -31.4245  -14.7159   17.9715 H   0  0  0  0  0  0
  -32.1188  -15.0712   16.4839 H   0  0  0  0  0  0
  -30.3731  -15.1404   16.6428 H   0  0  0  0  0  0
  -32.6865  -17.2209   19.2231 H   0  0  0  0  0  0
  -32.9557  -18.3624   17.9031 H   0  0  0  0  0  0
  -33.5875  -16.7224   17.7666 H   0  0  0  0  0  0
  -30.5848  -17.2312   15.4521 H   0  0  0  0  0  0
  -32.3321  -17.1552   15.4678 H   0  0  0  0  0  0
  -31.5207  -18.5959   16.0251 H   0  0  0  0  0  0
  -28.8125  -21.3554   19.9253 H   0  0  0  0  0  0
  -27.3575  -21.4287   21.0110 H   0  0  0  0  0  0
  -29.9157  -19.9073   21.6484 H   0  0  0  0  0  0
  -28.2680  -19.4292   21.6341 H   0  0  0  0  0  0
  -28.5385  -24.6909   21.7332 H   0  0  0  0  0  0
  -26.9844  -24.5614   21.0114 H   0  0  0  0  0  0
  -29.5368  -23.2908   19.7629 H   0  0  0  0  0  0
  -29.1352  -16.2519   21.0991 H   0  0  0  0  0  0
  1 25  1  0  0  0
  1 30  2  0  0  0
  1 85  1  0  0  0
  2  3  1  0  0  0
  2 25  1  0  0  0
  2 86  1  0  0  0
  2 87  1  0  0  0
  3  4  1  0  0  0
  3 88  1  0  0  0
  3 89  1  0  0  0
  4  5  1  0  0  0
  4 90  1  0  0  0
  4 91  1  0  0  0
  5  6  1  0  0  0
  5 26  1  0  0  0
  5 92  1  0  0  0
  6 25  1  0  0  0
  6 93  1  0  0  0
  6 94  1  0  0  0
  7  8  2  0  0  0
  7 26  1  0  0  0
  7 29  1  0  0  0
  8  9  1  0  0  0
  8 22  1  0  0  0
  9 10  1  0  0  0
  9 27  2  0  0  0
 10 11  2  0  0  0
 10 15  1  0  0  0
 11 12  1  0  0  0
 11 95  1  0  0  0
 12 13  2  0  0  0
 12 96  1  0  0  0
 13 14  1  0  0  0
 13 31  1  0  0  0
 14 15  2  0  0  0
 14 97  1  0  0  0
 15 98  1  0  0  0
 16 17  2  0  0  0
 16 21  1  0  0  0
 16 31  1  0  0  0
 17 18  1  0  0  0
 17 99  1  0  0  0
 18 19  2  0  0  0
 18100  1  0  0  0
 19 20  1  0  0  0
 19 24  1  0  0  0
 20 21  2  0  0  0
 20101  1  0  0  0
 21 23  1  0  0  0
 22 28  1  0  0  0
 22 32  2  0  0  0
 26 27  1  0  0  0
 28102  1  0  0  0
 28103  1  0  0  0
 29104  1  0  0  0
 29105  1  0  0  0
 33 34  1  0  0  0
 33 66  1  0  0  0
 33 70  2  0  0  0
 34 36  1  0  0  0
 34 59  1  0  0  0
 34106  1  0  0  0
 35 44  2  0  0  0
 35 45  1  0  0  0
 35 68  1  0  0  0
 36 56  1  0  0  0
 36107  1  0  0  0
 37 39  1  0  0  0
 37 47  1  0  0  0
 37 66  1  0  0  0
 37108  1  0  0  0
 38 43  2  0  0  0
 38 46  1  0  0  0
 38 47  1  0  0  0
 39 64  1  0  0  0
 39 67  2  0  0  0
 40 52  1  0  0  0
 40 53  2  0  0  0
 40 58  1  0  0  0
 41109  1  0  0  0
 41110  1  0  0  0
 41111  1  0  0  0
 41 48  1  0  0  0
 42 43  1  0  0  0
 42 66  1  0  0  0
 42112  1  0  0  0
 42113  1  0  0  0
 43 44  1  0  0  0
 44114  1  0  0  0
 45 46  2  0  0  0
 45115  1  0  0  0
 46116  1  0  0  0
 47117  1  0  0  0
 47118  1  0  0  0
 48 56  1  0  0  0
 48 65  1  0  0  0
 48119  1  0  0  0
 49 50  1  0  0  0
 49 53  1  0  0  0
 49 64  1  0  0  0
 49120  1  0  0  0
 50 51  1  0  0  0
 50121  1  0  0  0
 50122  1  0  0  0
 51 52  1  0  0  0
 51123  1  0  0  0
 51124  1  0  0  0
 52125  1  0  0  0
 52126  1  0  0  0
 53 54  1  0  0  0
 54 55  2  0  0  0
 54127  1  0  0  0
 55 57  1  0  0  0
 55128  1  0  0  0
 56 69  2  0  0  0
 57 58  2  0  0  0
 57129  1  0  0  0
 58130  1  0  0  0
 59 60  1  0  0  0
 59 61  1  0  0  0
 59 62  1  0  0  0
 60131  1  0  0  0
 60132  1  0  0  0
 60133  1  0  0  0
 61134  1  0  0  0
 61135  1  0  0  0
 61136  1  0  0  0
 62137  1  0  0  0
 62138  1  0  0  0
 62139  1  0  0  0
 63 65  1  0  0  0
 63140  1  0  0  0
 63141  1  0  0  0
 63142  1  0  0  0
 64143  1  0  0  0
 65144  1  0  0  0
 68 81  1  0  0  0
 71 72  2  0  0  0
 71 73  1  0  0  0
 71145  1  0  0  0
 72 84  1  0  0  0
 72146  1  0  0  0
 73 74  2  0  0  0
 73 83  1  0  0  0
 74 84  1  0  0  0
 74 85  1  0  0  0
 75147  1  0  0  0
 75148  1  0  0  0
 75149  1  0  0  0
 75 82  1  0  0  0
 76150  1  0  0  0
 76151  1  0  0  0
 76152  1  0  0  0
 76 83  1  0  0  0
 77 83  1  0  0  0
 77153  1  0  0  0
 77154  1  0  0  0
 77155  1  0  0  0
 78 83  1  0  0  0
 78156  1  0  0  0
 78157  1  0  0  0
 78158  1  0  0  0
 79 80  1  0  0  0
 79 82  1  0  0  0
 79159  1  0  0  0
 79160  1  0  0  0
 80 84  1  0  0  0
 80161  1  0  0  0
 80162  1  0  0  0
 81 82  1  0  0  0
 81163  1  0  0  0
 81164  1  0  0  0
 82165  1  0  0  0
 85166  1  0  0  0
M  ISO  4   1 100  68 101  81 101  85 100
M  END
> <chiral flag>
0

> <version>
0

> <s_m_source_file>
/data/baiqing/PycharmProjects/Reinvent-master-3.2/result/LINK_invent/BTK/process_docking_weight1_custom_sum_contain_oxygen_bond_distance_aromatic_linkinvent_7_9_3/rearranged_h_0110.sdf

> <i_m_source_file_index>
98

> <r_mmod_Potential_Energy-OPLS-2005>
1127.72973632812

> <r_mmod_Stretch_Energy-OPLS-2005>
365.524627685547

> <r_mmod_Bend_Energy-OPLS-2005>
581.948852539062

> <r_mmod_Torsional_Energy-OPLS-2005>
374.475616455078

> <r_mmod_Improper_Torsional_Energy-OPLS-2005>
4.43442153930664

> <r_mmod_Van_der_Waal_Energy-OPLS-2005>
148.915145874023

> <r_mmod_Electrostatic_Energy-OPLS-2005>
-388.844329833984

> <r_mmod_Solvation_Energy-OPLS-2005>
-198.069442749023

> <b_mmod_Minimization_Converged-OPLS-2005>
0

> <r_mmod_RMS_Derivative-OPLS-2005>
9.99773406982422

$$$$
99
                    3D
 Structure written by MMmdl.
168176  0  0  1  0            999 V2000
  -30.7026  -14.4604   20.5852 C   0  0  0  0  0  0
  -30.4285  -12.2995   19.4414 C   0  0  0  0  0  0
  -29.5044  -12.5063   18.2242 C   0  0  0  0  0  0
  -28.0222  -12.3728   18.6323 C   0  0  0  0  0  0
  -27.6659  -13.2099   19.8891 C   0  0  2  0  0  0
  -28.7059  -12.9794   21.0111 C   0  0  0  0  0  0
  -25.2543  -13.8178   20.5682 C   0  0  0  0  0  0
  -24.1821  -13.0424   20.9196 C   0  0  0  0  0  0
  -24.6388  -11.6912   20.8721 C   0  0  0  0  0  0
  -23.9041  -10.4308   21.0395 C   0  0  0  0  0  0
  -24.3601   -9.4227   21.9168 C   0  0  0  0  0  0
  -23.6293   -8.2247   22.0729 C   0  0  0  0  0  0
  -22.4265   -8.0281   21.3527 C   0  0  0  0  0  0
  -21.9893   -9.0254   20.4625 C   0  0  0  0  0  0
  -22.7207  -10.2146   20.3046 C   0  0  0  0  0  0
  -21.6864   -6.0734   22.5282 C   0  0  0  0  0  0
  -21.4027   -6.5638   23.8214 C   0  0  0  0  0  0
  -21.3650   -5.6787   24.9164 C   0  0  0  0  0  0
  -21.6045   -4.3054   24.7221 C   0  0  0  0  0  0
  -21.8819   -3.8145   23.4343 C   0  0  0  0  0  0
  -21.9190   -4.6960   22.3396 C   0  0  0  0  0  0
  -22.7843  -13.5216   21.1894 C   0  0  0  0  0  0
  -22.1657   -4.2145   21.0974 F   0  0  0  0  0  0
  -21.5613   -3.4536   25.7731 F   0  0  0  0  0  0
  -30.0403  -13.2808   20.4643 N   0  0  0  0  0  0
  -26.3039  -12.9370   20.3451 N   0  0  0  0  0  0
  -25.9340  -11.6509   20.5829 N   0  0  0  0  0  0
  -22.0500  -12.8202   22.0462 N   0  0  0  0  0  0
  -25.4093  -15.1902   20.4037 N   0  0  0  0  0  0
  -31.8166  -14.6588   20.0907 O   0  0  0  0  0  0
  -21.6636   -6.8879   21.4242 O   0  0  0  0  0  0
  -22.3510  -14.5512   20.6755 O   0  0  0  0  0  0
  -24.6168  -31.8713   23.2122 C   0  0  0  0  0  0
  -25.9046  -32.4830   23.8409 C   0  0  1  0  0  0
  -27.2194  -27.4202   20.0983 C   0  0  0  0  0  0
  -25.5927  -33.8636   24.2341 N   0  0  0  0  0  0
  -23.3992  -30.5010   21.5518 C   0  0  2  0  0  0
  -24.8414  -28.9618   20.1178 C   0  0  0  0  0  0
  -22.7326  -29.4756   22.4993 C   0  0  0  0  0  0
  -18.0238  -28.1308   22.8536 C   0  0  0  0  0  0
  -24.1489  -36.7314   23.2644 C   0  0  0  0  0  0
  -25.9327  -30.8271   21.3688 C   0  0  0  0  0  0
  -26.0027  -29.4607   20.7170 C   0  0  0  0  0  0
  -27.1902  -28.6946   20.7091 C   0  0  0  0  0  0
  -26.0361  -26.9418   19.4858 C   0  0  0  0  0  0
  -24.8525  -27.6979   19.5028 C   0  0  0  0  0  0
  -23.6053  -29.8319   20.1679 C   0  0  0  0  0  0
  -25.4110  -36.3119   24.0350 C   0  0  1  0  0  0
  -20.5810  -28.3784   23.1392 C   0  0  2  0  0  0
  -20.6836  -26.9595   22.5370 C   0  0  0  0  0  0
  -19.5877  -26.6710   21.5092 C   0  0  0  0  0  0
  -18.2008  -26.7945   22.1484 C   0  0  0  0  0  0
  -19.1444  -28.8815   23.2978 C   0  0  0  0  0  0
  -18.9251  -30.1401   23.8974 C   0  0  0  0  0  0
  -17.6214  -30.6509   24.0494 C   0  0  0  0  0  0
  -25.9057  -34.9489   23.5135 C   0  0  0  0  0  0
  -16.5176  -29.8906   23.6288 C   0  0  0  0  0  0
  -16.7208  -28.6331   23.0367 C   0  0  0  0  0  0
  -26.4469  -31.6626   25.0744 C   0  0  0  0  0  0
  -25.3725  -31.3734   26.1487 C   0  0  0  0  0  0
  -27.0282  -30.3062   24.6137 C   0  0  0  0  0  0
  -27.6068  -32.4346   25.7472 C   0  0  0  0  0  0
  -27.5583  -37.1830   24.8476 C   0  0  0  0  0  0
  -21.4026  -29.3275   22.3879 N   0  0  0  0  0  0
  -26.4290  -37.3806   23.9433 N   0  0  0  0  0  0
  -24.6673  -31.0815   22.1012 N   0  0  0  0  0  0
  -23.4116  -28.8182   23.2911 O   0  0  0  0  0  0
  -28.3966  -26.6988   20.1360 O   0  0  0  0  0  0
  -26.5590  -34.8951   22.4690 O   0  0  0  0  0  0
  -23.5361  -32.1484   23.7523 O   0  0  0  0  0  0
  -28.8958  -18.8875   20.1835 C   0  0  0  0  0  0
  -29.0609  -17.7486   20.9252 C   0  0  0  0  0  0
  -27.8089  -17.5730   21.5779 C   0  0  0  0  0  0
  -26.9649  -18.6130   21.3146 C   0  0  0  0  0  0
  -25.6082  -18.9195   21.8781 C   0  0  0  0  0  0
  -25.7105  -20.2135   18.9612 C   0  0  0  0  0  0
  -27.6300  -16.6694   23.7741 C   0  0  0  0  0  0
  -30.3075  -16.8839   20.9898 C   0  0  0  0  0  0
  -27.7484  -24.2721   20.4582 C   0  0  0  0  0  0
  -27.0371  -21.8568   20.4315 C   0  0  0  0  0  0
  -28.4532  -25.3632   19.6039 C   0  0  0  0  0  0
  -27.0753  -20.5414   19.6014 C   0  0  1  0  0  0
  -27.6075  -19.3929   20.3508 N   0  0  0  0  0  0
  -27.4612  -16.4615   22.3471 N   0  0  0  0  0  0
  -30.0054  -15.4605   21.1406 N   0  0  0  0  0  0
  -27.8899  -22.9211   19.8444 N   0  3  0  0  0  0
  -31.4726  -12.3944   19.1437 H   0  0  0  0  0  0
  -30.3284  -11.2904   19.8418 H   0  0  0  0  0  0
  -29.7482  -11.7904   17.4377 H   0  0  0  0  0  0
  -29.6786  -13.4966   17.8032 H   0  0  0  0  0  0
  -27.8304  -11.3179   18.8246 H   0  0  0  0  0  0
  -27.3767  -12.6521   17.7994 H   0  0  0  0  0  0
  -27.7139  -14.2612   19.6013 H   0  0  0  0  0  0
  -28.6852  -11.9421   21.3507 H   0  0  0  0  0  0
  -28.4739  -13.5785   21.8932 H   0  0  0  0  0  0
  -25.2748   -9.5721   22.4725 H   0  0  0  0  0  0
  -24.0020   -7.4644   22.7437 H   0  0  0  0  0  0
  -21.0826   -8.8751   19.8951 H   0  0  0  0  0  0
  -22.3642  -10.9666   19.6151 H   0  0  0  0  0  0
  -21.2032   -7.6151   23.9712 H   0  0  0  0  0  0
  -21.1474   -6.0519   25.9067 H   0  0  0  0  0  0
  -22.0608   -2.7612   23.2840 H   0  0  0  0  0  0
  -22.4135  -11.9883   22.4882 H   0  0  0  0  0  0
  -21.1104  -13.1198   22.2656 H   0  0  0  0  0  0
  -24.6177  -15.8196   20.4626 H   0  0  0  0  0  0
  -26.2630  -15.6454   20.0976 H   0  0  0  0  0  0
  -26.7117  -32.5524   23.1172 H   0  0  0  0  0  0
  -25.0072  -33.9781   25.0480 H   0  0  0  0  0  0
  -22.6952  -31.3232   21.4116 H   0  0  0  0  0  0
  -23.3751  -35.9641   23.3300 H   0  0  0  0  0  0
  -24.3611  -36.8921   22.2063 H   0  0  0  0  0  0
  -23.7220  -37.6531   23.6630 H   0  0  0  0  0  0
  -26.0514  -31.5879   20.5948 H   0  0  0  0  0  0
  -26.8188  -30.8759   21.9903 H   0  0  0  0  0  0
  -28.0844  -29.0781   21.1817 H   0  0  0  0  0  0
  -25.9993  -25.9840   18.9913 H   0  0  0  0  0  0
  -23.9580  -27.3021   19.0414 H   0  0  0  0  0  0
  -23.7070  -30.6081   19.4087 H   0  0  0  0  0  0
  -22.7252  -29.2549   19.8790 H   0  0  0  0  0  0
  -25.1278  -36.2006   25.0837 H   0  0  0  0  0  0
  -20.9886  -28.3305   24.1539 H   0  0  0  0  0  0
  -20.5735  -26.2399   23.3472 H   0  0  0  0  0  0
  -21.6747  -26.7757   22.1132 H   0  0  0  0  0  0
  -19.7193  -25.6785   21.0788 H   0  0  0  0  0  0
  -19.6849  -27.3831   20.6885 H   0  0  0  0  0  0
  -17.4352  -26.6801   21.3779 H   0  0  0  0  0  0
  -18.0399  -25.9946   22.8683 H   0  0  0  0  0  0
  -19.7697  -30.7265   24.2356 H   0  0  0  0  0  0
  -17.4636  -31.6257   24.4897 H   0  0  0  0  0  0
  -15.5101  -30.2692   23.7447 H   0  0  0  0  0  0
  -15.8687  -28.0562   22.7020 H   0  0  0  0  0  0
  -24.5912  -30.7062   25.7817 H   0  0  0  0  0  0
  -24.8888  -32.2890   26.4922 H   0  0  0  0  0  0
  -25.8090  -30.8923   27.0254 H   0  0  0  0  0  0
  -26.2824  -29.6844   24.1183 H   0  0  0  0  0  0
  -27.4019  -29.7292   25.4607 H   0  0  0  0  0  0
  -27.8673  -30.4345   23.9294 H   0  0  0  0  0  0
  -27.2705  -33.3648   26.2070 H   0  0  0  0  0  0
  -28.3846  -32.6932   25.0263 H   0  0  0  0  0  0
  -28.0766  -31.8456   26.5369 H   0  0  0  0  0  0
  -28.2626  -38.0105   24.7520 H   0  0  0  0  0  0
  -28.1043  -36.2655   24.6279 H   0  0  0  0  0  0
  -27.2314  -37.1460   25.8877 H   0  0  0  0  0  0
  -20.9093  -29.9348   21.7496 H   0  0  0  0  0  0
  -26.0189  -38.2895   24.1412 H   0  0  0  0  0  0
  -29.5885  -19.3752   19.5119 H   0  0  0  0  0  0
  -25.4865  -18.4623   22.8620 H   0  0  0  0  0  0
  -24.8100  -18.5483   21.2373 H   0  0  0  0  0  0
  -25.4673  -19.9910   22.0125 H   0  0  0  0  0  0
  -25.7231  -19.2388   18.4695 H   0  0  0  0  0  0
  -25.4388  -20.9547   18.2100 H   0  0  0  0  0  0
  -24.8988  -20.2061   19.6874 H   0  0  0  0  0  0
  -28.2961  -15.9123   24.1929 H   0  0  0  0  0  0
  -26.6599  -16.5780   24.2600 H   0  0  0  0  0  0
  -28.0303  -17.6527   24.0201 H   0  0  0  0  0  0
  -30.8779  -17.0578   20.0762 H   0  0  0  0  0  0
  -30.9349  -17.2182   21.8159 H   0  0  0  0  0  0
  -26.6917  -24.5025   20.5722 H   0  0  0  0  0  0
  -28.1643  -24.2502   21.4655 H   0  0  0  0  0  0
  -27.3328  -21.6761   21.4659 H   0  0  0  0  0  0
  -26.0093  -22.2230   20.4738 H   0  0  0  0  0  0
  -28.0964  -25.3491   18.5728 H   0  0  0  0  0  0
  -29.5135  -25.1111   19.5424 H   0  0  0  0  0  0
  -27.7542  -20.6855   18.7568 H   0  0  0  0  0  0
  -26.5151  -16.1492   22.1305 H   0  0  0  0  0  0
  -29.1048  -15.2673   21.5683 H   0  0  0  0  0  0
  -28.8527  -22.6266   19.9069 H   0  0  0  0  0  0
  -27.6610  -22.9847   18.8650 H   0  0  0  0  0  0
  1 25  1  0  0  0
  1 30  2  0  0  0
  1 85  1  0  0  0
  2  3  1  0  0  0
  2 25  1  0  0  0
  2 87  1  0  0  0
  2 88  1  0  0  0
  3  4  1  0  0  0
  3 89  1  0  0  0
  3 90  1  0  0  0
  4  5  1  0  0  0
  4 91  1  0  0  0
  4 92  1  0  0  0
  5  6  1  0  0  0
  5 26  1  0  0  0
  5 93  1  0  0  0
  6 25  1  0  0  0
  6 94  1  0  0  0
  6 95  1  0  0  0
  7  8  2  0  0  0
  7 26  1  0  0  0
  7 29  1  0  0  0
  8  9  1  0  0  0
  8 22  1  0  0  0
  9 10  1  0  0  0
  9 27  2  0  0  0
 10 11  2  0  0  0
 10 15  1  0  0  0
 11 12  1  0  0  0
 11 96  1  0  0  0
 12 13  2  0  0  0
 12 97  1  0  0  0
 13 14  1  0  0  0
 13 31  1  0  0  0
 14 15  2  0  0  0
 14 98  1  0  0  0
 15 99  1  0  0  0
 16 17  2  0  0  0
 16 21  1  0  0  0
 16 31  1  0  0  0
 17 18  1  0  0  0
 17100  1  0  0  0
 18 19  2  0  0  0
 18101  1  0  0  0
 19 20  1  0  0  0
 19 24  1  0  0  0
 20 21  2  0  0  0
 20102  1  0  0  0
 21 23  1  0  0  0
 22 28  1  0  0  0
 22 32  2  0  0  0
 26 27  1  0  0  0
 28103  1  0  0  0
 28104  1  0  0  0
 29105  1  0  0  0
 29106  1  0  0  0
 33 34  1  0  0  0
 33 66  1  0  0  0
 33 70  2  0  0  0
 34 36  1  0  0  0
 34 59  1  0  0  0
 34107  1  0  0  0
 35 44  2  0  0  0
 35 45  1  0  0  0
 35 68  1  0  0  0
 36 56  1  0  0  0
 36108  1  0  0  0
 37 39  1  0  0  0
 37 47  1  0  0  0
 37 66  1  0  0  0
 37109  1  0  0  0
 38 43  2  0  0  0
 38 46  1  0  0  0
 38 47  1  0  0  0
 39 64  1  0  0  0
 39 67  2  0  0  0
 40 52  1  0  0  0
 40 53  2  0  0  0
 40 58  1  0  0  0
 41110  1  0  0  0
 41111  1  0  0  0
 41112  1  0  0  0
 41 48  1  0  0  0
 42 43  1  0  0  0
 42 66  1  0  0  0
 42113  1  0  0  0
 42114  1  0  0  0
 43 44  1  0  0  0
 44115  1  0  0  0
 45 46  2  0  0  0
 45116  1  0  0  0
 46117  1  0  0  0
 47118  1  0  0  0
 47119  1  0  0  0
 48 56  1  0  0  0
 48 65  1  0  0  0
 48120  1  0  0  0
 49 50  1  0  0  0
 49 53  1  0  0  0
 49 64  1  0  0  0
 49121  1  0  0  0
 50 51  1  0  0  0
 50122  1  0  0  0
 50123  1  0  0  0
 51 52  1  0  0  0
 51124  1  0  0  0
 51125  1  0  0  0
 52126  1  0  0  0
 52127  1  0  0  0
 53 54  1  0  0  0
 54 55  2  0  0  0
 54128  1  0  0  0
 55 57  1  0  0  0
 55129  1  0  0  0
 56 69  2  0  0  0
 57 58  2  0  0  0
 57130  1  0  0  0
 58131  1  0  0  0
 59 60  1  0  0  0
 59 61  1  0  0  0
 59 62  1  0  0  0
 60132  1  0  0  0
 60133  1  0  0  0
 60134  1  0  0  0
 61135  1  0  0  0
 61136  1  0  0  0
 61137  1  0  0  0
 62138  1  0  0  0
 62139  1  0  0  0
 62140  1  0  0  0
 63 65  1  0  0  0
 63141  1  0  0  0
 63142  1  0  0  0
 63143  1  0  0  0
 64144  1  0  0  0
 65145  1  0  0  0
 68 81  1  0  0  0
 71 72  2  0  0  0
 71 83  1  0  0  0
 71146  1  0  0  0
 72 73  1  0  0  0
 72 78  1  0  0  0
 73 74  2  0  0  0
 73 84  1  0  0  0
 74 75  1  0  0  0
 74 83  1  0  0  0
 75147  1  0  0  0
 75148  1  0  0  0
 75149  1  0  0  0
 76150  1  0  0  0
 76151  1  0  0  0
 76152  1  0  0  0
 76 82  1  0  0  0
 77 84  1  0  0  0
 77153  1  0  0  0
 77154  1  0  0  0
 77155  1  0  0  0
 78 85  1  0  0  0
 78156  1  0  0  0
 78157  1  0  0  0
 79 81  1  0  0  0
 79 86  1  0  0  0
 79158  1  0  0  0
 79159  1  0  0  0
 80 82  1  0  0  0
 80 86  1  0  0  0
 80160  1  0  0  0
 80161  1  0  0  0
 81162  1  0  0  0
 81163  1  0  0  0
 82 83  1  0  0  0
 82164  1  0  0  0
 84165  1  0  0  0
 85166  1  0  0  0
 86167  1  0  0  0
 86168  1  0  0  0
M  CHG  1  86   1
M  ISO  4   1 100  68 101  81 101  85 100
M  END
> <chiral flag>
0

> <version>
0

> <s_m_source_file>
/data/baiqing/PycharmProjects/Reinvent-master-3.2/result/LINK_invent/BTK/process_docking_weight1_custom_sum_contain_oxygen_bond_distance_aromatic_linkinvent_7_9_3/rearranged_h_0110.sdf

> <i_m_source_file_index>
99

> <r_mmod_Potential_Energy-OPLS-2005>
-281.034118652344

> <r_mmod_Stretch_Energy-OPLS-2005>
35.9999656677246

> <r_mmod_Bend_Energy-OPLS-2005>
109.07543182373

> <r_mmod_Torsional_Energy-OPLS-2005>
257.834350585938

> <r_mmod_Improper_Torsional_Energy-OPLS-2005>
9.5093879699707

> <r_mmod_Van_der_Waal_Energy-OPLS-2005>
127.851951599121

> <r_mmod_Electrostatic_Energy-OPLS-2005>
-367.41748046875

> <r_mmod_Solvation_Energy-OPLS-2005>
-467.791290283203

> <b_mmod_Minimization_Converged-OPLS-2005>
0

> <r_mmod_RMS_Derivative-OPLS-2005>
5.52817296981812

$$$$
