0
                    3D
 Structure written by MMmdl.
160168  0  0  1  0            999 V2000
  -30.7577  -14.3881   20.6817 C   0  0  0  0  0  0
  -30.4215  -12.2987   19.4086 C   0  0  0  0  0  0
  -29.4926  -12.5189   18.1998 C   0  0  0  0  0  0
  -28.0139  -12.3823   18.6117 C   0  0  0  0  0  0
  -27.6667  -13.2057   19.8793 C   0  0  2  0  0  0
  -28.7022  -12.9569   20.9973 C   0  0  0  0  0  0
  -25.2612  -13.8169   20.5674 C   0  0  0  0  0  0
  -24.1853  -13.0451   20.9166 C   0  0  0  0  0  0
  -24.6412  -11.6914   20.8735 C   0  0  0  0  0  0
  -23.9079  -10.4296   21.0402 C   0  0  0  0  0  0
  -24.3626   -9.4213   21.9183 C   0  0  0  0  0  0
  -23.6300   -8.2249   22.0751 C   0  0  0  0  0  0
  -22.4282   -8.0289   21.3538 C   0  0  0  0  0  0
  -21.9925   -9.0263   20.4632 C   0  0  0  0  0  0
  -22.7258  -10.2139   20.3042 C   0  0  0  0  0  0
  -21.6853   -6.0749   22.5280 C   0  0  0  0  0  0
  -21.4013   -6.5643   23.8215 C   0  0  0  0  0  0
  -21.3657   -5.6795   24.9177 C   0  0  0  0  0  0
  -21.6040   -4.3060   24.7219 C   0  0  0  0  0  0
  -21.8823   -3.8158   23.4342 C   0  0  0  0  0  0
  -21.9194   -4.6979   22.3402 C   0  0  0  0  0  0
  -22.7874  -13.5245   21.1835 C   0  0  0  0  0  0
  -22.1661   -4.2167   21.0978 F   0  0  0  0  0  0
  -21.5624   -3.4541   25.7733 F   0  0  0  0  0  0
  -30.0420  -13.2539   20.4594 N   0  0  0  0  0  0
  -26.3052  -12.9336   20.3372 N   0  0  0  0  0  0
  -25.9333  -11.6495   20.5755 N   0  0  0  0  0  0
  -22.0505  -12.8210   22.0362 N   0  0  0  0  0  0
  -25.4360  -15.1883   20.4091 N   0  0  0  0  0  0
  -31.7983  -14.6575   20.0754 O   0  0  0  0  0  0
  -21.6638   -6.8893   21.4242 O   0  0  0  0  0  0
  -22.3565  -14.5557   20.6697 O   0  0  0  0  0  0
  -24.6160  -31.8675   23.2074 C   0  0  0  0  0  0
  -25.9042  -32.4826   23.8378 C   0  0  1  0  0  0
  -27.2417  -27.4389   20.0806 C   0  0  0  0  0  0
  -25.5890  -33.8620   24.2320 N   0  0  0  0  0  0
  -23.4018  -30.4924   21.5491 C   0  0  2  0  0  0
  -24.8430  -28.9522   20.1177 C   0  0  0  0  0  0
  -22.7409  -29.4672   22.4989 C   0  0  0  0  0  0
  -18.0269  -28.1411   22.8487 C   0  0  0  0  0  0
  -24.1476  -36.7314   23.2642 C   0  0  0  0  0  0
  -25.9268  -30.8372   21.3497 C   0  0  0  0  0  0
  -26.0030  -29.4663   20.7084 C   0  0  0  0  0  0
  -27.1990  -28.7152   20.6891 C   0  0  0  0  0  0
  -26.0501  -26.9267   19.5108 C   0  0  0  0  0  0
  -24.8602  -27.6796   19.5218 C   0  0  0  0  0  0
  -23.6074  -29.8224   20.1638 C   0  0  0  0  0  0
  -25.4098  -36.3120   24.0343 C   0  0  1  0  0  0
  -20.5861  -28.3686   23.1322 C   0  0  2  0  0  0
  -20.6756  -26.9430   22.5414 C   0  0  0  0  0  0
  -19.5735  -26.6429   21.5203 C   0  0  0  0  0  0
  -18.1916  -26.7956   22.1624 C   0  0  0  0  0  0
  -19.1517  -28.8861   23.2910 C   0  0  0  0  0  0
  -18.9448  -30.1460   23.8932 C   0  0  0  0  0  0
  -17.6452  -30.6606   24.0588 C   0  0  0  0  0  0
  -25.9026  -34.9478   23.5130 C   0  0  0  0  0  0
  -16.5339  -29.9119   23.6333 C   0  0  0  0  0  0
  -16.7264  -28.6541   23.0345 C   0  0  0  0  0  0
  -26.4459  -31.6598   25.0699 C   0  0  0  0  0  0
  -25.3729  -31.3682   26.1445 C   0  0  0  0  0  0
  -27.0275  -30.3067   24.5999 C   0  0  0  0  0  0
  -27.6037  -32.4305   25.7481 C   0  0  0  0  0  0
  -27.5572  -37.1823   24.8469 C   0  0  0  0  0  0
  -21.4135  -29.3062   22.3741 N   0  0  0  0  0  0
  -26.4277  -37.3808   23.9417 N   0  0  0  0  0  0
  -24.6676  -31.0800   22.0957 N   0  0  0  0  0  0
  -23.4186  -28.8206   23.3015 O   0  0  0  0  0  0
  -28.4553  -26.7764   20.0742 O   0  0  0  0  0  0
  -26.5601  -34.8931   22.4698 O   0  0  0  0  0  0
  -23.5351  -32.1398   23.7485 O   0  0  0  0  0  0
  -28.3282  -23.0045   20.1709 C   0  0  0  0  0  0
  -29.3941  -24.3555   21.5904 C   0  0  0  0  0  0
  -28.7656  -24.3485   20.3744 C   0  0  0  0  0  0
  -28.6804  -22.2432   21.2546 C   0  0  0  0  0  0
  -29.9117  -22.7125   23.4249 C   0  0  0  0  0  0
  -28.6310  -25.5157   19.4126 C   0  0  0  0  0  0
  -28.4503  -20.7838   21.5518 C   0  0  0  0  0  0
  -29.6433  -19.8814   21.1780 C   0  0  0  0  0  0
  -29.5526  -18.4368   21.7187 C   0  0  0  0  0  0
  -30.8431  -17.6412   21.4308 C   0  0  0  0  0  0
  -30.9976  -16.3275   22.2269 C   0  0  0  0  0  0
  -29.3496  -23.0826   22.1353 N   0  0  0  0  0  0
  -30.2835  -15.1895   21.6471 N   0  0  0  0  0  0
  -31.4650  -12.4036   19.1060 H   0  0  0  0  0  0
  -30.3284  -11.2791   19.7860 H   0  0  0  0  0  0
  -29.7272  -11.8006   17.4135 H   0  0  0  0  0  0
  -29.6695  -13.5082   17.7747 H   0  0  0  0  0  0
  -27.8138  -11.3254   18.7898 H   0  0  0  0  0  0
  -27.3677  -12.6800   17.7851 H   0  0  0  0  0  0
  -27.7224  -14.2589   19.6046 H   0  0  0  0  0  0
  -28.6691  -11.9150   21.3190 H   0  0  0  0  0  0
  -28.4450  -13.5384   21.8831 H   0  0  0  0  0  0
  -25.2780   -9.5684   22.4754 H   0  0  0  0  0  0
  -24.0006   -7.4641   22.7468 H   0  0  0  0  0  0
  -21.0864   -8.8795   19.8927 H   0  0  0  0  0  0
  -22.3744  -10.9678   19.6134 H   0  0  0  0  0  0
  -21.2005   -7.6153   23.9726 H   0  0  0  0  0  0
  -21.1465   -6.0521   25.9079 H   0  0  0  0  0  0
  -22.0602   -2.7625   23.2836 H   0  0  0  0  0  0
  -22.4103  -11.9851   22.4725 H   0  0  0  0  0  0
  -21.1113  -13.1222   22.2546 H   0  0  0  0  0  0
  -24.6786  -15.8525   20.5248 H   0  0  0  0  0  0
  -26.2997  -15.6220   20.1072 H   0  0  0  0  0  0
  -26.7117  -32.5541   23.1155 H   0  0  0  0  0  0
  -25.0056  -33.9774   25.0476 H   0  0  0  0  0  0
  -22.6900  -31.3095   21.4104 H   0  0  0  0  0  0
  -23.3729  -35.9659   23.3319 H   0  0  0  0  0  0
  -24.3583  -36.8910   22.2056 H   0  0  0  0  0  0
  -23.7213  -37.6520   23.6632 H   0  0  0  0  0  0
  -26.0186  -31.5915   20.5668 H   0  0  0  0  0  0
  -26.8253  -30.9091   21.9518 H   0  0  0  0  0  0
  -28.0975  -29.1192   21.1353 H   0  0  0  0  0  0
  -26.0029  -25.9506   19.0542 H   0  0  0  0  0  0
  -23.9650  -27.2727   19.0703 H   0  0  0  0  0  0
  -23.7209  -30.5951   19.4018 H   0  0  0  0  0  0
  -22.7294  -29.2454   19.8687 H   0  0  0  0  0  0
  -25.1271  -36.1998   25.0836 H   0  0  0  0  0  0
  -20.9959  -28.3231   24.1448 H   0  0  0  0  0  0
  -20.5661  -26.2295   23.3589 H   0  0  0  0  0  0
  -21.6623  -26.7481   22.1206 H   0  0  0  0  0  0
  -19.6891  -25.6352   21.1221 H   0  0  0  0  0  0
  -19.6680  -27.3252   20.6740 H   0  0  0  0  0  0
  -17.4196  -26.6728   21.4022 H   0  0  0  0  0  0
  -18.0313  -26.0097   22.9021 H   0  0  0  0  0  0
  -19.7917  -30.7274   24.2327 H   0  0  0  0  0  0
  -17.5009  -31.6282   24.5203 H   0  0  0  0  0  0
  -15.5343  -30.3046   23.7627 H   0  0  0  0  0  0
  -15.8665  -28.0886   22.7027 H   0  0  0  0  0  0
  -24.5928  -30.6998   25.7794 H   0  0  0  0  0  0
  -24.8878  -32.2814   26.4890 H   0  0  0  0  0  0
  -25.8099  -30.8875   27.0205 H   0  0  0  0  0  0
  -26.2794  -29.6863   24.1050 H   0  0  0  0  0  0
  -27.4094  -29.7262   25.4407 H   0  0  0  0  0  0
  -27.8601  -30.4447   23.9098 H   0  0  0  0  0  0
  -27.2671  -33.3622   26.2044 H   0  0  0  0  0  0
  -28.3861  -32.6832   25.0314 H   0  0  0  0  0  0
  -28.0666  -31.8419   26.5407 H   0  0  0  0  0  0
  -28.2596  -38.0118   24.7513 H   0  0  0  0  0  0
  -28.1056  -36.2644   24.6288 H   0  0  0  0  0  0
  -27.2303  -37.1480   25.8879 H   0  0  0  0  0  0
  -20.9297  -29.8828   21.6999 H   0  0  0  0  0  0
  -26.0161  -38.2895   24.1404 H   0  0  0  0  0  0
  -27.8042  -22.6269   19.3023 H   0  0  0  0  0  0
  -29.8823  -25.1675   22.1144 H   0  0  0  0  0  0
  -30.5592  -23.5058   23.8007 H   0  0  0  0  0  0
  -30.5032  -21.8011   23.3362 H   0  0  0  0  0  0
  -29.1102  -22.5455   24.1454 H   0  0  0  0  0  0
  -27.8996  -25.2910   18.6398 H   0  0  0  0  0  0
  -29.5765  -25.5818   18.8733 H   0  0  0  0  0  0
  -27.5608  -20.4388   21.0230 H   0  0  0  0  0  0
  -28.2213  -20.6655   22.6117 H   0  0  0  0  0  0
  -30.5549  -20.3346   21.5670 H   0  0  0  0  0  0
  -29.7590  -19.8658   20.0949 H   0  0  0  0  0  0
  -28.6900  -17.9220   21.2928 H   0  0  0  0  0  0
  -29.3835  -18.4710   22.7961 H   0  0  0  0  0  0
  -31.6940  -18.2706   21.6928 H   0  0  0  0  0  0
  -30.9414  -17.4559   20.3595 H   0  0  0  0  0  0
  -30.6719  -16.4663   23.2582 H   0  0  0  0  0  0
  -32.0586  -16.0767   22.2945 H   0  0  0  0  0  0
  -29.4322  -14.8945   22.1026 H   0  0  0  0  0  0
  1 25  1  0  0  0
  1 30  2  0  0  0
  1 83  1  0  0  0
  2  3  1  0  0  0
  2 25  1  0  0  0
  2 84  1  0  0  0
  2 85  1  0  0  0
  3  4  1  0  0  0
  3 86  1  0  0  0
  3 87  1  0  0  0
  4  5  1  0  0  0
  4 88  1  0  0  0
  4 89  1  0  0  0
  5  6  1  0  0  0
  5 26  1  0  0  0
  5 90  1  0  0  0
  6 25  1  0  0  0
  6 91  1  0  0  0
  6 92  1  0  0  0
  7  8  2  0  0  0
  7 26  1  0  0  0
  7 29  1  0  0  0
  8  9  1  0  0  0
  8 22  1  0  0  0
  9 10  1  0  0  0
  9 27  2  0  0  0
 10 11  2  0  0  0
 10 15  1  0  0  0
 11 12  1  0  0  0
 11 93  1  0  0  0
 12 13  2  0  0  0
 12 94  1  0  0  0
 13 14  1  0  0  0
 13 31  1  0  0  0
 14 15  2  0  0  0
 14 95  1  0  0  0
 15 96  1  0  0  0
 16 17  2  0  0  0
 16 21  1  0  0  0
 16 31  1  0  0  0
 17 18  1  0  0  0
 17 97  1  0  0  0
 18 19  2  0  0  0
 18 98  1  0  0  0
 19 20  1  0  0  0
 19 24  1  0  0  0
 20 21  2  0  0  0
 20 99  1  0  0  0
 21 23  1  0  0  0
 22 28  1  0  0  0
 22 32  2  0  0  0
 26 27  1  0  0  0
 28100  1  0  0  0
 28101  1  0  0  0
 29102  1  0  0  0
 29103  1  0  0  0
 33 34  1  0  0  0
 33 66  1  0  0  0
 33 70  2  0  0  0
 34 36  1  0  0  0
 34 59  1  0  0  0
 34104  1  0  0  0
 35 44  2  0  0  0
 35 45  1  0  0  0
 35 68  1  0  0  0
 36 56  1  0  0  0
 36105  1  0  0  0
 37 39  1  0  0  0
 37 47  1  0  0  0
 37 66  1  0  0  0
 37106  1  0  0  0
 38 43  2  0  0  0
 38 46  1  0  0  0
 38 47  1  0  0  0
 39 64  1  0  0  0
 39 67  2  0  0  0
 40 52  1  0  0  0
 40 53  2  0  0  0
 40 58  1  0  0  0
 41107  1  0  0  0
 41108  1  0  0  0
 41109  1  0  0  0
 41 48  1  0  0  0
 42 43  1  0  0  0
 42 66  1  0  0  0
 42110  1  0  0  0
 42111  1  0  0  0
 43 44  1  0  0  0
 44112  1  0  0  0
 45 46  2  0  0  0
 45113  1  0  0  0
 46114  1  0  0  0
 47115  1  0  0  0
 47116  1  0  0  0
 48 56  1  0  0  0
 48 65  1  0  0  0
 48117  1  0  0  0
 49 50  1  0  0  0
 49 53  1  0  0  0
 49 64  1  0  0  0
 49118  1  0  0  0
 50 51  1  0  0  0
 50119  1  0  0  0
 50120  1  0  0  0
 51 52  1  0  0  0
 51121  1  0  0  0
 51122  1  0  0  0
 52123  1  0  0  0
 52124  1  0  0  0
 53 54  1  0  0  0
 54 55  2  0  0  0
 54125  1  0  0  0
 55 57  1  0  0  0
 55126  1  0  0  0
 56 69  2  0  0  0
 57 58  2  0  0  0
 57127  1  0  0  0
 58128  1  0  0  0
 59 60  1  0  0  0
 59 61  1  0  0  0
 59 62  1  0  0  0
 60129  1  0  0  0
 60130  1  0  0  0
 60131  1  0  0  0
 61132  1  0  0  0
 61133  1  0  0  0
 61134  1  0  0  0
 62135  1  0  0  0
 62136  1  0  0  0
 62137  1  0  0  0
 63 65  1  0  0  0
 63138  1  0  0  0
 63139  1  0  0  0
 63140  1  0  0  0
 64141  1  0  0  0
 65142  1  0  0  0
 68 76  1  0  0  0
 71 73  1  0  0  0
 71 74  2  0  0  0
 71143  1  0  0  0
 72 73  2  0  0  0
 72 82  1  0  0  0
 72144  1  0  0  0
 73 76  1  0  0  0
 74 77  1  0  0  0
 74 82  1  0  0  0
 75 82  1  0  0  0
 75145  1  0  0  0
 75146  1  0  0  0
 75147  1  0  0  0
 76148  1  0  0  0
 76149  1  0  0  0
 77 78  1  0  0  0
 77150  1  0  0  0
 77151  1  0  0  0
 78 79  1  0  0  0
 78152  1  0  0  0
 78153  1  0  0  0
 79 80  1  0  0  0
 79154  1  0  0  0
 79155  1  0  0  0
 80 81  1  0  0  0
 80156  1  0  0  0
 80157  1  0  0  0
 81 83  1  0  0  0
 81158  1  0  0  0
 81159  1  0  0  0
 83160  1  0  0  0
M  ISO  4   1 100  68 101  76 101  83 100
M  END
> <chiral flag>
0

> <version>
0

> <s_m_source_file>
/data/baiqing/PycharmProjects/Reinvent-master-3.2/result/LINK_invent/BTK/process_docking_weight1_custom_sum_contain_oxygen_bond_distance_aromatic_linkinvent_7_9_3/rearranged_h_0040.sdf

> <i_m_source_file_index>
1

> <r_mmod_Potential_Energy-OPLS-2005>
-90.470344543457

> <r_mmod_Stretch_Energy-OPLS-2005>
32.9499855041504

> <r_mmod_Bend_Energy-OPLS-2005>
105.004409790039

> <r_mmod_Torsional_Energy-OPLS-2005>
205.770950317383

> <r_mmod_Improper_Torsional_Energy-OPLS-2005>
2.04462480545044

> <r_mmod_Van_der_Waal_Energy-OPLS-2005>
129.147705078125

> <r_mmod_Electrostatic_Energy-OPLS-2005>
-361.538757324219

> <r_mmod_Solvation_Energy-OPLS-2005>
-212.446685791016

> <b_mmod_Minimization_Converged-OPLS-2005>
0

> <r_mmod_RMS_Derivative-OPLS-2005>
2.18843030929565

$$$$
1
                    3D
 Structure written by MMmdl.
159167  0  0  1  0            999 V2000
  -30.6821  -14.4355   20.6151 C   0  0  0  0  0  0
  -30.4282  -12.2969   19.4030 C   0  0  0  0  0  0
  -29.4917  -12.5141   18.1963 C   0  0  0  0  0  0
  -28.0116  -12.3726   18.6097 C   0  0  0  0  0  0
  -27.6661  -13.1930   19.8811 C   0  0  2  0  0  0
  -28.7041  -12.9271   20.9937 C   0  0  0  0  0  0
  -25.2608  -13.8122   20.5626 C   0  0  0  0  0  0
  -24.1849  -13.0415   20.9140 C   0  0  0  0  0  0
  -24.6393  -11.6886   20.8738 C   0  0  0  0  0  0
  -23.9053  -10.4286   21.0428 C   0  0  0  0  0  0
  -24.3623   -9.4212   21.9206 C   0  0  0  0  0  0
  -23.6296   -8.2252   22.0787 C   0  0  0  0  0  0
  -22.4283   -8.0286   21.3565 C   0  0  0  0  0  0
  -21.9904   -9.0270   20.4682 C   0  0  0  0  0  0
  -22.7227  -10.2148   20.3083 C   0  0  0  0  0  0
  -21.6862   -6.0739   22.5292 C   0  0  0  0  0  0
  -21.4011   -6.5648   23.8215 C   0  0  0  0  0  0
  -21.3653   -5.6809   24.9183 C   0  0  0  0  0  0
  -21.6037   -4.3067   24.7241 C   0  0  0  0  0  0
  -21.8810   -3.8155   23.4358 C   0  0  0  0  0  0
  -21.9187   -4.6964   22.3414 C   0  0  0  0  0  0
  -22.7886  -13.5261   21.1823 C   0  0  0  0  0  0
  -22.1653   -4.2133   21.0995 F   0  0  0  0  0  0
  -21.5633   -3.4566   25.7758 F   0  0  0  0  0  0
  -30.0391  -13.2510   20.4520 N   0  0  0  0  0  0
  -26.3047  -12.9277   20.3392 N   0  0  0  0  0  0
  -25.9318  -11.6448   20.5789 N   0  0  0  0  0  0
  -22.0533  -12.8278   22.0391 N   0  0  0  0  0  0
  -25.4310  -15.1840   20.3993 N   0  0  0  0  0  0
  -31.7773  -14.6953   20.1056 O   0  0  0  0  0  0
  -21.6646   -6.8891   21.4257 O   0  0  0  0  0  0
  -22.3589  -14.5576   20.6670 O   0  0  0  0  0  0
  -24.6124  -31.8680   23.2104 C   0  0  0  0  0  0
  -25.9014  -32.4815   23.8401 C   0  0  1  0  0  0
  -27.2435  -27.4731   20.0836 C   0  0  0  0  0  0
  -25.5864  -33.8613   24.2329 N   0  0  0  0  0  0
  -23.3983  -30.4923   21.5490 C   0  0  2  0  0  0
  -24.8474  -28.9588   20.1159 C   0  0  0  0  0  0
  -22.7370  -29.4667   22.4976 C   0  0  0  0  0  0
  -18.0262  -28.1411   22.8489 C   0  0  0  0  0  0
  -24.1483  -36.7344   23.2631 C   0  0  0  0  0  0
  -25.9250  -30.8439   21.3614 C   0  0  0  0  0  0
  -26.0035  -29.4806   20.7107 C   0  0  0  0  0  0
  -27.2067  -28.7445   20.6931 C   0  0  0  0  0  0
  -26.0765  -26.9550   19.4864 C   0  0  0  0  0  0
  -24.8773  -27.6932   19.5017 C   0  0  0  0  0  0
  -23.6070  -29.8210   20.1650 C   0  0  0  0  0  0
  -25.4104  -36.3126   24.0339 C   0  0  1  0  0  0
  -20.5846  -28.3708   23.1369 C   0  0  2  0  0  0
  -20.6740  -26.9420   22.5586 C   0  0  0  0  0  0
  -19.5790  -26.6339   21.5300 C   0  0  0  0  0  0
  -18.1938  -26.7938   22.1662 C   0  0  0  0  0  0
  -19.1499  -28.8896   23.2880 C   0  0  0  0  0  0
  -18.9424  -30.1531   23.8832 C   0  0  0  0  0  0
  -17.6428  -30.6665   24.0486 C   0  0  0  0  0  0
  -25.9037  -34.9477   23.5154 C   0  0  0  0  0  0
  -16.5325  -29.9116   23.6310 C   0  0  0  0  0  0
  -16.7250  -28.6516   23.0364 C   0  0  0  0  0  0
  -26.4454  -31.6572   25.0708 C   0  0  0  0  0  0
  -25.3735  -31.3686   26.1465 C   0  0  0  0  0  0
  -27.0263  -30.3005   24.6058 C   0  0  0  0  0  0
  -27.6044  -32.4265   25.7462 C   0  0  0  0  0  0
  -27.5586  -37.1820   24.8458 C   0  0  0  0  0  0
  -21.4104  -29.3035   22.3718 N   0  0  0  0  0  0
  -26.4297  -37.3805   23.9402 N   0  0  0  0  0  0
  -24.6635  -31.0817   22.0989 N   0  0  0  0  0  0
  -23.4147  -28.8203   23.2997 O   0  0  0  0  0  0
  -28.4061  -26.7465   20.0504 O   0  0  0  0  0  0
  -26.5602  -34.8925   22.4727 O   0  0  0  0  0  0
  -23.5325  -32.1405   23.7514 O   0  0  0  0  0  0
  -26.6636  -20.2570   21.2601 C   0  0  0  0  0  0
  -27.8791  -19.9885   21.9460 C   0  0  0  0  0  0
  -26.6036  -21.6195   21.1725 C   0  0  0  0  0  0
  -25.4963  -22.4778   20.6501 C   0  0  0  0  0  0
  -28.3588  -18.6575   22.4929 C   0  0  0  0  0  0
  -28.9383  -17.6539   21.4365 C   0  0  0  0  0  0
  -28.2051  -24.4273   20.7864 C   0  0  0  0  0  0
  -28.1757  -23.4915   22.0125 C   0  0  0  0  0  0
  -30.2452  -16.7835   21.4845 C   0  0  0  0  0  0
  -28.5771  -25.8721   21.1645 C   0  0  0  0  0  0
  -28.5646  -21.1028   22.1714 N   0  0  0  0  0  0
  -27.7775  -22.1132   21.7258 N   0  0  0  0  0  0
  -29.9683  -15.3507   21.2898 N   0  0  0  0  0  0
  -31.4707  -12.4162   19.1012 H   0  0  0  0  0  0
  -30.3460  -11.2733   19.7772 H   0  0  0  0  0  0
  -29.7284  -11.8069   17.4001 H   0  0  0  0  0  0
  -29.6596  -13.5077   17.7775 H   0  0  0  0  0  0
  -27.8121  -11.3158   18.7900 H   0  0  0  0  0  0
  -27.3620  -12.6652   17.7841 H   0  0  0  0  0  0
  -27.7248  -14.2467   19.6095 H   0  0  0  0  0  0
  -28.6801  -11.8760   21.2855 H   0  0  0  0  0  0
  -28.4577  -13.4724   21.9060 H   0  0  0  0  0  0
  -25.2762   -9.5686   22.4784 H   0  0  0  0  0  0
  -23.9990   -7.4653   22.7517 H   0  0  0  0  0  0
  -21.0821   -8.8802   19.9009 H   0  0  0  0  0  0
  -22.3681  -10.9707   19.6208 H   0  0  0  0  0  0
  -21.2004   -7.6158   23.9704 H   0  0  0  0  0  0
  -21.1483   -6.0558   25.9082 H   0  0  0  0  0  0
  -22.0587   -2.7614   23.2882 H   0  0  0  0  0  0
  -22.4139  -11.9914   22.4740 H   0  0  0  0  0  0
  -21.1191  -13.1380   22.2663 H   0  0  0  0  0  0
  -24.6592  -15.8337   20.5049 H   0  0  0  0  0  0
  -26.2749  -15.6264   20.0587 H   0  0  0  0  0  0
  -26.7092  -32.5532   23.1176 H   0  0  0  0  0  0
  -24.9939  -33.9779   25.0413 H   0  0  0  0  0  0
  -22.6866  -31.3100   21.4095 H   0  0  0  0  0  0
  -23.3730  -35.9694   23.3312 H   0  0  0  0  0  0
  -24.3590  -36.8940   22.2046 H   0  0  0  0  0  0
  -23.7252  -37.6561   23.6636 H   0  0  0  0  0  0
  -26.0310  -31.6117   20.5940 H   0  0  0  0  0  0
  -26.8176  -30.8989   21.9732 H   0  0  0  0  0  0
  -28.1038  -29.1515   21.1383 H   0  0  0  0  0  0
  -26.0991  -25.9889   19.0030 H   0  0  0  0  0  0
  -23.9921  -27.2871   19.0322 H   0  0  0  0  0  0
  -23.7076  -30.5952   19.4034 H   0  0  0  0  0  0
  -22.7338  -29.2362   19.8727 H   0  0  0  0  0  0
  -25.1284  -36.2009   25.0832 H   0  0  0  0  0  0
  -20.9899  -28.3386   24.1503 H   0  0  0  0  0  0
  -20.5494  -26.2408   23.3855 H   0  0  0  0  0  0
  -21.6674  -26.7363   22.1544 H   0  0  0  0  0  0
  -19.6978  -25.6208   21.1437 H   0  0  0  0  0  0
  -19.6773  -27.3073   20.6762 H   0  0  0  0  0  0
  -17.4198  -26.6602   21.4092 H   0  0  0  0  0  0
  -18.0336  -26.0131   22.9125 H   0  0  0  0  0  0
  -19.7882  -30.7385   24.2162 H   0  0  0  0  0  0
  -17.4984  -31.6379   24.5016 H   0  0  0  0  0  0
  -15.5328  -30.3004   23.7674 H   0  0  0  0  0  0
  -15.8632  -28.0796   22.7160 H   0  0  0  0  0  0
  -24.5906  -30.7015   25.7833 H   0  0  0  0  0  0
  -24.8924  -32.2840   26.4908 H   0  0  0  0  0  0
  -25.8113  -30.8866   27.0209 H   0  0  0  0  0  0
  -26.2801  -29.6767   24.1105 H   0  0  0  0  0  0
  -27.4029  -29.7221   25.4505 H   0  0  0  0  0  0
  -27.8636  -30.4327   23.9201 H   0  0  0  0  0  0
  -27.2680  -33.3551   26.2089 H   0  0  0  0  0  0
  -28.3833  -32.6834   25.0269 H   0  0  0  0  0  0
  -28.0707  -31.8323   26.5325 H   0  0  0  0  0  0
  -28.2623  -38.0097   24.7503 H   0  0  0  0  0  0
  -28.1068  -36.2640   24.6302 H   0  0  0  0  0  0
  -27.2302  -37.1488   25.8856 H   0  0  0  0  0  0
  -20.9242  -29.8757   21.6955 H   0  0  0  0  0  0
  -26.0199  -38.2892   24.1379 H   0  0  0  0  0  0
  -25.9050  -19.5525   20.9481 H   0  0  0  0  0  0
  -25.7214  -22.8295   19.6438 H   0  0  0  0  0  0
  -25.3202  -23.3410   21.2924 H   0  0  0  0  0  0
  -24.5622  -21.9191   20.5980 H   0  0  0  0  0  0
  -27.4897  -18.2347   23.0124 H   0  0  0  0  0  0
  -29.0864  -18.8272   23.2915 H   0  0  0  0  0  0
  -28.6807  -16.9736   22.2469 H   0  0  0  0  0  0
  -29.6528  -18.4663   21.2989 H   0  0  0  0  0  0
  -27.2309  -24.4432   20.3073 H   0  0  0  0  0  0
  -28.9084  -24.0501   20.0457 H   0  0  0  0  0  0
  -27.4812  -23.8873   22.7538 H   0  0  0  0  0  0
  -29.1574  -23.4861   22.4888 H   0  0  0  0  0  0
  -30.7702  -16.9090   22.4368 H   0  0  0  0  0  0
  -30.9509  -17.0942   20.7083 H   0  0  0  0  0  0
  -27.9852  -26.2021   22.0219 H   0  0  0  0  0  0
  -29.6204  -25.9161   21.4787 H   0  0  0  0  0  0
  -29.0942  -15.0055   21.6606 H   0  0  0  0  0  0
  1 25  1  0  0  0
  1 30  2  0  0  0
  1 83  1  0  0  0
  2  3  1  0  0  0
  2 25  1  0  0  0
  2 84  1  0  0  0
  2 85  1  0  0  0
  3  4  1  0  0  0
  3 86  1  0  0  0
  3 87  1  0  0  0
  4  5  1  0  0  0
  4 88  1  0  0  0
  4 89  1  0  0  0
  5  6  1  0  0  0
  5 26  1  0  0  0
  5 90  1  0  0  0
  6 25  1  0  0  0
  6 91  1  0  0  0
  6 92  1  0  0  0
  7  8  2  0  0  0
  7 26  1  0  0  0
  7 29  1  0  0  0
  8  9  1  0  0  0
  8 22  1  0  0  0
  9 10  1  0  0  0
  9 27  2  0  0  0
 10 11  2  0  0  0
 10 15  1  0  0  0
 11 12  1  0  0  0
 11 93  1  0  0  0
 12 13  2  0  0  0
 12 94  1  0  0  0
 13 14  1  0  0  0
 13 31  1  0  0  0
 14 15  2  0  0  0
 14 95  1  0  0  0
 15 96  1  0  0  0
 16 17  2  0  0  0
 16 21  1  0  0  0
 16 31  1  0  0  0
 17 18  1  0  0  0
 17 97  1  0  0  0
 18 19  2  0  0  0
 18 98  1  0  0  0
 19 20  1  0  0  0
 19 24  1  0  0  0
 20 21  2  0  0  0
 20 99  1  0  0  0
 21 23  1  0  0  0
 22 28  1  0  0  0
 22 32  2  0  0  0
 26 27  1  0  0  0
 28100  1  0  0  0
 28101  1  0  0  0
 29102  1  0  0  0
 29103  1  0  0  0
 33 34  1  0  0  0
 33 66  1  0  0  0
 33 70  2  0  0  0
 34 36  1  0  0  0
 34 59  1  0  0  0
 34104  1  0  0  0
 35 44  2  0  0  0
 35 45  1  0  0  0
 35 68  1  0  0  0
 36 56  1  0  0  0
 36105  1  0  0  0
 37 39  1  0  0  0
 37 47  1  0  0  0
 37 66  1  0  0  0
 37106  1  0  0  0
 38 43  2  0  0  0
 38 46  1  0  0  0
 38 47  1  0  0  0
 39 64  1  0  0  0
 39 67  2  0  0  0
 40 52  1  0  0  0
 40 53  2  0  0  0
 40 58  1  0  0  0
 41107  1  0  0  0
 41108  1  0  0  0
 41109  1  0  0  0
 41 48  1  0  0  0
 42 43  1  0  0  0
 42 66  1  0  0  0
 42110  1  0  0  0
 42111  1  0  0  0
 43 44  1  0  0  0
 44112  1  0  0  0
 45 46  2  0  0  0
 45113  1  0  0  0
 46114  1  0  0  0
 47115  1  0  0  0
 47116  1  0  0  0
 48 56  1  0  0  0
 48 65  1  0  0  0
 48117  1  0  0  0
 49 50  1  0  0  0
 49 53  1  0  0  0
 49 64  1  0  0  0
 49118  1  0  0  0
 50 51  1  0  0  0
 50119  1  0  0  0
 50120  1  0  0  0
 51 52  1  0  0  0
 51121  1  0  0  0
 51122  1  0  0  0
 52123  1  0  0  0
 52124  1  0  0  0
 53 54  1  0  0  0
 54 55  2  0  0  0
 54125  1  0  0  0
 55 57  1  0  0  0
 55126  1  0  0  0
 56 69  2  0  0  0
 57 58  2  0  0  0
 57127  1  0  0  0
 58128  1  0  0  0
 59 60  1  0  0  0
 59 61  1  0  0  0
 59 62  1  0  0  0
 60129  1  0  0  0
 60130  1  0  0  0
 60131  1  0  0  0
 61132  1  0  0  0
 61133  1  0  0  0
 61134  1  0  0  0
 62135  1  0  0  0
 62136  1  0  0  0
 62137  1  0  0  0
 63 65  1  0  0  0
 63138  1  0  0  0
 63139  1  0  0  0
 63140  1  0  0  0
 64141  1  0  0  0
 65142  1  0  0  0
 68 80  1  0  0  0
 71 72  1  0  0  0
 71 73  2  0  0  0
 71143  1  0  0  0
 72 75  1  0  0  0
 72 81  2  0  0  0
 73 74  1  0  0  0
 73 82  1  0  0  0
 74144  1  0  0  0
 74145  1  0  0  0
 74146  1  0  0  0
 75 76  1  0  0  0
 75147  1  0  0  0
 75148  1  0  0  0
 76 79  1  0  0  0
 76149  1  0  0  0
 76150  1  0  0  0
 77 78  1  0  0  0
 77 80  1  0  0  0
 77151  1  0  0  0
 77152  1  0  0  0
 78 82  1  0  0  0
 78153  1  0  0  0
 78154  1  0  0  0
 79 83  1  0  0  0
 79155  1  0  0  0
 79156  1  0  0  0
 80157  1  0  0  0
 80158  1  0  0  0
 81 82  1  0  0  0
 83159  1  0  0  0
M  ISO  4   1 100  68 101  80 101  83 100
M  END
> <chiral flag>
0

> <version>
0

> <s_m_source_file>
/data/baiqing/PycharmProjects/Reinvent-master-3.2/result/LINK_invent/BTK/process_docking_weight1_custom_sum_contain_oxygen_bond_distance_aromatic_linkinvent_7_9_3/rearranged_h_0040.sdf

> <i_m_source_file_index>
2

> <r_mmod_Potential_Energy-OPLS-2005>
98.7373199462891

> <r_mmod_Stretch_Energy-OPLS-2005>
35.1086082458496

> <r_mmod_Bend_Energy-OPLS-2005>
316.169097900391

> <r_mmod_Torsional_Energy-OPLS-2005>
238.478179931641

> <r_mmod_Improper_Torsional_Energy-OPLS-2005>
3.65088629722595

> <r_mmod_Van_der_Waal_Energy-OPLS-2005>
143.760116577148

> <r_mmod_Electrostatic_Energy-OPLS-2005>
-427.144134521484

> <r_mmod_Solvation_Energy-OPLS-2005>
-219.908187866211

> <b_mmod_Minimization_Converged-OPLS-2005>
0

> <r_mmod_RMS_Derivative-OPLS-2005>
3.01568627357483

$$$$
2
                    3D
 Structure written by MMmdl.
158166  0  0  1  0            999 V2000
  -30.6688  -14.5219   20.5822 C   0  0  0  0  0  0
  -30.4346  -12.3493   19.4174 C   0  0  0  0  0  0
  -29.4970  -12.5077   18.2030 C   0  0  0  0  0  0
  -28.0217  -12.3461   18.6200 C   0  0  0  0  0  0
  -27.6532  -13.2041   19.8602 C   0  0  2  0  0  0
  -28.6939  -13.0096   20.9827 C   0  0  0  0  0  0
  -25.2540  -13.8147   20.5630 C   0  0  0  0  0  0
  -24.1793  -13.0426   20.9154 C   0  0  0  0  0  0
  -24.6339  -11.6899   20.8691 C   0  0  0  0  0  0
  -23.9004  -10.4280   21.0372 C   0  0  0  0  0  0
  -24.3569   -9.4216   21.9158 C   0  0  0  0  0  0
  -23.6261   -8.2243   22.0742 C   0  0  0  0  0  0
  -22.4245   -8.0254   21.3534 C   0  0  0  0  0  0
  -21.9861   -9.0218   20.4633 C   0  0  0  0  0  0
  -22.7173  -10.2112   20.3035 C   0  0  0  0  0  0
  -21.6859   -6.0701   22.5273 C   0  0  0  0  0  0
  -21.4005   -6.5612   23.8199 C   0  0  0  0  0  0
  -21.3670   -5.6778   24.9168 C   0  0  0  0  0  0
  -21.6057   -4.3038   24.7232 C   0  0  0  0  0  0
  -21.8826   -3.8116   23.4355 C   0  0  0  0  0  0
  -21.9188   -4.6925   22.3401 C   0  0  0  0  0  0
  -22.7829  -13.5243   21.1852 C   0  0  0  0  0  0
  -22.1660   -4.2098   21.0986 F   0  0  0  0  0  0
  -21.5644   -3.4535   25.7754 F   0  0  0  0  0  0
  -30.0200  -13.3334   20.4294 N   0  0  0  0  0  0
  -26.2952  -12.9311   20.3260 N   0  0  0  0  0  0
  -25.9255  -11.6481   20.5693 N   0  0  0  0  0  0
  -22.0466  -12.8226   22.0407 N   0  0  0  0  0  0
  -25.4285  -15.1860   20.4060 N   0  0  0  0  0  0
  -31.8136  -14.7152   20.1625 O   0  0  0  0  0  0
  -21.6644   -6.8832   21.4226 O   0  0  0  0  0  0
  -22.3514  -14.5554   20.6717 O   0  0  0  0  0  0
  -24.6151  -31.8644   23.2096 C   0  0  0  0  0  0
  -25.9041  -32.4797   23.8389 C   0  0  1  0  0  0
  -27.2288  -27.4155   20.0961 C   0  0  0  0  0  0
  -25.5916  -33.8597   24.2324 N   0  0  0  0  0  0
  -23.4008  -30.4912   21.5482 C   0  0  2  0  0  0
  -24.8441  -28.9518   20.1151 C   0  0  0  0  0  0
  -22.7386  -29.4652   22.4960 C   0  0  0  0  0  0
  -18.0296  -28.1328   22.8555 C   0  0  0  0  0  0
  -24.1481  -36.7277   23.2645 C   0  0  0  0  0  0
  -25.9317  -30.8259   21.3640 C   0  0  0  0  0  0
  -26.0052  -29.4606   20.7077 C   0  0  0  0  0  0
  -27.1984  -28.7018   20.6870 C   0  0  0  0  0  0
  -26.0431  -26.9143   19.5136 C   0  0  0  0  0  0
  -24.8587  -27.6796   19.5161 C   0  0  0  0  0  0
  -23.6106  -29.8265   20.1623 C   0  0  0  0  0  0
  -25.4101  -36.3077   24.0356 C   0  0  1  0  0  0
  -20.5882  -28.3607   23.1336 C   0  0  2  0  0  0
  -20.6761  -26.9339   22.5404 C   0  0  0  0  0  0
  -19.5736  -26.6357   21.5198 C   0  0  0  0  0  0
  -18.1925  -26.7898   22.1615 C   0  0  0  0  0  0
  -19.1545  -28.8786   23.2955 C   0  0  0  0  0  0
  -18.9455  -30.1400   23.8943 C   0  0  0  0  0  0
  -17.6449  -30.6554   24.0567 C   0  0  0  0  0  0
  -25.9041  -34.9460   23.5127 C   0  0  0  0  0  0
  -16.5347  -29.9049   23.6321 C   0  0  0  0  0  0
  -16.7284  -28.6440   23.0405 C   0  0  0  0  0  0
  -26.4510  -31.6569   25.0710 C   0  0  0  0  0  0
  -25.3832  -31.3646   26.1496 C   0  0  0  0  0  0
  -27.0330  -30.3024   24.6032 C   0  0  0  0  0  0
  -27.6067  -32.4319   25.7474 C   0  0  0  0  0  0
  -27.5584  -37.1784   24.8485 C   0  0  0  0  0  0
  -21.4107  -29.3002   22.3714 N   0  0  0  0  0  0
  -26.4277  -37.3777   23.9463 N   0  0  0  0  0  0
  -24.6673  -31.0769   22.0979 N   0  0  0  0  0  0
  -23.4170  -28.8199   23.2993 O   0  0  0  0  0  0
  -28.4284  -26.7270   20.0969 O   0  0  0  0  0  0
  -26.5564  -34.8926   22.4667 O   0  0  0  0  0  0
  -23.5337  -32.1386   23.7496 O   0  0  0  0  0  0
  -28.8128  -21.7802   21.1631 C   0  0  0  0  0  0
  -29.7434  -20.7051   21.3001 C   0  0  0  0  0  0
  -31.1137  -21.0040   21.1120 C   0  0  0  0  0  0
  -29.2814  -23.0919   20.8706 C   0  0  0  0  0  0
  -31.4792  -22.3268   20.7827 C   0  0  0  0  0  0
  -32.9266  -22.7076   20.5442 C   0  0  0  0  0  0
  -29.3134  -19.3068   21.7932 C   0  0  0  0  0  0
  -28.3989  -24.3568   20.9282 C   0  0  0  0  0  0
  -29.5917  -18.0650   20.8713 C   0  0  0  0  0  0
  -30.3405  -16.8684   21.5596 C   0  0  0  0  0  0
  -28.5294  -25.3368   19.7216 C   0  0  0  0  0  0
  -30.5937  -23.3399   20.6901 N   0  0  0  0  0  0
  -29.9253  -15.5176   21.1190 N   0  0  0  0  0  0
  -32.3377  -19.8012   21.3464 Cl  0  0  0  0  0  0
  -31.4729  -12.4828   19.1079 H   0  0  0  0  0  0
  -30.3722  -11.3406   19.8300 H   0  0  0  0  0  0
  -29.7512  -11.7762   17.4336 H   0  0  0  0  0  0
  -29.6427  -13.4902   17.7505 H   0  0  0  0  0  0
  -27.8572  -11.2912   18.8418 H   0  0  0  0  0  0
  -27.3653  -12.5870   17.7817 H   0  0  0  0  0  0
  -27.6891  -14.2471   19.5445 H   0  0  0  0  0  0
  -28.6831  -11.9781   21.3372 H   0  0  0  0  0  0
  -28.4397  -13.6163   21.8535 H   0  0  0  0  0  0
  -25.2718   -9.5721   22.4709 H   0  0  0  0  0  0
  -23.9988   -7.4650   22.7467 H   0  0  0  0  0  0
  -21.0788   -8.8703   19.8942 H   0  0  0  0  0  0
  -22.3595  -10.9626   19.6126 H   0  0  0  0  0  0
  -21.1983   -7.6120   23.9680 H   0  0  0  0  0  0
  -21.1498   -6.0517   25.9074 H   0  0  0  0  0  0
  -22.0589   -2.7569   23.2882 H   0  0  0  0  0  0
  -22.4092  -11.9905   22.4818 H   0  0  0  0  0  0
  -21.1062  -13.1221   22.2586 H   0  0  0  0  0  0
  -24.6654  -15.8458   20.5162 H   0  0  0  0  0  0
  -26.2812  -15.6204   20.0750 H   0  0  0  0  0  0
  -26.7090  -32.5498   23.1129 H   0  0  0  0  0  0
  -25.0197  -33.9766   25.0558 H   0  0  0  0  0  0
  -22.6905  -31.3095   21.4122 H   0  0  0  0  0  0
  -23.3750  -35.9597   23.3288 H   0  0  0  0  0  0
  -24.3565  -36.8867   22.2053 H   0  0  0  0  0  0
  -23.7214  -37.6482   23.6654 H   0  0  0  0  0  0
  -26.0540  -31.5963   20.6012 H   0  0  0  0  0  0
  -26.8167  -30.8699   21.9865 H   0  0  0  0  0  0
  -28.1026  -29.1008   21.1253 H   0  0  0  0  0  0
  -26.0051  -25.9417   19.0499 H   0  0  0  0  0  0
  -23.9623  -27.2799   19.0620 H   0  0  0  0  0  0
  -23.7275  -30.6059   19.4091 H   0  0  0  0  0  0
  -22.7307  -29.2574   19.8591 H   0  0  0  0  0  0
  -25.1266  -36.1906   25.0843 H   0  0  0  0  0  0
  -21.0042  -28.3136   24.1437 H   0  0  0  0  0  0
  -20.5616  -26.2188   23.3557 H   0  0  0  0  0  0
  -21.6630  -26.7339   22.1207 H   0  0  0  0  0  0
  -19.6866  -25.6278   21.1195 H   0  0  0  0  0  0
  -19.6695  -27.3196   20.6745 H   0  0  0  0  0  0
  -17.4189  -26.6724   21.4012 H   0  0  0  0  0  0
  -18.0309  -25.9986   22.8947 H   0  0  0  0  0  0
  -19.7919  -30.7239   24.2298 H   0  0  0  0  0  0
  -17.4995  -31.6256   24.5116 H   0  0  0  0  0  0
  -15.5348  -30.2961   23.7599 H   0  0  0  0  0  0
  -15.8681  -28.0738   22.7143 H   0  0  0  0  0  0
  -24.6017  -30.6950   25.7894 H   0  0  0  0  0  0
  -24.9047  -32.2792   26.5028 H   0  0  0  0  0  0
  -25.8288  -30.8812   27.0203 H   0  0  0  0  0  0
  -26.2801  -29.6734   24.1270 H   0  0  0  0  0  0
  -27.4321  -29.7309   25.4420 H   0  0  0  0  0  0
  -27.8567  -30.4350   23.9009 H   0  0  0  0  0  0
  -27.2655  -33.3619   26.2046 H   0  0  0  0  0  0
  -28.3909  -32.6857   25.0330 H   0  0  0  0  0  0
  -28.0711  -31.8449   26.5409 H   0  0  0  0  0  0
  -28.2590  -38.0095   24.7555 H   0  0  0  0  0  0
  -28.1082  -36.2630   24.6261 H   0  0  0  0  0  0
  -27.2321  -37.1362   25.8889 H   0  0  0  0  0  0
  -20.9175  -29.8732   21.7007 H   0  0  0  0  0  0
  -26.0138  -38.2840   24.1501 H   0  0  0  0  0  0
  -27.7609  -21.6161   21.3528 H   0  0  0  0  0  0
  -33.3810  -22.0353   19.8180 H   0  0  0  0  0  0
  -33.4921  -22.6467   21.4726 H   0  0  0  0  0  0
  -33.0147  -23.7220   20.1551 H   0  0  0  0  0  0
  -28.2497  -19.3321   22.0345 H   0  0  0  0  0  0
  -29.8059  -19.1661   22.7562 H   0  0  0  0  0  0
  -28.6771  -24.8914   21.8367 H   0  0  0  0  0  0
  -27.3529  -24.0806   21.0640 H   0  0  0  0  0  0
  -30.1624  -18.3738   19.9946 H   0  0  0  0  0  0
  -28.6351  -17.7256   20.4737 H   0  0  0  0  0  0
  -30.1696  -16.8945   22.6369 H   0  0  0  0  0  0
  -31.4180  -16.9897   21.4452 H   0  0  0  0  0  0
  -27.8977  -25.0438   18.8847 H   0  0  0  0  0  0
  -29.5397  -25.2621   19.3201 H   0  0  0  0  0  0
  -28.9750  -15.2563   21.3329 H   0  0  0  0  0  0
  1 25  1  0  0  0
  1 30  2  0  0  0
  1 83  1  0  0  0
  2  3  1  0  0  0
  2 25  1  0  0  0
  2 85  1  0  0  0
  2 86  1  0  0  0
  3  4  1  0  0  0
  3 87  1  0  0  0
  3 88  1  0  0  0
  4  5  1  0  0  0
  4 89  1  0  0  0
  4 90  1  0  0  0
  5  6  1  0  0  0
  5 26  1  0  0  0
  5 91  1  0  0  0
  6 25  1  0  0  0
  6 92  1  0  0  0
  6 93  1  0  0  0
  7  8  2  0  0  0
  7 26  1  0  0  0
  7 29  1  0  0  0
  8  9  1  0  0  0
  8 22  1  0  0  0
  9 10  1  0  0  0
  9 27  2  0  0  0
 10 11  2  0  0  0
 10 15  1  0  0  0
 11 12  1  0  0  0
 11 94  1  0  0  0
 12 13  2  0  0  0
 12 95  1  0  0  0
 13 14  1  0  0  0
 13 31  1  0  0  0
 14 15  2  0  0  0
 14 96  1  0  0  0
 15 97  1  0  0  0
 16 17  2  0  0  0
 16 21  1  0  0  0
 16 31  1  0  0  0
 17 18  1  0  0  0
 17 98  1  0  0  0
 18 19  2  0  0  0
 18 99  1  0  0  0
 19 20  1  0  0  0
 19 24  1  0  0  0
 20 21  2  0  0  0
 20100  1  0  0  0
 21 23  1  0  0  0
 22 28  1  0  0  0
 22 32  2  0  0  0
 26 27  1  0  0  0
 28101  1  0  0  0
 28102  1  0  0  0
 29103  1  0  0  0
 29104  1  0  0  0
 33 34  1  0  0  0
 33 66  1  0  0  0
 33 70  2  0  0  0
 34 36  1  0  0  0
 34 59  1  0  0  0
 34105  1  0  0  0
 35 44  2  0  0  0
 35 45  1  0  0  0
 35 68  1  0  0  0
 36 56  1  0  0  0
 36106  1  0  0  0
 37 39  1  0  0  0
 37 47  1  0  0  0
 37 66  1  0  0  0
 37107  1  0  0  0
 38 43  2  0  0  0
 38 46  1  0  0  0
 38 47  1  0  0  0
 39 64  1  0  0  0
 39 67  2  0  0  0
 40 52  1  0  0  0
 40 53  2  0  0  0
 40 58  1  0  0  0
 41108  1  0  0  0
 41109  1  0  0  0
 41110  1  0  0  0
 41 48  1  0  0  0
 42 43  1  0  0  0
 42 66  1  0  0  0
 42111  1  0  0  0
 42112  1  0  0  0
 43 44  1  0  0  0
 44113  1  0  0  0
 45 46  2  0  0  0
 45114  1  0  0  0
 46115  1  0  0  0
 47116  1  0  0  0
 47117  1  0  0  0
 48 56  1  0  0  0
 48 65  1  0  0  0
 48118  1  0  0  0
 49 50  1  0  0  0
 49 53  1  0  0  0
 49 64  1  0  0  0
 49119  1  0  0  0
 50 51  1  0  0  0
 50120  1  0  0  0
 50121  1  0  0  0
 51 52  1  0  0  0
 51122  1  0  0  0
 51123  1  0  0  0
 52124  1  0  0  0
 52125  1  0  0  0
 53 54  1  0  0  0
 54 55  2  0  0  0
 54126  1  0  0  0
 55 57  1  0  0  0
 55127  1  0  0  0
 56 69  2  0  0  0
 57 58  2  0  0  0
 57128  1  0  0  0
 58129  1  0  0  0
 59 60  1  0  0  0
 59 61  1  0  0  0
 59 62  1  0  0  0
 60130  1  0  0  0
 60131  1  0  0  0
 60132  1  0  0  0
 61133  1  0  0  0
 61134  1  0  0  0
 61135  1  0  0  0
 62136  1  0  0  0
 62137  1  0  0  0
 62138  1  0  0  0
 63 65  1  0  0  0
 63139  1  0  0  0
 63140  1  0  0  0
 63141  1  0  0  0
 64142  1  0  0  0
 65143  1  0  0  0
 68 81  1  0  0  0
 71 72  2  0  0  0
 71 74  1  0  0  0
 71144  1  0  0  0
 72 73  1  0  0  0
 72 77  1  0  0  0
 73 75  2  0  0  0
 73 84  1  0  0  0
 74 78  1  0  0  0
 74 82  2  0  0  0
 75 76  1  0  0  0
 75 82  1  0  0  0
 76145  1  0  0  0
 76146  1  0  0  0
 76147  1  0  0  0
 77 79  1  0  0  0
 77148  1  0  0  0
 77149  1  0  0  0
 78 81  1  0  0  0
 78150  1  0  0  0
 78151  1  0  0  0
 79 80  1  0  0  0
 79152  1  0  0  0
 79153  1  0  0  0
 80 83  1  0  0  0
 80154  1  0  0  0
 80155  1  0  0  0
 81156  1  0  0  0
 81157  1  0  0  0
 83158  1  0  0  0
M  ISO  4   1 100  68 101  81 101  83 100
M  END
> <chiral flag>
0

> <version>
0

> <s_m_source_file>
/data/baiqing/PycharmProjects/Reinvent-master-3.2/result/LINK_invent/BTK/process_docking_weight1_custom_sum_contain_oxygen_bond_distance_aromatic_linkinvent_7_9_3/rearranged_h_0040.sdf

> <i_m_source_file_index>
3

> <r_mmod_Potential_Energy-OPLS-2005>
-130.253158569336

> <r_mmod_Stretch_Energy-OPLS-2005>
45.9739837646484

> <r_mmod_Bend_Energy-OPLS-2005>
117.561683654785

> <r_mmod_Torsional_Energy-OPLS-2005>
212.919036865234

> <r_mmod_Improper_Torsional_Energy-OPLS-2005>
4.12713289260864

> <r_mmod_Van_der_Waal_Energy-OPLS-2005>
153.443252563477

> <r_mmod_Electrostatic_Energy-OPLS-2005>
-462.272857666016

> <r_mmod_Solvation_Energy-OPLS-2005>
-220.38737487793

> <b_mmod_Minimization_Converged-OPLS-2005>
0

> <r_mmod_RMS_Derivative-OPLS-2005>
3.28446674346924

$$$$
3
                    3D
 Structure written by MMmdl.
171179  0  0  1  0            999 V2000
  -30.7612  -14.3998   20.6499 C   0  0  0  0  0  0
  -30.4178  -12.2854   19.4338 C   0  0  0  0  0  0
  -29.4939  -12.4929   18.2190 C   0  0  0  0  0  0
  -28.0156  -12.3596   18.6324 C   0  0  0  0  0  0
  -27.6711  -13.2026   19.8912 C   0  0  2  0  0  0
  -28.7052  -12.9709   21.0156 C   0  0  0  0  0  0
  -25.2572  -13.8150   20.5641 C   0  0  0  0  0  0
  -24.1864  -13.0454   20.9197 C   0  0  0  0  0  0
  -24.6415  -11.6916   20.8809 C   0  0  0  0  0  0
  -23.9096  -10.4307   21.0478 C   0  0  0  0  0  0
  -24.3668   -9.4199   21.9248 C   0  0  0  0  0  0
  -23.6321   -8.2226   22.0788 C   0  0  0  0  0  0
  -22.4283   -8.0310   21.3595 C   0  0  0  0  0  0
  -21.9949   -9.0288   20.4681 C   0  0  0  0  0  0
  -22.7282  -10.2159   20.3102 C   0  0  0  0  0  0
  -21.6855   -6.0776   22.5300 C   0  0  0  0  0  0
  -21.4019   -6.5672   23.8230 C   0  0  0  0  0  0
  -21.3640   -5.6816   24.9194 C   0  0  0  0  0  0
  -21.6047   -4.3070   24.7225 C   0  0  0  0  0  0
  -21.8806   -3.8180   23.4338 C   0  0  0  0  0  0
  -21.9187   -4.6999   22.3413 C   0  0  0  0  0  0
  -22.7860  -13.5214   21.1840 C   0  0  0  0  0  0
  -22.1662   -4.2186   21.0985 F   0  0  0  0  0  0
  -21.5608   -3.4560   25.7734 F   0  0  0  0  0  0
  -30.0445  -13.2573   20.4738 N   0  0  0  0  0  0
  -26.3071  -12.9333   20.3466 N   0  0  0  0  0  0
  -25.9351  -11.6500   20.5871 N   0  0  0  0  0  0
  -22.0525  -12.8277   22.0419 N   0  0  0  0  0  0
  -25.4238  -15.1894   20.3923 N   0  0  0  0  0  0
  -31.7973  -14.6347   20.0221 O   0  0  0  0  0  0
  -21.6629   -6.8935   21.4261 O   0  0  0  0  0  0
  -22.3530  -14.5536   20.6662 O   0  0  0  0  0  0
  -24.6266  -31.8677   23.2084 C   0  0  0  0  0  0
  -25.9137  -32.4846   23.8419 C   0  0  1  0  0  0
  -27.2256  -27.4157   20.0854 C   0  0  0  0  0  0
  -25.5941  -33.8631   24.2359 N   0  0  0  0  0  0
  -23.4169  -30.4877   21.5543 C   0  0  2  0  0  0
  -24.8575  -28.9533   20.1116 C   0  0  0  0  0  0
  -22.7503  -29.4712   22.5066 C   0  0  0  0  0  0
  -18.0328  -28.1466   22.8520 C   0  0  0  0  0  0
  -24.1457  -36.7322   23.2619 C   0  0  0  0  0  0
  -25.9460  -30.8258   21.3597 C   0  0  0  0  0  0
  -26.0210  -29.4611   20.7019 C   0  0  0  0  0  0
  -27.2193  -28.7058   20.6718 C   0  0  0  0  0  0
  -26.0486  -26.9351   19.4706 C   0  0  0  0  0  0
  -24.8675  -27.6958   19.4830 C   0  0  0  0  0  0
  -23.6179  -29.8118   20.1727 C   0  0  0  0  0  0
  -25.4097  -36.3146   24.0324 C   0  0  1  0  0  0
  -20.5937  -28.3799   23.1323 C   0  0  2  0  0  0
  -20.6891  -26.9578   22.5373 C   0  0  0  0  0  0
  -19.5869  -26.6624   21.5151 C   0  0  0  0  0  0
  -18.2069  -26.7993   22.1661 C   0  0  0  0  0  0
  -19.1582  -28.8948   23.2904 C   0  0  0  0  0  0
  -18.9509  -30.1526   23.8938 C   0  0  0  0  0  0
  -17.6497  -30.6641   24.0588 C   0  0  0  0  0  0
  -25.9051  -34.9494   23.5139 C   0  0  0  0  0  0
  -16.5403  -29.9142   23.6387 C   0  0  0  0  0  0
  -16.7314  -28.6562   23.0437 C   0  0  0  0  0  0
  -26.4483  -31.6646   25.0785 C   0  0  0  0  0  0
  -25.3722  -31.3721   26.1512 C   0  0  0  0  0  0
  -27.0262  -30.3079   24.6180 C   0  0  0  0  0  0
  -27.6095  -32.4322   25.7564 C   0  0  0  0  0  0
  -27.5583  -37.1814   24.8470 C   0  0  0  0  0  0
  -21.4228  -29.3157   22.3765 N   0  0  0  0  0  0
  -26.4316  -37.3834   23.9380 N   0  0  0  0  0  0
  -24.6839  -31.0787   22.0962 N   0  0  0  0  0  0
  -23.4225  -28.8261   23.3154 O   0  0  0  0  0  0
  -28.3234  -26.5837   20.1692 O   0  0  0  0  0  0
  -26.5636  -34.8941   22.4713 O   0  0  0  0  0  0
  -23.5449  -32.1404   23.7450 O   0  0  0  0  0  0
  -29.4450  -20.9132   22.4134 C   0  0  0  0  0  0
  -28.7832  -19.7312   22.2063 C   0  0  0  0  0  0
  -27.5407  -20.1489   21.6419 C   0  0  0  0  0  0
  -22.3831  -20.5030   24.2216 C   0  0  0  0  0  0
  -29.2493  -18.3277   22.5496 C   0  0  0  0  0  0
  -26.3730  -19.2624   21.2737 C   0  0  0  0  0  0
  -23.5224  -19.5031   23.9908 C   0  0  0  0  0  0
  -30.3060  -17.8116   21.5597 C   0  0  0  0  0  0
  -25.5132  -18.8828   22.4978 C   0  0  0  0  0  0
  -24.4267  -19.9202   22.8180 C   0  0  0  0  0  0
  -29.1183  -24.3373   21.1137 C   0  0  0  0  0  0
  -28.8087  -23.3790   22.3050 C   0  0  0  0  0  0
  -31.0053  -16.4966   21.9754 C   0  0  0  0  0  0
  -28.0108  -25.3935   20.9292 C   0  0  0  0  0  0
  -27.4525  -21.4755   21.5393 N   0  0  0  0  0  0
  -28.6228  -21.9533   22.0277 N   0  0  0  0  0  0
  -30.2988  -15.2687   21.5657 N   0  0  0  0  0  0
  -31.4642  -12.3713   19.1324 H   0  0  0  0  0  0
  -30.3224  -11.2710   19.8227 H   0  0  0  0  0  0
  -29.7323  -11.7646   17.4402 H   0  0  0  0  0  0
  -29.6768  -13.4792   17.7876 H   0  0  0  0  0  0
  -27.8249  -11.3039   18.8308 H   0  0  0  0  0  0
  -27.3677  -12.6367   17.7999 H   0  0  0  0  0  0
  -27.7303  -14.2544   19.6104 H   0  0  0  0  0  0
  -28.6615  -11.9341   21.3584 H   0  0  0  0  0  0
  -28.4544  -13.5707   21.8909 H   0  0  0  0  0  0
  -25.2798   -9.5640   22.4862 H   0  0  0  0  0  0
  -24.0018   -7.4598   22.7527 H   0  0  0  0  0  0
  -21.0872   -8.8845   19.8993 H   0  0  0  0  0  0
  -22.3778  -10.9751   19.6236 H   0  0  0  0  0  0
  -21.2027   -7.6182   23.9756 H   0  0  0  0  0  0
  -21.1470   -6.0553   25.9110 H   0  0  0  0  0  0
  -22.0593   -2.7636   23.2834 H   0  0  0  0  0  0
  -22.4092  -11.9866   22.4730 H   0  0  0  0  0  0
  -21.1168  -13.1354   22.2709 H   0  0  0  0  0  0
  -24.6298  -15.8191   20.4058 H   0  0  0  0  0  0
  -26.2362  -15.5997   19.9507 H   0  0  0  0  0  0
  -26.7243  -32.5521   23.1214 H   0  0  0  0  0  0
  -25.0027  -33.9797   25.0459 H   0  0  0  0  0  0
  -22.7081  -31.3074   21.4163 H   0  0  0  0  0  0
  -23.3758  -35.9634   23.3330 H   0  0  0  0  0  0
  -24.3529  -36.8917   22.2038 H   0  0  0  0  0  0
  -23.7218  -37.6517   23.6622 H   0  0  0  0  0  0
  -26.0741  -31.5907   20.5931 H   0  0  0  0  0  0
  -26.8313  -30.8716   21.9836 H   0  0  0  0  0  0
  -28.1227  -29.0878   21.1300 H   0  0  0  0  0  0
  -26.0423  -25.9600   18.9994 H   0  0  0  0  0  0
  -23.9671  -27.3163   19.0172 H   0  0  0  0  0  0
  -23.6921  -30.5744   19.4009 H   0  0  0  0  0  0
  -22.7523  -29.2108   19.8985 H   0  0  0  0  0  0
  -25.1275  -36.2001   25.0836 H   0  0  0  0  0  0
  -21.0008  -28.3383   24.1460 H   0  0  0  0  0  0
  -20.5862  -26.2377   23.3518 H   0  0  0  0  0  0
  -21.6767  -26.7684   22.1134 H   0  0  0  0  0  0
  -19.7097  -25.6630   21.0983 H   0  0  0  0  0  0
  -19.6736  -27.3598   20.6798 H   0  0  0  0  0  0
  -17.4257  -26.6570   21.4164 H   0  0  0  0  0  0
  -18.0728  -26.0158   22.9137 H   0  0  0  0  0  0
  -19.8000  -30.7341   24.2320 H   0  0  0  0  0  0
  -17.5092  -31.6343   24.5165 H   0  0  0  0  0  0
  -15.5427  -30.3062   23.7717 H   0  0  0  0  0  0
  -15.8729  -28.0841   22.7250 H   0  0  0  0  0  0
  -24.5957  -30.7011   25.7826 H   0  0  0  0  0  0
  -24.8798  -32.2809   26.4957 H   0  0  0  0  0  0
  -25.8022  -30.8899   27.0306 H   0  0  0  0  0  0
  -26.2760  -29.6950   24.1162 H   0  0  0  0  0  0
  -27.3914  -29.7247   25.4655 H   0  0  0  0  0  0
  -27.8680  -30.4401   23.9389 H   0  0  0  0  0  0
  -27.2797  -33.3649   26.2157 H   0  0  0  0  0  0
  -28.3893  -32.6857   25.0374 H   0  0  0  0  0  0
  -28.0786  -31.8434   26.5463 H   0  0  0  0  0  0
  -28.2638  -38.0077   24.7518 H   0  0  0  0  0  0
  -28.1029  -36.2619   24.6279 H   0  0  0  0  0  0
  -27.2282  -37.1464   25.8871 H   0  0  0  0  0  0
  -20.9531  -29.8762   21.6783 H   0  0  0  0  0  0
  -26.0201  -38.2917   24.1369 H   0  0  0  0  0  0
  -30.4104  -21.1079   22.8565 H   0  0  0  0  0  0
  -21.7612  -20.2056   25.0647 H   0  0  0  0  0  0
  -21.7373  -20.5760   23.3453 H   0  0  0  0  0  0
  -22.7766  -21.4973   24.4269 H   0  0  0  0  0  0
  -28.4207  -17.6209   22.5991 H   0  0  0  0  0  0
  -29.6716  -18.3188   23.5546 H   0  0  0  0  0  0
  -26.7384  -18.3473   20.8107 H   0  0  0  0  0  0
  -25.7462  -19.7357   20.5167 H   0  0  0  0  0  0
  -23.0909  -18.5200   23.8005 H   0  0  0  0  0  0
  -24.1214  -19.4068   24.9008 H   0  0  0  0  0  0
  -29.8682  -17.7229   20.5634 H   0  0  0  0  0  0
  -31.0832  -18.5762   21.4813 H   0  0  0  0  0  0
  -26.1378  -18.7109   23.3737 H   0  0  0  0  0  0
  -25.0218  -17.9288   22.3041 H   0  0  0  0  0  0
  -24.8910  -20.8820   23.0405 H   0  0  0  0  0  0
  -23.8101  -20.0812   21.9332 H   0  0  0  0  0  0
  -29.3205  -23.7903   20.1925 H   0  0  0  0  0  0
  -30.0394  -24.8732   21.3330 H   0  0  0  0  0  0
  -27.9363  -23.7198   22.8684 H   0  0  0  0  0  0
  -29.6350  -23.4474   23.0113 H   0  0  0  0  0  0
  -31.1695  -16.4599   23.0530 H   0  0  0  0  0  0
  -32.0072  -16.5215   21.5465 H   0  0  0  0  0  0
  -27.7217  -25.7457   21.9207 H   0  0  0  0  0  0
  -27.1517  -24.8593   20.5279 H   0  0  0  0  0  0
  -29.4548  -15.0188   22.0630 H   0  0  0  0  0  0
  1 25  1  0  0  0
  1 30  2  0  0  0
  1 87  1  0  0  0
  2  3  1  0  0  0
  2 25  1  0  0  0
  2 88  1  0  0  0
  2 89  1  0  0  0
  3  4  1  0  0  0
  3 90  1  0  0  0
  3 91  1  0  0  0
  4  5  1  0  0  0
  4 92  1  0  0  0
  4 93  1  0  0  0
  5  6  1  0  0  0
  5 26  1  0  0  0
  5 94  1  0  0  0
  6 25  1  0  0  0
  6 95  1  0  0  0
  6 96  1  0  0  0
  7  8  2  0  0  0
  7 26  1  0  0  0
  7 29  1  0  0  0
  8  9  1  0  0  0
  8 22  1  0  0  0
  9 10  1  0  0  0
  9 27  2  0  0  0
 10 11  2  0  0  0
 10 15  1  0  0  0
 11 12  1  0  0  0
 11 97  1  0  0  0
 12 13  2  0  0  0
 12 98  1  0  0  0
 13 14  1  0  0  0
 13 31  1  0  0  0
 14 15  2  0  0  0
 14 99  1  0  0  0
 15100  1  0  0  0
 16 17  2  0  0  0
 16 21  1  0  0  0
 16 31  1  0  0  0
 17 18  1  0  0  0
 17101  1  0  0  0
 18 19  2  0  0  0
 18102  1  0  0  0
 19 20  1  0  0  0
 19 24  1  0  0  0
 20 21  2  0  0  0
 20103  1  0  0  0
 21 23  1  0  0  0
 22 28  1  0  0  0
 22 32  2  0  0  0
 26 27  1  0  0  0
 28104  1  0  0  0
 28105  1  0  0  0
 29106  1  0  0  0
 29107  1  0  0  0
 33 34  1  0  0  0
 33 66  1  0  0  0
 33 70  2  0  0  0
 34 36  1  0  0  0
 34 59  1  0  0  0
 34108  1  0  0  0
 35 44  2  0  0  0
 35 45  1  0  0  0
 35 68  1  0  0  0
 36 56  1  0  0  0
 36109  1  0  0  0
 37 39  1  0  0  0
 37 47  1  0  0  0
 37 66  1  0  0  0
 37110  1  0  0  0
 38 43  2  0  0  0
 38 46  1  0  0  0
 38 47  1  0  0  0
 39 64  1  0  0  0
 39 67  2  0  0  0
 40 52  1  0  0  0
 40 53  2  0  0  0
 40 58  1  0  0  0
 41111  1  0  0  0
 41112  1  0  0  0
 41113  1  0  0  0
 41 48  1  0  0  0
 42 43  1  0  0  0
 42 66  1  0  0  0
 42114  1  0  0  0
 42115  1  0  0  0
 43 44  1  0  0  0
 44116  1  0  0  0
 45 46  2  0  0  0
 45117  1  0  0  0
 46118  1  0  0  0
 47119  1  0  0  0
 47120  1  0  0  0
 48 56  1  0  0  0
 48 65  1  0  0  0
 48121  1  0  0  0
 49 50  1  0  0  0
 49 53  1  0  0  0
 49 64  1  0  0  0
 49122  1  0  0  0
 50 51  1  0  0  0
 50123  1  0  0  0
 50124  1  0  0  0
 51 52  1  0  0  0
 51125  1  0  0  0
 51126  1  0  0  0
 52127  1  0  0  0
 52128  1  0  0  0
 53 54  1  0  0  0
 54 55  2  0  0  0
 54129  1  0  0  0
 55 57  1  0  0  0
 55130  1  0  0  0
 56 69  2  0  0  0
 57 58  2  0  0  0
 57131  1  0  0  0
 58132  1  0  0  0
 59 60  1  0  0  0
 59 61  1  0  0  0
 59 62  1  0  0  0
 60133  1  0  0  0
 60134  1  0  0  0
 60135  1  0  0  0
 61136  1  0  0  0
 61137  1  0  0  0
 61138  1  0  0  0
 62139  1  0  0  0
 62140  1  0  0  0
 62141  1  0  0  0
 63 65  1  0  0  0
 63142  1  0  0  0
 63143  1  0  0  0
 63144  1  0  0  0
 64145  1  0  0  0
 65146  1  0  0  0
 68 84  1  0  0  0
 71 72  2  0  0  0
 71 86  1  0  0  0
 71147  1  0  0  0
 72 73  1  0  0  0
 72 75  1  0  0  0
 73 76  1  0  0  0
 73 85  2  0  0  0
 74 77  1  0  0  0
 74148  1  0  0  0
 74149  1  0  0  0
 74150  1  0  0  0
 75 78  1  0  0  0
 75151  1  0  0  0
 75152  1  0  0  0
 76 79  1  0  0  0
 76153  1  0  0  0
 76154  1  0  0  0
 77 80  1  0  0  0
 77155  1  0  0  0
 77156  1  0  0  0
 78 83  1  0  0  0
 78157  1  0  0  0
 78158  1  0  0  0
 79 80  1  0  0  0
 79159  1  0  0  0
 79160  1  0  0  0
 80161  1  0  0  0
 80162  1  0  0  0
 81 82  1  0  0  0
 81 84  1  0  0  0
 81163  1  0  0  0
 81164  1  0  0  0
 82 86  1  0  0  0
 82165  1  0  0  0
 82166  1  0  0  0
 83 87  1  0  0  0
 83167  1  0  0  0
 83168  1  0  0  0
 84169  1  0  0  0
 84170  1  0  0  0
 85 86  1  0  0  0
 87171  1  0  0  0
M  ISO  4   1 100  68 101  84 101  87 100
M  END
> <chiral flag>
0

> <version>
0

> <s_m_source_file>
/data/baiqing/PycharmProjects/Reinvent-master-3.2/result/LINK_invent/BTK/process_docking_weight1_custom_sum_contain_oxygen_bond_distance_aromatic_linkinvent_7_9_3/rearranged_h_0040.sdf

> <i_m_source_file_index>
4

> <r_mmod_Potential_Energy-OPLS-2005>
-71.421272277832

> <r_mmod_Stretch_Energy-OPLS-2005>
37.5690498352051

> <r_mmod_Bend_Energy-OPLS-2005>
101.870994567871

> <r_mmod_Torsional_Energy-OPLS-2005>
249.717956542969

> <r_mmod_Improper_Torsional_Energy-OPLS-2005>
4.51144218444824

> <r_mmod_Van_der_Waal_Energy-OPLS-2005>
122.680191040039

> <r_mmod_Electrostatic_Energy-OPLS-2005>
-390.124084472656

> <r_mmod_Solvation_Energy-OPLS-2005>
-213.807312011719

> <b_mmod_Minimization_Converged-OPLS-2005>
0

> <r_mmod_RMS_Derivative-OPLS-2005>
7.50941610336304

$$$$
4
                    3D
 Structure written by MMmdl.
168176  0  0  1  0            999 V2000
  -30.7305  -14.4201   20.5879 C   0  0  0  0  0  0
  -30.4224  -12.2902   19.4072 C   0  0  0  0  0  0
  -29.4922  -12.5067   18.1980 C   0  0  0  0  0  0
  -28.0141  -12.3680   18.6138 C   0  0  0  0  0  0
  -27.6667  -13.1918   19.8824 C   0  0  2  0  0  0
  -28.7109  -12.9056   20.9856 C   0  0  0  0  0  0
  -25.2645  -13.8136   20.5647 C   0  0  0  0  0  0
  -24.1856  -13.0420   20.9113 C   0  0  0  0  0  0
  -24.6399  -11.6896   20.8738 C   0  0  0  0  0  0
  -23.9056  -10.4276   21.0428 C   0  0  0  0  0  0
  -24.3594   -9.4206   21.9200 C   0  0  0  0  0  0
  -23.6266   -8.2248   22.0770 C   0  0  0  0  0  0
  -22.4275   -8.0277   21.3522 C   0  0  0  0  0  0
  -21.9890   -9.0261   20.4651 C   0  0  0  0  0  0
  -22.7223  -10.2139   20.3088 C   0  0  0  0  0  0
  -21.6845   -6.0750   22.5259 C   0  0  0  0  0  0
  -21.4010   -6.5648   23.8193 C   0  0  0  0  0  0
  -21.3656   -5.6796   24.9144 C   0  0  0  0  0  0
  -21.6051   -4.3057   24.7218 C   0  0  0  0  0  0
  -21.8813   -3.8150   23.4333 C   0  0  0  0  0  0
  -21.9181   -4.6974   22.3392 C   0  0  0  0  0  0
  -22.7882  -13.5275   21.1763 C   0  0  0  0  0  0
  -22.1652   -4.2168   21.0973 F   0  0  0  0  0  0
  -21.5636   -3.4536   25.7725 F   0  0  0  0  0  0
  -30.0316  -13.2591   20.4448 N   0  0  0  0  0  0
  -26.3055  -12.9264   20.3383 N   0  0  0  0  0  0
  -25.9322  -11.6438   20.5767 N   0  0  0  0  0  0
  -22.0507  -12.8286   22.0351 N   0  0  0  0  0  0
  -25.4401  -15.1827   20.4003 N   0  0  0  0  0  0
  -31.8558  -14.5815   20.1131 O   0  0  0  0  0  0
  -21.6625   -6.8890   21.4225 O   0  0  0  0  0  0
  -22.3561  -14.5570   20.6645 O   0  0  0  0  0  0
  -24.6327  -31.8763   23.2211 C   0  0  0  0  0  0
  -25.9191  -32.4878   23.8477 C   0  0  1  0  0  0
  -27.2394  -27.4709   20.0665 C   0  0  0  0  0  0
  -25.6057  -33.8667   24.2429 N   0  0  0  0  0  0
  -23.4345  -30.5054   21.5728 C   0  0  2  0  0  0
  -24.8536  -28.9762   20.1168 C   0  0  0  0  0  0
  -22.7740  -29.4875   22.5241 C   0  0  0  0  0  0
  -17.9916  -28.1189   22.8764 C   0  0  0  0  0  0
  -24.1513  -36.7330   23.2629 C   0  0  0  0  0  0
  -25.9479  -30.8411   21.3722 C   0  0  0  0  0  0
  -26.0156  -29.4818   20.7135 C   0  0  0  0  0  0
  -27.2107  -28.7332   20.6965 C   0  0  0  0  0  0
  -26.0611  -26.9811   19.4525 C   0  0  0  0  0  0
  -24.8686  -27.7218   19.4873 C   0  0  0  0  0  0
  -23.6202  -29.8421   20.1817 C   0  0  0  0  0  0
  -25.4126  -36.3135   24.0333 C   0  0  1  0  0  0
  -20.4768  -28.4577   22.7828 C   0  0  2  0  0  0
  -20.6898  -26.9611   22.5286 C   0  0  0  0  0  0
  -19.5502  -26.4570   21.6190 C   0  0  0  0  0  0
  -18.1538  -26.7508   22.2107 C   0  0  0  0  0  0
  -19.1128  -28.8961   23.2548 C   0  0  0  0  0  0
  -18.9339  -30.1480   23.8775 C   0  0  0  0  0  0
  -17.6362  -30.6522   24.0793 C   0  0  0  0  0  0
  -25.9052  -34.9497   23.5140 C   0  0  0  0  0  0
  -16.5189  -29.8981   23.6767 C   0  0  0  0  0  0
  -16.6968  -28.6289   23.0919 C   0  0  0  0  0  0
  -26.4536  -31.6599   25.0771 C   0  0  0  0  0  0
  -25.3772  -31.3704   26.1489 C   0  0  0  0  0  0
  -27.0348  -30.3035   24.6119 C   0  0  0  0  0  0
  -27.6117  -32.4291   25.7558 C   0  0  0  0  0  0
  -27.5581  -37.1830   24.8457 C   0  0  0  0  0  0
  -21.4535  -29.4433   22.3955 N   0  0  0  0  0  0
  -26.4307  -37.3805   23.9383 N   0  0  0  0  0  0
  -24.6930  -31.0856   22.1147 N   0  0  0  0  0  0
  -23.4247  -28.7670   23.2837 O   0  0  0  0  0  0
  -28.4033  -26.7305   20.0508 O   0  0  0  0  0  0
  -26.5560  -34.8947   22.4661 O   0  0  0  0  0  0
  -23.5507  -32.1529   23.7565 O   0  0  0  0  0  0
  -28.0780  -23.3129   19.5800 C   0  0  0  0  0  0
  -27.4938  -23.4716   20.8220 C   0  0  0  0  0  0
  -28.2760  -25.3898   20.1164 C   0  0  0  0  0  0
  -28.2027  -22.0836   18.7254 C   0  0  0  0  0  0
  -27.3842  -25.4109   22.4659 C   0  0  0  0  0  0
  -26.7742  -22.5070   21.7314 C   0  0  0  0  0  0
  -25.8616  -21.4948   21.0145 C   0  0  0  0  0  0
  -25.1233  -20.5022   21.9418 C   0  0  0  0  0  0
  -25.9819  -19.7660   22.9962 C   0  0  0  0  0  0
  -27.3115  -19.2121   22.4505 C   0  0  0  0  0  0
  -27.6738  -17.7797   22.8658 C   0  0  0  0  0  0
  -28.9396  -17.3222   22.1226 C   0  0  0  0  0  0
  -29.0326  -15.8070   21.9301 C   0  0  0  0  0  0
  -28.5777  -24.5389   19.1398 N   0  0  0  0  0  0
  -27.7196  -24.7977   21.1905 N   0  0  0  0  0  0
  -30.0839  -15.5340   20.9584 N   0  0  0  0  0  0
  -31.4643  -12.3969   19.1006 H   0  0  0  0  0  0
  -30.3314  -11.2700   19.7836 H   0  0  0  0  0  0
  -29.7213  -11.7918   17.4076 H   0  0  0  0  0  0
  -29.6682  -13.4966   17.7729 H   0  0  0  0  0  0
  -27.8206  -11.3091   18.7951 H   0  0  0  0  0  0
  -27.3650  -12.6528   17.7895 H   0  0  0  0  0  0
  -27.7249  -14.2465   19.6098 H   0  0  0  0  0  0
  -28.7007  -11.8459   21.2450 H   0  0  0  0  0  0
  -28.4744  -13.3810   21.9298 H   0  0  0  0  0  0
  -25.2742   -9.5677   22.4771 H   0  0  0  0  0  0
  -23.9966   -7.4654   22.7508 H   0  0  0  0  0  0
  -21.0812   -8.8784   19.8963 H   0  0  0  0  0  0
  -22.3672  -10.9686   19.6213 H   0  0  0  0  0  0
  -21.2000   -7.6156   23.9693 H   0  0  0  0  0  0
  -21.1482   -6.0527   25.9044 H   0  0  0  0  0  0
  -22.0604   -2.7627   23.2815 H   0  0  0  0  0  0
  -22.4082  -11.9938   22.4747 H   0  0  0  0  0  0
  -21.1156  -13.1376   22.2632 H   0  0  0  0  0  0
  -24.6846  -15.8490   20.5075 H   0  0  0  0  0  0
  -26.3024  -15.6059   20.0793 H   0  0  0  0  0  0
  -26.7278  -32.5570   23.1259 H   0  0  0  0  0  0
  -25.0251  -33.9832   25.0607 H   0  0  0  0  0  0
  -22.7333  -31.3317   21.4315 H   0  0  0  0  0  0
  -23.3763  -35.9670   23.3313 H   0  0  0  0  0  0
  -24.3623  -36.8912   22.2039 H   0  0  0  0  0  0
  -23.7283  -37.6551   23.6623 H   0  0  0  0  0  0
  -26.0610  -31.6090   20.6067 H   0  0  0  0  0  0
  -26.8379  -30.8913   21.9860 H   0  0  0  0  0  0
  -28.1070  -29.1176   21.1645 H   0  0  0  0  0  0
  -26.0598  -26.0284   18.9414 H   0  0  0  0  0  0
  -23.9780  -27.3349   19.0138 H   0  0  0  0  0  0
  -23.7219  -30.6220   19.4248 H   0  0  0  0  0  0
  -22.7400  -29.2638   19.8967 H   0  0  0  0  0  0
  -25.1305  -36.1984   25.0820 H   0  0  0  0  0  0
  -20.1579  -28.6789   21.7642 H   0  0  0  0  0  0
  -20.6805  -26.4207   23.4743 H   0  0  0  0  0  0
  -21.6566  -26.7684   22.0602 H   0  0  0  0  0  0
  -19.6521  -25.3848   21.4433 H   0  0  0  0  0  0
  -19.6311  -26.9201   20.6335 H   0  0  0  0  0  0
  -17.3984  -26.6359   21.4317 H   0  0  0  0  0  0
  -17.9260  -25.9993   22.9670 H   0  0  0  0  0  0
  -19.7906  -30.7509   24.1475 H   0  0  0  0  0  0
  -17.4984  -31.6232   24.5331 H   0  0  0  0  0  0
  -15.5210  -30.2854   23.8327 H   0  0  0  0  0  0
  -15.8269  -28.0514   22.8003 H   0  0  0  0  0  0
  -24.5938  -30.7076   25.7795 H   0  0  0  0  0  0
  -24.8978  -32.2862   26.4955 H   0  0  0  0  0  0
  -25.8087  -30.8832   27.0234 H   0  0  0  0  0  0
  -26.2879  -29.6804   24.1167 H   0  0  0  0  0  0
  -27.4127  -29.7255   25.4560 H   0  0  0  0  0  0
  -27.8732  -30.4378   23.9277 H   0  0  0  0  0  0
  -27.2736  -33.3573   26.2183 H   0  0  0  0  0  0
  -28.3904  -32.6858   25.0366 H   0  0  0  0  0  0
  -28.0797  -31.8360   26.5425 H   0  0  0  0  0  0
  -28.2601  -38.0129   24.7490 H   0  0  0  0  0  0
  -28.1086  -36.2646   24.6310 H   0  0  0  0  0  0
  -27.2295  -37.1511   25.8867 H   0  0  0  0  0  0
  -21.0682  -30.1562   21.7905 H   0  0  0  0  0  0
  -26.0201  -38.2878   24.1369 H   0  0  0  0  0  0
  -28.8786  -22.2354   17.8831 H   0  0  0  0  0  0
  -27.2383  -21.7864   18.3106 H   0  0  0  0  0  0
  -28.5862  -21.2433   19.3039 H   0  0  0  0  0  0
  -26.3367  -25.7147   22.4787 H   0  0  0  0  0  0
  -28.0167  -26.2789   22.6496 H   0  0  0  0  0  0
  -27.5684  -24.7032   23.2751 H   0  0  0  0  0  0
  -26.1460  -23.0571   22.4302 H   0  0  0  0  0  0
  -27.5202  -21.9983   22.3407 H   0  0  0  0  0  0
  -26.4326  -20.9120   20.2992 H   0  0  0  0  0  0
  -25.1254  -22.0470   20.4265 H   0  0  0  0  0  0
  -24.3061  -21.0152   22.4530 H   0  0  0  0  0  0
  -24.6560  -19.7491   21.3052 H   0  0  0  0  0  0
  -25.3827  -18.9606   23.4252 H   0  0  0  0  0  0
  -26.1888  -20.4426   23.8238 H   0  0  0  0  0  0
  -28.1205  -19.8846   22.7361 H   0  0  0  0  0  0
  -27.2811  -19.2185   21.3611 H   0  0  0  0  0  0
  -27.8148  -17.6898   23.9447 H   0  0  0  0  0  0
  -26.8398  -17.1282   22.6037 H   0  0  0  0  0  0
  -29.8335  -17.6958   22.6290 H   0  0  0  0  0  0
  -28.9433  -17.7753   21.1292 H   0  0  0  0  0  0
  -29.2288  -15.3167   22.8850 H   0  0  0  0  0  0
  -28.0735  -15.4618   21.5487 H   0  0  0  0  0  0
  -30.6119  -16.3607   20.7164 H   0  0  0  0  0  0
  1 25  1  0  0  0
  1 30  2  0  0  0
  1 86  1  0  0  0
  2  3  1  0  0  0
  2 25  1  0  0  0
  2 87  1  0  0  0
  2 88  1  0  0  0
  3  4  1  0  0  0
  3 89  1  0  0  0
  3 90  1  0  0  0
  4  5  1  0  0  0
  4 91  1  0  0  0
  4 92  1  0  0  0
  5  6  1  0  0  0
  5 26  1  0  0  0
  5 93  1  0  0  0
  6 25  1  0  0  0
  6 94  1  0  0  0
  6 95  1  0  0  0
  7  8  2  0  0  0
  7 26  1  0  0  0
  7 29  1  0  0  0
  8  9  1  0  0  0
  8 22  1  0  0  0
  9 10  1  0  0  0
  9 27  2  0  0  0
 10 11  2  0  0  0
 10 15  1  0  0  0
 11 12  1  0  0  0
 11 96  1  0  0  0
 12 13  2  0  0  0
 12 97  1  0  0  0
 13 14  1  0  0  0
 13 31  1  0  0  0
 14 15  2  0  0  0
 14 98  1  0  0  0
 15 99  1  0  0  0
 16 17  2  0  0  0
 16 21  1  0  0  0
 16 31  1  0  0  0
 17 18  1  0  0  0
 17100  1  0  0  0
 18 19  2  0  0  0
 18101  1  0  0  0
 19 20  1  0  0  0
 19 24  1  0  0  0
 20 21  2  0  0  0
 20102  1  0  0  0
 21 23  1  0  0  0
 22 28  1  0  0  0
 22 32  2  0  0  0
 26 27  1  0  0  0
 28103  1  0  0  0
 28104  1  0  0  0
 29105  1  0  0  0
 29106  1  0  0  0
 33 34  1  0  0  0
 33 66  1  0  0  0
 33 70  2  0  0  0
 34 36  1  0  0  0
 34 59  1  0  0  0
 34107  1  0  0  0
 35 44  2  0  0  0
 35 45  1  0  0  0
 35 68  1  0  0  0
 36 56  1  0  0  0
 36108  1  0  0  0
 37 39  1  0  0  0
 37 47  1  0  0  0
 37 66  1  0  0  0
 37109  1  0  0  0
 38 43  2  0  0  0
 38 46  1  0  0  0
 38 47  1  0  0  0
 39 64  1  0  0  0
 39 67  2  0  0  0
 40 52  1  0  0  0
 40 53  2  0  0  0
 40 58  1  0  0  0
 41110  1  0  0  0
 41111  1  0  0  0
 41112  1  0  0  0
 41 48  1  0  0  0
 42 43  1  0  0  0
 42 66  1  0  0  0
 42113  1  0  0  0
 42114  1  0  0  0
 43 44  1  0  0  0
 44115  1  0  0  0
 45 46  2  0  0  0
 45116  1  0  0  0
 46117  1  0  0  0
 47118  1  0  0  0
 47119  1  0  0  0
 48 56  1  0  0  0
 48 65  1  0  0  0
 48120  1  0  0  0
 49 50  1  0  0  0
 49 53  1  0  0  0
 49 64  1  0  0  0
 49121  1  0  0  0
 50 51  1  0  0  0
 50122  1  0  0  0
 50123  1  0  0  0
 51 52  1  0  0  0
 51124  1  0  0  0
 51125  1  0  0  0
 52126  1  0  0  0
 52127  1  0  0  0
 53 54  1  0  0  0
 54 55  2  0  0  0
 54128  1  0  0  0
 55 57  1  0  0  0
 55129  1  0  0  0
 56 69  2  0  0  0
 57 58  2  0  0  0
 57130  1  0  0  0
 58131  1  0  0  0
 59 60  1  0  0  0
 59 61  1  0  0  0
 59 62  1  0  0  0
 60132  1  0  0  0
 60133  1  0  0  0
 60134  1  0  0  0
 61135  1  0  0  0
 61136  1  0  0  0
 61137  1  0  0  0
 62138  1  0  0  0
 62139  1  0  0  0
 62140  1  0  0  0
 63 65  1  0  0  0
 63141  1  0  0  0
 63142  1  0  0  0
 63143  1  0  0  0
 64144  1  0  0  0
 65145  1  0  0  0
 68 73  1  0  0  0
 71 72  2  0  0  0
 71 74  1  0  0  0
 71 84  1  0  0  0
 72 76  1  0  0  0
 72 85  1  0  0  0
 73 84  2  0  0  0
 73 85  1  0  0  0
 74146  1  0  0  0
 74147  1  0  0  0
 74148  1  0  0  0
 75 85  1  0  0  0
 75149  1  0  0  0
 75150  1  0  0  0
 75151  1  0  0  0
 76 77  1  0  0  0
 76152  1  0  0  0
 76153  1  0  0  0
 77 78  1  0  0  0
 77154  1  0  0  0
 77155  1  0  0  0
 78 79  1  0  0  0
 78156  1  0  0  0
 78157  1  0  0  0
 79 80  1  0  0  0
 79158  1  0  0  0
 79159  1  0  0  0
 80 81  1  0  0  0
 80160  1  0  0  0
 80161  1  0  0  0
 81 82  1  0  0  0
 81162  1  0  0  0
 81163  1  0  0  0
 82 83  1  0  0  0
 82164  1  0  0  0
 82165  1  0  0  0
 83 86  1  0  0  0
 83166  1  0  0  0
 83167  1  0  0  0
 86168  1  0  0  0
M  ISO  4   1 100  68 101  73 101  86 100
M  END
> <chiral flag>
0

> <version>
0

> <s_m_source_file>
/data/baiqing/PycharmProjects/Reinvent-master-3.2/result/LINK_invent/BTK/process_docking_weight1_custom_sum_contain_oxygen_bond_distance_aromatic_linkinvent_7_9_3/rearranged_h_0040.sdf

> <i_m_source_file_index>
5

> <r_mmod_Potential_Energy-OPLS-2005>
156.803726196289

> <r_mmod_Stretch_Energy-OPLS-2005>
28.429744720459

> <r_mmod_Bend_Energy-OPLS-2005>
231.253051757812

> <r_mmod_Torsional_Energy-OPLS-2005>
289.639495849609

> <r_mmod_Improper_Torsional_Energy-OPLS-2005>
10.9498138427734

> <r_mmod_Van_der_Waal_Energy-OPLS-2005>
145.035003662109

> <r_mmod_Electrostatic_Energy-OPLS-2005>
-370.391265869141

> <r_mmod_Solvation_Energy-OPLS-2005>
-209.008285522461

> <b_mmod_Minimization_Converged-OPLS-2005>
0

> <r_mmod_RMS_Derivative-OPLS-2005>
5.03001642227173

$$$$
5
                    3D
 Structure written by MMmdl.
160168  0  0  1  0            999 V2000
  -30.7376  -14.4514   20.5892 C   0  0  0  0  0  0
  -30.4180  -12.3050   19.4166 C   0  0  0  0  0  0
  -29.4844  -12.5025   18.2046 C   0  0  0  0  0  0
  -28.0080  -12.3747   18.6234 C   0  0  0  0  0  0
  -27.6613  -13.2156   19.8800 C   0  0  2  0  0  0
  -28.7074  -12.9998   20.9980 C   0  0  0  0  0  0
  -25.2555  -13.8190   20.5700 C   0  0  0  0  0  0
  -24.1813  -13.0447   20.9202 C   0  0  0  0  0  0
  -24.6389  -11.6922   20.8775 C   0  0  0  0  0  0
  -23.9060  -10.4293   21.0442 C   0  0  0  0  0  0
  -24.3614   -9.4195   21.9202 C   0  0  0  0  0  0
  -23.6290   -8.2232   22.0764 C   0  0  0  0  0  0
  -22.4267   -8.0287   21.3554 C   0  0  0  0  0  0
  -21.9912   -9.0263   20.4652 C   0  0  0  0  0  0
  -22.7249  -10.2136   20.3076 C   0  0  0  0  0  0
  -21.6844   -6.0733   22.5284 C   0  0  0  0  0  0
  -21.4004   -6.5644   23.8214 C   0  0  0  0  0  0
  -21.3650   -5.6802   24.9178 C   0  0  0  0  0  0
  -21.6044   -4.3068   24.7224 C   0  0  0  0  0  0
  -21.8822   -3.8147   23.4346 C   0  0  0  0  0  0
  -21.9181   -4.6963   22.3399 C   0  0  0  0  0  0
  -22.7834  -13.5230   21.1875 C   0  0  0  0  0  0
  -22.1669   -4.2152   21.0976 F   0  0  0  0  0  0
  -21.5617   -3.4555   25.7736 F   0  0  0  0  0  0
  -30.0406  -13.2921   20.4415 N   0  0  0  0  0  0
  -26.3018  -12.9373   20.3432 N   0  0  0  0  0  0
  -25.9320  -11.6521   20.5831 N   0  0  0  0  0  0
  -22.0484  -12.8188   22.0427 N   0  0  0  0  0  0
  -25.4237  -15.1915   20.4081 N   0  0  0  0  0  0
  -31.8462  -14.6372   20.0801 O   0  0  0  0  0  0
  -21.6636   -6.8878   21.4253 O   0  0  0  0  0  0
  -22.3497  -14.5537   20.6766 O   0  0  0  0  0  0
  -24.6203  -31.8715   23.2166 C   0  0  0  0  0  0
  -25.9092  -32.4837   23.8450 C   0  0  1  0  0  0
  -27.2004  -27.3912   20.0868 C   0  0  0  0  0  0
  -25.5943  -33.8637   24.2375 N   0  0  0  0  0  0
  -23.4073  -30.5058   21.5595 C   0  0  2  0  0  0
  -24.8475  -28.9952   20.1058 C   0  0  0  0  0  0
  -22.7442  -29.4697   22.4976 C   0  0  0  0  0  0
  -18.0277  -28.1368   22.8496 C   0  0  0  0  0  0
  -24.1491  -36.7318   23.2633 C   0  0  0  0  0  0
  -25.9491  -30.8231   21.3845 C   0  0  0  0  0  0
  -26.0188  -29.4622   20.7170 C   0  0  0  0  0  0
  -27.1987  -28.6674   20.7136 C   0  0  0  0  0  0
  -26.0092  -27.0014   19.4117 C   0  0  0  0  0  0
  -24.8410  -27.7647   19.4473 C   0  0  0  0  0  0
  -23.6149  -29.8646   20.1670 C   0  0  0  0  0  0
  -25.4106  -36.3124   24.0349 C   0  0  1  0  0  0
  -20.5879  -28.3684   23.1292 C   0  0  2  0  0  0
  -20.6776  -26.9419   22.5400 C   0  0  0  0  0  0
  -19.5745  -26.6386   21.5209 C   0  0  0  0  0  0
  -18.1925  -26.7911   22.1629 C   0  0  0  0  0  0
  -19.1529  -28.8840   23.2890 C   0  0  0  0  0  0
  -18.9457  -30.1442   23.8909 C   0  0  0  0  0  0
  -17.6462  -30.6578   24.0564 C   0  0  0  0  0  0
  -25.9053  -34.9485   23.5157 C   0  0  0  0  0  0
  -16.5352  -29.9083   23.6322 C   0  0  0  0  0  0
  -16.7268  -28.6488   23.0365 C   0  0  0  0  0  0
  -26.4486  -31.6599   25.0771 C   0  0  0  0  0  0
  -25.3733  -31.3709   26.1509 C   0  0  0  0  0  0
  -27.0314  -30.3030   24.6173 C   0  0  0  0  0  0
  -27.6074  -32.4296   25.7524 C   0  0  0  0  0  0
  -27.5596  -37.1800   24.8450 C   0  0  0  0  0  0
  -21.4169  -29.3061   22.3706 N   0  0  0  0  0  0
  -26.4292  -37.3823   23.9428 N   0  0  0  0  0  0
  -24.6775  -31.0792   22.1102 N   0  0  0  0  0  0
  -23.4204  -28.8212   23.3005 O   0  0  0  0  0  0
  -28.2843  -26.5103   20.1816 O   0  0  0  0  0  0
  -26.5600  -34.8927   22.4709 O   0  0  0  0  0  0
  -23.5383  -32.1497   23.7523 O   0  0  0  0  0  0
  -30.6152  -22.8036   21.0416 C   0  0  0  0  0  0
  -28.0249  -22.6191   20.3233 C   0  0  0  0  0  0
  -29.9683  -21.5350   20.9257 C   0  0  0  0  0  0
  -28.6693  -23.8888   20.4077 C   0  0  0  0  0  0
  -32.0637  -22.9322   21.4679 C   0  0  0  0  0  0
  -26.5527  -22.4564   19.9745 C   0  0  0  0  0  0
  -30.6505  -20.1692   21.1058 C   0  0  0  0  0  0
  -27.8556  -25.1268   20.0070 C   0  0  0  0  0  0
  -29.9838  -19.2444   22.1629 C   0  0  0  0  0  0
  -29.5196  -17.8402   21.6828 C   0  0  0  0  0  0
  -30.6395  -16.8091   21.4150 C   0  0  0  0  0  0
  -28.6740  -21.4589   20.5552 N   0  0  0  0  0  0
  -29.9733  -23.9796   20.7734 N   0  0  0  0  0  0
  -30.1083  -15.4471   21.2353 N   0  0  0  0  0  0
  -31.4605  -12.4002   19.1081 H   0  0  0  0  0  0
  -30.3203  -11.2956   19.8198 H   0  0  0  0  0  0
  -29.7134  -11.7715   17.4270 H   0  0  0  0  0  0
  -29.6547  -13.4845   17.7616 H   0  0  0  0  0  0
  -27.8100  -11.3209   18.8199 H   0  0  0  0  0  0
  -27.3546  -12.6562   17.7979 H   0  0  0  0  0  0
  -27.7048  -14.2628   19.5809 H   0  0  0  0  0  0
  -28.6746  -11.9683   21.3514 H   0  0  0  0  0  0
  -28.4729  -13.6098   21.8697 H   0  0  0  0  0  0
  -25.2768   -9.5648   22.4762 H   0  0  0  0  0  0
  -23.9994   -7.4597   22.7465 H   0  0  0  0  0  0
  -21.0844   -8.8798   19.8932 H   0  0  0  0  0  0
  -22.3742  -10.9680   19.6178 H   0  0  0  0  0  0
  -21.2022   -7.6159   23.9725 H   0  0  0  0  0  0
  -21.1468   -6.0530   25.9077 H   0  0  0  0  0  0
  -22.0605   -2.7612   23.2853 H   0  0  0  0  0  0
  -22.4151  -11.9856   22.4766 H   0  0  0  0  0  0
  -21.1120  -13.1192   22.2725 H   0  0  0  0  0  0
  -24.6579  -15.8484   20.5107 H   0  0  0  0  0  0
  -26.2827  -15.6286   20.0970 H   0  0  0  0  0  0
  -26.7174  -32.5533   23.1214 H   0  0  0  0  0  0
  -25.0103  -33.9805   25.0528 H   0  0  0  0  0  0
  -22.6975  -31.3262   21.4310 H   0  0  0  0  0  0
  -23.3769  -35.9629   23.3265 H   0  0  0  0  0  0
  -24.3600  -36.8957   22.2055 H   0  0  0  0  0  0
  -23.7204  -37.6501   23.6652 H   0  0  0  0  0  0
  -26.0802  -31.5960   20.6253 H   0  0  0  0  0  0
  -26.8315  -30.8597   22.0123 H   0  0  0  0  0  0
  -28.0882  -29.0108   21.2247 H   0  0  0  0  0  0
  -25.9141  -26.0843   18.8514 H   0  0  0  0  0  0
  -23.9490  -27.4103   18.9481 H   0  0  0  0  0  0
  -23.7283  -30.6520   19.4209 H   0  0  0  0  0  0
  -22.7356  -29.2953   19.8600 H   0  0  0  0  0  0
  -25.1267  -36.2008   25.0837 H   0  0  0  0  0  0
  -20.9962  -28.3248   24.1417 H   0  0  0  0  0  0
  -20.5690  -26.2303   23.3596 H   0  0  0  0  0  0
  -21.6642  -26.7466   22.1191 H   0  0  0  0  0  0
  -19.6918  -25.6296   21.1234 H   0  0  0  0  0  0
  -19.6663  -27.3199   20.6738 H   0  0  0  0  0  0
  -17.4198  -26.6663   21.4028 H   0  0  0  0  0  0
  -18.0333  -26.0037   22.9010 H   0  0  0  0  0  0
  -19.7936  -30.7241   24.2295 H   0  0  0  0  0  0
  -17.5020  -31.6255   24.5168 H   0  0  0  0  0  0
  -15.5352  -30.3002   23.7611 H   0  0  0  0  0  0
  -15.8669  -28.0797   22.7100 H   0  0  0  0  0  0
  -24.5894  -30.7082   25.7823 H   0  0  0  0  0  0
  -24.8944  -32.2871   26.4973 H   0  0  0  0  0  0
  -25.8069  -30.8845   27.0257 H   0  0  0  0  0  0
  -26.2879  -29.6797   24.1195 H   0  0  0  0  0  0
  -27.4033  -29.7257   25.4646 H   0  0  0  0  0  0
  -27.8743  -30.4332   23.9382 H   0  0  0  0  0  0
  -27.2711  -33.3575   26.2159 H   0  0  0  0  0  0
  -28.3846  -32.6886   25.0319 H   0  0  0  0  0  0
  -28.0788  -31.8382   26.5384 H   0  0  0  0  0  0
  -28.2570  -38.0150   24.7597 H   0  0  0  0  0  0
  -28.1144  -36.2689   24.6149 H   0  0  0  0  0  0
  -27.2334  -37.1299   25.8857 H   0  0  0  0  0  0
  -20.9333  -29.8822   21.6964 H   0  0  0  0  0  0
  -26.0184  -38.2891   24.1462 H   0  0  0  0  0  0
  -32.7113  -22.3164   20.8449 H   0  0  0  0  0  0
  -32.1745  -22.6157   22.5054 H   0  0  0  0  0  0
  -32.4095  -23.9638   21.3928 H   0  0  0  0  0  0
  -26.3201  -22.9070   19.0106 H   0  0  0  0  0  0
  -25.9279  -22.9205   20.7374 H   0  0  0  0  0  0
  -26.2681  -21.4044   19.9259 H   0  0  0  0  0  0
  -31.6950  -20.3074   21.3772 H   0  0  0  0  0  0
  -30.6690  -19.6736   20.1344 H   0  0  0  0  0  0
  -26.9326  -24.9959   20.5756 H   0  0  0  0  0  0
  -27.6516  -24.9675   18.9483 H   0  0  0  0  0  0
  -29.1047  -19.7489   22.5659 H   0  0  0  0  0  0
  -30.6518  -19.1349   23.0177 H   0  0  0  0  0  0
  -28.8938  -17.9413   20.7938 H   0  0  0  0  0  0
  -28.8640  -17.4366   22.4562 H   0  0  0  0  0  0
  -31.3441  -16.7944   22.2465 H   0  0  0  0  0  0
  -31.2065  -17.1117   20.5317 H   0  0  0  0  0  0
  -29.1936  -15.2423   21.6081 H   0  0  0  0  0  0
  1 25  1  0  0  0
  1 30  2  0  0  0
  1 84  1  0  0  0
  2  3  1  0  0  0
  2 25  1  0  0  0
  2 85  1  0  0  0
  2 86  1  0  0  0
  3  4  1  0  0  0
  3 87  1  0  0  0
  3 88  1  0  0  0
  4  5  1  0  0  0
  4 89  1  0  0  0
  4 90  1  0  0  0
  5  6  1  0  0  0
  5 26  1  0  0  0
  5 91  1  0  0  0
  6 25  1  0  0  0
  6 92  1  0  0  0
  6 93  1  0  0  0
  7  8  2  0  0  0
  7 26  1  0  0  0
  7 29  1  0  0  0
  8  9  1  0  0  0
  8 22  1  0  0  0
  9 10  1  0  0  0
  9 27  2  0  0  0
 10 11  2  0  0  0
 10 15  1  0  0  0
 11 12  1  0  0  0
 11 94  1  0  0  0
 12 13  2  0  0  0
 12 95  1  0  0  0
 13 14  1  0  0  0
 13 31  1  0  0  0
 14 15  2  0  0  0
 14 96  1  0  0  0
 15 97  1  0  0  0
 16 17  2  0  0  0
 16 21  1  0  0  0
 16 31  1  0  0  0
 17 18  1  0  0  0
 17 98  1  0  0  0
 18 19  2  0  0  0
 18 99  1  0  0  0
 19 20  1  0  0  0
 19 24  1  0  0  0
 20 21  2  0  0  0
 20100  1  0  0  0
 21 23  1  0  0  0
 22 28  1  0  0  0
 22 32  2  0  0  0
 26 27  1  0  0  0
 28101  1  0  0  0
 28102  1  0  0  0
 29103  1  0  0  0
 29104  1  0  0  0
 33 34  1  0  0  0
 33 66  1  0  0  0
 33 70  2  0  0  0
 34 36  1  0  0  0
 34 59  1  0  0  0
 34105  1  0  0  0
 35 44  2  0  0  0
 35 45  1  0  0  0
 35 68  1  0  0  0
 36 56  1  0  0  0
 36106  1  0  0  0
 37 39  1  0  0  0
 37 47  1  0  0  0
 37 66  1  0  0  0
 37107  1  0  0  0
 38 43  2  0  0  0
 38 46  1  0  0  0
 38 47  1  0  0  0
 39 64  1  0  0  0
 39 67  2  0  0  0
 40 52  1  0  0  0
 40 53  2  0  0  0
 40 58  1  0  0  0
 41108  1  0  0  0
 41109  1  0  0  0
 41110  1  0  0  0
 41 48  1  0  0  0
 42 43  1  0  0  0
 42 66  1  0  0  0
 42111  1  0  0  0
 42112  1  0  0  0
 43 44  1  0  0  0
 44113  1  0  0  0
 45 46  2  0  0  0
 45114  1  0  0  0
 46115  1  0  0  0
 47116  1  0  0  0
 47117  1  0  0  0
 48 56  1  0  0  0
 48 65  1  0  0  0
 48118  1  0  0  0
 49 50  1  0  0  0
 49 53  1  0  0  0
 49 64  1  0  0  0
 49119  1  0  0  0
 50 51  1  0  0  0
 50120  1  0  0  0
 50121  1  0  0  0
 51 52  1  0  0  0
 51122  1  0  0  0
 51123  1  0  0  0
 52124  1  0  0  0
 52125  1  0  0  0
 53 54  1  0  0  0
 54 55  2  0  0  0
 54126  1  0  0  0
 55 57  1  0  0  0
 55127  1  0  0  0
 56 69  2  0  0  0
 57 58  2  0  0  0
 57128  1  0  0  0
 58129  1  0  0  0
 59 60  1  0  0  0
 59 61  1  0  0  0
 59 62  1  0  0  0
 60130  1  0  0  0
 60131  1  0  0  0
 60132  1  0  0  0
 61133  1  0  0  0
 61134  1  0  0  0
 61135  1  0  0  0
 62136  1  0  0  0
 62137  1  0  0  0
 62138  1  0  0  0
 63 65  1  0  0  0
 63139  1  0  0  0
 63140  1  0  0  0
 63141  1  0  0  0
 64142  1  0  0  0
 65143  1  0  0  0
 68 78  1  0  0  0
 71 73  2  0  0  0
 71 75  1  0  0  0
 71 83  1  0  0  0
 72 74  1  0  0  0
 72 76  1  0  0  0
 72 82  2  0  0  0
 73 77  1  0  0  0
 73 82  1  0  0  0
 74 78  1  0  0  0
 74 83  2  0  0  0
 75144  1  0  0  0
 75145  1  0  0  0
 75146  1  0  0  0
 76147  1  0  0  0
 76148  1  0  0  0
 76149  1  0  0  0
 77 79  1  0  0  0
 77150  1  0  0  0
 77151  1  0  0  0
 78152  1  0  0  0
 78153  1  0  0  0
 79 80  1  0  0  0
 79154  1  0  0  0
 79155  1  0  0  0
 80 81  1  0  0  0
 80156  1  0  0  0
 80157  1  0  0  0
 81 84  1  0  0  0
 81158  1  0  0  0
 81159  1  0  0  0
 84160  1  0  0  0
M  ISO  4   1 100  68 101  78 101  84 100
M  END
> <chiral flag>
0

> <version>
0

> <s_m_source_file>
/data/baiqing/PycharmProjects/Reinvent-master-3.2/result/LINK_invent/BTK/process_docking_weight1_custom_sum_contain_oxygen_bond_distance_aromatic_linkinvent_7_9_3/rearranged_h_0040.sdf

> <i_m_source_file_index>
6

> <r_mmod_Potential_Energy-OPLS-2005>
34.586856842041

> <r_mmod_Stretch_Energy-OPLS-2005>
47.0945358276367

> <r_mmod_Bend_Energy-OPLS-2005>
123.294738769531

> <r_mmod_Torsional_Energy-OPLS-2005>
205.510345458984

> <r_mmod_Improper_Torsional_Energy-OPLS-2005>
2.86179423332214

> <r_mmod_Van_der_Waal_Energy-OPLS-2005>
180.096618652344

> <r_mmod_Electrostatic_Energy-OPLS-2005>
-323.388977050781

> <r_mmod_Solvation_Energy-OPLS-2005>
-226.424270629883

> <b_mmod_Minimization_Converged-OPLS-2005>
0

> <r_mmod_RMS_Derivative-OPLS-2005>
2.44460821151733

$$$$
6
                    3D
 Structure written by MMmdl.
169177  0  0  1  0            999 V2000
  -30.7124  -14.3780   20.7176 C   0  0  0  0  0  0
  -30.4395  -12.3030   19.4027 C   0  0  0  0  0  0
  -29.4966  -12.5133   18.2044 C   0  0  0  0  0  0
  -28.0214  -12.3299   18.6166 C   0  0  0  0  0  0
  -27.6498  -13.1646   19.8638 C   0  0  2  0  0  0
  -28.6786  -12.8930   20.9732 C   0  0  0  0  0  0
  -25.2600  -13.8028   20.5619 C   0  0  0  0  0  0
  -24.1821  -13.0414   20.9093 C   0  0  0  0  0  0
  -24.6280  -11.6809   20.8723 C   0  0  0  0  0  0
  -23.8949  -10.4245   21.0431 C   0  0  0  0  0  0
  -24.3509   -9.4186   21.9239 C   0  0  0  0  0  0
  -23.6237   -8.2166   22.0743 C   0  0  0  0  0  0
  -22.4220   -8.0176   21.3548 C   0  0  0  0  0  0
  -21.9839   -9.0160   20.4646 C   0  0  0  0  0  0
  -22.7126  -10.2062   20.3050 C   0  0  0  0  0  0
  -21.6840   -6.0648   22.5318 C   0  0  0  0  0  0
  -21.3947   -6.5585   23.8236 C   0  0  0  0  0  0
  -21.3630   -5.6752   24.9227 C   0  0  0  0  0  0
  -21.6098   -4.3034   24.7332 C   0  0  0  0  0  0
  -21.8801   -3.8078   23.4454 C   0  0  0  0  0  0
  -21.9157   -4.6877   22.3477 C   0  0  0  0  0  0
  -22.7842  -13.5248   21.1720 C   0  0  0  0  0  0
  -22.1617   -4.2047   21.1060 F   0  0  0  0  0  0
  -21.5749   -3.4517   25.7869 F   0  0  0  0  0  0
  -30.0225  -13.2347   20.4620 N   0  0  0  0  0  0
  -26.2926  -12.9103   20.3191 N   0  0  0  0  0  0
  -25.9167  -11.6317   20.5602 N   0  0  0  0  0  0
  -22.0501  -12.8252   22.0281 N   0  0  0  0  0  0
  -25.4399  -15.1755   20.4072 N   0  0  0  0  0  0
  -31.8219  -14.6204   20.2359 O   0  0  0  0  0  0
  -21.6646   -6.8700   21.4212 O   0  0  0  0  0  0
  -22.3554  -14.5544   20.6453 O   0  0  0  0  0  0
  -24.6072  -31.8766   23.2214 C   0  0  0  0  0  0
  -25.9005  -32.4875   23.8483 C   0  0  1  0  0  0
  -27.2230  -27.4872   20.0807 C   0  0  0  0  0  0
  -25.5886  -33.8671   24.2420 N   0  0  0  0  0  0
  -23.3916  -30.5017   21.5615 C   0  0  2  0  0  0
  -24.8401  -28.9794   20.1172 C   0  0  0  0  0  0
  -22.7383  -29.4651   22.5027 C   0  0  0  0  0  0
  -18.0260  -28.1377   22.8498 C   0  0  0  0  0  0
  -24.1474  -36.7316   23.2635 C   0  0  0  0  0  0
  -25.9212  -30.8489   21.3790 C   0  0  0  0  0  0
  -25.9949  -29.4888   20.7269 C   0  0  0  0  0  0
  -27.1898  -28.7404   20.7242 C   0  0  0  0  0  0
  -26.0697  -27.0146   19.4236 C   0  0  0  0  0  0
  -24.8659  -27.7370   19.4665 C   0  0  0  0  0  0
  -23.6040  -29.8451   20.1726 C   0  0  0  0  0  0
  -25.4097  -36.3154   24.0368 C   0  0  1  0  0  0
  -20.5838  -28.3687   23.1343 C   0  0  2  0  0  0
  -20.6763  -26.9417   22.5437 C   0  0  0  0  0  0
  -19.5747  -26.6400   21.5220 C   0  0  0  0  0  0
  -18.1916  -26.7921   22.1635 C   0  0  0  0  0  0
  -19.1513  -28.8842   23.2921 C   0  0  0  0  0  0
  -18.9444  -30.1441   23.8928 C   0  0  0  0  0  0
  -17.6460  -30.6603   24.0552 C   0  0  0  0  0  0
  -25.9028  -34.9508   23.5199 C   0  0  0  0  0  0
  -16.5332  -29.9092   23.6307 C   0  0  0  0  0  0
  -16.7265  -28.6491   23.0341 C   0  0  0  0  0  0
  -26.4440  -31.6623   25.0775 C   0  0  0  0  0  0
  -25.3741  -31.3767   26.1562 C   0  0  0  0  0  0
  -27.0284  -30.3081   24.6150 C   0  0  0  0  0  0
  -27.6013  -32.4321   25.7522 C   0  0  0  0  0  0
  -27.5581  -37.1812   24.8473 C   0  0  0  0  0  0
  -21.4113  -29.3030   22.3778 N   0  0  0  0  0  0
  -26.4298  -37.3821   23.9422 N   0  0  0  0  0  0
  -24.6579  -31.0851   22.1149 N   0  0  0  0  0  0
  -23.4137  -28.8180   23.3061 O   0  0  0  0  0  0
  -28.3517  -26.7084   20.1244 O   0  0  0  0  0  0
  -26.5571  -34.8922   22.4738 O   0  0  0  0  0  0
  -23.5294  -32.1519   23.7677 O   0  0  0  0  0  0
  -26.1038  -20.5962   19.8537 C   0  0  0  0  0  0
  -27.5744  -22.0139   18.0657 C   0  0  0  0  0  0
  -26.4343  -20.0638   18.5732 C   0  0  0  0  0  0
  -27.2306  -22.5497   19.3355 C   0  0  0  0  0  0
  -25.2898  -19.8570   20.9051 C   0  0  0  0  0  0
  -28.3260  -22.8090   17.0108 C   0  0  0  0  0  0
  -26.0410  -18.6615   18.1097 C   0  0  0  0  0  0
  -27.4272  -24.0158   19.6988 C   0  0  0  0  0  0
  -27.2057  -17.6557   18.2273 C   0  0  0  0  0  0
  -28.4386  -24.3391   20.8142 C   0  0  0  0  0  0
  -27.7807  -17.6263   19.6581 C   0  0  0  0  0  0
  -28.9645  -16.6808   19.8648 C   0  0  0  0  0  0
  -29.0477  -16.1421   21.3189 C   0  0  0  0  0  0
  -28.3493  -25.8183   21.2464 C   0  0  0  0  0  0
  -27.1816  -20.7737   17.6902 N   0  0  0  0  0  0
  -26.5109  -21.8322   20.2272 N   0  0  0  0  0  0
  -30.1644  -15.2288   21.5990 N   0  0  0  0  0  0
  -31.4770  -12.4517   19.0891 H   0  0  0  0  0  0
  -30.3927  -11.2756   19.7603 H   0  0  0  0  0  0
  -29.7515  -11.8214   17.4006 H   0  0  0  0  0  0
  -29.6590  -13.5178   17.8153 H   0  0  0  0  0  0
  -27.8644  -11.2749   18.8441 H   0  0  0  0  0  0
  -27.3632  -12.5834   17.7841 H   0  0  0  0  0  0
  -27.6833  -14.2079   19.5884 H   0  0  0  0  0  0
  -28.6306  -11.8308   21.2194 H   0  0  0  0  0  0
  -28.4158  -13.4090   21.8948 H   0  0  0  0  0  0
  -25.2608   -9.5806   22.4855 H   0  0  0  0  0  0
  -24.0117   -7.4528   22.7348 H   0  0  0  0  0  0
  -21.0823   -8.8629   19.8865 H   0  0  0  0  0  0
  -22.3569  -10.9611   19.6167 H   0  0  0  0  0  0
  -21.1832   -7.6062   23.9773 H   0  0  0  0  0  0
  -21.1477   -6.0459   25.9136 H   0  0  0  0  0  0
  -22.0575   -2.7522   23.3042 H   0  0  0  0  0  0
  -22.4203  -11.9881   22.4595 H   0  0  0  0  0  0
  -21.1075  -13.1168   22.2415 H   0  0  0  0  0  0
  -24.6574  -15.8238   20.4439 H   0  0  0  0  0  0
  -26.3086  -15.5974   20.1125 H   0  0  0  0  0  0
  -26.7047  -32.5668   23.1218 H   0  0  0  0  0  0
  -25.0064  -33.9850   25.0592 H   0  0  0  0  0  0
  -22.6823  -31.3225   21.4313 H   0  0  0  0  0  0
  -23.3760  -35.9605   23.3293 H   0  0  0  0  0  0
  -24.3566  -36.8941   22.2037 H   0  0  0  0  0  0
  -23.7195  -37.6522   23.6643 H   0  0  0  0  0  0
  -26.0313  -31.6128   20.6083 H   0  0  0  0  0  0
  -26.8121  -30.9091   21.9924 H   0  0  0  0  0  0
  -28.0702  -29.1069   21.2345 H   0  0  0  0  0  0
  -26.0911  -26.1022   18.8565 H   0  0  0  0  0  0
  -23.9860  -27.3475   18.9711 H   0  0  0  0  0  0
  -23.7140  -30.6307   19.4254 H   0  0  0  0  0  0
  -22.7334  -29.2644   19.8710 H   0  0  0  0  0  0
  -25.1240  -36.2010   25.0861 H   0  0  0  0  0  0
  -20.9908  -28.3199   24.1460 H   0  0  0  0  0  0
  -20.5663  -26.2257   23.3619 H   0  0  0  0  0  0
  -21.6650  -26.7465   22.1209 H   0  0  0  0  0  0
  -19.6932  -25.6302   21.1260 H   0  0  0  0  0  0
  -19.6696  -27.3202   20.6740 H   0  0  0  0  0  0
  -17.4184  -26.6650   21.4033 H   0  0  0  0  0  0
  -18.0327  -26.0057   22.9035 H   0  0  0  0  0  0
  -19.7939  -30.7249   24.2286 H   0  0  0  0  0  0
  -17.5036  -31.6290   24.5178 H   0  0  0  0  0  0
  -15.5346  -30.3029   23.7679 H   0  0  0  0  0  0
  -15.8635  -28.0870   22.7034 H   0  0  0  0  0  0
  -24.5764  -30.7275   25.7906 H   0  0  0  0  0  0
  -24.9086  -32.2978   26.5130 H   0  0  0  0  0  0
  -25.8084  -30.8812   27.0281 H   0  0  0  0  0  0
  -26.2863  -29.6874   24.1102 H   0  0  0  0  0  0
  -27.4017  -29.7243   25.4602 H   0  0  0  0  0  0
  -27.8714  -30.4462   23.9352 H   0  0  0  0  0  0
  -27.2602  -33.3559   26.2235 H   0  0  0  0  0  0
  -28.3731  -32.7009   25.0275 H   0  0  0  0  0  0
  -28.0791  -31.8394   26.5359 H   0  0  0  0  0  0
  -28.2597  -38.0116   24.7497 H   0  0  0  0  0  0
  -28.1090  -36.2645   24.6282 H   0  0  0  0  0  0
  -27.2320  -37.1427   25.8895 H   0  0  0  0  0  0
  -20.9295  -29.8720   21.6981 H   0  0  0  0  0  0
  -26.0204  -38.2908   24.1435 H   0  0  0  0  0  0
  -25.3686  -18.7748   20.8347 H   0  0  0  0  0  0
  -24.2349  -20.1136   20.8267 H   0  0  0  0  0  0
  -25.6275  -20.1414   21.9016 H   0  0  0  0  0  0
  -27.6202  -23.3967   16.4264 H   0  0  0  0  0  0
  -28.8706  -22.1652   16.3191 H   0  0  0  0  0  0
  -29.0526  -23.4882   17.4546 H   0  0  0  0  0  0
  -25.6901  -18.7106   17.0757 H   0  0  0  0  0  0
  -25.1917  -18.2986   18.6890 H   0  0  0  0  0  0
  -26.4443  -24.3642   20.0123 H   0  0  0  0  0  0
  -27.6865  -24.5983   18.8163 H   0  0  0  0  0  0
  -27.9947  -17.9061   17.5085 H   0  0  0  0  0  0
  -26.8497  -16.6613   17.9471 H   0  0  0  0  0  0
  -29.4516  -24.1074   20.4902 H   0  0  0  0  0  0
  -28.2487  -23.7146   21.6881 H   0  0  0  0  0  0
  -26.9848  -17.3523   20.3469 H   0  0  0  0  0  0
  -28.0981  -18.6260   19.9500 H   0  0  0  0  0  0
  -29.8699  -17.2332   19.6162 H   0  0  0  0  0  0
  -28.9086  -15.8767   19.1332 H   0  0  0  0  0  0
  -28.1137  -15.6667   21.6202 H   0  0  0  0  0  0
  -29.1563  -17.0039   21.9839 H   0  0  0  0  0  0
  -29.1834  -26.0851   21.8940 H   0  0  0  0  0  0
  -27.4560  -25.9564   21.8603 H   0  0  0  0  0  0
  -30.8493  -15.6679   22.1953 H   0  0  0  0  0  0
  1 25  1  0  0  0
  1 30  2  0  0  0
  1 87  1  0  0  0
  2  3  1  0  0  0
  2 25  1  0  0  0
  2 88  1  0  0  0
  2 89  1  0  0  0
  3  4  1  0  0  0
  3 90  1  0  0  0
  3 91  1  0  0  0
  4  5  1  0  0  0
  4 92  1  0  0  0
  4 93  1  0  0  0
  5  6  1  0  0  0
  5 26  1  0  0  0
  5 94  1  0  0  0
  6 25  1  0  0  0
  6 95  1  0  0  0
  6 96  1  0  0  0
  7  8  2  0  0  0
  7 26  1  0  0  0
  7 29  1  0  0  0
  8  9  1  0  0  0
  8 22  1  0  0  0
  9 10  1  0  0  0
  9 27  2  0  0  0
 10 11  2  0  0  0
 10 15  1  0  0  0
 11 12  1  0  0  0
 11 97  1  0  0  0
 12 13  2  0  0  0
 12 98  1  0  0  0
 13 14  1  0  0  0
 13 31  1  0  0  0
 14 15  2  0  0  0
 14 99  1  0  0  0
 15100  1  0  0  0
 16 17  2  0  0  0
 16 21  1  0  0  0
 16 31  1  0  0  0
 17 18  1  0  0  0
 17101  1  0  0  0
 18 19  2  0  0  0
 18102  1  0  0  0
 19 20  1  0  0  0
 19 24  1  0  0  0
 20 21  2  0  0  0
 20103  1  0  0  0
 21 23  1  0  0  0
 22 28  1  0  0  0
 22 32  2  0  0  0
 26 27  1  0  0  0
 28104  1  0  0  0
 28105  1  0  0  0
 29106  1  0  0  0
 29107  1  0  0  0
 33 34  1  0  0  0
 33 66  1  0  0  0
 33 70  2  0  0  0
 34 36  1  0  0  0
 34 59  1  0  0  0
 34108  1  0  0  0
 35 44  2  0  0  0
 35 45  1  0  0  0
 35 68  1  0  0  0
 36 56  1  0  0  0
 36109  1  0  0  0
 37 39  1  0  0  0
 37 47  1  0  0  0
 37 66  1  0  0  0
 37110  1  0  0  0
 38 43  2  0  0  0
 38 46  1  0  0  0
 38 47  1  0  0  0
 39 64  1  0  0  0
 39 67  2  0  0  0
 40 52  1  0  0  0
 40 53  2  0  0  0
 40 58  1  0  0  0
 41111  1  0  0  0
 41112  1  0  0  0
 41113  1  0  0  0
 41 48  1  0  0  0
 42 43  1  0  0  0
 42 66  1  0  0  0
 42114  1  0  0  0
 42115  1  0  0  0
 43 44  1  0  0  0
 44116  1  0  0  0
 45 46  2  0  0  0
 45117  1  0  0  0
 46118  1  0  0  0
 47119  1  0  0  0
 47120  1  0  0  0
 48 56  1  0  0  0
 48 65  1  0  0  0
 48121  1  0  0  0
 49 50  1  0  0  0
 49 53  1  0  0  0
 49 64  1  0  0  0
 49122  1  0  0  0
 50 51  1  0  0  0
 50123  1  0  0  0
 50124  1  0  0  0
 51 52  1  0  0  0
 51125  1  0  0  0
 51126  1  0  0  0
 52127  1  0  0  0
 52128  1  0  0  0
 53 54  1  0  0  0
 54 55  2  0  0  0
 54129  1  0  0  0
 55 57  1  0  0  0
 55130  1  0  0  0
 56 69  2  0  0  0
 57 58  2  0  0  0
 57131  1  0  0  0
 58132  1  0  0  0
 59 60  1  0  0  0
 59 61  1  0  0  0
 59 62  1  0  0  0
 60133  1  0  0  0
 60134  1  0  0  0
 60135  1  0  0  0
 61136  1  0  0  0
 61137  1  0  0  0
 61138  1  0  0  0
 62139  1  0  0  0
 62140  1  0  0  0
 62141  1  0  0  0
 63 65  1  0  0  0
 63142  1  0  0  0
 63143  1  0  0  0
 63144  1  0  0  0
 64145  1  0  0  0
 65146  1  0  0  0
 68 84  1  0  0  0
 71 73  2  0  0  0
 71 75  1  0  0  0
 71 86  1  0  0  0
 72 74  1  0  0  0
 72 76  1  0  0  0
 72 85  2  0  0  0
 73 77  1  0  0  0
 73 85  1  0  0  0
 74 78  1  0  0  0
 74 86  2  0  0  0
 75147  1  0  0  0
 75148  1  0  0  0
 75149  1  0  0  0
 76150  1  0  0  0
 76151  1  0  0  0
 76152  1  0  0  0
 77 79  1  0  0  0
 77153  1  0  0  0
 77154  1  0  0  0
 78 80  1  0  0  0
 78155  1  0  0  0
 78156  1  0  0  0
 79 81  1  0  0  0
 79157  1  0  0  0
 79158  1  0  0  0
 80 84  1  0  0  0
 80159  1  0  0  0
 80160  1  0  0  0
 81 82  1  0  0  0
 81161  1  0  0  0
 81162  1  0  0  0
 82 83  1  0  0  0
 82163  1  0  0  0
 82164  1  0  0  0
 83 87  1  0  0  0
 83165  1  0  0  0
 83166  1  0  0  0
 84167  1  0  0  0
 84168  1  0  0  0
 87169  1  0  0  0
M  ISO  4   1 100  68 101  84 101  87 100
M  END
> <chiral flag>
0

> <version>
0

> <s_m_source_file>
/data/baiqing/PycharmProjects/Reinvent-master-3.2/result/LINK_invent/BTK/process_docking_weight1_custom_sum_contain_oxygen_bond_distance_aromatic_linkinvent_7_9_3/rearranged_h_0040.sdf

> <i_m_source_file_index>
7

> <r_mmod_Potential_Energy-OPLS-2005>
9.2413158416748

> <r_mmod_Stretch_Energy-OPLS-2005>
35.9799995422363

> <r_mmod_Bend_Energy-OPLS-2005>
105.206939697266

> <r_mmod_Torsional_Energy-OPLS-2005>
280.858612060547

> <r_mmod_Improper_Torsional_Energy-OPLS-2005>
6.67657566070557

> <r_mmod_Van_der_Waal_Energy-OPLS-2005>
159.019744873047

> <r_mmod_Electrostatic_Energy-OPLS-2005>
-381.320770263672

> <r_mmod_Solvation_Energy-OPLS-2005>
-213.04248046875

> <b_mmod_Minimization_Converged-OPLS-2005>
0

> <r_mmod_RMS_Derivative-OPLS-2005>
9.50736618041992

$$$$
7
                    3D
 Structure written by MMmdl.
172180  0  0  1  0            999 V2000
  -30.7116  -14.4595   20.6024 C   0  0  0  0  0  0
  -30.4253  -12.3166   19.4090 C   0  0  0  0  0  0
  -29.4935  -12.5103   18.1951 C   0  0  0  0  0  0
  -28.0140  -12.3719   18.6104 C   0  0  0  0  0  0
  -27.6595  -13.2082   19.8720 C   0  0  2  0  0  0
  -28.7030  -12.9828   20.9879 C   0  0  0  0  0  0
  -25.2571  -13.8173   20.5692 C   0  0  0  0  0  0
  -24.1836  -13.0442   20.9205 C   0  0  0  0  0  0
  -24.6396  -11.6918   20.8767 C   0  0  0  0  0  0
  -23.9094  -10.4287   21.0422 C   0  0  0  0  0  0
  -24.3643   -9.4200   21.9197 C   0  0  0  0  0  0
  -23.6320   -8.2236   22.0760 C   0  0  0  0  0  0
  -22.4303   -8.0278   21.3559 C   0  0  0  0  0  0
  -21.9948   -9.0249   20.4663 C   0  0  0  0  0  0
  -22.7277  -10.2125   20.3070 C   0  0  0  0  0  0
  -21.6851   -6.0759   22.5312 C   0  0  0  0  0  0
  -21.4001   -6.5664   23.8254 C   0  0  0  0  0  0
  -21.3641   -5.6799   24.9208 C   0  0  0  0  0  0
  -21.6040   -4.3062   24.7239 C   0  0  0  0  0  0
  -21.8827   -3.8171   23.4355 C   0  0  0  0  0  0
  -21.9186   -4.6991   22.3418 C   0  0  0  0  0  0
  -22.7857  -13.5244   21.1853 C   0  0  0  0  0  0
  -22.1663   -4.2189   21.0990 F   0  0  0  0  0  0
  -21.5621   -3.4534   25.7740 F   0  0  0  0  0  0
  -30.0316  -13.2933   20.4329 N   0  0  0  0  0  0
  -26.3016  -12.9342   20.3372 N   0  0  0  0  0  0
  -25.9320  -11.6507   20.5793 N   0  0  0  0  0  0
  -22.0484  -12.8245   22.0417 N   0  0  0  0  0  0
  -25.4297  -15.1908   20.4126 N   0  0  0  0  0  0
  -31.8458  -14.6441   20.1537 O   0  0  0  0  0  0
  -21.6654   -6.8887   21.4266 O   0  0  0  0  0  0
  -22.3550  -14.5540   20.6688 O   0  0  0  0  0  0
  -24.6129  -31.8711   23.2124 C   0  0  0  0  0  0
  -25.9040  -32.4834   23.8405 C   0  0  1  0  0  0
  -27.2149  -27.4250   20.1000 C   0  0  0  0  0  0
  -25.5912  -33.8636   24.2328 N   0  0  0  0  0  0
  -23.3979  -30.4984   21.5549 C   0  0  2  0  0  0
  -24.8393  -28.9708   20.1114 C   0  0  0  0  0  0
  -22.7398  -29.4687   22.5006 C   0  0  0  0  0  0
  -18.0268  -28.1380   22.8503 C   0  0  0  0  0  0
  -24.1479  -36.7309   23.2635 C   0  0  0  0  0  0
  -25.9287  -30.8339   21.3667 C   0  0  0  0  0  0
  -26.0014  -29.4700   20.7113 C   0  0  0  0  0  0
  -27.1923  -28.7066   20.6999 C   0  0  0  0  0  0
  -26.0354  -26.9557   19.4733 C   0  0  0  0  0  0
  -24.8530  -27.7153   19.4858 C   0  0  0  0  0  0
  -23.6024  -29.8387   20.1661 C   0  0  0  0  0  0
  -25.4104  -36.3116   24.0334 C   0  0  1  0  0  0
  -20.5855  -28.3662   23.1329 C   0  0  2  0  0  0
  -20.6763  -26.9411   22.5418 C   0  0  0  0  0  0
  -19.5741  -26.6389   21.5221 C   0  0  0  0  0  0
  -18.1915  -26.7936   22.1627 C   0  0  0  0  0  0
  -19.1517  -28.8836   23.2915 C   0  0  0  0  0  0
  -18.9449  -30.1440   23.8924 C   0  0  0  0  0  0
  -17.6459  -30.6587   24.0572 C   0  0  0  0  0  0
  -25.9048  -34.9487   23.5124 C   0  0  0  0  0  0
  -16.5345  -29.9100   23.6325 C   0  0  0  0  0  0
  -16.7256  -28.6512   23.0354 C   0  0  0  0  0  0
  -26.4455  -31.6614   25.0737 C   0  0  0  0  0  0
  -25.3708  -31.3752   26.1478 C   0  0  0  0  0  0
  -27.0273  -30.3048   24.6126 C   0  0  0  0  0  0
  -27.6035  -32.4335   25.7499 C   0  0  0  0  0  0
  -27.5580  -37.1795   24.8457 C   0  0  0  0  0  0
  -21.4130  -29.3029   22.3733 N   0  0  0  0  0  0
  -26.4277  -37.3812   23.9425 N   0  0  0  0  0  0
  -24.6653  -31.0823   22.1030 N   0  0  0  0  0  0
  -23.4179  -28.8235   23.3044 O   0  0  0  0  0  0
  -28.3896  -26.6940   20.1111 O   0  0  0  0  0  0
  -26.5608  -34.8941   22.4684 O   0  0  0  0  0  0
  -23.5336  -32.1472   23.7527 O   0  0  0  0  0  0
  -30.1284  -20.0441   21.2321 C   0  0  0  0  0  0
  -30.7195  -19.5370   18.8356 C   0  0  0  0  0  0
  -29.4146  -21.3489   20.7741 C   0  0  0  0  0  0
  -29.9812  -20.8047   18.3955 C   0  0  0  0  0  0
  -30.1636  -18.9381   20.1421 C   0  0  1  0  0  0
  -30.0218  -21.9151   19.4690 C   0  0  1  0  0  0
  -26.0963  -23.1806   17.1323 C   0  0  0  0  0  0
  -30.7815  -24.7023   20.5121 C   0  0  0  0  0  0
  -31.0242  -17.6974   20.5106 C   0  0  0  0  0  0
  -30.5108  -16.7643   21.6408 C   0  0  0  0  0  0
  -27.5951  -23.4247   17.3054 C   0  0  0  0  0  0
  -28.3092  -25.2565   20.2339 C   0  0  0  0  0  0
  -29.3692  -23.2101   18.8877 C   0  0  2  0  0  0
  -29.5602  -24.6093   19.5805 C   0  0  2  0  0  0
  -30.0233  -15.4441   21.2076 N   0  0  0  0  0  0
  -28.0073  -22.9259   18.5715 O   0  0  0  0  0  0
  -31.4680  -12.4221   19.1063 H   0  0  0  0  0  0
  -30.3352  -11.3040   19.8009 H   0  0  0  0  0  0
  -29.7392  -11.7837   17.4185 H   0  0  0  0  0  0
  -29.6642  -13.4933   17.7551 H   0  0  0  0  0  0
  -27.8237  -11.3158   18.7998 H   0  0  0  0  0  0
  -27.3619  -12.6496   17.7808 H   0  0  0  0  0  0
  -27.7048  -14.2585   19.5802 H   0  0  0  0  0  0
  -28.6869  -11.9448   21.3218 H   0  0  0  0  0  0
  -28.4652  -13.5715   21.8741 H   0  0  0  0  0  0
  -25.2774   -9.5697   22.4784 H   0  0  0  0  0  0
  -24.0059   -7.4628   22.7463 H   0  0  0  0  0  0
  -21.0889   -8.8751   19.8963 H   0  0  0  0  0  0
  -22.3730  -10.9660   19.6180 H   0  0  0  0  0  0
  -21.1989   -7.6169   23.9780 H   0  0  0  0  0  0
  -21.1452   -6.0517   25.9116 H   0  0  0  0  0  0
  -22.0609   -2.7638   23.2847 H   0  0  0  0  0  0
  -22.4026  -11.9901   22.4866 H   0  0  0  0  0  0
  -21.1091  -13.1286   22.2536 H   0  0  0  0  0  0
  -24.6674  -15.8481   20.5336 H   0  0  0  0  0  0
  -26.2920  -15.6361   20.1230 H   0  0  0  0  0  0
  -26.7117  -32.5548   23.1173 H   0  0  0  0  0  0
  -25.0035  -33.9796   25.0452 H   0  0  0  0  0  0
  -22.6857  -31.3165   21.4233 H   0  0  0  0  0  0
  -23.3760  -35.9619   23.3275 H   0  0  0  0  0  0
  -24.3570  -36.8950   22.2052 H   0  0  0  0  0  0
  -23.7196  -37.6492   23.6666 H   0  0  0  0  0  0
  -26.0441  -31.6038   20.6020 H   0  0  0  0  0  0
  -26.8162  -30.8817   21.9864 H   0  0  0  0  0  0
  -28.0898  -29.0922   21.1634 H   0  0  0  0  0  0
  -25.9986  -26.0190   18.9409 H   0  0  0  0  0  0
  -23.9648  -27.3376   18.9976 H   0  0  0  0  0  0
  -23.7032  -30.6179   19.4097 H   0  0  0  0  0  0
  -22.7247  -29.2588   19.8733 H   0  0  0  0  0  0
  -25.1270  -36.1968   25.0825 H   0  0  0  0  0  0
  -20.9948  -28.3220   24.1454 H   0  0  0  0  0  0
  -20.5682  -26.2272   23.3594 H   0  0  0  0  0  0
  -21.6626  -26.7465   22.1196 H   0  0  0  0  0  0
  -19.6903  -25.6309   21.1233 H   0  0  0  0  0  0
  -19.6682  -27.3208   20.6768 H   0  0  0  0  0  0
  -17.4193  -26.6683   21.4030 H   0  0  0  0  0  0
  -18.0320  -26.0066   22.9009 H   0  0  0  0  0  0
  -19.7927  -30.7240   24.2309 H   0  0  0  0  0  0
  -17.5020  -31.6272   24.5175 H   0  0  0  0  0  0
  -15.5351  -30.3016   23.7643 H   0  0  0  0  0  0
  -15.8653  -28.0846   22.7058 H   0  0  0  0  0  0
  -24.5849  -30.7140   25.7802 H   0  0  0  0  0  0
  -24.8943  -32.2938   26.4930 H   0  0  0  0  0  0
  -25.8027  -30.8891   27.0234 H   0  0  0  0  0  0
  -26.2822  -29.6830   24.1150 H   0  0  0  0  0  0
  -27.3993  -29.7262   25.4590 H   0  0  0  0  0  0
  -27.8690  -30.4341   23.9315 H   0  0  0  0  0  0
  -27.2648  -33.3630   26.2091 H   0  0  0  0  0  0
  -28.3845  -32.6899   25.0328 H   0  0  0  0  0  0
  -28.0708  -31.8456   26.5405 H   0  0  0  0  0  0
  -28.2575  -38.0118   24.7554 H   0  0  0  0  0  0
  -28.1099  -36.2651   24.6215 H   0  0  0  0  0  0
  -27.2311  -37.1364   25.8862 H   0  0  0  0  0  0
  -20.9283  -29.8737   21.6948 H   0  0  0  0  0  0
  -26.0165  -38.2880   24.1467 H   0  0  0  0  0  0
  -29.6387  -19.6678   22.1309 H   0  0  0  0  0  0
  -31.1487  -20.2877   21.5299 H   0  0  0  0  0  0
  -31.7790  -19.7678   18.9564 H   0  0  0  0  0  0
  -30.6604  -18.7980   18.0354 H   0  0  0  0  0  0
  -29.4787  -22.0920   21.5684 H   0  0  0  0  0  0
  -28.3505  -21.1575   20.6345 H   0  0  0  0  0  0
  -28.9455  -20.5536   18.1605 H   0  0  0  0  0  0
  -30.4250  -21.1619   17.4650 H   0  0  0  0  0  0
  -29.1419  -18.6045   19.9553 H   0  0  0  0  0  0
  -31.0740  -22.1299   19.6577 H   0  0  0  0  0  0
  -25.7537  -23.5666   16.1726 H   0  0  0  0  0  0
  -25.5222  -23.6778   17.9147 H   0  0  0  0  0  0
  -25.8611  -22.1164   17.1646 H   0  0  0  0  0  0
  -30.9488  -25.7322   20.8281 H   0  0  0  0  0  0
  -31.6913  -24.3636   20.0162 H   0  0  0  0  0  0
  -30.6433  -24.1071   21.4150 H   0  0  0  0  0  0
  -32.0151  -18.0545   20.7938 H   0  0  0  0  0  0
  -31.1948  -17.1114   19.6075 H   0  0  0  0  0  0
  -29.7237  -17.2591   22.2091 H   0  0  0  0  0  0
  -31.3183  -16.5904   22.3523 H   0  0  0  0  0  0
  -27.8069  -24.4914   17.2295 H   0  0  0  0  0  0
  -28.1461  -22.9191   16.5110 H   0  0  0  0  0  0
  -28.2468  -24.9907   21.2891 H   0  0  0  0  0  0
  -27.4099  -24.8443   19.7938 H   0  0  0  0  0  0
  -29.9085  -23.3297   17.9451 H   0  0  0  0  0  0
  -29.7836  -25.2766   18.7468 H   0  0  0  0  0  0
  -29.0818  -15.2049   21.4860 H   0  0  0  0  0  0
  1 25  1  0  0  0
  1 30  2  0  0  0
  1 85  1  0  0  0
  2  3  1  0  0  0
  2 25  1  0  0  0
  2 87  1  0  0  0
  2 88  1  0  0  0
  3  4  1  0  0  0
  3 89  1  0  0  0
  3 90  1  0  0  0
  4  5  1  0  0  0
  4 91  1  0  0  0
  4 92  1  0  0  0
  5  6  1  0  0  0
  5 26  1  0  0  0
  5 93  1  0  0  0
  6 25  1  0  0  0
  6 94  1  0  0  0
  6 95  1  0  0  0
  7  8  2  0  0  0
  7 26  1  0  0  0
  7 29  1  0  0  0
  8  9  1  0  0  0
  8 22  1  0  0  0
  9 10  1  0  0  0
  9 27  2  0  0  0
 10 11  2  0  0  0
 10 15  1  0  0  0
 11 12  1  0  0  0
 11 96  1  0  0  0
 12 13  2  0  0  0
 12 97  1  0  0  0
 13 14  1  0  0  0
 13 31  1  0  0  0
 14 15  2  0  0  0
 14 98  1  0  0  0
 15 99  1  0  0  0
 16 17  2  0  0  0
 16 21  1  0  0  0
 16 31  1  0  0  0
 17 18  1  0  0  0
 17100  1  0  0  0
 18 19  2  0  0  0
 18101  1  0  0  0
 19 20  1  0  0  0
 19 24  1  0  0  0
 20 21  2  0  0  0
 20102  1  0  0  0
 21 23  1  0  0  0
 22 28  1  0  0  0
 22 32  2  0  0  0
 26 27  1  0  0  0
 28103  1  0  0  0
 28104  1  0  0  0
 29105  1  0  0  0
 29106  1  0  0  0
 33 34  1  0  0  0
 33 66  1  0  0  0
 33 70  2  0  0  0
 34 36  1  0  0  0
 34 59  1  0  0  0
 34107  1  0  0  0
 35 44  2  0  0  0
 35 45  1  0  0  0
 35 68  1  0  0  0
 36 56  1  0  0  0
 36108  1  0  0  0
 37 39  1  0  0  0
 37 47  1  0  0  0
 37 66  1  0  0  0
 37109  1  0  0  0
 38 43  2  0  0  0
 38 46  1  0  0  0
 38 47  1  0  0  0
 39 64  1  0  0  0
 39 67  2  0  0  0
 40 52  1  0  0  0
 40 53  2  0  0  0
 40 58  1  0  0  0
 41110  1  0  0  0
 41111  1  0  0  0
 41112  1  0  0  0
 41 48  1  0  0  0
 42 43  1  0  0  0
 42 66  1  0  0  0
 42113  1  0  0  0
 42114  1  0  0  0
 43 44  1  0  0  0
 44115  1  0  0  0
 45 46  2  0  0  0
 45116  1  0  0  0
 46117  1  0  0  0
 47118  1  0  0  0
 47119  1  0  0  0
 48 56  1  0  0  0
 48 65  1  0  0  0
 48120  1  0  0  0
 49 50  1  0  0  0
 49 53  1  0  0  0
 49 64  1  0  0  0
 49121  1  0  0  0
 50 51  1  0  0  0
 50122  1  0  0  0
 50123  1  0  0  0
 51 52  1  0  0  0
 51124  1  0  0  0
 51125  1  0  0  0
 52126  1  0  0  0
 52127  1  0  0  0
 53 54  1  0  0  0
 54 55  2  0  0  0
 54128  1  0  0  0
 55 57  1  0  0  0
 55129  1  0  0  0
 56 69  2  0  0  0
 57 58  2  0  0  0
 57130  1  0  0  0
 58131  1  0  0  0
 59 60  1  0  0  0
 59 61  1  0  0  0
 59 62  1  0  0  0
 60132  1  0  0  0
 60133  1  0  0  0
 60134  1  0  0  0
 61135  1  0  0  0
 61136  1  0  0  0
 61137  1  0  0  0
 62138  1  0  0  0
 62139  1  0  0  0
 62140  1  0  0  0
 63 65  1  0  0  0
 63141  1  0  0  0
 63142  1  0  0  0
 63143  1  0  0  0
 64144  1  0  0  0
 65145  1  0  0  0
 68 82  1  0  0  0
 71 73  1  0  0  0
 71 75  1  0  0  0
 71146  1  0  0  0
 71147  1  0  0  0
 72 74  1  0  0  0
 72 75  1  0  0  0
 72148  1  0  0  0
 72149  1  0  0  0
 73150  1  0  0  0
 73151  1  0  0  0
 73 76  1  0  0  0
 74 76  1  0  0  0
 74152  1  0  0  0
 74153  1  0  0  0
 75 79  1  0  0  0
 75154  1  0  0  0
 76 83  1  0  0  0
 76155  1  0  0  0
 77 81  1  0  0  0
 77156  1  0  0  0
 77157  1  0  0  0
 77158  1  0  0  0
 78159  1  0  0  0
 78160  1  0  0  0
 78161  1  0  0  0
 78 84  1  0  0  0
 79 80  1  0  0  0
 79162  1  0  0  0
 79163  1  0  0  0
 80 85  1  0  0  0
 80164  1  0  0  0
 80165  1  0  0  0
 81 86  1  0  0  0
 81166  1  0  0  0
 81167  1  0  0  0
 82 84  1  0  0  0
 82168  1  0  0  0
 82169  1  0  0  0
 83 84  1  0  0  0
 83 86  1  0  0  0
 83170  1  0  0  0
 84171  1  0  0  0
 85172  1  0  0  0
M  ISO  4   1 100  68 101  82 101  85 100
M  END
> <chiral flag>
0

> <version>
0

> <s_m_source_file>
/data/baiqing/PycharmProjects/Reinvent-master-3.2/result/LINK_invent/BTK/process_docking_weight1_custom_sum_contain_oxygen_bond_distance_aromatic_linkinvent_7_9_3/rearranged_h_0040.sdf

> <i_m_source_file_index>
8

> <r_mmod_Potential_Energy-OPLS-2005>
29.3815574645996

> <r_mmod_Stretch_Energy-OPLS-2005>
40.7298965454102

> <r_mmod_Bend_Energy-OPLS-2005>
128.968811035156

> <r_mmod_Torsional_Energy-OPLS-2005>
274.307464599609

> <r_mmod_Improper_Torsional_Energy-OPLS-2005>
2.44664287567139

> <r_mmod_Van_der_Waal_Energy-OPLS-2005>
140.654663085938

> <r_mmod_Electrostatic_Energy-OPLS-2005>
-375.555084228516

> <r_mmod_Solvation_Energy-OPLS-2005>
-195.931716918945

> <b_mmod_Minimization_Converged-OPLS-2005>
0

> <r_mmod_RMS_Derivative-OPLS-2005>
2.88367486000061

$$$$
8
                    3D
 Structure written by MMmdl.
159167  0  0  1  0            999 V2000
  -30.6193  -14.5393   20.5484 C   0  0  0  0  0  0
  -30.4395  -12.3467   19.4050 C   0  0  0  0  0  0
  -29.4959  -12.5012   18.1927 C   0  0  0  0  0  0
  -28.0162  -12.3556   18.6078 C   0  0  0  0  0  0
  -27.6551  -13.2001   19.8589 C   0  0  2  0  0  0
  -28.6997  -12.9823   20.9744 C   0  0  0  0  0  0
  -25.2588  -13.8137   20.5678 C   0  0  0  0  0  0
  -24.1833  -13.0414   20.9168 C   0  0  0  0  0  0
  -24.6390  -11.6895   20.8721 C   0  0  0  0  0  0
  -23.9063  -10.4281   21.0397 C   0  0  0  0  0  0
  -24.3610   -9.4202   21.9178 C   0  0  0  0  0  0
  -23.6293   -8.2239   22.0750 C   0  0  0  0  0  0
  -22.4278   -8.0270   21.3535 C   0  0  0  0  0  0
  -21.9913   -9.0239   20.4639 C   0  0  0  0  0  0
  -22.7241  -10.2124   20.3042 C   0  0  0  0  0  0
  -21.6854   -6.0734   22.5277 C   0  0  0  0  0  0
  -21.4004   -6.5639   23.8209 C   0  0  0  0  0  0
  -21.3654   -5.6786   24.9169 C   0  0  0  0  0  0
  -21.6049   -4.3054   24.7223 C   0  0  0  0  0  0
  -21.8811   -3.8147   23.4347 C   0  0  0  0  0  0
  -21.9202   -4.6963   22.3398 C   0  0  0  0  0  0
  -22.7857  -13.5225   21.1855 C   0  0  0  0  0  0
  -22.1663   -4.2148   21.0974 F   0  0  0  0  0  0
  -21.5641   -3.4541   25.7746 F   0  0  0  0  0  0
  -30.0170  -13.3251   20.4167 N   0  0  0  0  0  0
  -26.2995  -12.9293   20.3288 N   0  0  0  0  0  0
  -25.9310  -11.6456   20.5707 N   0  0  0  0  0  0
  -22.0497  -12.8190   22.0377 N   0  0  0  0  0  0
  -25.4293  -15.1866   20.4119 N   0  0  0  0  0  0
  -31.7728  -14.7595   20.1658 O   0  0  0  0  0  0
  -21.6636   -6.8875   21.4241 O   0  0  0  0  0  0
  -22.3541  -14.5549   20.6740 O   0  0  0  0  0  0
  -24.6211  -31.8654   23.2022 C   0  0  0  0  0  0
  -25.9096  -32.4780   23.8344 C   0  0  1  0  0  0
  -27.2388  -27.4082   20.0897 C   0  0  0  0  0  0
  -25.5970  -33.8582   24.2284 N   0  0  0  0  0  0
  -23.4052  -30.4873   21.5430 C   0  0  2  0  0  0
  -24.8483  -28.9450   20.1118 C   0  0  0  0  0  0
  -22.7427  -29.4647   22.4944 C   0  0  0  0  0  0
  -18.0266  -28.1371   22.8454 C   0  0  0  0  0  0
  -24.1479  -36.7279   23.2610 C   0  0  0  0  0  0
  -25.9333  -30.8249   21.3505 C   0  0  0  0  0  0
  -26.0109  -29.4541   20.7029 C   0  0  0  0  0  0
  -27.2055  -28.6964   20.6814 C   0  0  0  0  0  0
  -26.0543  -26.9150   19.4970 C   0  0  0  0  0  0
  -24.8685  -27.6757   19.5057 C   0  0  0  0  0  0
  -23.6119  -29.8149   20.1600 C   0  0  0  0  0  0
  -25.4072  -36.3070   24.0328 C   0  0  1  0  0  0
  -20.5855  -28.3676   23.1276 C   0  0  2  0  0  0
  -20.6747  -26.9399   22.5412 C   0  0  0  0  0  0
  -19.5754  -26.6360   21.5192 C   0  0  0  0  0  0
  -18.1912  -26.7934   22.1537 C   0  0  0  0  0  0
  -19.1518  -28.8827   23.2873 C   0  0  0  0  0  0
  -18.9472  -30.1425   23.8890 C   0  0  0  0  0  0
  -17.6480  -30.6569   24.0573 C   0  0  0  0  0  0
  -25.9045  -34.9462   23.5092 C   0  0  0  0  0  0
  -16.5380  -29.9058   23.6346 C   0  0  0  0  0  0
  -16.7257  -28.6487   23.0319 C   0  0  0  0  0  0
  -26.4495  -31.6576   25.0700 C   0  0  0  0  0  0
  -25.3750  -31.3745   26.1465 C   0  0  0  0  0  0
  -27.0300  -30.2997   24.6089 C   0  0  0  0  0  0
  -27.6096  -32.4286   25.7447 C   0  0  0  0  0  0
  -27.5621  -37.1699   24.8375 C   0  0  0  0  0  0
  -21.4146  -29.3056   22.3701 N   0  0  0  0  0  0
  -26.4197  -37.3830   23.9528 N   0  0  0  0  0  0
  -24.6721  -31.0760   22.0898 N   0  0  0  0  0  0
  -23.4198  -28.8201   23.3001 O   0  0  0  0  0  0
  -28.4284  -26.6952   20.1124 O   0  0  0  0  0  0
  -26.5624  -34.8968   22.4661 O   0  0  0  0  0  0
  -23.5398  -32.1396   23.7405 O   0  0  0  0  0  0
  -29.0415  -21.9911   21.3625 C   0  0  0  0  0  0
  -28.1864  -22.8275   20.5722 C   0  0  0  0  0  0
  -28.7790  -20.6958   20.9597 C   0  0  0  0  0  0
  -29.9521  -22.4743   22.4637 C   0  0  0  0  0  0
  -27.2231  -19.8000   19.1084 C   0  0  0  0  0  0
  -27.8672  -24.3156   20.7486 C   0  0  0  0  0  0
  -29.2846  -19.3836   21.5825 C   0  0  0  0  0  0
  -29.2102  -18.0247   20.7972 C   0  0  0  0  0  0
  -30.1048  -16.9018   21.4197 C   0  0  0  0  0  0
  -28.4947  -25.3023   19.7229 C   0  0  0  0  0  0
  -27.5303  -22.1101   19.6775 N   0  0  0  0  0  0
  -27.8649  -20.8178   19.9176 N   0  0  0  0  0  0
  -29.7972  -15.5178   20.9962 N   0  0  0  0  0  0
  -31.4791  -12.4855   19.1012 H   0  0  0  0  0  0
  -30.3806  -11.3363   19.8125 H   0  0  0  0  0  0
  -29.7406  -11.7601   17.4312 H   0  0  0  0  0  0
  -29.6514  -13.4759   17.7261 H   0  0  0  0  0  0
  -27.8344  -11.2982   18.8092 H   0  0  0  0  0  0
  -27.3649  -12.6233   17.7742 H   0  0  0  0  0  0
  -27.6895  -14.2452   19.5505 H   0  0  0  0  0  0
  -28.7002  -11.9420   21.2973 H   0  0  0  0  0  0
  -28.4583  -13.5618   21.8675 H   0  0  0  0  0  0
  -25.2764   -9.5690   22.4747 H   0  0  0  0  0  0
  -24.0018   -7.4628   22.7465 H   0  0  0  0  0  0
  -21.0847   -8.8741   19.8933 H   0  0  0  0  0  0
  -22.3701  -10.9649   19.6142 H   0  0  0  0  0  0
  -21.1971   -7.6135   23.9711 H   0  0  0  0  0  0
  -21.1485   -6.0523   25.9074 H   0  0  0  0  0  0
  -22.0603   -2.7620   23.2850 H   0  0  0  0  0  0
  -22.4076  -11.9815   22.4728 H   0  0  0  0  0  0
  -21.1109  -13.1197   22.2587 H   0  0  0  0  0  0
  -24.6609  -15.8385   20.5230 H   0  0  0  0  0  0
  -26.2763  -15.6305   20.0841 H   0  0  0  0  0  0
  -26.7174  -32.5498   23.1108 H   0  0  0  0  0  0
  -25.0274  -33.9743   25.0535 H   0  0  0  0  0  0
  -22.6944  -31.3059   21.3982 H   0  0  0  0  0  0
  -23.3827  -35.9517   23.3066 H   0  0  0  0  0  0
  -24.3661  -36.9090   22.2079 H   0  0  0  0  0  0
  -23.7113  -37.6362   23.6768 H   0  0  0  0  0  0
  -26.0401  -31.5809   20.5711 H   0  0  0  0  0  0
  -26.8243  -30.8840   21.9663 H   0  0  0  0  0  0
  -28.1074  -29.0916   21.1281 H   0  0  0  0  0  0
  -26.0282  -25.9442   19.0269 H   0  0  0  0  0  0
  -23.9743  -27.2725   19.0497 H   0  0  0  0  0  0
  -23.7201  -30.5874   19.3959 H   0  0  0  0  0  0
  -22.7334  -29.2380   19.8634 H   0  0  0  0  0  0
  -25.1192  -36.1857   25.0796 H   0  0  0  0  0  0
  -20.9941  -28.3264   24.1403 H   0  0  0  0  0  0
  -20.5573  -26.2311   23.3611 H   0  0  0  0  0  0
  -21.6632  -26.7354   22.1304 H   0  0  0  0  0  0
  -19.6932  -25.6271   21.1235 H   0  0  0  0  0  0
  -19.6742  -27.3163   20.6740 H   0  0  0  0  0  0
  -17.4217  -26.6743   21.3903 H   0  0  0  0  0  0
  -18.0248  -26.0012   22.8841 H   0  0  0  0  0  0
  -19.7960  -30.7236   24.2250 H   0  0  0  0  0  0
  -17.5046  -31.6258   24.5166 H   0  0  0  0  0  0
  -15.5398  -30.2984   23.7646 H   0  0  0  0  0  0
  -15.8641  -28.0836   22.7003 H   0  0  0  0  0  0
  -24.6064  -30.6847   25.7937 H   0  0  0  0  0  0
  -24.8779  -32.2901   26.4703 H   0  0  0  0  0  0
  -25.8133  -30.9216   27.0363 H   0  0  0  0  0  0
  -26.2834  -29.6767   24.1142 H   0  0  0  0  0  0
  -27.4055  -29.7215   25.4546 H   0  0  0  0  0  0
  -27.8663  -30.4280   23.9205 H   0  0  0  0  0  0
  -27.2775  -33.3647   26.1944 H   0  0  0  0  0  0
  -28.3962  -32.6715   25.0290 H   0  0  0  0  0  0
  -28.0687  -31.8443   26.5424 H   0  0  0  0  0  0
  -28.2327  -38.0296   24.7917 H   0  0  0  0  0  0
  -28.1413  -36.2907   24.5507 H   0  0  0  0  0  0
  -27.2495  -37.0499   25.8768 H   0  0  0  0  0  0
  -20.9322  -29.8838   21.6962 H   0  0  0  0  0  0
  -26.0034  -38.2799   24.1894 H   0  0  0  0  0  0
  -30.5033  -23.3687   22.1637 H   0  0  0  0  0  0
  -30.6966  -21.7339   22.7562 H   0  0  0  0  0  0
  -29.3921  -22.7354   23.3632 H   0  0  0  0  0  0
  -26.7931  -19.0315   19.7490 H   0  0  0  0  0  0
  -27.9568  -19.3600   18.4307 H   0  0  0  0  0  0
  -26.4099  -20.2239   18.5174 H   0  0  0  0  0  0
  -28.1684  -24.6277   21.7476 H   0  0  0  0  0  0
  -26.7835  -24.4393   20.7357 H   0  0  0  0  0  0
  -28.7474  -19.2465   22.5256 H   0  0  0  0  0  0
  -30.3235  -19.5383   21.8810 H   0  0  0  0  0  0
  -29.5171  -18.1768   19.7586 H   0  0  0  0  0  0
  -28.1717  -17.6852   20.7728 H   0  0  0  0  0  0
  -29.9555  -16.9112   22.4996 H   0  0  0  0  0  0
  -31.1561  -17.1361   21.2520 H   0  0  0  0  0  0
  -28.1011  -25.1528   18.7184 H   0  0  0  0  0  0
  -29.5596  -25.0752   19.6549 H   0  0  0  0  0  0
  -28.8597  -15.1997   21.1930 H   0  0  0  0  0  0
  1 25  1  0  0  0
  1 30  2  0  0  0
  1 83  1  0  0  0
  2  3  1  0  0  0
  2 25  1  0  0  0
  2 84  1  0  0  0
  2 85  1  0  0  0
  3  4  1  0  0  0
  3 86  1  0  0  0
  3 87  1  0  0  0
  4  5  1  0  0  0
  4 88  1  0  0  0
  4 89  1  0  0  0
  5  6  1  0  0  0
  5 26  1  0  0  0
  5 90  1  0  0  0
  6 25  1  0  0  0
  6 91  1  0  0  0
  6 92  1  0  0  0
  7  8  2  0  0  0
  7 26  1  0  0  0
  7 29  1  0  0  0
  8  9  1  0  0  0
  8 22  1  0  0  0
  9 10  1  0  0  0
  9 27  2  0  0  0
 10 11  2  0  0  0
 10 15  1  0  0  0
 11 12  1  0  0  0
 11 93  1  0  0  0
 12 13  2  0  0  0
 12 94  1  0  0  0
 13 14  1  0  0  0
 13 31  1  0  0  0
 14 15  2  0  0  0
 14 95  1  0  0  0
 15 96  1  0  0  0
 16 17  2  0  0  0
 16 21  1  0  0  0
 16 31  1  0  0  0
 17 18  1  0  0  0
 17 97  1  0  0  0
 18 19  2  0  0  0
 18 98  1  0  0  0
 19 20  1  0  0  0
 19 24  1  0  0  0
 20 21  2  0  0  0
 20 99  1  0  0  0
 21 23  1  0  0  0
 22 28  1  0  0  0
 22 32  2  0  0  0
 26 27  1  0  0  0
 28100  1  0  0  0
 28101  1  0  0  0
 29102  1  0  0  0
 29103  1  0  0  0
 33 34  1  0  0  0
 33 66  1  0  0  0
 33 70  2  0  0  0
 34 36  1  0  0  0
 34 59  1  0  0  0
 34104  1  0  0  0
 35 44  2  0  0  0
 35 45  1  0  0  0
 35 68  1  0  0  0
 36 56  1  0  0  0
 36105  1  0  0  0
 37 39  1  0  0  0
 37 47  1  0  0  0
 37 66  1  0  0  0
 37106  1  0  0  0
 38 43  2  0  0  0
 38 46  1  0  0  0
 38 47  1  0  0  0
 39 64  1  0  0  0
 39 67  2  0  0  0
 40 52  1  0  0  0
 40 53  2  0  0  0
 40 58  1  0  0  0
 41107  1  0  0  0
 41108  1  0  0  0
 41109  1  0  0  0
 41 48  1  0  0  0
 42 43  1  0  0  0
 42 66  1  0  0  0
 42110  1  0  0  0
 42111  1  0  0  0
 43 44  1  0  0  0
 44112  1  0  0  0
 45 46  2  0  0  0
 45113  1  0  0  0
 46114  1  0  0  0
 47115  1  0  0  0
 47116  1  0  0  0
 48 56  1  0  0  0
 48 65  1  0  0  0
 48117  1  0  0  0
 49 50  1  0  0  0
 49 53  1  0  0  0
 49 64  1  0  0  0
 49118  1  0  0  0
 50 51  1  0  0  0
 50119  1  0  0  0
 50120  1  0  0  0
 51 52  1  0  0  0
 51121  1  0  0  0
 51122  1  0  0  0
 52123  1  0  0  0
 52124  1  0  0  0
 53 54  1  0  0  0
 54 55  2  0  0  0
 54125  1  0  0  0
 55 57  1  0  0  0
 55126  1  0  0  0
 56 69  2  0  0  0
 57 58  2  0  0  0
 57127  1  0  0  0
 58128  1  0  0  0
 59 60  1  0  0  0
 59 61  1  0  0  0
 59 62  1  0  0  0
 60129  1  0  0  0
 60130  1  0  0  0
 60131  1  0  0  0
 61132  1  0  0  0
 61133  1  0  0  0
 61134  1  0  0  0
 62135  1  0  0  0
 62136  1  0  0  0
 62137  1  0  0  0
 63 65  1  0  0  0
 63138  1  0  0  0
 63139  1  0  0  0
 63140  1  0  0  0
 64141  1  0  0  0
 65142  1  0  0  0
 68 80  1  0  0  0
 71 72  1  0  0  0
 71 73  2  0  0  0
 71 74  1  0  0  0
 72 76  1  0  0  0
 72 81  2  0  0  0
 73 77  1  0  0  0
 73 82  1  0  0  0
 74143  1  0  0  0
 74144  1  0  0  0
 74145  1  0  0  0
 75 82  1  0  0  0
 75146  1  0  0  0
 75147  1  0  0  0
 75148  1  0  0  0
 76 80  1  0  0  0
 76149  1  0  0  0
 76150  1  0  0  0
 77 78  1  0  0  0
 77151  1  0  0  0
 77152  1  0  0  0
 78 79  1  0  0  0
 78153  1  0  0  0
 78154  1  0  0  0
 79 83  1  0  0  0
 79155  1  0  0  0
 79156  1  0  0  0
 80157  1  0  0  0
 80158  1  0  0  0
 81 82  1  0  0  0
 83159  1  0  0  0
M  ISO  4   1 100  68 101  80 101  83 100
M  END
> <chiral flag>
0

> <version>
0

> <s_m_source_file>
/data/baiqing/PycharmProjects/Reinvent-master-3.2/result/LINK_invent/BTK/process_docking_weight1_custom_sum_contain_oxygen_bond_distance_aromatic_linkinvent_7_9_3/rearranged_h_0040.sdf

> <i_m_source_file_index>
9

> <r_mmod_Potential_Energy-OPLS-2005>
-107.240882873535

> <r_mmod_Stretch_Energy-OPLS-2005>
44.8267555236816

> <r_mmod_Bend_Energy-OPLS-2005>
121.554626464844

> <r_mmod_Torsional_Energy-OPLS-2005>
193.410766601562

> <r_mmod_Improper_Torsional_Energy-OPLS-2005>
4.25239753723145

> <r_mmod_Van_der_Waal_Energy-OPLS-2005>
121.622886657715

> <r_mmod_Electrostatic_Energy-OPLS-2005>
-391.742645263672

> <r_mmod_Solvation_Energy-OPLS-2005>
-223.276138305664

> <b_mmod_Minimization_Converged-OPLS-2005>
0

> <r_mmod_RMS_Derivative-OPLS-2005>
4.81972503662109

$$$$
9
                    3D
 Structure written by MMmdl.
147155  0  0  1  0            999 V2000
  -30.5298  -15.0137   20.3998 C   0  0  0  0  0  0
  -30.4353  -12.6318   19.5032 C   0  0  0  0  0  0
  -29.5220  -12.5312   18.2596 C   0  0  0  0  0  0
  -28.0560  -12.3141   18.6776 C   0  0  0  0  0  0
  -27.6225  -13.2570   19.8310 C   0  0  2  0  0  0
  -28.6643  -13.3220   20.9669 C   0  0  0  0  0  0
  -25.2422  -13.8232   20.5714 C   0  0  0  0  0  0
  -24.1760  -13.0438   20.9242 C   0  0  0  0  0  0
  -24.6397  -11.6927   20.8768 C   0  0  0  0  0  0
  -23.9092  -10.4290   21.0412 C   0  0  0  0  0  0
  -24.3639   -9.4201   21.9181 C   0  0  0  0  0  0
  -23.6311   -8.2240   22.0749 C   0  0  0  0  0  0
  -22.4292   -8.0283   21.3542 C   0  0  0  0  0  0
  -21.9933   -9.0259   20.4642 C   0  0  0  0  0  0
  -22.7267  -10.2134   20.3057 C   0  0  0  0  0  0
  -21.6855   -6.0741   22.5283 C   0  0  0  0  0  0
  -21.4017   -6.5641   23.8219 C   0  0  0  0  0  0
  -21.3668   -5.6793   24.9179 C   0  0  0  0  0  0
  -21.6049   -4.3057   24.7226 C   0  0  0  0  0  0
  -21.8813   -3.8148   23.4343 C   0  0  0  0  0  0
  -21.9188   -4.6967   22.3400 C   0  0  0  0  0  0
  -22.7774  -13.5198   21.1891 C   0  0  0  0  0  0
  -22.1650   -4.2155   21.0979 F   0  0  0  0  0  0
  -21.5631   -3.4536   25.7735 F   0  0  0  0  0  0
  -29.9288  -13.7501   20.3561 N   0  0  0  0  0  0
  -26.2851  -12.9481   20.3224 N   0  0  0  0  0  0
  -25.9329  -11.6602   20.5746 N   0  0  0  0  0  0
  -22.0427  -12.8193   22.0455 N   0  0  0  0  0  0
  -25.4045  -15.1963   20.4125 N   0  0  0  0  0  0
  -31.7425  -15.0427   20.1629 O   0  0  0  0  0  0
  -21.6642   -6.8888   21.4248 O   0  0  0  0  0  0
  -22.3455  -14.5496   20.6726 O   0  0  0  0  0  0
  -24.6472  -31.8408   23.1843 C   0  0  0  0  0  0
  -25.9224  -32.4675   23.8251 C   0  0  1  0  0  0
  -27.2146  -27.0921   20.1589 C   0  0  0  0  0  0
  -25.5954  -33.8481   24.2167 N   0  0  0  0  0  0
  -23.4530  -30.4586   21.5305 C   0  0  2  0  0  0
  -24.9019  -28.8748   20.1107 C   0  0  0  0  0  0
  -22.7588  -29.4534   22.4844 C   0  0  0  0  0  0
  -18.0311  -28.1402   22.8484 C   0  0  0  0  0  0
  -24.1489  -36.7249   23.2646 C   0  0  0  0  0  0
  -26.0116  -30.6995   21.3896 C   0  0  0  0  0  0
  -26.0809  -29.3061   20.7312 C   0  0  0  0  0  0
  -27.2372  -28.4319   20.7361 C   0  0  0  0  0  0
  -26.0092  -26.7701   19.4996 C   0  0  0  0  0  0
  -24.8808  -27.6216   19.4789 C   0  0  0  0  0  0
  -23.6817  -29.7850   20.1510 C   0  0  0  0  0  0
  -25.4122  -36.3020   24.0316 C   0  0  1  0  0  0
  -20.5928  -28.3731   23.1232 C   0  0  2  0  0  0
  -20.6797  -26.9431   22.5409 C   0  0  0  0  0  0
  -19.5764  -26.6379   21.5227 C   0  0  0  0  0  0
  -18.1946  -26.7940   22.1634 C   0  0  0  0  0  0
  -19.1570  -28.8886   23.2846 C   0  0  0  0  0  0
  -18.9481  -30.1482   23.8875 C   0  0  0  0  0  0
  -17.6476  -30.6596   24.0565 C   0  0  0  0  0  0
  -25.9078  -34.9399   23.5057 C   0  0  0  0  0  0
  -16.5369  -29.9088   23.6336 C   0  0  0  0  0  0
  -16.7294  -28.6505   23.0361 C   0  0  0  0  0  0
  -26.4517  -31.6560   25.0716 C   0  0  0  0  0  0
  -25.3676  -31.3778   26.1398 C   0  0  0  0  0  0
  -27.0397  -30.2949   24.6338 C   0  0  0  0  0  0
  -27.6040  -32.4335   25.7506 C   0  0  0  0  0  0
  -27.5573  -37.1784   24.8464 C   0  0  0  0  0  0
  -21.4277  -29.3048   22.3594 N   0  0  0  0  0  0
  -26.4284  -37.3736   23.9408 N   0  0  0  0  0  0
  -24.7244  -31.0218   22.0898 N   0  0  0  0  0  0
  -23.4216  -28.8094   23.3016 O   0  0  0  0  0  0
  -28.2592  -26.0855   20.2324 O   0  0  0  0  0  0
  -26.5673  -34.8906   22.4641 O   0  0  0  0  0  0
  -23.5578  -32.1307   23.7034 O   0  0  0  0  0  0
  -28.0494  -19.6290   20.2353 C   0  0  0  0  0  0
  -29.9296  -20.5829   20.3979 C   0  0  0  0  0  0
  -29.4351  -19.2448   20.3543 C   0  0  0  0  0  0
  -30.2551  -17.7647   20.4023 C   0  0  0  0  0  0
  -29.1043  -23.2640   20.4227 C   0  0  0  0  0  0
  -28.0071  -24.5300   20.0857 C   0  0  0  0  0  0
  -27.7822  -20.9728   20.2267 N   0  0  0  0  0  0
  -28.9569  -21.6604   20.3141 N   0  0  0  0  0  0
  -29.7820  -16.2391   20.4949 N   0  0  0  0  0  0
  -31.4675  -12.7921   19.1874 H   0  0  0  0  0  0
  -30.4391  -11.6939   20.0603 H   0  0  0  0  0  0
  -29.8521  -11.7164   17.6132 H   0  0  0  0  0  0
  -29.6051  -13.4443   17.6685 H   0  0  0  0  0  0
  -27.9570  -11.2754   18.9950 H   0  0  0  0  0  0
  -27.3948  -12.4334   17.8187 H   0  0  0  0  0  0
  -27.5742  -14.2513   19.3863 H   0  0  0  0  0  0
  -28.7686  -12.3570   21.4658 H   0  0  0  0  0  0
  -28.3537  -14.0364   21.7303 H   0  0  0  0  0  0
  -25.2781   -9.5672   22.4760 H   0  0  0  0  0  0
  -24.0009   -7.4636   22.7472 H   0  0  0  0  0  0
  -21.0855   -8.8795   19.8953 H   0  0  0  0  0  0
  -22.3730  -10.9678   19.6169 H   0  0  0  0  0  0
  -21.2016   -7.6152   23.9729 H   0  0  0  0  0  0
  -21.1495   -6.0519   25.9087 H   0  0  0  0  0  0
  -22.0584   -2.7610   23.2841 H   0  0  0  0  0  0
  -22.4058  -11.9884   22.4883 H   0  0  0  0  0  0
  -21.1034  -13.1208   22.2646 H   0  0  0  0  0  0
  -24.6272  -15.8395   20.5185 H   0  0  0  0  0  0
  -26.2378  -15.6404   20.0504 H   0  0  0  0  0  0
  -26.7296  -32.5264   23.0979 H   0  0  0  0  0  0
  -25.0052  -33.9586   25.0282 H   0  0  0  0  0  0
  -22.7566  -31.2857   21.3738 H   0  0  0  0  0  0
  -23.3757  -35.9574   23.3290 H   0  0  0  0  0  0
  -24.3573  -36.8901   22.2064 H   0  0  0  0  0  0
  -23.7242  -37.6437   23.6697 H   0  0  0  0  0  0
  -26.1741  -31.4521   20.6172 H   0  0  0  0  0  0
  -26.8794  -30.7498   22.0359 H   0  0  0  0  0  0
  -28.1326  -28.7578   21.2463 H   0  0  0  0  0  0
  -25.9059  -25.8108   19.0149 H   0  0  0  0  0  0
  -23.9803  -27.2860   18.9834 H   0  0  0  0  0  0
  -23.8261  -30.5597   19.3977 H   0  0  0  0  0  0
  -22.7938  -29.2337   19.8366 H   0  0  0  0  0  0
  -25.1313  -36.1842   25.0808 H   0  0  0  0  0  0
  -21.0021  -28.3331   24.1355 H   0  0  0  0  0  0
  -20.5706  -26.2351   23.3633 H   0  0  0  0  0  0
  -21.6661  -26.7443   22.1199 H   0  0  0  0  0  0
  -19.6926  -25.6281   21.1277 H   0  0  0  0  0  0
  -19.6697  -27.3175   20.6745 H   0  0  0  0  0  0
  -17.4218  -26.6695   21.4029 H   0  0  0  0  0  0
  -18.0333  -26.0085   22.9033 H   0  0  0  0  0  0
  -19.7956  -30.7309   24.2229 H   0  0  0  0  0  0
  -17.5027  -31.6274   24.5173 H   0  0  0  0  0  0
  -15.5367  -30.2985   23.7668 H   0  0  0  0  0  0
  -15.8697  -28.0816   22.7088 H   0  0  0  0  0  0
  -24.5844  -30.7146   25.7704 H   0  0  0  0  0  0
  -24.8881  -32.2977   26.4754 H   0  0  0  0  0  0
  -25.7930  -30.8977   27.0221 H   0  0  0  0  0  0
  -26.3039  -29.6657   24.1323 H   0  0  0  0  0  0
  -27.3967  -29.7268   25.4937 H   0  0  0  0  0  0
  -27.8955  -30.4175   23.9699 H   0  0  0  0  0  0
  -27.2622  -33.3649   26.2025 H   0  0  0  0  0  0
  -28.3877  -32.6871   25.0359 H   0  0  0  0  0  0
  -28.0674  -31.8503   26.5469 H   0  0  0  0  0  0
  -28.2581  -38.0088   24.7509 H   0  0  0  0  0  0
  -28.1079  -36.2620   24.6290 H   0  0  0  0  0  0
  -27.2295  -37.1430   25.8867 H   0  0  0  0  0  0
  -20.9498  -29.8742   21.6749 H   0  0  0  0  0  0
  -26.0147  -38.2803   24.1404 H   0  0  0  0  0  0
  -27.2034  -18.9603   20.1548 H   0  0  0  0  0  0
  -30.9659  -20.8742   20.4956 H   0  0  0  0  0  0
  -30.9625  -17.8391   21.2289 H   0  0  0  0  0  0
  -30.9104  -17.7552   19.5300 H   0  0  0  0  0  0
  -29.4269  -23.4375   21.4488 H   0  0  0  0  0  0
  -29.9898  -23.4958   19.8312 H   0  0  0  0  0  0
  -27.1153  -24.3201   20.6780 H   0  0  0  0  0  0
  -27.6971  -24.3829   19.0512 H   0  0  0  0  0  0
  -28.7920  -16.1083   20.6379 H   0  0  0  0  0  0
  1 25  1  0  0  0
  1 30  2  0  0  0
  1 79  1  0  0  0
  2  3  1  0  0  0
  2 25  1  0  0  0
  2 80  1  0  0  0
  2 81  1  0  0  0
  3  4  1  0  0  0
  3 82  1  0  0  0
  3 83  1  0  0  0
  4  5  1  0  0  0
  4 84  1  0  0  0
  4 85  1  0  0  0
  5  6  1  0  0  0
  5 26  1  0  0  0
  5 86  1  0  0  0
  6 25  1  0  0  0
  6 87  1  0  0  0
  6 88  1  0  0  0
  7  8  2  0  0  0
  7 26  1  0  0  0
  7 29  1  0  0  0
  8  9  1  0  0  0
  8 22  1  0  0  0
  9 10  1  0  0  0
  9 27  2  0  0  0
 10 11  2  0  0  0
 10 15  1  0  0  0
 11 12  1  0  0  0
 11 89  1  0  0  0
 12 13  2  0  0  0
 12 90  1  0  0  0
 13 14  1  0  0  0
 13 31  1  0  0  0
 14 15  2  0  0  0
 14 91  1  0  0  0
 15 92  1  0  0  0
 16 17  2  0  0  0
 16 21  1  0  0  0
 16 31  1  0  0  0
 17 18  1  0  0  0
 17 93  1  0  0  0
 18 19  2  0  0  0
 18 94  1  0  0  0
 19 20  1  0  0  0
 19 24  1  0  0  0
 20 21  2  0  0  0
 20 95  1  0  0  0
 21 23  1  0  0  0
 22 28  1  0  0  0
 22 32  2  0  0  0
 26 27  1  0  0  0
 28 96  1  0  0  0
 28 97  1  0  0  0
 29 98  1  0  0  0
 29 99  1  0  0  0
 33 34  1  0  0  0
 33 66  1  0  0  0
 33 70  2  0  0  0
 34 36  1  0  0  0
 34 59  1  0  0  0
 34100  1  0  0  0
 35 44  2  0  0  0
 35 45  1  0  0  0
 35 68  1  0  0  0
 36 56  1  0  0  0
 36101  1  0  0  0
 37 39  1  0  0  0
 37 47  1  0  0  0
 37 66  1  0  0  0
 37102  1  0  0  0
 38 43  2  0  0  0
 38 46  1  0  0  0
 38 47  1  0  0  0
 39 64  1  0  0  0
 39 67  2  0  0  0
 40 52  1  0  0  0
 40 53  2  0  0  0
 40 58  1  0  0  0
 41103  1  0  0  0
 41104  1  0  0  0
 41105  1  0  0  0
 41 48  1  0  0  0
 42 43  1  0  0  0
 42 66  1  0  0  0
 42106  1  0  0  0
 42107  1  0  0  0
 43 44  1  0  0  0
 44108  1  0  0  0
 45 46  2  0  0  0
 45109  1  0  0  0
 46110  1  0  0  0
 47111  1  0  0  0
 47112  1  0  0  0
 48 56  1  0  0  0
 48 65  1  0  0  0
 48113  1  0  0  0
 49 50  1  0  0  0
 49 53  1  0  0  0
 49 64  1  0  0  0
 49114  1  0  0  0
 50 51  1  0  0  0
 50115  1  0  0  0
 50116  1  0  0  0
 51 52  1  0  0  0
 51117  1  0  0  0
 51118  1  0  0  0
 52119  1  0  0  0
 52120  1  0  0  0
 53 54  1  0  0  0
 54 55  2  0  0  0
 54121  1  0  0  0
 55 57  1  0  0  0
 55122  1  0  0  0
 56 69  2  0  0  0
 57 58  2  0  0  0
 57123  1  0  0  0
 58124  1  0  0  0
 59 60  1  0  0  0
 59 61  1  0  0  0
 59 62  1  0  0  0
 60125  1  0  0  0
 60126  1  0  0  0
 60127  1  0  0  0
 61128  1  0  0  0
 61129  1  0  0  0
 61130  1  0  0  0
 62131  1  0  0  0
 62132  1  0  0  0
 62133  1  0  0  0
 63 65  1  0  0  0
 63134  1  0  0  0
 63135  1  0  0  0
 63136  1  0  0  0
 64137  1  0  0  0
 65138  1  0  0  0
 68 76  1  0  0  0
 71 73  1  0  0  0
 71 77  2  0  0  0
 71139  1  0  0  0
 72 73  2  0  0  0
 72 78  1  0  0  0
 72140  1  0  0  0
 73 74  1  0  0  0
 74 79  1  0  0  0
 74141  1  0  0  0
 74142  1  0  0  0
 75 76  1  0  0  0
 75 78  1  0  0  0
 75143  1  0  0  0
 75144  1  0  0  0
 76145  1  0  0  0
 76146  1  0  0  0
 77 78  1  0  0  0
 79147  1  0  0  0
M  ISO  4   1 100  68 101  76 101  79 100
M  END
> <chiral flag>
0

> <version>
0

> <s_m_source_file>
/data/baiqing/PycharmProjects/Reinvent-master-3.2/result/LINK_invent/BTK/process_docking_weight1_custom_sum_contain_oxygen_bond_distance_aromatic_linkinvent_7_9_3/rearranged_h_0040.sdf

> <i_m_source_file_index>
10

> <r_mmod_Potential_Energy-OPLS-2005>
575.579711914062

> <r_mmod_Stretch_Energy-OPLS-2005>
306.521423339844

> <r_mmod_Bend_Energy-OPLS-2005>
301.616943359375

> <r_mmod_Torsional_Energy-OPLS-2005>
207.949600219727

> <r_mmod_Improper_Torsional_Energy-OPLS-2005>
4.64891004562378

> <r_mmod_Van_der_Waal_Energy-OPLS-2005>
109.57543182373

> <r_mmod_Electrostatic_Energy-OPLS-2005>
-358.696014404297

> <r_mmod_Solvation_Energy-OPLS-2005>
-233.904388427734

> <b_mmod_Minimization_Converged-OPLS-2005>
0

> <r_mmod_RMS_Derivative-OPLS-2005>
1.18908452987671

$$$$
10
                    3D
 Structure written by MMmdl.
167175  0  0  1  0            999 V2000
  -30.6537  -14.5639   20.5514 C   0  0  0  0  0  0
  -30.4311  -12.3591   19.4273 C   0  0  0  0  0  0
  -29.5022  -12.5077   18.2049 C   0  0  0  0  0  0
  -28.0201  -12.3612   18.6112 C   0  0  0  0  0  0
  -27.6523  -13.2135   19.8566 C   0  0  2  0  0  0
  -28.6970  -13.0339   20.9790 C   0  0  0  0  0  0
  -25.2553  -13.8171   20.5666 C   0  0  0  0  0  0
  -24.1826  -13.0435   20.9189 C   0  0  0  0  0  0
  -24.6402  -11.6906   20.8734 C   0  0  0  0  0  0
  -23.9073  -10.4293   21.0407 C   0  0  0  0  0  0
  -24.3624   -9.4206   21.9185 C   0  0  0  0  0  0
  -23.6304   -8.2234   22.0745 C   0  0  0  0  0  0
  -22.4288   -8.0274   21.3530 C   0  0  0  0  0  0
  -21.9926   -9.0253   20.4636 C   0  0  0  0  0  0
  -22.7255  -10.2129   20.3048 C   0  0  0  0  0  0
  -21.6856   -6.0739   22.5284 C   0  0  0  0  0  0
  -21.4017   -6.5641   23.8218 C   0  0  0  0  0  0
  -21.3653   -5.6792   24.9180 C   0  0  0  0  0  0
  -21.6043   -4.3055   24.7231 C   0  0  0  0  0  0
  -21.8816   -3.8146   23.4352 C   0  0  0  0  0  0
  -21.9189   -4.6964   22.3409 C   0  0  0  0  0  0
  -22.7842  -13.5224   21.1850 C   0  0  0  0  0  0
  -22.1657   -4.2146   21.0983 F   0  0  0  0  0  0
  -21.5625   -3.4540   25.7745 F   0  0  0  0  0  0
  -30.0139  -13.3665   20.4153 N   0  0  0  0  0  0
  -26.2976  -12.9343   20.3276 N   0  0  0  0  0  0
  -25.9323  -11.6501   20.5729 N   0  0  0  0  0  0
  -22.0485  -12.8214   22.0401 N   0  0  0  0  0  0
  -25.4261  -15.1899   20.4066 N   0  0  0  0  0  0
  -31.8231  -14.7362   20.2007 O   0  0  0  0  0  0
  -21.6637   -6.8882   21.4244 O   0  0  0  0  0  0
  -22.3526  -14.5527   20.6697 O   0  0  0  0  0  0
  -24.6211  -31.8647   23.2056 C   0  0  0  0  0  0
  -25.9077  -32.4804   23.8370 C   0  0  1  0  0  0
  -27.2295  -27.3763   20.1098 C   0  0  0  0  0  0
  -25.5921  -33.8600   24.2323 N   0  0  0  0  0  0
  -23.4097  -30.4877   21.5486 C   0  0  2  0  0  0
  -24.8531  -28.9450   20.1163 C   0  0  0  0  0  0
  -22.7439  -29.4645   22.4969 C   0  0  0  0  0  0
  -18.0283  -28.1370   22.8498 C   0  0  0  0  0  0
  -24.1484  -36.7301   23.2634 C   0  0  0  0  0  0
  -25.9427  -30.8162   21.3615 C   0  0  0  0  0  0
  -26.0160  -29.4437   20.7135 C   0  0  0  0  0  0
  -27.2035  -28.6681   20.7017 C   0  0  0  0  0  0
  -26.0390  -26.9036   19.5082 C   0  0  0  0  0  0
  -24.8632  -27.6792   19.5088 C   0  0  0  0  0  0
  -23.6186  -29.8191   20.1637 C   0  0  0  0  0  0
  -25.4106  -36.3104   24.0343 C   0  0  1  0  0  0
  -20.5880  -28.3672   23.1309 C   0  0  2  0  0  0
  -20.6774  -26.9402   22.5419 C   0  0  0  0  0  0
  -19.5748  -26.6378   21.5221 C   0  0  0  0  0  0
  -18.1928  -26.7914   22.1636 C   0  0  0  0  0  0
  -19.1531  -28.8836   23.2906 C   0  0  0  0  0  0
  -18.9450  -30.1440   23.8919 C   0  0  0  0  0  0
  -17.6446  -30.6572   24.0560 C   0  0  0  0  0  0
  -25.9041  -34.9467   23.5135 C   0  0  0  0  0  0
  -16.5341  -29.9077   23.6310 C   0  0  0  0  0  0
  -16.7269  -28.6494   23.0341 C   0  0  0  0  0  0
  -26.4486  -31.6569   25.0698 C   0  0  0  0  0  0
  -25.3727  -31.3671   26.1423 C   0  0  0  0  0  0
  -27.0318  -30.3017   24.6059 C   0  0  0  0  0  0
  -27.6063  -32.4266   25.7482 C   0  0  0  0  0  0
  -27.5582  -37.1818   24.8466 C   0  0  0  0  0  0
  -21.4156  -29.3039   22.3715 N   0  0  0  0  0  0
  -26.4292  -37.3791   23.9408 N   0  0  0  0  0  0
  -24.6773  -31.0715   22.0973 N   0  0  0  0  0  0
  -23.4186  -28.8183   23.3022 O   0  0  0  0  0  0
  -28.4125  -26.6440   20.1450 O   0  0  0  0  0  0
  -26.5594  -34.8927   22.4687 O   0  0  0  0  0  0
  -23.5396  -32.1407   23.7438 O   0  0  0  0  0  0
  -32.0656  -22.4222   20.1130 C   0  0  0  0  0  0
  -31.6098  -21.1002   19.9581 C   0  0  0  0  0  0
  -31.1815  -23.4360   20.5157 C   0  0  0  0  0  0
  -30.2676  -20.7901   20.3168 C   0  0  0  0  0  0
  -29.8120  -23.1146   20.6550 C   0  0  0  0  0  0
  -32.6136  -20.1014   19.4006 C   0  0  0  0  0  0
  -32.4662  -26.4646   22.6322 C   0  0  0  0  0  0
  -31.7402  -24.8282   20.8027 C   0  0  0  0  0  0
  -29.6898  -19.3344   20.4431 C   0  0  0  0  0  0
  -28.7747  -24.2399   20.9314 C   0  0  0  0  0  0
  -32.0056  -25.0394   22.3040 C   0  0  0  0  0  0
  -30.6705  -18.1108   20.6609 C   0  0  0  0  0  0
  -30.2508  -16.8993   21.5716 C   0  0  0  0  0  0
  -28.5010  -25.2408   19.7516 C   0  0  0  0  0  0
  -29.3910  -21.8108   20.5924 N   0  0  0  0  0  0
  -29.8719  -15.5969   20.9609 N   0  0  0  0  0  0
  -31.4753  -12.4791   19.1310 H   0  0  0  0  0  0
  -30.3500  -11.3563   19.8496 H   0  0  0  0  0  0
  -29.7583  -11.7683   17.4449 H   0  0  0  0  0  0
  -29.6617  -13.4840   17.7441 H   0  0  0  0  0  0
  -27.8342  -11.3060   18.8128 H   0  0  0  0  0  0
  -27.3739  -12.6257   17.7730 H   0  0  0  0  0  0
  -27.6800  -14.2558   19.5360 H   0  0  0  0  0  0
  -28.6982  -12.0054   21.3421 H   0  0  0  0  0  0
  -28.4512  -13.6513   21.8448 H   0  0  0  0  0  0
  -25.2779   -9.5679   22.4751 H   0  0  0  0  0  0
  -24.0016   -7.4625   22.7465 H   0  0  0  0  0  0
  -21.0847   -8.8773   19.8960 H   0  0  0  0  0  0
  -22.3721  -10.9655   19.6138 H   0  0  0  0  0  0
  -21.2014   -7.6154   23.9727 H   0  0  0  0  0  0
  -21.1478   -6.0522   25.9081 H   0  0  0  0  0  0
  -22.0603   -2.7612   23.2858 H   0  0  0  0  0  0
  -22.4102  -11.9878   22.4787 H   0  0  0  0  0  0
  -21.1081  -13.1201   22.2563 H   0  0  0  0  0  0
  -24.6615  -15.8460   20.5246 H   0  0  0  0  0  0
  -26.2684  -15.6301   20.0584 H   0  0  0  0  0  0
  -26.7144  -32.5505   23.1127 H   0  0  0  0  0  0
  -25.0099  -33.9756   25.0496 H   0  0  0  0  0  0
  -22.7004  -31.3062   21.4081 H   0  0  0  0  0  0
  -23.3758  -35.9621   23.3290 H   0  0  0  0  0  0
  -24.3593  -36.8915   22.2049 H   0  0  0  0  0  0
  -23.7211  -37.6500   23.6642 H   0  0  0  0  0  0
  -26.0505  -31.5739   20.5837 H   0  0  0  0  0  0
  -26.8333  -30.8785   21.9753 H   0  0  0  0  0  0
  -28.1011  -29.0523   21.1653 H   0  0  0  0  0  0
  -25.9733  -25.9384   19.0345 H   0  0  0  0  0  0
  -23.9683  -27.2889   19.0449 H   0  0  0  0  0  0
  -23.7307  -30.5917   19.4016 H   0  0  0  0  0  0
  -22.7409  -29.2411   19.8698 H   0  0  0  0  0  0
  -25.1276  -36.1978   25.0837 H   0  0  0  0  0  0
  -20.9986  -28.3234   24.1425 H   0  0  0  0  0  0
  -20.5680  -26.2275   23.3611 H   0  0  0  0  0  0
  -21.6641  -26.7433   22.1209 H   0  0  0  0  0  0
  -19.6907  -25.6293   21.1241 H   0  0  0  0  0  0
  -19.6685  -27.3192   20.6754 H   0  0  0  0  0  0
  -17.4206  -26.6667   21.4034 H   0  0  0  0  0  0
  -18.0326  -26.0047   22.9023 H   0  0  0  0  0  0
  -19.7922  -30.7247   24.2311 H   0  0  0  0  0  0
  -17.4996  -31.6254   24.5150 H   0  0  0  0  0  0
  -15.5340  -30.2981   23.7608 H   0  0  0  0  0  0
  -15.8678  -28.0808   22.7042 H   0  0  0  0  0  0
  -24.5944  -30.6975   25.7745 H   0  0  0  0  0  0
  -24.8861  -32.2817   26.4819 H   0  0  0  0  0  0
  -25.8057  -30.8881   27.0210 H   0  0  0  0  0  0
  -26.2873  -29.6792   24.1084 H   0  0  0  0  0  0
  -27.4076  -29.7226   25.4501 H   0  0  0  0  0  0
  -27.8702  -30.4352   23.9218 H   0  0  0  0  0  0
  -27.2714  -33.3595   26.2024 H   0  0  0  0  0  0
  -28.3909  -32.6756   25.0326 H   0  0  0  0  0  0
  -28.0670  -31.8381   26.5427 H   0  0  0  0  0  0
  -28.2594  -38.0124   24.7521 H   0  0  0  0  0  0
  -28.1088  -36.2653   24.6280 H   0  0  0  0  0  0
  -27.2306  -37.1446   25.8874 H   0  0  0  0  0  0
  -20.9325  -29.8781   21.6953 H   0  0  0  0  0  0
  -26.0186  -38.2877   24.1388 H   0  0  0  0  0  0
  -33.1043  -22.6591   19.9286 H   0  0  0  0  0  0
  -33.3680  -20.6119   18.8004 H   0  0  0  0  0  0
  -32.1375  -19.3828   18.7357 H   0  0  0  0  0  0
  -33.1444  -19.5820   20.1971 H   0  0  0  0  0  0
  -32.6447  -26.5789   23.7022 H   0  0  0  0  0  0
  -31.7165  -27.2018   22.3423 H   0  0  0  0  0  0
  -33.3939  -26.7074   22.1132 H   0  0  0  0  0  0
  -31.0751  -25.6066   20.4339 H   0  0  0  0  0  0
  -32.6710  -24.9653   20.2504 H   0  0  0  0  0  0
  -29.0689  -19.1370   19.5698 H   0  0  0  0  0  0
  -28.9949  -19.3592   21.2849 H   0  0  0  0  0  0
  -29.1187  -24.8089   21.7930 H   0  0  0  0  0  0
  -27.8311  -23.7995   21.2552 H   0  0  0  0  0  0
  -31.1060  -24.8231   22.8803 H   0  0  0  0  0  0
  -32.7558  -24.3263   22.6476 H   0  0  0  0  0  0
  -31.5174  -18.5261   21.2035 H   0  0  0  0  0  0
  -31.0665  -17.7473   19.7139 H   0  0  0  0  0  0
  -29.4444  -17.2055   22.2384 H   0  0  0  0  0  0
  -31.0879  -16.6825   22.2391 H   0  0  0  0  0  0
  -27.6932  -24.8686   19.1276 H   0  0  0  0  0  0
  -29.3573  -25.2104   19.0788 H   0  0  0  0  0  0
  -28.9007  -15.3460   21.0689 H   0  0  0  0  0  0
  1 25  1  0  0  0
  1 30  2  0  0  0
  1 86  1  0  0  0
  2  3  1  0  0  0
  2 25  1  0  0  0
  2 87  1  0  0  0
  2 88  1  0  0  0
  3  4  1  0  0  0
  3 89  1  0  0  0
  3 90  1  0  0  0
  4  5  1  0  0  0
  4 91  1  0  0  0
  4 92  1  0  0  0
  5  6  1  0  0  0
  5 26  1  0  0  0
  5 93  1  0  0  0
  6 25  1  0  0  0
  6 94  1  0  0  0
  6 95  1  0  0  0
  7  8  2  0  0  0
  7 26  1  0  0  0
  7 29  1  0  0  0
  8  9  1  0  0  0
  8 22  1  0  0  0
  9 10  1  0  0  0
  9 27  2  0  0  0
 10 11  2  0  0  0
 10 15  1  0  0  0
 11 12  1  0  0  0
 11 96  1  0  0  0
 12 13  2  0  0  0
 12 97  1  0  0  0
 13 14  1  0  0  0
 13 31  1  0  0  0
 14 15  2  0  0  0
 14 98  1  0  0  0
 15 99  1  0  0  0
 16 17  2  0  0  0
 16 21  1  0  0  0
 16 31  1  0  0  0
 17 18  1  0  0  0
 17100  1  0  0  0
 18 19  2  0  0  0
 18101  1  0  0  0
 19 20  1  0  0  0
 19 24  1  0  0  0
 20 21  2  0  0  0
 20102  1  0  0  0
 21 23  1  0  0  0
 22 28  1  0  0  0
 22 32  2  0  0  0
 26 27  1  0  0  0
 28103  1  0  0  0
 28104  1  0  0  0
 29105  1  0  0  0
 29106  1  0  0  0
 33 34  1  0  0  0
 33 66  1  0  0  0
 33 70  2  0  0  0
 34 36  1  0  0  0
 34 59  1  0  0  0
 34107  1  0  0  0
 35 44  2  0  0  0
 35 45  1  0  0  0
 35 68  1  0  0  0
 36 56  1  0  0  0
 36108  1  0  0  0
 37 39  1  0  0  0
 37 47  1  0  0  0
 37 66  1  0  0  0
 37109  1  0  0  0
 38 43  2  0  0  0
 38 46  1  0  0  0
 38 47  1  0  0  0
 39 64  1  0  0  0
 39 67  2  0  0  0
 40 52  1  0  0  0
 40 53  2  0  0  0
 40 58  1  0  0  0
 41110  1  0  0  0
 41111  1  0  0  0
 41112  1  0  0  0
 41 48  1  0  0  0
 42 43  1  0  0  0
 42 66  1  0  0  0
 42113  1  0  0  0
 42114  1  0  0  0
 43 44  1  0  0  0
 44115  1  0  0  0
 45 46  2  0  0  0
 45116  1  0  0  0
 46117  1  0  0  0
 47118  1  0  0  0
 47119  1  0  0  0
 48 56  1  0  0  0
 48 65  1  0  0  0
 48120  1  0  0  0
 49 50  1  0  0  0
 49 53  1  0  0  0
 49 64  1  0  0  0
 49121  1  0  0  0
 50 51  1  0  0  0
 50122  1  0  0  0
 50123  1  0  0  0
 51 52  1  0  0  0
 51124  1  0  0  0
 51125  1  0  0  0
 52126  1  0  0  0
 52127  1  0  0  0
 53 54  1  0  0  0
 54 55  2  0  0  0
 54128  1  0  0  0
 55 57  1  0  0  0
 55129  1  0  0  0
 56 69  2  0  0  0
 57 58  2  0  0  0
 57130  1  0  0  0
 58131  1  0  0  0
 59 60  1  0  0  0
 59 61  1  0  0  0
 59 62  1  0  0  0
 60132  1  0  0  0
 60133  1  0  0  0
 60134  1  0  0  0
 61135  1  0  0  0
 61136  1  0  0  0
 61137  1  0  0  0
 62138  1  0  0  0
 62139  1  0  0  0
 62140  1  0  0  0
 63 65  1  0  0  0
 63141  1  0  0  0
 63142  1  0  0  0
 63143  1  0  0  0
 64144  1  0  0  0
 65145  1  0  0  0
 68 84  1  0  0  0
 71 72  2  0  0  0
 71 73  1  0  0  0
 71146  1  0  0  0
 72 74  1  0  0  0
 72 76  1  0  0  0
 73 75  2  0  0  0
 73 78  1  0  0  0
 74 79  1  0  0  0
 74 85  2  0  0  0
 75 80  1  0  0  0
 75 85  1  0  0  0
 76147  1  0  0  0
 76148  1  0  0  0
 76149  1  0  0  0
 77 81  1  0  0  0
 77150  1  0  0  0
 77151  1  0  0  0
 77152  1  0  0  0
 78 81  1  0  0  0
 78153  1  0  0  0
 78154  1  0  0  0
 79 82  1  0  0  0
 79155  1  0  0  0
 79156  1  0  0  0
 80 84  1  0  0  0
 80157  1  0  0  0
 80158  1  0  0  0
 81159  1  0  0  0
 81160  1  0  0  0
 82 83  1  0  0  0
 82161  1  0  0  0
 82162  1  0  0  0
 83 86  1  0  0  0
 83163  1  0  0  0
 83164  1  0  0  0
 84165  1  0  0  0
 84166  1  0  0  0
 86167  1  0  0  0
M  ISO  4   1 100  68 101  84 101  86 100
M  END
> <chiral flag>
0

> <version>
0

> <s_m_source_file>
/data/baiqing/PycharmProjects/Reinvent-master-3.2/result/LINK_invent/BTK/process_docking_weight1_custom_sum_contain_oxygen_bond_distance_aromatic_linkinvent_7_9_3/rearranged_h_0040.sdf

> <i_m_source_file_index>
11

> <r_mmod_Potential_Energy-OPLS-2005>
-116.827903747559

> <r_mmod_Stretch_Energy-OPLS-2005>
61.0947303771973

> <r_mmod_Bend_Energy-OPLS-2005>
149.924728393555

> <r_mmod_Torsional_Energy-OPLS-2005>
231.788818359375

> <r_mmod_Improper_Torsional_Energy-OPLS-2005>
3.79008722305298

> <r_mmod_Van_der_Waal_Energy-OPLS-2005>
154.362869262695

> <r_mmod_Electrostatic_Energy-OPLS-2005>
-524.840087890625

> <r_mmod_Solvation_Energy-OPLS-2005>
-220.243377685547

> <b_mmod_Minimization_Converged-OPLS-2005>
0

> <r_mmod_RMS_Derivative-OPLS-2005>
1.89028000831604

$$$$
11
                    3D
 Structure written by MMmdl.
151159  0  0  1  0            999 V2000
  -30.5063  -15.0242   20.3981 C   0  0  0  0  0  0
  -30.4430  -12.6294   19.5258 C   0  0  0  0  0  0
  -29.5328  -12.5440   18.2752 C   0  0  0  0  0  0
  -28.0630  -12.3284   18.6799 C   0  0  0  0  0  0
  -27.6318  -13.2573   19.8438 C   0  0  2  0  0  0
  -28.6697  -13.3013   20.9880 C   0  0  0  0  0  0
  -25.2465  -13.8232   20.5708 C   0  0  0  0  0  0
  -24.1788  -13.0445   20.9235 C   0  0  0  0  0  0
  -24.6415  -11.6933   20.8749 C   0  0  0  0  0  0
  -23.9093  -10.4299   21.0386 C   0  0  0  0  0  0
  -24.3641   -9.4213   21.9171 C   0  0  0  0  0  0
  -23.6322   -8.2246   22.0739 C   0  0  0  0  0  0
  -22.4303   -8.0283   21.3527 C   0  0  0  0  0  0
  -21.9938   -9.0254   20.4623 C   0  0  0  0  0  0
  -22.7260  -10.2138   20.3035 C   0  0  0  0  0  0
  -21.6858   -6.0741   22.5277 C   0  0  0  0  0  0
  -21.4015   -6.5642   23.8215 C   0  0  0  0  0  0
  -21.3668   -5.6793   24.9180 C   0  0  0  0  0  0
  -21.6047   -4.3056   24.7228 C   0  0  0  0  0  0
  -21.8816   -3.8148   23.4350 C   0  0  0  0  0  0
  -21.9200   -4.6965   22.3408 C   0  0  0  0  0  0
  -22.7806  -13.5200   21.1893 C   0  0  0  0  0  0
  -22.1658   -4.2144   21.0981 F   0  0  0  0  0  0
  -21.5640   -3.4540   25.7738 F   0  0  0  0  0  0
  -29.9444  -13.7372   20.4018 N   0  0  0  0  0  0
  -26.2898  -12.9475   20.3251 N   0  0  0  0  0  0
  -25.9352  -11.6599   20.5745 N   0  0  0  0  0  0
  -22.0461  -12.8170   22.0442 N   0  0  0  0  0  0
  -25.4133  -15.1966   20.4146 N   0  0  0  0  0  0
  -31.6841  -15.0984   20.0285 O   0  0  0  0  0  0
  -21.6648   -6.8885   21.4237 O   0  0  0  0  0  0
  -22.3478  -14.5507   20.6745 O   0  0  0  0  0  0
  -24.6455  -31.8366   23.1795 C   0  0  0  0  0  0
  -25.9208  -32.4658   23.8221 C   0  0  1  0  0  0
  -27.2304  -27.0861   20.1645 C   0  0  0  0  0  0
  -25.5934  -33.8468   24.2141 N   0  0  0  0  0  0
  -23.4546  -30.4498   21.5238 C   0  0  2  0  0  0
  -24.9082  -28.8604   20.1034 C   0  0  0  0  0  0
  -22.7588  -29.4497   22.4809 C   0  0  0  0  0  0
  -18.0311  -28.1389   22.8475 C   0  0  0  0  0  0
  -24.1489  -36.7244   23.2647 C   0  0  0  0  0  0
  -26.0102  -30.6936   21.3857 C   0  0  0  0  0  0
  -26.0811  -29.2985   20.7298 C   0  0  0  0  0  0
  -27.2348  -28.4249   20.7447 C   0  0  0  0  0  0
  -26.0361  -26.7548   19.4901 C   0  0  0  0  0  0
  -24.9019  -27.6052   19.4674 C   0  0  0  0  0  0
  -23.6854  -29.7679   20.1460 C   0  0  0  0  0  0
  -25.4128  -36.3018   24.0314 C   0  0  1  0  0  0
  -20.5924  -28.3717   23.1218 C   0  0  2  0  0  0
  -20.6784  -26.9410   22.5401 C   0  0  0  0  0  0
  -19.5763  -26.6366   21.5205 C   0  0  0  0  0  0
  -18.1947  -26.7929   22.1619 C   0  0  0  0  0  0
  -19.1568  -28.8872   23.2840 C   0  0  0  0  0  0
  -18.9484  -30.1465   23.8872 C   0  0  0  0  0  0
  -17.6480  -30.6586   24.0556 C   0  0  0  0  0  0
  -25.9072  -34.9395   23.5042 C   0  0  0  0  0  0
  -16.5369  -29.9083   23.6334 C   0  0  0  0  0  0
  -16.7293  -28.6495   23.0365 C   0  0  0  0  0  0
  -26.4521  -31.6554   25.0687 C   0  0  0  0  0  0
  -25.3694  -31.3768   26.1374 C   0  0  0  0  0  0
  -27.0390  -30.2945   24.6309 C   0  0  0  0  0  0
  -27.6040  -32.4335   25.7481 C   0  0  0  0  0  0
  -27.5581  -37.1780   24.8467 C   0  0  0  0  0  0
  -21.4269  -29.3034   22.3574 N   0  0  0  0  0  0
  -26.4290  -37.3737   23.9409 N   0  0  0  0  0  0
  -24.7233  -31.0167   22.0854 N   0  0  0  0  0  0
  -23.4207  -28.8063   23.2992 O   0  0  0  0  0  0
  -28.2983  -26.1135   20.3105 O   0  0  0  0  0  0
  -26.5672  -34.8900   22.4630 O   0  0  0  0  0  0
  -23.5560  -32.1270   23.6982 O   0  0  0  0  0  0
  -30.4616  -21.9026   21.1150 C   0  0  0  0  0  0
  -29.1993  -21.7203   20.5139 C   0  0  0  0  0  0
  -30.9828  -19.6026   21.1174 C   0  0  0  0  0  0
  -29.7624  -19.2320   20.4942 C   0  0  0  0  0  0
  -32.0492  -18.5740   21.4478 C   0  0  0  0  0  0
  -28.2065  -23.0755   20.4837 C   0  0  0  0  0  0
  -29.6104  -17.6571   19.9305 C   0  0  0  0  0  0
  -28.4544  -24.6272   19.7869 C   0  0  0  0  0  0
  -31.3149  -20.8886   21.4150 N   0  0  0  0  0  0
  -28.8791  -20.3427   20.2071 N   0  0  0  0  0  0
  -29.7212  -16.2063   20.6174 N   0  0  0  0  0  0
  -31.4766  -12.7889   19.2147 H   0  0  0  0  0  0
  -30.4448  -11.6817   20.0664 H   0  0  0  0  0  0
  -29.8654  -11.7377   17.6186 H   0  0  0  0  0  0
  -29.6208  -13.4656   17.6989 H   0  0  0  0  0  0
  -27.9542  -11.2872   18.9835 H   0  0  0  0  0  0
  -27.4070  -12.4643   17.8189 H   0  0  0  0  0  0
  -27.5912  -14.2586   19.4156 H   0  0  0  0  0  0
  -28.7667  -12.3248   21.4658 H   0  0  0  0  0  0
  -28.3552  -13.9971   21.7674 H   0  0  0  0  0  0
  -25.2774   -9.5703   22.4759 H   0  0  0  0  0  0
  -24.0026   -7.4641   22.7469 H   0  0  0  0  0  0
  -21.0857   -8.8771   19.8946 H   0  0  0  0  0  0
  -22.3696  -10.9679   19.6154 H   0  0  0  0  0  0
  -21.1987   -7.6147   23.9711 H   0  0  0  0  0  0
  -21.1496   -6.0521   25.9077 H   0  0  0  0  0  0
  -22.0589   -2.7610   23.2845 H   0  0  0  0  0  0
  -22.4100  -11.9837   22.4822 H   0  0  0  0  0  0
  -21.1065  -13.1160   22.2640 H   0  0  0  0  0  0
  -24.6481  -15.8507   20.5341 H   0  0  0  0  0  0
  -26.2509  -15.6303   20.0491 H   0  0  0  0  0  0
  -26.7268  -32.5245   23.0938 H   0  0  0  0  0  0
  -25.0051  -33.9568   25.0275 H   0  0  0  0  0  0
  -22.7603  -31.2769   21.3609 H   0  0  0  0  0  0
  -23.3756  -35.9566   23.3288 H   0  0  0  0  0  0
  -24.3572  -36.8900   22.2064 H   0  0  0  0  0  0
  -23.7230  -37.6430   23.6697 H   0  0  0  0  0  0
  -26.1693  -31.4432   20.6093 H   0  0  0  0  0  0
  -26.8788  -30.7479   22.0307 H   0  0  0  0  0  0
  -28.1238  -28.7524   21.2662 H   0  0  0  0  0  0
  -25.9507  -25.7866   19.0188 H   0  0  0  0  0  0
  -24.0057  -27.2658   18.9654 H   0  0  0  0  0  0
  -23.8232  -30.5381   19.3857 H   0  0  0  0  0  0
  -22.8001  -29.2094   19.8365 H   0  0  0  0  0  0
  -25.1317  -36.1839   25.0808 H   0  0  0  0  0  0
  -21.0029  -28.3303   24.1334 H   0  0  0  0  0  0
  -20.5642  -26.2337   23.3629 H   0  0  0  0  0  0
  -21.6655  -26.7387   22.1220 H   0  0  0  0  0  0
  -19.6926  -25.6267   21.1260 H   0  0  0  0  0  0
  -19.6707  -27.3154   20.6716 H   0  0  0  0  0  0
  -17.4217  -26.6665   21.4021 H   0  0  0  0  0  0
  -18.0351  -26.0073   22.9015 H   0  0  0  0  0  0
  -19.7959  -30.7280   24.2238 H   0  0  0  0  0  0
  -17.5036  -31.6267   24.5152 H   0  0  0  0  0  0
  -15.5370  -30.2980   23.7663 H   0  0  0  0  0  0
  -15.8694  -28.0795   22.7112 H   0  0  0  0  0  0
  -24.5862  -30.7138   25.7686 H   0  0  0  0  0  0
  -24.8893  -32.2957   26.4745 H   0  0  0  0  0  0
  -25.7946  -30.8962   27.0192 H   0  0  0  0  0  0
  -26.3011  -29.6657   24.1315 H   0  0  0  0  0  0
  -27.3982  -29.7263   25.4897 H   0  0  0  0  0  0
  -27.8927  -30.4165   23.9643 H   0  0  0  0  0  0
  -27.2627  -33.3659   26.1995 H   0  0  0  0  0  0
  -28.3889  -32.6867   25.0341 H   0  0  0  0  0  0
  -28.0676  -31.8511   26.5455 H   0  0  0  0  0  0
  -28.2583  -38.0092   24.7515 H   0  0  0  0  0  0
  -28.1089  -36.2616   24.6287 H   0  0  0  0  0  0
  -27.2295  -37.1426   25.8869 H   0  0  0  0  0  0
  -20.9482  -29.8745   21.6749 H   0  0  0  0  0  0
  -26.0149  -38.2801   24.1413 H   0  0  0  0  0  0
  -30.7753  -22.8912   21.4191 H   0  0  0  0  0  0
  -32.3047  -17.9811   20.5691 H   0  0  0  0  0  0
  -31.6956  -17.9028   22.2306 H   0  0  0  0  0  0
  -32.9673  -19.0459   21.7998 H   0  0  0  0  0  0
  -28.0193  -23.2747   21.5389 H   0  0  0  0  0  0
  -27.2430  -22.7219   20.1168 H   0  0  0  0  0  0
  -30.3110  -17.6103   19.0960 H   0  0  0  0  0  0
  -28.6349  -17.6428   19.4439 H   0  0  0  0  0  0
  -28.0053  -24.6019   18.7947 H   0  0  0  0  0  0
  -29.5221  -24.6138   19.5663 H   0  0  0  0  0  0
  -28.8549  -15.9723   21.0794 H   0  0  0  0  0  0
  1 25  1  0  0  0
  1 30  2  0  0  0
  1 81  1  0  0  0
  2  3  1  0  0  0
  2 25  1  0  0  0
  2 82  1  0  0  0
  2 83  1  0  0  0
  3  4  1  0  0  0
  3 84  1  0  0  0
  3 85  1  0  0  0
  4  5  1  0  0  0
  4 86  1  0  0  0
  4 87  1  0  0  0
  5  6  1  0  0  0
  5 26  1  0  0  0
  5 88  1  0  0  0
  6 25  1  0  0  0
  6 89  1  0  0  0
  6 90  1  0  0  0
  7  8  2  0  0  0
  7 26  1  0  0  0
  7 29  1  0  0  0
  8  9  1  0  0  0
  8 22  1  0  0  0
  9 10  1  0  0  0
  9 27  2  0  0  0
 10 11  2  0  0  0
 10 15  1  0  0  0
 11 12  1  0  0  0
 11 91  1  0  0  0
 12 13  2  0  0  0
 12 92  1  0  0  0
 13 14  1  0  0  0
 13 31  1  0  0  0
 14 15  2  0  0  0
 14 93  1  0  0  0
 15 94  1  0  0  0
 16 17  2  0  0  0
 16 21  1  0  0  0
 16 31  1  0  0  0
 17 18  1  0  0  0
 17 95  1  0  0  0
 18 19  2  0  0  0
 18 96  1  0  0  0
 19 20  1  0  0  0
 19 24  1  0  0  0
 20 21  2  0  0  0
 20 97  1  0  0  0
 21 23  1  0  0  0
 22 28  1  0  0  0
 22 32  2  0  0  0
 26 27  1  0  0  0
 28 98  1  0  0  0
 28 99  1  0  0  0
 29100  1  0  0  0
 29101  1  0  0  0
 33 34  1  0  0  0
 33 66  1  0  0  0
 33 70  2  0  0  0
 34 36  1  0  0  0
 34 59  1  0  0  0
 34102  1  0  0  0
 35 44  2  0  0  0
 35 45  1  0  0  0
 35 68  1  0  0  0
 36 56  1  0  0  0
 36103  1  0  0  0
 37 39  1  0  0  0
 37 47  1  0  0  0
 37 66  1  0  0  0
 37104  1  0  0  0
 38 43  2  0  0  0
 38 46  1  0  0  0
 38 47  1  0  0  0
 39 64  1  0  0  0
 39 67  2  0  0  0
 40 52  1  0  0  0
 40 53  2  0  0  0
 40 58  1  0  0  0
 41105  1  0  0  0
 41106  1  0  0  0
 41107  1  0  0  0
 41 48  1  0  0  0
 42 43  1  0  0  0
 42 66  1  0  0  0
 42108  1  0  0  0
 42109  1  0  0  0
 43 44  1  0  0  0
 44110  1  0  0  0
 45 46  2  0  0  0
 45111  1  0  0  0
 46112  1  0  0  0
 47113  1  0  0  0
 47114  1  0  0  0
 48 56  1  0  0  0
 48 65  1  0  0  0
 48115  1  0  0  0
 49 50  1  0  0  0
 49 53  1  0  0  0
 49 64  1  0  0  0
 49116  1  0  0  0
 50 51  1  0  0  0
 50117  1  0  0  0
 50118  1  0  0  0
 51 52  1  0  0  0
 51119  1  0  0  0
 51120  1  0  0  0
 52121  1  0  0  0
 52122  1  0  0  0
 53 54  1  0  0  0
 54 55  2  0  0  0
 54123  1  0  0  0
 55 57  1  0  0  0
 55124  1  0  0  0
 56 69  2  0  0  0
 57 58  2  0  0  0
 57125  1  0  0  0
 58126  1  0  0  0
 59 60  1  0  0  0
 59 61  1  0  0  0
 59 62  1  0  0  0
 60127  1  0  0  0
 60128  1  0  0  0
 60129  1  0  0  0
 61130  1  0  0  0
 61131  1  0  0  0
 61132  1  0  0  0
 62133  1  0  0  0
 62134  1  0  0  0
 62135  1  0  0  0
 63 65  1  0  0  0
 63136  1  0  0  0
 63137  1  0  0  0
 63138  1  0  0  0
 64139  1  0  0  0
 65140  1  0  0  0
 68 78  1  0  0  0
 71 72  2  0  0  0
 71 79  1  0  0  0
 71141  1  0  0  0
 72 76  1  0  0  0
 72 80  1  0  0  0
 73 74  1  0  0  0
 73 75  1  0  0  0
 73 79  2  0  0  0
 74 77  1  0  0  0
 74 80  2  0  0  0
 75142  1  0  0  0
 75143  1  0  0  0
 75144  1  0  0  0
 76 78  1  0  0  0
 76145  1  0  0  0
 76146  1  0  0  0
 77 81  1  0  0  0
 77147  1  0  0  0
 77148  1  0  0  0
 78149  1  0  0  0
 78150  1  0  0  0
 81151  1  0  0  0
M  ISO  4   1 100  68 101  78 101  81 100
M  END
> <chiral flag>
0

> <version>
0

> <s_m_source_file>
/data/baiqing/PycharmProjects/Reinvent-master-3.2/result/LINK_invent/BTK/process_docking_weight1_custom_sum_contain_oxygen_bond_distance_aromatic_linkinvent_7_9_3/rearranged_h_0040.sdf

> <i_m_source_file_index>
12

> <r_mmod_Potential_Energy-OPLS-2005>
696.461120605469

> <r_mmod_Stretch_Energy-OPLS-2005>
336.261199951172

> <r_mmod_Bend_Energy-OPLS-2005>
360.414703369141

> <r_mmod_Torsional_Energy-OPLS-2005>
226.016342163086

> <r_mmod_Improper_Torsional_Energy-OPLS-2005>
8.43413734436035

> <r_mmod_Van_der_Waal_Energy-OPLS-2005>
123.544036865234

> <r_mmod_Electrostatic_Energy-OPLS-2005>
-367.505401611328

> <r_mmod_Solvation_Energy-OPLS-2005>
-234.161087036133

> <b_mmod_Minimization_Converged-OPLS-2005>
0

> <r_mmod_RMS_Derivative-OPLS-2005>
1.80920076370239

$$$$
12
                    3D
 Structure written by MMmdl.
169177  0  0  1  0            999 V2000
  -30.6417  -14.5504   20.5613 C   0  0  0  0  0  0
  -30.4408  -12.3499   19.4387 C   0  0  0  0  0  0
  -29.5099  -12.4976   18.2160 C   0  0  0  0  0  0
  -28.0282  -12.3493   18.6239 C   0  0  0  0  0  0
  -27.6574  -13.2036   19.8659 C   0  0  2  0  0  0
  -28.6978  -13.0122   20.9918 C   0  0  0  0  0  0
  -25.2576  -13.8136   20.5675 C   0  0  0  0  0  0
  -24.1825  -13.0443   20.9188 C   0  0  0  0  0  0
  -24.6342  -11.6904   20.8717 C   0  0  0  0  0  0
  -23.8990  -10.4303   21.0391 C   0  0  0  0  0  0
  -24.3567   -9.4234   21.9169 C   0  0  0  0  0  0
  -23.6283   -8.2241   22.0730 C   0  0  0  0  0  0
  -22.4260   -8.0254   21.3533 C   0  0  0  0  0  0
  -21.9874   -9.0213   20.4638 C   0  0  0  0  0  0
  -22.7155  -10.2122   20.3054 C   0  0  0  0  0  0
  -21.6857   -6.0730   22.5286 C   0  0  0  0  0  0
  -21.4005   -6.5637   23.8218 C   0  0  0  0  0  0
  -21.3665   -5.6783   24.9170 C   0  0  0  0  0  0
  -21.6056   -4.3045   24.7216 C   0  0  0  0  0  0
  -21.8825   -3.8143   23.4335 C   0  0  0  0  0  0
  -21.9193   -4.6959   22.3397 C   0  0  0  0  0  0
  -22.7864  -13.5251   21.1873 C   0  0  0  0  0  0
  -22.1678   -4.2164   21.0965 F   0  0  0  0  0  0
  -21.5629   -3.4513   25.7715 F   0  0  0  0  0  0
  -30.0180  -13.3452   20.4382 N   0  0  0  0  0  0
  -26.2990  -12.9299   20.3303 N   0  0  0  0  0  0
  -25.9266  -11.6475   20.5734 N   0  0  0  0  0  0
  -22.0505  -12.8264   22.0435 N   0  0  0  0  0  0
  -25.4343  -15.1859   20.4076 N   0  0  0  0  0  0
  -31.7911  -14.7456   20.1571 O   0  0  0  0  0  0
  -21.6643   -6.8845   21.4235 O   0  0  0  0  0  0
  -22.3559  -14.5550   20.6687 O   0  0  0  0  0  0
  -24.6212  -31.8642   23.2078 C   0  0  0  0  0  0
  -25.9089  -32.4787   23.8368 C   0  0  1  0  0  0
  -27.2172  -27.3801   20.1039 C   0  0  0  0  0  0
  -25.5938  -33.8586   24.2311 N   0  0  0  0  0  0
  -23.4092  -30.4919   21.5493 C   0  0  2  0  0  0
  -24.8496  -28.9455   20.1187 C   0  0  0  0  0  0
  -22.7422  -29.4682   22.4974 C   0  0  0  0  0  0
  -18.0282  -28.1396   22.8492 C   0  0  0  0  0  0
  -24.1494  -36.7308   23.2643 C   0  0  0  0  0  0
  -25.9442  -30.8121   21.3665 C   0  0  0  0  0  0
  -26.0162  -29.4425   20.7150 C   0  0  0  0  0  0
  -27.2062  -28.6692   20.6975 C   0  0  0  0  0  0
  -26.0314  -26.9104   19.5017 C   0  0  0  0  0  0
  -24.8538  -27.6805   19.5102 C   0  0  0  0  0  0
  -23.6186  -29.8251   20.1648 C   0  0  0  0  0  0
  -25.4113  -36.3097   24.0337 C   0  0  1  0  0  0
  -20.5870  -28.3694   23.1293 C   0  0  2  0  0  0
  -20.6778  -26.9428   22.5411 C   0  0  0  0  0  0
  -19.5757  -26.6399   21.5211 C   0  0  0  0  0  0
  -18.1929  -26.7943   22.1618 C   0  0  0  0  0  0
  -19.1526  -28.8857   23.2898 C   0  0  0  0  0  0
  -18.9458  -30.1454   23.8911 C   0  0  0  0  0  0
  -17.6457  -30.6590   24.0574 C   0  0  0  0  0  0
  -25.9034  -34.9459   23.5121 C   0  0  0  0  0  0
  -16.5351  -29.9097   23.6335 C   0  0  0  0  0  0
  -16.7265  -28.6523   23.0352 C   0  0  0  0  0  0
  -26.4498  -31.6575   25.0708 C   0  0  0  0  0  0
  -25.3760  -31.3689   26.1459 C   0  0  0  0  0  0
  -27.0301  -30.3004   24.6095 C   0  0  0  0  0  0
  -27.6082  -32.4288   25.7457 C   0  0  0  0  0  0
  -27.5585  -37.1812   24.8466 C   0  0  0  0  0  0
  -21.4149  -29.3054   22.3675 N   0  0  0  0  0  0
  -26.4303  -37.3786   23.9406 N   0  0  0  0  0  0
  -24.6774  -31.0715   22.0993 N   0  0  0  0  0  0
  -23.4168  -28.8232   23.3033 O   0  0  0  0  0  0
  -28.3660  -26.6069   20.0654 O   0  0  0  0  0  0
  -26.5596  -34.8928   22.4672 O   0  0  0  0  0  0
  -23.5398  -32.1393   23.7468 O   0  0  0  0  0  0
  -30.4514  -20.7981   19.0576 C   0  0  0  0  0  0
  -29.5940  -20.7499   20.1791 C   0  0  0  0  0  0
  -29.6596  -22.8955   18.4926 C   0  0  0  0  0  0
  -28.8088  -22.8997   19.6347 C   0  0  0  0  0  0
  -27.7234  -25.0391   12.7584 C   0  0  0  0  0  0
  -29.6494  -19.5304   21.1296 C   0  0  0  0  0  0
  -29.6319  -23.9840   17.4259 C   0  0  0  0  0  0
  -27.8159  -24.0612   19.8844 C   0  0  0  0  0  0
  -27.7322  -24.1029   13.9729 C   0  0  0  0  0  0
  -29.5312  -18.0906   20.5040 C   0  0  0  0  0  0
  -28.7079  -23.5783   16.2631 C   0  0  0  0  0  0
  -28.6904  -24.5655   15.0850 C   0  0  0  0  0  0
  -30.2334  -16.9627   21.3441 C   0  0  0  0  0  0
  -28.3260  -25.2977   20.7028 C   0  0  0  0  0  0
  -30.4863  -21.8571   18.2196 N   0  0  0  0  0  0
  -28.7837  -21.8157   20.4794 N   0  0  0  0  0  0
  -29.8620  -15.5611   21.0222 N   0  0  0  0  0  0
  -31.4816  -12.4851   19.1394 H   0  0  0  0  0  0
  -30.3787  -11.3406   19.8497 H   0  0  0  0  0  0
  -29.7659  -11.7576   17.4557 H   0  0  0  0  0  0
  -29.6682  -13.4726   17.7546 H   0  0  0  0  0  0
  -27.8474  -11.2939   18.8334 H   0  0  0  0  0  0
  -27.3774  -12.6065   17.7878 H   0  0  0  0  0  0
  -27.6915  -14.2455   19.5456 H   0  0  0  0  0  0
  -28.6940  -11.9794   21.3449 H   0  0  0  0  0  0
  -28.4488  -13.6202   21.8621 H   0  0  0  0  0  0
  -25.2719   -9.5746   22.4727 H   0  0  0  0  0  0
  -24.0039   -7.4634   22.7431 H   0  0  0  0  0  0
  -21.0817   -8.8680   19.8946 H   0  0  0  0  0  0
  -22.3572  -10.9637   19.6166 H   0  0  0  0  0  0
  -21.1996   -7.6145   23.9708 H   0  0  0  0  0  0
  -21.1500   -6.0519   25.9074 H   0  0  0  0  0  0
  -22.0603   -2.7603   23.2829 H   0  0  0  0  0  0
  -22.4085  -11.9945   22.4909 H   0  0  0  0  0  0
  -21.1102  -13.1316   22.2513 H   0  0  0  0  0  0
  -24.6718  -15.8454   20.5169 H   0  0  0  0  0  0
  -26.2840  -15.6202   20.0730 H   0  0  0  0  0  0
  -26.7147  -32.5471   23.1115 H   0  0  0  0  0  0
  -25.0126  -33.9716   25.0485 H   0  0  0  0  0  0
  -22.7017  -31.3121   21.4076 H   0  0  0  0  0  0
  -23.3748  -35.9649   23.3306 H   0  0  0  0  0  0
  -24.3589  -36.8911   22.2059 H   0  0  0  0  0  0
  -23.7239  -37.6517   23.6635 H   0  0  0  0  0  0
  -26.0612  -31.5721   20.5937 H   0  0  0  0  0  0
  -26.8329  -30.8667   21.9835 H   0  0  0  0  0  0
  -28.1096  -29.0506   21.1527 H   0  0  0  0  0  0
  -25.9971  -25.9501   19.0132 H   0  0  0  0  0  0
  -23.9560  -27.2929   19.0491 H   0  0  0  0  0  0
  -23.7415  -30.5990   19.4057 H   0  0  0  0  0  0
  -22.7374  -29.2566   19.8643 H   0  0  0  0  0  0
  -25.1292  -36.1973   25.0830 H   0  0  0  0  0  0
  -20.9968  -28.3282   24.1410 H   0  0  0  0  0  0
  -20.5710  -26.2300   23.3602 H   0  0  0  0  0  0
  -21.6647  -26.7491   22.1179 H   0  0  0  0  0  0
  -19.6924  -25.6319   21.1223 H   0  0  0  0  0  0
  -19.6693  -27.3221   20.6754 H   0  0  0  0  0  0
  -17.4203  -26.6696   21.4016 H   0  0  0  0  0  0
  -18.0343  -26.0080   22.9017 H   0  0  0  0  0  0
  -19.7933  -30.7276   24.2283 H   0  0  0  0  0  0
  -17.5014  -31.6276   24.5179 H   0  0  0  0  0  0
  -15.5354  -30.3013   23.7634 H   0  0  0  0  0  0
  -15.8674  -28.0843   22.7058 H   0  0  0  0  0  0
  -24.5974  -30.6973   25.7827 H   0  0  0  0  0  0
  -24.8898  -32.2833   26.4873 H   0  0  0  0  0  0
  -25.8142  -30.8915   27.0231 H   0  0  0  0  0  0
  -26.2825  -29.6772   24.1177 H   0  0  0  0  0  0
  -27.4082  -29.7253   25.4556 H   0  0  0  0  0  0
  -27.8665  -30.4314   23.9225 H   0  0  0  0  0  0
  -27.2722  -33.3592   26.2049 H   0  0  0  0  0  0
  -28.3877  -32.6832   25.0260 H   0  0  0  0  0  0
  -28.0754  -31.8385   26.5351 H   0  0  0  0  0  0
  -28.2621  -38.0104   24.7507 H   0  0  0  0  0  0
  -28.1068  -36.2626   24.6297 H   0  0  0  0  0  0
  -27.2297  -37.1478   25.8875 H   0  0  0  0  0  0
  -20.9313  -29.8748   21.6866 H   0  0  0  0  0  0
  -26.0193  -38.2863   24.1403 H   0  0  0  0  0  0
  -31.1265  -19.9843   18.8378 H   0  0  0  0  0  0
  -27.0451  -24.6647   11.9906 H   0  0  0  0  0  0
  -28.7130  -25.1269   12.3085 H   0  0  0  0  0  0
  -27.3906  -26.0399   13.0391 H   0  0  0  0  0  0
  -28.8854  -19.6464   21.8997 H   0  0  0  0  0  0
  -30.6086  -19.6024   21.6444 H   0  0  0  0  0  0
  -30.6455  -24.1436   17.0558 H   0  0  0  0  0  0
  -29.3241  -24.9401   17.8499 H   0  0  0  0  0  0
  -26.9464  -23.6458   20.3937 H   0  0  0  0  0  0
  -27.4284  -24.3791   18.9208 H   0  0  0  0  0  0
  -28.0050  -23.0983   13.6435 H   0  0  0  0  0  0
  -26.7174  -24.0194   14.3683 H   0  0  0  0  0  0
  -29.9843  -18.0854   19.5130 H   0  0  0  0  0  0
  -28.4764  -17.8612   20.3500 H   0  0  0  0  0  0
  -27.6928  -23.4452   16.6399 H   0  0  0  0  0  0
  -29.0152  -22.6005   15.8886 H   0  0  0  0  0  0
  -28.4016  -25.5568   15.4393 H   0  0  0  0  0  0
  -29.6984  -24.6670   14.6790 H   0  0  0  0  0  0
  -29.9855  -17.1090   22.3962 H   0  0  0  0  0  0
  -31.3158  -17.0833   21.2824 H   0  0  0  0  0  0
  -29.3406  -25.0842   21.0391 H   0  0  0  0  0  0
  -27.7413  -25.3760   21.6220 H   0  0  0  0  0  0
  -28.9211  -15.2897   21.2665 H   0  0  0  0  0  0
  1 25  1  0  0  0
  1 30  2  0  0  0
  1 87  1  0  0  0
  2  3  1  0  0  0
  2 25  1  0  0  0
  2 88  1  0  0  0
  2 89  1  0  0  0
  3  4  1  0  0  0
  3 90  1  0  0  0
  3 91  1  0  0  0
  4  5  1  0  0  0
  4 92  1  0  0  0
  4 93  1  0  0  0
  5  6  1  0  0  0
  5 26  1  0  0  0
  5 94  1  0  0  0
  6 25  1  0  0  0
  6 95  1  0  0  0
  6 96  1  0  0  0
  7  8  2  0  0  0
  7 26  1  0  0  0
  7 29  1  0  0  0
  8  9  1  0  0  0
  8 22  1  0  0  0
  9 10  1  0  0  0
  9 27  2  0  0  0
 10 11  2  0  0  0
 10 15  1  0  0  0
 11 12  1  0  0  0
 11 97  1  0  0  0
 12 13  2  0  0  0
 12 98  1  0  0  0
 13 14  1  0  0  0
 13 31  1  0  0  0
 14 15  2  0  0  0
 14 99  1  0  0  0
 15100  1  0  0  0
 16 17  2  0  0  0
 16 21  1  0  0  0
 16 31  1  0  0  0
 17 18  1  0  0  0
 17101  1  0  0  0
 18 19  2  0  0  0
 18102  1  0  0  0
 19 20  1  0  0  0
 19 24  1  0  0  0
 20 21  2  0  0  0
 20103  1  0  0  0
 21 23  1  0  0  0
 22 28  1  0  0  0
 22 32  2  0  0  0
 26 27  1  0  0  0
 28104  1  0  0  0
 28105  1  0  0  0
 29106  1  0  0  0
 29107  1  0  0  0
 33 34  1  0  0  0
 33 66  1  0  0  0
 33 70  2  0  0  0
 34 36  1  0  0  0
 34 59  1  0  0  0
 34108  1  0  0  0
 35 44  2  0  0  0
 35 45  1  0  0  0
 35 68  1  0  0  0
 36 56  1  0  0  0
 36109  1  0  0  0
 37 39  1  0  0  0
 37 47  1  0  0  0
 37 66  1  0  0  0
 37110  1  0  0  0
 38 43  2  0  0  0
 38 46  1  0  0  0
 38 47  1  0  0  0
 39 64  1  0  0  0
 39 67  2  0  0  0
 40 52  1  0  0  0
 40 53  2  0  0  0
 40 58  1  0  0  0
 41111  1  0  0  0
 41112  1  0  0  0
 41113  1  0  0  0
 41 48  1  0  0  0
 42 43  1  0  0  0
 42 66  1  0  0  0
 42114  1  0  0  0
 42115  1  0  0  0
 43 44  1  0  0  0
 44116  1  0  0  0
 45 46  2  0  0  0
 45117  1  0  0  0
 46118  1  0  0  0
 47119  1  0  0  0
 47120  1  0  0  0
 48 56  1  0  0  0
 48 65  1  0  0  0
 48121  1  0  0  0
 49 50  1  0  0  0
 49 53  1  0  0  0
 49 64  1  0  0  0
 49122  1  0  0  0
 50 51  1  0  0  0
 50123  1  0  0  0
 50124  1  0  0  0
 51 52  1  0  0  0
 51125  1  0  0  0
 51126  1  0  0  0
 52127  1  0  0  0
 52128  1  0  0  0
 53 54  1  0  0  0
 54 55  2  0  0  0
 54129  1  0  0  0
 55 57  1  0  0  0
 55130  1  0  0  0
 56 69  2  0  0  0
 57 58  2  0  0  0
 57131  1  0  0  0
 58132  1  0  0  0
 59 60  1  0  0  0
 59 61  1  0  0  0
 59 62  1  0  0  0
 60133  1  0  0  0
 60134  1  0  0  0
 60135  1  0  0  0
 61136  1  0  0  0
 61137  1  0  0  0
 61138  1  0  0  0
 62139  1  0  0  0
 62140  1  0  0  0
 62141  1  0  0  0
 63 65  1  0  0  0
 63142  1  0  0  0
 63143  1  0  0  0
 63144  1  0  0  0
 64145  1  0  0  0
 65146  1  0  0  0
 68 84  1  0  0  0
 71 72  2  0  0  0
 71 85  1  0  0  0
 71147  1  0  0  0
 72 76  1  0  0  0
 72 86  1  0  0  0
 73 74  1  0  0  0
 73 77  1  0  0  0
 73 85  2  0  0  0
 74 78  1  0  0  0
 74 86  2  0  0  0
 75 79  1  0  0  0
 75148  1  0  0  0
 75149  1  0  0  0
 75150  1  0  0  0
 76 80  1  0  0  0
 76151  1  0  0  0
 76152  1  0  0  0
 77 81  1  0  0  0
 77153  1  0  0  0
 77154  1  0  0  0
 78 84  1  0  0  0
 78155  1  0  0  0
 78156  1  0  0  0
 79 82  1  0  0  0
 79157  1  0  0  0
 79158  1  0  0  0
 80 83  1  0  0  0
 80159  1  0  0  0
 80160  1  0  0  0
 81 82  1  0  0  0
 81161  1  0  0  0
 81162  1  0  0  0
 82163  1  0  0  0
 82164  1  0  0  0
 83 87  1  0  0  0
 83165  1  0  0  0
 83166  1  0  0  0
 84167  1  0  0  0
 84168  1  0  0  0
 87169  1  0  0  0
M  ISO  4   1 100  68 101  84 101  87 100
M  END
> <chiral flag>
0

> <version>
0

> <s_m_source_file>
/data/baiqing/PycharmProjects/Reinvent-master-3.2/result/LINK_invent/BTK/process_docking_weight1_custom_sum_contain_oxygen_bond_distance_aromatic_linkinvent_7_9_3/rearranged_h_0040.sdf

> <i_m_source_file_index>
13

> <r_mmod_Potential_Energy-OPLS-2005>
30.2069778442383

> <r_mmod_Stretch_Energy-OPLS-2005>
54.3452796936035

> <r_mmod_Bend_Energy-OPLS-2005>
116.696090698242

> <r_mmod_Torsional_Energy-OPLS-2005>
219.623458862305

> <r_mmod_Improper_Torsional_Energy-OPLS-2005>
4.0688943862915

> <r_mmod_Van_der_Waal_Energy-OPLS-2005>
145.464935302734

> <r_mmod_Electrostatic_Energy-OPLS-2005>
-315.715576171875

> <r_mmod_Solvation_Energy-OPLS-2005>
-218.739898681641

> <b_mmod_Minimization_Converged-OPLS-2005>
0

> <r_mmod_RMS_Derivative-OPLS-2005>
3.12210035324097

$$$$
13
                    3D
 Structure written by MMmdl.
161170  0  0  1  0            999 V2000
  -30.6058  -14.7504   20.4711 C   0  0  0  0  0  0
  -30.4027  -12.4523   19.4877 C   0  0  0  0  0  0
  -29.4964  -12.4981   18.2374 C   0  0  0  0  0  0
  -28.0224  -12.3251   18.6557 C   0  0  0  0  0  0
  -27.6355  -13.2394   19.8468 C   0  0  2  0  0  0
  -28.6747  -13.1879   20.9832 C   0  0  0  0  0  0
  -25.2507  -13.8198   20.5678 C   0  0  0  0  0  0
  -24.1776  -13.0469   20.9227 C   0  0  0  0  0  0
  -24.6419  -11.6948   20.8858 C   0  0  0  0  0  0
  -23.9100  -10.4314   21.0452 C   0  0  0  0  0  0
  -24.3674   -9.4207   21.9222 C   0  0  0  0  0  0
  -23.6338   -8.2245   22.0750 C   0  0  0  0  0  0
  -22.4330   -8.0304   21.3499 C   0  0  0  0  0  0
  -21.9978   -9.0281   20.4651 C   0  0  0  0  0  0
  -22.7330  -10.2151   20.3095 C   0  0  0  0  0  0
  -21.6851   -6.0798   22.5283 C   0  0  0  0  0  0
  -21.4013   -6.5669   23.8228 C   0  0  0  0  0  0
  -21.3645   -5.6817   24.9192 C   0  0  0  0  0  0
  -21.6050   -4.3085   24.7265 C   0  0  0  0  0  0
  -21.8807   -3.8193   23.4368 C   0  0  0  0  0  0
  -21.9168   -4.7009   22.3446 C   0  0  0  0  0  0
  -22.7852  -13.5196   21.1874 C   0  0  0  0  0  0
  -22.1654   -4.2235   21.1028 F   0  0  0  0  0  0
  -21.5598   -3.4552   25.7739 F   0  0  0  0  0  0
  -29.9688  -13.5343   20.4089 N   0  0  0  0  0  0
  -26.2914  -12.9449   20.3296 N   0  0  0  0  0  0
  -25.9339  -11.6564   20.5803 N   0  0  0  0  0  0
  -22.0492  -12.8190   22.0456 N   0  0  0  0  0  0
  -25.4234  -15.1965   20.4108 N   0  0  0  0  0  0
  -31.7323  -14.8681   19.9990 O   0  0  0  0  0  0
  -21.6629   -6.8942   21.4243 O   0  0  0  0  0  0
  -22.3482  -14.5533   20.6784 O   0  0  0  0  0  0
  -24.6281  -31.8545   23.2116 C   0  0  0  0  0  0
  -25.9131  -32.4781   23.8426 C   0  0  1  0  0  0
  -27.1843  -27.2344   20.1378 C   0  0  0  0  0  0
  -25.5894  -33.8595   24.2297 N   0  0  0  0  0  0
  -23.4282  -30.4763   21.5545 C   0  0  2  0  0  0
  -24.8786  -28.9365   20.0946 C   0  0  0  0  0  0
  -22.7567  -29.4569   22.5001 C   0  0  0  0  0  0
  -18.0266  -28.1375   22.8456 C   0  0  0  0  0  0
  -24.1475  -36.7284   23.2652 C   0  0  0  0  0  0
  -25.9761  -30.7622   21.3929 C   0  0  0  0  0  0
  -26.0452  -29.3790   20.7348 C   0  0  0  0  0  0
  -27.2060  -28.5394   20.7450 C   0  0  0  0  0  0
  -26.0071  -26.8802   19.4504 C   0  0  0  0  0  0
  -24.8566  -27.6914   19.4534 C   0  0  0  0  0  0
  -23.6507  -29.8248   20.1588 C   0  0  0  0  0  0
  -25.4100  -36.3084   24.0317 C   0  0  1  0  0  0
  -20.5902  -28.3619   23.1255 C   0  0  2  0  0  0
  -20.6761  -26.9407   22.5221 C   0  0  0  0  0  0
  -19.5626  -26.6540   21.5032 C   0  0  0  0  0  0
  -18.1863  -26.8004   22.1537 C   0  0  0  0  0  0
  -19.1583  -28.8814   23.2848 C   0  0  0  0  0  0
  -18.9457  -30.1330   23.8895 C   0  0  0  0  0  0
  -17.6424  -30.6433   24.0607 C   0  0  0  0  0  0
  -25.9041  -34.9449   23.5119 C   0  0  0  0  0  0
  -16.5293  -29.9053   23.6417 C   0  0  0  0  0  0
  -16.7270  -28.6524   23.0377 C   0  0  0  0  0  0
  -26.4484  -31.6585   25.0798 C   0  0  0  0  0  0
  -25.3690  -31.3753   26.1522 C   0  0  0  0  0  0
  -27.0332  -30.2975   24.6284 C   0  0  0  0  0  0
  -27.6020  -32.4342   25.7570 C   0  0  0  0  0  0
  -27.5564  -37.1826   24.8462 C   0  0  0  0  0  0
  -21.4256  -29.3042   22.3721 N   0  0  0  0  0  0
  -26.4289  -37.3758   23.9407 N   0  0  0  0  0  0
  -24.7005  -31.0520   22.1121 N   0  0  0  0  0  0
  -23.4269  -28.7974   23.2960 O   0  0  0  0  0  0
  -28.2268  -26.2767   20.1921 O   0  0  0  0  0  0
  -26.5606  -34.8941   22.4685 O   0  0  0  0  0  0
  -23.5404  -32.1386   23.7341 O   0  0  0  0  0  0
  -25.0021  -19.4674   18.6758 C   0  0  0  0  0  0
  -24.1520  -20.4535   18.1192 C   0  0  0  0  0  0
  -26.0966  -20.1343   19.1705 C   0  0  0  0  0  0
  -26.7225  -22.4568   19.2160 C   0  0  0  0  0  0
  -27.8018  -22.1549   20.0303 C   0  0  0  0  0  0
  -28.0187  -20.6955   20.3050 C   0  0  0  0  0  0
  -22.7710  -20.2801   17.5722 C   0  0  0  0  0  0
  -28.6176  -23.4542   20.4625 C   0  0  0  0  0  0
  -29.2693  -20.0214   20.9914 C   0  0  0  0  0  0
  -29.4534  -18.4537   21.4064 C   0  0  0  0  0  0
  -29.2940  -17.1065   20.5259 C   0  0  0  0  0  0
  -27.8244  -24.8926   20.6865 C   0  0  0  0  0  0
  -24.6915  -21.6497   18.1693 N   0  0  0  0  0  0
  -27.1864  -19.7496   19.8623 N   0  0  0  0  0  0
  -25.8721  -21.4742   18.8454 N   0  0  0  0  0  0
  -30.0048  -15.8572   21.0772 N   0  0  0  0  0  0
  -31.4535  -12.5384   19.1946 H   0  0  0  0  0  0
  -30.3163  -11.4790   19.9771 H   0  0  0  0  0  0
  -29.7658  -11.7108   17.5308 H   0  0  0  0  0  0
  -29.6249  -13.4484   17.7103 H   0  0  0  0  0  0
  -27.8766  -11.2770   18.9166 H   0  0  0  0  0  0
  -27.3655  -12.5036   17.8049 H   0  0  0  0  0  0
  -27.6281  -14.2566   19.4528 H   0  0  0  0  0  0
  -28.7137  -12.2065   21.4501 H   0  0  0  0  0  0
  -28.4101  -13.8876   21.7787 H   0  0  0  0  0  0
  -25.2789   -9.5662   22.4817 H   0  0  0  0  0  0
  -24.0039   -7.4609   22.7453 H   0  0  0  0  0  0
  -21.0904   -8.8846   19.8947 H   0  0  0  0  0  0
  -22.3802  -10.9724   19.6225 H   0  0  0  0  0  0
  -21.2020   -7.6186   23.9787 H   0  0  0  0  0  0
  -21.1449   -6.0531   25.9089 H   0  0  0  0  0  0
  -22.0605   -2.7663   23.2848 H   0  0  0  0  0  0
  -22.4136  -11.9835   22.4774 H   0  0  0  0  0  0
  -21.1136  -13.1233   22.2704 H   0  0  0  0  0  0
  -24.6684  -15.8667   20.5352 H   0  0  0  0  0  0
  -26.2922  -15.6294   20.1114 H   0  0  0  0  0  0
  -26.7148  -32.5399   23.1131 H   0  0  0  0  0  0
  -25.0055  -33.9719   25.0438 H   0  0  0  0  0  0
  -22.7166  -31.3006   21.4164 H   0  0  0  0  0  0
  -23.3719  -35.9632   23.3305 H   0  0  0  0  0  0
  -24.3579  -36.8935   22.2083 H   0  0  0  0  0  0
  -23.7271  -37.6503   23.6684 H   0  0  0  0  0  0
  -26.1074  -31.5267   20.6233 H   0  0  0  0  0  0
  -26.8562  -30.8087   22.0263 H   0  0  0  0  0  0
  -28.1004  -28.8712   21.2478 H   0  0  0  0  0  0
  -25.9526  -25.9458   18.9066 H   0  0  0  0  0  0
  -23.9560  -27.3625   18.9508 H   0  0  0  0  0  0
  -23.7890  -30.6171   19.4257 H   0  0  0  0  0  0
  -22.7576  -29.2785   19.8488 H   0  0  0  0  0  0
  -25.1298  -36.1915   25.0797 H   0  0  0  0  0  0
  -20.9937  -28.2929   24.1446 H   0  0  0  0  0  0
  -20.5891  -26.1966   23.3222 H   0  0  0  0  0  0
  -21.6450  -26.7627   22.0649 H   0  0  0  0  0  0
  -19.6675  -25.6472   21.1144 H   0  0  0  0  0  0
  -19.6568  -27.3353   20.6569 H   0  0  0  0  0  0
  -17.4028  -26.6796   21.3992 H   0  0  0  0  0  0
  -18.0287  -26.0040   22.8851 H   0  0  0  0  0  0
  -19.7902  -30.7095   24.2390 H   0  0  0  0  0  0
  -17.5098  -31.6112   24.5309 H   0  0  0  0  0  0
  -15.5280  -30.2959   23.7743 H   0  0  0  0  0  0
  -15.8679  -28.0878   22.7016 H   0  0  0  0  0  0
  -24.5861  -30.7074   25.7882 H   0  0  0  0  0  0
  -24.8872  -32.2953   26.4877 H   0  0  0  0  0  0
  -25.8018  -30.9019   27.0341 H   0  0  0  0  0  0
  -26.2947  -29.6753   24.1217 H   0  0  0  0  0  0
  -27.3896  -29.7215   25.4840 H   0  0  0  0  0  0
  -27.8868  -30.4237   23.9609 H   0  0  0  0  0  0
  -27.2574  -33.3621   26.2133 H   0  0  0  0  0  0
  -28.3842  -32.6941   25.0421 H   0  0  0  0  0  0
  -28.0648  -31.8489   26.5532 H   0  0  0  0  0  0
  -28.2574  -38.0124   24.7483 H   0  0  0  0  0  0
  -28.1075  -36.2676   24.6286 H   0  0  0  0  0  0
  -27.2302  -37.1454   25.8867 H   0  0  0  0  0  0
  -20.9355  -29.8983   21.7164 H   0  0  0  0  0  0
  -26.0141  -38.2807   24.1429 H   0  0  0  0  0  0
  -24.8039  -18.3998   18.7682 H   0  0  0  0  0  0
  -26.4415  -23.4493   18.8681 H   0  0  0  0  0  0
  -22.0354  -20.6315   18.2850 H   0  0  0  0  0  0
  -22.5509  -19.2433   17.3679 H   0  0  0  0  0  0
  -22.6415  -20.8365   16.6532 H   0  0  0  0  0  0
  -29.4227  -23.6094   19.7545 H   0  0  0  0  0  0
  -29.1080  -23.1943   21.4070 H   0  0  0  0  0  0
  -29.4308  -20.5707   21.9272 H   0  0  0  0  0  0
  -30.0999  -20.2861   20.3604 H   0  0  0  0  0  0
  -28.9272  -18.3204   22.3659 H   0  0  0  0  0  0
  -30.5198  -18.4377   21.6211 H   0  0  0  0  0  0
  -29.6393  -17.3341   19.5301 H   0  0  0  0  0  0
  -28.2230  -16.8638   20.4049 H   0  0  0  0  0  0
  -27.8416  -25.0258   21.7690 H   0  0  0  0  0  0
  -26.7577  -24.7323   20.5827 H   0  0  0  0  0  0
  -30.7918  -16.2727   21.5511 H   0  0  0  0  0  0
  1 25  1  0  0  0
  1 30  2  0  0  0
  1 86  1  0  0  0
  2  3  1  0  0  0
  2 25  1  0  0  0
  2 87  1  0  0  0
  2 88  1  0  0  0
  3  4  1  0  0  0
  3 89  1  0  0  0
  3 90  1  0  0  0
  4  5  1  0  0  0
  4 91  1  0  0  0
  4 92  1  0  0  0
  5  6  1  0  0  0
  5 26  1  0  0  0
  5 93  1  0  0  0
  6 25  1  0  0  0
  6 94  1  0  0  0
  6 95  1  0  0  0
  7  8  2  0  0  0
  7 26  1  0  0  0
  7 29  1  0  0  0
  8  9  1  0  0  0
  8 22  1  0  0  0
  9 10  1  0  0  0
  9 27  2  0  0  0
 10 11  2  0  0  0
 10 15  1  0  0  0
 11 12  1  0  0  0
 11 96  1  0  0  0
 12 13  2  0  0  0
 12 97  1  0  0  0
 13 14  1  0  0  0
 13 31  1  0  0  0
 14 15  2  0  0  0
 14 98  1  0  0  0
 15 99  1  0  0  0
 16 17  2  0  0  0
 16 21  1  0  0  0
 16 31  1  0  0  0
 17 18  1  0  0  0
 17100  1  0  0  0
 18 19  2  0  0  0
 18101  1  0  0  0
 19 20  1  0  0  0
 19 24  1  0  0  0
 20 21  2  0  0  0
 20102  1  0  0  0
 21 23  1  0  0  0
 22 28  1  0  0  0
 22 32  2  0  0  0
 26 27  1  0  0  0
 28103  1  0  0  0
 28104  1  0  0  0
 29105  1  0  0  0
 29106  1  0  0  0
 33 34  1  0  0  0
 33 66  1  0  0  0
 33 70  2  0  0  0
 34 36  1  0  0  0
 34 59  1  0  0  0
 34107  1  0  0  0
 35 44  2  0  0  0
 35 45  1  0  0  0
 35 68  1  0  0  0
 36 56  1  0  0  0
 36108  1  0  0  0
 37 39  1  0  0  0
 37 47  1  0  0  0
 37 66  1  0  0  0
 37109  1  0  0  0
 38 43  2  0  0  0
 38 46  1  0  0  0
 38 47  1  0  0  0
 39 64  1  0  0  0
 39 67  2  0  0  0
 40 52  1  0  0  0
 40 53  2  0  0  0
 40 58  1  0  0  0
 41110  1  0  0  0
 41111  1  0  0  0
 41112  1  0  0  0
 41 48  1  0  0  0
 42 43  1  0  0  0
 42 66  1  0  0  0
 42113  1  0  0  0
 42114  1  0  0  0
 43 44  1  0  0  0
 44115  1  0  0  0
 45 46  2  0  0  0
 45116  1  0  0  0
 46117  1  0  0  0
 47118  1  0  0  0
 47119  1  0  0  0
 48 56  1  0  0  0
 48 65  1  0  0  0
 48120  1  0  0  0
 49 50  1  0  0  0
 49 53  1  0  0  0
 49 64  1  0  0  0
 49121  1  0  0  0
 50 51  1  0  0  0
 50122  1  0  0  0
 50123  1  0  0  0
 51 52  1  0  0  0
 51124  1  0  0  0
 51125  1  0  0  0
 52126  1  0  0  0
 52127  1  0  0  0
 53 54  1  0  0  0
 54 55  2  0  0  0
 54128  1  0  0  0
 55 57  1  0  0  0
 55129  1  0  0  0
 56 69  2  0  0  0
 57 58  2  0  0  0
 57130  1  0  0  0
 58131  1  0  0  0
 59 60  1  0  0  0
 59 61  1  0  0  0
 59 62  1  0  0  0
 60132  1  0  0  0
 60133  1  0  0  0
 60134  1  0  0  0
 61135  1  0  0  0
 61136  1  0  0  0
 61137  1  0  0  0
 62138  1  0  0  0
 62139  1  0  0  0
 62140  1  0  0  0
 63 65  1  0  0  0
 63141  1  0  0  0
 63142  1  0  0  0
 63143  1  0  0  0
 64144  1  0  0  0
 65145  1  0  0  0
 68 82  1  0  0  0
 71 72  1  0  0  0
 71 73  2  0  0  0
 71146  1  0  0  0
 72 77  1  0  0  0
 72 83  2  0  0  0
 73 84  1  0  0  0
 73 85  1  0  0  0
 74 75  2  0  0  0
 74 85  1  0  0  0
 74147  1  0  0  0
 75 76  1  0  0  0
 75 78  1  0  0  0
 76 79  1  0  0  0
 76 84  2  0  0  0
 77148  1  0  0  0
 77149  1  0  0  0
 77150  1  0  0  0
 78 82  1  0  0  0
 78151  1  0  0  0
 78152  1  0  0  0
 79 80  1  0  0  0
 79153  1  0  0  0
 79154  1  0  0  0
 80 81  1  0  0  0
 80155  1  0  0  0
 80156  1  0  0  0
 81 86  1  0  0  0
 81157  1  0  0  0
 81158  1  0  0  0
 82159  1  0  0  0
 82160  1  0  0  0
 83 85  1  0  0  0
 86161  1  0  0  0
M  ISO  4   1 100  68 101  82 101  86 100
M  END
> <chiral flag>
0

> <version>
0

> <s_m_source_file>
/data/baiqing/PycharmProjects/Reinvent-master-3.2/result/LINK_invent/BTK/process_docking_weight1_custom_sum_contain_oxygen_bond_distance_aromatic_linkinvent_7_9_3/rearranged_h_0040.sdf

> <i_m_source_file_index>
14

> <r_mmod_Potential_Energy-OPLS-2005>
236.485794067383

> <r_mmod_Stretch_Energy-OPLS-2005>
155.713424682617

> <r_mmod_Bend_Energy-OPLS-2005>
275.523071289062

> <r_mmod_Torsional_Energy-OPLS-2005>
301.459747314453

> <r_mmod_Improper_Torsional_Energy-OPLS-2005>
9.0269079208374

> <r_mmod_Van_der_Waal_Energy-OPLS-2005>
134.611740112305

> <r_mmod_Electrostatic_Energy-OPLS-2005>
-520.9873046875

> <r_mmod_Solvation_Energy-OPLS-2005>
-222.422576904297

> <b_mmod_Minimization_Converged-OPLS-2005>
0

> <r_mmod_RMS_Derivative-OPLS-2005>
17.5279979705811

$$$$
14
                    3D
 Structure written by MMmdl.
156164  0  0  1  0            999 V2000
  -30.6623  -14.5793   20.5258 C   0  0  0  0  0  0
  -30.4290  -12.3550   19.4504 C   0  0  0  0  0  0
  -29.5047  -12.5010   18.2223 C   0  0  0  0  0  0
  -28.0266  -12.3453   18.6315 C   0  0  0  0  0  0
  -27.6547  -13.2150   19.8616 C   0  0  2  0  0  0
  -28.6984  -13.0696   20.9923 C   0  0  0  0  0  0
  -25.2574  -13.8171   20.5687 C   0  0  0  0  0  0
  -24.1834  -13.0438   20.9181 C   0  0  0  0  0  0
  -24.6399  -11.6907   20.8733 C   0  0  0  0  0  0
  -23.9066  -10.4292   21.0403 C   0  0  0  0  0  0
  -24.3616   -9.4206   21.9181 C   0  0  0  0  0  0
  -23.6291   -8.2242   22.0753 C   0  0  0  0  0  0
  -22.4273   -8.0280   21.3544 C   0  0  0  0  0  0
  -21.9908   -9.0254   20.4646 C   0  0  0  0  0  0
  -22.7237  -10.2133   20.3054 C   0  0  0  0  0  0
  -21.6853   -6.0735   22.5280 C   0  0  0  0  0  0
  -21.4014   -6.5640   23.8213 C   0  0  0  0  0  0
  -21.3660   -5.6793   24.9175 C   0  0  0  0  0  0
  -21.6044   -4.3055   24.7225 C   0  0  0  0  0  0
  -21.8819   -3.8146   23.4347 C   0  0  0  0  0  0
  -21.9192   -4.6963   22.3403 C   0  0  0  0  0  0
  -22.7856  -13.5231   21.1849 C   0  0  0  0  0  0
  -22.1661   -4.2149   21.0980 F   0  0  0  0  0  0
  -21.5628   -3.4539   25.7738 F   0  0  0  0  0  0
  -30.0222  -13.3746   20.4351 N   0  0  0  0  0  0
  -26.3001  -12.9350   20.3317 N   0  0  0  0  0  0
  -25.9328  -11.6505   20.5752 N   0  0  0  0  0  0
  -22.0502  -12.8223   22.0408 N   0  0  0  0  0  0
  -25.4297  -15.1891   20.4119 N   0  0  0  0  0  0
  -31.8144  -14.7127   20.1029 O   0  0  0  0  0  0
  -21.6638   -6.8877   21.4241 O   0  0  0  0  0  0
  -22.3539  -14.5539   20.6701 O   0  0  0  0  0  0
  -24.6221  -31.8635   23.2067 C   0  0  0  0  0  0
  -25.9086  -32.4800   23.8381 C   0  0  1  0  0  0
  -27.2236  -27.3669   20.1111 C   0  0  0  0  0  0
  -25.5918  -33.8599   24.2308 N   0  0  0  0  0  0
  -23.4142  -30.4881   21.5483 C   0  0  2  0  0  0
  -24.8623  -28.9525   20.1103 C   0  0  0  0  0  0
  -22.7456  -29.4641   22.4955 C   0  0  0  0  0  0
  -18.0282  -28.1384   22.8488 C   0  0  0  0  0  0
  -24.1488  -36.7304   23.2639 C   0  0  0  0  0  0
  -25.9518  -30.8094   21.3716 C   0  0  0  0  0  0
  -26.0294  -29.4412   20.7134 C   0  0  0  0  0  0
  -27.2180  -28.6588   20.7071 C   0  0  0  0  0  0
  -26.0416  -26.9238   19.4808 C   0  0  0  0  0  0
  -24.8674  -27.6962   19.4857 C   0  0  0  0  0  0
  -23.6268  -29.8253   20.1624 C   0  0  0  0  0  0
  -25.4111  -36.3098   24.0335 C   0  0  1  0  0  0
  -20.5880  -28.3683   23.1295 C   0  0  2  0  0  0
  -20.6772  -26.9410   22.5416 C   0  0  0  0  0  0
  -19.5750  -26.6385   21.5214 C   0  0  0  0  0  0
  -18.1927  -26.7930   22.1621 C   0  0  0  0  0  0
  -19.1533  -28.8850   23.2888 C   0  0  0  0  0  0
  -18.9457  -30.1454   23.8902 C   0  0  0  0  0  0
  -17.6457  -30.6587   24.0565 C   0  0  0  0  0  0
  -25.9044  -34.9464   23.5118 C   0  0  0  0  0  0
  -16.5349  -29.9086   23.6329 C   0  0  0  0  0  0
  -16.7269  -28.6504   23.0351 C   0  0  0  0  0  0
  -26.4487  -31.6592   25.0731 C   0  0  0  0  0  0
  -25.3733  -31.3712   26.1464 C   0  0  0  0  0  0
  -27.0325  -30.3023   24.6151 C   0  0  0  0  0  0
  -27.6053  -32.4319   25.7498 C   0  0  0  0  0  0
  -27.5583  -37.1805   24.8462 C   0  0  0  0  0  0
  -21.4174  -29.3042   22.3695 N   0  0  0  0  0  0
  -26.4292  -37.3787   23.9410 N   0  0  0  0  0  0
  -24.6813  -31.0686   22.0998 N   0  0  0  0  0  0
  -23.4199  -28.8175   23.3015 O   0  0  0  0  0  0
  -28.3153  -26.5037   20.1476 O   0  0  0  0  0  0
  -26.5607  -34.8923   22.4681 O   0  0  0  0  0  0
  -23.5394  -32.1412   23.7419 O   0  0  0  0  0  0
  -28.9528  -21.8590   19.2935 C   0  0  0  0  0  0
  -29.9468  -22.0921   21.4569 C   0  0  0  0  0  0
  -29.7047  -21.2705   20.3348 C   0  0  0  0  0  0
  -28.4725  -23.1910   19.4160 C   0  0  0  0  0  0
  -28.7513  -23.9361   20.5920 C   0  0  0  0  0  0
  -27.6380  -23.7785   18.2924 C   0  0  0  0  0  0
  -30.3736  -19.8729   20.1734 C   0  0  0  0  0  0
  -28.0656  -25.2984   20.9453 C   0  0  0  0  0  0
  -29.9138  -15.8739   21.0134 C   0  0  0  0  0  0
  -29.6850  -18.5819   20.7551 C   0  0  0  0  0  0
  -30.4756  -17.2450   20.4585 C   0  0  0  0  0  0
  -29.4865  -23.3661   21.5824 N   0  0  0  0  0  0
  -31.4736  -12.4544   19.1513 H   0  0  0  0  0  0
  -30.3376  -11.3578   19.8840 H   0  0  0  0  0  0
  -29.7628  -11.7589   17.4657 H   0  0  0  0  0  0
  -29.6582  -13.4773   17.7595 H   0  0  0  0  0  0
  -27.8564  -11.2921   18.8581 H   0  0  0  0  0  0
  -27.3746  -12.5834   17.7903 H   0  0  0  0  0  0
  -27.6736  -14.2486   19.5181 H   0  0  0  0  0  0
  -28.6903  -12.0552   21.3937 H   0  0  0  0  0  0
  -28.4566  -13.7248   21.8302 H   0  0  0  0  0  0
  -25.2764   -9.5681   22.4754 H   0  0  0  0  0  0
  -24.0001   -7.4634   22.7472 H   0  0  0  0  0  0
  -21.0840   -8.8772   19.8951 H   0  0  0  0  0  0
  -22.3696  -10.9671   19.6162 H   0  0  0  0  0  0
  -21.2007   -7.6148   23.9715 H   0  0  0  0  0  0
  -21.1482   -6.0524   25.9078 H   0  0  0  0  0  0
  -22.0598   -2.7609   23.2848 H   0  0  0  0  0  0
  -22.4120  -11.9882   22.4791 H   0  0  0  0  0  0
  -21.1122  -13.1249   22.2621 H   0  0  0  0  0  0
  -24.6676  -15.8480   20.5289 H   0  0  0  0  0  0
  -26.2900  -15.6291   20.1099 H   0  0  0  0  0  0
  -26.7158  -32.5492   23.1140 H   0  0  0  0  0  0
  -25.0073  -33.9754   25.0457 H   0  0  0  0  0  0
  -22.7059  -31.3073   21.4081 H   0  0  0  0  0  0
  -23.3751  -35.9635   23.3301 H   0  0  0  0  0  0
  -24.3581  -36.8923   22.2053 H   0  0  0  0  0  0
  -23.7239  -37.6506   23.6658 H   0  0  0  0  0  0
  -26.0765  -31.5755   20.6051 H   0  0  0  0  0  0
  -26.8347  -30.8585   21.9973 H   0  0  0  0  0  0
  -28.1135  -29.0254   21.1893 H   0  0  0  0  0  0
  -26.0126  -25.9586   18.9999 H   0  0  0  0  0  0
  -23.9735  -27.3159   19.0105 H   0  0  0  0  0  0
  -23.7401  -30.6026   19.4059 H   0  0  0  0  0  0
  -22.7489  -29.2501   19.8625 H   0  0  0  0  0  0
  -25.1288  -36.1957   25.0827 H   0  0  0  0  0  0
  -20.9972  -28.3257   24.1415 H   0  0  0  0  0  0
  -20.5673  -26.2292   23.3612 H   0  0  0  0  0  0
  -21.6642  -26.7444   22.1210 H   0  0  0  0  0  0
  -19.6912  -25.6297   21.1241 H   0  0  0  0  0  0
  -19.6691  -27.3197   20.6745 H   0  0  0  0  0  0
  -17.4201  -26.6685   21.4018 H   0  0  0  0  0  0
  -18.0320  -26.0068   22.9012 H   0  0  0  0  0  0
  -19.7933  -30.7268   24.2274 H   0  0  0  0  0  0
  -17.5013  -31.6267   24.5166 H   0  0  0  0  0  0
  -15.5349  -30.2989   23.7652 H   0  0  0  0  0  0
  -15.8669  -28.0824   22.7063 H   0  0  0  0  0  0
  -24.5925  -30.7037   25.7801 H   0  0  0  0  0  0
  -24.8901  -32.2868   26.4884 H   0  0  0  0  0  0
  -25.8075  -30.8907   27.0241 H   0  0  0  0  0  0
  -26.2888  -29.6782   24.1182 H   0  0  0  0  0  0
  -27.4045  -29.7266   25.4637 H   0  0  0  0  0  0
  -27.8747  -30.4322   23.9352 H   0  0  0  0  0  0
  -27.2670  -33.3615   26.2087 H   0  0  0  0  0  0
  -28.3859  -32.6884   25.0322 H   0  0  0  0  0  0
  -28.0728  -31.8436   26.5405 H   0  0  0  0  0  0
  -28.2597  -38.0107   24.7519 H   0  0  0  0  0  0
  -28.1084  -36.2639   24.6274 H   0  0  0  0  0  0
  -27.2305  -37.1439   25.8866 H   0  0  0  0  0  0
  -20.9345  -29.8770   21.6914 H   0  0  0  0  0  0
  -26.0179  -38.2863   24.1415 H   0  0  0  0  0  0
  -28.7545  -21.2932   18.3940 H   0  0  0  0  0  0
  -30.5489  -21.7267   22.2760 H   0  0  0  0  0  0
  -27.7599  -23.2096   17.3697 H   0  0  0  0  0  0
  -27.9329  -24.8067   18.0816 H   0  0  0  0  0  0
  -26.5806  -23.7617   18.5567 H   0  0  0  0  0  0
  -31.3741  -19.9467   20.6024 H   0  0  0  0  0  0
  -30.5391  -19.7172   19.1064 H   0  0  0  0  0  0
  -28.3438  -25.5583   21.9678 H   0  0  0  0  0  0
  -27.0001  -25.0740   21.0083 H   0  0  0  0  0  0
  -28.8661  -15.8031   20.7269 H   0  0  0  0  0  0
  -29.9316  -15.8842   22.1033 H   0  0  0  0  0  0
  -28.6789  -18.4974   20.3427 H   0  0  0  0  0  0
  -29.5636  -18.6955   21.8330 H   0  0  0  0  0  0
  -30.5785  -17.1524   19.3762 H   0  0  0  0  0  0
  -31.4933  -17.3646   20.8328 H   0  0  0  0  0  0
  1 25  1  0  0  0
  1 30  2  0  0  0
  1 79  1  0  0  0
  2  3  1  0  0  0
  2 25  1  0  0  0
  2 83  1  0  0  0
  2 84  1  0  0  0
  3  4  1  0  0  0
  3 85  1  0  0  0
  3 86  1  0  0  0
  4  5  1  0  0  0
  4 87  1  0  0  0
  4 88  1  0  0  0
  5  6  1  0  0  0
  5 26  1  0  0  0
  5 89  1  0  0  0
  6 25  1  0  0  0
  6 90  1  0  0  0
  6 91  1  0  0  0
  7  8  2  0  0  0
  7 26  1  0  0  0
  7 29  1  0  0  0
  8  9  1  0  0  0
  8 22  1  0  0  0
  9 10  1  0  0  0
  9 27  2  0  0  0
 10 11  2  0  0  0
 10 15  1  0  0  0
 11 12  1  0  0  0
 11 92  1  0  0  0
 12 13  2  0  0  0
 12 93  1  0  0  0
 13 14  1  0  0  0
 13 31  1  0  0  0
 14 15  2  0  0  0
 14 94  1  0  0  0
 15 95  1  0  0  0
 16 17  2  0  0  0
 16 21  1  0  0  0
 16 31  1  0  0  0
 17 18  1  0  0  0
 17 96  1  0  0  0
 18 19  2  0  0  0
 18 97  1  0  0  0
 19 20  1  0  0  0
 19 24  1  0  0  0
 20 21  2  0  0  0
 20 98  1  0  0  0
 21 23  1  0  0  0
 22 28  1  0  0  0
 22 32  2  0  0  0
 26 27  1  0  0  0
 28 99  1  0  0  0
 28100  1  0  0  0
 29101  1  0  0  0
 29102  1  0  0  0
 33 34  1  0  0  0
 33 66  1  0  0  0
 33 70  2  0  0  0
 34 36  1  0  0  0
 34 59  1  0  0  0
 34103  1  0  0  0
 35 44  2  0  0  0
 35 45  1  0  0  0
 35 68  1  0  0  0
 36 56  1  0  0  0
 36104  1  0  0  0
 37 39  1  0  0  0
 37 47  1  0  0  0
 37 66  1  0  0  0
 37105  1  0  0  0
 38 43  2  0  0  0
 38 46  1  0  0  0
 38 47  1  0  0  0
 39 64  1  0  0  0
 39 67  2  0  0  0
 40 52  1  0  0  0
 40 53  2  0  0  0
 40 58  1  0  0  0
 41106  1  0  0  0
 41107  1  0  0  0
 41108  1  0  0  0
 41 48  1  0  0  0
 42 43  1  0  0  0
 42 66  1  0  0  0
 42109  1  0  0  0
 42110  1  0  0  0
 43 44  1  0  0  0
 44111  1  0  0  0
 45 46  2  0  0  0
 45112  1  0  0  0
 46113  1  0  0  0
 47114  1  0  0  0
 47115  1  0  0  0
 48 56  1  0  0  0
 48 65  1  0  0  0
 48116  1  0  0  0
 49 50  1  0  0  0
 49 53  1  0  0  0
 49 64  1  0  0  0
 49117  1  0  0  0
 50 51  1  0  0  0
 50118  1  0  0  0
 50119  1  0  0  0
 51 52  1  0  0  0
 51120  1  0  0  0
 51121  1  0  0  0
 52122  1  0  0  0
 52123  1  0  0  0
 53 54  1  0  0  0
 54 55  2  0  0  0
 54124  1  0  0  0
 55 57  1  0  0  0
 55125  1  0  0  0
 56 69  2  0  0  0
 57 58  2  0  0  0
 57126  1  0  0  0
 58127  1  0  0  0
 59 60  1  0  0  0
 59 61  1  0  0  0
 59 62  1  0  0  0
 60128  1  0  0  0
 60129  1  0  0  0
 60130  1  0  0  0
 61131  1  0  0  0
 61132  1  0  0  0
 61133  1  0  0  0
 62134  1  0  0  0
 62135  1  0  0  0
 62136  1  0  0  0
 63 65  1  0  0  0
 63137  1  0  0  0
 63138  1  0  0  0
 63139  1  0  0  0
 64140  1  0  0  0
 65141  1  0  0  0
 68 78  1  0  0  0
 71 73  2  0  0  0
 71 74  1  0  0  0
 71142  1  0  0  0
 72 73  1  0  0  0
 72 82  2  0  0  0
 72143  1  0  0  0
 73 77  1  0  0  0
 74 75  2  0  0  0
 74 76  1  0  0  0
 75 78  1  0  0  0
 75 82  1  0  0  0
 76144  1  0  0  0
 76145  1  0  0  0
 76146  1  0  0  0
 77 80  1  0  0  0
 77147  1  0  0  0
 77148  1  0  0  0
 78149  1  0  0  0
 78150  1  0  0  0
 79 81  1  0  0  0
 79151  1  0  0  0
 79152  1  0  0  0
 80 81  1  0  0  0
 80153  1  0  0  0
 80154  1  0  0  0
 81155  1  0  0  0
 81156  1  0  0  0
M  ISO  4   1 100  68 101  78 101  79 100
M  END
> <chiral flag>
0

> <version>
0

> <s_m_source_file>
/data/baiqing/PycharmProjects/Reinvent-master-3.2/result/LINK_invent/BTK/process_docking_weight1_custom_sum_contain_oxygen_bond_distance_aromatic_linkinvent_7_9_3/rearranged_h_0040.sdf

> <i_m_source_file_index>
15

> <r_mmod_Potential_Energy-OPLS-2005>
-70.2410583496094

> <r_mmod_Stretch_Energy-OPLS-2005>
60.7217864990234

> <r_mmod_Bend_Energy-OPLS-2005>
114.797035217285

> <r_mmod_Torsional_Energy-OPLS-2005>
204.309722900391

> <r_mmod_Improper_Torsional_Energy-OPLS-2005>
4.86635637283325

> <r_mmod_Van_der_Waal_Energy-OPLS-2005>
141.933349609375

> <r_mmod_Electrostatic_Energy-OPLS-2005>
-425.259429931641

> <r_mmod_Solvation_Energy-OPLS-2005>
-205.258193969727

> <b_mmod_Minimization_Converged-OPLS-2005>
0

> <r_mmod_RMS_Derivative-OPLS-2005>
0.187324672937393

$$$$
15
                    3D
 Structure written by MMmdl.
153161  0  0  1  0            999 V2000
  -30.6452  -14.7362   20.4431 C   0  0  0  0  0  0
  -30.4246  -12.4487   19.4807 C   0  0  0  0  0  0
  -29.5120  -12.5048   18.2380 C   0  0  0  0  0  0
  -28.0362  -12.3351   18.6452 C   0  0  0  0  0  0
  -27.6389  -13.2383   19.8450 C   0  0  2  0  0  0
  -28.6843  -13.1955   20.9815 C   0  0  0  0  0  0
  -25.2493  -13.8217   20.5684 C   0  0  0  0  0  0
  -24.1791  -13.0453   20.9215 C   0  0  0  0  0  0
  -24.6397  -11.6935   20.8734 C   0  0  0  0  0  0
  -23.9069  -10.4300   21.0390 C   0  0  0  0  0  0
  -24.3621   -9.4215   21.9174 C   0  0  0  0  0  0
  -23.6295   -8.2252   22.0754 C   0  0  0  0  0  0
  -22.4280   -8.0280   21.3546 C   0  0  0  0  0  0
  -21.9915   -9.0246   20.4643 C   0  0  0  0  0  0
  -22.7235  -10.2131   20.3040 C   0  0  0  0  0  0
  -21.6859   -6.0725   22.5273 C   0  0  0  0  0  0
  -21.4013   -6.5627   23.8205 C   0  0  0  0  0  0
  -21.3669   -5.6785   24.9171 C   0  0  0  0  0  0
  -21.6055   -4.3047   24.7225 C   0  0  0  0  0  0
  -21.8810   -3.8135   23.4342 C   0  0  0  0  0  0
  -21.9194   -4.6950   22.3398 C   0  0  0  0  0  0
  -22.7802  -13.5223   21.1858 C   0  0  0  0  0  0
  -22.1653   -4.2126   21.0975 F   0  0  0  0  0  0
  -21.5644   -3.4537   25.7743 F   0  0  0  0  0  0
  -29.9869  -13.5279   20.3953 N   0  0  0  0  0  0
  -26.2926  -12.9443   20.3254 N   0  0  0  0  0  0
  -25.9329  -11.6580   20.5732 N   0  0  0  0  0  0
  -22.0450  -12.8217   22.0419 N   0  0  0  0  0  0
  -25.4188  -15.1939   20.4095 N   0  0  0  0  0  0
  -31.8385  -14.7879   20.1434 O   0  0  0  0  0  0
  -21.6649   -6.8871   21.4238 O   0  0  0  0  0  0
  -22.3481  -14.5523   20.6694 O   0  0  0  0  0  0
  -24.6296  -31.8535   23.1962 C   0  0  0  0  0  0
  -25.9125  -32.4749   23.8307 C   0  0  1  0  0  0
  -27.2209  -27.2694   20.1175 C   0  0  0  0  0  0
  -25.5912  -33.8551   24.2235 N   0  0  0  0  0  0
  -23.4254  -30.4759   21.5389 C   0  0  2  0  0  0
  -24.8691  -28.9212   20.1050 C   0  0  0  0  0  0
  -22.7502  -29.4601   22.4912 C   0  0  0  0  0  0
  -18.0290  -28.1390   22.8487 C   0  0  0  0  0  0
  -24.1478  -36.7288   23.2651 C   0  0  0  0  0  0
  -25.9681  -30.7674   21.3731 C   0  0  0  0  0  0
  -26.0371  -29.3901   20.7164 C   0  0  0  0  0  0
  -27.2108  -28.5750   20.7140 C   0  0  0  0  0  0
  -26.0256  -26.8577   19.4862 C   0  0  0  0  0  0
  -24.8686  -27.6631   19.4802 C   0  0  0  0  0  0
  -23.6390  -29.8061   20.1550 C   0  0  0  0  0  0
  -25.4101  -36.3071   24.0334 C   0  0  1  0  0  0
  -20.5889  -28.3694   23.1272 C   0  0  2  0  0  0
  -20.6765  -26.9409   22.5412 C   0  0  0  0  0  0
  -19.5739  -26.6382   21.5216 C   0  0  0  0  0  0
  -18.1924  -26.7934   22.1627 C   0  0  0  0  0  0
  -19.1545  -28.8856   23.2876 C   0  0  0  0  0  0
  -18.9478  -30.1461   23.8889 C   0  0  0  0  0  0
  -17.6480  -30.6589   24.0568 C   0  0  0  0  0  0
  -25.9047  -34.9446   23.5095 C   0  0  0  0  0  0
  -16.5364  -29.9094   23.6335 C   0  0  0  0  0  0
  -16.7279  -28.6512   23.0349 C   0  0  0  0  0  0
  -26.4484  -31.6581   25.0701 C   0  0  0  0  0  0
  -25.3720  -31.3746   26.1441 C   0  0  0  0  0  0
  -27.0336  -30.3002   24.6181 C   0  0  0  0  0  0
  -27.6027  -32.4340   25.7474 C   0  0  0  0  0  0
  -27.5567  -37.1794   24.8474 C   0  0  0  0  0  0
  -21.4207  -29.3049   22.3669 N   0  0  0  0  0  0
  -26.4278  -37.3771   23.9420 N   0  0  0  0  0  0
  -24.6944  -31.0514   22.0924 N   0  0  0  0  0  0
  -23.4212  -28.8152   23.3011 O   0  0  0  0  0  0
  -28.3495  -26.4253   20.2049 O   0  0  0  0  0  0
  -26.5643  -34.8930   22.4680 O   0  0  0  0  0  0
  -23.5450  -32.1357   23.7259 O   0  0  0  0  0  0
  -28.4583  -19.0973   20.9392 C   0  0  0  0  0  0
  -29.7183  -18.7061   20.3811 C   0  0  0  0  0  0
  -30.1405  -19.9401   19.8759 C   0  0  0  0  0  0
  -31.3992  -20.2286   19.1166 C   0  0  0  0  0  0
  -30.5068  -17.3137   20.3380 C   0  0  0  0  0  0
  -28.5240  -23.6744   20.3858 C   0  0  0  0  0  0
  -29.1479  -22.4076   19.5955 C   0  0  0  0  0  0
  -28.4679  -25.0744   19.5692 C   0  0  0  0  0  0
  -28.1562  -20.4015   20.7795 N   0  0  0  0  0  0
  -29.2002  -20.9723   20.1294 N   0  0  0  0  0  0
  -29.9294  -15.9177   20.5852 N   0  0  0  0  0  0
  -31.4705  -12.5496   19.1846 H   0  0  0  0  0  0
  -30.3469  -11.4789   19.9758 H   0  0  0  0  0  0
  -29.7952  -11.7281   17.5267 H   0  0  0  0  0  0
  -29.6452  -13.4589   17.7251 H   0  0  0  0  0  0
  -27.8885  -11.2858   18.9039 H   0  0  0  0  0  0
  -27.3847  -12.5297   17.7917 H   0  0  0  0  0  0
  -27.6272  -14.2565   19.4573 H   0  0  0  0  0  0
  -28.7142  -12.2074   21.4425 H   0  0  0  0  0  0
  -28.4227  -13.9002   21.7724 H   0  0  0  0  0  0
  -25.2771   -9.5689   22.4752 H   0  0  0  0  0  0
  -24.0001   -7.4642   22.7475 H   0  0  0  0  0  0
  -21.0851   -8.8747   19.8947 H   0  0  0  0  0  0
  -22.3683  -10.9660   19.6141 H   0  0  0  0  0  0
  -21.1987   -7.6134   23.9693 H   0  0  0  0  0  0
  -21.1519   -6.0525   25.9074 H   0  0  0  0  0  0
  -22.0585   -2.7594   23.2853 H   0  0  0  0  0  0
  -22.4086  -11.9903   22.4840 H   0  0  0  0  0  0
  -21.1045  -13.1200   22.2596 H   0  0  0  0  0  0
  -24.6522  -15.8478   20.5214 H   0  0  0  0  0  0
  -26.2613  -15.6291   20.0568 H   0  0  0  0  0  0
  -26.7190  -32.5385   23.1042 H   0  0  0  0  0  0
  -25.0022  -33.9677   25.0358 H   0  0  0  0  0  0
  -22.7211  -31.2987   21.3939 H   0  0  0  0  0  0
  -23.3739  -35.9626   23.3324 H   0  0  0  0  0  0
  -24.3567  -36.8892   22.2064 H   0  0  0  0  0  0
  -23.7228  -37.6489   23.6670 H   0  0  0  0  0  0
  -26.1054  -31.5236   20.5981 H   0  0  0  0  0  0
  -26.8472  -30.8142   22.0040 H   0  0  0  0  0  0
  -28.1047  -28.9308   21.2073 H   0  0  0  0  0  0
  -25.9377  -25.8895   19.0179 H   0  0  0  0  0  0
  -23.9710  -27.2981   19.0005 H   0  0  0  0  0  0
  -23.7613  -30.5813   19.3975 H   0  0  0  0  0  0
  -22.7557  -29.2394   19.8531 H   0  0  0  0  0  0
  -25.1276  -36.1918   25.0822 H   0  0  0  0  0  0
  -20.9986  -28.3277   24.1389 H   0  0  0  0  0  0
  -20.5640  -26.2314   23.3627 H   0  0  0  0  0  0
  -21.6632  -26.7405   22.1215 H   0  0  0  0  0  0
  -19.6897  -25.6297   21.1239 H   0  0  0  0  0  0
  -19.6670  -27.3201   20.6759 H   0  0  0  0  0  0
  -17.4186  -26.6694   21.4035 H   0  0  0  0  0  0
  -18.0315  -26.0074   22.9019 H   0  0  0  0  0  0
  -19.7960  -30.7280   24.2242 H   0  0  0  0  0  0
  -17.5039  -31.6266   24.5181 H   0  0  0  0  0  0
  -15.5366  -30.2994   23.7666 H   0  0  0  0  0  0
  -15.8686  -28.0842   22.7049 H   0  0  0  0  0  0
  -24.5897  -30.7071   25.7802 H   0  0  0  0  0  0
  -24.8910  -32.2923   26.4839 H   0  0  0  0  0  0
  -25.8047  -30.8963   27.0238 H   0  0  0  0  0  0
  -26.2916  -29.6746   24.1202 H   0  0  0  0  0  0
  -27.4031  -29.7251   25.4681 H   0  0  0  0  0  0
  -27.8783  -30.4285   23.9410 H   0  0  0  0  0  0
  -27.2611  -33.3653   26.2009 H   0  0  0  0  0  0
  -28.3847  -32.6881   25.0307 H   0  0  0  0  0  0
  -28.0687  -31.8503   26.5421 H   0  0  0  0  0  0
  -28.2599  -38.0078   24.7488 H   0  0  0  0  0  0
  -28.1039  -36.2603   24.6321 H   0  0  0  0  0  0
  -27.2298  -37.1469   25.8883 H   0  0  0  0  0  0
  -20.9405  -29.8782   21.6875 H   0  0  0  0  0  0
  -26.0162  -38.2847   24.1409 H   0  0  0  0  0  0
  -27.7436  -18.4724   21.4550 H   0  0  0  0  0  0
  -31.2035  -20.2711   18.0450 H   0  0  0  0  0  0
  -32.1531  -19.4614   19.2897 H   0  0  0  0  0  0
  -31.8428  -21.1784   19.4132 H   0  0  0  0  0  0
  -31.3500  -17.3951   21.0265 H   0  0  0  0  0  0
  -30.9853  -17.2451   19.3587 H   0  0  0  0  0  0
  -29.0991  -23.8285   21.2987 H   0  0  0  0  0  0
  -27.5158  -23.4263   20.7148 H   0  0  0  0  0  0
  -30.1675  -22.6874   19.3337 H   0  0  0  0  0  0
  -28.6292  -22.3419   18.6395 H   0  0  0  0  0  0
  -27.7799  -24.9660   18.7338 H   0  0  0  0  0  0
  -29.4342  -25.1432   19.0695 H   0  0  0  0  0  0
  -28.9436  -15.8391   20.7785 H   0  0  0  0  0  0
  1 25  1  0  0  0
  1 30  2  0  0  0
  1 81  1  0  0  0
  2  3  1  0  0  0
  2 25  1  0  0  0
  2 82  1  0  0  0
  2 83  1  0  0  0
  3  4  1  0  0  0
  3 84  1  0  0  0
  3 85  1  0  0  0
  4  5  1  0  0  0
  4 86  1  0  0  0
  4 87  1  0  0  0
  5  6  1  0  0  0
  5 26  1  0  0  0
  5 88  1  0  0  0
  6 25  1  0  0  0
  6 89  1  0  0  0
  6 90  1  0  0  0
  7  8  2  0  0  0
  7 26  1  0  0  0
  7 29  1  0  0  0
  8  9  1  0  0  0
  8 22  1  0  0  0
  9 10  1  0  0  0
  9 27  2  0  0  0
 10 11  2  0  0  0
 10 15  1  0  0  0
 11 12  1  0  0  0
 11 91  1  0  0  0
 12 13  2  0  0  0
 12 92  1  0  0  0
 13 14  1  0  0  0
 13 31  1  0  0  0
 14 15  2  0  0  0
 14 93  1  0  0  0
 15 94  1  0  0  0
 16 17  2  0  0  0
 16 21  1  0  0  0
 16 31  1  0  0  0
 17 18  1  0  0  0
 17 95  1  0  0  0
 18 19  2  0  0  0
 18 96  1  0  0  0
 19 20  1  0  0  0
 19 24  1  0  0  0
 20 21  2  0  0  0
 20 97  1  0  0  0
 21 23  1  0  0  0
 22 28  1  0  0  0
 22 32  2  0  0  0
 26 27  1  0  0  0
 28 98  1  0  0  0
 28 99  1  0  0  0
 29100  1  0  0  0
 29101  1  0  0  0
 33 34  1  0  0  0
 33 66  1  0  0  0
 33 70  2  0  0  0
 34 36  1  0  0  0
 34 59  1  0  0  0
 34102  1  0  0  0
 35 44  2  0  0  0
 35 45  1  0  0  0
 35 68  1  0  0  0
 36 56  1  0  0  0
 36103  1  0  0  0
 37 39  1  0  0  0
 37 47  1  0  0  0
 37 66  1  0  0  0
 37104  1  0  0  0
 38 43  2  0  0  0
 38 46  1  0  0  0
 38 47  1  0  0  0
 39 64  1  0  0  0
 39 67  2  0  0  0
 40 52  1  0  0  0
 40 53  2  0  0  0
 40 58  1  0  0  0
 41105  1  0  0  0
 41106  1  0  0  0
 41107  1  0  0  0
 41 48  1  0  0  0
 42 43  1  0  0  0
 42 66  1  0  0  0
 42108  1  0  0  0
 42109  1  0  0  0
 43 44  1  0  0  0
 44110  1  0  0  0
 45 46  2  0  0  0
 45111  1  0  0  0
 46112  1  0  0  0
 47113  1  0  0  0
 47114  1  0  0  0
 48 56  1  0  0  0
 48 65  1  0  0  0
 48115  1  0  0  0
 49 50  1  0  0  0
 49 53  1  0  0  0
 49 64  1  0  0  0
 49116  1  0  0  0
 50 51  1  0  0  0
 50117  1  0  0  0
 50118  1  0  0  0
 51 52  1  0  0  0
 51119  1  0  0  0
 51120  1  0  0  0
 52121  1  0  0  0
 52122  1  0  0  0
 53 54  1  0  0  0
 54 55  2  0  0  0
 54123  1  0  0  0
 55 57  1  0  0  0
 55124  1  0  0  0
 56 69  2  0  0  0
 57 58  2  0  0  0
 57125  1  0  0  0
 58126  1  0  0  0
 59 60  1  0  0  0
 59 61  1  0  0  0
 59 62  1  0  0  0
 60127  1  0  0  0
 60128  1  0  0  0
 60129  1  0  0  0
 61130  1  0  0  0
 61131  1  0  0  0
 61132  1  0  0  0
 62133  1  0  0  0
 62134  1  0  0  0
 62135  1  0  0  0
 63 65  1  0  0  0
 63136  1  0  0  0
 63137  1  0  0  0
 63138  1  0  0  0
 64139  1  0  0  0
 65140  1  0  0  0
 68 78  1  0  0  0
 71 72  1  0  0  0
 71 79  2  0  0  0
 71141  1  0  0  0
 72 73  2  0  0  0
 72 75  1  0  0  0
 73 74  1  0  0  0
 73 80  1  0  0  0
 74142  1  0  0  0
 74143  1  0  0  0
 74144  1  0  0  0
 75 81  1  0  0  0
 75145  1  0  0  0
 75146  1  0  0  0
 76 77  1  0  0  0
 76 78  1  0  0  0
 76147  1  0  0  0
 76148  1  0  0  0
 77 80  1  0  0  0
 77149  1  0  0  0
 77150  1  0  0  0
 78151  1  0  0  0
 78152  1  0  0  0
 79 80  1  0  0  0
 81153  1  0  0  0
M  ISO  4   1 100  68 101  78 101  81 100
M  END
> <chiral flag>
0

> <version>
0

> <s_m_source_file>
/data/baiqing/PycharmProjects/Reinvent-master-3.2/result/LINK_invent/BTK/process_docking_weight1_custom_sum_contain_oxygen_bond_distance_aromatic_linkinvent_7_9_3/rearranged_h_0040.sdf

> <i_m_source_file_index>
16

> <r_mmod_Potential_Energy-OPLS-2005>
102.09969329834

> <r_mmod_Stretch_Energy-OPLS-2005>
115.097663879395

> <r_mmod_Bend_Energy-OPLS-2005>
193.890533447266

> <r_mmod_Torsional_Energy-OPLS-2005>
205.598068237305

> <r_mmod_Improper_Torsional_Energy-OPLS-2005>
6.58632755279541

> <r_mmod_Van_der_Waal_Energy-OPLS-2005>
116.431549072266

> <r_mmod_Electrostatic_Energy-OPLS-2005>
-391.376525878906

> <r_mmod_Solvation_Energy-OPLS-2005>
-225.28059387207

> <b_mmod_Minimization_Converged-OPLS-2005>
0

> <r_mmod_RMS_Derivative-OPLS-2005>
2.08295440673828

$$$$
16
                    3D
 Structure written by MMmdl.
166174  0  0  1  0            999 V2000
  -30.7151  -14.4755   20.6217 C   0  0  0  0  0  0
  -30.4214  -12.3294   19.4184 C   0  0  0  0  0  0
  -29.4902  -12.5228   18.2041 C   0  0  0  0  0  0
  -28.0140  -12.3740   18.6186 C   0  0  0  0  0  0
  -27.6606  -13.2119   19.8759 C   0  0  2  0  0  0
  -28.7023  -12.9929   20.9956 C   0  0  0  0  0  0
  -25.2583  -13.8182   20.5685 C   0  0  0  0  0  0
  -24.1839  -13.0451   20.9176 C   0  0  0  0  0  0
  -24.6399  -11.6915   20.8744 C   0  0  0  0  0  0
  -23.9067  -10.4292   21.0410 C   0  0  0  0  0  0
  -24.3614   -9.4212   21.9196 C   0  0  0  0  0  0
  -23.6291   -8.2245   22.0766 C   0  0  0  0  0  0
  -22.4276   -8.0285   21.3539 C   0  0  0  0  0  0
  -21.9913   -9.0260   20.4648 C   0  0  0  0  0  0
  -22.7245  -10.2137   20.3056 C   0  0  0  0  0  0
  -21.6852   -6.0739   22.5275 C   0  0  0  0  0  0
  -21.4009   -6.5638   23.8211 C   0  0  0  0  0  0
  -21.3658   -5.6793   24.9176 C   0  0  0  0  0  0
  -21.6047   -4.3061   24.7224 C   0  0  0  0  0  0
  -21.8814   -3.8151   23.4347 C   0  0  0  0  0  0
  -21.9189   -4.6966   22.3401 C   0  0  0  0  0  0
  -22.7862  -13.5245   21.1835 C   0  0  0  0  0  0
  -22.1656   -4.2152   21.0982 F   0  0  0  0  0  0
  -21.5636   -3.4542   25.7742 F   0  0  0  0  0  0
  -30.0306  -13.3098   20.4456 N   0  0  0  0  0  0
  -26.3021  -12.9350   20.3379 N   0  0  0  0  0  0
  -25.9329  -11.6504   20.5776 N   0  0  0  0  0  0
  -22.0489  -12.8227   22.0372 N   0  0  0  0  0  0
  -25.4340  -15.1902   20.4098 N   0  0  0  0  0  0
  -31.8194  -14.6788   20.1090 O   0  0  0  0  0  0
  -21.6633   -6.8886   21.4241 O   0  0  0  0  0  0
  -22.3543  -14.5553   20.6694 O   0  0  0  0  0  0
  -24.6147  -31.8627   23.2068 C   0  0  0  0  0  0
  -25.9030  -32.4794   23.8381 C   0  0  1  0  0  0
  -27.2298  -27.3963   20.1061 C   0  0  0  0  0  0
  -25.5891  -33.8593   24.2305 N   0  0  0  0  0  0
  -23.4026  -30.4853   21.5476 C   0  0  2  0  0  0
  -24.8498  -28.9453   20.1110 C   0  0  0  0  0  0
  -22.7412  -29.4622   22.4989 C   0  0  0  0  0  0
  -18.0265  -28.1352   22.8473 C   0  0  0  0  0  0
  -24.1495  -36.7311   23.2640 C   0  0  0  0  0  0
  -25.9330  -30.8189   21.3632 C   0  0  0  0  0  0
  -26.0093  -29.4502   20.7099 C   0  0  0  0  0  0
  -27.1991  -28.6826   20.7020 C   0  0  0  0  0  0
  -26.0520  -26.9137   19.4932 C   0  0  0  0  0  0
  -24.8692  -27.6785   19.4988 C   0  0  0  0  0  0
  -23.6115  -29.8133   20.1629 C   0  0  0  0  0  0
  -25.4109  -36.3090   24.0329 C   0  0  1  0  0  0
  -20.5840  -28.3631   23.1321 C   0  0  2  0  0  0
  -20.6744  -26.9364   22.5420 C   0  0  0  0  0  0
  -19.5753  -26.6356   21.5199 C   0  0  0  0  0  0
  -18.1910  -26.7907   22.1573 C   0  0  0  0  0  0
  -19.1509  -28.8804   23.2891 C   0  0  0  0  0  0
  -18.9444  -30.1415   23.8901 C   0  0  0  0  0  0
  -17.6453  -30.6552   24.0554 C   0  0  0  0  0  0
  -25.9030  -34.9458   23.5112 C   0  0  0  0  0  0
  -16.5340  -29.9035   23.6344 C   0  0  0  0  0  0
  -16.7249  -28.6464   23.0348 C   0  0  0  0  0  0
  -26.4459  -31.6590   25.0733 C   0  0  0  0  0  0
  -25.3725  -31.3653   26.1486 C   0  0  0  0  0  0
  -27.0304  -30.3041   24.6122 C   0  0  0  0  0  0
  -27.6054  -32.4317   25.7467 C   0  0  0  0  0  0
  -27.5573  -37.1805   24.8451 C   0  0  0  0  0  0
  -21.4130  -29.3008   22.3747 N   0  0  0  0  0  0
  -26.4282  -37.3781   23.9402 N   0  0  0  0  0  0
  -24.6684  -31.0718   22.0969 N   0  0  0  0  0  0
  -23.4181  -28.8161   23.3024 O   0  0  0  0  0  0
  -28.4087  -26.6686   20.1501 O   0  0  0  0  0  0
  -26.5605  -34.8913   22.4682 O   0  0  0  0  0  0
  -23.5335  -32.1395   23.7446 O   0  0  0  0  0  0
  -28.8856  -21.0933   22.2532 C   0  0  0  0  0  0
  -28.8455  -20.1770   21.1865 C   0  0  0  0  0  0
  -28.5400  -20.7473   19.9287 C   0  0  0  0  0  0
  -28.2456  -22.8343   20.8848 C   0  0  0  0  0  0
  -25.9293  -17.7658   16.6810 C   0  0  0  0  0  0
  -29.0049  -18.6568   21.4498 C   0  0  0  0  0  0
  -28.5433  -19.9338   18.6436 C   0  0  0  0  0  0
  -27.7145  -24.2842   20.7893 C   0  0  0  0  0  0
  -27.2612  -18.4331   17.0380 C   0  0  0  0  0  0
  -30.3750  -18.0030   21.1120 C   0  0  0  0  0  0
  -27.1841  -19.3064   18.3023 C   0  0  0  0  0  0
  -30.7057  -16.6747   21.8666 C   0  0  0  0  0  0
  -28.4608  -25.2539   19.8241 C   0  0  0  0  0  0
  -28.5986  -22.4040   22.0955 N   0  0  0  0  0  0
  -28.2133  -22.0580   19.8014 N   0  0  0  0  0  0
  -30.0965  -15.4295   21.3508 N   0  0  0  0  0  0
  -31.4660  -12.4308   19.1175 H   0  0  0  0  0  0
  -30.3269  -11.3167   19.8139 H   0  0  0  0  0  0
  -29.7322  -11.8003   17.4237 H   0  0  0  0  0  0
  -29.6510  -13.5104   17.7684 H   0  0  0  0  0  0
  -27.8310  -11.3175   18.8162 H   0  0  0  0  0  0
  -27.3589  -12.6456   17.7899 H   0  0  0  0  0  0
  -27.7035  -14.2605   19.5797 H   0  0  0  0  0  0
  -28.6868  -11.9531   21.3262 H   0  0  0  0  0  0
  -28.4551  -13.5805   21.8806 H   0  0  0  0  0  0
  -25.2753   -9.5687   22.4778 H   0  0  0  0  0  0
  -23.9991   -7.4642   22.7486 H   0  0  0  0  0  0
  -21.0843   -8.8780   19.8955 H   0  0  0  0  0  0
  -22.3714  -10.9672   19.6162 H   0  0  0  0  0  0
  -21.1993   -7.6142   23.9712 H   0  0  0  0  0  0
  -21.1491   -6.0529   25.9077 H   0  0  0  0  0  0
  -22.0597   -2.7611   23.2849 H   0  0  0  0  0  0
  -22.4071  -11.9854   22.4735 H   0  0  0  0  0  0
  -21.1109  -13.1264   22.2578 H   0  0  0  0  0  0
  -24.6752  -15.8537   20.5212 H   0  0  0  0  0  0
  -26.2938  -15.6201   20.0936 H   0  0  0  0  0  0
  -26.7095  -32.5502   23.1125 H   0  0  0  0  0  0
  -25.0076  -33.9758   25.0479 H   0  0  0  0  0  0
  -22.6901  -31.3008   21.4059 H   0  0  0  0  0  0
  -23.3752  -35.9651   23.3297 H   0  0  0  0  0  0
  -24.3594  -36.8937   22.2059 H   0  0  0  0  0  0
  -23.7277  -37.6517   23.6681 H   0  0  0  0  0  0
  -26.0472  -31.5835   20.5934 H   0  0  0  0  0  0
  -26.8180  -30.8722   21.9857 H   0  0  0  0  0  0
  -28.0951  -29.0664   21.1710 H   0  0  0  0  0  0
  -26.0296  -25.9483   19.0103 H   0  0  0  0  0  0
  -23.9756  -27.2842   19.0347 H   0  0  0  0  0  0
  -23.7113  -30.5861   19.3996 H   0  0  0  0  0  0
  -22.7365  -29.2283   19.8748 H   0  0  0  0  0  0
  -25.1285  -36.1930   25.0817 H   0  0  0  0  0  0
  -20.9916  -28.3180   24.1447 H   0  0  0  0  0  0
  -20.5611  -26.2225   23.3586 H   0  0  0  0  0  0
  -21.6627  -26.7363   22.1259 H   0  0  0  0  0  0
  -19.6908  -25.6263   21.1229 H   0  0  0  0  0  0
  -19.6735  -27.3176   20.6737 H   0  0  0  0  0  0
  -17.4200  -26.6693   21.3949 H   0  0  0  0  0  0
  -18.0281  -26.0010   22.8916 H   0  0  0  0  0  0
  -19.7916  -30.7239   24.2267 H   0  0  0  0  0  0
  -17.4991  -31.6251   24.5117 H   0  0  0  0  0  0
  -15.5350  -30.2933   23.7660 H   0  0  0  0  0  0
  -15.8647  -28.0781   22.7056 H   0  0  0  0  0  0
  -24.6043  -30.6796   25.7871 H   0  0  0  0  0  0
  -24.8728  -32.2749   26.4837 H   0  0  0  0  0  0
  -25.8123  -30.8990   27.0309 H   0  0  0  0  0  0
  -26.2844  -29.6792   24.1197 H   0  0  0  0  0  0
  -27.4090  -29.7295   25.4580 H   0  0  0  0  0  0
  -27.8659  -30.4368   23.9246 H   0  0  0  0  0  0
  -27.2722  -33.3647   26.2013 H   0  0  0  0  0  0
  -28.3868  -32.6809   25.0279 H   0  0  0  0  0  0
  -28.0719  -31.8456   26.5393 H   0  0  0  0  0  0
  -28.2575  -38.0115   24.7504 H   0  0  0  0  0  0
  -28.1082  -36.2646   24.6251 H   0  0  0  0  0  0
  -27.2300  -37.1423   25.8856 H   0  0  0  0  0  0
  -20.9281  -29.8738   21.6980 H   0  0  0  0  0  0
  -26.0158  -38.2843   24.1431 H   0  0  0  0  0  0
  -29.1085  -20.7707   23.2602 H   0  0  0  0  0  0
  -26.0204  -17.1866   15.7612 H   0  0  0  0  0  0
  -25.1440  -18.5047   16.5237 H   0  0  0  0  0  0
  -25.5997  -17.0866   17.4687 H   0  0  0  0  0  0
  -28.2093  -18.1151   20.9385 H   0  0  0  0  0  0
  -28.8073  -18.5005   22.5117 H   0  0  0  0  0  0
  -29.3074  -19.1628   18.7067 H   0  0  0  0  0  0
  -28.8596  -20.5803   17.8244 H   0  0  0  0  0  0
  -27.7404  -24.7149   21.7901 H   0  0  0  0  0  0
  -26.6589  -24.2410   20.5240 H   0  0  0  0  0  0
  -27.5946  -19.0433   16.1972 H   0  0  0  0  0  0
  -28.0166  -17.6564   17.1721 H   0  0  0  0  0  0
  -31.1490  -18.7172   21.3993 H   0  0  0  0  0  0
  -30.5006  -17.8615   20.0393 H   0  0  0  0  0  0
  -26.4465  -20.0986   18.1681 H   0  0  0  0  0  0
  -26.8392  -18.7046   19.1433 H   0  0  0  0  0  0
  -30.4224  -16.7740   22.9148 H   0  0  0  0  0  0
  -31.7901  -16.5510   21.8855 H   0  0  0  0  0  0
  -28.1634  -25.0772   18.7895 H   0  0  0  0  0  0
  -29.5198  -24.9988   19.8652 H   0  0  0  0  0  0
  -29.1865  -15.1838   21.7130 H   0  0  0  0  0  0
  1 25  1  0  0  0
  1 30  2  0  0  0
  1 86  1  0  0  0
  2  3  1  0  0  0
  2 25  1  0  0  0
  2 87  1  0  0  0
  2 88  1  0  0  0
  3  4  1  0  0  0
  3 89  1  0  0  0
  3 90  1  0  0  0
  4  5  1  0  0  0
  4 91  1  0  0  0
  4 92  1  0  0  0
  5  6  1  0  0  0
  5 26  1  0  0  0
  5 93  1  0  0  0
  6 25  1  0  0  0
  6 94  1  0  0  0
  6 95  1  0  0  0
  7  8  2  0  0  0
  7 26  1  0  0  0
  7 29  1  0  0  0
  8  9  1  0  0  0
  8 22  1  0  0  0
  9 10  1  0  0  0
  9 27  2  0  0  0
 10 11  2  0  0  0
 10 15  1  0  0  0
 11 12  1  0  0  0
 11 96  1  0  0  0
 12 13  2  0  0  0
 12 97  1  0  0  0
 13 14  1  0  0  0
 13 31  1  0  0  0
 14 15  2  0  0  0
 14 98  1  0  0  0
 15 99  1  0  0  0
 16 17  2  0  0  0
 16 21  1  0  0  0
 16 31  1  0  0  0
 17 18  1  0  0  0
 17100  1  0  0  0
 18 19  2  0  0  0
 18101  1  0  0  0
 19 20  1  0  0  0
 19 24  1  0  0  0
 20 21  2  0  0  0
 20102  1  0  0  0
 21 23  1  0  0  0
 22 28  1  0  0  0
 22 32  2  0  0  0
 26 27  1  0  0  0
 28103  1  0  0  0
 28104  1  0  0  0
 29105  1  0  0  0
 29106  1  0  0  0
 33 34  1  0  0  0
 33 66  1  0  0  0
 33 70  2  0  0  0
 34 36  1  0  0  0
 34 59  1  0  0  0
 34107  1  0  0  0
 35 44  2  0  0  0
 35 45  1  0  0  0
 35 68  1  0  0  0
 36 56  1  0  0  0
 36108  1  0  0  0
 37 39  1  0  0  0
 37 47  1  0  0  0
 37 66  1  0  0  0
 37109  1  0  0  0
 38 43  2  0  0  0
 38 46  1  0  0  0
 38 47  1  0  0  0
 39 64  1  0  0  0
 39 67  2  0  0  0
 40 52  1  0  0  0
 40 53  2  0  0  0
 40 58  1  0  0  0
 41110  1  0  0  0
 41111  1  0  0  0
 41112  1  0  0  0
 41 48  1  0  0  0
 42 43  1  0  0  0
 42 66  1  0  0  0
 42113  1  0  0  0
 42114  1  0  0  0
 43 44  1  0  0  0
 44115  1  0  0  0
 45 46  2  0  0  0
 45116  1  0  0  0
 46117  1  0  0  0
 47118  1  0  0  0
 47119  1  0  0  0
 48 56  1  0  0  0
 48 65  1  0  0  0
 48120  1  0  0  0
 49 50  1  0  0  0
 49 53  1  0  0  0
 49 64  1  0  0  0
 49121  1  0  0  0
 50 51  1  0  0  0
 50122  1  0  0  0
 50123  1  0  0  0
 51 52  1  0  0  0
 51124  1  0  0  0
 51125  1  0  0  0
 52126  1  0  0  0
 52127  1  0  0  0
 53 54  1  0  0  0
 54 55  2  0  0  0
 54128  1  0  0  0
 55 57  1  0  0  0
 55129  1  0  0  0
 56 69  2  0  0  0
 57 58  2  0  0  0
 57130  1  0  0  0
 58131  1  0  0  0
 59 60  1  0  0  0
 59 61  1  0  0  0
 59 62  1  0  0  0
 60132  1  0  0  0
 60133  1  0  0  0
 60134  1  0  0  0
 61135  1  0  0  0
 61136  1  0  0  0
 61137  1  0  0  0
 62138  1  0  0  0
 62139  1  0  0  0
 62140  1  0  0  0
 63 65  1  0  0  0
 63141  1  0  0  0
 63142  1  0  0  0
 63143  1  0  0  0
 64144  1  0  0  0
 65145  1  0  0  0
 68 83  1  0  0  0
 71 72  2  0  0  0
 71 84  1  0  0  0
 71146  1  0  0  0
 72 73  1  0  0  0
 72 76  1  0  0  0
 73 77  1  0  0  0
 73 85  2  0  0  0
 74 78  1  0  0  0
 74 84  2  0  0  0
 74 85  1  0  0  0
 75 79  1  0  0  0
 75147  1  0  0  0
 75148  1  0  0  0
 75149  1  0  0  0
 76 80  1  0  0  0
 76150  1  0  0  0
 76151  1  0  0  0
 77 81  1  0  0  0
 77152  1  0  0  0
 77153  1  0  0  0
 78 83  1  0  0  0
 78154  1  0  0  0
 78155  1  0  0  0
 79 81  1  0  0  0
 79156  1  0  0  0
 79157  1  0  0  0
 80 82  1  0  0  0
 80158  1  0  0  0
 80159  1  0  0  0
 81160  1  0  0  0
 81161  1  0  0  0
 82 86  1  0  0  0
 82162  1  0  0  0
 82163  1  0  0  0
 83164  1  0  0  0
 83165  1  0  0  0
 86166  1  0  0  0
M  ISO  4   1 100  68 101  83 101  86 100
M  END
> <chiral flag>
0

> <version>
0

> <s_m_source_file>
/data/baiqing/PycharmProjects/Reinvent-master-3.2/result/LINK_invent/BTK/process_docking_weight1_custom_sum_contain_oxygen_bond_distance_aromatic_linkinvent_7_9_3/rearranged_h_0040.sdf

> <i_m_source_file_index>
17

> <r_mmod_Potential_Energy-OPLS-2005>
-421.833831787109

> <r_mmod_Stretch_Energy-OPLS-2005>
44.690673828125

> <r_mmod_Bend_Energy-OPLS-2005>
124.038635253906

> <r_mmod_Torsional_Energy-OPLS-2005>
187.696685791016

> <r_mmod_Improper_Torsional_Energy-OPLS-2005>
2.91732549667358

> <r_mmod_Van_der_Waal_Energy-OPLS-2005>
145.272415161133

> <r_mmod_Electrostatic_Energy-OPLS-2005>
-715.974731445312

> <r_mmod_Solvation_Energy-OPLS-2005>
-225.849548339844

> <b_mmod_Minimization_Converged-OPLS-2005>
0

> <r_mmod_RMS_Derivative-OPLS-2005>
2.11499500274658

$$$$
17
                    3D
 Structure written by MMmdl.
166174  0  0  1  0            999 V2000
  -30.5961  -14.6823   20.5050 C   0  0  0  0  0  0
  -30.4405  -12.4242   19.4732 C   0  0  0  0  0  0
  -29.5136  -12.5322   18.2403 C   0  0  0  0  0  0
  -28.0355  -12.3707   18.6438 C   0  0  0  0  0  0
  -27.6548  -13.2297   19.8803 C   0  0  2  0  0  0
  -28.6971  -13.0819   21.0123 C   0  0  0  0  0  0
  -25.2526  -13.8178   20.5701 C   0  0  0  0  0  0
  -24.1806  -13.0413   20.9217 C   0  0  0  0  0  0
  -24.6391  -11.6903   20.8764 C   0  0  0  0  0  0
  -23.9068  -10.4288   21.0437 C   0  0  0  0  0  0
  -24.3622   -9.4208   21.9209 C   0  0  0  0  0  0
  -23.6303   -8.2231   22.0762 C   0  0  0  0  0  0
  -22.4277   -8.0282   21.3544 C   0  0  0  0  0  0
  -21.9927   -9.0260   20.4645 C   0  0  0  0  0  0
  -22.7252  -10.2144   20.3078 C   0  0  0  0  0  0
  -21.6858   -6.0749   22.5303 C   0  0  0  0  0  0
  -21.4003   -6.5656   23.8230 C   0  0  0  0  0  0
  -21.3653   -5.6800   24.9196 C   0  0  0  0  0  0
  -21.6044   -4.3067   24.7236 C   0  0  0  0  0  0
  -21.8812   -3.8164   23.4354 C   0  0  0  0  0  0
  -21.9197   -4.6980   22.3420 C   0  0  0  0  0  0
  -22.7826  -13.5212   21.1903 C   0  0  0  0  0  0
  -22.1664   -4.2167   21.0995 F   0  0  0  0  0  0
  -21.5640   -3.4544   25.7745 F   0  0  0  0  0  0
  -30.0109  -13.4406   20.4591 N   0  0  0  0  0  0
  -26.2991  -12.9391   20.3407 N   0  0  0  0  0  0
  -25.9332  -11.6528   20.5797 N   0  0  0  0  0  0
  -22.0492  -12.8176   22.0467 N   0  0  0  0  0  0
  -25.4156  -15.1898   20.4135 N   0  0  0  0  0  0
  -31.7337  -14.8615   20.0649 O   0  0  0  0  0  0
  -21.6626   -6.8887   21.4255 O   0  0  0  0  0  0
  -22.3533  -14.5549   20.6819 O   0  0  0  0  0  0
  -24.6281  -31.8584   23.2028 C   0  0  0  0  0  0
  -25.9088  -32.4775   23.8382 C   0  0  1  0  0  0
  -27.2070  -27.2725   20.1391 C   0  0  0  0  0  0
  -25.5858  -33.8578   24.2264 N   0  0  0  0  0  0
  -23.4249  -30.4812   21.5492 C   0  0  2  0  0  0
  -24.8685  -28.9322   20.1159 C   0  0  0  0  0  0
  -22.7471  -29.4639   22.4978 C   0  0  0  0  0  0
  -18.0270  -28.1395   22.8511 C   0  0  0  0  0  0
  -24.1478  -36.7307   23.2664 C   0  0  0  0  0  0
  -25.9713  -30.7782   21.3773 C   0  0  0  0  0  0
  -26.0425  -29.4012   20.7168 C   0  0  0  0  0  0
  -27.2197  -28.5872   20.7137 C   0  0  0  0  0  0
  -26.0173  -26.8771   19.4915 C   0  0  0  0  0  0
  -24.8595  -27.6760   19.4918 C   0  0  0  0  0  0
  -23.6394  -29.8181   20.1659 C   0  0  0  0  0  0
  -25.4101  -36.3086   24.0346 C   0  0  1  0  0  0
  -20.5869  -28.3713   23.1289 C   0  0  2  0  0  0
  -20.6742  -26.9437   22.5428 C   0  0  0  0  0  0
  -19.5712  -26.6394   21.5227 C   0  0  0  0  0  0
  -18.1896  -26.7936   22.1643 C   0  0  0  0  0  0
  -19.1530  -28.8874   23.2894 C   0  0  0  0  0  0
  -18.9443  -30.1458   23.8932 C   0  0  0  0  0  0
  -17.6454  -30.6620   24.0566 C   0  0  0  0  0  0
  -25.9045  -34.9450   23.5128 C   0  0  0  0  0  0
  -16.5336  -29.9112   23.6350 C   0  0  0  0  0  0
  -16.7255  -28.6507   23.0406 C   0  0  0  0  0  0
  -26.4428  -31.6620   25.0780 C   0  0  0  0  0  0
  -25.3642  -31.3786   26.1509 C   0  0  0  0  0  0
  -27.0297  -30.3030   24.6307 C   0  0  0  0  0  0
  -27.5974  -32.4406   25.7534 C   0  0  0  0  0  0
  -27.5584  -37.1792   24.8469 C   0  0  0  0  0  0
  -21.4194  -29.3047   22.3684 N   0  0  0  0  0  0
  -26.4278  -37.3769   23.9436 N   0  0  0  0  0  0
  -24.6943  -31.0566   22.0995 N   0  0  0  0  0  0
  -23.4172  -28.8204   23.3096 O   0  0  0  0  0  0
  -28.2848  -26.3631   20.1825 O   0  0  0  0  0  0
  -26.5674  -34.8914   22.4726 O   0  0  0  0  0  0
  -23.5422  -32.1413   23.7305 O   0  0  0  0  0  0
  -29.4095  -21.0925   20.6076 C   0  0  0  0  0  0
  -28.9285  -19.7501   20.8161 C   0  0  0  0  0  0
  -28.4798  -22.1859   20.4676 C   0  0  0  0  0  0
  -26.7933  -20.6209   20.7290 C   0  0  0  0  0  0
  -21.5457  -18.7158   23.8954 C   0  0  0  0  0  0
  -29.7735  -18.4494   21.1671 C   0  0  0  0  0  0
  -28.8661  -23.6838   20.0777 C   0  0  0  0  0  0
  -25.3085  -20.3210   20.8447 C   0  0  0  0  0  0
  -23.0377  -19.0386   23.7692 C   0  0  0  0  0  0
  -24.8489  -20.1034   22.3010 C   0  0  0  0  0  0
  -23.3781  -19.6792   22.4122 C   0  0  0  0  0  0
  -29.6778  -17.1360   20.2479 C   0  0  0  0  0  0
  -27.9956  -24.9416   20.5966 C   0  0  0  0  0  0
  -27.5980  -19.5717   20.8800 N   0  0  0  0  0  0
  -27.1619  -21.8898   20.5223 N   0  0  0  0  0  0
  -29.7848  -15.7382   20.8503 N   0  0  0  0  0  0
  -31.4832  -12.5531   19.1745 H   0  0  0  0  0  0
  -30.3809  -11.4280   19.9119 H   0  0  0  0  0  0
  -29.7779  -11.7783   17.4981 H   0  0  0  0  0  0
  -29.6533  -13.5014   17.7562 H   0  0  0  0  0  0
  -27.8683  -11.3155   18.8652 H   0  0  0  0  0  0
  -27.3820  -12.6117   17.8066 H   0  0  0  0  0  0
  -27.6698  -14.2675   19.5490 H   0  0  0  0  0  0
  -28.7109  -12.0582   21.3869 H   0  0  0  0  0  0
  -28.4376  -13.7046   21.8702 H   0  0  0  0  0  0
  -25.2764   -9.5689   22.4775 H   0  0  0  0  0  0
  -24.0024   -7.4620   22.7471 H   0  0  0  0  0  0
  -21.0856   -8.8775   19.8941 H   0  0  0  0  0  0
  -22.3715  -10.9681   19.6184 H   0  0  0  0  0  0
  -21.1969   -7.6159   23.9742 H   0  0  0  0  0  0
  -21.1483   -6.0531   25.9094 H   0  0  0  0  0  0
  -22.0592   -2.7626   23.2853 H   0  0  0  0  0  0
  -22.4106  -11.9789   22.4764 H   0  0  0  0  0  0
  -21.1153  -13.1225   22.2767 H   0  0  0  0  0  0
  -24.6329  -15.8279   20.5011 H   0  0  0  0  0  0
  -26.2612  -15.6418   20.0875 H   0  0  0  0  0  0
  -26.7179  -32.5414   23.1157 H   0  0  0  0  0  0
  -24.9767  -33.9709   25.0247 H   0  0  0  0  0  0
  -22.7223  -31.3042   21.4094 H   0  0  0  0  0  0
  -23.3720  -35.9651   23.3291 H   0  0  0  0  0  0
  -24.3598  -36.8976   22.2094 H   0  0  0  0  0  0
  -23.7223  -37.6486   23.6724 H   0  0  0  0  0  0
  -26.1052  -31.5404   20.6070 H   0  0  0  0  0  0
  -26.8481  -30.8305   22.0126 H   0  0  0  0  0  0
  -28.1212  -28.9489   21.1894 H   0  0  0  0  0  0
  -25.9559  -25.9223   18.9911 H   0  0  0  0  0  0
  -23.9572  -27.3087   19.0229 H   0  0  0  0  0  0
  -23.7612  -30.5952   19.4119 H   0  0  0  0  0  0
  -22.7565  -29.2514   19.8651 H   0  0  0  0  0  0
  -25.1270  -36.1935   25.0830 H   0  0  0  0  0  0
  -20.9949  -28.3282   24.1413 H   0  0  0  0  0  0
  -20.5627  -26.2339   23.3644 H   0  0  0  0  0  0
  -21.6616  -26.7471   22.1233 H   0  0  0  0  0  0
  -19.6881  -25.6301   21.1274 H   0  0  0  0  0  0
  -19.6621  -27.3190   20.6741 H   0  0  0  0  0  0
  -17.4162  -26.6701   21.4047 H   0  0  0  0  0  0
  -18.0286  -26.0081   22.9039 H   0  0  0  0  0  0
  -19.7924  -30.7257   24.2327 H   0  0  0  0  0  0
  -17.5020  -31.6312   24.5154 H   0  0  0  0  0  0
  -15.5348  -30.3035   23.7666 H   0  0  0  0  0  0
  -15.8640  -28.0824   22.7171 H   0  0  0  0  0  0
  -24.5774  -30.7198   25.7821 H   0  0  0  0  0  0
  -24.8864  -32.2960   26.4954 H   0  0  0  0  0  0
  -25.7921  -30.8925   27.0287 H   0  0  0  0  0  0
  -26.2922  -29.6769   24.1261 H   0  0  0  0  0  0
  -27.3880  -29.7307   25.4876 H   0  0  0  0  0  0
  -27.8830  -30.4291   23.9642 H   0  0  0  0  0  0
  -27.2552  -33.3718   26.2063 H   0  0  0  0  0  0
  -28.3745  -32.6964   25.0322 H   0  0  0  0  0  0
  -28.0671  -31.8588   26.5467 H   0  0  0  0  0  0
  -28.2554  -38.0130   24.7567 H   0  0  0  0  0  0
  -28.1135  -36.2676   24.6218 H   0  0  0  0  0  0
  -27.2368  -37.1351   25.8886 H   0  0  0  0  0  0
  -20.9394  -29.8763   21.6870 H   0  0  0  0  0  0
  -26.0163  -38.2842   24.1418 H   0  0  0  0  0  0
  -30.4737  -21.2820   20.5552 H   0  0  0  0  0  0
  -21.3400  -18.1776   24.8220 H   0  0  0  0  0  0
  -21.2093  -18.0916   23.0652 H   0  0  0  0  0  0
  -20.9451  -19.6268   23.8942 H   0  0  0  0  0  0
  -29.4927  -18.1691   22.1818 H   0  0  0  0  0  0
  -30.8197  -18.7424   21.2375 H   0  0  0  0  0  0
  -28.8845  -23.7172   18.9901 H   0  0  0  0  0  0
  -29.9013  -23.8337   20.3843 H   0  0  0  0  0  0
  -25.1095  -19.4292   20.2498 H   0  0  0  0  0  0
  -24.7363  -21.1259   20.3828 H   0  0  0  0  0  0
  -23.6041  -18.1129   23.8925 H   0  0  0  0  0  0
  -23.3403  -19.6946   24.5884 H   0  0  0  0  0  0
  -25.0165  -21.0112   22.8796 H   0  0  0  0  0  0
  -25.4727  -19.3334   22.7544 H   0  0  0  0  0  0
  -22.7436  -20.5486   22.2331 H   0  0  0  0  0  0
  -23.1439  -18.9665   21.6201 H   0  0  0  0  0  0
  -30.3619  -17.2376   19.4063 H   0  0  0  0  0  0
  -28.6835  -17.1539   19.7999 H   0  0  0  0  0  0
  -28.0493  -24.9401   21.6850 H   0  0  0  0  0  0
  -26.9603  -24.6838   20.3814 H   0  0  0  0  0  0
  -28.9461  -15.4348   21.3232 H   0  0  0  0  0  0
  1 25  1  0  0  0
  1 30  2  0  0  0
  1 86  1  0  0  0
  2  3  1  0  0  0
  2 25  1  0  0  0
  2 87  1  0  0  0
  2 88  1  0  0  0
  3  4  1  0  0  0
  3 89  1  0  0  0
  3 90  1  0  0  0
  4  5  1  0  0  0
  4 91  1  0  0  0
  4 92  1  0  0  0
  5  6  1  0  0  0
  5 26  1  0  0  0
  5 93  1  0  0  0
  6 25  1  0  0  0
  6 94  1  0  0  0
  6 95  1  0  0  0
  7  8  2  0  0  0
  7 26  1  0  0  0
  7 29  1  0  0  0
  8  9  1  0  0  0
  8 22  1  0  0  0
  9 10  1  0  0  0
  9 27  2  0  0  0
 10 11  2  0  0  0
 10 15  1  0  0  0
 11 12  1  0  0  0
 11 96  1  0  0  0
 12 13  2  0  0  0
 12 97  1  0  0  0
 13 14  1  0  0  0
 13 31  1  0  0  0
 14 15  2  0  0  0
 14 98  1  0  0  0
 15 99  1  0  0  0
 16 17  2  0  0  0
 16 21  1  0  0  0
 16 31  1  0  0  0
 17 18  1  0  0  0
 17100  1  0  0  0
 18 19  2  0  0  0
 18101  1  0  0  0
 19 20  1  0  0  0
 19 24  1  0  0  0
 20 21  2  0  0  0
 20102  1  0  0  0
 21 23  1  0  0  0
 22 28  1  0  0  0
 22 32  2  0  0  0
 26 27  1  0  0  0
 28103  1  0  0  0
 28104  1  0  0  0
 29105  1  0  0  0
 29106  1  0  0  0
 33 34  1  0  0  0
 33 66  1  0  0  0
 33 70  2  0  0  0
 34 36  1  0  0  0
 34 59  1  0  0  0
 34107  1  0  0  0
 35 44  2  0  0  0
 35 45  1  0  0  0
 35 68  1  0  0  0
 36 56  1  0  0  0
 36108  1  0  0  0
 37 39  1  0  0  0
 37 47  1  0  0  0
 37 66  1  0  0  0
 37109  1  0  0  0
 38 43  2  0  0  0
 38 46  1  0  0  0
 38 47  1  0  0  0
 39 64  1  0  0  0
 39 67  2  0  0  0
 40 52  1  0  0  0
 40 53  2  0  0  0
 40 58  1  0  0  0
 41110  1  0  0  0
 41111  1  0  0  0
 41112  1  0  0  0
 41 48  1  0  0  0
 42 43  1  0  0  0
 42 66  1  0  0  0
 42113  1  0  0  0
 42114  1  0  0  0
 43 44  1  0  0  0
 44115  1  0  0  0
 45 46  2  0  0  0
 45116  1  0  0  0
 46117  1  0  0  0
 47118  1  0  0  0
 47119  1  0  0  0
 48 56  1  0  0  0
 48 65  1  0  0  0
 48120  1  0  0  0
 49 50  1  0  0  0
 49 53  1  0  0  0
 49 64  1  0  0  0
 49121  1  0  0  0
 50 51  1  0  0  0
 50122  1  0  0  0
 50123  1  0  0  0
 51 52  1  0  0  0
 51124  1  0  0  0
 51125  1  0  0  0
 52126  1  0  0  0
 52127  1  0  0  0
 53 54  1  0  0  0
 54 55  2  0  0  0
 54128  1  0  0  0
 55 57  1  0  0  0
 55129  1  0  0  0
 56 69  2  0  0  0
 57 58  2  0  0  0
 57130  1  0  0  0
 58131  1  0  0  0
 59 60  1  0  0  0
 59 61  1  0  0  0
 59 62  1  0  0  0
 60132  1  0  0  0
 60133  1  0  0  0
 60134  1  0  0  0
 61135  1  0  0  0
 61136  1  0  0  0
 61137  1  0  0  0
 62138  1  0  0  0
 62139  1  0  0  0
 62140  1  0  0  0
 63 65  1  0  0  0
 63141  1  0  0  0
 63142  1  0  0  0
 63143  1  0  0  0
 64144  1  0  0  0
 65145  1  0  0  0
 68 83  1  0  0  0
 71 72  2  0  0  0
 71 73  1  0  0  0
 71146  1  0  0  0
 72 76  1  0  0  0
 72 84  1  0  0  0
 73 77  1  0  0  0
 73 85  2  0  0  0
 74 78  1  0  0  0
 74 84  2  0  0  0
 74 85  1  0  0  0
 75 79  1  0  0  0
 75147  1  0  0  0
 75148  1  0  0  0
 75149  1  0  0  0
 76 82  1  0  0  0
 76150  1  0  0  0
 76151  1  0  0  0
 77 83  1  0  0  0
 77152  1  0  0  0
 77153  1  0  0  0
 78 80  1  0  0  0
 78154  1  0  0  0
 78155  1  0  0  0
 79 81  1  0  0  0
 79156  1  0  0  0
 79157  1  0  0  0
 80 81  1  0  0  0
 80158  1  0  0  0
 80159  1  0  0  0
 81160  1  0  0  0
 81161  1  0  0  0
 82 86  1  0  0  0
 82162  1  0  0  0
 82163  1  0  0  0
 83164  1  0  0  0
 83165  1  0  0  0
 86166  1  0  0  0
M  ISO  4   1 100  68 101  83 101  86 100
M  END
> <chiral flag>
0

> <version>
0

> <s_m_source_file>
/data/baiqing/PycharmProjects/Reinvent-master-3.2/result/LINK_invent/BTK/process_docking_weight1_custom_sum_contain_oxygen_bond_distance_aromatic_linkinvent_7_9_3/rearranged_h_0040.sdf

> <i_m_source_file_index>
18

> <r_mmod_Potential_Energy-OPLS-2005>
-235.198913574219

> <r_mmod_Stretch_Energy-OPLS-2005>
106.608421325684

> <r_mmod_Bend_Energy-OPLS-2005>
160.339492797852

> <r_mmod_Torsional_Energy-OPLS-2005>
222.018997192383

> <r_mmod_Improper_Torsional_Energy-OPLS-2005>
7.83757781982422

> <r_mmod_Van_der_Waal_Energy-OPLS-2005>
141.037612915039

> <r_mmod_Electrostatic_Energy-OPLS-2005>
-717.132629394531

> <r_mmod_Solvation_Energy-OPLS-2005>
-225.479293823242

> <b_mmod_Minimization_Converged-OPLS-2005>
0

> <r_mmod_RMS_Derivative-OPLS-2005>
4.66241979598999

$$$$
18
                    3D
 Structure written by MMmdl.
163171  0  0  1  0            999 V2000
  -30.7146  -14.4163   20.5996 C   0  0  0  0  0  0
  -30.4176  -12.2823   19.4076 C   0  0  0  0  0  0
  -29.4908  -12.5176   18.1981 C   0  0  0  0  0  0
  -28.0097  -12.3878   18.6076 C   0  0  0  0  0  0
  -27.6658  -13.2047   19.8826 C   0  0  2  0  0  0
  -28.7069  -12.9421   20.9929 C   0  0  0  0  0  0
  -25.2603  -13.8160   20.5680 C   0  0  0  0  0  0
  -24.1845  -13.0441   20.9156 C   0  0  0  0  0  0
  -24.6396  -11.6905   20.8716 C   0  0  0  0  0  0
  -23.9059  -10.4291   21.0392 C   0  0  0  0  0  0
  -24.3612   -9.4210   21.9174 C   0  0  0  0  0  0
  -23.6288   -8.2245   22.0752 C   0  0  0  0  0  0
  -22.4272   -8.0279   21.3544 C   0  0  0  0  0  0
  -21.9903   -9.0253   20.4641 C   0  0  0  0  0  0
  -22.7231  -10.2129   20.3044 C   0  0  0  0  0  0
  -21.6849   -6.0728   22.5277 C   0  0  0  0  0  0
  -21.4014   -6.5631   23.8211 C   0  0  0  0  0  0
  -21.3663   -5.6784   24.9172 C   0  0  0  0  0  0
  -21.6046   -4.3048   24.7223 C   0  0  0  0  0  0
  -21.8822   -3.8138   23.4343 C   0  0  0  0  0  0
  -21.9195   -4.6955   22.3401 C   0  0  0  0  0  0
  -22.7866  -13.5243   21.1821 C   0  0  0  0  0  0
  -22.1660   -4.2138   21.0979 F   0  0  0  0  0  0
  -21.5635   -3.4534   25.7738 F   0  0  0  0  0  0
  -30.0375  -13.2479   20.4487 N   0  0  0  0  0  0
  -26.3046  -12.9325   20.3395 N   0  0  0  0  0  0
  -25.9323  -11.6483   20.5753 N   0  0  0  0  0  0
  -22.0502  -12.8240   22.0378 N   0  0  0  0  0  0
  -25.4340  -15.1877   20.4107 N   0  0  0  0  0  0
  -31.8318  -14.5863   20.1008 O   0  0  0  0  0  0
  -21.6643   -6.8870   21.4237 O   0  0  0  0  0  0
  -22.3552  -14.5550   20.6673 O   0  0  0  0  0  0
  -24.6098  -31.8701   23.2123 C   0  0  0  0  0  0
  -25.9005  -32.4841   23.8403 C   0  0  1  0  0  0
  -27.2419  -27.4737   20.0984 C   0  0  0  0  0  0
  -25.5876  -33.8636   24.2344 N   0  0  0  0  0  0
  -23.3971  -30.4934   21.5504 C   0  0  2  0  0  0
  -24.8470  -28.9657   20.1128 C   0  0  0  0  0  0
  -22.7393  -29.4667   22.4992 C   0  0  0  0  0  0
  -18.0271  -28.1384   22.8503 C   0  0  0  0  0  0
  -24.1487  -36.7317   23.2639 C   0  0  0  0  0  0
  -25.9197  -30.8502   21.3591 C   0  0  0  0  0  0
  -26.0011  -29.4856   20.7131 C   0  0  0  0  0  0
  -27.2011  -28.7467   20.7112 C   0  0  0  0  0  0
  -26.0802  -26.9669   19.4833 C   0  0  0  0  0  0
  -24.8796  -27.7018   19.4958 C   0  0  0  0  0  0
  -23.6050  -29.8243   20.1642 C   0  0  0  0  0  0
  -25.4107  -36.3122   24.0345 C   0  0  1  0  0  0
  -20.5863  -28.3652   23.1336 C   0  0  2  0  0  0
  -20.6766  -26.9397   22.5418 C   0  0  0  0  0  0
  -19.5743  -26.6391   21.5217 C   0  0  0  0  0  0
  -18.1919  -26.7937   22.1624 C   0  0  0  0  0  0
  -19.1525  -28.8835   23.2921 C   0  0  0  0  0  0
  -18.9451  -30.1446   23.8924 C   0  0  0  0  0  0
  -17.6455  -30.6587   24.0578 C   0  0  0  0  0  0
  -25.9020  -34.9489   23.5140 C   0  0  0  0  0  0
  -16.5344  -29.9098   23.6332 C   0  0  0  0  0  0
  -16.7264  -28.6519   23.0348 C   0  0  0  0  0  0
  -26.4457  -31.6610   25.0712 C   0  0  0  0  0  0
  -25.3744  -31.3713   26.1475 C   0  0  0  0  0  0
  -27.0279  -30.3063   24.6036 C   0  0  0  0  0  0
  -27.6032  -32.4326   25.7474 C   0  0  0  0  0  0
  -27.5585  -37.1818   24.8470 C   0  0  0  0  0  0
  -21.4125  -29.3026   22.3741 N   0  0  0  0  0  0
  -26.4305  -37.3797   23.9407 N   0  0  0  0  0  0
  -24.6603  -31.0847   22.1000 N   0  0  0  0  0  0
  -23.4188  -28.8211   23.3015 O   0  0  0  0  0  0
  -28.3686  -26.6894   20.0671 O   0  0  0  0  0  0
  -26.5579  -34.8936   22.4699 O   0  0  0  0  0  0
  -23.5300  -32.1429   23.7543 O   0  0  0  0  0  0
  -29.9063  -24.2613   20.5045 C   0  0  0  0  0  0
  -29.8738  -25.3571   21.4121 C   0  0  0  0  0  0
  -30.6598  -23.3083   21.1296 C   0  0  0  0  0  0
  -29.2473  -16.8883   19.2227 C   0  0  0  0  0  0
  -31.8403  -23.2442   23.3980 C   0  0  0  0  0  0
  -29.1682  -26.6810   21.2492 C   0  0  0  0  0  0
  -31.0619  -21.9461   20.6565 C   0  0  0  0  0  0
  -30.0664  -15.6342   21.2961 C   0  0  0  0  0  0
  -30.3137  -20.7822   21.3313 C   0  0  0  0  0  0
  -30.6306  -19.4450   20.6434 C   0  0  0  0  0  0
  -29.9539  -18.2165   21.2824 C   0  0  0  0  0  0
  -30.1837  -16.9340   20.4504 C   0  0  2  0  0  0
  -30.5553  -25.0925   22.5201 N   0  0  0  0  0  0
  -31.0377  -23.8416   22.3479 N   0  0  0  0  0  0
  -31.4630  -12.3712   19.1069 H   0  0  0  0  0  0
  -30.3065  -11.2635   19.7823 H   0  0  0  0  0  0
  -29.7227  -11.8077   17.4031 H   0  0  0  0  0  0
  -29.6709  -13.5111   17.7828 H   0  0  0  0  0  0
  -27.8044  -11.3303   18.7776 H   0  0  0  0  0  0
  -27.3639  -12.6913   17.7831 H   0  0  0  0  0  0
  -27.7216  -14.2594   19.6140 H   0  0  0  0  0  0
  -28.6738  -11.8930   21.2894 H   0  0  0  0  0  0
  -28.4771  -13.4911   21.9045 H   0  0  0  0  0  0
  -25.2761   -9.5688   22.4740 H   0  0  0  0  0  0
  -23.9997   -7.4640   22.7480 H   0  0  0  0  0  0
  -21.0830   -8.8771   19.8948 H   0  0  0  0  0  0
  -22.3696  -10.9665   19.6146 H   0  0  0  0  0  0
  -21.2002   -7.6140   23.9708 H   0  0  0  0  0  0
  -21.1481   -6.0515   25.9075 H   0  0  0  0  0  0
  -22.0599   -2.7599   23.2847 H   0  0  0  0  0  0
  -22.4109  -11.9900   22.4767 H   0  0  0  0  0  0
  -21.1118  -13.1267   22.2571 H   0  0  0  0  0  0
  -24.6729  -15.8476   20.5266 H   0  0  0  0  0  0
  -26.2999  -15.6254   20.1226 H   0  0  0  0  0  0
  -26.7083  -32.5578   23.1181 H   0  0  0  0  0  0
  -25.0058  -33.9806   25.0509 H   0  0  0  0  0  0
  -22.6840  -31.3083   21.4116 H   0  0  0  0  0  0
  -23.3743  -35.9656   23.3323 H   0  0  0  0  0  0
  -24.3581  -36.8892   22.2048 H   0  0  0  0  0  0
  -23.7251  -37.6538   23.6630 H   0  0  0  0  0  0
  -26.0217  -31.6147   20.5880 H   0  0  0  0  0  0
  -26.8117  -30.9104   21.9714 H   0  0  0  0  0  0
  -28.0876  -29.1616   21.1710 H   0  0  0  0  0  0
  -26.1043  -25.9959   19.0076 H   0  0  0  0  0  0
  -23.9938  -27.2969   19.0262 H   0  0  0  0  0  0
  -23.7059  -30.5984   19.4024 H   0  0  0  0  0  0
  -22.7318  -29.2375   19.8724 H   0  0  0  0  0  0
  -25.1288  -36.1993   25.0840 H   0  0  0  0  0  0
  -20.9963  -28.3208   24.1452 H   0  0  0  0  0  0
  -20.5683  -26.2250   23.3589 H   0  0  0  0  0  0
  -21.6632  -26.7454   22.1193 H   0  0  0  0  0  0
  -19.6901  -25.6311   21.1219 H   0  0  0  0  0  0
  -19.6696  -27.3228   20.6770 H   0  0  0  0  0  0
  -17.4195  -26.6704   21.4019 H   0  0  0  0  0  0
  -18.0314  -26.0076   22.9013 H   0  0  0  0  0  0
  -19.7931  -30.7265   24.2291 H   0  0  0  0  0  0
  -17.5014  -31.6272   24.5172 H   0  0  0  0  0  0
  -15.5350  -30.3011   23.7649 H   0  0  0  0  0  0
  -15.8662  -28.0854   22.7033 H   0  0  0  0  0  0
  -24.5900  -30.7075   25.7821 H   0  0  0  0  0  0
  -24.8955  -32.2871   26.4944 H   0  0  0  0  0  0
  -25.8101  -30.8870   27.0217 H   0  0  0  0  0  0
  -26.2805  -29.6842   24.1093 H   0  0  0  0  0  0
  -27.4082  -29.7274   25.4457 H   0  0  0  0  0  0
  -27.8621  -30.4400   23.9149 H   0  0  0  0  0  0
  -27.2635  -33.3601   26.2093 H   0  0  0  0  0  0
  -28.3821  -32.6919   25.0295 H   0  0  0  0  0  0
  -28.0724  -31.8430   26.5360 H   0  0  0  0  0  0
  -28.2612  -38.0107   24.7497 H   0  0  0  0  0  0
  -28.1068  -36.2632   24.6315 H   0  0  0  0  0  0
  -27.2296  -37.1485   25.8873 H   0  0  0  0  0  0
  -20.9269  -29.8753   21.6982 H   0  0  0  0  0  0
  -26.0195  -38.2878   24.1397 H   0  0  0  0  0  0
  -29.4401  -24.1935   19.5315 H   0  0  0  0  0  0
  -29.4428  -16.0167   18.5981 H   0  0  0  0  0  0
  -29.3694  -17.7625   18.5839 H   0  0  0  0  0  0
  -28.1998  -16.8477   19.5223 H   0  0  0  0  0  0
  -32.6815  -22.7034   22.9652 H   0  0  0  0  0  0
  -31.2305  -22.5498   23.9755 H   0  0  0  0  0  0
  -32.2282  -24.0126   24.0681 H   0  0  0  0  0  0
  -29.8949  -27.4929   21.1951 H   0  0  0  0  0  0
  -28.5527  -26.8634   22.1329 H   0  0  0  0  0  0
  -32.1366  -21.8176   20.7907 H   0  0  0  0  0  0
  -30.8967  -21.8964   19.5798 H   0  0  0  0  0  0
  -29.0181  -15.4846   21.5409 H   0  0  0  0  0  0
  -30.5841  -15.7564   22.2473 H   0  0  0  0  0  0
  -29.2392  -20.9632   21.2837 H   0  0  0  0  0  0
  -30.5743  -20.7354   22.3891 H   0  0  0  0  0  0
  -31.7118  -19.2921   20.6401 H   0  0  0  0  0  0
  -30.3372  -19.5221   19.5967 H   0  0  0  0  0  0
  -28.8845  -18.3913   21.4118 H   0  0  0  0  0  0
  -30.3611  -18.0892   22.2868 H   0  0  0  0  0  0
  -31.2071  -16.9957   20.0765 H   0  0  0  0  0  0
  1 25  1  0  0  0
  1 30  2  0  0  0
  1 78  1  0  0  0
  2  3  1  0  0  0
  2 25  1  0  0  0
  2 85  1  0  0  0
  2 86  1  0  0  0
  3  4  1  0  0  0
  3 87  1  0  0  0
  3 88  1  0  0  0
  4  5  1  0  0  0
  4 89  1  0  0  0
  4 90  1  0  0  0
  5  6  1  0  0  0
  5 26  1  0  0  0
  5 91  1  0  0  0
  6 25  1  0  0  0
  6 92  1  0  0  0
  6 93  1  0  0  0
  7  8  2  0  0  0
  7 26  1  0  0  0
  7 29  1  0  0  0
  8  9  1  0  0  0
  8 22  1  0  0  0
  9 10  1  0  0  0
  9 27  2  0  0  0
 10 11  2  0  0  0
 10 15  1  0  0  0
 11 12  1  0  0  0
 11 94  1  0  0  0
 12 13  2  0  0  0
 12 95  1  0  0  0
 13 14  1  0  0  0
 13 31  1  0  0  0
 14 15  2  0  0  0
 14 96  1  0  0  0
 15 97  1  0  0  0
 16 17  2  0  0  0
 16 21  1  0  0  0
 16 31  1  0  0  0
 17 18  1  0  0  0
 17 98  1  0  0  0
 18 19  2  0  0  0
 18 99  1  0  0  0
 19 20  1  0  0  0
 19 24  1  0  0  0
 20 21  2  0  0  0
 20100  1  0  0  0
 21 23  1  0  0  0
 22 28  1  0  0  0
 22 32  2  0  0  0
 26 27  1  0  0  0
 28101  1  0  0  0
 28102  1  0  0  0
 29103  1  0  0  0
 29104  1  0  0  0
 33 34  1  0  0  0
 33 66  1  0  0  0
 33 70  2  0  0  0
 34 36  1  0  0  0
 34 59  1  0  0  0
 34105  1  0  0  0
 35 44  2  0  0  0
 35 45  1  0  0  0
 35 68  1  0  0  0
 36 56  1  0  0  0
 36106  1  0  0  0
 37 39  1  0  0  0
 37 47  1  0  0  0
 37 66  1  0  0  0
 37107  1  0  0  0
 38 43  2  0  0  0
 38 46  1  0  0  0
 38 47  1  0  0  0
 39 64  1  0  0  0
 39 67  2  0  0  0
 40 52  1  0  0  0
 40 53  2  0  0  0
 40 58  1  0  0  0
 41108  1  0  0  0
 41109  1  0  0  0
 41110  1  0  0  0
 41 48  1  0  0  0
 42 43  1  0  0  0
 42 66  1  0  0  0
 42111  1  0  0  0
 42112  1  0  0  0
 43 44  1  0  0  0
 44113  1  0  0  0
 45 46  2  0  0  0
 45114  1  0  0  0
 46115  1  0  0  0
 47116  1  0  0  0
 47117  1  0  0  0
 48 56  1  0  0  0
 48 65  1  0  0  0
 48118  1  0  0  0
 49 50  1  0  0  0
 49 53  1  0  0  0
 49 64  1  0  0  0
 49119  1  0  0  0
 50 51  1  0  0  0
 50120  1  0  0  0
 50121  1  0  0  0
 51 52  1  0  0  0
 51122  1  0  0  0
 51123  1  0  0  0
 52124  1  0  0  0
 52125  1  0  0  0
 53 54  1  0  0  0
 54 55  2  0  0  0
 54126  1  0  0  0
 55 57  1  0  0  0
 55127  1  0  0  0
 56 69  2  0  0  0
 57 58  2  0  0  0
 57128  1  0  0  0
 58129  1  0  0  0
 59 60  1  0  0  0
 59 61  1  0  0  0
 59 62  1  0  0  0
 60130  1  0  0  0
 60131  1  0  0  0
 60132  1  0  0  0
 61133  1  0  0  0
 61134  1  0  0  0
 61135  1  0  0  0
 62136  1  0  0  0
 62137  1  0  0  0
 62138  1  0  0  0
 63 65  1  0  0  0
 63139  1  0  0  0
 63140  1  0  0  0
 63141  1  0  0  0
 64142  1  0  0  0
 65143  1  0  0  0
 68 76  1  0  0  0
 71 72  1  0  0  0
 71 73  2  0  0  0
 71144  1  0  0  0
 72 76  1  0  0  0
 72 83  2  0  0  0
 73 77  1  0  0  0
 73 84  1  0  0  0
 74145  1  0  0  0
 74146  1  0  0  0
 74147  1  0  0  0
 74 82  1  0  0  0
 75 84  1  0  0  0
 75148  1  0  0  0
 75149  1  0  0  0
 75150  1  0  0  0
 76151  1  0  0  0
 76152  1  0  0  0
 77 79  1  0  0  0
 77153  1  0  0  0
 77154  1  0  0  0
 78 82  1  0  0  0
 78155  1  0  0  0
 78156  1  0  0  0
 79 80  1  0  0  0
 79157  1  0  0  0
 79158  1  0  0  0
 80 81  1  0  0  0
 80159  1  0  0  0
 80160  1  0  0  0
 81 82  1  0  0  0
 81161  1  0  0  0
 81162  1  0  0  0
 82163  1  0  0  0
 83 84  1  0  0  0
M  ISO  4   1 100  68 101  76 101  78 100
M  END
> <chiral flag>
0

> <version>
0

> <s_m_source_file>
/data/baiqing/PycharmProjects/Reinvent-master-3.2/result/LINK_invent/BTK/process_docking_weight1_custom_sum_contain_oxygen_bond_distance_aromatic_linkinvent_7_9_3/rearranged_h_0040.sdf

> <i_m_source_file_index>
19

> <r_mmod_Potential_Energy-OPLS-2005>
-44.642204284668

> <r_mmod_Stretch_Energy-OPLS-2005>
31.3672332763672

> <r_mmod_Bend_Energy-OPLS-2005>
92.555793762207

> <r_mmod_Torsional_Energy-OPLS-2005>
187.116256713867

> <r_mmod_Improper_Torsional_Energy-OPLS-2005>
2.56597518920898

> <r_mmod_Van_der_Waal_Energy-OPLS-2005>
127.406562805176

> <r_mmod_Electrostatic_Energy-OPLS-2005>
-296.313079833984

> <r_mmod_Solvation_Energy-OPLS-2005>
-198.010589599609

> <b_mmod_Minimization_Converged-OPLS-2005>
0

> <r_mmod_RMS_Derivative-OPLS-2005>
1.28964567184448

$$$$
19
                    3D
 Structure written by MMmdl.
163171  0  0  1  0            999 V2000
  -30.7486  -14.3845   20.6243 C   0  0  0  0  0  0
  -30.4155  -12.2737   19.3981 C   0  0  0  0  0  0
  -29.4821  -12.5076   18.1949 C   0  0  0  0  0  0
  -28.0069  -12.3754   18.6151 C   0  0  0  0  0  0
  -27.6698  -13.2005   19.8851 C   0  0  2  0  0  0
  -28.7105  -12.9416   20.9981 C   0  0  0  0  0  0
  -25.2627  -13.8147   20.5696 C   0  0  0  0  0  0
  -24.1869  -13.0434   20.9195 C   0  0  0  0  0  0
  -24.6401  -11.6897   20.8745 C   0  0  0  0  0  0
  -23.9057  -10.4292   21.0403 C   0  0  0  0  0  0
  -24.3613   -9.4213   21.9184 C   0  0  0  0  0  0
  -23.6302   -8.2236   22.0746 C   0  0  0  0  0  0
  -22.4283   -8.0274   21.3533 C   0  0  0  0  0  0
  -21.9907   -9.0246   20.4637 C   0  0  0  0  0  0
  -22.7230  -10.2130   20.3054 C   0  0  0  0  0  0
  -21.6856   -6.0752   22.5298 C   0  0  0  0  0  0
  -21.4007   -6.5656   23.8228 C   0  0  0  0  0  0
  -21.3651   -5.6801   24.9188 C   0  0  0  0  0  0
  -21.6049   -4.3066   24.7235 C   0  0  0  0  0  0
  -21.8818   -3.8163   23.4356 C   0  0  0  0  0  0
  -21.9192   -4.6979   22.3410 C   0  0  0  0  0  0
  -22.7893  -13.5234   21.1867 C   0  0  0  0  0  0
  -22.1662   -4.2170   21.0989 F   0  0  0  0  0  0
  -21.5627   -3.4550   25.7744 F   0  0  0  0  0  0
  -30.0506  -13.2327   20.4536 N   0  0  0  0  0  0
  -26.3078  -12.9310   20.3436 N   0  0  0  0  0  0
  -25.9331  -11.6471   20.5786 N   0  0  0  0  0  0
  -22.0513  -12.8221   22.0415 N   0  0  0  0  0  0
  -25.4379  -15.1865   20.4081 N   0  0  0  0  0  0
  -31.7935  -14.6334   20.0175 O   0  0  0  0  0  0
  -21.6640   -6.8887   21.4248 O   0  0  0  0  0  0
  -22.3579  -14.5552   20.6738 O   0  0  0  0  0  0
  -24.6099  -31.8690   23.2149 C   0  0  0  0  0  0
  -25.8992  -32.4846   23.8438 C   0  0  1  0  0  0
  -27.2367  -27.4741   20.0811 C   0  0  0  0  0  0
  -25.5844  -33.8644   24.2350 N   0  0  0  0  0  0
  -23.3965  -30.4957   21.5550 C   0  0  2  0  0  0
  -24.8452  -28.9699   20.1121 C   0  0  0  0  0  0
  -22.7384  -29.4639   22.4985 C   0  0  0  0  0  0
  -18.0271  -28.1352   22.8493 C   0  0  0  0  0  0
  -24.1457  -36.7326   23.2643 C   0  0  0  0  0  0
  -25.9237  -30.8491   21.3598 C   0  0  0  0  0  0
  -26.0049  -29.4881   20.7037 C   0  0  0  0  0  0
  -27.2080  -28.7506   20.6802 C   0  0  0  0  0  0
  -26.0653  -26.9657   19.4800 C   0  0  0  0  0  0
  -24.8693  -27.7082   19.4951 C   0  0  0  0  0  0
  -23.6027  -29.8307   20.1672 C   0  0  0  0  0  0
  -25.4083  -36.3134   24.0336 C   0  0  1  0  0  0
  -20.5863  -28.3624   23.1324 C   0  0  2  0  0  0
  -20.6760  -26.9351   22.5411 C   0  0  0  0  0  0
  -19.5740  -26.6358   21.5199 C   0  0  0  0  0  0
  -18.1918  -26.7899   22.1610 C   0  0  0  0  0  0
  -19.1522  -28.8801   23.2922 C   0  0  0  0  0  0
  -18.9457  -30.1413   23.8925 C   0  0  0  0  0  0
  -17.6462  -30.6572   24.0561 C   0  0  0  0  0  0
  -25.8999  -34.9487   23.5138 C   0  0  0  0  0  0
  -16.5346  -29.9076   23.6330 C   0  0  0  0  0  0
  -16.7260  -28.6491   23.0345 C   0  0  0  0  0  0
  -26.4436  -31.6631   25.0755 C   0  0  0  0  0  0
  -25.3709  -31.3706   26.1508 C   0  0  0  0  0  0
  -27.0272  -30.3094   24.6088 C   0  0  0  0  0  0
  -27.6047  -32.4324   25.7494 C   0  0  0  0  0  0
  -27.5568  -37.1806   24.8463 C   0  0  0  0  0  0
  -21.4117  -29.3000   22.3737 N   0  0  0  0  0  0
  -26.4291  -37.3800   23.9395 N   0  0  0  0  0  0
  -24.6622  -31.0816   22.1034 N   0  0  0  0  0  0
  -23.4176  -28.8140   23.2975 O   0  0  0  0  0  0
  -28.3966  -26.7397   20.0790 O   0  0  0  0  0  0
  -26.5575  -34.8922   22.4707 O   0  0  0  0  0  0
  -23.5297  -32.1412   23.7571 O   0  0  0  0  0  0
  -30.8139  -20.1447   19.9354 C   0  0  0  0  0  0
  -31.5708  -20.1808   21.1184 C   0  0  0  0  0  0
  -31.2827  -21.2373   22.0053 C   0  0  0  0  0  0
  -29.6232  -21.9690   20.6075 C   0  0  0  0  0  0
  -32.0527  -21.4814   23.2888 C   0  0  0  0  0  0
  -32.6719  -19.1568   21.3724 C   0  0  0  0  0  0
  -28.5046  -22.9637   20.3670 C   0  0  0  0  0  0
  -32.4218  -18.2485   22.5975 C   0  0  0  0  0  0
  -28.9890  -24.3622   19.9259 C   0  0  0  0  0  0
  -32.0145  -16.8028   22.2713 C   0  0  0  0  0  0
  -30.6200  -16.6672   21.6279 C   0  0  0  0  0  0
  -28.2798  -25.4683   20.7203 C   0  0  0  0  0  0
  -29.8468  -21.0461   19.6797 N   0  0  0  0  0  0
  -30.2975  -22.1118   21.7422 N   0  0  0  0  0  0
  -30.2011  -15.2740   21.4624 N   0  0  0  0  0  0
  -31.4592  -12.3584   19.0897 H   0  0  0  0  0  0
  -30.3009  -11.2531   19.7693 H   0  0  0  0  0  0
  -29.7026  -11.7889   17.4046 H   0  0  0  0  0  0
  -29.6636  -13.4936   17.7639 H   0  0  0  0  0  0
  -27.8080  -11.3184   18.7995 H   0  0  0  0  0  0
  -27.3523  -12.6647   17.7926 H   0  0  0  0  0  0
  -27.7291  -14.2541   19.6087 H   0  0  0  0  0  0
  -28.6745  -11.8979   21.3110 H   0  0  0  0  0  0
  -28.4701  -13.5183   21.8911 H   0  0  0  0  0  0
  -25.2742   -9.5703   22.4774 H   0  0  0  0  0  0
  -24.0030   -7.4622   22.7449 H   0  0  0  0  0  0
  -21.0849   -8.8753   19.8929 H   0  0  0  0  0  0
  -22.3679  -10.9675   19.6179 H   0  0  0  0  0  0
  -21.1981   -7.6160   23.9751 H   0  0  0  0  0  0
  -21.1480   -6.0521   25.9096 H   0  0  0  0  0  0
  -22.0595   -2.7631   23.2852 H   0  0  0  0  0  0
  -22.4096  -11.9871   22.4810 H   0  0  0  0  0  0
  -21.1127  -13.1256   22.2591 H   0  0  0  0  0  0
  -24.6758  -15.8466   20.5147 H   0  0  0  0  0  0
  -26.3006  -15.6234   20.1064 H   0  0  0  0  0  0
  -26.7068  -32.5577   23.1231 H   0  0  0  0  0  0
  -25.0046  -33.9811   25.0533 H   0  0  0  0  0  0
  -22.6849  -31.3143   21.4203 H   0  0  0  0  0  0
  -23.3717  -35.9667   23.3348 H   0  0  0  0  0  0
  -24.3580  -36.8893   22.2058 H   0  0  0  0  0  0
  -23.7199  -37.6539   23.6629 H   0  0  0  0  0  0
  -26.0209  -31.6161   20.5898 H   0  0  0  0  0  0
  -26.8175  -30.9104   21.9687 H   0  0  0  0  0  0
  -28.1055  -29.1510   21.1300 H   0  0  0  0  0  0
  -26.0786  -25.9970   19.0026 H   0  0  0  0  0  0
  -23.9791  -27.3075   19.0288 H   0  0  0  0  0  0
  -23.7017  -30.6097   19.4092 H   0  0  0  0  0  0
  -22.7297  -29.2451   19.8747 H   0  0  0  0  0  0
  -25.1250  -36.2045   25.0830 H   0  0  0  0  0  0
  -20.9990  -28.3187   24.1435 H   0  0  0  0  0  0
  -20.5638  -26.2207   23.3597 H   0  0  0  0  0  0
  -21.6633  -26.7376   22.1205 H   0  0  0  0  0  0
  -19.6891  -25.6272   21.1216 H   0  0  0  0  0  0
  -19.6710  -27.3193   20.6752 H   0  0  0  0  0  0
  -17.4184  -26.6660   21.4024 H   0  0  0  0  0  0
  -18.0326  -26.0032   22.8996 H   0  0  0  0  0  0
  -19.7926  -30.7227   24.2300 H   0  0  0  0  0  0
  -17.5010  -31.6271   24.5130 H   0  0  0  0  0  0
  -15.5342  -30.2985   23.7642 H   0  0  0  0  0  0
  -15.8655  -28.0835   22.7028 H   0  0  0  0  0  0
  -24.5907  -30.7022   25.7839 H   0  0  0  0  0  0
  -24.8871  -32.2845   26.4965 H   0  0  0  0  0  0
  -25.8074  -30.8884   27.0266 H   0  0  0  0  0  0
  -26.2810  -29.6868   24.1146 H   0  0  0  0  0  0
  -27.4084  -29.7323   25.4519 H   0  0  0  0  0  0
  -27.8608  -30.4443   23.9190 H   0  0  0  0  0  0
  -27.2711  -33.3622   26.2112 H   0  0  0  0  0  0
  -28.3838  -32.6877   25.0295 H   0  0  0  0  0  0
  -28.0722  -31.8408   26.5372 H   0  0  0  0  0  0
  -28.2589  -38.0097   24.7537 H   0  0  0  0  0  0
  -28.1050  -36.2636   24.6271 H   0  0  0  0  0  0
  -27.2300  -37.1454   25.8870 H   0  0  0  0  0  0
  -20.9234  -29.8783   21.7055 H   0  0  0  0  0  0
  -26.0194  -38.2869   24.1465 H   0  0  0  0  0  0
  -30.9827  -19.3906   19.1808 H   0  0  0  0  0  0
  -31.7173  -20.8051   24.0741 H   0  0  0  0  0  0
  -31.9047  -22.5021   23.6453 H   0  0  0  0  0  0
  -33.1219  -21.3399   23.1365 H   0  0  0  0  0  0
  -33.6070  -19.7063   21.5056 H   0  0  0  0  0  0
  -32.8192  -18.5506   20.4765 H   0  0  0  0  0  0
  -27.9380  -23.0321   21.2958 H   0  0  0  0  0  0
  -27.8006  -22.5727   19.6314 H   0  0  0  0  0  0
  -31.7031  -18.6853   23.2901 H   0  0  0  0  0  0
  -33.3590  -18.1877   23.1558 H   0  0  0  0  0  0
  -28.8206  -24.4878   18.8569 H   0  0  0  0  0  0
  -30.0656  -24.4573   20.0745 H   0  0  0  0  0  0
  -32.0342  -16.2257   23.1965 H   0  0  0  0  0  0
  -32.7736  -16.3616   21.6243 H   0  0  0  0  0  0
  -30.5975  -17.1569   20.6534 H   0  0  0  0  0  0
  -29.8782  -17.1760   22.2448 H   0  0  0  0  0  0
  -28.7233  -25.5448   21.7134 H   0  0  0  0  0  0
  -27.2396  -25.1830   20.8873 H   0  0  0  0  0  0
  -29.3525  -14.9895   21.9297 H   0  0  0  0  0  0
  1 25  1  0  0  0
  1 30  2  0  0  0
  1 85  1  0  0  0
  2  3  1  0  0  0
  2 25  1  0  0  0
  2 86  1  0  0  0
  2 87  1  0  0  0
  3  4  1  0  0  0
  3 88  1  0  0  0
  3 89  1  0  0  0
  4  5  1  0  0  0
  4 90  1  0  0  0
  4 91  1  0  0  0
  5  6  1  0  0  0
  5 26  1  0  0  0
  5 92  1  0  0  0
  6 25  1  0  0  0
  6 93  1  0  0  0
  6 94  1  0  0  0
  7  8  2  0  0  0
  7 26  1  0  0  0
  7 29  1  0  0  0
  8  9  1  0  0  0
  8 22  1  0  0  0
  9 10  1  0  0  0
  9 27  2  0  0  0
 10 11  2  0  0  0
 10 15  1  0  0  0
 11 12  1  0  0  0
 11 95  1  0  0  0
 12 13  2  0  0  0
 12 96  1  0  0  0
 13 14  1  0  0  0
 13 31  1  0  0  0
 14 15  2  0  0  0
 14 97  1  0  0  0
 15 98  1  0  0  0
 16 17  2  0  0  0
 16 21  1  0  0  0
 16 31  1  0  0  0
 17 18  1  0  0  0
 17 99  1  0  0  0
 18 19  2  0  0  0
 18100  1  0  0  0
 19 20  1  0  0  0
 19 24  1  0  0  0
 20 21  2  0  0  0
 20101  1  0  0  0
 21 23  1  0  0  0
 22 28  1  0  0  0
 22 32  2  0  0  0
 26 27  1  0  0  0
 28102  1  0  0  0
 28103  1  0  0  0
 29104  1  0  0  0
 29105  1  0  0  0
 33 34  1  0  0  0
 33 66  1  0  0  0
 33 70  2  0  0  0
 34 36  1  0  0  0
 34 59  1  0  0  0
 34106  1  0  0  0
 35 44  2  0  0  0
 35 45  1  0  0  0
 35 68  1  0  0  0
 36 56  1  0  0  0
 36107  1  0  0  0
 37 39  1  0  0  0
 37 47  1  0  0  0
 37 66  1  0  0  0
 37108  1  0  0  0
 38 43  2  0  0  0
 38 46  1  0  0  0
 38 47  1  0  0  0
 39 64  1  0  0  0
 39 67  2  0  0  0
 40 52  1  0  0  0
 40 53  2  0  0  0
 40 58  1  0  0  0
 41109  1  0  0  0
 41110  1  0  0  0
 41111  1  0  0  0
 41 48  1  0  0  0
 42 43  1  0  0  0
 42 66  1  0  0  0
 42112  1  0  0  0
 42113  1  0  0  0
 43 44  1  0  0  0
 44114  1  0  0  0
 45 46  2  0  0  0
 45115  1  0  0  0
 46116  1  0  0  0
 47117  1  0  0  0
 47118  1  0  0  0
 48 56  1  0  0  0
 48 65  1  0  0  0
 48119  1  0  0  0
 49 50  1  0  0  0
 49 53  1  0  0  0
 49 64  1  0  0  0
 49120  1  0  0  0
 50 51  1  0  0  0
 50121  1  0  0  0
 50122  1  0  0  0
 51 52  1  0  0  0
 51123  1  0  0  0
 51124  1  0  0  0
 52125  1  0  0  0
 52126  1  0  0  0
 53 54  1  0  0  0
 54 55  2  0  0  0
 54127  1  0  0  0
 55 57  1  0  0  0
 55128  1  0  0  0
 56 69  2  0  0  0
 57 58  2  0  0  0
 57129  1  0  0  0
 58130  1  0  0  0
 59 60  1  0  0  0
 59 61  1  0  0  0
 59 62  1  0  0  0
 60131  1  0  0  0
 60132  1  0  0  0
 60133  1  0  0  0
 61134  1  0  0  0
 61135  1  0  0  0
 61136  1  0  0  0
 62137  1  0  0  0
 62138  1  0  0  0
 62139  1  0  0  0
 63 65  1  0  0  0
 63140  1  0  0  0
 63141  1  0  0  0
 63142  1  0  0  0
 64143  1  0  0  0
 65144  1  0  0  0
 68 82  1  0  0  0
 71 72  2  0  0  0
 71 83  1  0  0  0
 71145  1  0  0  0
 72 73  1  0  0  0
 72 76  1  0  0  0
 73 75  1  0  0  0
 73 84  2  0  0  0
 74 77  1  0  0  0
 74 83  2  0  0  0
 74 84  1  0  0  0
 75146  1  0  0  0
 75147  1  0  0  0
 75148  1  0  0  0
 76 78  1  0  0  0
 76149  1  0  0  0
 76150  1  0  0  0
 77 79  1  0  0  0
 77151  1  0  0  0
 77152  1  0  0  0
 78 80  1  0  0  0
 78153  1  0  0  0
 78154  1  0  0  0
 79 82  1  0  0  0
 79155  1  0  0  0
 79156  1  0  0  0
 80 81  1  0  0  0
 80157  1  0  0  0
 80158  1  0  0  0
 81 85  1  0  0  0
 81159  1  0  0  0
 81160  1  0  0  0
 82161  1  0  0  0
 82162  1  0  0  0
 85163  1  0  0  0
M  ISO  4   1 100  68 101  82 101  85 100
M  END
> <chiral flag>
0

> <version>
0

> <s_m_source_file>
/data/baiqing/PycharmProjects/Reinvent-master-3.2/result/LINK_invent/BTK/process_docking_weight1_custom_sum_contain_oxygen_bond_distance_aromatic_linkinvent_7_9_3/rearranged_h_0040.sdf

> <i_m_source_file_index>
20

> <r_mmod_Potential_Energy-OPLS-2005>
-513.181091308594

> <r_mmod_Stretch_Energy-OPLS-2005>
31.3010063171387

> <r_mmod_Bend_Energy-OPLS-2005>
92.5902557373047

> <r_mmod_Torsional_Energy-OPLS-2005>
222.778823852539

> <r_mmod_Improper_Torsional_Energy-OPLS-2005>
2.25303959846497

> <r_mmod_Van_der_Waal_Energy-OPLS-2005>
165.802978515625

> <r_mmod_Electrostatic_Energy-OPLS-2005>
-806.933837890625

> <r_mmod_Solvation_Energy-OPLS-2005>
-228.476455688477

> <b_mmod_Minimization_Converged-OPLS-2005>
0

> <r_mmod_RMS_Derivative-OPLS-2005>
3.00867414474487

$$$$
20
                    3D
 Structure written by MMmdl.
159167  0  0  1  0            999 V2000
  -30.7292  -14.4932   20.5750 C   0  0  0  0  0  0
  -30.4181  -12.3268   19.4435 C   0  0  0  0  0  0
  -29.4955  -12.5097   18.2207 C   0  0  0  0  0  0
  -28.0191  -12.3598   18.6310 C   0  0  0  0  0  0
  -27.6569  -13.2157   19.8743 C   0  0  2  0  0  0
  -28.6987  -13.0365   21.0033 C   0  0  0  0  0  0
  -25.2534  -13.8175   20.5695 C   0  0  0  0  0  0
  -24.1790  -13.0441   20.9178 C   0  0  0  0  0  0
  -24.6355  -11.6909   20.8723 C   0  0  0  0  0  0
  -23.9018  -10.4291   21.0398 C   0  0  0  0  0  0
  -24.3577   -9.4212   21.9178 C   0  0  0  0  0  0
  -23.6268   -8.2237   22.0752 C   0  0  0  0  0  0
  -22.4255   -8.0269   21.3537 C   0  0  0  0  0  0
  -21.9875   -9.0243   20.4646 C   0  0  0  0  0  0
  -22.7187  -10.2127   20.3054 C   0  0  0  0  0  0
  -21.6851   -6.0729   22.5267 C   0  0  0  0  0  0
  -21.4026   -6.5636   23.8201 C   0  0  0  0  0  0
  -21.3658   -5.6787   24.9166 C   0  0  0  0  0  0
  -21.6038   -4.3043   24.7207 C   0  0  0  0  0  0
  -21.8819   -3.8140   23.4326 C   0  0  0  0  0  0
  -21.9192   -4.6965   22.3388 C   0  0  0  0  0  0
  -22.7810  -13.5251   21.1833 C   0  0  0  0  0  0
  -22.1663   -4.2148   21.0963 F   0  0  0  0  0  0
  -21.5628   -3.4531   25.7721 F   0  0  0  0  0  0
  -30.0303  -13.3291   20.4514 N   0  0  0  0  0  0
  -26.2983  -12.9362   20.3370 N   0  0  0  0  0  0
  -25.9288  -11.6515   20.5750 N   0  0  0  0  0  0
  -22.0433  -12.8274   22.0398 N   0  0  0  0  0  0
  -25.4240  -15.1902   20.4127 N   0  0  0  0  0  0
  -31.8522  -14.6431   20.0901 O   0  0  0  0  0  0
  -21.6629   -6.8864   21.4223 O   0  0  0  0  0  0
  -22.3495  -14.5551   20.6669 O   0  0  0  0  0  0
  -24.6173  -31.8646   23.2050 C   0  0  0  0  0  0
  -25.9078  -32.4801   23.8335 C   0  0  1  0  0  0
  -27.2425  -27.4275   20.0916 C   0  0  0  0  0  0
  -25.5933  -33.8594   24.2284 N   0  0  0  0  0  0
  -23.4037  -30.4877   21.5439 C   0  0  2  0  0  0
  -24.8501  -28.9437   20.1130 C   0  0  0  0  0  0
  -22.7427  -29.4676   22.4974 C   0  0  0  0  0  0
  -18.0292  -28.1397   22.8497 C   0  0  0  0  0  0
  -24.1482  -36.7314   23.2632 C   0  0  0  0  0  0
  -25.9309  -30.8269   21.3568 C   0  0  0  0  0  0
  -26.0079  -29.4572   20.7106 C   0  0  0  0  0  0
  -27.2034  -28.7047   20.6983 C   0  0  0  0  0  0
  -26.0665  -26.9291   19.4855 C   0  0  0  0  0  0
  -24.8743  -27.6780   19.4996 C   0  0  0  0  0  0
  -23.6125  -29.8120   20.1602 C   0  0  0  0  0  0
  -25.4100  -36.3105   24.0329 C   0  0  1  0  0  0
  -20.5878  -28.3699   23.1316 C   0  0  2  0  0  0
  -20.6789  -26.9433   22.5429 C   0  0  0  0  0  0
  -19.5762  -26.6411   21.5228 C   0  0  0  0  0  0
  -18.1943  -26.7945   22.1638 C   0  0  0  0  0  0
  -19.1536  -28.8860   23.2903 C   0  0  0  0  0  0
  -18.9467  -30.1469   23.8908 C   0  0  0  0  0  0
  -17.6473  -30.6599   24.0585 C   0  0  0  0  0  0
  -25.9037  -34.9473   23.5106 C   0  0  0  0  0  0
  -16.5358  -29.9108   23.6318 C   0  0  0  0  0  0
  -16.7283  -28.6534   23.0332 C   0  0  0  0  0  0
  -26.4481  -31.6575   25.0671 C   0  0  0  0  0  0
  -25.3748  -31.3712   26.1433 C   0  0  0  0  0  0
  -27.0282  -30.3010   24.6045 C   0  0  0  0  0  0
  -27.6054  -32.4275   25.7458 C   0  0  0  0  0  0
  -27.5567  -37.1808   24.8460 C   0  0  0  0  0  0
  -21.4151  -29.3049   22.3712 N   0  0  0  0  0  0
  -26.4279  -37.3798   23.9399 N   0  0  0  0  0  0
  -24.6689  -31.0751   22.0927 N   0  0  0  0  0  0
  -23.4191  -28.8225   23.3029 O   0  0  0  0  0  0
  -28.4347  -26.7312   20.0876 O   0  0  0  0  0  0
  -26.5605  -34.8951   22.4674 O   0  0  0  0  0  0
  -23.5384  -32.1399   23.7464 O   0  0  0  0  0  0
  -30.3457  -21.8001   20.6184 C   0  0  0  0  0  0
  -30.0282  -20.4623   20.5744 C   0  0  0  0  0  0
  -29.3921  -20.3365   19.2950 C   0  0  0  0  0  0
  -28.8487  -19.1246   18.5899 C   0  0  0  0  0  0
  -30.3752  -19.4652   21.6863 C   0  0  0  0  0  0
  -29.7548  -18.0341   21.6901 C   0  0  0  0  0  0
  -28.9343  -24.6714   18.8106 C   0  0  0  0  0  0
  -30.1816  -23.7625   18.9631 C   0  0  0  0  0  0
  -30.6245  -16.9330   21.0260 C   0  0  0  0  0  0
  -28.4174  -25.2935   20.1264 C   0  0  0  0  0  0
  -29.3367  -21.4972   18.6440 N   0  0  0  0  0  0
  -29.9314  -22.4025   19.4476 N   0  0  0  0  0  0
  -30.0894  -15.5528   21.1158 N   0  0  0  0  0  0
  -31.4645  -12.4136   19.1467 H   0  0  0  0  0  0
  -30.3165  -11.3244   19.8626 H   0  0  0  0  0  0
  -29.7494  -11.7824   17.4484 H   0  0  0  0  0  0
  -29.6561  -13.4950   17.7811 H   0  0  0  0  0  0
  -27.8432  -11.3054   18.8471 H   0  0  0  0  0  0
  -27.3666  -12.6111   17.7942 H   0  0  0  0  0  0
  -27.6901  -14.2567   19.5529 H   0  0  0  0  0  0
  -28.6725  -12.0126   21.3808 H   0  0  0  0  0  0
  -28.4553  -13.6701   21.8568 H   0  0  0  0  0  0
  -25.2724   -9.5715   22.4743 H   0  0  0  0  0  0
  -23.9998   -7.4636   22.7472 H   0  0  0  0  0  0
  -21.0808   -8.8733   19.8954 H   0  0  0  0  0  0
  -22.3625  -10.9659   19.6155 H   0  0  0  0  0  0
  -21.2025   -7.6143   23.9711 H   0  0  0  0  0  0
  -21.1489   -6.0510   25.9067 H   0  0  0  0  0  0
  -22.0600   -2.7605   23.2813 H   0  0  0  0  0  0
  -22.4063  -11.9986   22.4871 H   0  0  0  0  0  0
  -21.1041  -13.1319   22.2542 H   0  0  0  0  0  0
  -24.6569  -15.8452   20.5171 H   0  0  0  0  0  0
  -26.2772  -15.6278   20.0864 H   0  0  0  0  0  0
  -26.7157  -32.5515   23.1099 H   0  0  0  0  0  0
  -25.0137  -33.9701   25.0479 H   0  0  0  0  0  0
  -22.6959  -31.3063   21.3999 H   0  0  0  0  0  0
  -23.3727  -35.9666   23.3328 H   0  0  0  0  0  0
  -24.3581  -36.8910   22.2042 H   0  0  0  0  0  0
  -23.7258  -37.6547   23.6607 H   0  0  0  0  0  0
  -26.0413  -31.5886   20.5833 H   0  0  0  0  0  0
  -26.8186  -30.8844   21.9746 H   0  0  0  0  0  0
  -28.0964  -29.0939   21.1657 H   0  0  0  0  0  0
  -26.0695  -25.9723   18.9830 H   0  0  0  0  0  0
  -23.9860  -27.2780   19.0282 H   0  0  0  0  0  0
  -23.7256  -30.5785   19.3925 H   0  0  0  0  0  0
  -22.7340  -29.2345   19.8665 H   0  0  0  0  0  0
  -25.1287  -36.1962   25.0820 H   0  0  0  0  0  0
  -20.9976  -28.3275   24.1432 H   0  0  0  0  0  0
  -20.5730  -26.2304   23.3617 H   0  0  0  0  0  0
  -21.6656  -26.7502   22.1190 H   0  0  0  0  0  0
  -19.6923  -25.6328   21.1248 H   0  0  0  0  0  0
  -19.6688  -27.3228   20.6755 H   0  0  0  0  0  0
  -17.4213  -26.6709   21.4040 H   0  0  0  0  0  0
  -18.0334  -26.0086   22.9031 H   0  0  0  0  0  0
  -19.7944  -30.7296   24.2265 H   0  0  0  0  0  0
  -17.5023  -31.6263   24.5219 H   0  0  0  0  0  0
  -15.5360  -30.3024   23.7616 H   0  0  0  0  0  0
  -15.8692  -28.0870   22.6995 H   0  0  0  0  0  0
  -24.5918  -30.7052   25.7787 H   0  0  0  0  0  0
  -24.8945  -32.2892   26.4830 H   0  0  0  0  0  0
  -25.8135  -30.8931   27.0206 H   0  0  0  0  0  0
  -26.2818  -29.6812   24.1064 H   0  0  0  0  0  0
  -27.4023  -29.7209   25.4488 H   0  0  0  0  0  0
  -27.8668  -30.4323   23.9205 H   0  0  0  0  0  0
  -27.2655  -33.3553   26.2071 H   0  0  0  0  0  0
  -28.3862  -32.6862   25.0286 H   0  0  0  0  0  0
  -28.0706  -31.8369   26.5365 H   0  0  0  0  0  0
  -28.2607  -38.0079   24.7492 H   0  0  0  0  0  0
  -28.1052  -36.2625   24.6307 H   0  0  0  0  0  0
  -27.2304  -37.1508   25.8871 H   0  0  0  0  0  0
  -20.9330  -29.8765   21.6921 H   0  0  0  0  0  0
  -26.0185  -38.2895   24.1370 H   0  0  0  0  0  0
  -30.8699  -22.3670   21.3763 H   0  0  0  0  0  0
  -29.6434  -18.5792   18.0825 H   0  0  0  0  0  0
  -28.1146  -19.4042   17.8338 H   0  0  0  0  0  0
  -28.3488  -18.4377   19.2658 H   0  0  0  0  0  0
  -30.0818  -19.9235   22.6330 H   0  0  0  0  0  0
  -31.4591  -19.3739   21.7741 H   0  0  0  0  0  0
  -28.7267  -18.0429   21.3373 H   0  0  0  0  0  0
  -29.6790  -17.7504   22.7410 H   0  0  0  0  0  0
  -28.1340  -24.1317   18.3024 H   0  0  0  0  0  0
  -29.2024  -25.4824   18.1328 H   0  0  0  0  0  0
  -30.9198  -24.2401   19.6094 H   0  0  0  0  0  0
  -30.6659  -23.6759   17.9901 H   0  0  0  0  0  0
  -31.6154  -16.9441   21.4871 H   0  0  0  0  0  0
  -30.7756  -17.1823   19.9751 H   0  0  0  0  0  0
  -29.0813  -25.0017   20.9408 H   0  0  0  0  0  0
  -27.4469  -24.8784   20.3982 H   0  0  0  0  0  0
  -29.1679  -15.4105   21.5009 H   0  0  0  0  0  0
  1 25  1  0  0  0
  1 30  2  0  0  0
  1 83  1  0  0  0
  2  3  1  0  0  0
  2 25  1  0  0  0
  2 84  1  0  0  0
  2 85  1  0  0  0
  3  4  1  0  0  0
  3 86  1  0  0  0
  3 87  1  0  0  0
  4  5  1  0  0  0
  4 88  1  0  0  0
  4 89  1  0  0  0
  5  6  1  0  0  0
  5 26  1  0  0  0
  5 90  1  0  0  0
  6 25  1  0  0  0
  6 91  1  0  0  0
  6 92  1  0  0  0
  7  8  2  0  0  0
  7 26  1  0  0  0
  7 29  1  0  0  0
  8  9  1  0  0  0
  8 22  1  0  0  0
  9 10  1  0  0  0
  9 27  2  0  0  0
 10 11  2  0  0  0
 10 15  1  0  0  0
 11 12  1  0  0  0
 11 93  1  0  0  0
 12 13  2  0  0  0
 12 94  1  0  0  0
 13 14  1  0  0  0
 13 31  1  0  0  0
 14 15  2  0  0  0
 14 95  1  0  0  0
 15 96  1  0  0  0
 16 17  2  0  0  0
 16 21  1  0  0  0
 16 31  1  0  0  0
 17 18  1  0  0  0
 17 97  1  0  0  0
 18 19  2  0  0  0
 18 98  1  0  0  0
 19 20  1  0  0  0
 19 24  1  0  0  0
 20 21  2  0  0  0
 20 99  1  0  0  0
 21 23  1  0  0  0
 22 28  1  0  0  0
 22 32  2  0  0  0
 26 27  1  0  0  0
 28100  1  0  0  0
 28101  1  0  0  0
 29102  1  0  0  0
 29103  1  0  0  0
 33 34  1  0  0  0
 33 66  1  0  0  0
 33 70  2  0  0  0
 34 36  1  0  0  0
 34 59  1  0  0  0
 34104  1  0  0  0
 35 44  2  0  0  0
 35 45  1  0  0  0
 35 68  1  0  0  0
 36 56  1  0  0  0
 36105  1  0  0  0
 37 39  1  0  0  0
 37 47  1  0  0  0
 37 66  1  0  0  0
 37106  1  0  0  0
 38 43  2  0  0  0
 38 46  1  0  0  0
 38 47  1  0  0  0
 39 64  1  0  0  0
 39 67  2  0  0  0
 40 52  1  0  0  0
 40 53  2  0  0  0
 40 58  1  0  0  0
 41107  1  0  0  0
 41108  1  0  0  0
 41109  1  0  0  0
 41 48  1  0  0  0
 42 43  1  0  0  0
 42 66  1  0  0  0
 42110  1  0  0  0
 42111  1  0  0  0
 43 44  1  0  0  0
 44112  1  0  0  0
 45 46  2  0  0  0
 45113  1  0  0  0
 46114  1  0  0  0
 47115  1  0  0  0
 47116  1  0  0  0
 48 56  1  0  0  0
 48 65  1  0  0  0
 48117  1  0  0  0
 49 50  1  0  0  0
 49 53  1  0  0  0
 49 64  1  0  0  0
 49118  1  0  0  0
 50 51  1  0  0  0
 50119  1  0  0  0
 50120  1  0  0  0
 51 52  1  0  0  0
 51121  1  0  0  0
 51122  1  0  0  0
 52123  1  0  0  0
 52124  1  0  0  0
 53 54  1  0  0  0
 54 55  2  0  0  0
 54125  1  0  0  0
 55 57  1  0  0  0
 55126  1  0  0  0
 56 69  2  0  0  0
 57 58  2  0  0  0
 57127  1  0  0  0
 58128  1  0  0  0
 59 60  1  0  0  0
 59 61  1  0  0  0
 59 62  1  0  0  0
 60129  1  0  0  0
 60130  1  0  0  0
 60131  1  0  0  0
 61132  1  0  0  0
 61133  1  0  0  0
 61134  1  0  0  0
 62135  1  0  0  0
 62136  1  0  0  0
 62137  1  0  0  0
 63 65  1  0  0  0
 63138  1  0  0  0
 63139  1  0  0  0
 63140  1  0  0  0
 64141  1  0  0  0
 65142  1  0  0  0
 68 80  1  0  0  0
 71 72  2  0  0  0
 71 82  1  0  0  0
 71143  1  0  0  0
 72 73  1  0  0  0
 72 75  1  0  0  0
 73 74  1  0  0  0
 73 81  2  0  0  0
 74144  1  0  0  0
 74145  1  0  0  0
 74146  1  0  0  0
 75 76  1  0  0  0
 75147  1  0  0  0
 75148  1  0  0  0
 76 79  1  0  0  0
 76149  1  0  0  0
 76150  1  0  0  0
 77 78  1  0  0  0
 77 80  1  0  0  0
 77151  1  0  0  0
 77152  1  0  0  0
 78 82  1  0  0  0
 78153  1  0  0  0
 78154  1  0  0  0
 79 83  1  0  0  0
 79155  1  0  0  0
 79156  1  0  0  0
 80157  1  0  0  0
 80158  1  0  0  0
 81 82  1  0  0  0
 83159  1  0  0  0
M  ISO  4   1 100  68 101  80 101  83 100
M  END
> <chiral flag>
0

> <version>
0

> <s_m_source_file>
/data/baiqing/PycharmProjects/Reinvent-master-3.2/result/LINK_invent/BTK/process_docking_weight1_custom_sum_contain_oxygen_bond_distance_aromatic_linkinvent_7_9_3/rearranged_h_0040.sdf

> <i_m_source_file_index>
21

> <r_mmod_Potential_Energy-OPLS-2005>
-103.110649108887

> <r_mmod_Stretch_Energy-OPLS-2005>
38.8271217346191

> <r_mmod_Bend_Energy-OPLS-2005>
117.373825073242

> <r_mmod_Torsional_Energy-OPLS-2005>
229.488800048828

> <r_mmod_Improper_Torsional_Energy-OPLS-2005>
4.00172805786133

> <r_mmod_Van_der_Waal_Energy-OPLS-2005>
124.532272338867

> <r_mmod_Electrostatic_Energy-OPLS-2005>
-409.192535400391

> <r_mmod_Solvation_Energy-OPLS-2005>
-223.33235168457

> <b_mmod_Minimization_Converged-OPLS-2005>
0

> <r_mmod_RMS_Derivative-OPLS-2005>
3.21672868728638

$$$$
21
                    3D
 Structure written by MMmdl.
159167  0  0  1  0            999 V2000
  -30.7569  -14.4022   20.6686 C   0  0  0  0  0  0
  -30.4154  -12.3073   19.4030 C   0  0  0  0  0  0
  -29.4846  -12.5196   18.1948 C   0  0  0  0  0  0
  -28.0096  -12.3697   18.6119 C   0  0  0  0  0  0
  -27.6609  -13.2044   19.8725 C   0  0  2  0  0  0
  -28.6985  -12.9714   20.9915 C   0  0  0  0  0  0
  -25.2580  -13.8153   20.5662 C   0  0  0  0  0  0
  -24.1833  -13.0438   20.9155 C   0  0  0  0  0  0
  -24.6374  -11.6902   20.8716 C   0  0  0  0  0  0
  -23.9045  -10.4294   21.0390 C   0  0  0  0  0  0
  -24.3606   -9.4212   21.9167 C   0  0  0  0  0  0
  -23.6285   -8.2249   22.0747 C   0  0  0  0  0  0
  -22.4269   -8.0277   21.3542 C   0  0  0  0  0  0
  -21.9895   -9.0245   20.4647 C   0  0  0  0  0  0
  -22.7213  -10.2128   20.3046 C   0  0  0  0  0  0
  -21.6856   -6.0732   22.5274 C   0  0  0  0  0  0
  -21.4012   -6.5635   23.8208 C   0  0  0  0  0  0
  -21.3661   -5.6791   24.9172 C   0  0  0  0  0  0
  -21.6048   -4.3051   24.7227 C   0  0  0  0  0  0
  -21.8821   -3.8139   23.4346 C   0  0  0  0  0  0
  -21.9191   -4.6957   22.3400 C   0  0  0  0  0  0
  -22.7857  -13.5236   21.1828 C   0  0  0  0  0  0
  -22.1662   -4.2143   21.0981 F   0  0  0  0  0  0
  -21.5632   -3.4537   25.7740 F   0  0  0  0  0  0
  -30.0358  -13.2707   20.4485 N   0  0  0  0  0  0
  -26.3020  -12.9322   20.3340 N   0  0  0  0  0  0
  -25.9299  -11.6482   20.5734 N   0  0  0  0  0  0
  -22.0503  -12.8244   22.0402 N   0  0  0  0  0  0
  -25.4319  -15.1870   20.4092 N   0  0  0  0  0  0
  -31.8230  -14.6401   20.0948 O   0  0  0  0  0  0
  -21.6639   -6.8868   21.4238 O   0  0  0  0  0  0
  -22.3545  -14.5550   20.6683 O   0  0  0  0  0  0
  -24.6141  -31.8667   23.2082 C   0  0  0  0  0  0
  -25.9041  -32.4815   23.8387 C   0  0  1  0  0  0
  -27.2452  -27.4401   20.0882 C   0  0  0  0  0  0
  -25.5905  -33.8622   24.2316 N   0  0  0  0  0  0
  -23.4034  -30.4883   21.5487 C   0  0  2  0  0  0
  -24.8518  -28.9522   20.1148 C   0  0  0  0  0  0
  -22.7416  -29.4652   22.4986 C   0  0  0  0  0  0
  -18.0278  -28.1383   22.8489 C   0  0  0  0  0  0
  -24.1486  -36.7304   23.2645 C   0  0  0  0  0  0
  -25.9308  -30.8322   21.3608 C   0  0  0  0  0  0
  -26.0098  -29.4661   20.7096 C   0  0  0  0  0  0
  -27.2097  -28.7196   20.6875 C   0  0  0  0  0  0
  -26.0690  -26.9370   19.4892 C   0  0  0  0  0  0
  -24.8757  -27.6874   19.4993 C   0  0  0  0  0  0
  -23.6106  -29.8159   20.1654 C   0  0  0  0  0  0
  -25.4110  -36.3113   24.0342 C   0  0  1  0  0  0
  -20.5867  -28.3674   23.1315 C   0  0  2  0  0  0
  -20.6760  -26.9404   22.5427 C   0  0  0  0  0  0
  -19.5746  -26.6393   21.5218 C   0  0  0  0  0  0
  -18.1924  -26.7934   22.1617 C   0  0  0  0  0  0
  -19.1525  -28.8840   23.2901 C   0  0  0  0  0  0
  -18.9466  -30.1443   23.8919 C   0  0  0  0  0  0
  -17.6473  -30.6591   24.0556 C   0  0  0  0  0  0
  -25.9043  -34.9483   23.5130 C   0  0  0  0  0  0
  -16.5361  -29.9092   23.6324 C   0  0  0  0  0  0
  -16.7273  -28.6502   23.0350 C   0  0  0  0  0  0
  -26.4461  -31.6606   25.0734 C   0  0  0  0  0  0
  -25.3723  -31.3735   26.1496 C   0  0  0  0  0  0
  -27.0272  -30.3045   24.6105 C   0  0  0  0  0  0
  -27.6079  -32.4310   25.7456 C   0  0  0  0  0  0
  -27.5579  -37.1785   24.8464 C   0  0  0  0  0  0
  -21.4147  -29.3027   22.3726 N   0  0  0  0  0  0
  -26.4290  -37.3801   23.9413 N   0  0  0  0  0  0
  -24.6673  -31.0778   22.0974 N   0  0  0  0  0  0
  -23.4193  -28.8211   23.3033 O   0  0  0  0  0  0
  -28.4294  -26.7325   20.0664 O   0  0  0  0  0  0
  -26.5613  -34.8928   22.4697 O   0  0  0  0  0  0
  -23.5335  -32.1430   23.7467 O   0  0  0  0  0  0
  -30.0791  -22.2286   19.7778 C   0  0  0  0  0  0
  -29.6646  -20.9318   19.9596 C   0  0  0  0  0  0
  -28.2441  -21.0296   19.8331 C   0  0  0  0  0  0
  -27.2197  -19.9324   19.8532 C   0  0  0  0  0  0
  -30.5754  -19.7253   20.1443 C   0  0  0  0  0  0
  -30.0825  -18.5507   21.0301 C   0  0  0  0  0  0
  -31.2558  -17.5867   21.3371 C   0  0  0  0  0  0
  -28.9063  -24.4445   19.2206 C   0  0  0  0  0  0
  -30.9687  -16.3505   22.2273 C   0  0  0  0  0  0
  -28.3806  -25.3265   20.3733 C   0  0  0  0  0  0
  -27.8407  -22.2775   19.6072 N   0  0  0  0  0  0
  -28.9690  -23.0201   19.5575 N   0  0  0  0  0  0
  -30.2479  -15.2501   21.5779 N   0  0  0  0  0  0
  -31.4579  -12.4084   19.0973 H   0  0  0  0  0  0
  -30.3183  -11.2897   19.7852 H   0  0  0  0  0  0
  -29.7234  -11.8053   17.4056 H   0  0  0  0  0  0
  -29.6475  -13.5117   17.7700 H   0  0  0  0  0  0
  -27.8241  -11.3118   18.8033 H   0  0  0  0  0  0
  -27.3546  -12.6463   17.7842 H   0  0  0  0  0  0
  -27.7117  -14.2555   19.5851 H   0  0  0  0  0  0
  -28.6682  -11.9330   21.3247 H   0  0  0  0  0  0
  -28.4420  -13.5614   21.8722 H   0  0  0  0  0  0
  -25.2755   -9.5696   22.4729 H   0  0  0  0  0  0
  -24.0006   -7.4640   22.7466 H   0  0  0  0  0  0
  -21.0824   -8.8752   19.8953 H   0  0  0  0  0  0
  -22.3660  -10.9661   19.6156 H   0  0  0  0  0  0
  -21.2000   -7.6141   23.9708 H   0  0  0  0  0  0
  -21.1486   -6.0521   25.9075 H   0  0  0  0  0  0
  -22.0596   -2.7602   23.2848 H   0  0  0  0  0  0
  -22.4142  -11.9916   22.4805 H   0  0  0  0  0  0
  -21.1114  -13.1257   22.2597 H   0  0  0  0  0  0
  -24.6689  -15.8459   20.5216 H   0  0  0  0  0  0
  -26.2941  -15.6251   20.1086 H   0  0  0  0  0  0
  -26.7105  -32.5522   23.1147 H   0  0  0  0  0  0
  -25.0047  -33.9780   25.0451 H   0  0  0  0  0  0
  -22.6929  -31.3050   21.4069 H   0  0  0  0  0  0
  -23.3750  -35.9636   23.3340 H   0  0  0  0  0  0
  -24.3568  -36.8903   22.2056 H   0  0  0  0  0  0
  -23.7247  -37.6516   23.6643 H   0  0  0  0  0  0
  -26.0449  -31.5949   20.5892 H   0  0  0  0  0  0
  -26.8182  -30.8861   21.9800 H   0  0  0  0  0  0
  -28.1079  -29.1202   21.1360 H   0  0  0  0  0  0
  -26.0771  -25.9731   18.9986 H   0  0  0  0  0  0
  -23.9856  -27.2929   19.0316 H   0  0  0  0  0  0
  -23.7127  -30.5892   19.4034 H   0  0  0  0  0  0
  -22.7372  -29.2304   19.8741 H   0  0  0  0  0  0
  -25.1263  -36.1975   25.0828 H   0  0  0  0  0  0
  -20.9943  -28.3246   24.1443 H   0  0  0  0  0  0
  -20.5665  -26.2280   23.3623 H   0  0  0  0  0  0
  -21.6627  -26.7441   22.1213 H   0  0  0  0  0  0
  -19.6918  -25.6306   21.1247 H   0  0  0  0  0  0
  -19.6706  -27.3206   20.6761 H   0  0  0  0  0  0
  -17.4192  -26.6713   21.4016 H   0  0  0  0  0  0
  -18.0307  -26.0064   22.8997 H   0  0  0  0  0  0
  -19.7942  -30.7240   24.2322 H   0  0  0  0  0  0
  -17.5024  -31.6275   24.5144 H   0  0  0  0  0  0
  -15.5354  -30.2992   23.7646 H   0  0  0  0  0  0
  -15.8671  -28.0824   22.7068 H   0  0  0  0  0  0
  -24.5950  -30.6996   25.7864 H   0  0  0  0  0  0
  -24.8830  -32.2889   26.4844 H   0  0  0  0  0  0
  -25.8086  -30.9018   27.0322 H   0  0  0  0  0  0
  -26.2804  -29.6822   24.1163 H   0  0  0  0  0  0
  -27.4053  -29.7264   25.4551 H   0  0  0  0  0  0
  -27.8640  -30.4360   23.9244 H   0  0  0  0  0  0
  -27.2764  -33.3637   26.2034 H   0  0  0  0  0  0
  -28.3872  -32.6834   25.0246 H   0  0  0  0  0  0
  -28.0772  -31.8431   26.5356 H   0  0  0  0  0  0
  -28.2601  -38.0071   24.7481 H   0  0  0  0  0  0
  -28.1062  -36.2602   24.6299 H   0  0  0  0  0  0
  -27.2299  -37.1455   25.8869 H   0  0  0  0  0  0
  -20.9345  -29.8731   21.6916 H   0  0  0  0  0  0
  -26.0187  -38.2881   24.1423 H   0  0  0  0  0  0
  -31.0781  -22.6414   19.7471 H   0  0  0  0  0  0
  -27.3606  -19.2650   19.0022 H   0  0  0  0  0  0
  -26.2021  -20.3212   19.7982 H   0  0  0  0  0  0
  -27.2946  -19.3364   20.7622 H   0  0  0  0  0  0
  -31.5241  -20.0739   20.5554 H   0  0  0  0  0  0
  -30.8321  -19.3131   19.1685 H   0  0  0  0  0  0
  -29.2789  -18.0106   20.5294 H   0  0  0  0  0  0
  -29.6770  -18.9306   21.9689 H   0  0  0  0  0  0
  -32.0275  -18.1648   21.8479 H   0  0  0  0  0  0
  -31.7174  -17.2663   20.4030 H   0  0  0  0  0  0
  -29.9103  -24.7696   18.9413 H   0  0  0  0  0  0
  -28.2856  -24.5655   18.3309 H   0  0  0  0  0  0
  -30.4306  -16.6464   23.1283 H   0  0  0  0  0  0
  -31.9198  -15.9452   22.5814 H   0  0  0  0  0  0
  -29.0243  -25.1731   21.2417 H   0  0  0  0  0  0
  -27.3883  -24.9961   20.6820 H   0  0  0  0  0  0
  -29.3648  -14.9810   21.9869 H   0  0  0  0  0  0
  1 25  1  0  0  0
  1 30  2  0  0  0
  1 83  1  0  0  0
  2  3  1  0  0  0
  2 25  1  0  0  0
  2 84  1  0  0  0
  2 85  1  0  0  0
  3  4  1  0  0  0
  3 86  1  0  0  0
  3 87  1  0  0  0
  4  5  1  0  0  0
  4 88  1  0  0  0
  4 89  1  0  0  0
  5  6  1  0  0  0
  5 26  1  0  0  0
  5 90  1  0  0  0
  6 25  1  0  0  0
  6 91  1  0  0  0
  6 92  1  0  0  0
  7  8  2  0  0  0
  7 26  1  0  0  0
  7 29  1  0  0  0
  8  9  1  0  0  0
  8 22  1  0  0  0
  9 10  1  0  0  0
  9 27  2  0  0  0
 10 11  2  0  0  0
 10 15  1  0  0  0
 11 12  1  0  0  0
 11 93  1  0  0  0
 12 13  2  0  0  0
 12 94  1  0  0  0
 13 14  1  0  0  0
 13 31  1  0  0  0
 14 15  2  0  0  0
 14 95  1  0  0  0
 15 96  1  0  0  0
 16 17  2  0  0  0
 16 21  1  0  0  0
 16 31  1  0  0  0
 17 18  1  0  0  0
 17 97  1  0  0  0
 18 19  2  0  0  0
 18 98  1  0  0  0
 19 20  1  0  0  0
 19 24  1  0  0  0
 20 21  2  0  0  0
 20 99  1  0  0  0
 21 23  1  0  0  0
 22 28  1  0  0  0
 22 32  2  0  0  0
 26 27  1  0  0  0
 28100  1  0  0  0
 28101  1  0  0  0
 29102  1  0  0  0
 29103  1  0  0  0
 33 34  1  0  0  0
 33 66  1  0  0  0
 33 70  2  0  0  0
 34 36  1  0  0  0
 34 59  1  0  0  0
 34104  1  0  0  0
 35 44  2  0  0  0
 35 45  1  0  0  0
 35 68  1  0  0  0
 36 56  1  0  0  0
 36105  1  0  0  0
 37 39  1  0  0  0
 37 47  1  0  0  0
 37 66  1  0  0  0
 37106  1  0  0  0
 38 43  2  0  0  0
 38 46  1  0  0  0
 38 47  1  0  0  0
 39 64  1  0  0  0
 39 67  2  0  0  0
 40 52  1  0  0  0
 40 53  2  0  0  0
 40 58  1  0  0  0
 41107  1  0  0  0
 41108  1  0  0  0
 41109  1  0  0  0
 41 48  1  0  0  0
 42 43  1  0  0  0
 42 66  1  0  0  0
 42110  1  0  0  0
 42111  1  0  0  0
 43 44  1  0  0  0
 44112  1  0  0  0
 45 46  2  0  0  0
 45113  1  0  0  0
 46114  1  0  0  0
 47115  1  0  0  0
 47116  1  0  0  0
 48 56  1  0  0  0
 48 65  1  0  0  0
 48117  1  0  0  0
 49 50  1  0  0  0
 49 53  1  0  0  0
 49 64  1  0  0  0
 49118  1  0  0  0
 50 51  1  0  0  0
 50119  1  0  0  0
 50120  1  0  0  0
 51 52  1  0  0  0
 51121  1  0  0  0
 51122  1  0  0  0
 52123  1  0  0  0
 52124  1  0  0  0
 53 54  1  0  0  0
 54 55  2  0  0  0
 54125  1  0  0  0
 55 57  1  0  0  0
 55126  1  0  0  0
 56 69  2  0  0  0
 57 58  2  0  0  0
 57127  1  0  0  0
 58128  1  0  0  0
 59 60  1  0  0  0
 59 61  1  0  0  0
 59 62  1  0  0  0
 60129  1  0  0  0
 60130  1  0  0  0
 60131  1  0  0  0
 61132  1  0  0  0
 61133  1  0  0  0
 61134  1  0  0  0
 62135  1  0  0  0
 62136  1  0  0  0
 62137  1  0  0  0
 63 65  1  0  0  0
 63138  1  0  0  0
 63139  1  0  0  0
 63140  1  0  0  0
 64141  1  0  0  0
 65142  1  0  0  0
 68 80  1  0  0  0
 71 72  2  0  0  0
 71 82  1  0  0  0
 71143  1  0  0  0
 72 73  1  0  0  0
 72 75  1  0  0  0
 73 74  1  0  0  0
 73 81  2  0  0  0
 74144  1  0  0  0
 74145  1  0  0  0
 74146  1  0  0  0
 75 76  1  0  0  0
 75147  1  0  0  0
 75148  1  0  0  0
 76 77  1  0  0  0
 76149  1  0  0  0
 76150  1  0  0  0
 77 79  1  0  0  0
 77151  1  0  0  0
 77152  1  0  0  0
 78 80  1  0  0  0
 78 82  1  0  0  0
 78153  1  0  0  0
 78154  1  0  0  0
 79 83  1  0  0  0
 79155  1  0  0  0
 79156  1  0  0  0
 80157  1  0  0  0
 80158  1  0  0  0
 81 82  1  0  0  0
 83159  1  0  0  0
M  ISO  4   1 100  68 101  80 101  83 100
M  END
> <chiral flag>
0

> <version>
0

> <s_m_source_file>
/data/baiqing/PycharmProjects/Reinvent-master-3.2/result/LINK_invent/BTK/process_docking_weight1_custom_sum_contain_oxygen_bond_distance_aromatic_linkinvent_7_9_3/rearranged_h_0040.sdf

> <i_m_source_file_index>
22

> <r_mmod_Potential_Energy-OPLS-2005>
-123.560470581055

> <r_mmod_Stretch_Energy-OPLS-2005>
34.7551879882812

> <r_mmod_Bend_Energy-OPLS-2005>
102.397193908691

> <r_mmod_Torsional_Energy-OPLS-2005>
218.304809570312

> <r_mmod_Improper_Torsional_Energy-OPLS-2005>
2.60936403274536

> <r_mmod_Van_der_Waal_Energy-OPLS-2005>
123.748321533203

> <r_mmod_Electrostatic_Energy-OPLS-2005>
-394.054565429688

> <r_mmod_Solvation_Energy-OPLS-2005>
-220.25505065918

> <b_mmod_Minimization_Converged-OPLS-2005>
0

> <r_mmod_RMS_Derivative-OPLS-2005>
2.75927209854126

$$$$
22
                    3D
 Structure written by MMmdl.
157165  0  0  1  0            999 V2000
  -30.6260  -14.6523   20.5069 C   0  0  0  0  0  0
  -30.4324  -12.4114   19.4377 C   0  0  0  0  0  0
  -29.4999  -12.5107   18.2109 C   0  0  0  0  0  0
  -28.0248  -12.3428   18.6278 C   0  0  0  0  0  0
  -27.6451  -13.2197   19.8516 C   0  0  2  0  0  0
  -28.6913  -13.0920   20.9791 C   0  0  0  0  0  0
  -25.2524  -13.8183   20.5681 C   0  0  0  0  0  0
  -24.1814  -13.0437   20.9208 C   0  0  0  0  0  0
  -24.6392  -11.6918   20.8744 C   0  0  0  0  0  0
  -23.9058  -10.4300   21.0408 C   0  0  0  0  0  0
  -24.3622   -9.4217   21.9181 C   0  0  0  0  0  0
  -23.6308   -8.2243   22.0755 C   0  0  0  0  0  0
  -22.4287   -8.0278   21.3545 C   0  0  0  0  0  0
  -21.9912   -9.0252   20.4642 C   0  0  0  0  0  0
  -22.7242  -10.2127   20.3045 C   0  0  0  0  0  0
  -21.6851   -6.0738   22.5289 C   0  0  0  0  0  0
  -21.4008   -6.5646   23.8230 C   0  0  0  0  0  0
  -21.3641   -5.6801   24.9189 C   0  0  0  0  0  0
  -21.6045   -4.3062   24.7240 C   0  0  0  0  0  0
  -21.8815   -3.8153   23.4370 C   0  0  0  0  0  0
  -21.9202   -4.6970   22.3420 C   0  0  0  0  0  0
  -22.7840  -13.5228   21.1884 C   0  0  0  0  0  0
  -22.1664   -4.2159   21.0996 F   0  0  0  0  0  0
  -21.5624   -3.4533   25.7744 F   0  0  0  0  0  0
  -29.9979  -13.4393   20.4042 N   0  0  0  0  0  0
  -26.2947  -12.9360   20.3267 N   0  0  0  0  0  0
  -25.9304  -11.6508   20.5728 N   0  0  0  0  0  0
  -22.0466  -12.8209   22.0416 N   0  0  0  0  0  0
  -25.4226  -15.1907   20.4093 N   0  0  0  0  0  0
  -31.8078  -14.7889   20.1798 O   0  0  0  0  0  0
  -21.6644   -6.8882   21.4252 O   0  0  0  0  0  0
  -22.3525  -14.5548   20.6755 O   0  0  0  0  0  0
  -24.6286  -31.8577   23.1997 C   0  0  0  0  0  0
  -25.9147  -32.4759   23.8327 C   0  0  1  0  0  0
  -27.2108  -27.3051   20.1293 C   0  0  0  0  0  0
  -25.6004  -33.8567   24.2290 N   0  0  0  0  0  0
  -23.4236  -30.4824   21.5375 C   0  0  2  0  0  0
  -24.8712  -28.9368   20.1017 C   0  0  0  0  0  0
  -22.7489  -29.4630   22.4851 C   0  0  0  0  0  0
  -18.0291  -28.1413   22.8488 C   0  0  0  0  0  0
  -24.1470  -36.7211   23.2638 C   0  0  0  0  0  0
  -25.9653  -30.7902   21.3661 C   0  0  0  0  0  0
  -26.0410  -29.4148   20.7121 C   0  0  0  0  0  0
  -27.2200  -28.6086   20.7190 C   0  0  0  0  0  0
  -26.0282  -26.8837   19.4899 C   0  0  0  0  0  0
  -24.8677  -27.6776   19.4791 C   0  0  0  0  0  0
  -23.6431  -29.8191   20.1507 C   0  0  0  0  0  0
  -25.4114  -36.3051   24.0341 C   0  0  1  0  0  0
  -20.5908  -28.3720   23.1261 C   0  0  2  0  0  0
  -20.6806  -26.9438   22.5401 C   0  0  0  0  0  0
  -19.5768  -26.6424   21.5204 C   0  0  0  0  0  0
  -18.1940  -26.7977   22.1601 C   0  0  0  0  0  0
  -19.1555  -28.8887   23.2881 C   0  0  0  0  0  0
  -18.9474  -30.1485   23.8892 C   0  0  0  0  0  0
  -17.6479  -30.6616   24.0566 C   0  0  0  0  0  0
  -25.9065  -34.9444   23.5101 C   0  0  0  0  0  0
  -16.5366  -29.9116   23.6337 C   0  0  0  0  0  0
  -16.7286  -28.6533   23.0359 C   0  0  0  0  0  0
  -26.4540  -31.6541   25.0668 C   0  0  0  0  0  0
  -25.3787  -31.3684   26.1393 C   0  0  0  0  0  0
  -27.0363  -30.2977   24.6094 C   0  0  0  0  0  0
  -27.6133  -32.4221   25.7461 C   0  0  0  0  0  0
  -27.5547  -37.1761   24.8492 C   0  0  0  0  0  0
  -21.4209  -29.3067   22.3629 N   0  0  0  0  0  0
  -26.4250  -37.3770   23.9453 N   0  0  0  0  0  0
  -24.6917  -31.0611   22.0921 N   0  0  0  0  0  0
  -23.4218  -28.8150   23.2925 O   0  0  0  0  0  0
  -28.2613  -26.3808   20.1879 O   0  0  0  0  0  0
  -26.5554  -34.8937   22.4609 O   0  0  0  0  0  0
  -23.5456  -32.1336   23.7356 O   0  0  0  0  0  0
  -28.6452  -21.8012   19.6653 C   0  0  0  0  0  0
  -28.6102  -22.9221   22.1100 C   0  0  0  0  0  0
  -28.7875  -20.9643   20.8198 C   0  0  0  0  0  0
  -28.4558  -23.7708   20.9633 C   0  0  0  0  0  0
  -28.5856  -21.1854   18.2821 C   0  0  0  0  0  0
  -28.4525  -23.4318   23.5320 C   0  0  0  0  0  0
  -28.6847  -19.3830   20.8513 C   0  0  0  0  0  0
  -28.0236  -25.2884   21.1611 C   0  0  0  0  0  0
  -29.8625  -18.4299   20.3627 C   0  0  0  0  0  0
  -30.2653  -17.1336   21.2193 C   0  0  0  0  0  0
  -28.8003  -21.5704   22.0325 N   0  0  0  0  0  0
  -28.4962  -23.1744   19.7307 N   0  0  0  0  0  0
  -29.8464  -15.7369   20.8274 N   0  0  0  0  0  0
  -31.4727  -12.5447   19.1299 H   0  0  0  0  0  0
  -30.3767  -11.4194   19.8890 H   0  0  0  0  0  0
  -29.7690  -11.7583   17.4683 H   0  0  0  0  0  0
  -29.6345  -13.4799   17.7273 H   0  0  0  0  0  0
  -27.8656  -11.2897   18.8607 H   0  0  0  0  0  0
  -27.3686  -12.5679   17.7855 H   0  0  0  0  0  0
  -27.6578  -14.2528   19.5017 H   0  0  0  0  0  0
  -28.7140  -12.0737   21.3683 H   0  0  0  0  0  0
  -28.4371  -13.7331   21.8236 H   0  0  0  0  0  0
  -25.2763   -9.5695   22.4752 H   0  0  0  0  0  0
  -24.0027   -7.4622   22.7454 H   0  0  0  0  0  0
  -21.0854   -8.8768   19.8932 H   0  0  0  0  0  0
  -22.3718  -10.9661   19.6144 H   0  0  0  0  0  0
  -21.1980   -7.6147   23.9742 H   0  0  0  0  0  0
  -21.1453   -6.0519   25.9098 H   0  0  0  0  0  0
  -22.0602   -2.7618   23.2867 H   0  0  0  0  0  0
  -22.4069  -11.9853   22.4784 H   0  0  0  0  0  0
  -21.1073  -13.1218   22.2616 H   0  0  0  0  0  0
  -24.6522  -15.8422   20.5137 H   0  0  0  0  0  0
  -26.2739  -15.6338   20.0881 H   0  0  0  0  0  0
  -26.7221  -32.5437   23.1081 H   0  0  0  0  0  0
  -25.0392  -33.9714   25.0600 H   0  0  0  0  0  0
  -22.7192  -31.3041   21.3944 H   0  0  0  0  0  0
  -23.3774  -35.9487   23.3292 H   0  0  0  0  0  0
  -24.3574  -36.8793   22.2041 H   0  0  0  0  0  0
  -23.7167  -37.6412   23.6626 H   0  0  0  0  0  0
  -26.0951  -31.5508   20.5947 H   0  0  0  0  0  0
  -26.8491  -30.8444   21.9907 H   0  0  0  0  0  0
  -28.1131  -28.9635   21.2133 H   0  0  0  0  0  0
  -25.9955  -25.9017   19.0365 H   0  0  0  0  0  0
  -23.9724  -27.3030   19.0036 H   0  0  0  0  0  0
  -23.7717  -30.5948   19.3961 H   0  0  0  0  0  0
  -22.7644  -29.2491   19.8404 H   0  0  0  0  0  0
  -25.1290  -36.1849   25.0826 H   0  0  0  0  0  0
  -21.0013  -28.3267   24.1377 H   0  0  0  0  0  0
  -20.5725  -26.2312   23.3596 H   0  0  0  0  0  0
  -21.6670  -26.7474   22.1160 H   0  0  0  0  0  0
  -19.6913  -25.6336   21.1228 H   0  0  0  0  0  0
  -19.6718  -27.3244   20.6741 H   0  0  0  0  0  0
  -17.4226  -26.6731   21.3976 H   0  0  0  0  0  0
  -18.0285  -26.0144   22.9004 H   0  0  0  0  0  0
  -19.7955  -30.7308   24.2237 H   0  0  0  0  0  0
  -17.5042  -31.6278   24.5183 H   0  0  0  0  0  0
  -15.5370  -30.3014   23.7729 H   0  0  0  0  0  0
  -15.8660  -28.0871   22.7078 H   0  0  0  0  0  0
  -24.6069  -30.6891   25.7757 H   0  0  0  0  0  0
  -24.8856  -32.2840   26.4663 H   0  0  0  0  0  0
  -25.8148  -30.9025   27.0238 H   0  0  0  0  0  0
  -26.2889  -29.6728   24.1202 H   0  0  0  0  0  0
  -27.4177  -29.7237   25.4545 H   0  0  0  0  0  0
  -27.8723  -30.4286   23.9224 H   0  0  0  0  0  0
  -27.2851  -33.3660   26.1834 H   0  0  0  0  0  0
  -28.4100  -32.6490   25.0356 H   0  0  0  0  0  0
  -28.0605  -31.8403   26.5532 H   0  0  0  0  0  0
  -28.2570  -38.0053   24.7561 H   0  0  0  0  0  0
  -28.1018  -36.2585   24.6277 H   0  0  0  0  0  0
  -27.2275  -37.1348   25.8898 H   0  0  0  0  0  0
  -20.9358  -29.8756   21.6828 H   0  0  0  0  0  0
  -26.0098  -38.2811   24.1545 H   0  0  0  0  0  0
  -29.3931  -20.4657   18.1534 H   0  0  0  0  0  0
  -28.6859  -21.9377   17.5001 H   0  0  0  0  0  0
  -27.6355  -20.6703   18.1386 H   0  0  0  0  0  0
  -29.0989  -24.2864   23.7260 H   0  0  0  0  0  0
  -28.7083  -22.6604   24.2614 H   0  0  0  0  0  0
  -27.4157  -23.7184   23.7152 H   0  0  0  0  0  0
  -27.7788  -19.1115   20.3072 H   0  0  0  0  0  0
  -28.4549  -19.1085   21.8814 H   0  0  0  0  0  0
  -28.5209  -25.6467   22.0595 H   0  0  0  0  0  0
  -26.9682  -25.2458   21.4361 H   0  0  0  0  0  0
  -30.7528  -19.0609   20.3624 H   0  0  0  0  0  0
  -29.7202  -18.1636   19.3145 H   0  0  0  0  0  0
  -29.9411  -17.2839   22.2495 H   0  0  0  0  0  0
  -31.3552  -17.1298   21.2854 H   0  0  0  0  0  0
  -28.8789  -15.5088   21.0038 H   0  0  0  0  0  0
  1 25  1  0  0  0
  1 30  2  0  0  0
  1 83  1  0  0  0
  2  3  1  0  0  0
  2 25  1  0  0  0
  2 84  1  0  0  0
  2 85  1  0  0  0
  3  4  1  0  0  0
  3 86  1  0  0  0
  3 87  1  0  0  0
  4  5  1  0  0  0
  4 88  1  0  0  0
  4 89  1  0  0  0
  5  6  1  0  0  0
  5 26  1  0  0  0
  5 90  1  0  0  0
  6 25  1  0  0  0
  6 91  1  0  0  0
  6 92  1  0  0  0
  7  8  2  0  0  0
  7 26  1  0  0  0
  7 29  1  0  0  0
  8  9  1  0  0  0
  8 22  1  0  0  0
  9 10  1  0  0  0
  9 27  2  0  0  0
 10 11  2  0  0  0
 10 15  1  0  0  0
 11 12  1  0  0  0
 11 93  1  0  0  0
 12 13  2  0  0  0
 12 94  1  0  0  0
 13 14  1  0  0  0
 13 31  1  0  0  0
 14 15  2  0  0  0
 14 95  1  0  0  0
 15 96  1  0  0  0
 16 17  2  0  0  0
 16 21  1  0  0  0
 16 31  1  0  0  0
 17 18  1  0  0  0
 17 97  1  0  0  0
 18 19  2  0  0  0
 18 98  1  0  0  0
 19 20  1  0  0  0
 19 24  1  0  0  0
 20 21  2  0  0  0
 20 99  1  0  0  0
 21 23  1  0  0  0
 22 28  1  0  0  0
 22 32  2  0  0  0
 26 27  1  0  0  0
 28100  1  0  0  0
 28101  1  0  0  0
 29102  1  0  0  0
 29103  1  0  0  0
 33 34  1  0  0  0
 33 66  1  0  0  0
 33 70  2  0  0  0
 34 36  1  0  0  0
 34 59  1  0  0  0
 34104  1  0  0  0
 35 44  2  0  0  0
 35 45  1  0  0  0
 35 68  1  0  0  0
 36 56  1  0  0  0
 36105  1  0  0  0
 37 39  1  0  0  0
 37 47  1  0  0  0
 37 66  1  0  0  0
 37106  1  0  0  0
 38 43  2  0  0  0
 38 46  1  0  0  0
 38 47  1  0  0  0
 39 64  1  0  0  0
 39 67  2  0  0  0
 40 52  1  0  0  0
 40 53  2  0  0  0
 40 58  1  0  0  0
 41107  1  0  0  0
 41108  1  0  0  0
 41109  1  0  0  0
 41 48  1  0  0  0
 42 43  1  0  0  0
 42 66  1  0  0  0
 42110  1  0  0  0
 42111  1  0  0  0
 43 44  1  0  0  0
 44112  1  0  0  0
 45 46  2  0  0  0
 45113  1  0  0  0
 46114  1  0  0  0
 47115  1  0  0  0
 47116  1  0  0  0
 48 56  1  0  0  0
 48 65  1  0  0  0
 48117  1  0  0  0
 49 50  1  0  0  0
 49 53  1  0  0  0
 49 64  1  0  0  0
 49118  1  0  0  0
 50 51  1  0  0  0
 50119  1  0  0  0
 50120  1  0  0  0
 51 52  1  0  0  0
 51121  1  0  0  0
 51122  1  0  0  0
 52123  1  0  0  0
 52124  1  0  0  0
 53 54  1  0  0  0
 54 55  2  0  0  0
 54125  1  0  0  0
 55 57  1  0  0  0
 55126  1  0  0  0
 56 69  2  0  0  0
 57 58  2  0  0  0
 57127  1  0  0  0
 58128  1  0  0  0
 59 60  1  0  0  0
 59 61  1  0  0  0
 59 62  1  0  0  0
 60129  1  0  0  0
 60130  1  0  0  0
 60131  1  0  0  0
 61132  1  0  0  0
 61133  1  0  0  0
 61134  1  0  0  0
 62135  1  0  0  0
 62136  1  0  0  0
 62137  1  0  0  0
 63 65  1  0  0  0
 63138  1  0  0  0
 63139  1  0  0  0
 63140  1  0  0  0
 64141  1  0  0  0
 65142  1  0  0  0
 68 78  1  0  0  0
 71 73  2  0  0  0
 71 75  1  0  0  0
 71 82  1  0  0  0
 72 74  1  0  0  0
 72 76  1  0  0  0
 72 81  2  0  0  0
 73 77  1  0  0  0
 73 81  1  0  0  0
 74 78  1  0  0  0
 74 82  2  0  0  0
 75143  1  0  0  0
 75144  1  0  0  0
 75145  1  0  0  0
 76146  1  0  0  0
 76147  1  0  0  0
 76148  1  0  0  0
 77 79  1  0  0  0
 77149  1  0  0  0
 77150  1  0  0  0
 78151  1  0  0  0
 78152  1  0  0  0
 79 80  1  0  0  0
 79153  1  0  0  0
 79154  1  0  0  0
 80 83  1  0  0  0
 80155  1  0  0  0
 80156  1  0  0  0
 83157  1  0  0  0
M  ISO  4   1 100  68 101  78 101  83 100
M  END
> <chiral flag>
0

> <version>
0

> <s_m_source_file>
/data/baiqing/PycharmProjects/Reinvent-master-3.2/result/LINK_invent/BTK/process_docking_weight1_custom_sum_contain_oxygen_bond_distance_aromatic_linkinvent_7_9_3/rearranged_h_0040.sdf

> <i_m_source_file_index>
23

> <r_mmod_Potential_Energy-OPLS-2005>
167.364944458008

> <r_mmod_Stretch_Energy-OPLS-2005>
92.1641006469727

> <r_mmod_Bend_Energy-OPLS-2005>
166.018447875977

> <r_mmod_Torsional_Energy-OPLS-2005>
254.584533691406

> <r_mmod_Improper_Torsional_Energy-OPLS-2005>
6.2575159072876

> <r_mmod_Van_der_Waal_Energy-OPLS-2005>
142.520492553711

> <r_mmod_Electrostatic_Energy-OPLS-2005>
-327.729766845703

> <r_mmod_Solvation_Energy-OPLS-2005>
-228.3935546875

> <b_mmod_Minimization_Converged-OPLS-2005>
0

> <r_mmod_RMS_Derivative-OPLS-2005>
3.78403210639954

$$$$
23
                    3D
 Structure written by MMmdl.
170178  0  0  1  0            999 V2000
  -30.7467  -14.4206   20.6025 C   0  0  0  0  0  0
  -30.4139  -12.2921   19.4148 C   0  0  0  0  0  0
  -29.4874  -12.5043   18.2025 C   0  0  0  0  0  0
  -28.0097  -12.3732   18.6174 C   0  0  0  0  0  0
  -27.6640  -13.2096   19.8792 C   0  0  2  0  0  0
  -28.7051  -12.9842   20.9987 C   0  0  0  0  0  0
  -25.2593  -13.8180   20.5694 C   0  0  0  0  0  0
  -24.1839  -13.0458   20.9171 C   0  0  0  0  0  0
  -24.6394  -11.6922   20.8746 C   0  0  0  0  0  0
  -23.9071  -10.4302   21.0415 C   0  0  0  0  0  0
  -24.3627   -9.4210   21.9185 C   0  0  0  0  0  0
  -23.6292   -8.2253   22.0763 C   0  0  0  0  0  0
  -22.4271   -8.0294   21.3560 C   0  0  0  0  0  0
  -21.9911   -9.0271   20.4662 C   0  0  0  0  0  0
  -22.7245  -10.2143   20.3062 C   0  0  0  0  0  0
  -21.6853   -6.0743   22.5278 C   0  0  0  0  0  0
  -21.4017   -6.5648   23.8211 C   0  0  0  0  0  0
  -21.3654   -5.6801   24.9174 C   0  0  0  0  0  0
  -21.6045   -4.3063   24.7224 C   0  0  0  0  0  0
  -21.8817   -3.8155   23.4342 C   0  0  0  0  0  0
  -21.9195   -4.6972   22.3401 C   0  0  0  0  0  0
  -22.7859  -13.5250   21.1839 C   0  0  0  0  0  0
  -22.1660   -4.2159   21.0976 F   0  0  0  0  0  0
  -21.5627   -3.4540   25.7733 F   0  0  0  0  0  0
  -30.0385  -13.2725   20.4448 N   0  0  0  0  0  0
  -26.3037  -12.9351   20.3397 N   0  0  0  0  0  0
  -25.9321  -11.6504   20.5781 N   0  0  0  0  0  0
  -22.0506  -12.8262   22.0405 N   0  0  0  0  0  0
  -25.4321  -15.1898   20.4142 N   0  0  0  0  0  0
  -31.8405  -14.6051   20.0629 O   0  0  0  0  0  0
  -21.6644   -6.8884   21.4237 O   0  0  0  0  0  0
  -22.3553  -14.5556   20.6677 O   0  0  0  0  0  0
  -24.6106  -31.8682   23.2114 C   0  0  0  0  0  0
  -25.9020  -32.4814   23.8380 C   0  0  1  0  0  0
  -27.2408  -27.4495   20.0863 C   0  0  0  0  0  0
  -25.5898  -33.8615   24.2308 N   0  0  0  0  0  0
  -23.3970  -30.4921   21.5492 C   0  0  2  0  0  0
  -24.8436  -28.9559   20.1173 C   0  0  0  0  0  0
  -22.7387  -29.4656   22.4977 C   0  0  0  0  0  0
  -18.0252  -28.1375   22.8485 C   0  0  0  0  0  0
  -24.1498  -36.7315   23.2643 C   0  0  0  0  0  0
  -25.9220  -30.8409   21.3582 C   0  0  0  0  0  0
  -26.0010  -29.4734   20.7095 C   0  0  0  0  0  0
  -27.1989  -28.7261   20.6913 C   0  0  0  0  0  0
  -26.0605  -26.9362   19.4998 C   0  0  0  0  0  0
  -24.8663  -27.6842   19.5144 C   0  0  0  0  0  0
  -23.6055  -29.8224   20.1640 C   0  0  0  0  0  0
  -25.4119  -36.3094   24.0328 C   0  0  1  0  0  0
  -20.5857  -28.3643   23.1320 C   0  0  2  0  0  0
  -20.6763  -26.9382   22.5411 C   0  0  0  0  0  0
  -19.5744  -26.6373   21.5208 C   0  0  0  0  0  0
  -18.1915  -26.7920   22.1611 C   0  0  0  0  0  0
  -19.1503  -28.8817   23.2909 C   0  0  0  0  0  0
  -18.9441  -30.1436   23.8900 C   0  0  0  0  0  0
  -17.6451  -30.6582   24.0560 C   0  0  0  0  0  0
  -25.9047  -34.9468   23.5115 C   0  0  0  0  0  0
  -16.5345  -29.9087   23.6324 C   0  0  0  0  0  0
  -16.7246  -28.6515   23.0321 C   0  0  0  0  0  0
  -26.4482  -31.6591   25.0678 C   0  0  0  0  0  0
  -25.3774  -31.3653   26.1433 C   0  0  0  0  0  0
  -27.0303  -30.3046   24.5996 C   0  0  0  0  0  0
  -27.6053  -32.4315   25.7442 C   0  0  0  0  0  0
  -27.5588  -37.1805   24.8464 C   0  0  0  0  0  0
  -21.4116  -29.3031   22.3739 N   0  0  0  0  0  0
  -26.4302  -37.3777   23.9414 N   0  0  0  0  0  0
  -24.6613  -31.0812   22.0993 N   0  0  0  0  0  0
  -23.4192  -28.8203   23.3002 O   0  0  0  0  0  0
  -28.4556  -26.7961   20.0675 O   0  0  0  0  0  0
  -26.5597  -34.8916   22.4667 O   0  0  0  0  0  0
  -23.5305  -32.1429   23.7520 O   0  0  0  0  0  0
  -28.5471  -20.6980   21.3864 C   0  0  0  0  0  0
  -30.5955  -21.6984   20.6166 C   0  0  0  0  0  0
  -29.8888  -20.5425   20.9917 C   0  0  0  0  0  0
  -27.9752  -21.9938   21.4282 C   0  0  0  0  0  0
  -28.7685  -23.0949   21.0088 C   0  0  0  0  0  0
  -23.4736  -21.5402   22.5039 C   0  0  0  0  0  0
  -24.2989  -20.3280   24.5579 C   0  0  0  0  0  0
  -30.6329  -19.2051   21.0269 C   0  0  0  0  0  0
  -26.5511  -22.1962   21.9524 C   0  0  0  0  0  0
  -28.2944  -24.5584   21.0770 C   0  0  0  0  0  0
  -29.8181  -17.9026   21.2308 C   0  0  0  0  0  0
  -25.9601  -21.0281   22.7710 C   0  0  0  0  0  0
  -30.7594  -16.7195   21.5541 C   0  0  0  0  0  0
  -28.5508  -25.3916   19.8008 C   0  0  0  0  0  0
  -24.6420  -21.3804   23.4913 C   0  0  0  0  0  0
  -30.0568  -22.9344   20.6328 N   0  0  0  0  0  0
  -30.1624  -15.3950   21.3202 N   0  0  0  0  0  0
  -31.4581  -12.3765   19.1088 H   0  0  0  0  0  0
  -30.3072  -11.2796   19.8083 H   0  0  0  0  0  0
  -29.7219  -11.7791   17.4219 H   0  0  0  0  0  0
  -29.6627  -13.4890   17.7667 H   0  0  0  0  0  0
  -27.8132  -11.3174   18.8064 H   0  0  0  0  0  0
  -27.3586  -12.6572   17.7890 H   0  0  0  0  0  0
  -27.7127  -14.2604   19.5894 H   0  0  0  0  0  0
  -28.6709  -11.9493   21.3432 H   0  0  0  0  0  0
  -28.4688  -13.5909   21.8736 H   0  0  0  0  0  0
  -25.2770   -9.5680   22.4767 H   0  0  0  0  0  0
  -24.0000   -7.4641   22.7480 H   0  0  0  0  0  0
  -21.0847   -8.8793   19.8968 H   0  0  0  0  0  0
  -22.3706  -10.9691   19.6182 H   0  0  0  0  0  0
  -21.2008   -7.6154   23.9717 H   0  0  0  0  0  0
  -21.1479   -6.0530   25.9079 H   0  0  0  0  0  0
  -22.0600   -2.7615   23.2839 H   0  0  0  0  0  0
  -22.4125  -11.9933   22.4810 H   0  0  0  0  0  0
  -21.1134  -13.1309   22.2632 H   0  0  0  0  0  0
  -24.6683  -15.8454   20.5346 H   0  0  0  0  0  0
  -26.2906  -15.6315   20.1105 H   0  0  0  0  0  0
  -26.7099  -32.5542   23.1158 H   0  0  0  0  0  0
  -25.0032  -33.9780   25.0435 H   0  0  0  0  0  0
  -22.6814  -31.3048   21.4089 H   0  0  0  0  0  0
  -23.3740  -35.9672   23.3311 H   0  0  0  0  0  0
  -24.3588  -36.8920   22.2061 H   0  0  0  0  0  0
  -23.7287  -37.6532   23.6662 H   0  0  0  0  0  0
  -26.0198  -31.6085   20.5893 H   0  0  0  0  0  0
  -26.8181  -30.9008   21.9644 H   0  0  0  0  0  0
  -28.0989  -29.1272   21.1367 H   0  0  0  0  0  0
  -26.0435  -25.9757   19.0082 H   0  0  0  0  0  0
  -23.9751  -27.2824   19.0526 H   0  0  0  0  0  0
  -23.7142  -30.5971   19.4048 H   0  0  0  0  0  0
  -22.7298  -29.2423   19.8653 H   0  0  0  0  0  0
  -25.1294  -36.1958   25.0819 H   0  0  0  0  0  0
  -20.9934  -28.3221   24.1446 H   0  0  0  0  0  0
  -20.5679  -26.2244   23.3610 H   0  0  0  0  0  0
  -21.6631  -26.7439   22.1198 H   0  0  0  0  0  0
  -19.6927  -25.6281   21.1234 H   0  0  0  0  0  0
  -19.6701  -27.3181   20.6752 H   0  0  0  0  0  0
  -17.4193  -26.6655   21.4007 H   0  0  0  0  0  0
  -18.0314  -26.0055   22.8998 H   0  0  0  0  0  0
  -19.7926  -30.7235   24.2268 H   0  0  0  0  0  0
  -17.5017  -31.6255   24.5156 H   0  0  0  0  0  0
  -15.5350  -30.2992   23.7656 H   0  0  0  0  0  0
  -15.8648  -28.0865   22.7003 H   0  0  0  0  0  0
  -24.5969  -30.6967   25.7786 H   0  0  0  0  0  0
  -24.8916  -32.2768   26.4904 H   0  0  0  0  0  0
  -25.8155  -30.8830   27.0178 H   0  0  0  0  0  0
  -26.2791  -29.6787   24.1147 H   0  0  0  0  0  0
  -27.4199  -29.7289   25.4405 H   0  0  0  0  0  0
  -27.8577  -30.4379   23.9020 H   0  0  0  0  0  0
  -27.2686  -33.3621   26.2034 H   0  0  0  0  0  0
  -28.3873  -32.6859   25.0275 H   0  0  0  0  0  0
  -28.0729  -31.8427   26.5346 H   0  0  0  0  0  0
  -28.2583  -38.0123   24.7496 H   0  0  0  0  0  0
  -28.1093  -36.2631   24.6295 H   0  0  0  0  0  0
  -27.2282  -37.1455   25.8860 H   0  0  0  0  0  0
  -20.9257  -29.8796   21.7012 H   0  0  0  0  0  0
  -26.0170  -38.2845   24.1435 H   0  0  0  0  0  0
  -27.9794  -19.8349   21.6940 H   0  0  0  0  0  0
  -31.6322  -21.6369   20.3176 H   0  0  0  0  0  0
  -22.5473  -21.7909   23.0233 H   0  0  0  0  0  0
  -23.2962  -20.6223   21.9404 H   0  0  0  0  0  0
  -23.6658  -22.3377   21.7864 H   0  0  0  0  0  0
  -23.3909  -20.5971   25.1004 H   0  0  0  0  0  0
  -25.0986  -20.2394   25.2938 H   0  0  0  0  0  0
  -24.1448  -19.3430   24.1144 H   0  0  0  0  0  0
  -31.3761  -19.2833   21.8221 H   0  0  0  0  0  0
  -31.2063  -19.1155   20.1016 H   0  0  0  0  0  0
  -25.9093  -22.4347   21.1051 H   0  0  0  0  0  0
  -26.5505  -23.0695   22.6052 H   0  0  0  0  0  0
  -28.7971  -25.0248   21.9255 H   0  0  0  0  0  0
  -27.2297  -24.6319   21.2885 H   0  0  0  0  0  0
  -29.2223  -17.6986   20.3399 H   0  0  0  0  0  0
  -29.1207  -18.0060   22.0619 H   0  0  0  0  0  0
  -26.6897  -20.7419   23.5300 H   0  0  0  0  0  0
  -25.8103  -20.1510   22.1404 H   0  0  0  0  0  0
  -31.0709  -16.7784   22.5975 H   0  0  0  0  0  0
  -31.6786  -16.8376   20.9768 H   0  0  0  0  0  0
  -27.9447  -25.0562   18.9619 H   0  0  0  0  0  0
  -29.5821  -25.2460   19.4806 H   0  0  0  0  0  0
  -24.7850  -22.3292   24.0125 H   0  0  0  0  0  0
  -29.2608  -15.1949   21.7283 H   0  0  0  0  0  0
  1 25  1  0  0  0
  1 30  2  0  0  0
  1 87  1  0  0  0
  2  3  1  0  0  0
  2 25  1  0  0  0
  2 88  1  0  0  0
  2 89  1  0  0  0
  3  4  1  0  0  0
  3 90  1  0  0  0
  3 91  1  0  0  0
  4  5  1  0  0  0
  4 92  1  0  0  0
  4 93  1  0  0  0
  5  6  1  0  0  0
  5 26  1  0  0  0
  5 94  1  0  0  0
  6 25  1  0  0  0
  6 95  1  0  0  0
  6 96  1  0  0  0
  7  8  2  0  0  0
  7 26  1  0  0  0
  7 29  1  0  0  0
  8  9  1  0  0  0
  8 22  1  0  0  0
  9 10  1  0  0  0
  9 27  2  0  0  0
 10 11  2  0  0  0
 10 15  1  0  0  0
 11 12  1  0  0  0
 11 97  1  0  0  0
 12 13  2  0  0  0
 12 98  1  0  0  0
 13 14  1  0  0  0
 13 31  1  0  0  0
 14 15  2  0  0  0
 14 99  1  0  0  0
 15100  1  0  0  0
 16 17  2  0  0  0
 16 21  1  0  0  0
 16 31  1  0  0  0
 17 18  1  0  0  0
 17101  1  0  0  0
 18 19  2  0  0  0
 18102  1  0  0  0
 19 20  1  0  0  0
 19 24  1  0  0  0
 20 21  2  0  0  0
 20103  1  0  0  0
 21 23  1  0  0  0
 22 28  1  0  0  0
 22 32  2  0  0  0
 26 27  1  0  0  0
 28104  1  0  0  0
 28105  1  0  0  0
 29106  1  0  0  0
 29107  1  0  0  0
 33 34  1  0  0  0
 33 66  1  0  0  0
 33 70  2  0  0  0
 34 36  1  0  0  0
 34 59  1  0  0  0
 34108  1  0  0  0
 35 44  2  0  0  0
 35 45  1  0  0  0
 35 68  1  0  0  0
 36 56  1  0  0  0
 36109  1  0  0  0
 37 39  1  0  0  0
 37 47  1  0  0  0
 37 66  1  0  0  0
 37110  1  0  0  0
 38 43  2  0  0  0
 38 46  1  0  0  0
 38 47  1  0  0  0
 39 64  1  0  0  0
 39 67  2  0  0  0
 40 52  1  0  0  0
 40 53  2  0  0  0
 40 58  1  0  0  0
 41111  1  0  0  0
 41112  1  0  0  0
 41113  1  0  0  0
 41 48  1  0  0  0
 42 43  1  0  0  0
 42 66  1  0  0  0
 42114  1  0  0  0
 42115  1  0  0  0
 43 44  1  0  0  0
 44116  1  0  0  0
 45 46  2  0  0  0
 45117  1  0  0  0
 46118  1  0  0  0
 47119  1  0  0  0
 47120  1  0  0  0
 48 56  1  0  0  0
 48 65  1  0  0  0
 48121  1  0  0  0
 49 50  1  0  0  0
 49 53  1  0  0  0
 49 64  1  0  0  0
 49122  1  0  0  0
 50 51  1  0  0  0
 50123  1  0  0  0
 50124  1  0  0  0
 51 52  1  0  0  0
 51125  1  0  0  0
 51126  1  0  0  0
 52127  1  0  0  0
 52128  1  0  0  0
 53 54  1  0  0  0
 54 55  2  0  0  0
 54129  1  0  0  0
 55 57  1  0  0  0
 55130  1  0  0  0
 56 69  2  0  0  0
 57 58  2  0  0  0
 57131  1  0  0  0
 58132  1  0  0  0
 59 60  1  0  0  0
 59 61  1  0  0  0
 59 62  1  0  0  0
 60133  1  0  0  0
 60134  1  0  0  0
 60135  1  0  0  0
 61136  1  0  0  0
 61137  1  0  0  0
 61138  1  0  0  0
 62139  1  0  0  0
 62140  1  0  0  0
 62141  1  0  0  0
 63 65  1  0  0  0
 63142  1  0  0  0
 63143  1  0  0  0
 63144  1  0  0  0
 64145  1  0  0  0
 65146  1  0  0  0
 68 84  1  0  0  0
 71 73  2  0  0  0
 71 74  1  0  0  0
 71147  1  0  0  0
 72 73  1  0  0  0
 72 86  2  0  0  0
 72148  1  0  0  0
 73 78  1  0  0  0
 74 75  2  0  0  0
 74 79  1  0  0  0
 75 80  1  0  0  0
 75 86  1  0  0  0
 76149  1  0  0  0
 76150  1  0  0  0
 76151  1  0  0  0
 76 85  1  0  0  0
 77 85  1  0  0  0
 77152  1  0  0  0
 77153  1  0  0  0
 77154  1  0  0  0
 78 81  1  0  0  0
 78155  1  0  0  0
 78156  1  0  0  0
 79 82  1  0  0  0
 79157  1  0  0  0
 79158  1  0  0  0
 80 84  1  0  0  0
 80159  1  0  0  0
 80160  1  0  0  0
 81 83  1  0  0  0
 81161  1  0  0  0
 81162  1  0  0  0
 82 85  1  0  0  0
 82163  1  0  0  0
 82164  1  0  0  0
 83 87  1  0  0  0
 83165  1  0  0  0
 83166  1  0  0  0
 84167  1  0  0  0
 84168  1  0  0  0
 85169  1  0  0  0
 87170  1  0  0  0
M  ISO  4   1 100  68 101  84 101  87 100
M  END
> <chiral flag>
0

> <version>
0

> <s_m_source_file>
/data/baiqing/PycharmProjects/Reinvent-master-3.2/result/LINK_invent/BTK/process_docking_weight1_custom_sum_contain_oxygen_bond_distance_aromatic_linkinvent_7_9_3/rearranged_h_0040.sdf

> <i_m_source_file_index>
24

> <r_mmod_Potential_Energy-OPLS-2005>
-181.691207885742

> <r_mmod_Stretch_Energy-OPLS-2005>
36.8517036437988

> <r_mmod_Bend_Energy-OPLS-2005>
114.507781982422

> <r_mmod_Torsional_Energy-OPLS-2005>
189.152267456055

> <r_mmod_Improper_Torsional_Energy-OPLS-2005>
2.64184856414795

> <r_mmod_Van_der_Waal_Energy-OPLS-2005>
164.432113647461

> <r_mmod_Electrostatic_Energy-OPLS-2005>
-483.854156494141

> <r_mmod_Solvation_Energy-OPLS-2005>
-215.254760742188

> <b_mmod_Minimization_Converged-OPLS-2005>
0

> <r_mmod_RMS_Derivative-OPLS-2005>
2.70055770874023

$$$$
24
                    3D
 Structure written by MMmdl.
160168  0  0  1  0            999 V2000
  -30.7376  -14.4514   20.5892 C   0  0  0  0  0  0
  -30.4180  -12.3050   19.4166 C   0  0  0  0  0  0
  -29.4844  -12.5025   18.2046 C   0  0  0  0  0  0
  -28.0080  -12.3747   18.6234 C   0  0  0  0  0  0
  -27.6613  -13.2156   19.8800 C   0  0  2  0  0  0
  -28.7074  -12.9998   20.9980 C   0  0  0  0  0  0
  -25.2555  -13.8190   20.5700 C   0  0  0  0  0  0
  -24.1813  -13.0447   20.9202 C   0  0  0  0  0  0
  -24.6389  -11.6922   20.8775 C   0  0  0  0  0  0
  -23.9060  -10.4293   21.0442 C   0  0  0  0  0  0
  -24.3614   -9.4195   21.9202 C   0  0  0  0  0  0
  -23.6290   -8.2232   22.0764 C   0  0  0  0  0  0
  -22.4267   -8.0287   21.3554 C   0  0  0  0  0  0
  -21.9912   -9.0263   20.4652 C   0  0  0  0  0  0
  -22.7249  -10.2136   20.3076 C   0  0  0  0  0  0
  -21.6844   -6.0733   22.5284 C   0  0  0  0  0  0
  -21.4004   -6.5644   23.8214 C   0  0  0  0  0  0
  -21.3650   -5.6802   24.9178 C   0  0  0  0  0  0
  -21.6044   -4.3068   24.7224 C   0  0  0  0  0  0
  -21.8822   -3.8147   23.4346 C   0  0  0  0  0  0
  -21.9181   -4.6963   22.3399 C   0  0  0  0  0  0
  -22.7834  -13.5230   21.1875 C   0  0  0  0  0  0
  -22.1669   -4.2152   21.0976 F   0  0  0  0  0  0
  -21.5617   -3.4555   25.7736 F   0  0  0  0  0  0
  -30.0406  -13.2921   20.4415 N   0  0  0  0  0  0
  -26.3018  -12.9373   20.3432 N   0  0  0  0  0  0
  -25.9320  -11.6521   20.5831 N   0  0  0  0  0  0
  -22.0484  -12.8188   22.0427 N   0  0  0  0  0  0
  -25.4237  -15.1915   20.4081 N   0  0  0  0  0  0
  -31.8462  -14.6372   20.0801 O   0  0  0  0  0  0
  -21.6636   -6.8878   21.4253 O   0  0  0  0  0  0
  -22.3497  -14.5537   20.6766 O   0  0  0  0  0  0
  -24.6203  -31.8715   23.2166 C   0  0  0  0  0  0
  -25.9092  -32.4837   23.8450 C   0  0  1  0  0  0
  -27.2004  -27.3912   20.0868 C   0  0  0  0  0  0
  -25.5943  -33.8637   24.2375 N   0  0  0  0  0  0
  -23.4073  -30.5058   21.5595 C   0  0  2  0  0  0
  -24.8475  -28.9952   20.1058 C   0  0  0  0  0  0
  -22.7442  -29.4697   22.4976 C   0  0  0  0  0  0
  -18.0277  -28.1368   22.8496 C   0  0  0  0  0  0
  -24.1491  -36.7318   23.2633 C   0  0  0  0  0  0
  -25.9491  -30.8231   21.3845 C   0  0  0  0  0  0
  -26.0188  -29.4622   20.7170 C   0  0  0  0  0  0
  -27.1987  -28.6674   20.7136 C   0  0  0  0  0  0
  -26.0092  -27.0014   19.4117 C   0  0  0  0  0  0
  -24.8410  -27.7647   19.4473 C   0  0  0  0  0  0
  -23.6149  -29.8646   20.1670 C   0  0  0  0  0  0
  -25.4106  -36.3124   24.0349 C   0  0  1  0  0  0
  -20.5879  -28.3684   23.1292 C   0  0  2  0  0  0
  -20.6776  -26.9419   22.5400 C   0  0  0  0  0  0
  -19.5745  -26.6386   21.5209 C   0  0  0  0  0  0
  -18.1925  -26.7911   22.1629 C   0  0  0  0  0  0
  -19.1529  -28.8840   23.2890 C   0  0  0  0  0  0
  -18.9457  -30.1442   23.8909 C   0  0  0  0  0  0
  -17.6462  -30.6578   24.0564 C   0  0  0  0  0  0
  -25.9053  -34.9485   23.5157 C   0  0  0  0  0  0
  -16.5352  -29.9083   23.6322 C   0  0  0  0  0  0
  -16.7268  -28.6488   23.0365 C   0  0  0  0  0  0
  -26.4486  -31.6599   25.0771 C   0  0  0  0  0  0
  -25.3733  -31.3709   26.1509 C   0  0  0  0  0  0
  -27.0314  -30.3030   24.6173 C   0  0  0  0  0  0
  -27.6074  -32.4296   25.7524 C   0  0  0  0  0  0
  -27.5596  -37.1800   24.8450 C   0  0  0  0  0  0
  -21.4169  -29.3061   22.3706 N   0  0  0  0  0  0
  -26.4292  -37.3823   23.9428 N   0  0  0  0  0  0
  -24.6775  -31.0792   22.1102 N   0  0  0  0  0  0
  -23.4204  -28.8212   23.3005 O   0  0  0  0  0  0
  -28.2843  -26.5103   20.1816 O   0  0  0  0  0  0
  -26.5600  -34.8927   22.4709 O   0  0  0  0  0  0
  -23.5383  -32.1497   23.7523 O   0  0  0  0  0  0
  -30.6152  -22.8036   21.0416 C   0  0  0  0  0  0
  -28.0249  -22.6191   20.3233 C   0  0  0  0  0  0
  -29.9683  -21.5350   20.9257 C   0  0  0  0  0  0
  -28.6693  -23.8888   20.4077 C   0  0  0  0  0  0
  -32.0637  -22.9322   21.4679 C   0  0  0  0  0  0
  -26.5527  -22.4564   19.9745 C   0  0  0  0  0  0
  -30.6505  -20.1692   21.1058 C   0  0  0  0  0  0
  -27.8556  -25.1268   20.0070 C   0  0  0  0  0  0
  -29.9838  -19.2444   22.1629 C   0  0  0  0  0  0
  -29.5196  -17.8402   21.6828 C   0  0  0  0  0  0
  -30.6395  -16.8091   21.4150 C   0  0  0  0  0  0
  -28.6740  -21.4589   20.5552 N   0  0  0  0  0  0
  -29.9733  -23.9796   20.7734 N   0  0  0  0  0  0
  -30.1083  -15.4471   21.2353 N   0  0  0  0  0  0
  -31.4605  -12.4002   19.1081 H   0  0  0  0  0  0
  -30.3203  -11.2956   19.8198 H   0  0  0  0  0  0
  -29.7134  -11.7715   17.4270 H   0  0  0  0  0  0
  -29.6547  -13.4845   17.7616 H   0  0  0  0  0  0
  -27.8100  -11.3209   18.8199 H   0  0  0  0  0  0
  -27.3546  -12.6562   17.7979 H   0  0  0  0  0  0
  -27.7048  -14.2628   19.5809 H   0  0  0  0  0  0
  -28.6746  -11.9683   21.3514 H   0  0  0  0  0  0
  -28.4729  -13.6098   21.8697 H   0  0  0  0  0  0
  -25.2768   -9.5648   22.4762 H   0  0  0  0  0  0
  -23.9994   -7.4597   22.7465 H   0  0  0  0  0  0
  -21.0844   -8.8798   19.8932 H   0  0  0  0  0  0
  -22.3742  -10.9680   19.6178 H   0  0  0  0  0  0
  -21.2022   -7.6159   23.9725 H   0  0  0  0  0  0
  -21.1468   -6.0530   25.9077 H   0  0  0  0  0  0
  -22.0605   -2.7612   23.2853 H   0  0  0  0  0  0
  -22.4151  -11.9856   22.4766 H   0  0  0  0  0  0
  -21.1120  -13.1192   22.2725 H   0  0  0  0  0  0
  -24.6579  -15.8484   20.5107 H   0  0  0  0  0  0
  -26.2827  -15.6286   20.0970 H   0  0  0  0  0  0
  -26.7174  -32.5533   23.1214 H   0  0  0  0  0  0
  -25.0103  -33.9805   25.0528 H   0  0  0  0  0  0
  -22.6975  -31.3262   21.4310 H   0  0  0  0  0  0
  -23.3769  -35.9629   23.3265 H   0  0  0  0  0  0
  -24.3600  -36.8957   22.2055 H   0  0  0  0  0  0
  -23.7204  -37.6501   23.6652 H   0  0  0  0  0  0
  -26.0802  -31.5960   20.6253 H   0  0  0  0  0  0
  -26.8315  -30.8597   22.0123 H   0  0  0  0  0  0
  -28.0882  -29.0108   21.2247 H   0  0  0  0  0  0
  -25.9141  -26.0843   18.8514 H   0  0  0  0  0  0
  -23.9490  -27.4103   18.9481 H   0  0  0  0  0  0
  -23.7283  -30.6520   19.4209 H   0  0  0  0  0  0
  -22.7356  -29.2953   19.8600 H   0  0  0  0  0  0
  -25.1267  -36.2008   25.0837 H   0  0  0  0  0  0
  -20.9962  -28.3248   24.1417 H   0  0  0  0  0  0
  -20.5690  -26.2303   23.3596 H   0  0  0  0  0  0
  -21.6642  -26.7466   22.1191 H   0  0  0  0  0  0
  -19.6918  -25.6296   21.1234 H   0  0  0  0  0  0
  -19.6663  -27.3199   20.6738 H   0  0  0  0  0  0
  -17.4198  -26.6663   21.4028 H   0  0  0  0  0  0
  -18.0333  -26.0037   22.9010 H   0  0  0  0  0  0
  -19.7936  -30.7241   24.2295 H   0  0  0  0  0  0
  -17.5020  -31.6255   24.5168 H   0  0  0  0  0  0
  -15.5352  -30.3002   23.7611 H   0  0  0  0  0  0
  -15.8669  -28.0797   22.7100 H   0  0  0  0  0  0
  -24.5894  -30.7082   25.7823 H   0  0  0  0  0  0
  -24.8944  -32.2871   26.4973 H   0  0  0  0  0  0
  -25.8069  -30.8845   27.0257 H   0  0  0  0  0  0
  -26.2879  -29.6797   24.1195 H   0  0  0  0  0  0
  -27.4033  -29.7257   25.4646 H   0  0  0  0  0  0
  -27.8743  -30.4332   23.9382 H   0  0  0  0  0  0
  -27.2711  -33.3575   26.2159 H   0  0  0  0  0  0
  -28.3846  -32.6886   25.0319 H   0  0  0  0  0  0
  -28.0788  -31.8382   26.5384 H   0  0  0  0  0  0
  -28.2570  -38.0150   24.7597 H   0  0  0  0  0  0
  -28.1144  -36.2689   24.6149 H   0  0  0  0  0  0
  -27.2334  -37.1299   25.8857 H   0  0  0  0  0  0
  -20.9333  -29.8822   21.6964 H   0  0  0  0  0  0
  -26.0184  -38.2891   24.1462 H   0  0  0  0  0  0
  -32.7113  -22.3164   20.8449 H   0  0  0  0  0  0
  -32.1745  -22.6157   22.5054 H   0  0  0  0  0  0
  -32.4095  -23.9638   21.3928 H   0  0  0  0  0  0
  -26.3201  -22.9070   19.0106 H   0  0  0  0  0  0
  -25.9279  -22.9205   20.7374 H   0  0  0  0  0  0
  -26.2681  -21.4044   19.9259 H   0  0  0  0  0  0
  -31.6950  -20.3074   21.3772 H   0  0  0  0  0  0
  -30.6690  -19.6736   20.1344 H   0  0  0  0  0  0
  -26.9326  -24.9959   20.5756 H   0  0  0  0  0  0
  -27.6516  -24.9675   18.9483 H   0  0  0  0  0  0
  -29.1047  -19.7489   22.5659 H   0  0  0  0  0  0
  -30.6518  -19.1349   23.0177 H   0  0  0  0  0  0
  -28.8938  -17.9413   20.7938 H   0  0  0  0  0  0
  -28.8640  -17.4366   22.4562 H   0  0  0  0  0  0
  -31.3441  -16.7944   22.2465 H   0  0  0  0  0  0
  -31.2065  -17.1117   20.5317 H   0  0  0  0  0  0
  -29.1936  -15.2423   21.6081 H   0  0  0  0  0  0
  1 25  1  0  0  0
  1 30  2  0  0  0
  1 84  1  0  0  0
  2  3  1  0  0  0
  2 25  1  0  0  0
  2 85  1  0  0  0
  2 86  1  0  0  0
  3  4  1  0  0  0
  3 87  1  0  0  0
  3 88  1  0  0  0
  4  5  1  0  0  0
  4 89  1  0  0  0
  4 90  1  0  0  0
  5  6  1  0  0  0
  5 26  1  0  0  0
  5 91  1  0  0  0
  6 25  1  0  0  0
  6 92  1  0  0  0
  6 93  1  0  0  0
  7  8  2  0  0  0
  7 26  1  0  0  0
  7 29  1  0  0  0
  8  9  1  0  0  0
  8 22  1  0  0  0
  9 10  1  0  0  0
  9 27  2  0  0  0
 10 11  2  0  0  0
 10 15  1  0  0  0
 11 12  1  0  0  0
 11 94  1  0  0  0
 12 13  2  0  0  0
 12 95  1  0  0  0
 13 14  1  0  0  0
 13 31  1  0  0  0
 14 15  2  0  0  0
 14 96  1  0  0  0
 15 97  1  0  0  0
 16 17  2  0  0  0
 16 21  1  0  0  0
 16 31  1  0  0  0
 17 18  1  0  0  0
 17 98  1  0  0  0
 18 19  2  0  0  0
 18 99  1  0  0  0
 19 20  1  0  0  0
 19 24  1  0  0  0
 20 21  2  0  0  0
 20100  1  0  0  0
 21 23  1  0  0  0
 22 28  1  0  0  0
 22 32  2  0  0  0
 26 27  1  0  0  0
 28101  1  0  0  0
 28102  1  0  0  0
 29103  1  0  0  0
 29104  1  0  0  0
 33 34  1  0  0  0
 33 66  1  0  0  0
 33 70  2  0  0  0
 34 36  1  0  0  0
 34 59  1  0  0  0
 34105  1  0  0  0
 35 44  2  0  0  0
 35 45  1  0  0  0
 35 68  1  0  0  0
 36 56  1  0  0  0
 36106  1  0  0  0
 37 39  1  0  0  0
 37 47  1  0  0  0
 37 66  1  0  0  0
 37107  1  0  0  0
 38 43  2  0  0  0
 38 46  1  0  0  0
 38 47  1  0  0  0
 39 64  1  0  0  0
 39 67  2  0  0  0
 40 52  1  0  0  0
 40 53  2  0  0  0
 40 58  1  0  0  0
 41108  1  0  0  0
 41109  1  0  0  0
 41110  1  0  0  0
 41 48  1  0  0  0
 42 43  1  0  0  0
 42 66  1  0  0  0
 42111  1  0  0  0
 42112  1  0  0  0
 43 44  1  0  0  0
 44113  1  0  0  0
 45 46  2  0  0  0
 45114  1  0  0  0
 46115  1  0  0  0
 47116  1  0  0  0
 47117  1  0  0  0
 48 56  1  0  0  0
 48 65  1  0  0  0
 48118  1  0  0  0
 49 50  1  0  0  0
 49 53  1  0  0  0
 49 64  1  0  0  0
 49119  1  0  0  0
 50 51  1  0  0  0
 50120  1  0  0  0
 50121  1  0  0  0
 51 52  1  0  0  0
 51122  1  0  0  0
 51123  1  0  0  0
 52124  1  0  0  0
 52125  1  0  0  0
 53 54  1  0  0  0
 54 55  2  0  0  0
 54126  1  0  0  0
 55 57  1  0  0  0
 55127  1  0  0  0
 56 69  2  0  0  0
 57 58  2  0  0  0
 57128  1  0  0  0
 58129  1  0  0  0
 59 60  1  0  0  0
 59 61  1  0  0  0
 59 62  1  0  0  0
 60130  1  0  0  0
 60131  1  0  0  0
 60132  1  0  0  0
 61133  1  0  0  0
 61134  1  0  0  0
 61135  1  0  0  0
 62136  1  0  0  0
 62137  1  0  0  0
 62138  1  0  0  0
 63 65  1  0  0  0
 63139  1  0  0  0
 63140  1  0  0  0
 63141  1  0  0  0
 64142  1  0  0  0
 65143  1  0  0  0
 68 78  1  0  0  0
 71 73  2  0  0  0
 71 75  1  0  0  0
 71 83  1  0  0  0
 72 74  1  0  0  0
 72 76  1  0  0  0
 72 82  2  0  0  0
 73 77  1  0  0  0
 73 82  1  0  0  0
 74 78  1  0  0  0
 74 83  2  0  0  0
 75144  1  0  0  0
 75145  1  0  0  0
 75146  1  0  0  0
 76147  1  0  0  0
 76148  1  0  0  0
 76149  1  0  0  0
 77 79  1  0  0  0
 77150  1  0  0  0
 77151  1  0  0  0
 78152  1  0  0  0
 78153  1  0  0  0
 79 80  1  0  0  0
 79154  1  0  0  0
 79155  1  0  0  0
 80 81  1  0  0  0
 80156  1  0  0  0
 80157  1  0  0  0
 81 84  1  0  0  0
 81158  1  0  0  0
 81159  1  0  0  0
 84160  1  0  0  0
M  ISO  4   1 100  68 101  78 101  84 100
M  END
> <chiral flag>
0

> <version>
0

> <s_m_source_file>
/data/baiqing/PycharmProjects/Reinvent-master-3.2/result/LINK_invent/BTK/process_docking_weight1_custom_sum_contain_oxygen_bond_distance_aromatic_linkinvent_7_9_3/rearranged_h_0040.sdf

> <i_m_source_file_index>
25

> <r_mmod_Potential_Energy-OPLS-2005>
34.586856842041

> <r_mmod_Stretch_Energy-OPLS-2005>
47.0945358276367

> <r_mmod_Bend_Energy-OPLS-2005>
123.294738769531

> <r_mmod_Torsional_Energy-OPLS-2005>
205.510345458984

> <r_mmod_Improper_Torsional_Energy-OPLS-2005>
2.86179423332214

> <r_mmod_Van_der_Waal_Energy-OPLS-2005>
180.096618652344

> <r_mmod_Electrostatic_Energy-OPLS-2005>
-323.388977050781

> <r_mmod_Solvation_Energy-OPLS-2005>
-226.424270629883

> <b_mmod_Minimization_Converged-OPLS-2005>
0

> <r_mmod_RMS_Derivative-OPLS-2005>
2.44460821151733

$$$$
25
                    3D
 Structure written by MMmdl.
164172  0  0  1  0            999 V2000
  -30.7269  -14.4214   20.5875 C   0  0  0  0  0  0
  -30.4112  -12.2875   19.4059 C   0  0  0  0  0  0
  -29.4838  -12.5232   18.1969 C   0  0  0  0  0  0
  -28.0068  -12.3857   18.6140 C   0  0  0  0  0  0
  -27.6622  -13.2115   19.8838 C   0  0  2  0  0  0
  -28.7054  -12.9716   21.0004 C   0  0  0  0  0  0
  -25.2566  -13.8183   20.5704 C   0  0  0  0  0  0
  -24.1813  -13.0441   20.9173 C   0  0  0  0  0  0
  -24.6379  -11.6924   20.8710 C   0  0  0  0  0  0
  -23.9063  -10.4307   21.0402 C   0  0  0  0  0  0
  -24.3628   -9.4230   21.9174 C   0  0  0  0  0  0
  -23.6310   -8.2256   22.0751 C   0  0  0  0  0  0
  -22.4285   -8.0286   21.3554 C   0  0  0  0  0  0
  -21.9921   -9.0252   20.4660 C   0  0  0  0  0  0
  -22.7241  -10.2137   20.3065 C   0  0  0  0  0  0
  -21.6857   -6.0741   22.5269 C   0  0  0  0  0  0
  -21.4027   -6.5652   23.8200 C   0  0  0  0  0  0
  -21.3647   -5.6805   24.9162 C   0  0  0  0  0  0
  -21.6034   -4.3068   24.7213 C   0  0  0  0  0  0
  -21.8819   -3.8160   23.4334 C   0  0  0  0  0  0
  -21.9206   -4.6974   22.3398 C   0  0  0  0  0  0
  -22.7836  -13.5229   21.1860 C   0  0  0  0  0  0
  -22.1674   -4.2162   21.0973 F   0  0  0  0  0  0
  -21.5635   -3.4560   25.7726 F   0  0  0  0  0  0
  -30.0390  -13.2592   20.4442 N   0  0  0  0  0  0
  -26.3020  -12.9371   20.3427 N   0  0  0  0  0  0
  -25.9311  -11.6518   20.5760 N   0  0  0  0  0  0
  -22.0528  -12.8181   22.0434 N   0  0  0  0  0  0
  -25.4234  -15.1899   20.4088 N   0  0  0  0  0  0
  -31.8311  -14.6196   20.0733 O   0  0  0  0  0  0
  -21.6654   -6.8881   21.4232 O   0  0  0  0  0  0
  -22.3483  -14.5524   20.6734 O   0  0  0  0  0  0
  -24.6079  -31.8714   23.2148 C   0  0  0  0  0  0
  -25.8994  -32.4845   23.8413 C   0  0  1  0  0  0
  -27.2455  -27.4658   20.1050 C   0  0  0  0  0  0
  -25.5890  -33.8641   24.2353 N   0  0  0  0  0  0
  -23.3960  -30.4928   21.5534 C   0  0  2  0  0  0
  -24.8471  -28.9632   20.1178 C   0  0  0  0  0  0
  -22.7387  -29.4661   22.5027 C   0  0  0  0  0  0
  -18.0272  -28.1368   22.8497 C   0  0  0  0  0  0
  -24.1496  -36.7313   23.2635 C   0  0  0  0  0  0
  -25.9192  -30.8459   21.3648 C   0  0  0  0  0  0
  -25.9992  -29.4788   20.7219 C   0  0  0  0  0  0
  -27.1984  -28.7358   20.7272 C   0  0  0  0  0  0
  -26.0776  -26.9599   19.5004 C   0  0  0  0  0  0
  -24.8784  -27.6971   19.5058 C   0  0  0  0  0  0
  -23.6039  -29.8219   20.1676 C   0  0  0  0  0  0
  -25.4110  -36.3118   24.0348 C   0  0  1  0  0  0
  -20.5862  -28.3644   23.1346 C   0  0  2  0  0  0
  -20.6778  -26.9391   22.5423 C   0  0  0  0  0  0
  -19.5763  -26.6385   21.5216 C   0  0  0  0  0  0
  -18.1933  -26.7915   22.1619 C   0  0  0  0  0  0
  -19.1519  -28.8821   23.2914 C   0  0  0  0  0  0
  -18.9443  -30.1435   23.8914 C   0  0  0  0  0  0
  -17.6443  -30.6574   24.0557 C   0  0  0  0  0  0
  -25.9030  -34.9484   23.5146 C   0  0  0  0  0  0
  -16.5340  -29.9071   23.6327 C   0  0  0  0  0  0
  -16.7261  -28.6494   23.0340 C   0  0  0  0  0  0
  -26.4442  -31.6606   25.0714 C   0  0  0  0  0  0
  -25.3731  -31.3682   26.1482 C   0  0  0  0  0  0
  -27.0252  -30.3063   24.6020 C   0  0  0  0  0  0
  -27.6023  -32.4322   25.7465 C   0  0  0  0  0  0
  -27.5596  -37.1803   24.8458 C   0  0  0  0  0  0
  -21.4128  -29.3007   22.3751 N   0  0  0  0  0  0
  -26.4297  -37.3801   23.9421 N   0  0  0  0  0  0
  -24.6587  -31.0836   22.1034 N   0  0  0  0  0  0
  -23.4173  -28.8215   23.3070 O   0  0  0  0  0  0
  -28.3700  -26.6745   20.0323 O   0  0  0  0  0  0
  -26.5571  -34.8923   22.4695 O   0  0  0  0  0  0
  -23.5287  -32.1448   23.7567 O   0  0  0  0  0  0
  -29.1577  -24.1197   21.8691 C   0  0  0  0  0  0
  -30.7843  -23.4344   20.2261 C   0  0  0  0  0  0
  -30.1443  -24.4704   20.9260 C   0  0  0  0  0  0
  -28.8513  -22.7570   22.0663 C   0  0  0  0  0  0
  -29.5480  -21.7897   21.3035 C   0  0  0  0  0  0
  -27.7983  -22.3716   23.0950 C   0  0  0  0  0  0
  -30.5673  -25.9166   20.6626 C   0  0  0  0  0  0
  -29.3158  -20.2863   21.4308 C   0  0  0  0  0  0
  -28.5717  -19.6997   20.2115 C   0  0  0  0  0  0
  -28.5966  -18.1588   20.1084 C   0  0  0  0  0  0
  -30.0162  -17.5685   19.9673 C   0  0  0  0  0  0
  -30.5109  -16.8100   21.2183 C   0  0  0  0  0  0
  -29.4822  -26.9905   20.8602 C   0  0  0  0  0  0
  -30.4979  -22.1314   20.4086 N   0  0  0  0  0  0
  -30.0717  -15.4122   21.2115 N   0  0  0  0  0  0
  -31.4592  -12.3659   19.1067 H   0  0  0  0  0  0
  -30.2872  -11.2703   19.7844 H   0  0  0  0  0  0
  -29.7172  -11.8180   17.3982 H   0  0  0  0  0  0
  -29.6553  -13.5171   17.7794 H   0  0  0  0  0  0
  -27.8152  -11.3284   18.7959 H   0  0  0  0  0  0
  -27.3533  -12.6746   17.7892 H   0  0  0  0  0  0
  -27.7099  -14.2643   19.6015 H   0  0  0  0  0  0
  -28.6714  -11.9351   21.3388 H   0  0  0  0  0  0
  -28.4758  -13.5640   21.8883 H   0  0  0  0  0  0
  -25.2786   -9.5730   22.4728 H   0  0  0  0  0  0
  -24.0054   -7.4649   22.7443 H   0  0  0  0  0  0
  -21.0873   -8.8747   19.8942 H   0  0  0  0  0  0
  -22.3692  -10.9665   19.6174 H   0  0  0  0  0  0
  -21.2021   -7.6159   23.9721 H   0  0  0  0  0  0
  -21.1470   -6.0533   25.9059 H   0  0  0  0  0  0
  -22.0610   -2.7620   23.2824 H   0  0  0  0  0  0
  -22.4203  -11.9854   22.4797 H   0  0  0  0  0  0
  -21.1132  -13.1130   22.2664 H   0  0  0  0  0  0
  -24.6536  -15.8406   20.5203 H   0  0  0  0  0  0
  -26.2783  -15.6364   20.1032 H   0  0  0  0  0  0
  -26.7066  -32.5577   23.1183 H   0  0  0  0  0  0
  -25.0100  -33.9812   25.0539 H   0  0  0  0  0  0
  -22.6813  -31.3067   21.4148 H   0  0  0  0  0  0
  -23.3763  -35.9638   23.3289 H   0  0  0  0  0  0
  -24.3607  -36.8922   22.2051 H   0  0  0  0  0  0
  -23.7233  -37.6516   23.6642 H   0  0  0  0  0  0
  -26.0200  -31.6082   20.5910 H   0  0  0  0  0  0
  -26.8103  -30.9080   21.9769 H   0  0  0  0  0  0
  -28.0712  -29.1528   21.2074 H   0  0  0  0  0  0
  -26.0963  -25.9862   19.0299 H   0  0  0  0  0  0
  -23.9931  -27.2904   19.0359 H   0  0  0  0  0  0
  -23.6987  -30.5931   19.4022 H   0  0  0  0  0  0
  -22.7327  -29.2303   19.8825 H   0  0  0  0  0  0
  -25.1282  -36.1993   25.0839 H   0  0  0  0  0  0
  -20.9937  -28.3198   24.1472 H   0  0  0  0  0  0
  -20.5723  -26.2233   23.3585 H   0  0  0  0  0  0
  -21.6646  -26.7476   22.1188 H   0  0  0  0  0  0
  -19.6931  -25.6304   21.1223 H   0  0  0  0  0  0
  -19.6716  -27.3216   20.6760 H   0  0  0  0  0  0
  -17.4214  -26.6674   21.4002 H   0  0  0  0  0  0
  -18.0322  -26.0039   22.8997 H   0  0  0  0  0  0
  -19.7917  -30.7246   24.2295 H   0  0  0  0  0  0
  -17.4997  -31.6263   24.5146 H   0  0  0  0  0  0
  -15.5341  -30.2970   23.7649 H   0  0  0  0  0  0
  -15.8660  -28.0819   22.7042 H   0  0  0  0  0  0
  -24.5920  -30.7000   25.7839 H   0  0  0  0  0  0
  -24.8891  -32.2821   26.4938 H   0  0  0  0  0  0
  -25.8110  -30.8868   27.0235 H   0  0  0  0  0  0
  -26.2762  -29.6861   24.1079 H   0  0  0  0  0  0
  -27.4070  -29.7251   25.4423 H   0  0  0  0  0  0
  -27.8578  -30.4418   23.9110 H   0  0  0  0  0  0
  -27.2647  -33.3623   26.2048 H   0  0  0  0  0  0
  -28.3814  -32.6886   25.0274 H   0  0  0  0  0  0
  -28.0700  -31.8442   26.5372 H   0  0  0  0  0  0
  -28.2583  -38.0132   24.7563 H   0  0  0  0  0  0
  -28.1126  -36.2670   24.6217 H   0  0  0  0  0  0
  -27.2323  -37.1368   25.8860 H   0  0  0  0  0  0
  -20.9292  -29.8664   21.6913 H   0  0  0  0  0  0
  -26.0192  -38.2879   24.1442 H   0  0  0  0  0  0
  -28.6455  -24.8789   22.4423 H   0  0  0  0  0  0
  -31.5587  -23.6524   19.5061 H   0  0  0  0  0  0
  -27.3554  -23.2504   23.5649 H   0  0  0  0  0  0
  -28.2369  -21.7701   23.8919 H   0  0  0  0  0  0
  -26.9937  -21.7992   22.6324 H   0  0  0  0  0  0
  -30.9257  -25.9831   19.6344 H   0  0  0  0  0  0
  -31.4290  -26.1474   21.2897 H   0  0  0  0  0  0
  -28.7793  -20.0413   22.3456 H   0  0  0  0  0  0
  -30.2961  -19.8224   21.5396 H   0  0  0  0  0  0
  -29.0052  -20.1069   19.2971 H   0  0  0  0  0  0
  -27.5392  -20.0522   20.2311 H   0  0  0  0  0  0
  -28.0172  -17.8763   19.2258 H   0  0  0  0  0  0
  -28.0759  -17.7101   20.9553 H   0  0  0  0  0  0
  -30.7202  -18.3689   19.7329 H   0  0  0  0  0  0
  -30.0549  -16.9091   19.0971 H   0  0  0  0  0  0
  -30.1651  -17.3045   22.1268 H   0  0  0  0  0  0
  -31.6012  -16.8560   21.2578 H   0  0  0  0  0  0
  -29.8929  -27.9623   20.5841 H   0  0  0  0  0  0
  -29.1826  -27.0506   21.9085 H   0  0  0  0  0  0
  -29.1623  -15.2007   21.5947 H   0  0  0  0  0  0
  1 25  1  0  0  0
  1 30  2  0  0  0
  1 85  1  0  0  0
  2  3  1  0  0  0
  2 25  1  0  0  0
  2 86  1  0  0  0
  2 87  1  0  0  0
  3  4  1  0  0  0
  3 88  1  0  0  0
  3 89  1  0  0  0
  4  5  1  0  0  0
  4 90  1  0  0  0
  4 91  1  0  0  0
  5  6  1  0  0  0
  5 26  1  0  0  0
  5 92  1  0  0  0
  6 25  1  0  0  0
  6 93  1  0  0  0
  6 94  1  0  0  0
  7  8  2  0  0  0
  7 26  1  0  0  0
  7 29  1  0  0  0
  8  9  1  0  0  0
  8 22  1  0  0  0
  9 10  1  0  0  0
  9 27  2  0  0  0
 10 11  2  0  0  0
 10 15  1  0  0  0
 11 12  1  0  0  0
 11 95  1  0  0  0
 12 13  2  0  0  0
 12 96  1  0  0  0
 13 14  1  0  0  0
 13 31  1  0  0  0
 14 15  2  0  0  0
 14 97  1  0  0  0
 15 98  1  0  0  0
 16 17  2  0  0  0
 16 21  1  0  0  0
 16 31  1  0  0  0
 17 18  1  0  0  0
 17 99  1  0  0  0
 18 19  2  0  0  0
 18100  1  0  0  0
 19 20  1  0  0  0
 19 24  1  0  0  0
 20 21  2  0  0  0
 20101  1  0  0  0
 21 23  1  0  0  0
 22 28  1  0  0  0
 22 32  2  0  0  0
 26 27  1  0  0  0
 28102  1  0  0  0
 28103  1  0  0  0
 29104  1  0  0  0
 29105  1  0  0  0
 33 34  1  0  0  0
 33 66  1  0  0  0
 33 70  2  0  0  0
 34 36  1  0  0  0
 34 59  1  0  0  0
 34106  1  0  0  0
 35 44  2  0  0  0
 35 45  1  0  0  0
 35 68  1  0  0  0
 36 56  1  0  0  0
 36107  1  0  0  0
 37 39  1  0  0  0
 37 47  1  0  0  0
 37 66  1  0  0  0
 37108  1  0  0  0
 38 43  2  0  0  0
 38 46  1  0  0  0
 38 47  1  0  0  0
 39 64  1  0  0  0
 39 67  2  0  0  0
 40 52  1  0  0  0
 40 53  2  0  0  0
 40 58  1  0  0  0
 41109  1  0  0  0
 41110  1  0  0  0
 41111  1  0  0  0
 41 48  1  0  0  0
 42 43  1  0  0  0
 42 66  1  0  0  0
 42112  1  0  0  0
 42113  1  0  0  0
 43 44  1  0  0  0
 44114  1  0  0  0
 45 46  2  0  0  0
 45115  1  0  0  0
 46116  1  0  0  0
 47117  1  0  0  0
 47118  1  0  0  0
 48 56  1  0  0  0
 48 65  1  0  0  0
 48119  1  0  0  0
 49 50  1  0  0  0
 49 53  1  0  0  0
 49 64  1  0  0  0
 49120  1  0  0  0
 50 51  1  0  0  0
 50121  1  0  0  0
 50122  1  0  0  0
 51 52  1  0  0  0
 51123  1  0  0  0
 51124  1  0  0  0
 52125  1  0  0  0
 52126  1  0  0  0
 53 54  1  0  0  0
 54 55  2  0  0  0
 54127  1  0  0  0
 55 57  1  0  0  0
 55128  1  0  0  0
 56 69  2  0  0  0
 57 58  2  0  0  0
 57129  1  0  0  0
 58130  1  0  0  0
 59 60  1  0  0  0
 59 61  1  0  0  0
 59 62  1  0  0  0
 60131  1  0  0  0
 60132  1  0  0  0
 60133  1  0  0  0
 61134  1  0  0  0
 61135  1  0  0  0
 61136  1  0  0  0
 62137  1  0  0  0
 62138  1  0  0  0
 62139  1  0  0  0
 63 65  1  0  0  0
 63140  1  0  0  0
 63141  1  0  0  0
 63142  1  0  0  0
 64143  1  0  0  0
 65144  1  0  0  0
 68 83  1  0  0  0
 71 73  2  0  0  0
 71 74  1  0  0  0
 71145  1  0  0  0
 72 73  1  0  0  0
 72 84  2  0  0  0
 72146  1  0  0  0
 73 77  1  0  0  0
 74 75  2  0  0  0
 74 76  1  0  0  0
 75 78  1  0  0  0
 75 84  1  0  0  0
 76147  1  0  0  0
 76148  1  0  0  0
 76149  1  0  0  0
 77 83  1  0  0  0
 77150  1  0  0  0
 77151  1  0  0  0
 78 79  1  0  0  0
 78152  1  0  0  0
 78153  1  0  0  0
 79 80  1  0  0  0
 79154  1  0  0  0
 79155  1  0  0  0
 80 81  1  0  0  0
 80156  1  0  0  0
 80157  1  0  0  0
 81 82  1  0  0  0
 81158  1  0  0  0
 81159  1  0  0  0
 82 85  1  0  0  0
 82160  1  0  0  0
 82161  1  0  0  0
 83162  1  0  0  0
 83163  1  0  0  0
 85164  1  0  0  0
M  ISO  4   1 100  68 101  83 101  85 100
M  END
> <chiral flag>
0

> <version>
0

> <s_m_source_file>
/data/baiqing/PycharmProjects/Reinvent-master-3.2/result/LINK_invent/BTK/process_docking_weight1_custom_sum_contain_oxygen_bond_distance_aromatic_linkinvent_7_9_3/rearranged_h_0040.sdf

> <i_m_source_file_index>
26

> <r_mmod_Potential_Energy-OPLS-2005>
-256.786407470703

> <r_mmod_Stretch_Energy-OPLS-2005>
32.470645904541

> <r_mmod_Bend_Energy-OPLS-2005>
96.6667633056641

> <r_mmod_Torsional_Energy-OPLS-2005>
199.458694458008

> <r_mmod_Improper_Torsional_Energy-OPLS-2005>
3.20141386985779

> <r_mmod_Van_der_Waal_Energy-OPLS-2005>
157.013641357422

> <r_mmod_Electrostatic_Energy-OPLS-2005>
-528.826782226562

> <r_mmod_Solvation_Energy-OPLS-2005>
-224.867645263672

> <b_mmod_Minimization_Converged-OPLS-2005>
0

> <r_mmod_RMS_Derivative-OPLS-2005>
2.68365025520325

$$$$
26
                    3D
 Structure written by MMmdl.
160168  0  0  1  0            999 V2000
  -30.6255  -14.6370   20.5174 C   0  0  0  0  0  0
  -30.4404  -12.3908   19.4515 C   0  0  0  0  0  0
  -29.5111  -12.5091   18.2226 C   0  0  0  0  0  0
  -28.0330  -12.3433   18.6343 C   0  0  0  0  0  0
  -27.6556  -13.2150   19.8617 C   0  0  2  0  0  0
  -28.7009  -13.0713   20.9906 C   0  0  0  0  0  0
  -25.2578  -13.8168   20.5693 C   0  0  0  0  0  0
  -24.1834  -13.0441   20.9178 C   0  0  0  0  0  0
  -24.6388  -11.6908   20.8715 C   0  0  0  0  0  0
  -23.9055  -10.4292   21.0388 C   0  0  0  0  0  0
  -24.3605   -9.4208   21.9168 C   0  0  0  0  0  0
  -23.6278   -8.2252   22.0754 C   0  0  0  0  0  0
  -22.4260   -8.0288   21.3550 C   0  0  0  0  0  0
  -21.9892   -9.0260   20.4649 C   0  0  0  0  0  0
  -22.7226  -10.2138   20.3043 C   0  0  0  0  0  0
  -21.6856   -6.0731   22.5274 C   0  0  0  0  0  0
  -21.4020   -6.5635   23.8208 C   0  0  0  0  0  0
  -21.3652   -5.6788   24.9170 C   0  0  0  0  0  0
  -21.6042   -4.3050   24.7221 C   0  0  0  0  0  0
  -21.8817   -3.8143   23.4339 C   0  0  0  0  0  0
  -21.9193   -4.6960   22.3395 C   0  0  0  0  0  0
  -22.7854  -13.5243   21.1846 C   0  0  0  0  0  0
  -22.1667   -4.2149   21.0974 F   0  0  0  0  0  0
  -21.5618   -3.4530   25.7728 F   0  0  0  0  0  0
  -30.0161  -13.4112   20.4307 N   0  0  0  0  0  0
  -26.3004  -12.9350   20.3311 N   0  0  0  0  0  0
  -25.9323  -11.6502   20.5737 N   0  0  0  0  0  0
  -22.0482  -12.8252   22.0402 N   0  0  0  0  0  0
  -25.4298  -15.1891   20.4164 N   0  0  0  0  0  0
  -31.7738  -14.7917   20.0919 O   0  0  0  0  0  0
  -21.6639   -6.8874   21.4236 O   0  0  0  0  0  0
  -22.3550  -14.5555   20.6694 O   0  0  0  0  0  0
  -24.6263  -31.8602   23.2026 C   0  0  0  0  0  0
  -25.9113  -32.4778   23.8357 C   0  0  1  0  0  0
  -27.2246  -27.3311   20.1179 C   0  0  0  0  0  0
  -25.5932  -33.8579   24.2281 N   0  0  0  0  0  0
  -23.4199  -30.4834   21.5440 C   0  0  2  0  0  0
  -24.8685  -28.9414   20.1065 C   0  0  0  0  0  0
  -22.7477  -29.4629   22.4933 C   0  0  0  0  0  0
  -18.0307  -28.1352   22.8491 C   0  0  0  0  0  0
  -24.1490  -36.7294   23.2636 C   0  0  0  0  0  0
  -25.9605  -30.7938   21.3739 C   0  0  0  0  0  0
  -26.0361  -29.4230   20.7145 C   0  0  0  0  0  0
  -27.2203  -28.6290   20.7109 C   0  0  0  0  0  0
  -26.0422  -26.9040   19.4753 C   0  0  0  0  0  0
  -24.8729  -27.6868   19.4768 C   0  0  0  0  0  0
  -23.6348  -29.8193   20.1586 C   0  0  0  0  0  0
  -25.4110  -36.3081   24.0328 C   0  0  1  0  0  0
  -20.5903  -28.3674   23.1283 C   0  0  2  0  0  0
  -20.6815  -26.9422   22.5347 C   0  0  0  0  0  0
  -19.5775  -26.6426   21.5169 C   0  0  0  0  0  0
  -18.1969  -26.7905   22.1614 C   0  0  0  0  0  0
  -19.1556  -28.8827   23.2893 C   0  0  0  0  0  0
  -18.9484  -30.1421   23.8913 C   0  0  0  0  0  0
  -17.6481  -30.6562   24.0564 C   0  0  0  0  0  0
  -25.9048  -34.9447   23.5099 C   0  0  0  0  0  0
  -16.5372  -29.9061   23.6318 C   0  0  0  0  0  0
  -16.7295  -28.6474   23.0345 C   0  0  0  0  0  0
  -26.4496  -31.6587   25.0728 C   0  0  0  0  0  0
  -25.3736  -31.3735   26.1464 C   0  0  0  0  0  0
  -27.0334  -30.3007   24.6179 C   0  0  0  0  0  0
  -27.6055  -32.4319   25.7500 C   0  0  0  0  0  0
  -27.5577  -37.1800   24.8461 C   0  0  0  0  0  0
  -21.4191  -29.3054   22.3694 N   0  0  0  0  0  0
  -26.4290  -37.3773   23.9407 N   0  0  0  0  0  0
  -24.6875  -31.0618   22.0970 N   0  0  0  0  0  0
  -23.4210  -28.8164   23.3003 O   0  0  0  0  0  0
  -28.3190  -26.4573   20.1595 O   0  0  0  0  0  0
  -26.5621  -34.8914   22.4671 O   0  0  0  0  0  0
  -23.5430  -32.1394   23.7355 O   0  0  0  0  0  0
  -26.5179  -22.4997   20.9521 C   0  0  0  0  0  0
  -27.8326  -22.4491   20.5537 C   0  0  0  0  0  0
  -28.1220  -21.0001   20.6227 C   0  0  0  0  0  0
  -23.6362  -21.3339   20.6878 C   0  0  0  0  0  0
  -28.5851  -23.7559   20.1111 C   0  0  0  0  0  0
  -29.3153  -20.0404   20.2940 C   0  0  0  0  0  0
  -29.8469  -15.9138   21.0404 C   0  0  0  0  0  0
  -29.1722  -18.5286   20.8376 C   0  0  0  0  0  0
  -30.1736  -17.3564   20.4304 C   0  0  0  0  0  0
  -24.7381  -20.8069   21.6180 C   0  0  0  0  0  0
  -28.0591  -25.1283   20.7619 C   0  0  0  0  0  0
  -27.0308  -20.3396   21.0017 N   0  0  0  0  0  0
  -26.0598  -21.2357   21.1930 N   0  0  0  0  0  0
  -31.4818  -12.5111   19.1493 H   0  0  0  0  0  0
  -30.3745  -11.3937   19.8907 H   0  0  0  0  0  0
  -29.7773  -11.7607   17.4747 H   0  0  0  0  0  0
  -29.6545  -13.4808   17.7461 H   0  0  0  0  0  0
  -27.8728  -11.2897   18.8667 H   0  0  0  0  0  0
  -27.3789  -12.5726   17.7918 H   0  0  0  0  0  0
  -27.6739  -14.2484   19.5179 H   0  0  0  0  0  0
  -28.7119  -12.0496   21.3745 H   0  0  0  0  0  0
  -28.4494  -13.7040   21.8425 H   0  0  0  0  0  0
  -25.2751   -9.5690   22.4745 H   0  0  0  0  0  0
  -23.9981   -7.4645   22.7481 H   0  0  0  0  0  0
  -21.0820   -8.8776   19.8960 H   0  0  0  0  0  0
  -22.3674  -10.9674   19.6153 H   0  0  0  0  0  0
  -21.2025   -7.6145   23.9714 H   0  0  0  0  0  0
  -21.1475   -6.0515   25.9074 H   0  0  0  0  0  0
  -22.0602   -2.7606   23.2836 H   0  0  0  0  0  0
  -22.4092  -11.9917   22.4801 H   0  0  0  0  0  0
  -21.1104  -13.1302   22.2590 H   0  0  0  0  0  0
  -24.6682  -15.8455   20.5471 H   0  0  0  0  0  0
  -26.2911  -15.6353   20.1282 H   0  0  0  0  0  0
  -26.7183  -32.5447   23.1112 H   0  0  0  0  0  0
  -25.0087  -33.9726   25.0430 H   0  0  0  0  0  0
  -22.7138  -31.3036   21.4009 H   0  0  0  0  0  0
  -23.3751  -35.9632   23.3301 H   0  0  0  0  0  0
  -24.3585  -36.8915   22.2051 H   0  0  0  0  0  0
  -23.7249  -37.6499   23.6656 H   0  0  0  0  0  0
  -26.0950  -31.5606   20.6096 H   0  0  0  0  0  0
  -26.8390  -30.8390   22.0057 H   0  0  0  0  0  0
  -28.1148  -28.9894   21.1996 H   0  0  0  0  0  0
  -26.0158  -25.9407   18.9859 H   0  0  0  0  0  0
  -23.9804  -27.3161   18.9916 H   0  0  0  0  0  0
  -23.7489  -30.5954   19.4011 H   0  0  0  0  0  0
  -22.7564  -29.2444   19.8584 H   0  0  0  0  0  0
  -25.1291  -36.1936   25.0821 H   0  0  0  0  0  0
  -20.9995  -28.3228   24.1408 H   0  0  0  0  0  0
  -20.5762  -26.2249   23.3501 H   0  0  0  0  0  0
  -21.6684  -26.7514   22.1112 H   0  0  0  0  0  0
  -19.6960  -25.6370   21.1128 H   0  0  0  0  0  0
  -19.6666  -27.3294   20.6738 H   0  0  0  0  0  0
  -17.4223  -26.6664   21.4030 H   0  0  0  0  0  0
  -18.0409  -25.9993   22.8966 H   0  0  0  0  0  0
  -19.7958  -30.7226   24.2311 H   0  0  0  0  0  0
  -17.5030  -31.6240   24.5170 H   0  0  0  0  0  0
  -15.5371  -30.2960   23.7630 H   0  0  0  0  0  0
  -15.8702  -28.0802   22.7023 H   0  0  0  0  0  0
  -24.5915  -30.7071   25.7811 H   0  0  0  0  0  0
  -24.8923  -32.2903   26.4873 H   0  0  0  0  0  0
  -25.8071  -30.8940   27.0249 H   0  0  0  0  0  0
  -26.2906  -29.6766   24.1196 H   0  0  0  0  0  0
  -27.4027  -29.7255   25.4681 H   0  0  0  0  0  0
  -27.8782  -30.4294   23.9410 H   0  0  0  0  0  0
  -27.2664  -33.3613   26.2085 H   0  0  0  0  0  0
  -28.3863  -32.6885   25.0330 H   0  0  0  0  0  0
  -28.0727  -31.8442   26.5412 H   0  0  0  0  0  0
  -28.2594  -38.0094   24.7504 H   0  0  0  0  0  0
  -28.1073  -36.2627   24.6292 H   0  0  0  0  0  0
  -27.2303  -37.1460   25.8866 H   0  0  0  0  0  0
  -20.9365  -29.8826   21.6960 H   0  0  0  0  0  0
  -26.0174  -38.2857   24.1395 H   0  0  0  0  0  0
  -25.8300  -23.3257   21.0588 H   0  0  0  0  0  0
  -23.5982  -22.4235   20.6909 H   0  0  0  0  0  0
  -22.6569  -20.9712   20.9996 H   0  0  0  0  0  0
  -23.7976  -21.0088   19.6590 H   0  0  0  0  0  0
  -28.4946  -23.8593   19.0292 H   0  0  0  0  0  0
  -29.6562  -23.6652   20.2946 H   0  0  0  0  0  0
  -30.2389  -20.4691   20.6841 H   0  0  0  0  0  0
  -29.4449  -20.0056   19.2133 H   0  0  0  0  0  0
  -28.7825  -15.7467   20.8903 H   0  0  0  0  0  0
  -29.9869  -15.9481   22.1205 H   0  0  0  0  0  0
  -28.1926  -18.1614   20.5308 H   0  0  0  0  0  0
  -29.1333  -18.5760   21.9269 H   0  0  0  0  0  0
  -30.1900  -17.2743   19.3430 H   0  0  0  0  0  0
  -31.1875  -17.6396   20.7160 H   0  0  0  0  0  0
  -24.5743  -21.1572   22.6381 H   0  0  0  0  0  0
  -24.7043  -19.7157   21.6480 H   0  0  0  0  0  0
  -28.4411  -25.1735   21.7820 H   0  0  0  0  0  0
  -26.9877  -25.0466   20.9059 H   0  0  0  0  0  0
  1 25  1  0  0  0
  1 30  2  0  0  0
  1 77  1  0  0  0
  2  3  1  0  0  0
  2 25  1  0  0  0
  2 84  1  0  0  0
  2 85  1  0  0  0
  3  4  1  0  0  0
  3 86  1  0  0  0
  3 87  1  0  0  0
  4  5  1  0  0  0
  4 88  1  0  0  0
  4 89  1  0  0  0
  5  6  1  0  0  0
  5 26  1  0  0  0
  5 90  1  0  0  0
  6 25  1  0  0  0
  6 91  1  0  0  0
  6 92  1  0  0  0
  7  8  2  0  0  0
  7 26  1  0  0  0
  7 29  1  0  0  0
  8  9  1  0  0  0
  8 22  1  0  0  0
  9 10  1  0  0  0
  9 27  2  0  0  0
 10 11  2  0  0  0
 10 15  1  0  0  0
 11 12  1  0  0  0
 11 93  1  0  0  0
 12 13  2  0  0  0
 12 94  1  0  0  0
 13 14  1  0  0  0
 13 31  1  0  0  0
 14 15  2  0  0  0
 14 95  1  0  0  0
 15 96  1  0  0  0
 16 17  2  0  0  0
 16 21  1  0  0  0
 16 31  1  0  0  0
 17 18  1  0  0  0
 17 97  1  0  0  0
 18 19  2  0  0  0
 18 98  1  0  0  0
 19 20  1  0  0  0
 19 24  1  0  0  0
 20 21  2  0  0  0
 20 99  1  0  0  0
 21 23  1  0  0  0
 22 28  1  0  0  0
 22 32  2  0  0  0
 26 27  1  0  0  0
 28100  1  0  0  0
 28101  1  0  0  0
 29102  1  0  0  0
 29103  1  0  0  0
 33 34  1  0  0  0
 33 66  1  0  0  0
 33 70  2  0  0  0
 34 36  1  0  0  0
 34 59  1  0  0  0
 34104  1  0  0  0
 35 44  2  0  0  0
 35 45  1  0  0  0
 35 68  1  0  0  0
 36 56  1  0  0  0
 36105  1  0  0  0
 37 39  1  0  0  0
 37 47  1  0  0  0
 37 66  1  0  0  0
 37106  1  0  0  0
 38 43  2  0  0  0
 38 46  1  0  0  0
 38 47  1  0  0  0
 39 64  1  0  0  0
 39 67  2  0  0  0
 40 52  1  0  0  0
 40 53  2  0  0  0
 40 58  1  0  0  0
 41107  1  0  0  0
 41108  1  0  0  0
 41109  1  0  0  0
 41 48  1  0  0  0
 42 43  1  0  0  0
 42 66  1  0  0  0
 42110  1  0  0  0
 42111  1  0  0  0
 43 44  1  0  0  0
 44112  1  0  0  0
 45 46  2  0  0  0
 45113  1  0  0  0
 46114  1  0  0  0
 47115  1  0  0  0
 47116  1  0  0  0
 48 56  1  0  0  0
 48 65  1  0  0  0
 48117  1  0  0  0
 49 50  1  0  0  0
 49 53  1  0  0  0
 49 64  1  0  0  0
 49118  1  0  0  0
 50 51  1  0  0  0
 50119  1  0  0  0
 50120  1  0  0  0
 51 52  1  0  0  0
 51121  1  0  0  0
 51122  1  0  0  0
 52123  1  0  0  0
 52124  1  0  0  0
 53 54  1  0  0  0
 54 55  2  0  0  0
 54125  1  0  0  0
 55 57  1  0  0  0
 55126  1  0  0  0
 56 69  2  0  0  0
 57 58  2  0  0  0
 57127  1  0  0  0
 58128  1  0  0  0
 59 60  1  0  0  0
 59 61  1  0  0  0
 59 62  1  0  0  0
 60129  1  0  0  0
 60130  1  0  0  0
 60131  1  0  0  0
 61132  1  0  0  0
 61133  1  0  0  0
 61134  1  0  0  0
 62135  1  0  0  0
 62136  1  0  0  0
 62137  1  0  0  0
 63 65  1  0  0  0
 63138  1  0  0  0
 63139  1  0  0  0
 63140  1  0  0  0
 64141  1  0  0  0
 65142  1  0  0  0
 68 81  1  0  0  0
 71 72  2  0  0  0
 71 83  1  0  0  0
 71143  1  0  0  0
 72 73  1  0  0  0
 72 75  1  0  0  0
 73 76  1  0  0  0
 73 82  2  0  0  0
 74 80  1  0  0  0
 74144  1  0  0  0
 74145  1  0  0  0
 74146  1  0  0  0
 75 81  1  0  0  0
 75147  1  0  0  0
 75148  1  0  0  0
 76 78  1  0  0  0
 76149  1  0  0  0
 76150  1  0  0  0
 77 79  1  0  0  0
 77151  1  0  0  0
 77152  1  0  0  0
 78 79  1  0  0  0
 78153  1  0  0  0
 78154  1  0  0  0
 79155  1  0  0  0
 79156  1  0  0  0
 80 83  1  0  0  0
 80157  1  0  0  0
 80158  1  0  0  0
 81159  1  0  0  0
 81160  1  0  0  0
 82 83  1  0  0  0
M  ISO  4   1 100  68 101  77 100  81 101
M  END
> <chiral flag>
0

> <version>
0

> <s_m_source_file>
/data/baiqing/PycharmProjects/Reinvent-master-3.2/result/LINK_invent/BTK/process_docking_weight1_custom_sum_contain_oxygen_bond_distance_aromatic_linkinvent_7_9_3/rearranged_h_0040.sdf

> <i_m_source_file_index>
27

> <r_mmod_Potential_Energy-OPLS-2005>
89.2952117919922

> <r_mmod_Stretch_Energy-OPLS-2005>
93.7390289306641

> <r_mmod_Bend_Energy-OPLS-2005>
148.326766967773

> <r_mmod_Torsional_Energy-OPLS-2005>
211.32795715332

> <r_mmod_Improper_Torsional_Energy-OPLS-2005>
2.92788171768188

> <r_mmod_Van_der_Waal_Energy-OPLS-2005>
126.922920227051

> <r_mmod_Electrostatic_Energy-OPLS-2005>
-342.789093017578

> <r_mmod_Solvation_Energy-OPLS-2005>
-198.30859375

> <b_mmod_Minimization_Converged-OPLS-2005>
0

> <r_mmod_RMS_Derivative-OPLS-2005>
1.77334642410278

$$$$
27
                    3D
 Structure written by MMmdl.
164172  0  0  1  0            999 V2000
  -29.3232  -15.6235   20.8832 C   0  0  0  0  0  0
  -30.2612  -13.2530   19.7674 C   0  0  0  0  0  0
  -29.5338  -12.7607   18.4613 C   0  0  0  0  0  0
  -28.1013  -12.2880   18.7638 C   0  0  0  0  0  0
  -27.4957  -13.2110   19.8378 C   0  0  2  0  0  0
  -28.3478  -13.2962   21.0959 C   0  0  0  0  0  0
  -25.1780  -13.8008   20.5484 C   0  0  0  0  0  0
  -24.1245  -13.0280   20.9242 C   0  0  0  0  0  0
  -24.5860  -11.6757   20.8738 C   0  0  0  0  0  0
  -23.8717  -10.4176   21.0482 C   0  0  0  0  0  0
  -24.3427   -9.4146   21.9220 C   0  0  0  0  0  0
  -23.6189   -8.2147   22.0758 C   0  0  0  0  0  0
  -22.4177   -8.0171   21.3543 C   0  0  0  0  0  0
  -21.9730   -9.0100   20.4649 C   0  0  0  0  0  0
  -22.6959  -10.2009   20.3079 C   0  0  0  0  0  0
  -21.6814   -6.0672   22.5295 C   0  0  0  0  0  0
  -21.3983   -6.5602   23.8220 C   0  0  0  0  0  0
  -21.3646   -5.6769   24.9191 C   0  0  0  0  0  0
  -21.6041   -4.3032   24.7249 C   0  0  0  0  0  0
  -21.8826   -3.8109   23.4377 C   0  0  0  0  0  0
  -21.9184   -4.6911   22.3426 C   0  0  0  0  0  0
  -22.7392  -13.5159   21.2024 C   0  0  0  0  0  0
  -22.1662   -4.2102   21.1003 F   0  0  0  0  0  0
  -21.5632   -3.4527   25.7768 F   0  0  0  0  0  0
  -29.3721  -14.1770   20.6584 N   0  0  0  0  0  0
  -26.1788  -12.9015   20.2554 N   0  0  0  0  0  0
  -25.8605  -11.6234   20.5335 N   0  0  0  0  0  0
  -22.0089  -12.8178   22.0621 N   0  0  0  0  0  0
  -25.3642  -15.1754   20.4073 N   0  0  0  0  0  0
  -30.5106  -15.9463   20.5492 O   0  0  0  0  0  0
  -21.6582   -6.8766   21.4237 O   0  0  0  0  0  0
  -22.3161  -14.5504   20.6881 O   0  0  0  0  0  0
  -24.8332  -31.8969   23.3671 C   0  0  0  0  0  0
  -26.0555  -32.5429   23.9851 C   0  0  1  0  0  0
  -25.8130  -27.5077   20.2677 C   0  0  0  0  0  0
  -25.6804  -33.9132   24.3280 N   0  0  0  0  0  0
  -23.9808  -30.3858   21.7756 C   0  0  2  0  0  0
  -25.3453  -29.8371   19.6516 C   0  0  0  0  0  0
  -23.6378  -28.8622   22.5823 C   0  0  0  0  0  0
  -18.2520  -27.4450   23.4269 C   0  0  0  0  0  0
  -24.1522  -36.7392   23.2503 C   0  0  0  0  0  0
  -26.3752  -30.7879   21.7052 C   0  0  0  0  0  0
  -26.2815  -29.6939   20.6702 C   0  0  0  0  0  0
  -26.7252  -28.4010   20.8954 C   0  0  0  0  0  0
  -25.9402  -27.5703   18.9159 C   0  0  0  0  0  0
  -25.2797  -28.7964   18.6308 C   0  0  0  0  0  0
  -24.2824  -30.7696   20.1993 C   0  0  0  0  0  0
  -25.4097  -36.3333   24.0339 C   0  0  1  0  0  0
  -20.9355  -27.6862   21.4197 C   0  0  2  0  0  0
  -21.2679  -26.3577   20.7102 C   0  0  0  0  0  0
  -21.2944  -25.1833   21.7926 C   0  0  0  0  0  0
  -18.7948  -25.6233   23.9790 C   0  0  0  0  0  0
  -19.1186  -28.3175   22.3730 C   0  0  0  0  0  0
  -18.7841  -29.7456   22.7340 C   0  0  0  0  0  0
  -17.7011  -30.2773   23.4751 C   0  0  0  0  0  0
  -25.9154  -34.9678   23.5396 C   0  0  0  0  0  0
  -16.6685  -29.4069   23.7684 C   0  0  0  0  0  0
  -16.9580  -28.0203   23.7279 C   0  0  0  0  0  0
  -26.5204  -31.6990   25.2185 C   0  0  0  0  0  0
  -25.3975  -31.4152   26.2441 C   0  0  0  0  0  0
  -27.1204  -30.3247   24.8250 C   0  0  0  0  0  0
  -27.6583  -32.4716   25.9047 C   0  0  0  0  0  0
  -27.5587  -37.1957   24.8460 C   0  0  0  0  0  0
  -22.6287  -27.7985   22.2125 N   0  0  0  0  0  0
  -26.4303  -37.3980   23.9400 N   0  0  0  0  0  0
  -25.0798  -31.0060   22.3928 N   0  0  0  0  0  0
  -24.1417  -28.6806   23.6612 O   0  0  0  0  0  0
  -24.3302  -27.6716   20.3987 O   0  0  0  0  0  0
  -26.5340  -34.8875   22.4737 O   0  0  0  0  0  0
  -23.6986  -32.1699   23.8102 O   0  0  0  0  0  0
  -21.3864  -25.1799   24.1528 C   0  0  0  0  0  0
  -19.1002  -24.3486   21.9773 C   0  0  0  0  0  0
  -21.3936  -23.5558   23.6076 C   0  0  0  0  0  0
  -20.0239  -23.3353   22.8221 C   0  0  0  0  0  0
  -20.6651  -26.5900   23.4284 C   0  0  0  0  0  0
  -19.7023  -21.8766   22.5547 C   0  0  0  0  0  0
  -22.7754  -22.0886   23.5748 C   0  0  0  0  0  0
  -21.0597  -28.6040   23.6736 C   0  0  0  0  0  0
  -24.2271  -20.9531   22.5355 C   0  0  0  0  0  0
  -21.4804  -29.8411   21.7762 C   0  0  0  0  0  0
  -25.4409  -19.2152   22.4421 C   0  0  0  0  0  0
  -27.0973  -18.2045   21.5947 C   0  0  0  0  0  0
  -22.7684  -28.8404   20.1294 C   0  0  0  0  0  0
  -19.2901  -25.9221   21.9345 N   0  0  0  0  0  0
  -28.0231  -16.5442   21.3461 N   0  0  0  0  0  0
  -31.1716  -13.7804   19.4817 H   0  0  0  0  0  0
  -30.6093  -12.3971   20.3484 H   0  0  0  0  0  0
  -30.1079  -11.9762   17.9671 H   0  0  0  0  0  0
  -29.4848  -13.5937   17.7590 H   0  0  0  0  0  0
  -28.1403  -11.2644   19.1392 H   0  0  0  0  0  0
  -27.4921  -12.2716   17.8593 H   0  0  0  0  0  0
  -27.4212  -14.1830   19.3454 H   0  0  0  0  0  0
  -28.6946  -12.3208   21.4427 H   0  0  0  0  0  0
  -27.8054  -13.7461   21.9301 H   0  0  0  0  0  0
  -25.2574   -9.5699   22.4772 H   0  0  0  0  0  0
  -23.9948   -7.4539   22.7451 H   0  0  0  0  0  0
  -21.0673   -8.8554   19.8956 H   0  0  0  0  0  0
  -22.3389  -10.9547   19.6201 H   0  0  0  0  0  0
  -21.1962   -7.6110   23.9708 H   0  0  0  0  0  0
  -21.1465   -6.0505   25.9091 H   0  0  0  0  0  0
  -22.0622   -2.7573   23.2892 H   0  0  0  0  0  0
  -22.3700  -11.9810   22.4956 H   0  0  0  0  0  0
  -21.0742  -13.1255   22.2914 H   0  0  0  0  0  0
  -24.5660  -15.7958   20.4882 H   0  0  0  0  0  0
  -26.1049  -15.5743   19.8451 H   0  0  0  0  0  0
  -26.8967  -32.5984   23.2959 H   0  0  0  0  0  0
  -25.1275  -34.0455   25.1621 H   0  0  0  0  0  0
  -23.2824  -31.1861   21.8486 H   0  0  0  0  0  0
  -23.3804  -35.9708   23.3213 H   0  0  0  0  0  0
  -24.3683  -36.8880   22.1912 H   0  0  0  0  0  0
  -23.7212  -37.6633   23.6364 H   0  0  0  0  0  0
  -26.6978  -31.7076   21.2124 H   0  0  0  0  0  0
  -27.1937  -30.5213   22.3558 H   0  0  0  0  0  0
  -27.2246  -28.1504   21.8202 H   0  0  0  0  0  0
  -26.9023  -27.4423   18.4392 H   0  0  0  0  0  0
  -24.6507  -28.8888   17.7563 H   0  0  0  0  0  0
  -24.7261  -31.7677   20.1536 H   0  0  0  0  0  0
  -23.4517  -31.0881   19.5696 H   0  0  0  0  0  0
  -25.1160  -36.2355   25.0816 H   0  0  0  0  0  0
  -21.8488  -27.2095   21.7600 H   0  0  0  0  0  0
  -22.2063  -26.2758   20.1460 H   0  0  0  0  0  0
  -20.5364  -26.1752   19.9177 H   0  0  0  0  0  0
  -22.3567  -25.1985   22.0881 H   0  0  0  0  0  0
  -21.3303  -24.3035   21.1329 H   0  0  0  0  0  0
  -17.9121  -24.9755   23.9327 H   0  0  0  0  0  0
  -19.0625  -25.6065   25.0422 H   0  0  0  0  0  0
  -19.3440  -30.5929   22.3995 H   0  0  0  0  0  0
  -17.5827  -31.3453   23.6014 H   0  0  0  0  0  0
  -15.7271  -29.7671   24.1603 H   0  0  0  0  0  0
  -16.2192  -27.3694   24.1747 H   0  0  0  0  0  0
  -24.6464  -30.7215   25.8635 H   0  0  0  0  0  0
  -24.8835  -32.3290   26.5437 H   0  0  0  0  0  0
  -25.7994  -30.9654   27.1527 H   0  0  0  0  0  0
  -26.4304  -29.6789   24.2869 H   0  0  0  0  0  0
  -27.3940  -29.7677   25.7220 H   0  0  0  0  0  0
  -28.0480  -30.4271   24.2622 H   0  0  0  0  0  0
  -27.3157  -33.4118   26.3383 H   0  0  0  0  0  0
  -28.4642  -32.7090   25.2085 H   0  0  0  0  0  0
  -28.0966  -31.8954   26.7207 H   0  0  0  0  0  0
  -28.2589  -38.0275   24.7572 H   0  0  0  0  0  0
  -28.1119  -36.2821   24.6231 H   0  0  0  0  0  0
  -27.2300  -37.1527   25.8859 H   0  0  0  0  0  0
  -22.8385  -26.9524   22.7226 H   0  0  0  0  0  0
  -26.0217  -38.3071   24.1399 H   0  0  0  0  0  0
  -22.1965  -25.4236   24.8275 H   0  0  0  0  0  0
  -18.3083  -23.9619   21.3529 H   0  0  0  0  0  0
  -18.7074  -21.7583   22.1254 H   0  0  0  0  0  0
  -19.7342  -21.2961   23.4764 H   0  0  0  0  0  0
  -20.4233  -21.4522   21.8551 H   0  0  0  0  0  0
  -22.1472  -21.2791   23.9441 H   0  0  0  0  0  0
  -23.3413  -22.3752   24.4610 H   0  0  0  0  0  0
  -21.8658  -28.6595   24.4029 H   0  0  0  0  0  0
  -20.3506  -29.0562   24.3692 H   0  0  0  0  0  0
  -24.9755  -21.7257   22.3590 H   0  0  0  0  0  0
  -23.7289  -20.8682   21.5693 H   0  0  0  0  0  0
  -21.4756  -30.8952   22.0406 H   0  0  0  0  0  0
  -20.6365  -29.9901   21.1011 H   0  0  0  0  0  0
  -24.6657  -18.4646   22.2855 H   0  0  0  0  0  0
  -25.6820  -19.1009   23.4992 H   0  0  0  0  0  0
  -27.9247  -18.8215   21.9460 H   0  0  0  0  0  0
  -26.9986  -18.4971   20.5491 H   0  0  0  0  0  0
  -22.7596  -29.3580   19.1761 H   0  0  0  0  0  0
  -22.1317  -28.2177   19.5152 H   0  0  0  0  0  0
  -27.3142  -15.8446   21.5347 H   0  0  0  0  0  0
  1 25  1  0  0  0
  1 30  2  0  0  0
  1 85  1  0  0  0
  2  3  1  0  0  0
  2 25  1  0  0  0
  2 86  1  0  0  0
  2 87  1  0  0  0
  3  4  1  0  0  0
  3 88  1  0  0  0
  3 89  1  0  0  0
  4  5  1  0  0  0
  4 90  1  0  0  0
  4 91  1  0  0  0
  5  6  1  0  0  0
  5 26  1  0  0  0
  5 92  1  0  0  0
  6 25  1  0  0  0
  6 93  1  0  0  0
  6 94  1  0  0  0
  7  8  2  0  0  0
  7 26  1  0  0  0
  7 29  1  0  0  0
  8  9  1  0  0  0
  8 22  1  0  0  0
  9 10  1  0  0  0
  9 27  2  0  0  0
 10 11  2  0  0  0
 10 15  1  0  0  0
 11 12  1  0  0  0
 11 95  1  0  0  0
 12 13  2  0  0  0
 12 96  1  0  0  0
 13 14  1  0  0  0
 13 31  1  0  0  0
 14 15  2  0  0  0
 14 97  1  0  0  0
 15 98  1  0  0  0
 16 17  2  0  0  0
 16 21  1  0  0  0
 16 31  1  0  0  0
 17 18  1  0  0  0
 17 99  1  0  0  0
 18 19  2  0  0  0
 18100  1  0  0  0
 19 20  1  0  0  0
 19 24  1  0  0  0
 20 21  2  0  0  0
 20101  1  0  0  0
 21 23  1  0  0  0
 22 28  1  0  0  0
 22 32  2  0  0  0
 26 27  1  0  0  0
 28102  1  0  0  0
 28103  1  0  0  0
 29104  1  0  0  0
 29105  1  0  0  0
 33 34  1  0  0  0
 33 66  1  0  0  0
 33 70  2  0  0  0
 34 36  1  0  0  0
 34 59  1  0  0  0
 34106  1  0  0  0
 35 44  2  0  0  0
 35 45  1  0  0  0
 35 68  1  0  0  0
 36 56  1  0  0  0
 36107  1  0  0  0
 37 39  1  0  0  0
 37 47  1  0  0  0
 37 66  1  0  0  0
 37108  1  0  0  0
 38 43  2  0  0  0
 38 46  1  0  0  0
 38 47  1  0  0  0
 39 64  1  0  0  0
 39 67  2  0  0  0
 40 52  1  0  0  0
 40 53  2  0  0  0
 40 58  1  0  0  0
 41109  1  0  0  0
 41110  1  0  0  0
 41111  1  0  0  0
 41 48  1  0  0  0
 42 43  1  0  0  0
 42 66  1  0  0  0
 42112  1  0  0  0
 42113  1  0  0  0
 43 44  1  0  0  0
 44114  1  0  0  0
 45 46  2  0  0  0
 45115  1  0  0  0
 46116  1  0  0  0
 47117  1  0  0  0
 47118  1  0  0  0
 48 56  1  0  0  0
 48 65  1  0  0  0
 48119  1  0  0  0
 49 50  1  0  0  0
 49 53  1  0  0  0
 49 64  1  0  0  0
 49120  1  0  0  0
 50 51  1  0  0  0
 50121  1  0  0  0
 50122  1  0  0  0
 51 52  1  0  0  0
 51123  1  0  0  0
 51124  1  0  0  0
 52125  1  0  0  0
 52126  1  0  0  0
 53 54  1  0  0  0
 54 55  2  0  0  0
 54127  1  0  0  0
 55 57  1  0  0  0
 55128  1  0  0  0
 56 69  2  0  0  0
 57 58  2  0  0  0
 57129  1  0  0  0
 58130  1  0  0  0
 59 60  1  0  0  0
 59 61  1  0  0  0
 59 62  1  0  0  0
 60131  1  0  0  0
 60132  1  0  0  0
 60133  1  0  0  0
 61134  1  0  0  0
 61135  1  0  0  0
 61136  1  0  0  0
 62137  1  0  0  0
 62138  1  0  0  0
 62139  1  0  0  0
 63 65  1  0  0  0
 63140  1  0  0  0
 63141  1  0  0  0
 63142  1  0  0  0
 64143  1  0  0  0
 65144  1  0  0  0
 68 83  1  0  0  0
 71 73  2  0  0  0
 71 75  1  0  0  0
 71145  1  0  0  0
 72 74  2  0  0  0
 72 84  1  0  0  0
 72146  1  0  0  0
 73 74  1  0  0  0
 73 77  1  0  0  0
 74 76  1  0  0  0
 75 78  1  0  0  0
 75 84  2  0  0  0
 76147  1  0  0  0
 76148  1  0  0  0
 76149  1  0  0  0
 77 79  1  0  0  0
 77150  1  0  0  0
 77151  1  0  0  0
 78 80  1  0  0  0
 78152  1  0  0  0
 78153  1  0  0  0
 79 81  1  0  0  0
 79154  1  0  0  0
 79155  1  0  0  0
 80 83  1  0  0  0
 80156  1  0  0  0
 80157  1  0  0  0
 81 82  1  0  0  0
 81158  1  0  0  0
 81159  1  0  0  0
 82 85  1  0  0  0
 82160  1  0  0  0
 82161  1  0  0  0
 83162  1  0  0  0
 83163  1  0  0  0
 85164  1  0  0  0
M  ISO  4   1 100  68 101  83 101  85 100
M  END
> <chiral flag>
0

> <version>
0

> <s_m_source_file>
/data/baiqing/PycharmProjects/Reinvent-master-3.2/result/LINK_invent/BTK/process_docking_weight1_custom_sum_contain_oxygen_bond_distance_aromatic_linkinvent_7_9_3/rearranged_h_0040.sdf

> <i_m_source_file_index>
28

> <r_mmod_Potential_Energy-OPLS-2005>
24638.0234375

> <r_mmod_Stretch_Energy-OPLS-2005>
11436.6328125

> <r_mmod_Bend_Energy-OPLS-2005>
2019.33605957031

> <r_mmod_Torsional_Energy-OPLS-2005>
702.412841796875

> <r_mmod_Improper_Torsional_Energy-OPLS-2005>
66.6049652099609

> <r_mmod_Van_der_Waal_Energy-OPLS-2005>
4517.67724609375

> <r_mmod_Electrostatic_Energy-OPLS-2005>
-498.288665771484

> <r_mmod_Solvation_Energy-OPLS-2005>
-204.150085449219

> <b_mmod_Minimization_Converged-OPLS-2005>
0

> <r_mmod_RMS_Derivative-OPLS-2005>
2.77993679046631

$$$$
28
                    3D
 Structure written by MMmdl.
169177  0  0  1  0            999 V2000
  -30.7484  -14.4089   20.6404 C   0  0  0  0  0  0
  -30.4235  -12.3055   19.3926 C   0  0  0  0  0  0
  -29.4786  -12.5088   18.1921 C   0  0  0  0  0  0
  -28.0052  -12.3560   18.6173 C   0  0  0  0  0  0
  -27.6618  -13.1869   19.8802 C   0  0  2  0  0  0
  -28.7117  -12.9408   20.9905 C   0  0  0  0  0  0
  -25.2588  -13.8114   20.5682 C   0  0  0  0  0  0
  -24.1824  -13.0420   20.9205 C   0  0  0  0  0  0
  -24.6358  -11.6881   20.8767 C   0  0  0  0  0  0
  -23.9020  -10.4280   21.0421 C   0  0  0  0  0  0
  -24.3583   -9.4199   21.9195 C   0  0  0  0  0  0
  -23.6281   -8.2231   22.0748 C   0  0  0  0  0  0
  -22.4275   -8.0265   21.3535 C   0  0  0  0  0  0
  -21.9894   -9.0231   20.4643 C   0  0  0  0  0  0
  -22.7197  -10.2125   20.3064 C   0  0  0  0  0  0
  -21.6847   -6.0729   22.5276 C   0  0  0  0  0  0
  -21.4011   -6.5635   23.8208 C   0  0  0  0  0  0
  -21.3659   -5.6793   24.9173 C   0  0  0  0  0  0
  -21.6043   -4.3054   24.7227 C   0  0  0  0  0  0
  -21.8822   -3.8147   23.4349 C   0  0  0  0  0  0
  -21.9191   -4.6959   22.3405 C   0  0  0  0  0  0
  -22.7852  -13.5234   21.1854 C   0  0  0  0  0  0
  -22.1650   -4.2141   21.0981 F   0  0  0  0  0  0
  -21.5634   -3.4536   25.7741 F   0  0  0  0  0  0
  -30.0398  -13.2640   20.4399 N   0  0  0  0  0  0
  -26.3022  -12.9245   20.3433 N   0  0  0  0  0  0
  -25.9275  -11.6425   20.5824 N   0  0  0  0  0  0
  -22.0454  -12.8215   22.0370 N   0  0  0  0  0  0
  -25.4299  -15.1820   20.3984 N   0  0  0  0  0  0
  -31.8462  -14.6235   20.1234 O   0  0  0  0  0  0
  -21.6644   -6.8858   21.4231 O   0  0  0  0  0  0
  -22.3556  -14.5551   20.6708 O   0  0  0  0  0  0
  -24.6124  -31.8717   23.2126 C   0  0  0  0  0  0
  -25.9030  -32.4839   23.8423 C   0  0  1  0  0  0
  -27.2359  -27.4651   20.0791 C   0  0  0  0  0  0
  -25.5898  -33.8640   24.2346 N   0  0  0  0  0  0
  -23.3983  -30.4949   21.5546 C   0  0  2  0  0  0
  -24.8413  -28.9685   20.1145 C   0  0  0  0  0  0
  -22.7415  -29.4663   22.5025 C   0  0  0  0  0  0
  -18.0276  -28.1376   22.8487 C   0  0  0  0  0  0
  -24.1484  -36.7319   23.2636 C   0  0  0  0  0  0
  -25.9262  -30.8449   21.3631 C   0  0  0  0  0  0
  -26.0012  -29.4841   20.7047 C   0  0  0  0  0  0
  -27.2003  -28.7403   20.6808 C   0  0  0  0  0  0
  -26.0538  -26.9575   19.4875 C   0  0  0  0  0  0
  -24.8620  -27.7034   19.5047 C   0  0  0  0  0  0
  -23.6018  -29.8299   20.1683 C   0  0  0  0  0  0
  -25.4106  -36.3121   24.0338 C   0  0  1  0  0  0
  -20.5864  -28.3641   23.1336 C   0  0  2  0  0  0
  -20.6760  -26.9380   22.5427 C   0  0  0  0  0  0
  -19.5736  -26.6381   21.5218 C   0  0  0  0  0  0
  -18.1915  -26.7926   22.1621 C   0  0  0  0  0  0
  -19.1525  -28.8831   23.2902 C   0  0  0  0  0  0
  -18.9449  -30.1443   23.8898 C   0  0  0  0  0  0
  -17.6448  -30.6573   24.0567 C   0  0  0  0  0  0
  -25.9038  -34.9484   23.5137 C   0  0  0  0  0  0
  -16.5345  -29.9075   23.6328 C   0  0  0  0  0  0
  -16.7266  -28.6503   23.0331 C   0  0  0  0  0  0
  -26.4460  -31.6626   25.0755 C   0  0  0  0  0  0
  -25.3731  -31.3725   26.1506 C   0  0  0  0  0  0
  -27.0297  -30.3072   24.6136 C   0  0  0  0  0  0
  -27.6045  -32.4351   25.7509 C   0  0  0  0  0  0
  -27.5578  -37.1812   24.8466 C   0  0  0  0  0  0
  -21.4147  -29.3014   22.3759 N   0  0  0  0  0  0
  -26.4294  -37.3804   23.9413 N   0  0  0  0  0  0
  -24.6635  -31.0851   22.1010 N   0  0  0  0  0  0
  -23.4207  -28.8212   23.3051 O   0  0  0  0  0  0
  -28.4264  -26.7658   20.1053 O   0  0  0  0  0  0
  -26.5593  -34.8924   22.4692 O   0  0  0  0  0  0
  -23.5320  -32.1454   23.7530 O   0  0  0  0  0  0
  -24.6108  -23.2771   23.6599 C   0  0  0  0  0  0
  -25.8220  -21.4408   22.1125 C   0  0  0  0  0  0
  -24.9300  -21.0798   23.1474 C   0  0  0  0  0  0
  -26.0674  -22.8225   21.9517 C   0  0  0  0  0  0
  -23.2256  -19.2624   22.6807 C   0  0  0  0  0  0
  -26.4114  -20.3884   21.1775 C   0  0  0  0  0  0
  -24.5101  -19.6436   23.4292 C   0  0  0  0  0  0
  -26.9366  -23.3963   20.8331 C   0  0  0  0  0  0
  -27.6659  -19.6994   21.7442 C   0  0  0  0  0  0
  -27.6908  -24.6885   21.2037 C   0  0  0  0  0  0
  -27.8906  -18.3389   21.0713 C   0  0  0  0  0  0
  -29.0771  -17.5377   21.6289 C   0  0  0  0  0  0
  -29.0498  -16.1061   21.0784 C   0  0  0  0  0  0
  -28.3829  -25.3425   19.9882 C   0  0  0  0  0  0
  -24.3318  -22.0074   23.9131 N   0  0  0  0  0  0
  -25.4294  -23.7245   22.7198 N   0  0  0  0  0  0
  -30.2222  -15.3235   21.4667 N   0  0  0  0  0  0
  -31.4613  -12.4212   19.0757 H   0  0  0  0  0  0
  -30.3455  -11.2861   19.7737 H   0  0  0  0  0  0
  -29.7125  -11.7912   17.4042 H   0  0  0  0  0  0
  -29.6359  -13.4987   17.7616 H   0  0  0  0  0  0
  -27.8248  -11.2985   18.8129 H   0  0  0  0  0  0
  -27.3417  -12.6291   17.7956 H   0  0  0  0  0  0
  -27.7055  -14.2310   19.5791 H   0  0  0  0  0  0
  -28.6958  -11.8942   21.2985 H   0  0  0  0  0  0
  -28.4793  -13.4966   21.8978 H   0  0  0  0  0  0
  -25.2724   -9.5686   22.4771 H   0  0  0  0  0  0
  -23.9987   -7.4619   22.7467 H   0  0  0  0  0  0
  -21.0825   -8.8741   19.8945 H   0  0  0  0  0  0
  -22.3644  -10.9663   19.6183 H   0  0  0  0  0  0
  -21.1995   -7.6147   23.9703 H   0  0  0  0  0  0
  -21.1479   -6.0531   25.9074 H   0  0  0  0  0  0
  -22.0604   -2.7610   23.2855 H   0  0  0  0  0  0
  -22.4017  -11.9834   22.4720 H   0  0  0  0  0  0
  -21.1062  -13.1241   22.2523 H   0  0  0  0  0  0
  -24.6550  -15.8313   20.4808 H   0  0  0  0  0  0
  -26.2680  -15.6086   20.0275 H   0  0  0  0  0  0
  -26.7110  -32.5546   23.1200 H   0  0  0  0  0  0
  -25.0061  -33.9828   25.0493 H   0  0  0  0  0  0
  -22.6839  -31.3093   21.4194 H   0  0  0  0  0  0
  -23.3742  -35.9652   23.3315 H   0  0  0  0  0  0
  -24.3576  -36.8925   22.2050 H   0  0  0  0  0  0
  -23.7243  -37.6533   23.6635 H   0  0  0  0  0  0
  -26.0433  -31.6156   20.5994 H   0  0  0  0  0  0
  -26.8122  -30.8898   21.9851 H   0  0  0  0  0  0
  -28.0976  -29.1379   21.1339 H   0  0  0  0  0  0
  -26.0261  -25.9924   19.0060 H   0  0  0  0  0  0
  -23.9696  -27.3004   19.0462 H   0  0  0  0  0  0
  -23.7036  -30.6066   19.4094 H   0  0  0  0  0  0
  -22.7267  -29.2471   19.8749 H   0  0  0  0  0  0
  -25.1275  -36.1996   25.0830 H   0  0  0  0  0  0
  -20.9931  -28.3189   24.1463 H   0  0  0  0  0  0
  -20.5663  -26.2238   23.3600 H   0  0  0  0  0  0
  -21.6627  -26.7432   22.1205 H   0  0  0  0  0  0
  -19.6894  -25.6298   21.1224 H   0  0  0  0  0  0
  -19.6681  -27.3204   20.6756 H   0  0  0  0  0  0
  -17.4187  -26.6683   21.4020 H   0  0  0  0  0  0
  -18.0300  -26.0072   22.9015 H   0  0  0  0  0  0
  -19.7929  -30.7266   24.2250 H   0  0  0  0  0  0
  -17.5004  -31.6246   24.5173 H   0  0  0  0  0  0
  -15.5336  -30.2964   23.7662 H   0  0  0  0  0  0
  -15.8675  -28.0832   22.7013 H   0  0  0  0  0  0
  -24.5878  -30.7109   25.7842 H   0  0  0  0  0  0
  -24.8937  -32.2871   26.5004 H   0  0  0  0  0  0
  -25.8070  -30.8856   27.0249 H   0  0  0  0  0  0
  -26.2849  -29.6850   24.1157 H   0  0  0  0  0  0
  -27.4043  -29.7301   25.4607 H   0  0  0  0  0  0
  -27.8692  -30.4412   23.9306 H   0  0  0  0  0  0
  -27.2669  -33.3633   26.2135 H   0  0  0  0  0  0
  -28.3812  -32.6965   25.0308 H   0  0  0  0  0  0
  -28.0761  -31.8461   26.5388 H   0  0  0  0  0  0
  -28.2603  -38.0103   24.7505 H   0  0  0  0  0  0
  -28.1063  -36.2635   24.6286 H   0  0  0  0  0  0
  -27.2294  -37.1465   25.8870 H   0  0  0  0  0  0
  -20.9305  -29.8758   21.7009 H   0  0  0  0  0  0
  -26.0185  -38.2887   24.1402 H   0  0  0  0  0  0
  -24.1132  -24.0171   24.2684 H   0  0  0  0  0  0
  -22.9422  -18.2317   22.8905 H   0  0  0  0  0  0
  -23.3540  -19.3599   21.6027 H   0  0  0  0  0  0
  -22.3963  -19.9053   22.9754 H   0  0  0  0  0  0
  -26.6221  -20.8016   20.1916 H   0  0  0  0  0  0
  -25.6376  -19.6468   20.9787 H   0  0  0  0  0  0
  -24.3511  -19.5257   24.5017 H   0  0  0  0  0  0
  -25.3093  -18.9470   23.1819 H   0  0  0  0  0  0
  -26.2904  -23.5698   19.9723 H   0  0  0  0  0  0
  -27.6828  -22.6678   20.5211 H   0  0  0  0  0  0
  -27.5477  -19.5338   22.8153 H   0  0  0  0  0  0
  -28.5397  -20.3423   21.6297 H   0  0  0  0  0  0
  -28.4161  -24.4930   21.9938 H   0  0  0  0  0  0
  -26.9812  -25.3944   21.6312 H   0  0  0  0  0  0
  -28.0225  -18.4825   19.9981 H   0  0  0  0  0  0
  -26.9839  -17.7430   21.1873 H   0  0  0  0  0  0
  -29.0268  -17.5073   22.7184 H   0  0  0  0  0  0
  -30.0126  -18.0357   21.3682 H   0  0  0  0  0  0
  -28.9746  -16.1445   19.9891 H   0  0  0  0  0  0
  -28.1475  -15.6192   21.4449 H   0  0  0  0  0  0
  -27.9307  -25.0493   19.0416 H   0  0  0  0  0  0
  -29.4088  -24.9783   19.9294 H   0  0  0  0  0  0
  -30.9375  -15.9045   21.8797 H   0  0  0  0  0  0
  1 25  1  0  0  0
  1 30  2  0  0  0
  1 87  1  0  0  0
  2  3  1  0  0  0
  2 25  1  0  0  0
  2 88  1  0  0  0
  2 89  1  0  0  0
  3  4  1  0  0  0
  3 90  1  0  0  0
  3 91  1  0  0  0
  4  5  1  0  0  0
  4 92  1  0  0  0
  4 93  1  0  0  0
  5  6  1  0  0  0
  5 26  1  0  0  0
  5 94  1  0  0  0
  6 25  1  0  0  0
  6 95  1  0  0  0
  6 96  1  0  0  0
  7  8  2  0  0  0
  7 26  1  0  0  0
  7 29  1  0  0  0
  8  9  1  0  0  0
  8 22  1  0  0  0
  9 10  1  0  0  0
  9 27  2  0  0  0
 10 11  2  0  0  0
 10 15  1  0  0  0
 11 12  1  0  0  0
 11 97  1  0  0  0
 12 13  2  0  0  0
 12 98  1  0  0  0
 13 14  1  0  0  0
 13 31  1  0  0  0
 14 15  2  0  0  0
 14 99  1  0  0  0
 15100  1  0  0  0
 16 17  2  0  0  0
 16 21  1  0  0  0
 16 31  1  0  0  0
 17 18  1  0  0  0
 17101  1  0  0  0
 18 19  2  0  0  0
 18102  1  0  0  0
 19 20  1  0  0  0
 19 24  1  0  0  0
 20 21  2  0  0  0
 20103  1  0  0  0
 21 23  1  0  0  0
 22 28  1  0  0  0
 22 32  2  0  0  0
 26 27  1  0  0  0
 28104  1  0  0  0
 28105  1  0  0  0
 29106  1  0  0  0
 29107  1  0  0  0
 33 34  1  0  0  0
 33 66  1  0  0  0
 33 70  2  0  0  0
 34 36  1  0  0  0
 34 59  1  0  0  0
 34108  1  0  0  0
 35 44  2  0  0  0
 35 45  1  0  0  0
 35 68  1  0  0  0
 36 56  1  0  0  0
 36109  1  0  0  0
 37 39  1  0  0  0
 37 47  1  0  0  0
 37 66  1  0  0  0
 37110  1  0  0  0
 38 43  2  0  0  0
 38 46  1  0  0  0
 38 47  1  0  0  0
 39 64  1  0  0  0
 39 67  2  0  0  0
 40 52  1  0  0  0
 40 53  2  0  0  0
 40 58  1  0  0  0
 41111  1  0  0  0
 41112  1  0  0  0
 41113  1  0  0  0
 41 48  1  0  0  0
 42 43  1  0  0  0
 42 66  1  0  0  0
 42114  1  0  0  0
 42115  1  0  0  0
 43 44  1  0  0  0
 44116  1  0  0  0
 45 46  2  0  0  0
 45117  1  0  0  0
 46118  1  0  0  0
 47119  1  0  0  0
 47120  1  0  0  0
 48 56  1  0  0  0
 48 65  1  0  0  0
 48121  1  0  0  0
 49 50  1  0  0  0
 49 53  1  0  0  0
 49 64  1  0  0  0
 49122  1  0  0  0
 50 51  1  0  0  0
 50123  1  0  0  0
 50124  1  0  0  0
 51 52  1  0  0  0
 51125  1  0  0  0
 51126  1  0  0  0
 52127  1  0  0  0
 52128  1  0  0  0
 53 54  1  0  0  0
 54 55  2  0  0  0
 54129  1  0  0  0
 55 57  1  0  0  0
 55130  1  0  0  0
 56 69  2  0  0  0
 57 58  2  0  0  0
 57131  1  0  0  0
 58132  1  0  0  0
 59 60  1  0  0  0
 59 61  1  0  0  0
 59 62  1  0  0  0
 60133  1  0  0  0
 60134  1  0  0  0
 60135  1  0  0  0
 61136  1  0  0  0
 61137  1  0  0  0
 61138  1  0  0  0
 62139  1  0  0  0
 62140  1  0  0  0
 62141  1  0  0  0
 63 65  1  0  0  0
 63142  1  0  0  0
 63143  1  0  0  0
 63144  1  0  0  0
 64145  1  0  0  0
 65146  1  0  0  0
 68 84  1  0  0  0
 71 85  2  0  0  0
 71 86  1  0  0  0
 71147  1  0  0  0
 72 73  2  0  0  0
 72 74  1  0  0  0
 72 76  1  0  0  0
 73 77  1  0  0  0
 73 85  1  0  0  0
 74 78  1  0  0  0
 74 86  2  0  0  0
 75 77  1  0  0  0
 75148  1  0  0  0
 75149  1  0  0  0
 75150  1  0  0  0
 76 79  1  0  0  0
 76151  1  0  0  0
 76152  1  0  0  0
 77153  1  0  0  0
 77154  1  0  0  0
 78 80  1  0  0  0
 78155  1  0  0  0
 78156  1  0  0  0
 79 81  1  0  0  0
 79157  1  0  0  0
 79158  1  0  0  0
 80 84  1  0  0  0
 80159  1  0  0  0
 80160  1  0  0  0
 81 82  1  0  0  0
 81161  1  0  0  0
 81162  1  0  0  0
 82 83  1  0  0  0
 82163  1  0  0  0
 82164  1  0  0  0
 83 87  1  0  0  0
 83165  1  0  0  0
 83166  1  0  0  0
 84167  1  0  0  0
 84168  1  0  0  0
 87169  1  0  0  0
M  ISO  4   1 100  68 101  84 101  87 100
M  END
> <chiral flag>
0

> <version>
0

> <s_m_source_file>
/data/baiqing/PycharmProjects/Reinvent-master-3.2/result/LINK_invent/BTK/process_docking_weight1_custom_sum_contain_oxygen_bond_distance_aromatic_linkinvent_7_9_3/rearranged_h_0040.sdf

> <i_m_source_file_index>
29

> <r_mmod_Potential_Energy-OPLS-2005>
-459.636596679688

> <r_mmod_Stretch_Energy-OPLS-2005>
32.1904983520508

> <r_mmod_Bend_Energy-OPLS-2005>
107.353393554688

> <r_mmod_Torsional_Energy-OPLS-2005>
246.953094482422

> <r_mmod_Improper_Torsional_Energy-OPLS-2005>
6.77416706085205

> <r_mmod_Van_der_Waal_Energy-OPLS-2005>
165.362442016602

> <r_mmod_Electrostatic_Energy-OPLS-2005>
-802.215393066406

> <r_mmod_Solvation_Energy-OPLS-2005>
-226.085205078125

> <b_mmod_Minimization_Converged-OPLS-2005>
0

> <r_mmod_RMS_Derivative-OPLS-2005>
1.39839088916779

$$$$
29
                    3D
 Structure written by MMmdl.
161169  0  0  1  0            999 V2000
  -30.6276  -14.7373   20.4526 C   0  0  0  0  0  0
  -30.4302  -12.4507   19.4693 C   0  0  0  0  0  0
  -29.5074  -12.5013   18.2321 C   0  0  0  0  0  0
  -28.0338  -12.3303   18.6494 C   0  0  0  0  0  0
  -27.6417  -13.2331   19.8497 C   0  0  2  0  0  0
  -28.6890  -13.1726   20.9832 C   0  0  0  0  0  0
  -25.2512  -13.8191   20.5713 C   0  0  0  0  0  0
  -24.1796  -13.0432   20.9212 C   0  0  0  0  0  0
  -24.6390  -11.6916   20.8749 C   0  0  0  0  0  0
  -23.9070  -10.4287   21.0405 C   0  0  0  0  0  0
  -24.3618   -9.4208   21.9185 C   0  0  0  0  0  0
  -23.6293   -8.2245   22.0755 C   0  0  0  0  0  0
  -22.4279   -8.0279   21.3546 C   0  0  0  0  0  0
  -21.9914   -9.0249   20.4648 C   0  0  0  0  0  0
  -22.7238  -10.2132   20.3057 C   0  0  0  0  0  0
  -21.6851   -6.0733   22.5277 C   0  0  0  0  0  0
  -21.4013   -6.5642   23.8209 C   0  0  0  0  0  0
  -21.3657   -5.6797   24.9170 C   0  0  0  0  0  0
  -21.6047   -4.3057   24.7222 C   0  0  0  0  0  0
  -21.8817   -3.8147   23.4344 C   0  0  0  0  0  0
  -21.9193   -4.6964   22.3399 C   0  0  0  0  0  0
  -22.7822  -13.5220   21.1872 C   0  0  0  0  0  0
  -22.1663   -4.2147   21.0979 F   0  0  0  0  0  0
  -21.5626   -3.4542   25.7735 F   0  0  0  0  0  0
  -29.9882  -13.5195   20.3946 N   0  0  0  0  0  0
  -26.2938  -12.9409   20.3293 N   0  0  0  0  0  0
  -25.9324  -11.6549   20.5760 N   0  0  0  0  0  0
  -22.0470  -12.8205   22.0427 N   0  0  0  0  0  0
  -25.4208  -15.1912   20.4135 N   0  0  0  0  0  0
  -31.8207  -14.8168   20.1506 O   0  0  0  0  0  0
  -21.6643   -6.8877   21.4240 O   0  0  0  0  0  0
  -22.3511  -14.5524   20.6714 O   0  0  0  0  0  0
  -24.6321  -31.8561   23.1989 C   0  0  0  0  0  0
  -25.9145  -32.4752   23.8338 C   0  0  1  0  0  0
  -27.2175  -27.2594   20.1170 C   0  0  0  0  0  0
  -25.5940  -33.8552   24.2265 N   0  0  0  0  0  0
  -23.4291  -30.4798   21.5421 C   0  0  2  0  0  0
  -24.8751  -28.9285   20.1096 C   0  0  0  0  0  0
  -22.7505  -29.4611   22.4892 C   0  0  0  0  0  0
  -18.0301  -28.1373   22.8486 C   0  0  0  0  0  0
  -24.1496  -36.7289   23.2636 C   0  0  0  0  0  0
  -25.9774  -30.7658   21.3837 C   0  0  0  0  0  0
  -26.0489  -29.3898   20.7200 C   0  0  0  0  0  0
  -27.2224  -28.5676   20.7130 C   0  0  0  0  0  0
  -26.0198  -26.8727   19.4728 C   0  0  0  0  0  0
  -24.8657  -27.6773   19.4774 C   0  0  0  0  0  0
  -23.6486  -29.8179   20.1578 C   0  0  0  0  0  0
  -25.4121  -36.3061   24.0315 C   0  0  1  0  0  0
  -20.5906  -28.3699   23.1249 C   0  0  2  0  0  0
  -20.6785  -26.9414   22.5391 C   0  0  0  0  0  0
  -19.5762  -26.6375   21.5195 C   0  0  0  0  0  0
  -18.1948  -26.7918   22.1606 C   0  0  0  0  0  0
  -19.1552  -28.8844   23.2865 C   0  0  0  0  0  0
  -18.9471  -30.1441   23.8887 C   0  0  0  0  0  0
  -17.6470  -30.6573   24.0553 C   0  0  0  0  0  0
  -25.9061  -34.9432   23.5087 C   0  0  0  0  0  0
  -16.5362  -29.9072   23.6321 C   0  0  0  0  0  0
  -16.7285  -28.6488   23.0354 C   0  0  0  0  0  0
  -26.4510  -31.6576   25.0733 C   0  0  0  0  0  0
  -25.3718  -31.3713   26.1442 C   0  0  0  0  0  0
  -27.0363  -30.2981   24.6243 C   0  0  0  0  0  0
  -27.6069  -32.4320   25.7487 C   0  0  0  0  0  0
  -27.5594  -37.1783   24.8452 C   0  0  0  0  0  0
  -21.4210  -29.3047   22.3628 N   0  0  0  0  0  0
  -26.4298  -37.3761   23.9406 N   0  0  0  0  0  0
  -24.6986  -31.0518   22.0970 N   0  0  0  0  0  0
  -23.4195  -28.8147   23.2998 O   0  0  0  0  0  0
  -28.3065  -26.3547   20.1771 O   0  0  0  0  0  0
  -26.5635  -34.8892   22.4660 O   0  0  0  0  0  0
  -23.5463  -32.1391   23.7268 O   0  0  0  0  0  0
  -29.7505  -21.9083   18.1365 C   0  0  0  0  0  0
  -30.1832  -19.2243   18.1029 C   0  0  0  0  0  0
  -29.4219  -21.2127   19.3227 C   0  0  0  0  0  0
  -29.6706  -19.7540   19.3131 C   0  0  0  0  0  0
  -30.2857  -21.2503   17.0228 C   0  0  0  0  0  0
  -29.5404  -21.8159   14.6632 C   0  0  0  0  0  0
  -28.7642  -22.1480   20.4117 C   0  0  0  0  0  0
  -29.3617  -18.6186   20.3829 C   0  0  0  0  0  0
  -30.6117  -22.0070   15.7469 C   0  0  0  0  0  0
  -29.0961  -23.7511   20.4558 C   0  0  0  0  0  0
  -30.3765  -17.3386   20.5123 C   0  0  0  0  0  0
  -28.0604  -24.8841   19.9540 C   0  0  0  0  0  0
  -30.4960  -19.9287   17.0031 N   0  0  0  0  0  0
  -29.8813  -15.8945   20.6273 N   0  0  0  0  0  0
  -31.4714  -12.5679   19.1633 H   0  0  0  0  0  0
  -30.3712  -11.4760   19.9568 H   0  0  0  0  0  0
  -29.7859  -11.7216   17.5219 H   0  0  0  0  0  0
  -29.6357  -13.4507   17.7100 H   0  0  0  0  0  0
  -27.8908  -11.2825   18.9156 H   0  0  0  0  0  0
  -27.3744  -12.5184   17.8014 H   0  0  0  0  0  0
  -27.6346  -14.2537   19.4668 H   0  0  0  0  0  0
  -28.7252  -12.1765   21.4272 H   0  0  0  0  0  0
  -28.4295  -13.8595   21.7903 H   0  0  0  0  0  0
  -25.2754   -9.5685   22.4768 H   0  0  0  0  0  0
  -23.9995   -7.4640   22.7475 H   0  0  0  0  0  0
  -21.0845   -8.8759   19.8957 H   0  0  0  0  0  0
  -22.3681  -10.9669   19.6171 H   0  0  0  0  0  0
  -21.2011   -7.6152   23.9706 H   0  0  0  0  0  0
  -21.1480   -6.0531   25.9073 H   0  0  0  0  0  0
  -22.0602   -2.7610   23.2841 H   0  0  0  0  0  0
  -22.4088  -11.9864   22.4800 H   0  0  0  0  0  0
  -21.1085  -13.1217   22.2634 H   0  0  0  0  0  0
  -24.6528  -15.8439   20.5261 H   0  0  0  0  0  0
  -26.2646  -15.6306   20.0700 H   0  0  0  0  0  0
  -26.7210  -32.5401   23.1077 H   0  0  0  0  0  0
  -25.0062  -33.9699   25.0391 H   0  0  0  0  0  0
  -22.7259  -31.3016   21.3959 H   0  0  0  0  0  0
  -23.3757  -35.9625   23.3281 H   0  0  0  0  0  0
  -24.3590  -36.8951   22.2058 H   0  0  0  0  0  0
  -23.7255  -37.6476   23.6687 H   0  0  0  0  0  0
  -26.1254  -31.5300   20.6200 H   0  0  0  0  0  0
  -26.8501  -30.8081   22.0231 H   0  0  0  0  0  0
  -28.1195  -28.9139   21.2061 H   0  0  0  0  0  0
  -25.9428  -25.9212   18.9681 H   0  0  0  0  0  0
  -23.9669  -27.3179   18.9965 H   0  0  0  0  0  0
  -23.7771  -30.5950   19.4035 H   0  0  0  0  0  0
  -22.7668  -29.2547   19.8493 H   0  0  0  0  0  0
  -25.1305  -36.1906   25.0807 H   0  0  0  0  0  0
  -21.0007  -28.3287   24.1365 H   0  0  0  0  0  0
  -20.5672  -26.2318   23.3602 H   0  0  0  0  0  0
  -21.6661  -26.7426   22.1202 H   0  0  0  0  0  0
  -19.6922  -25.6284   21.1239 H   0  0  0  0  0  0
  -19.6706  -27.3158   20.6706 H   0  0  0  0  0  0
  -17.4226  -26.6667   21.4001 H   0  0  0  0  0  0
  -18.0337  -26.0052   22.8985 H   0  0  0  0  0  0
  -19.7946  -30.7246   24.2272 H   0  0  0  0  0  0
  -17.5032  -31.6259   24.5147 H   0  0  0  0  0  0
  -15.5361  -30.2969   23.7652 H   0  0  0  0  0  0
  -15.8688  -28.0788   22.7089 H   0  0  0  0  0  0
  -24.5933  -30.7024   25.7761 H   0  0  0  0  0  0
  -24.8853  -32.2862   26.4825 H   0  0  0  0  0  0
  -25.8037  -30.8924   27.0242 H   0  0  0  0  0  0
  -26.2948  -29.6692   24.1300 H   0  0  0  0  0  0
  -27.4065  -29.7287   25.4781 H   0  0  0  0  0  0
  -27.8828  -30.4245   23.9485 H   0  0  0  0  0  0
  -27.2717  -33.3670   26.1981 H   0  0  0  0  0  0
  -28.3906  -32.6794   25.0312 H   0  0  0  0  0  0
  -28.0701  -31.8496   26.5453 H   0  0  0  0  0  0
  -28.2564  -38.0131   24.7566 H   0  0  0  0  0  0
  -28.1145  -36.2655   24.6204 H   0  0  0  0  0  0
  -27.2316  -37.1356   25.8857 H   0  0  0  0  0  0
  -20.9380  -29.8806   21.6873 H   0  0  0  0  0  0
  -26.0169  -38.2826   24.1435 H   0  0  0  0  0  0
  -29.5687  -22.9697   18.0488 H   0  0  0  0  0  0
  -30.3225  -18.1639   17.9695 H   0  0  0  0  0  0
  -29.7796  -22.3946   13.7712 H   0  0  0  0  0  0
  -28.5614  -22.1385   15.0177 H   0  0  0  0  0  0
  -29.4637  -20.7688   14.3676 H   0  0  0  0  0  0
  -29.0415  -21.7212   21.3760 H   0  0  0  0  0  0
  -27.6829  -22.0206   20.3441 H   0  0  0  0  0  0
  -28.3635  -18.2447   20.1520 H   0  0  0  0  0  0
  -29.2660  -19.0935   21.3606 H   0  0  0  0  0  0
  -31.5819  -21.6780   15.3735 H   0  0  0  0  0  0
  -30.7240  -23.0686   15.9720 H   0  0  0  0  0  0
  -30.0813  -23.9361   20.0276 H   0  0  0  0  0  0
  -29.2339  -23.9734   21.5142 H   0  0  0  0  0  0
  -30.9904  -17.5163   21.3960 H   0  0  0  0  0  0
  -31.1144  -17.3481   19.7133 H   0  0  0  0  0  0
  -27.1074  -24.6328   20.4227 H   0  0  0  0  0  0
  -27.9173  -24.7397   18.8820 H   0  0  0  0  0  0
  -28.8999  -15.7629   20.8216 H   0  0  0  0  0  0
  1 25  1  0  0  0
  1 30  2  0  0  0
  1 84  1  0  0  0
  2  3  1  0  0  0
  2 25  1  0  0  0
  2 85  1  0  0  0
  2 86  1  0  0  0
  3  4  1  0  0  0
  3 87  1  0  0  0
  3 88  1  0  0  0
  4  5  1  0  0  0
  4 89  1  0  0  0
  4 90  1  0  0  0
  5  6  1  0  0  0
  5 26  1  0  0  0
  5 91  1  0  0  0
  6 25  1  0  0  0
  6 92  1  0  0  0
  6 93  1  0  0  0
  7  8  2  0  0  0
  7 26  1  0  0  0
  7 29  1  0  0  0
  8  9  1  0  0  0
  8 22  1  0  0  0
  9 10  1  0  0  0
  9 27  2  0  0  0
 10 11  2  0  0  0
 10 15  1  0  0  0
 11 12  1  0  0  0
 11 94  1  0  0  0
 12 13  2  0  0  0
 12 95  1  0  0  0
 13 14  1  0  0  0
 13 31  1  0  0  0
 14 15  2  0  0  0
 14 96  1  0  0  0
 15 97  1  0  0  0
 16 17  2  0  0  0
 16 21  1  0  0  0
 16 31  1  0  0  0
 17 18  1  0  0  0
 17 98  1  0  0  0
 18 19  2  0  0  0
 18 99  1  0  0  0
 19 20  1  0  0  0
 19 24  1  0  0  0
 20 21  2  0  0  0
 20100  1  0  0  0
 21 23  1  0  0  0
 22 28  1  0  0  0
 22 32  2  0  0  0
 26 27  1  0  0  0
 28101  1  0  0  0
 28102  1  0  0  0
 29103  1  0  0  0
 29104  1  0  0  0
 33 34  1  0  0  0
 33 66  1  0  0  0
 33 70  2  0  0  0
 34 36  1  0  0  0
 34 59  1  0  0  0
 34105  1  0  0  0
 35 44  2  0  0  0
 35 45  1  0  0  0
 35 68  1  0  0  0
 36 56  1  0  0  0
 36106  1  0  0  0
 37 39  1  0  0  0
 37 47  1  0  0  0
 37 66  1  0  0  0
 37107  1  0  0  0
 38 43  2  0  0  0
 38 46  1  0  0  0
 38 47  1  0  0  0
 39 64  1  0  0  0
 39 67  2  0  0  0
 40 52  1  0  0  0
 40 53  2  0  0  0
 40 58  1  0  0  0
 41108  1  0  0  0
 41109  1  0  0  0
 41110  1  0  0  0
 41 48  1  0  0  0
 42 43  1  0  0  0
 42 66  1  0  0  0
 42111  1  0  0  0
 42112  1  0  0  0
 43 44  1  0  0  0
 44113  1  0  0  0
 45 46  2  0  0  0
 45114  1  0  0  0
 46115  1  0  0  0
 47116  1  0  0  0
 47117  1  0  0  0
 48 56  1  0  0  0
 48 65  1  0  0  0
 48118  1  0  0  0
 49 50  1  0  0  0
 49 53  1  0  0  0
 49 64  1  0  0  0
 49119  1  0  0  0
 50 51  1  0  0  0
 50120  1  0  0  0
 50121  1  0  0  0
 51 52  1  0  0  0
 51122  1  0  0  0
 51123  1  0  0  0
 52124  1  0  0  0
 52125  1  0  0  0
 53 54  1  0  0  0
 54 55  2  0  0  0
 54126  1  0  0  0
 55 57  1  0  0  0
 55127  1  0  0  0
 56 69  2  0  0  0
 57 58  2  0  0  0
 57128  1  0  0  0
 58129  1  0  0  0
 59 60  1  0  0  0
 59 61  1  0  0  0
 59 62  1  0  0  0
 60130  1  0  0  0
 60131  1  0  0  0
 60132  1  0  0  0
 61133  1  0  0  0
 61134  1  0  0  0
 61135  1  0  0  0
 62136  1  0  0  0
 62137  1  0  0  0
 62138  1  0  0  0
 63 65  1  0  0  0
 63139  1  0  0  0
 63140  1  0  0  0
 63141  1  0  0  0
 64142  1  0  0  0
 65143  1  0  0  0
 68 82  1  0  0  0
 71 73  2  0  0  0
 71 75  1  0  0  0
 71144  1  0  0  0
 72 74  2  0  0  0
 72 83  1  0  0  0
 72145  1  0  0  0
 73 74  1  0  0  0
 73 77  1  0  0  0
 74 78  1  0  0  0
 75 79  1  0  0  0
 75 83  2  0  0  0
 76 79  1  0  0  0
 76146  1  0  0  0
 76147  1  0  0  0
 76148  1  0  0  0
 77 80  1  0  0  0
 77149  1  0  0  0
 77150  1  0  0  0
 78 81  1  0  0  0
 78151  1  0  0  0
 78152  1  0  0  0
 79153  1  0  0  0
 79154  1  0  0  0
 80 82  1  0  0  0
 80155  1  0  0  0
 80156  1  0  0  0
 81 84  1  0  0  0
 81157  1  0  0  0
 81158  1  0  0  0
 82159  1  0  0  0
 82160  1  0  0  0
 84161  1  0  0  0
M  ISO  4   1 100  68 101  82 101  84 100
M  END
> <chiral flag>
0

> <version>
0

> <s_m_source_file>
/data/baiqing/PycharmProjects/Reinvent-master-3.2/result/LINK_invent/BTK/process_docking_weight1_custom_sum_contain_oxygen_bond_distance_aromatic_linkinvent_7_9_3/rearranged_h_0040.sdf

> <i_m_source_file_index>
30

> <r_mmod_Potential_Energy-OPLS-2005>
-12.611780166626

> <r_mmod_Stretch_Energy-OPLS-2005>
134.657623291016

> <r_mmod_Bend_Energy-OPLS-2005>
194.102127075195

> <r_mmod_Torsional_Energy-OPLS-2005>
218.325241088867

> <r_mmod_Improper_Torsional_Energy-OPLS-2005>
5.40085363388062

> <r_mmod_Van_der_Waal_Energy-OPLS-2005>
149.389251708984

> <r_mmod_Electrostatic_Energy-OPLS-2005>
-571.360900878906

> <r_mmod_Solvation_Energy-OPLS-2005>
-228.921829223633

> <b_mmod_Minimization_Converged-OPLS-2005>
0

> <r_mmod_RMS_Derivative-OPLS-2005>
1.70861160755157

$$$$
30
                    3D
 Structure written by MMmdl.
165173  0  0  1  0            999 V2000
  -30.5921  -14.7252   20.4576 C   0  0  0  0  0  0
  -30.4409  -12.4390   19.4714 C   0  0  0  0  0  0
  -29.5156  -12.5017   18.2351 C   0  0  0  0  0  0
  -28.0342  -12.3491   18.6409 C   0  0  0  0  0  0
  -27.6406  -13.2319   19.8551 C   0  0  2  0  0  0
  -28.6860  -13.1404   20.9911 C   0  0  0  0  0  0
  -25.2434  -13.8185   20.5657 C   0  0  0  0  0  0
  -24.1765  -13.0437   20.9261 C   0  0  0  0  0  0
  -24.6350  -11.6925   20.8756 C   0  0  0  0  0  0
  -23.9042  -10.4318   21.0416 C   0  0  0  0  0  0
  -24.3585   -9.4283   21.9243 C   0  0  0  0  0  0
  -23.6258   -8.2357   22.0849 C   0  0  0  0  0  0
  -22.4286   -8.0339   21.3543 C   0  0  0  0  0  0
  -21.9967   -9.0242   20.4575 C   0  0  0  0  0  0
  -22.7229  -10.2163   20.3025 C   0  0  0  0  0  0
  -21.6883   -6.0804   22.5257 C   0  0  0  0  0  0
  -21.4083   -6.5722   23.8204 C   0  0  0  0  0  0
  -21.3697   -5.6898   24.9169 C   0  0  0  0  0  0
  -21.5996   -4.3138   24.7260 C   0  0  0  0  0  0
  -21.8774   -3.8225   23.4382 C   0  0  0  0  0  0
  -21.9205   -4.7017   22.3432 C   0  0  0  0  0  0
  -22.7787  -13.5172   21.2007 C   0  0  0  0  0  0
  -22.1695   -4.2179   21.1015 F   0  0  0  0  0  0
  -21.5537   -3.4632   25.7780 F   0  0  0  0  0  0
  -29.9898  -13.4897   20.4145 N   0  0  0  0  0  0
  -26.2865  -12.9405   20.3219 N   0  0  0  0  0  0
  -25.9251  -11.6545   20.5655 N   0  0  0  0  0  0
  -22.0493  -12.8230   22.0681 N   0  0  0  0  0  0
  -25.4168  -15.1909   20.4074 N   0  0  0  0  0  0
  -31.7772  -14.8461   20.1275 O   0  0  0  0  0  0
  -21.6705   -6.8893   21.4212 O   0  0  0  0  0  0
  -22.3444  -14.5460   20.6854 O   0  0  0  0  0  0
  -24.6295  -31.8555   23.2032 C   0  0  0  0  0  0
  -25.9106  -32.4778   23.8363 C   0  0  1  0  0  0
  -27.2231  -27.2876   20.1348 C   0  0  0  0  0  0
  -25.5910  -33.8580   24.2287 N   0  0  0  0  0  0
  -23.4256  -30.4762   21.5490 C   0  0  2  0  0  0
  -24.8712  -28.9138   20.1315 C   0  0  0  0  0  0
  -22.7495  -29.4590   22.4965 C   0  0  0  0  0  0
  -18.0292  -28.1395   22.8486 C   0  0  0  0  0  0
  -24.1502  -36.7302   23.2642 C   0  0  0  0  0  0
  -25.9706  -30.7678   21.3876 C   0  0  0  0  0  0
  -26.0396  -29.3878   20.7433 C   0  0  0  0  0  0
  -27.2197  -28.5845   20.7394 C   0  0  0  0  0  0
  -26.0452  -26.8786   19.4783 C   0  0  0  0  0  0
  -24.8746  -27.6639   19.4904 C   0  0  0  0  0  0
  -23.6463  -29.8063   20.1671 C   0  0  0  0  0  0
  -25.4135  -36.3108   24.0338 C   0  0  1  0  0  0
  -20.5888  -28.3704   23.1291 C   0  0  2  0  0  0
  -20.6787  -26.9427   22.5410 C   0  0  0  0  0  0
  -19.5759  -26.6384   21.5211 C   0  0  0  0  0  0
  -18.1935  -26.7931   22.1616 C   0  0  0  0  0  0
  -19.1540  -28.8867   23.2878 C   0  0  0  0  0  0
  -18.9452  -30.1461   23.8899 C   0  0  0  0  0  0
  -17.6447  -30.6590   24.0564 C   0  0  0  0  0  0
  -25.9063  -34.9469   23.5133 C   0  0  0  0  0  0
  -16.5346  -29.9086   23.6318 C   0  0  0  0  0  0
  -16.7270  -28.6503   23.0342 C   0  0  0  0  0  0
  -26.4477  -31.6612   25.0754 C   0  0  0  0  0  0
  -25.3696  -31.3756   26.1471 C   0  0  0  0  0  0
  -27.0335  -30.3040   24.6260 C   0  0  0  0  0  0
  -27.6030  -32.4376   25.7508 C   0  0  0  0  0  0
  -27.5606  -37.1811   24.8464 C   0  0  0  0  0  0
  -21.4200  -29.3041   22.3687 N   0  0  0  0  0  0
  -26.4327  -37.3792   23.9391 N   0  0  0  0  0  0
  -24.6941  -31.0510   22.1043 N   0  0  0  0  0  0
  -23.4193  -28.8119   23.3053 O   0  0  0  0  0  0
  -28.3487  -26.4524   20.0571 O   0  0  0  0  0  0
  -26.5617  -34.8915   22.4690 O   0  0  0  0  0  0
  -23.5431  -32.1380   23.7290 O   0  0  0  0  0  0
  -27.1307  -21.1253   19.9403 C   0  0  0  0  0  0
  -26.7527  -23.5379   20.2172 C   0  0  0  0  0  0
  -28.9778  -22.6311   20.4786 C   0  0  0  0  0  0
  -26.2595  -22.2496   19.9420 C   0  0  0  0  0  0
  -28.5136  -21.2733   20.2355 C   0  0  0  0  0  0
  -28.1093  -23.7927   20.4686 C   0  0  0  0  0  0
  -21.8350  -19.6630   19.0387 C   0  0  0  0  0  0
  -24.7550  -22.1803   19.6823 C   0  0  0  0  0  0
  -29.4939  -20.0145   20.2152 C   0  0  0  0  0  0
  -28.4951  -25.2584   20.9306 C   0  0  0  0  0  0
  -22.5930  -20.9793   19.2122 C   0  0  0  0  0  0
  -24.0942  -20.8038   19.5156 C   0  0  0  0  0  0
  -29.0382  -18.4905   20.5424 C   0  0  0  0  0  0
  -30.1441  -17.3107   20.3986 C   0  0  0  0  0  0
  -29.7939  -15.8424   20.6506 N   0  0  0  0  0  0
  -31.4822  -12.5692   19.1654 H   0  0  0  0  0  0
  -30.3946  -11.4561   19.9393 H   0  0  0  0  0  0
  -29.7863  -11.7223   17.5207 H   0  0  0  0  0  0
  -29.6613  -13.4532   17.7218 H   0  0  0  0  0  0
  -27.8720  -11.3002   18.8781 H   0  0  0  0  0  0
  -27.3870  -12.5791   17.7943 H   0  0  0  0  0  0
  -27.6392  -14.2595   19.5004 H   0  0  0  0  0  0
  -28.7182  -12.1354   21.4112 H   0  0  0  0  0  0
  -28.4340  -13.8141   21.8145 H   0  0  0  0  0  0
  -25.2736   -9.5782   22.4798 H   0  0  0  0  0  0
  -23.9989   -7.4796   22.7611 H   0  0  0  0  0  0
  -21.1032   -8.8624   19.8694 H   0  0  0  0  0  0
  -22.3716  -10.9702   19.6089 H   0  0  0  0  0  0
  -21.2149   -7.6242   23.9691 H   0  0  0  0  0  0
  -21.1533   -6.0693   25.9062 H   0  0  0  0  0  0
  -22.0495   -2.7686   23.2874 H   0  0  0  0  0  0
  -22.4186  -12.0097   22.5408 H   0  0  0  0  0  0
  -21.1188  -13.1378   22.3000 H   0  0  0  0  0  0
  -24.6425  -15.8421   20.4781 H   0  0  0  0  0  0
  -26.2604  -15.6099   20.0377 H   0  0  0  0  0  0
  -26.7161  -32.5421   23.1076 H   0  0  0  0  0  0
  -25.0090  -33.9729   25.0459 H   0  0  0  0  0  0
  -22.7234  -31.2985   21.4017 H   0  0  0  0  0  0
  -23.3778  -35.9617   23.3300 H   0  0  0  0  0  0
  -24.3585  -36.8918   22.2056 H   0  0  0  0  0  0
  -23.7221  -37.6494   23.6657 H   0  0  0  0  0  0
  -26.1176  -31.5184   20.6107 H   0  0  0  0  0  0
  -26.8441  -30.8136   22.0256 H   0  0  0  0  0  0
  -28.1241  -28.9501   21.2051 H   0  0  0  0  0  0
  -26.0324  -25.9502   18.9259 H   0  0  0  0  0  0
  -23.9898  -27.3116   18.9789 H   0  0  0  0  0  0
  -23.7845  -30.5822   19.4137 H   0  0  0  0  0  0
  -22.7665  -29.2461   19.8524 H   0  0  0  0  0  0
  -25.1317  -36.1993   25.0836 H   0  0  0  0  0  0
  -20.9950  -28.3271   24.1423 H   0  0  0  0  0  0
  -20.5722  -26.2304   23.3600 H   0  0  0  0  0  0
  -21.6660  -26.7488   22.1189 H   0  0  0  0  0  0
  -19.6943  -25.6289   21.1260 H   0  0  0  0  0  0
  -19.6709  -27.3179   20.6733 H   0  0  0  0  0  0
  -17.4212  -26.6658   21.4014 H   0  0  0  0  0  0
  -18.0362  -26.0071   22.9030 H   0  0  0  0  0  0
  -19.7930  -30.7275   24.2276 H   0  0  0  0  0  0
  -17.5004  -31.6268   24.5170 H   0  0  0  0  0  0
  -15.5347  -30.2990   23.7646 H   0  0  0  0  0  0
  -15.8666  -28.0816   22.7071 H   0  0  0  0  0  0
  -24.5868  -30.7115   25.7781 H   0  0  0  0  0  0
  -24.8874  -32.2929   26.4896 H   0  0  0  0  0  0
  -25.7996  -30.8926   27.0258 H   0  0  0  0  0  0
  -26.2916  -29.6773   24.1316 H   0  0  0  0  0  0
  -27.4040  -29.7331   25.4773 H   0  0  0  0  0  0
  -27.8786  -30.4303   23.9489 H   0  0  0  0  0  0
  -27.2635  -33.3663   26.2098 H   0  0  0  0  0  0
  -28.3821  -32.6968   25.0338 H   0  0  0  0  0  0
  -28.0738  -31.8524   26.5414 H   0  0  0  0  0  0
  -28.2637  -38.0104   24.7540 H   0  0  0  0  0  0
  -28.1099  -36.2639   24.6286 H   0  0  0  0  0  0
  -27.2304  -37.1453   25.8860 H   0  0  0  0  0  0
  -20.9414  -29.8750   21.6863 H   0  0  0  0  0  0
  -26.0234  -38.2888   24.1343 H   0  0  0  0  0  0
  -26.7311  -20.1510   19.7044 H   0  0  0  0  0  0
  -26.0490  -24.3536   20.2805 H   0  0  0  0  0  0
  -30.0276  -22.7897   20.6910 H   0  0  0  0  0  0
  -22.2773  -19.0634   18.2423 H   0  0  0  0  0  0
  -20.7850  -19.8416   18.7927 H   0  0  0  0  0  0
  -21.8712  -19.0833   19.9608 H   0  0  0  0  0  0
  -24.5305  -22.7897   18.8041 H   0  0  0  0  0  0
  -24.2763  -22.6892   20.5196 H   0  0  0  0  0  0
  -30.3378  -20.2676   20.8621 H   0  0  0  0  0  0
  -29.9119  -20.0007   19.2080 H   0  0  0  0  0  0
  -29.5373  -25.2350   21.2401 H   0  0  0  0  0  0
  -27.9318  -25.4520   21.8450 H   0  0  0  0  0  0
  -22.4694  -21.5926   18.3164 H   0  0  0  0  0  0
  -22.1214  -21.5410   20.0168 H   0  0  0  0  0  0
  -24.2242  -20.2031   20.4186 H   0  0  0  0  0  0
  -24.5755  -20.2682   18.6997 H   0  0  0  0  0  0
  -28.6347  -18.4681   21.5559 H   0  0  0  0  0  0
  -28.2027  -18.2326   19.8906 H   0  0  0  0  0  0
  -30.9803  -17.5508   21.0568 H   0  0  0  0  0  0
  -30.5425  -17.3609   19.3841 H   0  0  0  0  0  0
  -28.8427  -15.6442   20.9251 H   0  0  0  0  0  0
  1 25  1  0  0  0
  1 30  2  0  0  0
  1 85  1  0  0  0
  2  3  1  0  0  0
  2 25  1  0  0  0
  2 86  1  0  0  0
  2 87  1  0  0  0
  3  4  1  0  0  0
  3 88  1  0  0  0
  3 89  1  0  0  0
  4  5  1  0  0  0
  4 90  1  0  0  0
  4 91  1  0  0  0
  5  6  1  0  0  0
  5 26  1  0  0  0
  5 92  1  0  0  0
  6 25  1  0  0  0
  6 93  1  0  0  0
  6 94  1  0  0  0
  7  8  2  0  0  0
  7 26  1  0  0  0
  7 29  1  0  0  0
  8  9  1  0  0  0
  8 22  1  0  0  0
  9 10  1  0  0  0
  9 27  2  0  0  0
 10 11  2  0  0  0
 10 15  1  0  0  0
 11 12  1  0  0  0
 11 95  1  0  0  0
 12 13  2  0  0  0
 12 96  1  0  0  0
 13 14  1  0  0  0
 13 31  1  0  0  0
 14 15  2  0  0  0
 14 97  1  0  0  0
 15 98  1  0  0  0
 16 17  2  0  0  0
 16 21  1  0  0  0
 16 31  1  0  0  0
 17 18  1  0  0  0
 17 99  1  0  0  0
 18 19  2  0  0  0
 18100  1  0  0  0
 19 20  1  0  0  0
 19 24  1  0  0  0
 20 21  2  0  0  0
 20101  1  0  0  0
 21 23  1  0  0  0
 22 28  1  0  0  0
 22 32  2  0  0  0
 26 27  1  0  0  0
 28102  1  0  0  0
 28103  1  0  0  0
 29104  1  0  0  0
 29105  1  0  0  0
 33 34  1  0  0  0
 33 66  1  0  0  0
 33 70  2  0  0  0
 34 36  1  0  0  0
 34 59  1  0  0  0
 34106  1  0  0  0
 35 44  2  0  0  0
 35 45  1  0  0  0
 35 68  1  0  0  0
 36 56  1  0  0  0
 36107  1  0  0  0
 37 39  1  0  0  0
 37 47  1  0  0  0
 37 66  1  0  0  0
 37108  1  0  0  0
 38 43  2  0  0  0
 38 46  1  0  0  0
 38 47  1  0  0  0
 39 64  1  0  0  0
 39 67  2  0  0  0
 40 52  1  0  0  0
 40 53  2  0  0  0
 40 58  1  0  0  0
 41109  1  0  0  0
 41110  1  0  0  0
 41111  1  0  0  0
 41 48  1  0  0  0
 42 43  1  0  0  0
 42 66  1  0  0  0
 42112  1  0  0  0
 42113  1  0  0  0
 43 44  1  0  0  0
 44114  1  0  0  0
 45 46  2  0  0  0
 45115  1  0  0  0
 46116  1  0  0  0
 47117  1  0  0  0
 47118  1  0  0  0
 48 56  1  0  0  0
 48 65  1  0  0  0
 48119  1  0  0  0
 49 50  1  0  0  0
 49 53  1  0  0  0
 49 64  1  0  0  0
 49120  1  0  0  0
 50 51  1  0  0  0
 50121  1  0  0  0
 50122  1  0  0  0
 51 52  1  0  0  0
 51123  1  0  0  0
 51124  1  0  0  0
 52125  1  0  0  0
 52126  1  0  0  0
 53 54  1  0  0  0
 54 55  2  0  0  0
 54127  1  0  0  0
 55 57  1  0  0  0
 55128  1  0  0  0
 56 69  2  0  0  0
 57 58  2  0  0  0
 57129  1  0  0  0
 58130  1  0  0  0
 59 60  1  0  0  0
 59 61  1  0  0  0
 59 62  1  0  0  0
 60131  1  0  0  0
 60132  1  0  0  0
 60133  1  0  0  0
 61134  1  0  0  0
 61135  1  0  0  0
 61136  1  0  0  0
 62137  1  0  0  0
 62138  1  0  0  0
 62139  1  0  0  0
 63 65  1  0  0  0
 63140  1  0  0  0
 63141  1  0  0  0
 63142  1  0  0  0
 64143  1  0  0  0
 65144  1  0  0  0
 68 80  1  0  0  0
 71 74  2  0  0  0
 71 75  1  0  0  0
 71145  1  0  0  0
 72 74  1  0  0  0
 72 76  2  0  0  0
 72146  1  0  0  0
 73 75  2  0  0  0
 73 76  1  0  0  0
 73147  1  0  0  0
 74 78  1  0  0  0
 75 79  1  0  0  0
 76 80  1  0  0  0
 77 81  1  0  0  0
 77148  1  0  0  0
 77149  1  0  0  0
 77150  1  0  0  0
 78 82  1  0  0  0
 78151  1  0  0  0
 78152  1  0  0  0
 79 83  1  0  0  0
 79153  1  0  0  0
 79154  1  0  0  0
 80155  1  0  0  0
 80156  1  0  0  0
 81 82  1  0  0  0
 81157  1  0  0  0
 81158  1  0  0  0
 82159  1  0  0  0
 82160  1  0  0  0
 83 84  1  0  0  0
 83161  1  0  0  0
 83162  1  0  0  0
 84 85  1  0  0  0
 84163  1  0  0  0
 84164  1  0  0  0
 85165  1  0  0  0
M  ISO  4   1 100  68 101  80 101  85 100
M  END
> <chiral flag>
0

> <version>
0

> <s_m_source_file>
/data/baiqing/PycharmProjects/Reinvent-master-3.2/result/LINK_invent/BTK/process_docking_weight1_custom_sum_contain_oxygen_bond_distance_aromatic_linkinvent_7_9_3/rearranged_h_0040.sdf

> <i_m_source_file_index>
31

> <r_mmod_Potential_Energy-OPLS-2005>
169.443557739258

> <r_mmod_Stretch_Energy-OPLS-2005>
112.093383789062

> <r_mmod_Bend_Energy-OPLS-2005>
168.186248779297

> <r_mmod_Torsional_Energy-OPLS-2005>
238.671325683594

> <r_mmod_Improper_Torsional_Energy-OPLS-2005>
7.09341812133789

> <r_mmod_Van_der_Waal_Energy-OPLS-2005>
127.858757019043

> <r_mmod_Electrostatic_Energy-OPLS-2005>
-353.696838378906

> <r_mmod_Solvation_Energy-OPLS-2005>
-201.139923095703

> <b_mmod_Minimization_Converged-OPLS-2005>
0

> <r_mmod_RMS_Derivative-OPLS-2005>
5.9875750541687

$$$$
31
                    3D
 Structure written by MMmdl.
155163  0  0  1  0            999 V2000
  -30.6028  -14.7318   20.4740 C   0  0  0  0  0  0
  -30.4253  -12.4435   19.4716 C   0  0  0  0  0  0
  -29.5121  -12.5165   18.2295 C   0  0  0  0  0  0
  -28.0343  -12.3362   18.6354 C   0  0  0  0  0  0
  -27.6363  -13.2272   19.8443 C   0  0  2  0  0  0
  -28.6795  -13.1616   20.9815 C   0  0  0  0  0  0
  -25.2519  -13.8171   20.5685 C   0  0  0  0  0  0
  -24.1790  -13.0437   20.9239 C   0  0  0  0  0  0
  -24.6376  -11.6940   20.8797 C   0  0  0  0  0  0
  -23.9021  -10.4362   21.0452 C   0  0  0  0  0  0
  -24.3499   -9.4390   21.9358 C   0  0  0  0  0  0
  -23.6207   -8.2416   22.0912 C   0  0  0  0  0  0
  -22.4281   -8.0348   21.3557 C   0  0  0  0  0  0
  -21.9990   -9.0273   20.4538 C   0  0  0  0  0  0
  -22.7293  -10.2165   20.2993 C   0  0  0  0  0  0
  -21.6874   -6.0797   22.5340 C   0  0  0  0  0  0
  -21.3999   -6.5676   23.8274 C   0  0  0  0  0  0
  -21.3610   -5.6818   24.9229 C   0  0  0  0  0  0
  -21.6029   -4.3088   24.7278 C   0  0  0  0  0  0
  -21.8799   -3.8183   23.4402 C   0  0  0  0  0  0
  -21.9196   -4.7017   22.3451 C   0  0  0  0  0  0
  -22.7772  -13.5222   21.1768 C   0  0  0  0  0  0
  -22.1669   -4.2187   21.1045 F   0  0  0  0  0  0
  -21.5614   -3.4559   25.7789 F   0  0  0  0  0  0
  -29.9821  -13.5064   20.4013 N   0  0  0  0  0  0
  -26.2906  -12.9362   20.3274 N   0  0  0  0  0  0
  -25.9316  -11.6525   20.5823 N   0  0  0  0  0  0
  -22.0204  -12.8092   22.0047 N   0  0  0  0  0  0
  -25.4202  -15.1879   20.4041 N   0  0  0  0  0  0
  -31.7932  -14.8409   20.1660 O   0  0  0  0  0  0
  -21.6650   -6.8948   21.4293 O   0  0  0  0  0  0
  -22.3577  -14.5620   20.6696 O   0  0  0  0  0  0
  -24.6286  -31.8568   23.2023 C   0  0  0  0  0  0
  -25.9124  -32.4756   23.8346 C   0  0  1  0  0  0
  -27.2128  -27.2665   20.1374 C   0  0  0  0  0  0
  -25.5936  -33.8555   24.2258 N   0  0  0  0  0  0
  -23.4240  -30.4809   21.5439 C   0  0  2  0  0  0
  -24.8703  -28.9247   20.1187 C   0  0  0  0  0  0
  -22.7483  -29.4606   22.4927 C   0  0  0  0  0  0
  -18.0293  -28.1377   22.8481 C   0  0  0  0  0  0
  -24.1504  -36.7285   23.2641 C   0  0  0  0  0  0
  -25.9688  -30.7671   21.3879 C   0  0  0  0  0  0
  -26.0391  -29.3868   20.7394 C   0  0  0  0  0  0
  -27.2123  -28.5659   20.7457 C   0  0  0  0  0  0
  -26.0356  -26.8872   19.4636 C   0  0  0  0  0  0
  -24.8729  -27.6811   19.4710 C   0  0  0  0  0  0
  -23.6430  -29.8142   20.1613 C   0  0  0  0  0  0
  -25.4129  -36.3063   24.0320 C   0  0  1  0  0  0
  -20.5887  -28.3690   23.1278 C   0  0  2  0  0  0
  -20.6785  -26.9414   22.5407 C   0  0  0  0  0  0
  -19.5765  -26.6382   21.5207 C   0  0  0  0  0  0
  -18.1941  -26.7925   22.1622 C   0  0  0  0  0  0
  -19.1541  -28.8852   23.2875 C   0  0  0  0  0  0
  -18.9468  -30.1453   23.8892 C   0  0  0  0  0  0
  -17.6466  -30.6584   24.0555 C   0  0  0  0  0  0
  -25.9065  -34.9431   23.5093 C   0  0  0  0  0  0
  -16.5354  -29.9077   23.6331 C   0  0  0  0  0  0
  -16.7278  -28.6491   23.0352 C   0  0  0  0  0  0
  -26.4509  -31.6568   25.0723 C   0  0  0  0  0  0
  -25.3734  -31.3695   26.1439 C   0  0  0  0  0  0
  -27.0372  -30.2985   24.6217 C   0  0  0  0  0  0
  -27.6046  -32.4322   25.7505 C   0  0  0  0  0  0
  -27.5582  -37.1804   24.8463 C   0  0  0  0  0  0
  -21.4191  -29.3040   22.3669 N   0  0  0  0  0  0
  -26.4309  -37.3759   23.9401 N   0  0  0  0  0  0
  -24.6920  -31.0539   22.1001 N   0  0  0  0  0  0
  -23.4191  -28.8146   23.3012 O   0  0  0  0  0  0
  -28.3171  -26.3950   20.0818 O   0  0  0  0  0  0
  -26.5634  -34.8899   22.4662 O   0  0  0  0  0  0
  -23.5438  -32.1391   23.7330 O   0  0  0  0  0  0
  -27.4099  -20.9944   19.8792 C   0  0  0  0  0  0
  -26.8746  -23.3655   19.8587 C   0  0  0  0  0  0
  -26.5113  -22.0336   19.5826 C   0  0  0  0  0  0
  -28.6575  -21.2863   20.4543 C   0  0  0  0  0  0
  -28.1240  -23.6740   20.4295 C   0  0  0  0  0  0
  -25.1488  -21.7109   19.0047 C   0  0  0  0  0  0
  -29.6371  -20.0775   20.7945 C   0  0  0  0  0  0
  -28.3918  -25.1697   20.9450 C   0  0  0  0  0  0
  -29.1754  -18.5261   20.6037 C   0  0  0  0  0  0
  -30.2341  -17.3230   20.8594 C   0  0  0  0  0  0
  -28.9948  -22.6166   20.7174 N   0  0  0  0  0  0
  -29.8225  -15.8550   20.7153 N   0  0  0  0  0  0
  -31.4734  -12.5473   19.1876 H   0  0  0  0  0  0
  -30.3392  -11.4672   19.9521 H   0  0  0  0  0  0
  -29.7942  -11.7618   17.4931 H   0  0  0  0  0  0
  -29.6437  -13.4827   17.7407 H   0  0  0  0  0  0
  -27.8791  -11.2852   18.8817 H   0  0  0  0  0  0
  -27.3906  -12.5425   17.7784 H   0  0  0  0  0  0
  -27.6241  -14.2462   19.4595 H   0  0  0  0  0  0
  -28.7098  -12.1682   21.4302 H   0  0  0  0  0  0
  -28.4183  -13.8505   21.7866 H   0  0  0  0  0  0
  -25.2540   -9.6039   22.5035 H   0  0  0  0  0  0
  -23.9876   -7.4933   22.7791 H   0  0  0  0  0  0
  -21.1040   -8.8767   19.8662 H   0  0  0  0  0  0
  -22.3857  -10.9708   19.6045 H   0  0  0  0  0  0
  -21.2011   -7.6180   23.9809 H   0  0  0  0  0  0
  -21.1384   -6.0548   25.9125 H   0  0  0  0  0  0
  -22.0584   -2.7645   23.2944 H   0  0  0  0  0  0
  -21.0690  -13.0969   22.1890 H   0  0  0  0  0  0
  -22.3555  -11.9491   22.4128 H   0  0  0  0  0  0
  -24.6483  -15.8361   20.5129 H   0  0  0  0  0  0
  -26.2581  -15.6340   20.0552 H   0  0  0  0  0  0
  -26.7179  -32.5403   23.1072 H   0  0  0  0  0  0
  -25.0078  -33.9694   25.0402 H   0  0  0  0  0  0
  -22.7184  -31.3016   21.4003 H   0  0  0  0  0  0
  -23.3760  -35.9627   23.3307 H   0  0  0  0  0  0
  -24.3595  -36.8909   22.2054 H   0  0  0  0  0  0
  -23.7265  -37.6490   23.6672 H   0  0  0  0  0  0
  -26.1112  -31.5252   20.6164 H   0  0  0  0  0  0
  -26.8457  -30.8154   22.0216 H   0  0  0  0  0  0
  -28.1104  -28.9192   21.2330 H   0  0  0  0  0  0
  -26.0142  -25.9770   18.8884 H   0  0  0  0  0  0
  -23.9876  -27.3376   18.9519 H   0  0  0  0  0  0
  -23.7652  -30.5895   19.4050 H   0  0  0  0  0  0
  -22.7621  -29.2466   19.8577 H   0  0  0  0  0  0
  -25.1319  -36.1911   25.0816 H   0  0  0  0  0  0
  -20.9977  -28.3269   24.1400 H   0  0  0  0  0  0
  -20.5703  -26.2292   23.3601 H   0  0  0  0  0  0
  -21.6655  -26.7450   22.1193 H   0  0  0  0  0  0
  -19.6936  -25.6294   21.1235 H   0  0  0  0  0  0
  -19.6710  -27.3191   20.6733 H   0  0  0  0  0  0
  -17.4212  -26.6650   21.4022 H   0  0  0  0  0  0
  -18.0359  -26.0062   22.9019 H   0  0  0  0  0  0
  -19.7941  -30.7267   24.2253 H   0  0  0  0  0  0
  -17.5020  -31.6268   24.5160 H   0  0  0  0  0  0
  -15.5356  -30.2978   23.7666 H   0  0  0  0  0  0
  -15.8668  -28.0808   22.7076 H   0  0  0  0  0  0
  -24.5892  -30.7077   25.7746 H   0  0  0  0  0  0
  -24.8960  -32.2861   26.4907 H   0  0  0  0  0  0
  -25.8054  -30.8815   27.0185 H   0  0  0  0  0  0
  -26.2959  -29.6713   24.1255 H   0  0  0  0  0  0
  -27.4061  -29.7259   25.4737 H   0  0  0  0  0  0
  -27.8834  -30.4252   23.9460 H   0  0  0  0  0  0
  -27.2627  -33.3612   26.2081 H   0  0  0  0  0  0
  -28.3869  -32.6906   25.0353 H   0  0  0  0  0  0
  -28.0712  -31.8455   26.5429 H   0  0  0  0  0  0
  -28.2596  -38.0104   24.7513 H   0  0  0  0  0  0
  -28.1085  -36.2631   24.6302 H   0  0  0  0  0  0
  -27.2296  -37.1460   25.8866 H   0  0  0  0  0  0
  -20.9365  -29.8740   21.6850 H   0  0  0  0  0  0
  -26.0179  -38.2843   24.1383 H   0  0  0  0  0  0
  -27.1267  -19.9710   19.6757 H   0  0  0  0  0  0
  -26.1495  -24.1393   19.6888 H   0  0  0  0  0  0
  -24.7426  -20.8041   19.4544 H   0  0  0  0  0  0
  -25.2229  -21.5599   17.9277 H   0  0  0  0  0  0
  -24.4392  -22.5167   19.1922 H   0  0  0  0  0  0
  -29.9584  -20.2174   21.8270 H   0  0  0  0  0  0
  -30.5356  -20.2312   20.1975 H   0  0  0  0  0  0
  -29.3984  -25.1773   21.3625 H   0  0  0  0  0  0
  -27.7380  -25.3336   21.8027 H   0  0  0  0  0  0
  -28.8162  -18.4223   19.5795 H   0  0  0  0  0  0
  -28.2992  -18.3554   21.2367 H   0  0  0  0  0  0
  -30.5954  -17.4254   21.8846 H   0  0  0  0  0  0
  -31.1090  -17.4918   20.2288 H   0  0  0  0  0  0
  -28.8407  -15.6643   20.8547 H   0  0  0  0  0  0
  1 25  1  0  0  0
  1 30  2  0  0  0
  1 82  1  0  0  0
  2  3  1  0  0  0
  2 25  1  0  0  0
  2 83  1  0  0  0
  2 84  1  0  0  0
  3  4  1  0  0  0
  3 85  1  0  0  0
  3 86  1  0  0  0
  4  5  1  0  0  0
  4 87  1  0  0  0
  4 88  1  0  0  0
  5  6  1  0  0  0
  5 26  1  0  0  0
  5 89  1  0  0  0
  6 25  1  0  0  0
  6 90  1  0  0  0
  6 91  1  0  0  0
  7  8  2  0  0  0
  7 26  1  0  0  0
  7 29  1  0  0  0
  8  9  1  0  0  0
  8 22  1  0  0  0
  9 10  1  0  0  0
  9 27  2  0  0  0
 10 11  2  0  0  0
 10 15  1  0  0  0
 11 12  1  0  0  0
 11 92  1  0  0  0
 12 13  2  0  0  0
 12 93  1  0  0  0
 13 14  1  0  0  0
 13 31  1  0  0  0
 14 15  2  0  0  0
 14 94  1  0  0  0
 15 95  1  0  0  0
 16 17  2  0  0  0
 16 21  1  0  0  0
 16 31  1  0  0  0
 17 18  1  0  0  0
 17 96  1  0  0  0
 18 19  2  0  0  0
 18 97  1  0  0  0
 19 20  1  0  0  0
 19 24  1  0  0  0
 20 21  2  0  0  0
 20 98  1  0  0  0
 21 23  1  0  0  0
 22 28  1  0  0  0
 22 32  2  0  0  0
 26 27  1  0  0  0
 28 99  1  0  0  0
 28100  1  0  0  0
 29101  1  0  0  0
 29102  1  0  0  0
 33 34  1  0  0  0
 33 66  1  0  0  0
 33 70  2  0  0  0
 34 36  1  0  0  0
 34 59  1  0  0  0
 34103  1  0  0  0
 35 44  2  0  0  0
 35 45  1  0  0  0
 35 68  1  0  0  0
 36 56  1  0  0  0
 36104  1  0  0  0
 37 39  1  0  0  0
 37 47  1  0  0  0
 37 66  1  0  0  0
 37105  1  0  0  0
 38 43  2  0  0  0
 38 46  1  0  0  0
 38 47  1  0  0  0
 39 64  1  0  0  0
 39 67  2  0  0  0
 40 52  1  0  0  0
 40 53  2  0  0  0
 40 58  1  0  0  0
 41106  1  0  0  0
 41107  1  0  0  0
 41108  1  0  0  0
 41 48  1  0  0  0
 42 43  1  0  0  0
 42 66  1  0  0  0
 42109  1  0  0  0
 42110  1  0  0  0
 43 44  1  0  0  0
 44111  1  0  0  0
 45 46  2  0  0  0
 45112  1  0  0  0
 46113  1  0  0  0
 47114  1  0  0  0
 47115  1  0  0  0
 48 56  1  0  0  0
 48 65  1  0  0  0
 48116  1  0  0  0
 49 50  1  0  0  0
 49 53  1  0  0  0
 49 64  1  0  0  0
 49117  1  0  0  0
 50 51  1  0  0  0
 50118  1  0  0  0
 50119  1  0  0  0
 51 52  1  0  0  0
 51120  1  0  0  0
 51121  1  0  0  0
 52122  1  0  0  0
 52123  1  0  0  0
 53 54  1  0  0  0
 54 55  2  0  0  0
 54124  1  0  0  0
 55 57  1  0  0  0
 55125  1  0  0  0
 56 69  2  0  0  0
 57 58  2  0  0  0
 57126  1  0  0  0
 58127  1  0  0  0
 59 60  1  0  0  0
 59 61  1  0  0  0
 59 62  1  0  0  0
 60128  1  0  0  0
 60129  1  0  0  0
 60130  1  0  0  0
 61131  1  0  0  0
 61132  1  0  0  0
 61133  1  0  0  0
 62134  1  0  0  0
 62135  1  0  0  0
 62136  1  0  0  0
 63 65  1  0  0  0
 63137  1  0  0  0
 63138  1  0  0  0
 63139  1  0  0  0
 64140  1  0  0  0
 65141  1  0  0  0
 68 78  1  0  0  0
 71 73  2  0  0  0
 71 74  1  0  0  0
 71142  1  0  0  0
 72 73  1  0  0  0
 72 75  2  0  0  0
 72143  1  0  0  0
 73 76  1  0  0  0
 74 77  1  0  0  0
 74 81  2  0  0  0
 75 78  1  0  0  0
 75 81  1  0  0  0
 76144  1  0  0  0
 76145  1  0  0  0
 76146  1  0  0  0
 77 79  1  0  0  0
 77147  1  0  0  0
 77148  1  0  0  0
 78149  1  0  0  0
 78150  1  0  0  0
 79 80  1  0  0  0
 79151  1  0  0  0
 79152  1  0  0  0
 80 82  1  0  0  0
 80153  1  0  0  0
 80154  1  0  0  0
 82155  1  0  0  0
M  ISO  4   1 100  68 101  78 101  82 100
M  END
> <chiral flag>
0

> <version>
0

> <s_m_source_file>
/data/baiqing/PycharmProjects/Reinvent-master-3.2/result/LINK_invent/BTK/process_docking_weight1_custom_sum_contain_oxygen_bond_distance_aromatic_linkinvent_7_9_3/rearranged_h_0040.sdf

> <i_m_source_file_index>
32

> <r_mmod_Potential_Energy-OPLS-2005>
25.0752029418945

> <r_mmod_Stretch_Energy-OPLS-2005>
123.349769592285

> <r_mmod_Bend_Energy-OPLS-2005>
167.504333496094

> <r_mmod_Torsional_Energy-OPLS-2005>
233.893539428711

> <r_mmod_Improper_Torsional_Energy-OPLS-2005>
5.41712999343872

> <r_mmod_Van_der_Waal_Energy-OPLS-2005>
135.029479980469

> <r_mmod_Electrostatic_Energy-OPLS-2005>
-492.832855224609

> <r_mmod_Solvation_Energy-OPLS-2005>
-225.306121826172

> <b_mmod_Minimization_Converged-OPLS-2005>
0

> <r_mmod_RMS_Derivative-OPLS-2005>
4.31288814544678

$$$$
32
                    3D
 Structure written by MMmdl.
179187  0  0  1  0            999 V2000
  -30.6794  -14.4529   20.6067 C   0  0  0  0  0  0
  -30.4267  -12.3063   19.4082 C   0  0  0  0  0  0
  -29.4900  -12.5278   18.2007 C   0  0  0  0  0  0
  -28.0117  -12.3868   18.6146 C   0  0  0  0  0  0
  -27.6664  -13.2007   19.8900 C   0  0  2  0  0  0
  -28.7083  -12.9350   21.0014 C   0  0  0  0  0  0
  -25.2595  -13.8127   20.5688 C   0  0  0  0  0  0
  -24.1843  -13.0414   20.9154 C   0  0  0  0  0  0
  -24.6393  -11.6875   20.8731 C   0  0  0  0  0  0
  -23.9051  -10.4276   21.0411 C   0  0  0  0  0  0
  -24.3604   -9.4185   21.9184 C   0  0  0  0  0  0
  -23.6274   -8.2226   22.0766 C   0  0  0  0  0  0
  -22.4258   -8.0268   21.3549 C   0  0  0  0  0  0
  -21.9887   -9.0240   20.4650 C   0  0  0  0  0  0
  -22.7216  -10.2114   20.3061 C   0  0  0  0  0  0
  -21.6856   -6.0714   22.5263 C   0  0  0  0  0  0
  -21.4019   -6.5630   23.8188 C   0  0  0  0  0  0
  -21.3661   -5.6795   24.9154 C   0  0  0  0  0  0
  -21.6047   -4.3053   24.7222 C   0  0  0  0  0  0
  -21.8815   -3.8135   23.4349 C   0  0  0  0  0  0
  -21.9193   -4.6945   22.3394 C   0  0  0  0  0  0
  -22.7870  -13.5203   21.1827 C   0  0  0  0  0  0
  -22.1659   -4.2124   21.0977 F   0  0  0  0  0  0
  -21.5646   -3.4542   25.7740 F   0  0  0  0  0  0
  -30.0393  -13.2619   20.4578 N   0  0  0  0  0  0
  -26.3047  -12.9288   20.3438 N   0  0  0  0  0  0
  -25.9320  -11.6450   20.5773 N   0  0  0  0  0  0
  -22.0542  -12.8204   22.0405 N   0  0  0  0  0  0
  -25.4321  -15.1844   20.4054 N   0  0  0  0  0  0
  -31.7748  -14.7067   20.0985 O   0  0  0  0  0  0
  -21.6637   -6.8852   21.4222 O   0  0  0  0  0  0
  -22.3545  -14.5511   20.6674 O   0  0  0  0  0  0
  -24.6122  -31.8676   23.2080 C   0  0  0  0  0  0
  -25.9019  -32.4822   23.8380 C   0  0  1  0  0  0
  -27.2409  -27.4342   20.1173 C   0  0  0  0  0  0
  -25.5882  -33.8620   24.2306 N   0  0  0  0  0  0
  -23.4014  -30.4870   21.5483 C   0  0  2  0  0  0
  -24.8521  -28.9477   20.1180 C   0  0  0  0  0  0
  -22.7402  -29.4654   22.5007 C   0  0  0  0  0  0
  -18.0275  -28.1388   22.8506 C   0  0  0  0  0  0
  -24.1482  -36.7312   23.2639 C   0  0  0  0  0  0
  -25.9278  -30.8372   21.3588 C   0  0  0  0  0  0
  -26.0095  -29.4700   20.7089 C   0  0  0  0  0  0
  -27.2093  -28.7237   20.6979 C   0  0  0  0  0  0
  -26.0721  -26.9234   19.5189 C   0  0  0  0  0  0
  -24.8778  -27.6739   19.5204 C   0  0  0  0  0  0
  -23.6093  -29.8097   20.1661 C   0  0  0  0  0  0
  -25.4106  -36.3111   24.0330 C   0  0  1  0  0  0
  -20.5865  -28.3664   23.1345 C   0  0  2  0  0  0
  -20.6769  -26.9403   22.5435 C   0  0  0  0  0  0
  -19.5742  -26.6392   21.5238 C   0  0  0  0  0  0
  -18.1917  -26.7935   22.1645 C   0  0  0  0  0  0
  -19.1524  -28.8841   23.2922 C   0  0  0  0  0  0
  -18.9453  -30.1456   23.8917 C   0  0  0  0  0  0
  -17.6455  -30.6597   24.0574 C   0  0  0  0  0  0
  -25.9036  -34.9476   23.5119 C   0  0  0  0  0  0
  -16.5346  -29.9106   23.6335 C   0  0  0  0  0  0
  -16.7266  -28.6530   23.0345 C   0  0  0  0  0  0
  -26.4456  -31.6607   25.0713 C   0  0  0  0  0  0
  -25.3723  -31.3734   26.1470 C   0  0  0  0  0  0
  -27.0259  -30.3034   24.6091 C   0  0  0  0  0  0
  -27.6027  -32.4332   25.7482 C   0  0  0  0  0  0
  -27.5578  -37.1803   24.8463 C   0  0  0  0  0  0
  -21.4130  -29.3026   22.3745 N   0  0  0  0  0  0
  -26.4291  -37.3794   23.9400 N   0  0  0  0  0  0
  -24.6648  -31.0781   22.0973 N   0  0  0  0  0  0
  -23.4171  -28.8211   23.3058 O   0  0  0  0  0  0
  -28.4045  -26.6936   20.1013 O   0  0  0  0  0  0
  -26.5604  -34.8930   22.4689 O   0  0  0  0  0  0
  -23.5321  -32.1423   23.7490 O   0  0  0  0  0  0
  -30.0363  -19.9018   21.0818 C   0  0  0  0  0  0
  -29.9382  -21.3104   21.0202 C   0  0  0  0  0  0
  -29.1347  -21.9387   19.9957 C   0  0  0  0  0  0
  -29.3216  -19.1078   20.1801 C   0  0  0  0  0  0
  -28.3381  -21.0128   19.2269 C   0  0  0  0  0  0
  -32.2276  -21.9104   22.0312 C   0  0  0  0  0  0
  -25.8836  -21.6814   19.2180 C   0  0  0  0  0  0
  -31.5710  -23.2609   18.6941 C   0  0  0  0  0  0
  -27.9891  -26.1607   22.5153 C   0  0  0  0  0  0
  -28.5885  -23.9711   18.3942 C   0  0  0  0  0  0
  -30.6963  -22.0247   22.1443 C   0  0  0  0  0  0
  -29.3861  -17.5722   20.1333 C   0  0  0  0  0  0
  -27.1112  -21.3324   18.3634 C   0  0  0  0  0  0
  -30.6519  -24.0226   19.6688 C   0  0  0  0  0  0
  -28.3341  -24.2631   20.8472 C   0  0  0  0  0  0
  -30.1781  -16.8509   21.2537 C   0  0  0  0  0  0
  -28.6505  -25.7572   21.1786 C   0  0  1  0  0  0
  -29.1734  -23.5103   19.7533 C   0  0  2  0  0  0
  -28.4694  -19.6684   19.3121 N   0  0  0  0  0  0
  -29.9560  -15.3946   21.2366 N   0  0  0  0  0  0
  -31.4701  -12.4232   19.1090 H   0  0  0  0  0  0
  -30.3374  -11.2833   19.7787 H   0  0  0  0  0  0
  -29.7185  -11.8185   17.4040 H   0  0  0  0  0  0
  -29.6582  -13.5222   17.7828 H   0  0  0  0  0  0
  -27.8109  -11.3278   18.7833 H   0  0  0  0  0  0
  -27.3614  -12.6925   17.7930 H   0  0  0  0  0  0
  -27.7195  -14.2553   19.6208 H   0  0  0  0  0  0
  -28.6884  -11.8845   21.2959 H   0  0  0  0  0  0
  -28.4666  -13.4853   21.9119 H   0  0  0  0  0  0
  -25.2750   -9.5663   22.4747 H   0  0  0  0  0  0
  -23.9979   -7.4625   22.7497 H   0  0  0  0  0  0
  -21.0819   -8.8740   19.8962 H   0  0  0  0  0  0
  -22.3667  -10.9645   19.6174 H   0  0  0  0  0  0
  -21.2006   -7.6136   23.9665 H   0  0  0  0  0  0
  -21.1502   -6.0545   25.9051 H   0  0  0  0  0  0
  -22.0603   -2.7596   23.2854 H   0  0  0  0  0  0
  -22.4181  -11.9833   22.4712 H   0  0  0  0  0  0
  -21.1181  -13.1251   22.2676 H   0  0  0  0  0  0
  -24.6616  -15.8372   20.4957 H   0  0  0  0  0  0
  -26.2752  -15.6152   20.0511 H   0  0  0  0  0  0
  -26.7094  -32.5535   23.1151 H   0  0  0  0  0  0
  -25.0004  -33.9788   25.0434 H   0  0  0  0  0  0
  -22.6890  -31.3014   21.4054 H   0  0  0  0  0  0
  -23.3750  -35.9643   23.3315 H   0  0  0  0  0  0
  -24.3574  -36.8923   22.2053 H   0  0  0  0  0  0
  -23.7239  -37.6517   23.6655 H   0  0  0  0  0  0
  -26.0361  -31.6038   20.5901 H   0  0  0  0  0  0
  -26.8154  -30.8935   21.9759 H   0  0  0  0  0  0
  -28.1069  -29.1244   21.1479 H   0  0  0  0  0  0
  -26.0872  -25.9445   19.0614 H   0  0  0  0  0  0
  -23.9856  -27.2629   19.0693 H   0  0  0  0  0  0
  -23.7044  -30.5779   19.3980 H   0  0  0  0  0  0
  -22.7359  -29.2192   19.8829 H   0  0  0  0  0  0
  -25.1290  -36.1975   25.0825 H   0  0  0  0  0  0
  -20.9956  -28.3226   24.1466 H   0  0  0  0  0  0
  -20.5722  -26.2250   23.3612 H   0  0  0  0  0  0
  -21.6632  -26.7474   22.1193 H   0  0  0  0  0  0
  -19.6899  -25.6311   21.1252 H   0  0  0  0  0  0
  -19.6687  -27.3221   20.6785 H   0  0  0  0  0  0
  -17.4189  -26.6703   21.4044 H   0  0  0  0  0  0
  -18.0303  -26.0079   22.9041 H   0  0  0  0  0  0
  -19.7926  -30.7277   24.2277 H   0  0  0  0  0  0
  -17.5016  -31.6280   24.5175 H   0  0  0  0  0  0
  -15.5354  -30.3014   23.7656 H   0  0  0  0  0  0
  -15.8666  -28.0875   22.7022 H   0  0  0  0  0  0
  -24.5878  -30.7100   25.7820 H   0  0  0  0  0  0
  -24.8939  -32.2898   26.4928 H   0  0  0  0  0  0
  -25.8075  -30.8897   27.0219 H   0  0  0  0  0  0
  -26.2793  -29.6838   24.1104 H   0  0  0  0  0  0
  -27.3966  -29.7243   25.4558 H   0  0  0  0  0  0
  -27.8662  -30.4341   23.9267 H   0  0  0  0  0  0
  -27.2641  -33.3636   26.2054 H   0  0  0  0  0  0
  -28.3839  -32.6885   25.0311 H   0  0  0  0  0  0
  -28.0680  -31.8453   26.5405 H   0  0  0  0  0  0
  -28.2597  -38.0094   24.7505 H   0  0  0  0  0  0
  -28.1063  -36.2626   24.6294 H   0  0  0  0  0  0
  -27.2286  -37.1463   25.8861 H   0  0  0  0  0  0
  -20.9289  -29.8701   21.6933 H   0  0  0  0  0  0
  -26.0184  -38.2870   24.1408 H   0  0  0  0  0  0
  -30.6604  -19.4354   21.8331 H   0  0  0  0  0  0
  -32.7184  -22.4339   22.8520 H   0  0  0  0  0  0
  -32.6035  -22.3376   21.1043 H   0  0  0  0  0  0
  -32.5540  -20.8702   22.0657 H   0  0  0  0  0  0
  -24.9866  -21.7567   18.6048 H   0  0  0  0  0  0
  -26.0113  -22.6295   19.7348 H   0  0  0  0  0  0
  -25.7079  -20.9188   19.9771 H   0  0  0  0  0  0
  -32.5979  -23.6130   18.7943 H   0  0  0  0  0  0
  -31.2765  -23.4229   17.6583 H   0  0  0  0  0  0
  -31.5821  -22.1861   18.8737 H   0  0  0  0  0  0
  -28.3130  -25.5051   23.3239 H   0  0  0  0  0  0
  -26.9012  -26.0942   22.4638 H   0  0  0  0  0  0
  -28.2538  -27.1774   22.8051 H   0  0  0  0  0  0
  -28.9711  -23.3843   17.5589 H   0  0  0  0  0  0
  -28.8419  -25.0079   18.1699 H   0  0  0  0  0  0
  -27.5005  -23.9575   18.3801 H   0  0  0  0  0  0
  -30.3987  -21.5484   23.0803 H   0  0  0  0  0  0
  -30.3951  -23.0564   22.2901 H   0  0  0  0  0  0
  -29.8020  -17.2825   19.1681 H   0  0  0  0  0  0
  -28.3579  -17.2074   20.1352 H   0  0  0  0  0  0
  -26.8417  -20.4422   17.7910 H   0  0  0  0  0  0
  -27.2823  -22.0427   17.5648 H   0  0  0  0  0  0
  -30.6691  -25.0732   19.3744 H   0  0  0  0  0  0
  -31.1343  -24.0471   20.6374 H   0  0  0  0  0  0
  -27.2715  -24.1804   20.6323 H   0  0  0  0  0  0
  -28.4375  -23.7135   21.7794 H   0  0  0  0  0  0
  -29.8340  -17.2157   22.2224 H   0  0  0  0  0  0
  -31.2405  -17.0904   21.1874 H   0  0  0  0  0  0
  -29.7200  -25.8276   21.3730 H   0  0  0  0  0  0
  -29.0961  -15.0688   21.6556 H   0  0  0  0  0  0
  1 25  1  0  0  0
  1 30  2  0  0  0
  1 90  1  0  0  0
  2  3  1  0  0  0
  2 25  1  0  0  0
  2 91  1  0  0  0
  2 92  1  0  0  0
  3  4  1  0  0  0
  3 93  1  0  0  0
  3 94  1  0  0  0
  4  5  1  0  0  0
  4 95  1  0  0  0
  4 96  1  0  0  0
  5  6  1  0  0  0
  5 26  1  0  0  0
  5 97  1  0  0  0
  6 25  1  0  0  0
  6 98  1  0  0  0
  6 99  1  0  0  0
  7  8  2  0  0  0
  7 26  1  0  0  0
  7 29  1  0  0  0
  8  9  1  0  0  0
  8 22  1  0  0  0
  9 10  1  0  0  0
  9 27  2  0  0  0
 10 11  2  0  0  0
 10 15  1  0  0  0
 11 12  1  0  0  0
 11100  1  0  0  0
 12 13  2  0  0  0
 12101  1  0  0  0
 13 14  1  0  0  0
 13 31  1  0  0  0
 14 15  2  0  0  0
 14102  1  0  0  0
 15103  1  0  0  0
 16 17  2  0  0  0
 16 21  1  0  0  0
 16 31  1  0  0  0
 17 18  1  0  0  0
 17104  1  0  0  0
 18 19  2  0  0  0
 18105  1  0  0  0
 19 20  1  0  0  0
 19 24  1  0  0  0
 20 21  2  0  0  0
 20106  1  0  0  0
 21 23  1  0  0  0
 22 28  1  0  0  0
 22 32  2  0  0  0
 26 27  1  0  0  0
 28107  1  0  0  0
 28108  1  0  0  0
 29109  1  0  0  0
 29110  1  0  0  0
 33 34  1  0  0  0
 33 66  1  0  0  0
 33 70  2  0  0  0
 34 36  1  0  0  0
 34 59  1  0  0  0
 34111  1  0  0  0
 35 44  2  0  0  0
 35 45  1  0  0  0
 35 68  1  0  0  0
 36 56  1  0  0  0
 36112  1  0  0  0
 37 39  1  0  0  0
 37 47  1  0  0  0
 37 66  1  0  0  0
 37113  1  0  0  0
 38 43  2  0  0  0
 38 46  1  0  0  0
 38 47  1  0  0  0
 39 64  1  0  0  0
 39 67  2  0  0  0
 40 52  1  0  0  0
 40 53  2  0  0  0
 40 58  1  0  0  0
 41114  1  0  0  0
 41115  1  0  0  0
 41116  1  0  0  0
 41 48  1  0  0  0
 42 43  1  0  0  0
 42 66  1  0  0  0
 42117  1  0  0  0
 42118  1  0  0  0
 43 44  1  0  0  0
 44119  1  0  0  0
 45 46  2  0  0  0
 45120  1  0  0  0
 46121  1  0  0  0
 47122  1  0  0  0
 47123  1  0  0  0
 48 56  1  0  0  0
 48 65  1  0  0  0
 48124  1  0  0  0
 49 50  1  0  0  0
 49 53  1  0  0  0
 49 64  1  0  0  0
 49125  1  0  0  0
 50 51  1  0  0  0
 50126  1  0  0  0
 50127  1  0  0  0
 51 52  1  0  0  0
 51128  1  0  0  0
 51129  1  0  0  0
 52130  1  0  0  0
 52131  1  0  0  0
 53 54  1  0  0  0
 54 55  2  0  0  0
 54132  1  0  0  0
 55 57  1  0  0  0
 55133  1  0  0  0
 56 69  2  0  0  0
 57 58  2  0  0  0
 57134  1  0  0  0
 58135  1  0  0  0
 59 60  1  0  0  0
 59 61  1  0  0  0
 59 62  1  0  0  0
 60136  1  0  0  0
 60137  1  0  0  0
 60138  1  0  0  0
 61139  1  0  0  0
 61140  1  0  0  0
 61141  1  0  0  0
 62142  1  0  0  0
 62143  1  0  0  0
 62144  1  0  0  0
 63 65  1  0  0  0
 63145  1  0  0  0
 63146  1  0  0  0
 63147  1  0  0  0
 64148  1  0  0  0
 65149  1  0  0  0
 68 87  1  0  0  0
 71 72  2  0  0  0
 71 74  1  0  0  0
 71150  1  0  0  0
 72 73  1  0  0  0
 72 81  1  0  0  0
 73 75  2  0  0  0
 73 88  1  0  0  0
 74 82  1  0  0  0
 74 89  2  0  0  0
 75 83  1  0  0  0
 75 89  1  0  0  0
 76 81  1  0  0  0
 76151  1  0  0  0
 76152  1  0  0  0
 76153  1  0  0  0
 77 83  1  0  0  0
 77154  1  0  0  0
 77155  1  0  0  0
 77156  1  0  0  0
 78 84  1  0  0  0
 78157  1  0  0  0
 78158  1  0  0  0
 78159  1  0  0  0
 79160  1  0  0  0
 79161  1  0  0  0
 79162  1  0  0  0
 79 87  1  0  0  0
 80163  1  0  0  0
 80164  1  0  0  0
 80165  1  0  0  0
 80 88  1  0  0  0
 81166  1  0  0  0
 81167  1  0  0  0
 82 86  1  0  0  0
 82168  1  0  0  0
 82169  1  0  0  0
 83170  1  0  0  0
 83171  1  0  0  0
 84 88  1  0  0  0
 84172  1  0  0  0
 84173  1  0  0  0
 85 87  1  0  0  0
 85 88  1  0  0  0
 85174  1  0  0  0
 85175  1  0  0  0
 86 90  1  0  0  0
 86176  1  0  0  0
 86177  1  0  0  0
 87178  1  0  0  0
 90179  1  0  0  0
M  ISO  4   1 100  68 101  87 101  90 100
M  END
> <chiral flag>
0

> <version>
0

> <s_m_source_file>
/data/baiqing/PycharmProjects/Reinvent-master-3.2/result/LINK_invent/BTK/process_docking_weight1_custom_sum_contain_oxygen_bond_distance_aromatic_linkinvent_7_9_3/rearranged_h_0040.sdf

> <i_m_source_file_index>
33

> <r_mmod_Potential_Energy-OPLS-2005>
-92.7372817993164

> <r_mmod_Stretch_Energy-OPLS-2005>
59.1279411315918

> <r_mmod_Bend_Energy-OPLS-2005>
153.831604003906

> <r_mmod_Torsional_Energy-OPLS-2005>
248.156829833984

> <r_mmod_Improper_Torsional_Energy-OPLS-2005>
4.36031103134155

> <r_mmod_Van_der_Waal_Energy-OPLS-2005>
171.046371459961

> <r_mmod_Electrostatic_Energy-OPLS-2005>
-533.973205566406

> <r_mmod_Solvation_Energy-OPLS-2005>
-205.984817504883

> <b_mmod_Minimization_Converged-OPLS-2005>
0

> <r_mmod_RMS_Derivative-OPLS-2005>
2.98521733283997

$$$$
33
                    3D
 Structure written by MMmdl.
157165  0  0  1  0            999 V2000
  -30.6046  -14.7786   20.5614 C   0  0  0  0  0  0
  -30.4595  -12.5045   19.4721 C   0  0  0  0  0  0
  -29.4891  -12.4999   18.2607 C   0  0  0  0  0  0
  -28.0242  -12.2951   18.6894 C   0  0  0  0  0  0
  -27.6482  -13.1892   19.8912 C   0  0  2  0  0  0
  -28.7190  -13.0629   21.0088 C   0  0  0  0  0  0
  -25.2451  -13.8089   20.5746 C   0  0  0  0  0  0
  -24.1713  -13.0378   20.9291 C   0  0  0  0  0  0
  -24.6308  -11.6864   20.8880 C   0  0  0  0  0  0
  -23.8982  -10.4253   21.0482 C   0  0  0  0  0  0
  -24.3549   -9.4165   21.9228 C   0  0  0  0  0  0
  -23.6264   -8.2175   22.0748 C   0  0  0  0  0  0
  -22.4250   -8.0227   21.3536 C   0  0  0  0  0  0
  -21.9873   -9.0202   20.4641 C   0  0  0  0  0  0
  -22.7179  -10.2109   20.3097 C   0  0  0  0  0  0
  -21.6811   -6.0706   22.5271 C   0  0  0  0  0  0
  -21.3969   -6.5638   23.8199 C   0  0  0  0  0  0
  -21.3664   -5.6819   24.9193 C   0  0  0  0  0  0
  -21.6083   -4.3085   24.7253 C   0  0  0  0  0  0
  -21.8809   -3.8154   23.4373 C   0  0  0  0  0  0
  -21.9179   -4.6940   22.3411 C   0  0  0  0  0  0
  -22.7765  -13.5205   21.1962 C   0  0  0  0  0  0
  -22.1663   -4.2114   21.0989 F   0  0  0  0  0  0
  -21.5649   -3.4565   25.7765 F   0  0  0  0  0  0
  -30.0005  -13.5258   20.4472 N   0  0  0  0  0  0
  -26.2929  -12.9242   20.3632 N   0  0  0  0  0  0
  -25.9268  -11.6447   20.6085 N   0  0  0  0  0  0
  -22.0455  -12.8101   22.0504 N   0  0  0  0  0  0
  -25.4074  -15.1748   20.3891 N   0  0  0  0  0  0
  -31.7560  -14.8783   20.1115 O   0  0  0  0  0  0
  -21.6621   -6.8829   21.4229 O   0  0  0  0  0  0
  -22.3408  -14.5523   20.6896 O   0  0  0  0  0  0
  -24.6269  -31.8533   23.1951 C   0  0  0  0  0  0
  -25.9097  -32.4751   23.8295 C   0  0  1  0  0  0
  -27.2557  -27.2891   20.1569 C   0  0  0  0  0  0
  -25.5868  -33.8568   24.2234 N   0  0  0  0  0  0
  -23.4243  -30.4689   21.5339 C   0  0  2  0  0  0
  -24.8791  -28.9111   20.1099 C   0  0  0  0  0  0
  -22.7475  -29.4602   22.4902 C   0  0  0  0  0  0
  -18.0269  -28.1278   22.8458 C   0  0  0  0  0  0
  -24.1491  -36.7342   23.2638 C   0  0  0  0  0  0
  -25.9594  -30.7862   21.3585 C   0  0  0  0  0  0
  -26.0414  -29.4030   20.7160 C   0  0  0  0  0  0
  -27.2221  -28.6008   20.7289 C   0  0  0  0  0  0
  -26.0675  -26.8473   19.5263 C   0  0  0  0  0  0
  -24.8975  -27.6399   19.5049 C   0  0  0  0  0  0
  -23.6405  -29.7905   20.1530 C   0  0  0  0  0  0
  -25.4115  -36.3086   24.0307 C   0  0  1  0  0  0
  -20.5893  -28.3630   23.1198 C   0  0  2  0  0  0
  -20.6867  -26.9481   22.5023 C   0  0  0  0  0  0
  -19.5719  -26.6453   21.4965 C   0  0  0  0  0  0
  -18.1910  -26.7869   22.1479 C   0  0  0  0  0  0
  -19.1511  -28.8750   23.2868 C   0  0  0  0  0  0
  -18.9379  -30.1348   23.8908 C   0  0  0  0  0  0
  -17.6373  -30.6499   24.0544 C   0  0  0  0  0  0
  -25.9047  -34.9446   23.5087 C   0  0  0  0  0  0
  -16.5302  -29.8981   23.6221 C   0  0  0  0  0  0
  -16.7268  -28.6407   23.0251 C   0  0  0  0  0  0
  -26.4468  -31.6572   25.0678 C   0  0  0  0  0  0
  -25.3720  -31.3722   26.1429 C   0  0  0  0  0  0
  -27.0331  -30.2993   24.6134 C   0  0  0  0  0  0
  -27.5988  -32.4338   25.7478 C   0  0  0  0  0  0
  -27.5582  -37.1815   24.8443 C   0  0  0  0  0  0
  -21.4162  -29.3169   22.3755 N   0  0  0  0  0  0
  -26.4289  -37.3779   23.9394 N   0  0  0  0  0  0
  -24.6885  -31.0538   22.0887 N   0  0  0  0  0  0
  -23.4213  -28.8074   23.2930 O   0  0  0  0  0  0
  -28.4167  -26.4938   20.2669 O   0  0  0  0  0  0
  -26.5639  -34.8923   22.4670 O   0  0  0  0  0  0
  -23.5421  -32.1327   23.7251 O   0  0  0  0  0  0
  -29.6597  -18.7612   20.6195 C   0  0  0  0  0  0
  -32.0982  -19.1318   21.7344 C   0  0  0  0  0  0
  -31.2747  -20.2646   21.5556 C   0  0  0  0  0  0
  -30.0244  -20.1156   20.9167 C   0  0  0  0  0  0
  -30.4824  -17.6135   20.9764 C   0  0  0  0  0  0
  -31.6984  -21.5885   22.1777 C   0  0  0  0  0  0
  -28.3860  -16.2255   20.9419 C   0  0  0  0  0  0
  -28.7351  -23.8234   20.7347 C   0  0  0  0  0  0
  -28.5796  -25.0974   19.7637 C   0  0  0  0  0  0
  -29.4226  -22.4829   20.1546 C   0  0  0  0  0  0
  -29.8987  -16.1235   21.1961 C   0  0  1  0  0  0
  -31.7199  -17.8570   21.4710 N   0  0  0  0  0  0
  -29.0983  -21.1799   20.7757 O   0  0  0  0  0  0
  -29.9623  -15.9661   22.5223 F   0  0  0  0  0  0
  -31.4745  -12.6931   19.1246 H   0  0  0  0  0  0
  -30.5121  -11.5301   19.9575 H   0  0  0  0  0  0
  -29.7775  -11.7193   17.5556 H   0  0  0  0  0  0
  -29.5652  -13.4473   17.7266 H   0  0  0  0  0  0
  -27.8928  -11.2464   18.9647 H   0  0  0  0  0  0
  -27.3463  -12.4715   17.8528 H   0  0  0  0  0  0
  -27.6530  -14.1994   19.4959 H   0  0  0  0  0  0
  -28.7955  -12.0186   21.3182 H   0  0  0  0  0  0
  -28.4631  -13.5729   21.9366 H   0  0  0  0  0  0
  -25.2663   -9.5678   22.4832 H   0  0  0  0  0  0
  -24.0015   -7.4536   22.7390 H   0  0  0  0  0  0
  -21.0849   -8.8717   19.8875 H   0  0  0  0  0  0
  -22.3640  -10.9683   19.6244 H   0  0  0  0  0  0
  -21.1931   -7.6133   23.9684 H   0  0  0  0  0  0
  -21.1516   -6.0566   25.9091 H   0  0  0  0  0  0
  -22.0579   -2.7598   23.2906 H   0  0  0  0  0  0
  -22.4136  -11.9730   22.4744 H   0  0  0  0  0  0
  -21.1087  -13.1077   22.2831 H   0  0  0  0  0  0
  -24.6482  -15.8426   20.4731 H   0  0  0  0  0  0
  -26.2604  -15.5814   20.0340 H   0  0  0  0  0  0
  -26.7170  -32.5433   23.1055 H   0  0  0  0  0  0
  -24.9952  -33.9696   25.0331 H   0  0  0  0  0  0
  -22.7243  -31.2921   21.3816 H   0  0  0  0  0  0
  -23.3711  -35.9715   23.3296 H   0  0  0  0  0  0
  -24.3600  -36.8972   22.2055 H   0  0  0  0  0  0
  -23.7286  -37.6553   23.6694 H   0  0  0  0  0  0
  -26.0744  -31.5367   20.5760 H   0  0  0  0  0  0
  -26.8464  -30.8607   21.9744 H   0  0  0  0  0  0
  -28.1130  -28.9770   21.2118 H   0  0  0  0  0  0
  -26.0059  -25.8685   19.0772 H   0  0  0  0  0  0
  -24.0057  -27.2550   19.0318 H   0  0  0  0  0  0
  -23.7575  -30.5624   19.3919 H   0  0  0  0  0  0
  -22.7578  -29.2177   19.8562 H   0  0  0  0  0  0
  -25.1295  -36.1931   25.0788 H   0  0  0  0  0  0
  -21.0008  -28.3066   24.1327 H   0  0  0  0  0  0
  -21.6631  -26.7817   22.0461 H   0  0  0  0  0  0
  -20.6137  -26.2128   23.3037 H   0  0  0  0  0  0
  -19.6511  -27.3281   20.6488 H   0  0  0  0  0  0
  -19.6953  -25.6399   21.0919 H   0  0  0  0  0  0
  -17.4208  -26.6778   21.3790 H   0  0  0  0  0  0
  -18.0138  -25.9839   22.8660 H   0  0  0  0  0  0
  -19.7870  -30.7134   24.2290 H   0  0  0  0  0  0
  -17.4896  -31.6161   24.5193 H   0  0  0  0  0  0
  -15.5282  -30.2834   23.7498 H   0  0  0  0  0  0
  -15.8699  -28.0741   22.6857 H   0  0  0  0  0  0
  -24.5821  -30.7145   25.7765 H   0  0  0  0  0  0
  -24.9012  -32.2923   26.4915 H   0  0  0  0  0  0
  -25.8053  -30.8835   27.0171 H   0  0  0  0  0  0
  -26.2899  -29.6709   24.1202 H   0  0  0  0  0  0
  -27.4078  -29.7268   25.4631 H   0  0  0  0  0  0
  -27.8745  -30.4264   23.9320 H   0  0  0  0  0  0
  -27.2502  -33.3554   26.2163 H   0  0  0  0  0  0
  -28.3757  -32.7050   25.0320 H   0  0  0  0  0  0
  -28.0745  -31.8438   26.5318 H   0  0  0  0  0  0
  -28.2558  -38.0141   24.7478 H   0  0  0  0  0  0
  -28.1094  -36.2657   24.6265 H   0  0  0  0  0  0
  -27.2309  -37.1474   25.8845 H   0  0  0  0  0  0
  -20.9260  -29.9207   21.7288 H   0  0  0  0  0  0
  -26.0156  -38.2833   24.1428 H   0  0  0  0  0  0
  -28.6754  -18.6173   20.1995 H   0  0  0  0  0  0
  -33.0600  -19.2453   22.2127 H   0  0  0  0  0  0
  -32.3920  -21.4164   22.9962 H   0  0  0  0  0  0
  -30.8459  -22.1161   22.6082 H   0  0  0  0  0  0
  -32.1968  -22.2405   21.4596 H   0  0  0  0  0  0
  -27.9337  -17.0667   21.4701 H   0  0  0  0  0  0
  -27.8294  -15.4004   21.3486 H   0  0  0  0  0  0
  -28.1873  -16.3401   19.8767 H   0  0  0  0  0  0
  -27.7419  -23.5552   21.0932 H   0  0  0  0  0  0
  -29.2802  -24.1238   21.6309 H   0  0  0  0  0  0
  -27.8311  -24.8650   19.0137 H   0  0  0  0  0  0
  -29.5097  -25.1326   19.1969 H   0  0  0  0  0  0
  -29.1026  -22.3728   19.1185 H   0  0  0  0  0  0
  -30.5000  -22.6251   20.0711 H   0  0  0  0  0  0
  1 25  1  0  0  0
  1 30  2  0  0  0
  1 81  1  0  0  0
  2  3  1  0  0  0
  2 25  1  0  0  0
  2 85  1  0  0  0
  2 86  1  0  0  0
  3  4  1  0  0  0
  3 87  1  0  0  0
  3 88  1  0  0  0
  4  5  1  0  0  0
  4 89  1  0  0  0
  4 90  1  0  0  0
  5  6  1  0  0  0
  5 26  1  0  0  0
  5 91  1  0  0  0
  6 25  1  0  0  0
  6 92  1  0  0  0
  6 93  1  0  0  0
  7  8  2  0  0  0
  7 26  1  0  0  0
  7 29  1  0  0  0
  8  9  1  0  0  0
  8 22  1  0  0  0
  9 10  1  0  0  0
  9 27  2  0  0  0
 10 11  2  0  0  0
 10 15  1  0  0  0
 11 12  1  0  0  0
 11 94  1  0  0  0
 12 13  2  0  0  0
 12 95  1  0  0  0
 13 14  1  0  0  0
 13 31  1  0  0  0
 14 15  2  0  0  0
 14 96  1  0  0  0
 15 97  1  0  0  0
 16 17  2  0  0  0
 16 21  1  0  0  0
 16 31  1  0  0  0
 17 18  1  0  0  0
 17 98  1  0  0  0
 18 19  2  0  0  0
 18 99  1  0  0  0
 19 20  1  0  0  0
 19 24  1  0  0  0
 20 21  2  0  0  0
 20100  1  0  0  0
 21 23  1  0  0  0
 22 28  1  0  0  0
 22 32  2  0  0  0
 26 27  1  0  0  0
 28101  1  0  0  0
 28102  1  0  0  0
 29103  1  0  0  0
 29104  1  0  0  0
 33 34  1  0  0  0
 33 66  1  0  0  0
 33 70  2  0  0  0
 34 36  1  0  0  0
 34 59  1  0  0  0
 34105  1  0  0  0
 35 44  2  0  0  0
 35 45  1  0  0  0
 35 68  1  0  0  0
 36 56  1  0  0  0
 36106  1  0  0  0
 37 39  1  0  0  0
 37 47  1  0  0  0
 37 66  1  0  0  0
 37107  1  0  0  0
 38 43  2  0  0  0
 38 46  1  0  0  0
 38 47  1  0  0  0
 39 64  1  0  0  0
 39 67  2  0  0  0
 40 52  1  0  0  0
 40 53  2  0  0  0
 40 58  1  0  0  0
 41108  1  0  0  0
 41109  1  0  0  0
 41110  1  0  0  0
 41 48  1  0  0  0
 42 43  1  0  0  0
 42 66  1  0  0  0
 42111  1  0  0  0
 42112  1  0  0  0
 43 44  1  0  0  0
 44113  1  0  0  0
 45 46  2  0  0  0
 45114  1  0  0  0
 46115  1  0  0  0
 47116  1  0  0  0
 47117  1  0  0  0
 48 56  1  0  0  0
 48 65  1  0  0  0
 48118  1  0  0  0
 49 50  1  0  0  0
 49 53  1  0  0  0
 49 64  1  0  0  0
 49119  1  0  0  0
 50 51  1  0  0  0
 50120  1  0  0  0
 50121  1  0  0  0
 51 52  1  0  0  0
 51122  1  0  0  0
 51123  1  0  0  0
 52124  1  0  0  0
 52125  1  0  0  0
 53 54  1  0  0  0
 54 55  2  0  0  0
 54126  1  0  0  0
 55 57  1  0  0  0
 55127  1  0  0  0
 56 69  2  0  0  0
 57 58  2  0  0  0
 57128  1  0  0  0
 58129  1  0  0  0
 59 60  1  0  0  0
 59 61  1  0  0  0
 59 62  1  0  0  0
 60130  1  0  0  0
 60131  1  0  0  0
 60132  1  0  0  0
 61133  1  0  0  0
 61134  1  0  0  0
 61135  1  0  0  0
 62136  1  0  0  0
 62137  1  0  0  0
 62138  1  0  0  0
 63 65  1  0  0  0
 63139  1  0  0  0
 63140  1  0  0  0
 63141  1  0  0  0
 64142  1  0  0  0
 65143  1  0  0  0
 68 79  1  0  0  0
 71 74  2  0  0  0
 71 75  1  0  0  0
 71144  1  0  0  0
 72 73  2  0  0  0
 72 82  1  0  0  0
 72145  1  0  0  0
 73 74  1  0  0  0
 73 76  1  0  0  0
 74 83  1  0  0  0
 75 81  1  0  0  0
 75 82  2  0  0  0
 76146  1  0  0  0
 76147  1  0  0  0
 76148  1  0  0  0
 77149  1  0  0  0
 77150  1  0  0  0
 77151  1  0  0  0
 77 81  1  0  0  0
 78 79  1  0  0  0
 78 80  1  0  0  0
 78152  1  0  0  0
 78153  1  0  0  0
 79154  1  0  0  0
 79155  1  0  0  0
 80 83  1  0  0  0
 80156  1  0  0  0
 80157  1  0  0  0
 81 84  1  0  0  0
M  ISO  4   1 100  68 101  79 101  81 100
M  END
> <chiral flag>
0

> <version>
0

> <s_m_source_file>
/data/baiqing/PycharmProjects/Reinvent-master-3.2/result/LINK_invent/BTK/process_docking_weight1_custom_sum_contain_oxygen_bond_distance_aromatic_linkinvent_7_9_3/rearranged_h_0040.sdf

> <i_m_source_file_index>
34

> <r_mmod_Potential_Energy-OPLS-2005>
231.673614501953

> <r_mmod_Stretch_Energy-OPLS-2005>
129.125213623047

> <r_mmod_Bend_Energy-OPLS-2005>
207.994842529297

> <r_mmod_Torsional_Energy-OPLS-2005>
225.03564453125

> <r_mmod_Improper_Torsional_Energy-OPLS-2005>
6.11646795272827

> <r_mmod_Van_der_Waal_Energy-OPLS-2005>
165.306106567383

> <r_mmod_Electrostatic_Energy-OPLS-2005>
-365.971069335938

> <r_mmod_Solvation_Energy-OPLS-2005>
-214.982330322266

> <b_mmod_Minimization_Converged-OPLS-2005>
0

> <r_mmod_RMS_Derivative-OPLS-2005>
6.80553245544434

$$$$
34
                    3D
 Structure written by MMmdl.
162170  0  0  1  0            999 V2000
  -30.7005  -14.4784   20.5314 C   0  0  0  0  0  0
  -30.4246  -12.2975   19.4390 C   0  0  0  0  0  0
  -29.5029  -12.4986   18.2154 C   0  0  0  0  0  0
  -28.0230  -12.3586   18.6224 C   0  0  0  0  0  0
  -27.6650  -13.2065   19.8742 C   0  0  2  0  0  0
  -28.7060  -13.0045   21.0044 C   0  0  0  0  0  0
  -25.2617  -13.8149   20.5668 C   0  0  0  0  0  0
  -24.1860  -13.0443   20.9168 C   0  0  0  0  0  0
  -24.6404  -11.6902   20.8727 C   0  0  0  0  0  0
  -23.9066  -10.4286   21.0420 C   0  0  0  0  0  0
  -24.3620   -9.4192   21.9192 C   0  0  0  0  0  0
  -23.6290   -8.2237   22.0763 C   0  0  0  0  0  0
  -22.4275   -8.0285   21.3549 C   0  0  0  0  0  0
  -21.9904   -9.0269   20.4649 C   0  0  0  0  0  0
  -22.7240  -10.2142   20.3057 C   0  0  0  0  0  0
  -21.6841   -6.0726   22.5270 C   0  0  0  0  0  0
  -21.4009   -6.5634   23.8203 C   0  0  0  0  0  0
  -21.3655   -5.6783   24.9168 C   0  0  0  0  0  0
  -21.6042   -4.3044   24.7214 C   0  0  0  0  0  0
  -21.8819   -3.8133   23.4331 C   0  0  0  0  0  0
  -21.9191   -4.6956   22.3383 C   0  0  0  0  0  0
  -22.7876  -13.5270   21.1814 C   0  0  0  0  0  0
  -22.1672   -4.2141   21.0961 F   0  0  0  0  0  0
  -21.5625   -3.4526   25.7725 F   0  0  0  0  0  0
  -30.0405  -13.2920   20.4528 N   0  0  0  0  0  0
  -26.3052  -12.9320   20.3350 N   0  0  0  0  0  0
  -25.9334  -11.6480   20.5760 N   0  0  0  0  0  0
  -22.0503  -12.8290   22.0377 N   0  0  0  0  0  0
  -25.4339  -15.1865   20.4073 N   0  0  0  0  0  0
  -31.8387  -14.6429   20.0871 O   0  0  0  0  0  0
  -21.6638   -6.8893   21.4242 O   0  0  0  0  0  0
  -22.3579  -14.5570   20.6640 O   0  0  0  0  0  0
  -24.6144  -31.8681   23.2098 C   0  0  0  0  0  0
  -25.9037  -32.4825   23.8396 C   0  0  1  0  0  0
  -27.2387  -27.4534   20.0891 C   0  0  0  0  0  0
  -25.5896  -33.8620   24.2332 N   0  0  0  0  0  0
  -23.4034  -30.4908   21.5490 C   0  0  2  0  0  0
  -24.8541  -28.9648   20.1058 C   0  0  0  0  0  0
  -22.7411  -29.4653   22.4982 C   0  0  0  0  0  0
  -18.0277  -28.1373   22.8493 C   0  0  0  0  0  0
  -24.1490  -36.7320   23.2637 C   0  0  0  0  0  0
  -25.9304  -30.8419   21.3594 C   0  0  0  0  0  0
  -26.0139  -29.4798   20.7005 C   0  0  0  0  0  0
  -27.2128  -28.7306   20.6928 C   0  0  0  0  0  0
  -26.0667  -26.9456   19.4970 C   0  0  0  0  0  0
  -24.8753  -27.6961   19.4975 C   0  0  0  0  0  0
  -23.6110  -29.8245   20.1620 C   0  0  0  0  0  0
  -25.4111  -36.3114   24.0343 C   0  0  1  0  0  0
  -20.5864  -28.3663   23.1318 C   0  0  2  0  0  0
  -20.6766  -26.9400   22.5417 C   0  0  0  0  0  0
  -19.5741  -26.6383   21.5215 C   0  0  0  0  0  0
  -18.1921  -26.7921   22.1622 C   0  0  0  0  0  0
  -19.1522  -28.8835   23.2899 C   0  0  0  0  0  0
  -18.9452  -30.1444   23.8913 C   0  0  0  0  0  0
  -17.6451  -30.6577   24.0569 C   0  0  0  0  0  0
  -25.9030  -34.9481   23.5133 C   0  0  0  0  0  0
  -16.5346  -29.9084   23.6323 C   0  0  0  0  0  0
  -16.7264  -28.6498   23.0348 C   0  0  0  0  0  0
  -26.4473  -31.6602   25.0718 C   0  0  0  0  0  0
  -25.3754  -31.3703   26.1478 C   0  0  0  0  0  0
  -27.0285  -30.3043   24.6076 C   0  0  0  0  0  0
  -27.6070  -32.4305   25.7464 C   0  0  0  0  0  0
  -27.5585  -37.1811   24.8466 C   0  0  0  0  0  0
  -21.4139  -29.3028   22.3718 N   0  0  0  0  0  0
  -26.4298  -37.3799   23.9403 N   0  0  0  0  0  0
  -24.6678  -31.0797   22.0987 N   0  0  0  0  0  0
  -23.4186  -28.8196   23.3022 O   0  0  0  0  0  0
  -28.3271  -26.6236   20.1805 O   0  0  0  0  0  0
  -26.5591  -34.8932   22.4689 O   0  0  0  0  0  0
  -23.5335  -32.1421   23.7502 O   0  0  0  0  0  0
  -29.4665  -21.6958   18.3187 C   0  0  0  0  0  0
  -29.7065  -24.0681   17.8125 C   0  0  0  0  0  0
  -30.1290  -23.2489   20.0721 C   0  0  0  0  0  0
  -29.4017  -22.7593   17.3987 C   0  0  0  0  0  0
  -29.8373  -21.9205   19.6667 C   0  0  0  0  0  0
  -30.0690  -24.3268   19.1490 C   0  0  0  0  0  0
  -29.0305  -22.4969   15.9539 C   0  0  0  0  0  0
  -29.9374  -20.7582   20.6747 C   0  0  0  0  0  0
  -30.4725  -25.7489   19.5499 C   0  0  0  0  0  0
  -29.9013  -19.3414   20.0426 C   0  0  0  0  0  0
  -30.0057  -18.1129   20.9837 C   0  0  0  0  0  0
  -30.0023  -16.8170   20.1347 C   0  0  0  0  0  0
  -29.4096  -26.8483   19.2992 C   0  0  0  0  0  0
  -29.9379  -15.5391   20.8651 N   0  0  0  0  0  0
  -31.4729  -12.3800   19.1445 H   0  0  0  0  0  0
  -30.3091  -11.2903   19.8426 H   0  0  0  0  0  0
  -29.7473  -11.7722   17.4394 H   0  0  0  0  0  0
  -29.6717  -13.4814   17.7726 H   0  0  0  0  0  0
  -27.8356  -11.3035   18.8242 H   0  0  0  0  0  0
  -27.3783  -12.6280   17.7838 H   0  0  0  0  0  0
  -27.7023  -14.2505   19.5626 H   0  0  0  0  0  0
  -28.6770  -11.9756   21.3678 H   0  0  0  0  0  0
  -28.4733  -13.6314   21.8681 H   0  0  0  0  0  0
  -25.2780   -9.5619   22.4764 H   0  0  0  0  0  0
  -23.9963   -7.4619   22.7491 H   0  0  0  0  0  0
  -21.0819   -8.8800   19.8981 H   0  0  0  0  0  0
  -22.3723  -10.9686   19.6151 H   0  0  0  0  0  0
  -21.2022   -7.6145   23.9711 H   0  0  0  0  0  0
  -21.1486   -6.0519   25.9074 H   0  0  0  0  0  0
  -22.0611   -2.7594   23.2837 H   0  0  0  0  0  0
  -22.4123  -11.9954   22.4765 H   0  0  0  0  0  0
  -21.1129  -13.1343   22.2596 H   0  0  0  0  0  0
  -24.6653  -15.8401   20.5083 H   0  0  0  0  0  0
  -26.2810  -15.6188   20.0594 H   0  0  0  0  0  0
  -26.7111  -32.5556   23.1170 H   0  0  0  0  0  0
  -25.0074  -33.9777   25.0493 H   0  0  0  0  0  0
  -22.6921  -31.3075   21.4109 H   0  0  0  0  0  0
  -23.3740  -35.9666   23.3320 H   0  0  0  0  0  0
  -24.3583  -36.8903   22.2045 H   0  0  0  0  0  0
  -23.7259  -37.6541   23.6629 H   0  0  0  0  0  0
  -26.0390  -31.6126   20.5951 H   0  0  0  0  0  0
  -26.8189  -30.8956   21.9769 H   0  0  0  0  0  0
  -28.1010  -29.1126   21.1763 H   0  0  0  0  0  0
  -26.0722  -25.9586   19.0571 H   0  0  0  0  0  0
  -23.9822  -27.2899   19.0430 H   0  0  0  0  0  0
  -23.7113  -30.6008   19.4024 H   0  0  0  0  0  0
  -22.7375  -29.2394   19.8690 H   0  0  0  0  0  0
  -25.1284  -36.1995   25.0838 H   0  0  0  0  0  0
  -20.9955  -28.3235   24.1436 H   0  0  0  0  0  0
  -20.5663  -26.2274   23.3606 H   0  0  0  0  0  0
  -21.6634  -26.7443   22.1215 H   0  0  0  0  0  0
  -19.6904  -25.6297   21.1230 H   0  0  0  0  0  0
  -19.6680  -27.3204   20.6751 H   0  0  0  0  0  0
  -17.4193  -26.6677   21.4024 H   0  0  0  0  0  0
  -18.0319  -26.0059   22.9013 H   0  0  0  0  0  0
  -19.7926  -30.7258   24.2292 H   0  0  0  0  0  0
  -17.5005  -31.6259   24.5166 H   0  0  0  0  0  0
  -15.5349  -30.2990   23.7630 H   0  0  0  0  0  0
  -15.8663  -28.0825   22.7056 H   0  0  0  0  0  0
  -24.5918  -30.7061   25.7813 H   0  0  0  0  0  0
  -24.8965  -32.2864   26.4949 H   0  0  0  0  0  0
  -25.8124  -30.8851   27.0215 H   0  0  0  0  0  0
  -26.2806  -29.6807   24.1166 H   0  0  0  0  0  0
  -27.4090  -29.7278   25.4515 H   0  0  0  0  0  0
  -27.8629  -30.4351   23.9184 H   0  0  0  0  0  0
  -27.2719  -33.3601   26.2076 H   0  0  0  0  0  0
  -28.3860  -32.6868   25.0272 H   0  0  0  0  0  0
  -28.0760  -31.8407   26.5349 H   0  0  0  0  0  0
  -28.2625  -38.0087   24.7495 H   0  0  0  0  0  0
  -28.1058  -36.2622   24.6315 H   0  0  0  0  0  0
  -27.2301  -37.1490   25.8869 H   0  0  0  0  0  0
  -20.9302  -29.8760   21.6947 H   0  0  0  0  0  0
  -26.0198  -38.2881   24.1389 H   0  0  0  0  0  0
  -29.2399  -20.7039   17.9580 H   0  0  0  0  0  0
  -29.6794  -24.8730   17.0907 H   0  0  0  0  0  0
  -30.4247  -23.4378   21.0958 H   0  0  0  0  0  0
  -28.6603  -21.4809   15.8110 H   0  0  0  0  0  0
  -29.9007  -22.6338   15.3111 H   0  0  0  0  0  0
  -28.2522  -23.1868   15.6262 H   0  0  0  0  0  0
  -29.1265  -20.8617   21.3974 H   0  0  0  0  0  0
  -30.8647  -20.8740   21.2389 H   0  0  0  0  0  0
  -31.3781  -26.0017   18.9965 H   0  0  0  0  0  0
  -30.7572  -25.7610   20.6021 H   0  0  0  0  0  0
  -30.7038  -19.2776   19.3055 H   0  0  0  0  0  0
  -28.9629  -19.2359   19.4972 H   0  0  0  0  0  0
  -29.1685  -18.1097   21.6846 H   0  0  0  0  0  0
  -30.9198  -18.1656   21.5768 H   0  0  0  0  0  0
  -30.8556  -16.8466   19.4544 H   0  0  0  0  0  0
  -29.1248  -16.8265   19.4868 H   0  0  0  0  0  0
  -29.0697  -26.8453   18.2630 H   0  0  0  0  0  0
  -29.8388  -27.8296   19.5007 H   0  0  0  0  0  0
  -29.0465  -15.3097   21.2794 H   0  0  0  0  0  0
  1 25  1  0  0  0
  1 30  2  0  0  0
  1 84  1  0  0  0
  2  3  1  0  0  0
  2 25  1  0  0  0
  2 85  1  0  0  0
  2 86  1  0  0  0
  3  4  1  0  0  0
  3 87  1  0  0  0
  3 88  1  0  0  0
  4  5  1  0  0  0
  4 89  1  0  0  0
  4 90  1  0  0  0
  5  6  1  0  0  0
  5 26  1  0  0  0
  5 91  1  0  0  0
  6 25  1  0  0  0
  6 92  1  0  0  0
  6 93  1  0  0  0
  7  8  2  0  0  0
  7 26  1  0  0  0
  7 29  1  0  0  0
  8  9  1  0  0  0
  8 22  1  0  0  0
  9 10  1  0  0  0
  9 27  2  0  0  0
 10 11  2  0  0  0
 10 15  1  0  0  0
 11 12  1  0  0  0
 11 94  1  0  0  0
 12 13  2  0  0  0
 12 95  1  0  0  0
 13 14  1  0  0  0
 13 31  1  0  0  0
 14 15  2  0  0  0
 14 96  1  0  0  0
 15 97  1  0  0  0
 16 17  2  0  0  0
 16 21  1  0  0  0
 16 31  1  0  0  0
 17 18  1  0  0  0
 17 98  1  0  0  0
 18 19  2  0  0  0
 18 99  1  0  0  0
 19 20  1  0  0  0
 19 24  1  0  0  0
 20 21  2  0  0  0
 20100  1  0  0  0
 21 23  1  0  0  0
 22 28  1  0  0  0
 22 32  2  0  0  0
 26 27  1  0  0  0
 28101  1  0  0  0
 28102  1  0  0  0
 29103  1  0  0  0
 29104  1  0  0  0
 33 34  1  0  0  0
 33 66  1  0  0  0
 33 70  2  0  0  0
 34 36  1  0  0  0
 34 59  1  0  0  0
 34105  1  0  0  0
 35 44  2  0  0  0
 35 45  1  0  0  0
 35 68  1  0  0  0
 36 56  1  0  0  0
 36106  1  0  0  0
 37 39  1  0  0  0
 37 47  1  0  0  0
 37 66  1  0  0  0
 37107  1  0  0  0
 38 43  2  0  0  0
 38 46  1  0  0  0
 38 47  1  0  0  0
 39 64  1  0  0  0
 39 67  2  0  0  0
 40 52  1  0  0  0
 40 53  2  0  0  0
 40 58  1  0  0  0
 41108  1  0  0  0
 41109  1  0  0  0
 41110  1  0  0  0
 41 48  1  0  0  0
 42 43  1  0  0  0
 42 66  1  0  0  0
 42111  1  0  0  0
 42112  1  0  0  0
 43 44  1  0  0  0
 44113  1  0  0  0
 45 46  2  0  0  0
 45114  1  0  0  0
 46115  1  0  0  0
 47116  1  0  0  0
 47117  1  0  0  0
 48 56  1  0  0  0
 48 65  1  0  0  0
 48118  1  0  0  0
 49 50  1  0  0  0
 49 53  1  0  0  0
 49 64  1  0  0  0
 49119  1  0  0  0
 50 51  1  0  0  0
 50120  1  0  0  0
 50121  1  0  0  0
 51 52  1  0  0  0
 51122  1  0  0  0
 51123  1  0  0  0
 52124  1  0  0  0
 52125  1  0  0  0
 53 54  1  0  0  0
 54 55  2  0  0  0
 54126  1  0  0  0
 55 57  1  0  0  0
 55127  1  0  0  0
 56 69  2  0  0  0
 57 58  2  0  0  0
 57128  1  0  0  0
 58129  1  0  0  0
 59 60  1  0  0  0
 59 61  1  0  0  0
 59 62  1  0  0  0
 60130  1  0  0  0
 60131  1  0  0  0
 60132  1  0  0  0
 61133  1  0  0  0
 61134  1  0  0  0
 61135  1  0  0  0
 62136  1  0  0  0
 62137  1  0  0  0
 62138  1  0  0  0
 63 65  1  0  0  0
 63139  1  0  0  0
 63140  1  0  0  0
 63141  1  0  0  0
 64142  1  0  0  0
 65143  1  0  0  0
 68 83  1  0  0  0
 71 74  2  0  0  0
 71 75  1  0  0  0
 71144  1  0  0  0
 72 74  1  0  0  0
 72 76  2  0  0  0
 72145  1  0  0  0
 73 75  2  0  0  0
 73 76  1  0  0  0
 73146  1  0  0  0
 74 77  1  0  0  0
 75 78  1  0  0  0
 76 79  1  0  0  0
 77147  1  0  0  0
 77148  1  0  0  0
 77149  1  0  0  0
 78 80  1  0  0  0
 78150  1  0  0  0
 78151  1  0  0  0
 79 83  1  0  0  0
 79152  1  0  0  0
 79153  1  0  0  0
 80 81  1  0  0  0
 80154  1  0  0  0
 80155  1  0  0  0
 81 82  1  0  0  0
 81156  1  0  0  0
 81157  1  0  0  0
 82 84  1  0  0  0
 82158  1  0  0  0
 82159  1  0  0  0
 83160  1  0  0  0
 83161  1  0  0  0
 84162  1  0  0  0
M  ISO  4   1 100  68 101  83 101  84 100
M  END
> <chiral flag>
0

> <version>
0

> <s_m_source_file>
/data/baiqing/PycharmProjects/Reinvent-master-3.2/result/LINK_invent/BTK/process_docking_weight1_custom_sum_contain_oxygen_bond_distance_aromatic_linkinvent_7_9_3/rearranged_h_0040.sdf

> <i_m_source_file_index>
35

> <r_mmod_Potential_Energy-OPLS-2005>
-32.710994720459

> <r_mmod_Stretch_Energy-OPLS-2005>
37.2079162597656

> <r_mmod_Bend_Energy-OPLS-2005>
97.5409698486328

> <r_mmod_Torsional_Energy-OPLS-2005>
234.848663330078

> <r_mmod_Improper_Torsional_Energy-OPLS-2005>
9.55032157897949

> <r_mmod_Van_der_Waal_Energy-OPLS-2005>
146.943252563477

> <r_mmod_Electrostatic_Energy-OPLS-2005>
-366.645660400391

> <r_mmod_Solvation_Energy-OPLS-2005>
-209.171966552734

> <b_mmod_Minimization_Converged-OPLS-2005>
0

> <r_mmod_RMS_Derivative-OPLS-2005>
2.62386107444763

$$$$
35
                    3D
 Structure written by MMmdl.
166174  0  0  1  0            999 V2000
  -30.7599  -14.3316   20.6930 C   0  0  0  0  0  0
  -30.4252  -12.2718   19.3781 C   0  0  0  0  0  0
  -29.4840  -12.5224   18.1847 C   0  0  0  0  0  0
  -28.0065  -12.3885   18.6030 C   0  0  0  0  0  0
  -27.6721  -13.1973   19.8832 C   0  0  2  0  0  0
  -28.7090  -12.8989   20.9869 C   0  0  0  0  0  0
  -25.2626  -13.8149   20.5679 C   0  0  0  0  0  0
  -24.1858  -13.0435   20.9177 C   0  0  0  0  0  0
  -24.6410  -11.6904   20.8743 C   0  0  0  0  0  0
  -23.9074  -10.4296   21.0412 C   0  0  0  0  0  0
  -24.3625   -9.4204   21.9183 C   0  0  0  0  0  0
  -23.6295   -8.2242   22.0756 C   0  0  0  0  0  0
  -22.4273   -8.0292   21.3552 C   0  0  0  0  0  0
  -21.9923   -9.0266   20.4647 C   0  0  0  0  0  0
  -22.7260  -10.2139   20.3055 C   0  0  0  0  0  0
  -21.6854   -6.0749   22.5292 C   0  0  0  0  0  0
  -21.4017   -6.5647   23.8225 C   0  0  0  0  0  0
  -21.3649   -5.6798   24.9184 C   0  0  0  0  0  0
  -21.6036   -4.3061   24.7232 C   0  0  0  0  0  0
  -21.8819   -3.8157   23.4356 C   0  0  0  0  0  0
  -21.9190   -4.6977   22.3415 C   0  0  0  0  0  0
  -22.7876  -13.5223   21.1837 C   0  0  0  0  0  0
  -22.1658   -4.2166   21.0990 F   0  0  0  0  0  0
  -21.5618   -3.4536   25.7740 F   0  0  0  0  0  0
  -30.0609  -13.1929   20.4609 N   0  0  0  0  0  0
  -26.3078  -12.9305   20.3403 N   0  0  0  0  0  0
  -25.9333  -11.6467   20.5774 N   0  0  0  0  0  0
  -22.0502  -12.8229   22.0403 N   0  0  0  0  0  0
  -25.4343  -15.1867   20.4077 N   0  0  0  0  0  0
  -31.7493  -14.6869   20.0434 O   0  0  0  0  0  0
  -21.6634   -6.8896   21.4254 O   0  0  0  0  0  0
  -22.3552  -14.5522   20.6684 O   0  0  0  0  0  0
  -24.6115  -31.8710   23.2154 C   0  0  0  0  0  0
  -25.9029  -32.4827   23.8428 C   0  0  1  0  0  0
  -27.2307  -27.4713   20.0709 C   0  0  0  0  0  0
  -25.5908  -33.8630   24.2359 N   0  0  0  0  0  0
  -23.3964  -30.4980   21.5560 C   0  0  2  0  0  0
  -24.8398  -28.9735   20.1129 C   0  0  0  0  0  0
  -22.7392  -29.4676   22.5011 C   0  0  0  0  0  0
  -18.0266  -28.1366   22.8487 C   0  0  0  0  0  0
  -24.1492  -36.7319   23.2639 C   0  0  0  0  0  0
  -25.9239  -30.8450   21.3651 C   0  0  0  0  0  0
  -26.0006  -29.4867   20.7044 C   0  0  0  0  0  0
  -27.1997  -28.7434   20.6802 C   0  0  0  0  0  0
  -26.0508  -26.9689   19.4730 C   0  0  0  0  0  0
  -24.8583  -27.7119   19.4973 C   0  0  0  0  0  0
  -23.6017  -29.8372   20.1681 C   0  0  0  0  0  0
  -25.4108  -36.3117   24.0345 C   0  0  1  0  0  0
  -20.5853  -28.3648   23.1327 C   0  0  2  0  0  0
  -20.6769  -26.9391   22.5422 C   0  0  0  0  0  0
  -19.5753  -26.6379   21.5217 C   0  0  0  0  0  0
  -18.1923  -26.7914   22.1614 C   0  0  0  0  0  0
  -19.1515  -28.8822   23.2902 C   0  0  0  0  0  0
  -18.9451  -30.1429   23.8907 C   0  0  0  0  0  0
  -17.6456  -30.6575   24.0560 C   0  0  0  0  0  0
  -25.9034  -34.9478   23.5146 C   0  0  0  0  0  0
  -16.5344  -29.9079   23.6323 C   0  0  0  0  0  0
  -16.7257  -28.6497   23.0342 C   0  0  0  0  0  0
  -26.4478  -31.6583   25.0729 C   0  0  0  0  0  0
  -25.3766  -31.3660   26.1494 C   0  0  0  0  0  0
  -27.0308  -30.3035   24.6062 C   0  0  0  0  0  0
  -27.6065  -32.4294   25.7483 C   0  0  0  0  0  0
  -27.5583  -37.1812   24.8465 C   0  0  0  0  0  0
  -21.4125  -29.3020   22.3740 N   0  0  0  0  0  0
  -26.4295  -37.3798   23.9408 N   0  0  0  0  0  0
  -24.6619  -31.0844   22.1039 N   0  0  0  0  0  0
  -23.4178  -28.8212   23.3036 O   0  0  0  0  0  0
  -28.4027  -26.7473   20.0962 O   0  0  0  0  0  0
  -26.5587  -34.8922   22.4702 O   0  0  0  0  0  0
  -23.5318  -32.1462   23.7564 O   0  0  0  0  0  0
  -27.7092  -22.6346   22.5690 C   0  0  0  0  0  0
  -26.9032  -21.4959   22.7840 C   0  0  0  0  0  0
  -27.0711  -23.7396   21.9675 C   0  0  0  0  0  0
  -25.1351  -22.5335   21.7696 C   0  0  0  0  0  0
  -29.1761  -22.6881   22.9822 C   0  0  0  0  0  0
  -23.7013  -22.4605   21.2932 C   0  0  0  0  0  0
  -27.3723  -20.2542   23.5256 C   0  0  0  0  0  0
  -27.7246  -25.1021   21.7949 C   0  0  0  0  0  0
  -27.5733  -19.0354   22.6074 C   0  0  0  0  0  0
  -29.0182  -18.5126   22.5601 C   0  0  0  0  0  0
  -29.0698  -17.1169   21.9321 C   0  0  0  0  0  0
  -30.4599  -16.4643   21.9667 C   0  0  0  0  0  0
  -28.2704  -25.3475   20.3710 C   0  0  0  0  0  0
  -25.6223  -21.4600   22.3732 N   0  0  0  0  0  0
  -25.7904  -23.6656   21.5591 N   0  0  0  0  0  0
  -30.2780  -15.0473   21.7082 N   0  0  0  0  0  0
  -31.4668  -12.3858   19.0709 H   0  0  0  0  0  0
  -30.3303  -11.2416   19.7246 H   0  0  0  0  0  0
  -29.7039  -11.8173   17.3814 H   0  0  0  0  0  0
  -29.6635  -13.5174   17.7758 H   0  0  0  0  0  0
  -27.8016  -11.3308   18.7714 H   0  0  0  0  0  0
  -27.3558  -12.6985   17.7844 H   0  0  0  0  0  0
  -27.7413  -14.2565   19.6332 H   0  0  0  0  0  0
  -28.6624  -11.8453   21.2662 H   0  0  0  0  0  0
  -28.4460  -13.4379   21.8966 H   0  0  0  0  0  0
  -25.2770   -9.5666   22.4755 H   0  0  0  0  0  0
  -24.0003   -7.4626   22.7475 H   0  0  0  0  0  0
  -21.0852   -8.8800   19.8945 H   0  0  0  0  0  0
  -22.3738  -10.9682   19.6160 H   0  0  0  0  0  0
  -21.2023   -7.6159   23.9742 H   0  0  0  0  0  0
  -21.1459   -6.0525   25.9088 H   0  0  0  0  0  0
  -22.0607   -2.7624   23.2859 H   0  0  0  0  0  0
  -22.4095  -11.9893   22.4812 H   0  0  0  0  0  0
  -21.1113  -13.1257   22.2566 H   0  0  0  0  0  0
  -24.6704  -15.8459   20.5162 H   0  0  0  0  0  0
  -26.2953  -15.6245   20.1060 H   0  0  0  0  0  0
  -26.7087  -32.5550   23.1184 H   0  0  0  0  0  0
  -25.0085  -33.9798   25.0523 H   0  0  0  0  0  0
  -22.6828  -31.3141   21.4225 H   0  0  0  0  0  0
  -23.3747  -35.9660   23.3315 H   0  0  0  0  0  0
  -24.3591  -36.8922   22.2051 H   0  0  0  0  0  0
  -23.7259  -37.6536   23.6643 H   0  0  0  0  0  0
  -26.0395  -31.6166   20.6023 H   0  0  0  0  0  0
  -26.8114  -30.8897   21.9858 H   0  0  0  0  0  0
  -28.0951  -29.1335   21.1443 H   0  0  0  0  0  0
  -26.0282  -26.0109   18.9767 H   0  0  0  0  0  0
  -23.9664  -27.3103   19.0354 H   0  0  0  0  0  0
  -23.7088  -30.6175   19.4135 H   0  0  0  0  0  0
  -22.7242  -29.2606   19.8701 H   0  0  0  0  0  0
  -25.1281  -36.1994   25.0837 H   0  0  0  0  0  0
  -20.9934  -28.3220   24.1454 H   0  0  0  0  0  0
  -20.5702  -26.2252   23.3599 H   0  0  0  0  0  0
  -21.6640  -26.7470   22.1198 H   0  0  0  0  0  0
  -19.6933  -25.6303   21.1222 H   0  0  0  0  0  0
  -19.6697  -27.3207   20.6759 H   0  0  0  0  0  0
  -17.4203  -26.6663   21.4002 H   0  0  0  0  0  0
  -18.0313  -26.0050   22.9001 H   0  0  0  0  0  0
  -19.7936  -30.7233   24.2285 H   0  0  0  0  0  0
  -17.5022  -31.6260   24.5155 H   0  0  0  0  0  0
  -15.5348  -30.2984   23.7655 H   0  0  0  0  0  0
  -15.8656  -28.0827   22.7047 H   0  0  0  0  0  0
  -24.5945  -30.6992   25.7843 H   0  0  0  0  0  0
  -24.8941  -32.2793   26.4978 H   0  0  0  0  0  0
  -25.8147  -30.8819   27.0232 H   0  0  0  0  0  0
  -26.2831  -29.6776   24.1172 H   0  0  0  0  0  0
  -27.4172  -29.7280   25.4486 H   0  0  0  0  0  0
  -27.8629  -30.4377   23.9145 H   0  0  0  0  0  0
  -27.2701  -33.3587   26.2094 H   0  0  0  0  0  0
  -28.3855  -32.6861   25.0290 H   0  0  0  0  0  0
  -28.0753  -31.8392   26.5369 H   0  0  0  0  0  0
  -28.2604  -38.0106   24.7507 H   0  0  0  0  0  0
  -28.1074  -36.2635   24.6291 H   0  0  0  0  0  0
  -27.2296  -37.1468   25.8868 H   0  0  0  0  0  0
  -20.9281  -29.8738   21.6965 H   0  0  0  0  0  0
  -26.0188  -38.2883   24.1401 H   0  0  0  0  0  0
  -29.2766  -23.0992   23.9873 H   0  0  0  0  0  0
  -29.7564  -23.3093   22.2986 H   0  0  0  0  0  0
  -29.6425  -21.7036   22.9626 H   0  0  0  0  0  0
  -23.0575  -22.0643   22.0772 H   0  0  0  0  0  0
  -23.6256  -21.8071   20.4243 H   0  0  0  0  0  0
  -23.3235  -23.4433   21.0136 H   0  0  0  0  0  0
  -26.6024  -20.0086   24.2582 H   0  0  0  0  0  0
  -28.2570  -20.4548   24.1283 H   0  0  0  0  0  0
  -28.5093  -25.2599   22.5334 H   0  0  0  0  0  0
  -26.9614  -25.8377   22.0506 H   0  0  0  0  0  0
  -27.2174  -19.2468   21.5979 H   0  0  0  0  0  0
  -26.9235  -18.2424   22.9805 H   0  0  0  0  0  0
  -29.4192  -18.4594   23.5735 H   0  0  0  0  0  0
  -29.6564  -19.2046   22.0093 H   0  0  0  0  0  0
  -28.7125  -17.1601   20.9015 H   0  0  0  0  0  0
  -28.3614  -16.4807   22.4665 H   0  0  0  0  0  0
  -30.9231  -16.5801   22.9471 H   0  0  0  0  0  0
  -31.1238  -16.9327   21.2370 H   0  0  0  0  0  0
  -27.6511  -24.8561   19.6225 H   0  0  0  0  0  0
  -29.2476  -24.8744   20.2737 H   0  0  0  0  0  0
  -29.5412  -14.5922   22.2274 H   0  0  0  0  0  0
  1 25  1  0  0  0
  1 30  2  0  0  0
  1 86  1  0  0  0
  2  3  1  0  0  0
  2 25  1  0  0  0
  2 87  1  0  0  0
  2 88  1  0  0  0
  3  4  1  0  0  0
  3 89  1  0  0  0
  3 90  1  0  0  0
  4  5  1  0  0  0
  4 91  1  0  0  0
  4 92  1  0  0  0
  5  6  1  0  0  0
  5 26  1  0  0  0
  5 93  1  0  0  0
  6 25  1  0  0  0
  6 94  1  0  0  0
  6 95  1  0  0  0
  7  8  2  0  0  0
  7 26  1  0  0  0
  7 29  1  0  0  0
  8  9  1  0  0  0
  8 22  1  0  0  0
  9 10  1  0  0  0
  9 27  2  0  0  0
 10 11  2  0  0  0
 10 15  1  0  0  0
 11 12  1  0  0  0
 11 96  1  0  0  0
 12 13  2  0  0  0
 12 97  1  0  0  0
 13 14  1  0  0  0
 13 31  1  0  0  0
 14 15  2  0  0  0
 14 98  1  0  0  0
 15 99  1  0  0  0
 16 17  2  0  0  0
 16 21  1  0  0  0
 16 31  1  0  0  0
 17 18  1  0  0  0
 17100  1  0  0  0
 18 19  2  0  0  0
 18101  1  0  0  0
 19 20  1  0  0  0
 19 24  1  0  0  0
 20 21  2  0  0  0
 20102  1  0  0  0
 21 23  1  0  0  0
 22 28  1  0  0  0
 22 32  2  0  0  0
 26 27  1  0  0  0
 28103  1  0  0  0
 28104  1  0  0  0
 29105  1  0  0  0
 29106  1  0  0  0
 33 34  1  0  0  0
 33 66  1  0  0  0
 33 70  2  0  0  0
 34 36  1  0  0  0
 34 59  1  0  0  0
 34107  1  0  0  0
 35 44  2  0  0  0
 35 45  1  0  0  0
 35 68  1  0  0  0
 36 56  1  0  0  0
 36108  1  0  0  0
 37 39  1  0  0  0
 37 47  1  0  0  0
 37 66  1  0  0  0
 37109  1  0  0  0
 38 43  2  0  0  0
 38 46  1  0  0  0
 38 47  1  0  0  0
 39 64  1  0  0  0
 39 67  2  0  0  0
 40 52  1  0  0  0
 40 53  2  0  0  0
 40 58  1  0  0  0
 41110  1  0  0  0
 41111  1  0  0  0
 41112  1  0  0  0
 41 48  1  0  0  0
 42 43  1  0  0  0
 42 66  1  0  0  0
 42113  1  0  0  0
 42114  1  0  0  0
 43 44  1  0  0  0
 44115  1  0  0  0
 45 46  2  0  0  0
 45116  1  0  0  0
 46117  1  0  0  0
 47118  1  0  0  0
 47119  1  0  0  0
 48 56  1  0  0  0
 48 65  1  0  0  0
 48120  1  0  0  0
 49 50  1  0  0  0
 49 53  1  0  0  0
 49 64  1  0  0  0
 49121  1  0  0  0
 50 51  1  0  0  0
 50122  1  0  0  0
 50123  1  0  0  0
 51 52  1  0  0  0
 51124  1  0  0  0
 51125  1  0  0  0
 52126  1  0  0  0
 52127  1  0  0  0
 53 54  1  0  0  0
 54 55  2  0  0  0
 54128  1  0  0  0
 55 57  1  0  0  0
 55129  1  0  0  0
 56 69  2  0  0  0
 57 58  2  0  0  0
 57130  1  0  0  0
 58131  1  0  0  0
 59 60  1  0  0  0
 59 61  1  0  0  0
 59 62  1  0  0  0
 60132  1  0  0  0
 60133  1  0  0  0
 60134  1  0  0  0
 61135  1  0  0  0
 61136  1  0  0  0
 61137  1  0  0  0
 62138  1  0  0  0
 62139  1  0  0  0
 62140  1  0  0  0
 63 65  1  0  0  0
 63141  1  0  0  0
 63142  1  0  0  0
 63143  1  0  0  0
 64144  1  0  0  0
 65145  1  0  0  0
 68 83  1  0  0  0
 71 72  2  0  0  0
 71 73  1  0  0  0
 71 75  1  0  0  0
 72 77  1  0  0  0
 72 84  1  0  0  0
 73 78  1  0  0  0
 73 85  2  0  0  0
 74 76  1  0  0  0
 74 84  2  0  0  0
 74 85  1  0  0  0
 75146  1  0  0  0
 75147  1  0  0  0
 75148  1  0  0  0
 76149  1  0  0  0
 76150  1  0  0  0
 76151  1  0  0  0
 77 79  1  0  0  0
 77152  1  0  0  0
 77153  1  0  0  0
 78 83  1  0  0  0
 78154  1  0  0  0
 78155  1  0  0  0
 79 80  1  0  0  0
 79156  1  0  0  0
 79157  1  0  0  0
 80 81  1  0  0  0
 80158  1  0  0  0
 80159  1  0  0  0
 81 82  1  0  0  0
 81160  1  0  0  0
 81161  1  0  0  0
 82 86  1  0  0  0
 82162  1  0  0  0
 82163  1  0  0  0
 83164  1  0  0  0
 83165  1  0  0  0
 86166  1  0  0  0
M  ISO  4   1 100  68 101  83 101  86 100
M  END
> <chiral flag>
0

> <version>
0

> <s_m_source_file>
/data/baiqing/PycharmProjects/Reinvent-master-3.2/result/LINK_invent/BTK/process_docking_weight1_custom_sum_contain_oxygen_bond_distance_aromatic_linkinvent_7_9_3/rearranged_h_0040.sdf

> <i_m_source_file_index>
36

> <r_mmod_Potential_Energy-OPLS-2005>
-467.906219482422

> <r_mmod_Stretch_Energy-OPLS-2005>
31.096019744873

> <r_mmod_Bend_Energy-OPLS-2005>
97.7310638427734

> <r_mmod_Torsional_Energy-OPLS-2005>
206.351913452148

> <r_mmod_Improper_Torsional_Energy-OPLS-2005>
2.53341436386108

> <r_mmod_Van_der_Waal_Energy-OPLS-2005>
165.557952880859

> <r_mmod_Electrostatic_Energy-OPLS-2005>
-751.58154296875

> <r_mmod_Solvation_Energy-OPLS-2005>
-227.757553100586

> <b_mmod_Minimization_Converged-OPLS-2005>
0

> <r_mmod_RMS_Derivative-OPLS-2005>
1.56389808654785

$$$$
36
                    3D
 Structure written by MMmdl.
172181  0  0  1  0            999 V2000
  -30.7739  -14.4036   20.6691 C   0  0  0  0  0  0
  -30.4156  -12.3074   19.4116 C   0  0  0  0  0  0
  -29.4867  -12.5264   18.2029 C   0  0  0  0  0  0
  -28.0117  -12.3766   18.6171 C   0  0  0  0  0  0
  -27.6624  -13.2116   19.8768 C   0  0  2  0  0  0
  -28.7022  -12.9873   20.9971 C   0  0  0  0  0  0
  -25.2578  -13.8179   20.5700 C   0  0  0  0  0  0
  -24.1825  -13.0448   20.9162 C   0  0  0  0  0  0
  -24.6389  -11.6913   20.8706 C   0  0  0  0  0  0
  -23.9057  -10.4306   21.0398 C   0  0  0  0  0  0
  -24.3613   -9.4224   21.9179 C   0  0  0  0  0  0
  -23.6299   -8.2249   22.0747 C   0  0  0  0  0  0
  -22.4272   -8.0291   21.3543 C   0  0  0  0  0  0
  -21.9897   -9.0268   20.4644 C   0  0  0  0  0  0
  -22.7222  -10.2143   20.3058 C   0  0  0  0  0  0
  -21.6851   -6.0743   22.5281 C   0  0  0  0  0  0
  -21.4010   -6.5646   23.8219 C   0  0  0  0  0  0
  -21.3656   -5.6794   24.9177 C   0  0  0  0  0  0
  -21.6055   -4.3068   24.7224 C   0  0  0  0  0  0
  -21.8802   -3.8153   23.4343 C   0  0  0  0  0  0
  -21.9182   -4.6977   22.3394 C   0  0  0  0  0  0
  -22.7847  -13.5234   21.1839 C   0  0  0  0  0  0
  -22.1631   -4.2157   21.0975 F   0  0  0  0  0  0
  -21.5628   -3.4546   25.7738 F   0  0  0  0  0  0
  -30.0415  -13.2774   20.4529 N   0  0  0  0  0  0
  -26.3028  -12.9361   20.3380 N   0  0  0  0  0  0
  -25.9314  -11.6507   20.5741 N   0  0  0  0  0  0
  -22.0506  -12.8194   22.0392 N   0  0  0  0  0  0
  -25.4299  -15.1905   20.4140 N   0  0  0  0  0  0
  -31.8404  -14.6250   20.0919 O   0  0  0  0  0  0
  -21.6637   -6.8892   21.4246 O   0  0  0  0  0  0
  -22.3527  -14.5548   20.6722 O   0  0  0  0  0  0
  -24.6086  -31.8705   23.2189 C   0  0  0  0  0  0
  -25.8999  -32.4844   23.8465 C   0  0  1  0  0  0
  -27.2412  -27.4986   20.0844 C   0  0  0  0  0  0
  -25.5868  -33.8645   24.2381 N   0  0  0  0  0  0
  -23.3949  -30.4944   21.5579 C   0  0  2  0  0  0
  -24.8452  -28.9688   20.1206 C   0  0  0  0  0  0
  -22.7376  -29.4671   22.5061 C   0  0  0  0  0  0
  -18.0250  -28.1374   22.8521 C   0  0  0  0  0  0
  -24.1478  -36.7336   23.2639 C   0  0  0  0  0  0
  -25.9162  -30.8557   21.3639 C   0  0  0  0  0  0
  -25.9993  -29.4924   20.7188 C   0  0  0  0  0  0
  -27.2016  -28.7587   20.7128 C   0  0  0  0  0  0
  -26.0795  -26.9776   19.4805 C   0  0  0  0  0  0
  -24.8745  -27.7042   19.5079 C   0  0  0  0  0  0
  -23.5999  -29.8228   20.1726 C   0  0  0  0  0  0
  -25.4099  -36.3146   24.0346 C   0  0  1  0  0  0
  -20.5836  -28.3649   23.1359 C   0  0  2  0  0  0
  -20.6738  -26.9391   22.5445 C   0  0  0  0  0  0
  -19.5703  -26.6385   21.5241 C   0  0  0  0  0  0
  -18.1882  -26.7930   22.1639 C   0  0  0  0  0  0
  -19.1499  -28.8833   23.2930 C   0  0  0  0  0  0
  -18.9416  -30.1441   23.8927 C   0  0  0  0  0  0
  -17.6411  -30.6579   24.0572 C   0  0  0  0  0  0
  -25.9007  -34.9487   23.5165 C   0  0  0  0  0  0
  -16.5316  -29.9079   23.6334 C   0  0  0  0  0  0
  -16.7241  -28.6492   23.0368 C   0  0  0  0  0  0
  -26.4458  -31.6603   25.0763 C   0  0  0  0  0  0
  -25.3765  -31.3641   26.1533 C   0  0  0  0  0  0
  -27.0269  -30.3053   24.6103 C   0  0  0  0  0  0
  -27.6067  -32.4307   25.7475 C   0  0  0  0  0  0
  -27.5584  -37.1811   24.8456 C   0  0  0  0  0  0
  -21.4108  -29.3027   22.3780 N   0  0  0  0  0  0
  -26.4288  -37.3826   23.9415 N   0  0  0  0  0  0
  -24.6578  -31.0852   22.1062 N   0  0  0  0  0  0
  -23.4162  -28.8208   23.3082 O   0  0  0  0  0  0
  -28.3880  -26.7558   20.0080 O   0  0  0  0  0  0
  -26.5579  -34.8920   22.4728 O   0  0  0  0  0  0
  -23.5287  -32.1427   23.7607 O   0  0  0  0  0  0
  -30.1599  -20.1731   22.2922 C   0  0  0  0  0  0
  -29.1885  -21.2057   22.4281 C   0  0  0  0  0  0
  -29.7457  -19.4419   21.2068 C   0  0  0  0  0  0
  -28.5260  -24.9282   23.3474 C   0  0  0  0  0  0
  -30.2750  -24.1278   21.7822 C   0  0  0  0  0  0
  -27.9860  -25.9451   22.3288 C   0  0  0  0  0  0
  -29.8754  -25.1500   20.7096 C   0  0  0  0  0  0
  -29.0218  -23.7094   22.5634 C   0  0  1  0  0  0
  -29.0135  -26.3327   21.2201 C   0  0  1  0  0  0
  -26.6786  -18.8186   19.7612 C   0  0  0  0  0  0
  -29.1605  -22.3955   23.3632 C   0  0  0  0  0  0
  -30.3541  -18.2752   20.4846 C   0  0  0  0  0  0
  -31.4578  -17.5174   21.2455 C   0  0  0  0  0  0
  -27.8285  -19.8027   19.5340 C   0  0  0  0  0  0
  -30.9711  -16.3994   22.1984 C   0  0  0  0  0  0
  -28.2054  -21.0564   21.5522 N   0  0  0  0  0  0
  -28.5946  -20.0526   20.7441 N   0  0  0  0  0  0
  -30.2728  -15.2669   21.5699 N   0  0  0  0  0  0
  -31.4592  -12.4013   19.1064 H   0  0  0  0  0  0
  -30.3135  -11.2927   19.7993 H   0  0  0  0  0  0
  -29.7299  -11.8203   17.4089 H   0  0  0  0  0  0
  -29.6525  -13.5231   17.7917 H   0  0  0  0  0  0
  -27.8223  -11.3205   18.8070 H   0  0  0  0  0  0
  -27.3599  -12.6588   17.7890 H   0  0  0  0  0  0
  -27.7103  -14.2618   19.5871 H   0  0  0  0  0  0
  -28.6719  -11.9527   21.3419 H   0  0  0  0  0  0
  -28.4486  -13.5879   21.8710 H   0  0  0  0  0  0
  -25.2767   -9.5704   22.4733 H   0  0  0  0  0  0
  -24.0031   -7.4616   22.7427 H   0  0  0  0  0  0
  -21.0843   -8.8779   19.8920 H   0  0  0  0  0  0
  -22.3700  -10.9673   19.6159 H   0  0  0  0  0  0
  -21.1993   -7.6155   23.9735 H   0  0  0  0  0  0
  -21.1485   -6.0516   25.9079 H   0  0  0  0  0  0
  -22.0571   -2.7615   23.2830 H   0  0  0  0  0  0
  -22.4159  -11.9863   22.4773 H   0  0  0  0  0  0
  -21.1125  -13.1176   22.2648 H   0  0  0  0  0  0
  -24.6716  -15.8527   20.5345 H   0  0  0  0  0  0
  -26.2971  -15.6284   20.1344 H   0  0  0  0  0  0
  -26.7098  -32.5578   23.1259 H   0  0  0  0  0  0
  -25.0047  -33.9827   25.0548 H   0  0  0  0  0  0
  -22.6830  -31.3105   21.4202 H   0  0  0  0  0  0
  -23.3740  -35.9667   23.3322 H   0  0  0  0  0  0
  -24.3583  -36.8927   22.2052 H   0  0  0  0  0  0
  -23.7222  -37.6546   23.6632 H   0  0  0  0  0  0
  -26.0196  -31.6249   20.5965 H   0  0  0  0  0  0
  -26.8071  -30.9140   21.9776 H   0  0  0  0  0  0
  -28.0954  -29.1620   21.1663 H   0  0  0  0  0  0
  -26.1104  -26.0092   19.0008 H   0  0  0  0  0  0
  -23.9866  -27.2919   19.0493 H   0  0  0  0  0  0
  -23.6930  -30.5957   19.4073 H   0  0  0  0  0  0
  -22.7286  -29.2322   19.8845 H   0  0  0  0  0  0
  -25.1271  -36.2037   25.0839 H   0  0  0  0  0  0
  -20.9923  -28.3194   24.1476 H   0  0  0  0  0  0
  -20.5670  -26.2239   23.3617 H   0  0  0  0  0  0
  -21.6603  -26.7445   22.1211 H   0  0  0  0  0  0
  -19.6854  -25.6305   21.1238 H   0  0  0  0  0  0
  -19.6648  -27.3241   20.6804 H   0  0  0  0  0  0
  -17.4170  -26.6736   21.4021 H   0  0  0  0  0  0
  -18.0234  -26.0053   22.9004 H   0  0  0  0  0  0
  -19.7878  -30.7269   24.2305 H   0  0  0  0  0  0
  -17.4946  -31.6266   24.5159 H   0  0  0  0  0  0
  -15.5311  -30.2971   23.7630 H   0  0  0  0  0  0
  -15.8643  -28.0798   22.7096 H   0  0  0  0  0  0
  -24.5975  -30.6935   25.7883 H   0  0  0  0  0  0
  -24.8894  -32.2743   26.5044 H   0  0  0  0  0  0
  -25.8158  -30.8794   27.0262 H   0  0  0  0  0  0
  -26.2780  -29.6815   24.1204 H   0  0  0  0  0  0
  -27.4095  -29.7286   25.4537 H   0  0  0  0  0  0
  -27.8599  -30.4386   23.9196 H   0  0  0  0  0  0
  -27.2755  -33.3630   26.2065 H   0  0  0  0  0  0
  -28.3846  -32.6834   25.0255 H   0  0  0  0  0  0
  -28.0780  -31.8422   26.5362 H   0  0  0  0  0  0
  -28.2604  -38.0117   24.7550 H   0  0  0  0  0  0
  -28.1078  -36.2648   24.6225 H   0  0  0  0  0  0
  -27.2288  -37.1402   25.8854 H   0  0  0  0  0  0
  -20.9256  -29.8750   21.7018 H   0  0  0  0  0  0
  -26.0184  -38.2890   24.1472 H   0  0  0  0  0  0
  -31.0573  -20.0310   22.8786 H   0  0  0  0  0  0
  -27.7327  -24.6477   24.0411 H   0  0  0  0  0  0
  -29.3291  -25.3627   23.9450 H   0  0  0  0  0  0
  -31.0301  -24.5389   22.4535 H   0  0  0  0  0  0
  -30.7299  -23.2649   21.2933 H   0  0  0  0  0  0
  -27.6399  -26.8390   22.8500 H   0  0  0  0  0  0
  -27.0952  -25.5072   21.8743 H   0  0  0  0  0  0
  -29.3146  -24.6047   19.9477 H   0  0  0  0  0  0
  -30.7637  -25.5278   20.2000 H   0  0  0  0  0  0
  -28.2332  -23.5176   21.8349 H   0  0  0  0  0  0
  -29.6685  -27.1168   21.5999 H   0  0  0  0  0  0
  -26.0805  -18.7154   18.8553 H   0  0  0  0  0  0
  -26.0195  -19.1628   20.5589 H   0  0  0  0  0  0
  -27.0539  -17.8327   20.0299 H   0  0  0  0  0  0
  -30.0534  -22.4264   23.9870 H   0  0  0  0  0  0
  -28.3168  -22.2936   24.0459 H   0  0  0  0  0  0
  -30.7824  -18.6510   19.5549 H   0  0  0  0  0  0
  -29.5743  -17.5765   20.1812 H   0  0  0  0  0  0
  -32.0818  -18.2242   21.7929 H   0  0  0  0  0  0
  -32.1368  -17.0867   20.5106 H   0  0  0  0  0  0
  -27.4398  -20.7538   19.1675 H   0  0  0  0  0  0
  -28.5000  -19.4367   18.7569 H   0  0  0  0  0  0
  -30.3143  -16.8315   22.9545 H   0  0  0  0  0  0
  -31.8317  -16.0046   22.7416 H   0  0  0  0  0  0
  -29.3774  -15.0166   21.9625 H   0  0  0  0  0  0
  1 25  1  0  0  0
  1 30  2  0  0  0
  1 88  1  0  0  0
  2  3  1  0  0  0
  2 25  1  0  0  0
  2 89  1  0  0  0
  2 90  1  0  0  0
  3  4  1  0  0  0
  3 91  1  0  0  0
  3 92  1  0  0  0
  4  5  1  0  0  0
  4 93  1  0  0  0
  4 94  1  0  0  0
  5  6  1  0  0  0
  5 26  1  0  0  0
  5 95  1  0  0  0
  6 25  1  0  0  0
  6 96  1  0  0  0
  6 97  1  0  0  0
  7  8  2  0  0  0
  7 26  1  0  0  0
  7 29  1  0  0  0
  8  9  1  0  0  0
  8 22  1  0  0  0
  9 10  1  0  0  0
  9 27  2  0  0  0
 10 11  2  0  0  0
 10 15  1  0  0  0
 11 12  1  0  0  0
 11 98  1  0  0  0
 12 13  2  0  0  0
 12 99  1  0  0  0
 13 14  1  0  0  0
 13 31  1  0  0  0
 14 15  2  0  0  0
 14100  1  0  0  0
 15101  1  0  0  0
 16 17  2  0  0  0
 16 21  1  0  0  0
 16 31  1  0  0  0
 17 18  1  0  0  0
 17102  1  0  0  0
 18 19  2  0  0  0
 18103  1  0  0  0
 19 20  1  0  0  0
 19 24  1  0  0  0
 20 21  2  0  0  0
 20104  1  0  0  0
 21 23  1  0  0  0
 22 28  1  0  0  0
 22 32  2  0  0  0
 26 27  1  0  0  0
 28105  1  0  0  0
 28106  1  0  0  0
 29107  1  0  0  0
 29108  1  0  0  0
 33 34  1  0  0  0
 33 66  1  0  0  0
 33 70  2  0  0  0
 34 36  1  0  0  0
 34 59  1  0  0  0
 34109  1  0  0  0
 35 44  2  0  0  0
 35 45  1  0  0  0
 35 68  1  0  0  0
 36 56  1  0  0  0
 36110  1  0  0  0
 37 39  1  0  0  0
 37 47  1  0  0  0
 37 66  1  0  0  0
 37111  1  0  0  0
 38 43  2  0  0  0
 38 46  1  0  0  0
 38 47  1  0  0  0
 39 64  1  0  0  0
 39 67  2  0  0  0
 40 52  1  0  0  0
 40 53  2  0  0  0
 40 58  1  0  0  0
 41112  1  0  0  0
 41113  1  0  0  0
 41114  1  0  0  0
 41 48  1  0  0  0
 42 43  1  0  0  0
 42 66  1  0  0  0
 42115  1  0  0  0
 42116  1  0  0  0
 43 44  1  0  0  0
 44117  1  0  0  0
 45 46  2  0  0  0
 45118  1  0  0  0
 46119  1  0  0  0
 47120  1  0  0  0
 47121  1  0  0  0
 48 56  1  0  0  0
 48 65  1  0  0  0
 48122  1  0  0  0
 49 50  1  0  0  0
 49 53  1  0  0  0
 49 64  1  0  0  0
 49123  1  0  0  0
 50 51  1  0  0  0
 50124  1  0  0  0
 50125  1  0  0  0
 51 52  1  0  0  0
 51126  1  0  0  0
 51127  1  0  0  0
 52128  1  0  0  0
 52129  1  0  0  0
 53 54  1  0  0  0
 54 55  2  0  0  0
 54130  1  0  0  0
 55 57  1  0  0  0
 55131  1  0  0  0
 56 69  2  0  0  0
 57 58  2  0  0  0
 57132  1  0  0  0
 58133  1  0  0  0
 59 60  1  0  0  0
 59 61  1  0  0  0
 59 62  1  0  0  0
 60134  1  0  0  0
 60135  1  0  0  0
 60136  1  0  0  0
 61137  1  0  0  0
 61138  1  0  0  0
 61139  1  0  0  0
 62140  1  0  0  0
 62141  1  0  0  0
 62142  1  0  0  0
 63 65  1  0  0  0
 63143  1  0  0  0
 63144  1  0  0  0
 63145  1  0  0  0
 64146  1  0  0  0
 65147  1  0  0  0
 68 79  1  0  0  0
 71 72  1  0  0  0
 71 73  2  0  0  0
 71148  1  0  0  0
 72 81  1  0  0  0
 72 86  2  0  0  0
 73 82  1  0  0  0
 73 87  1  0  0  0
 74 76  1  0  0  0
 74 78  1  0  0  0
 74149  1  0  0  0
 74150  1  0  0  0
 75 77  1  0  0  0
 75 78  1  0  0  0
 75151  1  0  0  0
 75152  1  0  0  0
 76 79  1  0  0  0
 76153  1  0  0  0
 76154  1  0  0  0
 77 79  1  0  0  0
 77155  1  0  0  0
 77156  1  0  0  0
 78 81  1  0  0  0
 78157  1  0  0  0
 79158  1  0  0  0
 80 84  1  0  0  0
 80159  1  0  0  0
 80160  1  0  0  0
 80161  1  0  0  0
 81162  1  0  0  0
 81163  1  0  0  0
 82 83  1  0  0  0
 82164  1  0  0  0
 82165  1  0  0  0
 83 85  1  0  0  0
 83166  1  0  0  0
 83167  1  0  0  0
 84 87  1  0  0  0
 84168  1  0  0  0
 84169  1  0  0  0
 85 88  1  0  0  0
 85170  1  0  0  0
 85171  1  0  0  0
 86 87  1  0  0  0
 88172  1  0  0  0
M  ISO  4   1 100  68 101  79 101  88 100
M  END
> <chiral flag>
0

> <version>
0

> <s_m_source_file>
/data/baiqing/PycharmProjects/Reinvent-master-3.2/result/LINK_invent/BTK/process_docking_weight1_custom_sum_contain_oxygen_bond_distance_aromatic_linkinvent_7_9_3/rearranged_h_0040.sdf

> <i_m_source_file_index>
37

> <r_mmod_Potential_Energy-OPLS-2005>
-53.8084449768066

> <r_mmod_Stretch_Energy-OPLS-2005>
32.5408210754395

> <r_mmod_Bend_Energy-OPLS-2005>
114.360221862793

> <r_mmod_Torsional_Energy-OPLS-2005>
263.069976806641

> <r_mmod_Improper_Torsional_Energy-OPLS-2005>
2.10513424873352

> <r_mmod_Van_der_Waal_Energy-OPLS-2005>
133.630966186523

> <r_mmod_Electrostatic_Energy-OPLS-2005>
-399.293273925781

> <r_mmod_Solvation_Energy-OPLS-2005>
-207.510040283203

> <b_mmod_Minimization_Converged-OPLS-2005>
0

> <r_mmod_RMS_Derivative-OPLS-2005>
2.74863314628601

$$$$
37
                    3D
 Structure written by MMmdl.
156164  0  0  1  0            999 V2000
  -30.6487  -14.5418   20.5238 C   0  0  0  0  0  0
  -30.4363  -12.3387   19.4292 C   0  0  0  0  0  0
  -29.4994  -12.4892   18.2113 C   0  0  0  0  0  0
  -28.0203  -12.3458   18.6234 C   0  0  0  0  0  0
  -27.6591  -13.2015   19.8685 C   0  0  2  0  0  0
  -28.7024  -13.0113   20.9912 C   0  0  0  0  0  0
  -25.2611  -13.8142   20.5668 C   0  0  0  0  0  0
  -24.1859  -13.0441   20.9197 C   0  0  0  0  0  0
  -24.6381  -11.6899   20.8743 C   0  0  0  0  0  0
  -23.9022  -10.4287   21.0387 C   0  0  0  0  0  0
  -24.3588   -9.4219   21.9167 C   0  0  0  0  0  0
  -23.6287   -8.2244   22.0734 C   0  0  0  0  0  0
  -22.4271   -8.0270   21.3526 C   0  0  0  0  0  0
  -21.9892   -9.0230   20.4634 C   0  0  0  0  0  0
  -22.7195  -10.2127   20.3041 C   0  0  0  0  0  0
  -21.6855   -6.0738   22.5281 C   0  0  0  0  0  0
  -21.4003   -6.5631   23.8225 C   0  0  0  0  0  0
  -21.3656   -5.6790   24.9182 C   0  0  0  0  0  0
  -21.6050   -4.3039   24.7209 C   0  0  0  0  0  0
  -21.8822   -3.8148   23.4329 C   0  0  0  0  0  0
  -21.9192   -4.6981   22.3398 C   0  0  0  0  0  0
  -22.7886  -13.5257   21.1841 C   0  0  0  0  0  0
  -22.1665   -4.2158   21.0975 F   0  0  0  0  0  0
  -21.5635   -3.4535   25.7722 F   0  0  0  0  0  0
  -30.0227  -13.3363   20.4315 N   0  0  0  0  0  0
  -26.3025  -12.9294   20.3343 N   0  0  0  0  0  0
  -25.9315  -11.6461   20.5773 N   0  0  0  0  0  0
  -22.0496  -12.8284   22.0392 N   0  0  0  0  0  0
  -25.4354  -15.1859   20.4040 N   0  0  0  0  0  0
  -31.7981  -14.7255   20.1132 O   0  0  0  0  0  0
  -21.6639   -6.8881   21.4237 O   0  0  0  0  0  0
  -22.3585  -14.5554   20.6655 O   0  0  0  0  0  0
  -24.6160  -31.8637   23.2050 C   0  0  0  0  0  0
  -25.9022  -32.4823   23.8362 C   0  0  1  0  0  0
  -27.2389  -27.4044   20.1070 C   0  0  0  0  0  0
  -25.5856  -33.8622   24.2291 N   0  0  0  0  0  0
  -23.4058  -30.4822   21.5479 C   0  0  2  0  0  0
  -24.8552  -28.9357   20.1224 C   0  0  0  0  0  0
  -22.7404  -29.4627   22.5008 C   0  0  0  0  0  0
  -18.0263  -28.1348   22.8514 C   0  0  0  0  0  0
  -24.1479  -36.7321   23.2643 C   0  0  0  0  0  0
  -25.9354  -30.8253   21.3557 C   0  0  0  0  0  0
  -26.0184  -29.4533   20.7088 C   0  0  0  0  0  0
  -27.2158  -28.6970   20.6887 C   0  0  0  0  0  0
  -26.0585  -26.9048   19.5191 C   0  0  0  0  0  0
  -24.8697  -27.6612   19.5299 C   0  0  0  0  0  0
  -23.6151  -29.8002   20.1691 C   0  0  0  0  0  0
  -25.4106  -36.3123   24.0339 C   0  0  1  0  0  0
  -20.5851  -28.3629   23.1330 C   0  0  2  0  0  0
  -20.6736  -26.9359   22.5428 C   0  0  0  0  0  0
  -19.5728  -26.6360   21.5214 C   0  0  0  0  0  0
  -18.1910  -26.7902   22.1627 C   0  0  0  0  0  0
  -19.1511  -28.8808   23.2925 C   0  0  0  0  0  0
  -18.9444  -30.1414   23.8936 C   0  0  0  0  0  0
  -17.6453  -30.6574   24.0557 C   0  0  0  0  0  0
  -25.9029  -34.9483   23.5118 C   0  0  0  0  0  0
  -16.5340  -29.9075   23.6315 C   0  0  0  0  0  0
  -16.7250  -28.6475   23.0378 C   0  0  0  0  0  0
  -26.4449  -31.6630   25.0702 C   0  0  0  0  0  0
  -25.3711  -31.3764   26.1456 C   0  0  0  0  0  0
  -27.0293  -30.3077   24.6087 C   0  0  0  0  0  0
  -27.6019  -32.4356   25.7459 C   0  0  0  0  0  0
  -27.5589  -37.1808   24.8461 C   0  0  0  0  0  0
  -21.4134  -29.3011   22.3752 N   0  0  0  0  0  0
  -26.4298  -37.3806   23.9409 N   0  0  0  0  0  0
  -24.6716  -31.0704   22.0959 N   0  0  0  0  0  0
  -23.4173  -28.8165   23.3050 O   0  0  0  0  0  0
  -28.4016  -26.6566   20.0855 O   0  0  0  0  0  0
  -26.5617  -34.8936   22.4699 O   0  0  0  0  0  0
  -23.5336  -32.1397   23.7419 O   0  0  0  0  0  0
  -29.4810  -19.6888   18.4377 C   0  0  0  0  0  0
  -29.2131  -21.7840   18.1212 C   0  0  0  0  0  0
  -29.1884  -20.2374   19.6693 C   0  0  0  0  0  0
  -29.1211  -19.5146   21.0046 C   0  0  0  0  0  0
  -28.9208  -17.9524   20.9854 C   0  0  0  0  0  0
  -28.5326  -24.1491   19.7108 C   0  0  0  0  0  0
  -28.6266  -22.7221   20.3686 C   0  0  0  0  0  0
  -30.1609  -17.0283   20.7328 C   0  0  0  0  0  0
  -28.3546  -25.3430   20.6917 C   0  0  0  0  0  0
  -29.5105  -20.6753   17.4596 N   0  0  0  0  0  0
  -28.9888  -21.6266   19.4389 N   0  0  0  0  0  0
  -29.8603  -15.5812   20.8927 N   0  0  0  0  0  0
  -31.4744  -12.4665   19.1169 H   0  0  0  0  0  0
  -30.3748  -11.3330   19.8509 H   0  0  0  0  0  0
  -29.7529  -11.7467   17.4522 H   0  0  0  0  0  0
  -29.6512  -13.4643   17.7486 H   0  0  0  0  0  0
  -27.8317  -11.2913   18.8310 H   0  0  0  0  0  0
  -27.3701  -12.6083   17.7858 H   0  0  0  0  0  0
  -27.6949  -14.2445   19.5525 H   0  0  0  0  0  0
  -28.6937  -11.9781   21.3429 H   0  0  0  0  0  0
  -28.4633  -13.6243   21.8628 H   0  0  0  0  0  0
  -25.2725   -9.5735   22.4747 H   0  0  0  0  0  0
  -24.0027   -7.4639   22.7433 H   0  0  0  0  0  0
  -21.0836   -8.8702   19.8934 H   0  0  0  0  0  0
  -22.3606  -10.9654   19.6155 H   0  0  0  0  0  0
  -21.1977   -7.6136   23.9725 H   0  0  0  0  0  0
  -21.1492   -6.0509   25.9087 H   0  0  0  0  0  0
  -22.0609   -2.7606   23.2820 H   0  0  0  0  0  0
  -22.4080  -11.9968   22.4847 H   0  0  0  0  0  0
  -21.1087  -13.1295   22.2489 H   0  0  0  0  0  0
  -24.6668  -15.8394   20.5098 H   0  0  0  0  0  0
  -26.2814  -15.6214   20.0586 H   0  0  0  0  0  0
  -26.7091  -32.5537   23.1128 H   0  0  0  0  0  0
  -24.9986  -33.9784   25.0422 H   0  0  0  0  0  0
  -22.6962  -31.2990   21.3984 H   0  0  0  0  0  0
  -23.3744  -35.9650   23.3321 H   0  0  0  0  0  0
  -24.3567  -36.8923   22.2054 H   0  0  0  0  0  0
  -23.7221  -37.6523   23.6654 H   0  0  0  0  0  0
  -26.0353  -31.5867   20.5805 H   0  0  0  0  0  0
  -26.8272  -30.8941   21.9683 H   0  0  0  0  0  0
  -28.1202  -29.0923   21.1305 H   0  0  0  0  0  0
  -26.0530  -25.9320   19.0483 H   0  0  0  0  0  0
  -23.9714  -27.2521   19.0885 H   0  0  0  0  0  0
  -23.7176  -30.5638   19.3975 H   0  0  0  0  0  0
  -22.7419  -29.2115   19.8829 H   0  0  0  0  0  0
  -25.1286  -36.1995   25.0835 H   0  0  0  0  0  0
  -20.9954  -28.3175   24.1450 H   0  0  0  0  0  0
  -20.5595  -26.2242   23.3618 H   0  0  0  0  0  0
  -21.6610  -26.7381   22.1246 H   0  0  0  0  0  0
  -19.6876  -25.6273   21.1244 H   0  0  0  0  0  0
  -19.6662  -27.3171   20.6750 H   0  0  0  0  0  0
  -17.4174  -26.6668   21.4027 H   0  0  0  0  0  0
  -18.0298  -26.0019   22.8999 H   0  0  0  0  0  0
  -19.7925  -30.7206   24.2336 H   0  0  0  0  0  0
  -17.5011  -31.6266   24.5124 H   0  0  0  0  0  0
  -15.5341  -30.2997   23.7602 H   0  0  0  0  0  0
  -15.8652  -28.0780   22.7119 H   0  0  0  0  0  0
  -24.5792  -30.7236   25.7771 H   0  0  0  0  0  0
  -24.9016  -32.2953   26.4981 H   0  0  0  0  0  0
  -25.8019  -30.8827   27.0176 H   0  0  0  0  0  0
  -26.2848  -29.6834   24.1130 H   0  0  0  0  0  0
  -27.4066  -29.7319   25.4550 H   0  0  0  0  0  0
  -27.8673  -30.4414   23.9242 H   0  0  0  0  0  0
  -27.2621  -33.3615   26.2119 H   0  0  0  0  0  0
  -28.3779  -32.7002   25.0264 H   0  0  0  0  0  0
  -28.0763  -31.8452   26.5312 H   0  0  0  0  0  0
  -28.2611  -38.0103   24.7525 H   0  0  0  0  0  0
  -28.1081  -36.2638   24.6269 H   0  0  0  0  0  0
  -27.2314  -37.1441   25.8866 H   0  0  0  0  0  0
  -20.9278  -29.8767   21.7006 H   0  0  0  0  0  0
  -26.0197  -38.2886   24.1414 H   0  0  0  0  0  0
  -29.6864  -18.6616   18.1781 H   0  0  0  0  0  0
  -29.1668  -22.7383   17.6160 H   0  0  0  0  0  0
  -28.2914  -19.9402   21.5719 H   0  0  0  0  0  0
  -30.0132  -19.7478   21.5883 H   0  0  0  0  0  0
  -28.1119  -17.7009   20.2981 H   0  0  0  0  0  0
  -28.5416  -17.6807   21.9718 H   0  0  0  0  0  0
  -27.7148  -24.1533   18.9877 H   0  0  0  0  0  0
  -29.4418  -24.3427   19.1423 H   0  0  0  0  0  0
  -27.6670  -22.4771   20.8289 H   0  0  0  0  0  0
  -29.3584  -22.7357   21.1761 H   0  0  0  0  0  0
  -30.9737  -17.2939   21.4106 H   0  0  0  0  0  0
  -30.5391  -17.1992   19.7250 H   0  0  0  0  0  0
  -29.1855  -25.3146   21.3980 H   0  0  0  0  0  0
  -27.4526  -25.2080   21.2898 H   0  0  0  0  0  0
  -28.9337  -15.3385   21.2086 H   0  0  0  0  0  0
  1 25  1  0  0  0
  1 30  2  0  0  0
  1 82  1  0  0  0
  2  3  1  0  0  0
  2 25  1  0  0  0
  2 83  1  0  0  0
  2 84  1  0  0  0
  3  4  1  0  0  0
  3 85  1  0  0  0
  3 86  1  0  0  0
  4  5  1  0  0  0
  4 87  1  0  0  0
  4 88  1  0  0  0
  5  6  1  0  0  0
  5 26  1  0  0  0
  5 89  1  0  0  0
  6 25  1  0  0  0
  6 90  1  0  0  0
  6 91  1  0  0  0
  7  8  2  0  0  0
  7 26  1  0  0  0
  7 29  1  0  0  0
  8  9  1  0  0  0
  8 22  1  0  0  0
  9 10  1  0  0  0
  9 27  2  0  0  0
 10 11  2  0  0  0
 10 15  1  0  0  0
 11 12  1  0  0  0
 11 92  1  0  0  0
 12 13  2  0  0  0
 12 93  1  0  0  0
 13 14  1  0  0  0
 13 31  1  0  0  0
 14 15  2  0  0  0
 14 94  1  0  0  0
 15 95  1  0  0  0
 16 17  2  0  0  0
 16 21  1  0  0  0
 16 31  1  0  0  0
 17 18  1  0  0  0
 17 96  1  0  0  0
 18 19  2  0  0  0
 18 97  1  0  0  0
 19 20  1  0  0  0
 19 24  1  0  0  0
 20 21  2  0  0  0
 20 98  1  0  0  0
 21 23  1  0  0  0
 22 28  1  0  0  0
 22 32  2  0  0  0
 26 27  1  0  0  0
 28 99  1  0  0  0
 28100  1  0  0  0
 29101  1  0  0  0
 29102  1  0  0  0
 33 34  1  0  0  0
 33 66  1  0  0  0
 33 70  2  0  0  0
 34 36  1  0  0  0
 34 59  1  0  0  0
 34103  1  0  0  0
 35 44  2  0  0  0
 35 45  1  0  0  0
 35 68  1  0  0  0
 36 56  1  0  0  0
 36104  1  0  0  0
 37 39  1  0  0  0
 37 47  1  0  0  0
 37 66  1  0  0  0
 37105  1  0  0  0
 38 43  2  0  0  0
 38 46  1  0  0  0
 38 47  1  0  0  0
 39 64  1  0  0  0
 39 67  2  0  0  0
 40 52  1  0  0  0
 40 53  2  0  0  0
 40 58  1  0  0  0
 41106  1  0  0  0
 41107  1  0  0  0
 41108  1  0  0  0
 41 48  1  0  0  0
 42 43  1  0  0  0
 42 66  1  0  0  0
 42109  1  0  0  0
 42110  1  0  0  0
 43 44  1  0  0  0
 44111  1  0  0  0
 45 46  2  0  0  0
 45112  1  0  0  0
 46113  1  0  0  0
 47114  1  0  0  0
 47115  1  0  0  0
 48 56  1  0  0  0
 48 65  1  0  0  0
 48116  1  0  0  0
 49 50  1  0  0  0
 49 53  1  0  0  0
 49 64  1  0  0  0
 49117  1  0  0  0
 50 51  1  0  0  0
 50118  1  0  0  0
 50119  1  0  0  0
 51 52  1  0  0  0
 51120  1  0  0  0
 51121  1  0  0  0
 52122  1  0  0  0
 52123  1  0  0  0
 53 54  1  0  0  0
 54 55  2  0  0  0
 54124  1  0  0  0
 55 57  1  0  0  0
 55125  1  0  0  0
 56 69  2  0  0  0
 57 58  2  0  0  0
 57126  1  0  0  0
 58127  1  0  0  0
 59 60  1  0  0  0
 59 61  1  0  0  0
 59 62  1  0  0  0
 60128  1  0  0  0
 60129  1  0  0  0
 60130  1  0  0  0
 61131  1  0  0  0
 61132  1  0  0  0
 61133  1  0  0  0
 62134  1  0  0  0
 62135  1  0  0  0
 62136  1  0  0  0
 63 65  1  0  0  0
 63137  1  0  0  0
 63138  1  0  0  0
 63139  1  0  0  0
 64140  1  0  0  0
 65141  1  0  0  0
 68 79  1  0  0  0
 71 73  2  0  0  0
 71 80  1  0  0  0
 71142  1  0  0  0
 72 80  2  0  0  0
 72 81  1  0  0  0
 72143  1  0  0  0
 73 74  1  0  0  0
 73 81  1  0  0  0
 74 75  1  0  0  0
 74144  1  0  0  0
 74145  1  0  0  0
 75 78  1  0  0  0
 75146  1  0  0  0
 75147  1  0  0  0
 76 77  1  0  0  0
 76 79  1  0  0  0
 76148  1  0  0  0
 76149  1  0  0  0
 77 81  1  0  0  0
 77150  1  0  0  0
 77151  1  0  0  0
 78 82  1  0  0  0
 78152  1  0  0  0
 78153  1  0  0  0
 79154  1  0  0  0
 79155  1  0  0  0
 82156  1  0  0  0
M  ISO  4   1 100  68 101  79 101  82 100
M  END
> <chiral flag>
0

> <version>
0

> <s_m_source_file>
/data/baiqing/PycharmProjects/Reinvent-master-3.2/result/LINK_invent/BTK/process_docking_weight1_custom_sum_contain_oxygen_bond_distance_aromatic_linkinvent_7_9_3/rearranged_h_0040.sdf

> <i_m_source_file_index>
38

> <r_mmod_Potential_Energy-OPLS-2005>
-43.0377235412598

> <r_mmod_Stretch_Energy-OPLS-2005>
49.3279418945312

> <r_mmod_Bend_Energy-OPLS-2005>
112.076057434082

> <r_mmod_Torsional_Energy-OPLS-2005>
232.548355102539

> <r_mmod_Improper_Torsional_Energy-OPLS-2005>
5.04698801040649

> <r_mmod_Van_der_Waal_Energy-OPLS-2005>
121.235748291016

> <r_mmod_Electrostatic_Energy-OPLS-2005>
-352.553100585938

> <r_mmod_Solvation_Energy-OPLS-2005>
-231.41828918457

> <b_mmod_Minimization_Converged-OPLS-2005>
0

> <r_mmod_RMS_Derivative-OPLS-2005>
3.3982138633728

$$$$
38
                    3D
 Structure written by MMmdl.
164172  0  0  1  0            999 V2000
  -30.6916  -14.4310   20.5918 C   0  0  0  0  0  0
  -30.4225  -12.2983   19.3835 C   0  0  0  0  0  0
  -29.4834  -12.5427   18.1843 C   0  0  0  0  0  0
  -28.0063  -12.3930   18.6012 C   0  0  0  0  0  0
  -27.6688  -13.1960   19.8872 C   0  0  2  0  0  0
  -28.7168  -12.9205   20.9896 C   0  0  0  0  0  0
  -25.2633  -13.8123   20.5686 C   0  0  0  0  0  0
  -24.1857  -13.0406   20.9155 C   0  0  0  0  0  0
  -24.6402  -11.6883   20.8715 C   0  0  0  0  0  0
  -23.9056  -10.4271   21.0395 C   0  0  0  0  0  0
  -24.3608   -9.4195   21.9180 C   0  0  0  0  0  0
  -23.6287   -8.2234   22.0764 C   0  0  0  0  0  0
  -22.4269   -8.0274   21.3561 C   0  0  0  0  0  0
  -21.9899   -9.0241   20.4659 C   0  0  0  0  0  0
  -22.7219  -10.2122   20.3059 C   0  0  0  0  0  0
  -21.6839   -6.0730   22.5279 C   0  0  0  0  0  0
  -21.4011   -6.5634   23.8212 C   0  0  0  0  0  0
  -21.3655   -5.6790   24.9171 C   0  0  0  0  0  0
  -21.6046   -4.3056   24.7226 C   0  0  0  0  0  0
  -21.8817   -3.8145   23.4347 C   0  0  0  0  0  0
  -21.9200   -4.6962   22.3401 C   0  0  0  0  0  0
  -22.7897  -13.5243   21.1800 C   0  0  0  0  0  0
  -22.1659   -4.2149   21.0984 F   0  0  0  0  0  0
  -21.5630   -3.4542   25.7740 F   0  0  0  0  0  0
  -30.0435  -13.2465   20.4412 N   0  0  0  0  0  0
  -26.3078  -12.9268   20.3446 N   0  0  0  0  0  0
  -25.9335  -11.6437   20.5786 N   0  0  0  0  0  0
  -22.0531  -12.8253   22.0371 N   0  0  0  0  0  0
  -25.4352  -15.1823   20.4061 N   0  0  0  0  0  0
  -31.7939  -14.6693   20.0890 O   0  0  0  0  0  0
  -21.6638   -6.8868   21.4245 O   0  0  0  0  0  0
  -22.3606  -14.5552   20.6645 O   0  0  0  0  0  0
  -24.6147  -31.8647   23.2094 C   0  0  0  0  0  0
  -25.9025  -32.4794   23.8382 C   0  0  1  0  0  0
  -27.2369  -27.4263   20.0765 C   0  0  0  0  0  0
  -25.5862  -33.8617   24.2291 N   0  0  0  0  0  0
  -23.4011  -30.4893   21.5528 C   0  0  2  0  0  0
  -24.8452  -28.9476   20.1199 C   0  0  0  0  0  0
  -22.7396  -29.4649   22.5034 C   0  0  0  0  0  0
  -18.0258  -28.1362   22.8483 C   0  0  0  0  0  0
  -24.1462  -36.7346   23.2626 C   0  0  0  0  0  0
  -25.9279  -30.8296   21.3555 C   0  0  0  0  0  0
  -26.0074  -29.4608   20.7078 C   0  0  0  0  0  0
  -27.2099  -28.7105   20.6734 C   0  0  0  0  0  0
  -26.0497  -26.9244   19.5034 C   0  0  0  0  0  0
  -24.8623  -27.6783   19.5160 C   0  0  0  0  0  0
  -23.6054  -29.8138   20.1707 C   0  0  0  0  0  0
  -25.4076  -36.3113   24.0318 C   0  0  1  0  0  0
  -20.5839  -28.3641   23.1329 C   0  0  2  0  0  0
  -20.6736  -26.9381   22.5419 C   0  0  0  0  0  0
  -19.5732  -26.6382   21.5198 C   0  0  0  0  0  0
  -18.1906  -26.7901   22.1618 C   0  0  0  0  0  0
  -19.1499  -28.8822   23.2891 C   0  0  0  0  0  0
  -18.9445  -30.1429   23.8886 C   0  0  0  0  0  0
  -17.6447  -30.6566   24.0560 C   0  0  0  0  0  0
  -25.9023  -34.9476   23.5113 C   0  0  0  0  0  0
  -16.5341  -29.9068   23.6323 C   0  0  0  0  0  0
  -16.7247  -28.6494   23.0332 C   0  0  0  0  0  0
  -26.4442  -31.6556   25.0717 C   0  0  0  0  0  0
  -25.3718  -31.3622   26.1481 C   0  0  0  0  0  0
  -27.0225  -30.2981   24.6068 C   0  0  0  0  0  0
  -27.6009  -32.4255   25.7488 C   0  0  0  0  0  0
  -27.5553  -37.1823   24.8458 C   0  0  0  0  0  0
  -21.4129  -29.3039   22.3774 N   0  0  0  0  0  0
  -26.4273  -37.3807   23.9409 N   0  0  0  0  0  0
  -24.6666  -31.0762   22.0982 N   0  0  0  0  0  0
  -23.4154  -28.8178   23.3059 O   0  0  0  0  0  0
  -28.4231  -26.7151   20.0355 O   0  0  0  0  0  0
  -26.5642  -34.8937   22.4717 O   0  0  0  0  0  0
  -23.5353  -32.1415   23.7506 O   0  0  0  0  0  0
  -27.3606  -22.2525   19.5445 C   0  0  0  0  0  0
  -27.3483  -20.8407   19.5790 C   0  0  0  0  0  0
  -28.4745  -20.1283   19.0795 C   0  0  0  0  0  0
  -28.4765  -22.9353   19.0317 C   0  0  0  0  0  0
  -29.5593  -20.9103   18.5922 C   0  0  0  0  0  0
  -26.0962  -20.1513   20.0873 C   0  0  0  0  0  0
  -30.7741  -20.2876   17.9229 C   0  0  0  0  0  0
  -28.4673  -18.5881   18.8906 C   0  0  0  0  0  0
  -28.4665  -24.4630   18.8486 C   0  0  0  0  0  0
  -28.1588  -17.6511   20.0898 C   0  0  0  0  0  0
  -29.0837  -17.7279   21.3261 C   0  0  0  0  0  0
  -30.3288  -16.8056   21.3057 C   0  0  0  0  0  0
  -28.3896  -25.2759   20.1702 C   0  0  0  0  0  0
  -29.5657  -22.2657   18.5957 N   0  0  0  0  0  0
  -29.9831  -15.3838   21.2197 N   0  0  0  0  0  0
  -31.4641  -12.4086   19.0768 H   0  0  0  0  0  0
  -30.3272  -11.2737   19.7447 H   0  0  0  0  0  0
  -29.7170  -11.8586   17.3677 H   0  0  0  0  0  0
  -29.6446  -13.5489   17.7926 H   0  0  0  0  0  0
  -27.8078  -11.3316   18.7587 H   0  0  0  0  0  0
  -27.3532  -12.7061   17.7840 H   0  0  0  0  0  0
  -27.7251  -14.2522   19.6262 H   0  0  0  0  0  0
  -28.6983  -11.8664   21.2685 H   0  0  0  0  0  0
  -28.4900  -13.4613   21.9082 H   0  0  0  0  0  0
  -25.2750   -9.5671   22.4751 H   0  0  0  0  0  0
  -23.9990   -7.4631   22.7490 H   0  0  0  0  0  0
  -21.0822   -8.8756   19.8967 H   0  0  0  0  0  0
  -22.3670  -10.9664   19.6173 H   0  0  0  0  0  0
  -21.1985   -7.6145   23.9707 H   0  0  0  0  0  0
  -21.1479   -6.0531   25.9078 H   0  0  0  0  0  0
  -22.0600   -2.7618   23.2852 H   0  0  0  0  0  0
  -22.4141  -11.9913   22.4743 H   0  0  0  0  0  0
  -21.1164  -13.1314   22.2556 H   0  0  0  0  0  0
  -24.6645  -15.8345   20.4957 H   0  0  0  0  0  0
  -26.2938  -15.6211   20.1012 H   0  0  0  0  0  0
  -26.7099  -32.5497   23.1142 H   0  0  0  0  0  0
  -24.9901  -33.9771   25.0354 H   0  0  0  0  0  0
  -22.6883  -31.3040   21.4102 H   0  0  0  0  0  0
  -23.3706  -35.9711   23.3313 H   0  0  0  0  0  0
  -24.3511  -36.8971   22.2033 H   0  0  0  0  0  0
  -23.7256  -37.6565   23.6655 H   0  0  0  0  0  0
  -26.0208  -31.5834   20.5738 H   0  0  0  0  0  0
  -26.8261  -30.9021   21.9556 H   0  0  0  0  0  0
  -28.1137  -29.1107   21.1132 H   0  0  0  0  0  0
  -26.0255  -25.9537   19.0343 H   0  0  0  0  0  0
  -23.9678  -27.2772   19.0583 H   0  0  0  0  0  0
  -23.6985  -30.5832   19.4040 H   0  0  0  0  0  0
  -22.7297  -29.2265   19.8855 H   0  0  0  0  0  0
  -25.1227  -36.1975   25.0806 H   0  0  0  0  0  0
  -20.9890  -28.3220   24.1460 H   0  0  0  0  0  0
  -20.5586  -26.2264   23.3612 H   0  0  0  0  0  0
  -21.6619  -26.7409   22.1239 H   0  0  0  0  0  0
  -19.6907  -25.6296   21.1208 H   0  0  0  0  0  0
  -19.6668  -27.3215   20.6748 H   0  0  0  0  0  0
  -17.4160  -26.6619   21.4031 H   0  0  0  0  0  0
  -18.0337  -26.0030   22.9009 H   0  0  0  0  0  0
  -19.7937  -30.7245   24.2220 H   0  0  0  0  0  0
  -17.5030  -31.6247   24.5182 H   0  0  0  0  0  0
  -15.5344  -30.2979   23.7674 H   0  0  0  0  0  0
  -15.8646  -28.0841   22.7018 H   0  0  0  0  0  0
  -24.5974  -30.6830   25.7873 H   0  0  0  0  0  0
  -24.8788  -32.2741   26.4880 H   0  0  0  0  0  0
  -25.8128  -30.8892   27.0272 H   0  0  0  0  0  0
  -26.2775  -29.6810   24.1031 H   0  0  0  0  0  0
  -27.3855  -29.7115   25.4522 H   0  0  0  0  0  0
  -27.8666  -30.4218   23.9270 H   0  0  0  0  0  0
  -27.2622  -33.3582   26.2012 H   0  0  0  0  0  0
  -28.3870  -32.6758   25.0342 H   0  0  0  0  0  0
  -28.0618  -31.8391   26.5448 H   0  0  0  0  0  0
  -28.2576  -38.0113   24.7502 H   0  0  0  0  0  0
  -28.1027  -36.2645   24.6272 H   0  0  0  0  0  0
  -27.2267  -37.1480   25.8861 H   0  0  0  0  0  0
  -20.9287  -29.8791   21.7023 H   0  0  0  0  0  0
  -26.0146  -38.2862   24.1486 H   0  0  0  0  0  0
  -26.4932  -22.8143   19.8655 H   0  0  0  0  0  0
  -25.2830  -20.8653   20.2184 H   0  0  0  0  0  0
  -26.2790  -19.6961   21.0619 H   0  0  0  0  0  0
  -25.7491  -19.3927   19.3833 H   0  0  0  0  0  0
  -31.2995  -19.6139   18.6017 H   0  0  0  0  0  0
  -31.4856  -21.0450   17.5904 H   0  0  0  0  0  0
  -30.4672  -19.7215   17.0408 H   0  0  0  0  0  0
  -29.4061  -18.2395   18.4620 H   0  0  0  0  0  0
  -27.7267  -18.3845   18.1155 H   0  0  0  0  0  0
  -27.6267  -24.7032   18.1993 H   0  0  0  0  0  0
  -29.3554  -24.7614   18.2899 H   0  0  0  0  0  0
  -28.1583  -16.6280   19.7166 H   0  0  0  0  0  0
  -27.1340  -17.7929   20.4191 H   0  0  0  0  0  0
  -28.4912  -17.4575   22.2026 H   0  0  0  0  0  0
  -29.3824  -18.7648   21.4932 H   0  0  0  0  0  0
  -30.8940  -16.9485   22.2288 H   0  0  0  0  0  0
  -30.9914  -17.0968   20.4899 H   0  0  0  0  0  0
  -29.2571  -25.0101   20.7738 H   0  0  0  0  0  0
  -27.5207  -24.9679   20.7501 H   0  0  0  0  0  0
  -29.0987  -15.0905   21.6080 H   0  0  0  0  0  0
  1 25  1  0  0  0
  1 30  2  0  0  0
  1 85  1  0  0  0
  2  3  1  0  0  0
  2 25  1  0  0  0
  2 86  1  0  0  0
  2 87  1  0  0  0
  3  4  1  0  0  0
  3 88  1  0  0  0
  3 89  1  0  0  0
  4  5  1  0  0  0
  4 90  1  0  0  0
  4 91  1  0  0  0
  5  6  1  0  0  0
  5 26  1  0  0  0
  5 92  1  0  0  0
  6 25  1  0  0  0
  6 93  1  0  0  0
  6 94  1  0  0  0
  7  8  2  0  0  0
  7 26  1  0  0  0
  7 29  1  0  0  0
  8  9  1  0  0  0
  8 22  1  0  0  0
  9 10  1  0  0  0
  9 27  2  0  0  0
 10 11  2  0  0  0
 10 15  1  0  0  0
 11 12  1  0  0  0
 11 95  1  0  0  0
 12 13  2  0  0  0
 12 96  1  0  0  0
 13 14  1  0  0  0
 13 31  1  0  0  0
 14 15  2  0  0  0
 14 97  1  0  0  0
 15 98  1  0  0  0
 16 17  2  0  0  0
 16 21  1  0  0  0
 16 31  1  0  0  0
 17 18  1  0  0  0
 17 99  1  0  0  0
 18 19  2  0  0  0
 18100  1  0  0  0
 19 20  1  0  0  0
 19 24  1  0  0  0
 20 21  2  0  0  0
 20101  1  0  0  0
 21 23  1  0  0  0
 22 28  1  0  0  0
 22 32  2  0  0  0
 26 27  1  0  0  0
 28102  1  0  0  0
 28103  1  0  0  0
 29104  1  0  0  0
 29105  1  0  0  0
 33 34  1  0  0  0
 33 66  1  0  0  0
 33 70  2  0  0  0
 34 36  1  0  0  0
 34 59  1  0  0  0
 34106  1  0  0  0
 35 44  2  0  0  0
 35 45  1  0  0  0
 35 68  1  0  0  0
 36 56  1  0  0  0
 36107  1  0  0  0
 37 39  1  0  0  0
 37 47  1  0  0  0
 37 66  1  0  0  0
 37108  1  0  0  0
 38 43  2  0  0  0
 38 46  1  0  0  0
 38 47  1  0  0  0
 39 64  1  0  0  0
 39 67  2  0  0  0
 40 52  1  0  0  0
 40 53  2  0  0  0
 40 58  1  0  0  0
 41109  1  0  0  0
 41110  1  0  0  0
 41111  1  0  0  0
 41 48  1  0  0  0
 42 43  1  0  0  0
 42 66  1  0  0  0
 42112  1  0  0  0
 42113  1  0  0  0
 43 44  1  0  0  0
 44114  1  0  0  0
 45 46  2  0  0  0
 45115  1  0  0  0
 46116  1  0  0  0
 47117  1  0  0  0
 47118  1  0  0  0
 48 56  1  0  0  0
 48 65  1  0  0  0
 48119  1  0  0  0
 49 50  1  0  0  0
 49 53  1  0  0  0
 49 64  1  0  0  0
 49120  1  0  0  0
 50 51  1  0  0  0
 50121  1  0  0  0
 50122  1  0  0  0
 51 52  1  0  0  0
 51123  1  0  0  0
 51124  1  0  0  0
 52125  1  0  0  0
 52126  1  0  0  0
 53 54  1  0  0  0
 54 55  2  0  0  0
 54127  1  0  0  0
 55 57  1  0  0  0
 55128  1  0  0  0
 56 69  2  0  0  0
 57 58  2  0  0  0
 57129  1  0  0  0
 58130  1  0  0  0
 59 60  1  0  0  0
 59 61  1  0  0  0
 59 62  1  0  0  0
 60131  1  0  0  0
 60132  1  0  0  0
 60133  1  0  0  0
 61134  1  0  0  0
 61135  1  0  0  0
 61136  1  0  0  0
 62137  1  0  0  0
 62138  1  0  0  0
 62139  1  0  0  0
 63 65  1  0  0  0
 63140  1  0  0  0
 63141  1  0  0  0
 63142  1  0  0  0
 64143  1  0  0  0
 65144  1  0  0  0
 68 83  1  0  0  0
 71 72  2  0  0  0
 71 74  1  0  0  0
 71145  1  0  0  0
 72 73  1  0  0  0
 72 76  1  0  0  0
 73 75  2  0  0  0
 73 78  1  0  0  0
 74 79  1  0  0  0
 74 84  2  0  0  0
 75 77  1  0  0  0
 75 84  1  0  0  0
 76146  1  0  0  0
 76147  1  0  0  0
 76148  1  0  0  0
 77149  1  0  0  0
 77150  1  0  0  0
 77151  1  0  0  0
 78 80  1  0  0  0
 78152  1  0  0  0
 78153  1  0  0  0
 79 83  1  0  0  0
 79154  1  0  0  0
 79155  1  0  0  0
 80 81  1  0  0  0
 80156  1  0  0  0
 80157  1  0  0  0
 81 82  1  0  0  0
 81158  1  0  0  0
 81159  1  0  0  0
 82 85  1  0  0  0
 82160  1  0  0  0
 82161  1  0  0  0
 83162  1  0  0  0
 83163  1  0  0  0
 85164  1  0  0  0
M  ISO  4   1 100  68 101  83 101  85 100
M  END
> <chiral flag>
0

> <version>
0

> <s_m_source_file>
/data/baiqing/PycharmProjects/Reinvent-master-3.2/result/LINK_invent/BTK/process_docking_weight1_custom_sum_contain_oxygen_bond_distance_aromatic_linkinvent_7_9_3/rearranged_h_0040.sdf

> <i_m_source_file_index>
39

> <r_mmod_Potential_Energy-OPLS-2005>
-220.787689208984

> <r_mmod_Stretch_Energy-OPLS-2005>
41.1632652282715

> <r_mmod_Bend_Energy-OPLS-2005>
112.887344360352

> <r_mmod_Torsional_Energy-OPLS-2005>
211.903564453125

> <r_mmod_Improper_Torsional_Energy-OPLS-2005>
4.42840242385864

> <r_mmod_Van_der_Waal_Energy-OPLS-2005>
150.457885742188

> <r_mmod_Electrostatic_Energy-OPLS-2005>
-529.95458984375

> <r_mmod_Solvation_Energy-OPLS-2005>
-221.654586791992

> <b_mmod_Minimization_Converged-OPLS-2005>
0

> <r_mmod_RMS_Derivative-OPLS-2005>
3.76455068588257

$$$$
39
                    3D
 Structure written by MMmdl.
159167  0  0  1  0            999 V2000
  -30.6821  -14.4355   20.6151 C   0  0  0  0  0  0
  -30.4282  -12.2969   19.4030 C   0  0  0  0  0  0
  -29.4917  -12.5141   18.1963 C   0  0  0  0  0  0
  -28.0116  -12.3726   18.6097 C   0  0  0  0  0  0
  -27.6661  -13.1930   19.8811 C   0  0  2  0  0  0
  -28.7041  -12.9271   20.9937 C   0  0  0  0  0  0
  -25.2608  -13.8122   20.5626 C   0  0  0  0  0  0
  -24.1849  -13.0415   20.9140 C   0  0  0  0  0  0
  -24.6393  -11.6886   20.8738 C   0  0  0  0  0  0
  -23.9053  -10.4286   21.0428 C   0  0  0  0  0  0
  -24.3623   -9.4212   21.9206 C   0  0  0  0  0  0
  -23.6296   -8.2252   22.0787 C   0  0  0  0  0  0
  -22.4283   -8.0286   21.3565 C   0  0  0  0  0  0
  -21.9904   -9.0270   20.4682 C   0  0  0  0  0  0
  -22.7227  -10.2148   20.3083 C   0  0  0  0  0  0
  -21.6862   -6.0739   22.5292 C   0  0  0  0  0  0
  -21.4011   -6.5648   23.8215 C   0  0  0  0  0  0
  -21.3653   -5.6809   24.9183 C   0  0  0  0  0  0
  -21.6037   -4.3067   24.7241 C   0  0  0  0  0  0
  -21.8810   -3.8155   23.4358 C   0  0  0  0  0  0
  -21.9187   -4.6964   22.3414 C   0  0  0  0  0  0
  -22.7886  -13.5261   21.1823 C   0  0  0  0  0  0
  -22.1653   -4.2133   21.0995 F   0  0  0  0  0  0
  -21.5633   -3.4566   25.7758 F   0  0  0  0  0  0
  -30.0391  -13.2510   20.4520 N   0  0  0  0  0  0
  -26.3047  -12.9277   20.3392 N   0  0  0  0  0  0
  -25.9318  -11.6448   20.5789 N   0  0  0  0  0  0
  -22.0533  -12.8278   22.0391 N   0  0  0  0  0  0
  -25.4310  -15.1840   20.3993 N   0  0  0  0  0  0
  -31.7773  -14.6953   20.1056 O   0  0  0  0  0  0
  -21.6646   -6.8891   21.4257 O   0  0  0  0  0  0
  -22.3589  -14.5576   20.6670 O   0  0  0  0  0  0
  -24.6124  -31.8680   23.2104 C   0  0  0  0  0  0
  -25.9014  -32.4815   23.8401 C   0  0  1  0  0  0
  -27.2435  -27.4731   20.0836 C   0  0  0  0  0  0
  -25.5864  -33.8613   24.2329 N   0  0  0  0  0  0
  -23.3983  -30.4923   21.5490 C   0  0  2  0  0  0
  -24.8474  -28.9588   20.1159 C   0  0  0  0  0  0
  -22.7370  -29.4667   22.4976 C   0  0  0  0  0  0
  -18.0262  -28.1411   22.8489 C   0  0  0  0  0  0
  -24.1483  -36.7344   23.2631 C   0  0  0  0  0  0
  -25.9250  -30.8439   21.3614 C   0  0  0  0  0  0
  -26.0035  -29.4806   20.7107 C   0  0  0  0  0  0
  -27.2067  -28.7445   20.6931 C   0  0  0  0  0  0
  -26.0765  -26.9550   19.4864 C   0  0  0  0  0  0
  -24.8773  -27.6932   19.5017 C   0  0  0  0  0  0
  -23.6070  -29.8210   20.1650 C   0  0  0  0  0  0
  -25.4104  -36.3126   24.0339 C   0  0  1  0  0  0
  -20.5846  -28.3708   23.1369 C   0  0  2  0  0  0
  -20.6740  -26.9420   22.5586 C   0  0  0  0  0  0
  -19.5790  -26.6339   21.5300 C   0  0  0  0  0  0
  -18.1938  -26.7938   22.1662 C   0  0  0  0  0  0
  -19.1499  -28.8896   23.2880 C   0  0  0  0  0  0
  -18.9424  -30.1531   23.8832 C   0  0  0  0  0  0
  -17.6428  -30.6665   24.0486 C   0  0  0  0  0  0
  -25.9037  -34.9477   23.5154 C   0  0  0  0  0  0
  -16.5325  -29.9116   23.6310 C   0  0  0  0  0  0
  -16.7250  -28.6516   23.0364 C   0  0  0  0  0  0
  -26.4454  -31.6572   25.0708 C   0  0  0  0  0  0
  -25.3735  -31.3686   26.1465 C   0  0  0  0  0  0
  -27.0263  -30.3005   24.6058 C   0  0  0  0  0  0
  -27.6044  -32.4265   25.7462 C   0  0  0  0  0  0
  -27.5586  -37.1820   24.8458 C   0  0  0  0  0  0
  -21.4104  -29.3035   22.3718 N   0  0  0  0  0  0
  -26.4297  -37.3805   23.9402 N   0  0  0  0  0  0
  -24.6635  -31.0817   22.0989 N   0  0  0  0  0  0
  -23.4147  -28.8203   23.2997 O   0  0  0  0  0  0
  -28.4061  -26.7465   20.0504 O   0  0  0  0  0  0
  -26.5602  -34.8925   22.4727 O   0  0  0  0  0  0
  -23.5325  -32.1405   23.7514 O   0  0  0  0  0  0
  -26.6636  -20.2570   21.2601 C   0  0  0  0  0  0
  -27.8791  -19.9885   21.9460 C   0  0  0  0  0  0
  -26.6036  -21.6195   21.1725 C   0  0  0  0  0  0
  -25.4963  -22.4778   20.6501 C   0  0  0  0  0  0
  -28.3588  -18.6575   22.4929 C   0  0  0  0  0  0
  -28.9383  -17.6539   21.4365 C   0  0  0  0  0  0
  -28.2051  -24.4273   20.7864 C   0  0  0  0  0  0
  -28.1757  -23.4915   22.0125 C   0  0  0  0  0  0
  -30.2452  -16.7835   21.4845 C   0  0  0  0  0  0
  -28.5771  -25.8721   21.1645 C   0  0  0  0  0  0
  -28.5646  -21.1028   22.1714 N   0  0  0  0  0  0
  -27.7775  -22.1132   21.7258 N   0  0  0  0  0  0
  -29.9683  -15.3507   21.2898 N   0  0  0  0  0  0
  -31.4707  -12.4162   19.1012 H   0  0  0  0  0  0
  -30.3460  -11.2733   19.7772 H   0  0  0  0  0  0
  -29.7284  -11.8069   17.4001 H   0  0  0  0  0  0
  -29.6596  -13.5077   17.7775 H   0  0  0  0  0  0
  -27.8121  -11.3158   18.7900 H   0  0  0  0  0  0
  -27.3620  -12.6652   17.7841 H   0  0  0  0  0  0
  -27.7248  -14.2467   19.6095 H   0  0  0  0  0  0
  -28.6801  -11.8760   21.2855 H   0  0  0  0  0  0
  -28.4577  -13.4724   21.9060 H   0  0  0  0  0  0
  -25.2762   -9.5686   22.4784 H   0  0  0  0  0  0
  -23.9990   -7.4653   22.7517 H   0  0  0  0  0  0
  -21.0821   -8.8802   19.9009 H   0  0  0  0  0  0
  -22.3681  -10.9707   19.6208 H   0  0  0  0  0  0
  -21.2004   -7.6158   23.9704 H   0  0  0  0  0  0
  -21.1483   -6.0558   25.9082 H   0  0  0  0  0  0
  -22.0587   -2.7614   23.2882 H   0  0  0  0  0  0
  -22.4139  -11.9914   22.4740 H   0  0  0  0  0  0
  -21.1191  -13.1380   22.2663 H   0  0  0  0  0  0
  -24.6592  -15.8337   20.5049 H   0  0  0  0  0  0
  -26.2749  -15.6264   20.0587 H   0  0  0  0  0  0
  -26.7092  -32.5532   23.1176 H   0  0  0  0  0  0
  -24.9939  -33.9779   25.0413 H   0  0  0  0  0  0
  -22.6866  -31.3100   21.4095 H   0  0  0  0  0  0
  -23.3730  -35.9694   23.3312 H   0  0  0  0  0  0
  -24.3590  -36.8940   22.2046 H   0  0  0  0  0  0
  -23.7252  -37.6561   23.6636 H   0  0  0  0  0  0
  -26.0310  -31.6117   20.5940 H   0  0  0  0  0  0
  -26.8176  -30.8989   21.9732 H   0  0  0  0  0  0
  -28.1038  -29.1515   21.1383 H   0  0  0  0  0  0
  -26.0991  -25.9889   19.0030 H   0  0  0  0  0  0
  -23.9921  -27.2871   19.0322 H   0  0  0  0  0  0
  -23.7076  -30.5952   19.4034 H   0  0  0  0  0  0
  -22.7338  -29.2362   19.8727 H   0  0  0  0  0  0
  -25.1284  -36.2009   25.0832 H   0  0  0  0  0  0
  -20.9899  -28.3386   24.1503 H   0  0  0  0  0  0
  -20.5494  -26.2408   23.3855 H   0  0  0  0  0  0
  -21.6674  -26.7363   22.1544 H   0  0  0  0  0  0
  -19.6978  -25.6208   21.1437 H   0  0  0  0  0  0
  -19.6773  -27.3073   20.6762 H   0  0  0  0  0  0
  -17.4198  -26.6602   21.4092 H   0  0  0  0  0  0
  -18.0336  -26.0131   22.9125 H   0  0  0  0  0  0
  -19.7882  -30.7385   24.2162 H   0  0  0  0  0  0
  -17.4984  -31.6379   24.5016 H   0  0  0  0  0  0
  -15.5328  -30.3004   23.7674 H   0  0  0  0  0  0
  -15.8632  -28.0796   22.7160 H   0  0  0  0  0  0
  -24.5906  -30.7015   25.7833 H   0  0  0  0  0  0
  -24.8924  -32.2840   26.4908 H   0  0  0  0  0  0
  -25.8113  -30.8866   27.0209 H   0  0  0  0  0  0
  -26.2801  -29.6767   24.1105 H   0  0  0  0  0  0
  -27.4029  -29.7221   25.4505 H   0  0  0  0  0  0
  -27.8636  -30.4327   23.9201 H   0  0  0  0  0  0
  -27.2680  -33.3551   26.2089 H   0  0  0  0  0  0
  -28.3833  -32.6834   25.0269 H   0  0  0  0  0  0
  -28.0707  -31.8323   26.5325 H   0  0  0  0  0  0
  -28.2623  -38.0097   24.7503 H   0  0  0  0  0  0
  -28.1068  -36.2640   24.6302 H   0  0  0  0  0  0
  -27.2302  -37.1488   25.8856 H   0  0  0  0  0  0
  -20.9242  -29.8757   21.6955 H   0  0  0  0  0  0
  -26.0199  -38.2892   24.1379 H   0  0  0  0  0  0
  -25.9050  -19.5525   20.9481 H   0  0  0  0  0  0
  -25.7214  -22.8295   19.6438 H   0  0  0  0  0  0
  -25.3202  -23.3410   21.2924 H   0  0  0  0  0  0
  -24.5622  -21.9191   20.5980 H   0  0  0  0  0  0
  -27.4897  -18.2347   23.0124 H   0  0  0  0  0  0
  -29.0864  -18.8272   23.2915 H   0  0  0  0  0  0
  -28.6807  -16.9736   22.2469 H   0  0  0  0  0  0
  -29.6528  -18.4663   21.2989 H   0  0  0  0  0  0
  -27.2309  -24.4432   20.3073 H   0  0  0  0  0  0
  -28.9084  -24.0501   20.0457 H   0  0  0  0  0  0
  -27.4812  -23.8873   22.7538 H   0  0  0  0  0  0
  -29.1574  -23.4861   22.4888 H   0  0  0  0  0  0
  -30.7702  -16.9090   22.4368 H   0  0  0  0  0  0
  -30.9509  -17.0942   20.7083 H   0  0  0  0  0  0
  -27.9852  -26.2021   22.0219 H   0  0  0  0  0  0
  -29.6204  -25.9161   21.4787 H   0  0  0  0  0  0
  -29.0942  -15.0055   21.6606 H   0  0  0  0  0  0
  1 25  1  0  0  0
  1 30  2  0  0  0
  1 83  1  0  0  0
  2  3  1  0  0  0
  2 25  1  0  0  0
  2 84  1  0  0  0
  2 85  1  0  0  0
  3  4  1  0  0  0
  3 86  1  0  0  0
  3 87  1  0  0  0
  4  5  1  0  0  0
  4 88  1  0  0  0
  4 89  1  0  0  0
  5  6  1  0  0  0
  5 26  1  0  0  0
  5 90  1  0  0  0
  6 25  1  0  0  0
  6 91  1  0  0  0
  6 92  1  0  0  0
  7  8  2  0  0  0
  7 26  1  0  0  0
  7 29  1  0  0  0
  8  9  1  0  0  0
  8 22  1  0  0  0
  9 10  1  0  0  0
  9 27  2  0  0  0
 10 11  2  0  0  0
 10 15  1  0  0  0
 11 12  1  0  0  0
 11 93  1  0  0  0
 12 13  2  0  0  0
 12 94  1  0  0  0
 13 14  1  0  0  0
 13 31  1  0  0  0
 14 15  2  0  0  0
 14 95  1  0  0  0
 15 96  1  0  0  0
 16 17  2  0  0  0
 16 21  1  0  0  0
 16 31  1  0  0  0
 17 18  1  0  0  0
 17 97  1  0  0  0
 18 19  2  0  0  0
 18 98  1  0  0  0
 19 20  1  0  0  0
 19 24  1  0  0  0
 20 21  2  0  0  0
 20 99  1  0  0  0
 21 23  1  0  0  0
 22 28  1  0  0  0
 22 32  2  0  0  0
 26 27  1  0  0  0
 28100  1  0  0  0
 28101  1  0  0  0
 29102  1  0  0  0
 29103  1  0  0  0
 33 34  1  0  0  0
 33 66  1  0  0  0
 33 70  2  0  0  0
 34 36  1  0  0  0
 34 59  1  0  0  0
 34104  1  0  0  0
 35 44  2  0  0  0
 35 45  1  0  0  0
 35 68  1  0  0  0
 36 56  1  0  0  0
 36105  1  0  0  0
 37 39  1  0  0  0
 37 47  1  0  0  0
 37 66  1  0  0  0
 37106  1  0  0  0
 38 43  2  0  0  0
 38 46  1  0  0  0
 38 47  1  0  0  0
 39 64  1  0  0  0
 39 67  2  0  0  0
 40 52  1  0  0  0
 40 53  2  0  0  0
 40 58  1  0  0  0
 41107  1  0  0  0
 41108  1  0  0  0
 41109  1  0  0  0
 41 48  1  0  0  0
 42 43  1  0  0  0
 42 66  1  0  0  0
 42110  1  0  0  0
 42111  1  0  0  0
 43 44  1  0  0  0
 44112  1  0  0  0
 45 46  2  0  0  0
 45113  1  0  0  0
 46114  1  0  0  0
 47115  1  0  0  0
 47116  1  0  0  0
 48 56  1  0  0  0
 48 65  1  0  0  0
 48117  1  0  0  0
 49 50  1  0  0  0
 49 53  1  0  0  0
 49 64  1  0  0  0
 49118  1  0  0  0
 50 51  1  0  0  0
 50119  1  0  0  0
 50120  1  0  0  0
 51 52  1  0  0  0
 51121  1  0  0  0
 51122  1  0  0  0
 52123  1  0  0  0
 52124  1  0  0  0
 53 54  1  0  0  0
 54 55  2  0  0  0
 54125  1  0  0  0
 55 57  1  0  0  0
 55126  1  0  0  0
 56 69  2  0  0  0
 57 58  2  0  0  0
 57127  1  0  0  0
 58128  1  0  0  0
 59 60  1  0  0  0
 59 61  1  0  0  0
 59 62  1  0  0  0
 60129  1  0  0  0
 60130  1  0  0  0
 60131  1  0  0  0
 61132  1  0  0  0
 61133  1  0  0  0
 61134  1  0  0  0
 62135  1  0  0  0
 62136  1  0  0  0
 62137  1  0  0  0
 63 65  1  0  0  0
 63138  1  0  0  0
 63139  1  0  0  0
 63140  1  0  0  0
 64141  1  0  0  0
 65142  1  0  0  0
 68 80  1  0  0  0
 71 72  1  0  0  0
 71 73  2  0  0  0
 71143  1  0  0  0
 72 75  1  0  0  0
 72 81  2  0  0  0
 73 74  1  0  0  0
 73 82  1  0  0  0
 74144  1  0  0  0
 74145  1  0  0  0
 74146  1  0  0  0
 75 76  1  0  0  0
 75147  1  0  0  0
 75148  1  0  0  0
 76 79  1  0  0  0
 76149  1  0  0  0
 76150  1  0  0  0
 77 78  1  0  0  0
 77 80  1  0  0  0
 77151  1  0  0  0
 77152  1  0  0  0
 78 82  1  0  0  0
 78153  1  0  0  0
 78154  1  0  0  0
 79 83  1  0  0  0
 79155  1  0  0  0
 79156  1  0  0  0
 80157  1  0  0  0
 80158  1  0  0  0
 81 82  1  0  0  0
 83159  1  0  0  0
M  ISO  4   1 100  68 101  80 101  83 100
M  END
> <chiral flag>
0

> <version>
0

> <s_m_source_file>
/data/baiqing/PycharmProjects/Reinvent-master-3.2/result/LINK_invent/BTK/process_docking_weight1_custom_sum_contain_oxygen_bond_distance_aromatic_linkinvent_7_9_3/rearranged_h_0040.sdf

> <i_m_source_file_index>
40

> <r_mmod_Potential_Energy-OPLS-2005>
98.7373199462891

> <r_mmod_Stretch_Energy-OPLS-2005>
35.1086082458496

> <r_mmod_Bend_Energy-OPLS-2005>
316.169097900391

> <r_mmod_Torsional_Energy-OPLS-2005>
238.478179931641

> <r_mmod_Improper_Torsional_Energy-OPLS-2005>
3.65088629722595

> <r_mmod_Van_der_Waal_Energy-OPLS-2005>
143.760116577148

> <r_mmod_Electrostatic_Energy-OPLS-2005>
-427.144134521484

> <r_mmod_Solvation_Energy-OPLS-2005>
-219.908187866211

> <b_mmod_Minimization_Converged-OPLS-2005>
0

> <r_mmod_RMS_Derivative-OPLS-2005>
3.01568627357483

$$$$
40
                    3D
 Structure written by MMmdl.
184192  0  0  1  0            999 V2000
  -30.9119  -14.1775   20.7957 C   0  0  0  0  0  0
  -30.4001  -12.2811   19.3346 C   0  0  0  0  0  0
  -29.4545  -12.5571   18.1614 C   0  0  0  0  0  0
  -27.9964  -12.3800   18.6084 C   0  0  0  0  0  0
  -27.6699  -13.2073   19.8777 C   0  0  2  0  0  0
  -28.7195  -12.9766   20.9911 C   0  0  0  0  0  0
  -25.2637  -13.8178   20.5699 C   0  0  0  0  0  0
  -24.1873  -13.0447   20.9174 C   0  0  0  0  0  0
  -24.6427  -11.6916   20.8736 C   0  0  0  0  0  0
  -23.9081  -10.4297   21.0406 C   0  0  0  0  0  0
  -24.3623   -9.4209   21.9189 C   0  0  0  0  0  0
  -23.6289   -8.2250   22.0760 C   0  0  0  0  0  0
  -22.4278   -8.0290   21.3542 C   0  0  0  0  0  0
  -21.9918   -9.0265   20.4645 C   0  0  0  0  0  0
  -22.7255  -10.2141   20.3053 C   0  0  0  0  0  0
  -21.6855   -6.0742   22.5278 C   0  0  0  0  0  0
  -21.4017   -6.5643   23.8212 C   0  0  0  0  0  0
  -21.3656   -5.6796   24.9170 C   0  0  0  0  0  0
  -21.6046   -4.3059   24.7227 C   0  0  0  0  0  0
  -21.8818   -3.8150   23.4347 C   0  0  0  0  0  0
  -21.9190   -4.6968   22.3402 C   0  0  0  0  0  0
  -22.7892  -13.5240   21.1821 C   0  0  0  0  0  0
  -22.1660   -4.2155   21.0983 F   0  0  0  0  0  0
  -21.5625   -3.4544   25.7739 F   0  0  0  0  0  0
  -30.0711  -13.1841   20.4414 N   0  0  0  0  0  0
  -26.3094  -12.9355   20.3435 N   0  0  0  0  0  0
  -25.9365  -11.6505   20.5798 N   0  0  0  0  0  0
  -22.0522  -12.8235   22.0378 N   0  0  0  0  0  0
  -25.4346  -15.1890   20.4093 N   0  0  0  0  0  0
  -31.7280  -14.7069   20.0345 O   0  0  0  0  0  0
  -21.6640   -6.8888   21.4242 O   0  0  0  0  0  0
  -22.3569  -14.5544   20.6671 O   0  0  0  0  0  0
  -24.6122  -31.8719   23.2114 C   0  0  0  0  0  0
  -25.9034  -32.4859   23.8436 C   0  0  1  0  0  0
  -27.2339  -27.4637   20.0960 C   0  0  0  0  0  0
  -25.5945  -33.8657   24.2386 N   0  0  0  0  0  0
  -23.3986  -30.4946   21.5473 C   0  0  2  0  0  0
  -24.8468  -28.9631   20.1096 C   0  0  0  0  0  0
  -22.7351  -29.4737   22.4972 C   0  0  0  0  0  0
  -18.0272  -28.1369   22.8461 C   0  0  0  0  0  0
  -24.1491  -36.7308   23.2624 C   0  0  0  0  0  0
  -25.9222  -30.8500   21.3550 C   0  0  0  0  0  0
  -26.0049  -29.4895   20.6959 C   0  0  0  0  0  0
  -27.2064  -28.7509   20.6785 C   0  0  0  0  0  0
  -26.0688  -26.9532   19.4916 C   0  0  0  0  0  0
  -24.8711  -27.6928   19.5058 C   0  0  0  0  0  0
  -23.6042  -29.8213   20.1639 C   0  0  0  0  0  0
  -25.4104  -36.3117   24.0338 C   0  0  1  0  0  0
  -20.5857  -28.3670   23.1315 C   0  0  2  0  0  0
  -20.6768  -26.9406   22.5437 C   0  0  0  0  0  0
  -19.5772  -26.6369   21.5208 C   0  0  0  0  0  0
  -18.1937  -26.7913   22.1606 C   0  0  0  0  0  0
  -19.1516  -28.8830   23.2879 C   0  0  0  0  0  0
  -18.9451  -30.1425   23.8898 C   0  0  0  0  0  0
  -17.6460  -30.6578   24.0542 C   0  0  0  0  0  0
  -25.9029  -34.9486   23.5137 C   0  0  0  0  0  0
  -16.5344  -29.9075   23.6319 C   0  0  0  0  0  0
  -16.7258  -28.6488   23.0341 C   0  0  0  0  0  0
  -26.4434  -31.6660   25.0783 C   0  0  0  0  0  0
  -25.3688  -31.3627   26.1465 C   0  0  0  0  0  0
  -27.0272  -30.3222   24.6067 C   0  0  0  0  0  0
  -27.6017  -32.4247   25.7653 C   0  0  0  0  0  0
  -27.5581  -37.1787   24.8464 C   0  0  0  0  0  0
  -21.4103  -29.3024   22.3666 N   0  0  0  0  0  0
  -26.4294  -37.3794   23.9418 N   0  0  0  0  0  0
  -24.6625  -31.0839   22.0982 N   0  0  0  0  0  0
  -23.4102  -28.8407   23.3086 O   0  0  0  0  0  0
  -28.3403  -26.6489   20.1443 O   0  0  0  0  0  0
  -26.5547  -34.8923   22.4671 O   0  0  0  0  0  0
  -23.5316  -32.1489   23.7498 O   0  0  0  0  0  0
  -27.4386  -27.1620   23.4171 C   0  0  0  0  0  0
  -27.8300  -26.1287   22.5416 C   0  0  0  0  0  0
  -25.6830  -25.8818   24.1809 C   0  0  0  0  0  0
  -26.1562  -24.7808   23.4096 C   0  0  0  0  0  0
  -23.1194  -25.8492   27.1578 C   0  0  0  0  0  0
  -24.3514  -25.8882   24.9245 C   0  0  0  0  0  0
  -25.5294  -23.3885   23.4633 C   0  0  0  0  0  0
  -28.8799  -26.4099   21.4579 C   0  0  0  0  0  0
  -24.4835  -25.8876   26.4567 C   0  0  0  0  0  0
  -25.2990  -22.8604   24.8997 C   0  0  0  0  0  0
  -25.5273  -21.3580   25.0829 C   0  0  0  0  0  0
  -27.0151  -21.0421   25.2629 C   0  0  0  0  0  0
  -27.2813  -19.5516   25.4639 C   0  0  0  0  0  0
  -28.7844  -19.2682   25.5077 C   0  0  0  0  0  0
  -29.0982  -17.7746   25.3976 C   0  0  0  0  0  0
  -30.5531  -17.5385   24.9805 C   0  0  0  0  0  0
  -30.7764  -16.1311   24.4217 C   0  0  0  0  0  0
  -31.9990  -16.0923   23.4950 C   0  0  0  0  0  0
  -32.2287  -14.7255   22.8438 C   0  0  0  0  0  0
  -26.3592  -27.0510   24.2225 N   0  0  0  0  0  0
  -27.2249  -24.9121   22.5758 N   0  0  0  0  0  0
  -31.0479  -14.2482   22.1240 N   0  0  0  0  0  0
  -31.4385  -12.3831   19.0120 H   0  0  0  0  0  0
  -30.2937  -11.2490   19.6716 H   0  0  0  0  0  0
  -29.6765  -11.8875   17.3294 H   0  0  0  0  0  0
  -29.6077  -13.5725   17.7910 H   0  0  0  0  0  0
  -27.8288  -11.3194   18.8009 H   0  0  0  0  0  0
  -27.3196  -12.6531   17.7983 H   0  0  0  0  0  0
  -27.7222  -14.2586   19.5927 H   0  0  0  0  0  0
  -28.6492  -11.9622   21.3846 H   0  0  0  0  0  0
  -28.5126  -13.6495   21.8250 H   0  0  0  0  0  0
  -25.2765   -9.5686   22.4769 H   0  0  0  0  0  0
  -23.9991   -7.4648   22.7493 H   0  0  0  0  0  0
  -21.0846   -8.8787   19.8955 H   0  0  0  0  0  0
  -22.3714  -10.9681   19.6161 H   0  0  0  0  0  0
  -21.2016   -7.6153   23.9716 H   0  0  0  0  0  0
  -21.1481   -6.0529   25.9074 H   0  0  0  0  0  0
  -22.0601   -2.7618   23.2848 H   0  0  0  0  0  0
  -22.4118  -11.9887   22.4762 H   0  0  0  0  0  0
  -21.1147  -13.1276   22.2586 H   0  0  0  0  0  0
  -24.6718  -15.8491   20.5163 H   0  0  0  0  0  0
  -26.3005  -15.6285   20.1202 H   0  0  0  0  0  0
  -26.7136  -32.5561   23.1229 H   0  0  0  0  0  0
  -25.0279  -33.9846   25.0655 H   0  0  0  0  0  0
  -22.6884  -31.3117   21.4057 H   0  0  0  0  0  0
  -23.3771  -35.9624   23.3286 H   0  0  0  0  0  0
  -24.3599  -36.8918   22.2039 H   0  0  0  0  0  0
  -23.7233  -37.6513   23.6626 H   0  0  0  0  0  0
  -26.0317  -31.6247   20.5942 H   0  0  0  0  0  0
  -26.8081  -30.8981   21.9750 H   0  0  0  0  0  0
  -28.0991  -29.1566   21.1329 H   0  0  0  0  0  0
  -26.0812  -25.9661   19.0503 H   0  0  0  0  0  0
  -23.9732  -27.2773   19.0681 H   0  0  0  0  0  0
  -23.7002  -30.5940   19.4009 H   0  0  0  0  0  0
  -22.7334  -29.2300   19.8765 H   0  0  0  0  0  0
  -25.1261  -36.1971   25.0824 H   0  0  0  0  0  0
  -20.9923  -28.3254   24.1449 H   0  0  0  0  0  0
  -20.5668  -26.2296   23.3637 H   0  0  0  0  0  0
  -21.6656  -26.7445   22.1265 H   0  0  0  0  0  0
  -19.6957  -25.6275   21.1255 H   0  0  0  0  0  0
  -19.6747  -27.3161   20.6728 H   0  0  0  0  0  0
  -17.4210  -26.6639   21.3999 H   0  0  0  0  0  0
  -18.0350  -26.0055   22.9011 H   0  0  0  0  0  0
  -19.7934  -30.7202   24.2315 H   0  0  0  0  0  0
  -17.5023  -31.6268   24.5131 H   0  0  0  0  0  0
  -15.5355  -30.2976   23.7647 H   0  0  0  0  0  0
  -15.8656  -28.0801   22.7084 H   0  0  0  0  0  0
  -24.5885  -30.7012   25.7674 H   0  0  0  0  0  0
  -24.8873  -32.2742   26.5006 H   0  0  0  0  0  0
  -25.8017  -30.8652   27.0162 H   0  0  0  0  0  0
  -26.2693  -29.7178   24.1101 H   0  0  0  0  0  0
  -27.4071  -29.7296   25.4404 H   0  0  0  0  0  0
  -27.8578  -30.4618   23.9155 H   0  0  0  0  0  0
  -27.2680  -33.3553   26.2244 H   0  0  0  0  0  0
  -28.3946  -32.6709   25.0581 H   0  0  0  0  0  0
  -28.0520  -31.8285   26.5603 H   0  0  0  0  0  0
  -28.2558  -38.0113   24.7503 H   0  0  0  0  0  0
  -28.1111  -36.2637   24.6282 H   0  0  0  0  0  0
  -27.2295  -37.1391   25.8865 H   0  0  0  0  0  0
  -20.9272  -29.8646   21.6802 H   0  0  0  0  0  0
  -26.0199  -38.2868   24.1472 H   0  0  0  0  0  0
  -27.9417  -28.1159   23.3952 H   0  0  0  0  0  0
  -23.2373  -25.8561   28.2416 H   0  0  0  0  0  0
  -22.5642  -24.9493   26.8908 H   0  0  0  0  0  0
  -22.5073  -26.7095   26.8844 H   0  0  0  0  0  0
  -23.7177  -25.0752   24.5760 H   0  0  0  0  0  0
  -23.8136  -26.7855   24.6291 H   0  0  0  0  0  0
  -26.1855  -22.6986   22.9297 H   0  0  0  0  0  0
  -24.5933  -23.3981   22.9047 H   0  0  0  0  0  0
  -29.5524  -25.5559   21.3944 H   0  0  0  0  0  0
  -29.5013  -27.2562   21.7515 H   0  0  0  0  0  0
  -25.0761  -25.0367   26.7879 H   0  0  0  0  0  0
  -25.0276  -26.7785   26.7716 H   0  0  0  0  0  0
  -24.2837  -23.0917   25.2188 H   0  0  0  0  0  0
  -25.9597  -23.3800   25.5937 H   0  0  0  0  0  0
  -25.1062  -20.8039   24.2419 H   0  0  0  0  0  0
  -24.9890  -21.0264   25.9724 H   0  0  0  0  0  0
  -27.4122  -21.5926   26.1167 H   0  0  0  0  0  0
  -27.5668  -21.3949   24.3908 H   0  0  0  0  0  0
  -26.8275  -18.9996   24.6400 H   0  0  0  0  0  0
  -26.8025  -19.1949   26.3769 H   0  0  0  0  0  0
  -29.2299  -19.6855   26.4123 H   0  0  0  0  0  0
  -29.2508  -19.7910   24.6707 H   0  0  0  0  0  0
  -28.4411  -17.3401   24.6428 H   0  0  0  0  0  0
  -28.8736  -17.2603   26.3332 H   0  0  0  0  0  0
  -31.2307  -17.7365   25.8119 H   0  0  0  0  0  0
  -30.8127  -18.2588   24.2036 H   0  0  0  0  0  0
  -29.8955  -15.8268   23.8561 H   0  0  0  0  0  0
  -30.8799  -15.4128   25.2365 H   0  0  0  0  0  0
  -32.8892  -16.3808   24.0572 H   0  0  0  0  0  0
  -31.8817  -16.8399   22.7084 H   0  0  0  0  0  0
  -32.4735  -13.9924   23.6134 H   0  0  0  0  0  0
  -33.1011  -14.7740   22.1892 H   0  0  0  0  0  0
  -30.3871  -13.7002   22.6548 H   0  0  0  0  0  0
  1 25  1  0  0  0
  1 30  2  0  0  0
  1 92  1  0  0  0
  2  3  1  0  0  0
  2 25  1  0  0  0
  2 93  1  0  0  0
  2 94  1  0  0  0
  3  4  1  0  0  0
  3 95  1  0  0  0
  3 96  1  0  0  0
  4  5  1  0  0  0
  4 97  1  0  0  0
  4 98  1  0  0  0
  5  6  1  0  0  0
  5 26  1  0  0  0
  5 99  1  0  0  0
  6 25  1  0  0  0
  6100  1  0  0  0
  6101  1  0  0  0
  7  8  2  0  0  0
  7 26  1  0  0  0
  7 29  1  0  0  0
  8  9  1  0  0  0
  8 22  1  0  0  0
  9 10  1  0  0  0
  9 27  2  0  0  0
 10 11  2  0  0  0
 10 15  1  0  0  0
 11 12  1  0  0  0
 11102  1  0  0  0
 12 13  2  0  0  0
 12103  1  0  0  0
 13 14  1  0  0  0
 13 31  1  0  0  0
 14 15  2  0  0  0
 14104  1  0  0  0
 15105  1  0  0  0
 16 17  2  0  0  0
 16 21  1  0  0  0
 16 31  1  0  0  0
 17 18  1  0  0  0
 17106  1  0  0  0
 18 19  2  0  0  0
 18107  1  0  0  0
 19 20  1  0  0  0
 19 24  1  0  0  0
 20 21  2  0  0  0
 20108  1  0  0  0
 21 23  1  0  0  0
 22 28  1  0  0  0
 22 32  2  0  0  0
 26 27  1  0  0  0
 28109  1  0  0  0
 28110  1  0  0  0
 29111  1  0  0  0
 29112  1  0  0  0
 33 34  1  0  0  0
 33 66  1  0  0  0
 33 70  2  0  0  0
 34 36  1  0  0  0
 34 59  1  0  0  0
 34113  1  0  0  0
 35 44  2  0  0  0
 35 45  1  0  0  0
 35 68  1  0  0  0
 36 56  1  0  0  0
 36114  1  0  0  0
 37 39  1  0  0  0
 37 47  1  0  0  0
 37 66  1  0  0  0
 37115  1  0  0  0
 38 43  2  0  0  0
 38 46  1  0  0  0
 38 47  1  0  0  0
 39 64  1  0  0  0
 39 67  2  0  0  0
 40 52  1  0  0  0
 40 53  2  0  0  0
 40 58  1  0  0  0
 41116  1  0  0  0
 41117  1  0  0  0
 41118  1  0  0  0
 41 48  1  0  0  0
 42 43  1  0  0  0
 42 66  1  0  0  0
 42119  1  0  0  0
 42120  1  0  0  0
 43 44  1  0  0  0
 44121  1  0  0  0
 45 46  2  0  0  0
 45122  1  0  0  0
 46123  1  0  0  0
 47124  1  0  0  0
 47125  1  0  0  0
 48 56  1  0  0  0
 48 65  1  0  0  0
 48126  1  0  0  0
 49 50  1  0  0  0
 49 53  1  0  0  0
 49 64  1  0  0  0
 49127  1  0  0  0
 50 51  1  0  0  0
 50128  1  0  0  0
 50129  1  0  0  0
 51 52  1  0  0  0
 51130  1  0  0  0
 51131  1  0  0  0
 52132  1  0  0  0
 52133  1  0  0  0
 53 54  1  0  0  0
 54 55  2  0  0  0
 54134  1  0  0  0
 55 57  1  0  0  0
 55135  1  0  0  0
 56 69  2  0  0  0
 57 58  2  0  0  0
 57136  1  0  0  0
 58137  1  0  0  0
 59 60  1  0  0  0
 59 61  1  0  0  0
 59 62  1  0  0  0
 60138  1  0  0  0
 60139  1  0  0  0
 60140  1  0  0  0
 61141  1  0  0  0
 61142  1  0  0  0
 61143  1  0  0  0
 62144  1  0  0  0
 62145  1  0  0  0
 62146  1  0  0  0
 63 65  1  0  0  0
 63147  1  0  0  0
 63148  1  0  0  0
 63149  1  0  0  0
 64150  1  0  0  0
 65151  1  0  0  0
 68 78  1  0  0  0
 71 72  2  0  0  0
 71 90  1  0  0  0
 71152  1  0  0  0
 72 78  1  0  0  0
 72 91  1  0  0  0
 73 74  1  0  0  0
 73 76  1  0  0  0
 73 90  2  0  0  0
 74 77  1  0  0  0
 74 91  2  0  0  0
 75 79  1  0  0  0
 75153  1  0  0  0
 75154  1  0  0  0
 75155  1  0  0  0
 76 79  1  0  0  0
 76156  1  0  0  0
 76157  1  0  0  0
 77 80  1  0  0  0
 77158  1  0  0  0
 77159  1  0  0  0
 78160  1  0  0  0
 78161  1  0  0  0
 79162  1  0  0  0
 79163  1  0  0  0
 80 81  1  0  0  0
 80164  1  0  0  0
 80165  1  0  0  0
 81 82  1  0  0  0
 81166  1  0  0  0
 81167  1  0  0  0
 82 83  1  0  0  0
 82168  1  0  0  0
 82169  1  0  0  0
 83 84  1  0  0  0
 83170  1  0  0  0
 83171  1  0  0  0
 84 85  1  0  0  0
 84172  1  0  0  0
 84173  1  0  0  0
 85 86  1  0  0  0
 85174  1  0  0  0
 85175  1  0  0  0
 86 87  1  0  0  0
 86176  1  0  0  0
 86177  1  0  0  0
 87 88  1  0  0  0
 87178  1  0  0  0
 87179  1  0  0  0
 88 89  1  0  0  0
 88180  1  0  0  0
 88181  1  0  0  0
 89 92  1  0  0  0
 89182  1  0  0  0
 89183  1  0  0  0
 92184  1  0  0  0
M  ISO  4   1 100  68 101  78 101  92 100
M  END
> <chiral flag>
0

> <version>
0

> <s_m_source_file>
/data/baiqing/PycharmProjects/Reinvent-master-3.2/result/LINK_invent/BTK/process_docking_weight1_custom_sum_contain_oxygen_bond_distance_aromatic_linkinvent_7_9_3/rearranged_h_0040.sdf

> <i_m_source_file_index>
41

> <r_mmod_Potential_Energy-OPLS-2005>
79.0671920776367

> <r_mmod_Stretch_Energy-OPLS-2005>
34.8139610290527

> <r_mmod_Bend_Energy-OPLS-2005>
93.3491821289062

> <r_mmod_Torsional_Energy-OPLS-2005>
253.494155883789

> <r_mmod_Improper_Torsional_Energy-OPLS-2005>
11.0538625717163

> <r_mmod_Van_der_Waal_Energy-OPLS-2005>
145.122039794922

> <r_mmod_Electrostatic_Energy-OPLS-2005>
-273.562713623047

> <r_mmod_Solvation_Energy-OPLS-2005>
-202.807968139648

> <b_mmod_Minimization_Converged-OPLS-2005>
0

> <r_mmod_RMS_Derivative-OPLS-2005>
2.06368064880371

$$$$
41
                    3D
 Structure written by MMmdl.
164172  0  0  1  0            999 V2000
  -30.6571  -14.5958   20.5278 C   0  0  0  0  0  0
  -30.4303  -12.3768   19.4340 C   0  0  0  0  0  0
  -29.4959  -12.5060   18.2123 C   0  0  0  0  0  0
  -28.0207  -12.3463   18.6315 C   0  0  0  0  0  0
  -27.6519  -13.2151   19.8633 C   0  0  2  0  0  0
  -28.6991  -13.0644   20.9875 C   0  0  0  0  0  0
  -25.2564  -13.8173   20.5700 C   0  0  0  0  0  0
  -24.1821  -13.0440   20.9183 C   0  0  0  0  0  0
  -24.6382  -11.6909   20.8730 C   0  0  0  0  0  0
  -23.9051  -10.4289   21.0406 C   0  0  0  0  0  0
  -24.3604   -9.4210   21.9186 C   0  0  0  0  0  0
  -23.6283   -8.2240   22.0756 C   0  0  0  0  0  0
  -22.4265   -8.0274   21.3546 C   0  0  0  0  0  0
  -21.9904   -9.0242   20.4639 C   0  0  0  0  0  0
  -22.7227  -10.2129   20.3051 C   0  0  0  0  0  0
  -21.6860   -6.0735   22.5276 C   0  0  0  0  0  0
  -21.4010   -6.5639   23.8212 C   0  0  0  0  0  0
  -21.3657   -5.6791   24.9171 C   0  0  0  0  0  0
  -21.6045   -4.3054   24.7222 C   0  0  0  0  0  0
  -21.8817   -3.8146   23.4347 C   0  0  0  0  0  0
  -21.9190   -4.6962   22.3399 C   0  0  0  0  0  0
  -22.7844  -13.5234   21.1854 C   0  0  0  0  0  0
  -22.1664   -4.2146   21.0983 F   0  0  0  0  0  0
  -21.5629   -3.4539   25.7739 F   0  0  0  0  0  0
  -30.0132  -13.3948   20.4144 N   0  0  0  0  0  0
  -26.2986  -12.9350   20.3346 N   0  0  0  0  0  0
  -25.9313  -11.6507   20.5761 N   0  0  0  0  0  0
  -22.0488  -12.8210   22.0400 N   0  0  0  0  0  0
  -25.4293  -15.1895   20.4137 N   0  0  0  0  0  0
  -31.8270  -14.7472   20.1684 O   0  0  0  0  0  0
  -21.6645   -6.8873   21.4237 O   0  0  0  0  0  0
  -22.3536  -14.5554   20.6729 O   0  0  0  0  0  0
  -24.6267  -31.8638   23.2090 C   0  0  0  0  0  0
  -25.9113  -32.4801   23.8400 C   0  0  1  0  0  0
  -27.2093  -27.3254   20.0819 C   0  0  0  0  0  0
  -25.5932  -33.8601   24.2313 N   0  0  0  0  0  0
  -23.4185  -30.4960   21.5533 C   0  0  2  0  0  0
  -24.8598  -28.9701   20.1085 C   0  0  0  0  0  0
  -22.7490  -29.4639   22.4929 C   0  0  0  0  0  0
  -18.0297  -28.1383   22.8484 C   0  0  0  0  0  0
  -24.1485  -36.7288   23.2637 C   0  0  0  0  0  0
  -25.9656  -30.7893   21.3883 C   0  0  0  0  0  0
  -26.0327  -29.4212   20.7254 C   0  0  0  0  0  0
  -27.2071  -28.6073   20.7170 C   0  0  0  0  0  0
  -26.0105  -26.9616   19.4091 C   0  0  0  0  0  0
  -24.8508  -27.7417   19.4461 C   0  0  0  0  0  0
  -23.6313  -29.8483   20.1643 C   0  0  0  0  0  0
  -25.4110  -36.3096   24.0336 C   0  0  1  0  0  0
  -20.5904  -28.3677   23.1266 C   0  0  2  0  0  0
  -20.6775  -26.9392   22.5406 C   0  0  0  0  0  0
  -19.5756  -26.6375   21.5205 C   0  0  0  0  0  0
  -18.1924  -26.7932   22.1609 C   0  0  0  0  0  0
  -19.1556  -28.8849   23.2877 C   0  0  0  0  0  0
  -18.9475  -30.1451   23.8896 C   0  0  0  0  0  0
  -17.6473  -30.6575   24.0574 C   0  0  0  0  0  0
  -25.9050  -34.9463   23.5119 C   0  0  0  0  0  0
  -16.5368  -29.9073   23.6344 C   0  0  0  0  0  0
  -16.7285  -28.6504   23.0343 C   0  0  0  0  0  0
  -26.4492  -31.6608   25.0767 C   0  0  0  0  0  0
  -25.3713  -31.3729   26.1480 C   0  0  0  0  0  0
  -27.0342  -30.3040   24.6216 C   0  0  0  0  0  0
  -27.6059  -32.4346   25.7523 C   0  0  0  0  0  0
  -27.5581  -37.1798   24.8464 C   0  0  0  0  0  0
  -21.4210  -29.3051   22.3678 N   0  0  0  0  0  0
  -26.4287  -37.3789   23.9423 N   0  0  0  0  0  0
  -24.6894  -31.0648   22.1055 N   0  0  0  0  0  0
  -23.4223  -28.8140   23.2972 O   0  0  0  0  0  0
  -28.2993  -26.4288   20.1412 O   0  0  0  0  0  0
  -26.5607  -34.8929   22.4678 O   0  0  0  0  0  0
  -23.5425  -32.1424   23.7412 O   0  0  0  0  0  0
  -28.7128  -22.7327   18.9271 C   0  0  0  0  0  0
  -28.8974  -21.3627   19.2566 C   0  0  0  0  0  0
  -29.2793  -21.0230   20.5912 C   0  0  0  0  0  0
  -28.7928  -23.7592   19.8915 C   0  0  0  0  0  0
  -29.4401  -22.1457   21.4734 C   0  0  0  0  0  0
  -29.8418  -21.9682   22.9272 C   0  0  0  0  0  0
  -29.8426  -19.9355   17.3893 C   0  0  0  0  0  0
  -27.4537  -20.7165   17.2168 C   0  0  0  0  0  0
  -29.3531  -19.5461   21.1753 C   0  0  0  0  0  0
  -28.0296  -25.0881   19.5773 C   0  0  0  0  0  0
  -29.9196  -18.2697   20.4096 C   0  0  0  0  0  0
  -30.2955  -17.0345   21.3300 C   0  0  0  0  0  0
  -28.5834  -20.3124   18.1859 C   0  0  0  0  0  0
  -29.1831  -23.4500   21.1478 N   0  0  0  0  0  0
  -29.8903  -15.6550   20.9114 N   0  0  0  0  0  0
  -31.4707  -12.4998   19.1277 H   0  0  0  0  0  0
  -30.3598  -11.3796   19.8708 H   0  0  0  0  0  0
  -29.7515  -11.7596   17.4596 H   0  0  0  0  0  0
  -29.6389  -13.4792   17.7402 H   0  0  0  0  0  0
  -27.8536  -11.2929   18.8596 H   0  0  0  0  0  0
  -27.3616  -12.5845   17.7949 H   0  0  0  0  0  0
  -27.6728  -14.2511   19.5264 H   0  0  0  0  0  0
  -28.7038  -12.0440   21.3737 H   0  0  0  0  0  0
  -28.4525  -13.7011   21.8386 H   0  0  0  0  0  0
  -25.2744   -9.5693   22.4766 H   0  0  0  0  0  0
  -23.9993   -7.4640   22.7481 H   0  0  0  0  0  0
  -21.0844   -8.8749   19.8947 H   0  0  0  0  0  0
  -22.3681  -10.9662   19.6158 H   0  0  0  0  0  0
  -21.2001   -7.6148   23.9706 H   0  0  0  0  0  0
  -21.1482   -6.0531   25.9073 H   0  0  0  0  0  0
  -22.0596   -2.7608   23.2853 H   0  0  0  0  0  0
  -22.4104  -11.9842   22.4729 H   0  0  0  0  0  0
  -21.1113  -13.1237   22.2635 H   0  0  0  0  0  0
  -24.6636  -15.8450   20.5240 H   0  0  0  0  0  0
  -26.2814  -15.6290   20.0891 H   0  0  0  0  0  0
  -26.7171  -32.5456   23.1135 H   0  0  0  0  0  0
  -25.0154  -33.9778   25.0507 H   0  0  0  0  0  0
  -22.7123  -31.3183   21.4182 H   0  0  0  0  0  0
  -23.3776  -35.9594   23.3295 H   0  0  0  0  0  0
  -24.3574  -36.8902   22.2050 H   0  0  0  0  0  0
  -23.7208  -37.6476   23.6665 H   0  0  0  0  0  0
  -26.1074  -31.5513   20.6208 H   0  0  0  0  0  0
  -26.8451  -30.8285   22.0198 H   0  0  0  0  0  0
  -28.0995  -28.9456   21.2233 H   0  0  0  0  0  0
  -25.9015  -26.0571   18.8308 H   0  0  0  0  0  0
  -23.9583  -27.4036   18.9372 H   0  0  0  0  0  0
  -23.7504  -30.6345   19.4177 H   0  0  0  0  0  0
  -22.7500  -29.2825   19.8546 H   0  0  0  0  0  0
  -25.1274  -36.1954   25.0827 H   0  0  0  0  0  0
  -21.0011  -28.3249   24.1380 H   0  0  0  0  0  0
  -20.5667  -26.2284   23.3613 H   0  0  0  0  0  0
  -21.6641  -26.7391   22.1190 H   0  0  0  0  0  0
  -19.6913  -25.6287   21.1227 H   0  0  0  0  0  0
  -19.6704  -27.3213   20.6761 H   0  0  0  0  0  0
  -17.4200  -26.6733   21.3998 H   0  0  0  0  0  0
  -18.0283  -26.0054   22.8973 H   0  0  0  0  0  0
  -19.7948  -30.7289   24.2243 H   0  0  0  0  0  0
  -17.5018  -31.6250   24.5177 H   0  0  0  0  0  0
  -15.5373  -30.2976   23.7668 H   0  0  0  0  0  0
  -15.8681  -28.0840   22.7032 H   0  0  0  0  0  0
  -24.6019  -30.6901   25.7840 H   0  0  0  0  0  0
  -24.8738  -32.2863   26.4762 H   0  0  0  0  0  0
  -25.8039  -30.9081   27.0350 H   0  0  0  0  0  0
  -26.2920  -29.6805   24.1222 H   0  0  0  0  0  0
  -27.4032  -29.7267   25.4701 H   0  0  0  0  0  0
  -27.8784  -30.4346   23.9449 H   0  0  0  0  0  0
  -27.2706  -33.3707   26.2008 H   0  0  0  0  0  0
  -28.3915  -32.6804   25.0361 H   0  0  0  0  0  0
  -28.0683  -31.8528   26.5513 H   0  0  0  0  0  0
  -28.2577  -38.0117   24.7527 H   0  0  0  0  0  0
  -28.1099  -36.2645   24.6259 H   0  0  0  0  0  0
  -27.2303  -37.1376   25.8867 H   0  0  0  0  0  0
  -20.9378  -29.8838   21.6950 H   0  0  0  0  0  0
  -26.0171  -38.2859   24.1465 H   0  0  0  0  0  0
  -28.3638  -23.0078   17.9436 H   0  0  0  0  0  0
  -30.8276  -21.5078   23.0017 H   0  0  0  0  0  0
  -29.1194  -21.3446   23.4524 H   0  0  0  0  0  0
  -29.8884  -22.9211   23.4551 H   0  0  0  0  0  0
  -30.6491  -19.5973   18.0339 H   0  0  0  0  0  0
  -30.2258  -20.7887   16.8287 H   0  0  0  0  0  0
  -29.6317  -19.1358   16.6794 H   0  0  0  0  0  0
  -26.5767  -21.0756   17.7572 H   0  0  0  0  0  0
  -27.1387  -19.8634   16.6154 H   0  0  0  0  0  0
  -27.7666  -21.4919   16.5168 H   0  0  0  0  0  0
  -28.3396  -19.3021   21.5007 H   0  0  0  0  0  0
  -29.9306  -19.5868   22.0960 H   0  0  0  0  0  0
  -27.0453  -24.7659   19.9176 H   0  0  0  0  0  0
  -27.9836  -25.1997   18.4917 H   0  0  0  0  0  0
  -30.8391  -18.5557   19.9024 H   0  0  0  0  0  0
  -29.2339  -17.9246   19.6395 H   0  0  0  0  0  0
  -29.8318  -17.1829   22.3060 H   0  0  0  0  0  0
  -31.3684  -17.0496   21.5265 H   0  0  0  0  0  0
  -28.1849  -19.4416   18.6960 H   0  0  0  0  0  0
  -28.9246  -15.4197   21.0854 H   0  0  0  0  0  0
  1 25  1  0  0  0
  1 30  2  0  0  0
  1 85  1  0  0  0
  2  3  1  0  0  0
  2 25  1  0  0  0
  2 86  1  0  0  0
  2 87  1  0  0  0
  3  4  1  0  0  0
  3 88  1  0  0  0
  3 89  1  0  0  0
  4  5  1  0  0  0
  4 90  1  0  0  0
  4 91  1  0  0  0
  5  6  1  0  0  0
  5 26  1  0  0  0
  5 92  1  0  0  0
  6 25  1  0  0  0
  6 93  1  0  0  0
  6 94  1  0  0  0
  7  8  2  0  0  0
  7 26  1  0  0  0
  7 29  1  0  0  0
  8  9  1  0  0  0
  8 22  1  0  0  0
  9 10  1  0  0  0
  9 27  2  0  0  0
 10 11  2  0  0  0
 10 15  1  0  0  0
 11 12  1  0  0  0
 11 95  1  0  0  0
 12 13  2  0  0  0
 12 96  1  0  0  0
 13 14  1  0  0  0
 13 31  1  0  0  0
 14 15  2  0  0  0
 14 97  1  0  0  0
 15 98  1  0  0  0
 16 17  2  0  0  0
 16 21  1  0  0  0
 16 31  1  0  0  0
 17 18  1  0  0  0
 17 99  1  0  0  0
 18 19  2  0  0  0
 18100  1  0  0  0
 19 20  1  0  0  0
 19 24  1  0  0  0
 20 21  2  0  0  0
 20101  1  0  0  0
 21 23  1  0  0  0
 22 28  1  0  0  0
 22 32  2  0  0  0
 26 27  1  0  0  0
 28102  1  0  0  0
 28103  1  0  0  0
 29104  1  0  0  0
 29105  1  0  0  0
 33 34  1  0  0  0
 33 66  1  0  0  0
 33 70  2  0  0  0
 34 36  1  0  0  0
 34 59  1  0  0  0
 34106  1  0  0  0
 35 44  2  0  0  0
 35 45  1  0  0  0
 35 68  1  0  0  0
 36 56  1  0  0  0
 36107  1  0  0  0
 37 39  1  0  0  0
 37 47  1  0  0  0
 37 66  1  0  0  0
 37108  1  0  0  0
 38 43  2  0  0  0
 38 46  1  0  0  0
 38 47  1  0  0  0
 39 64  1  0  0  0
 39 67  2  0  0  0
 40 52  1  0  0  0
 40 53  2  0  0  0
 40 58  1  0  0  0
 41109  1  0  0  0
 41110  1  0  0  0
 41111  1  0  0  0
 41 48  1  0  0  0
 42 43  1  0  0  0
 42 66  1  0  0  0
 42112  1  0  0  0
 42113  1  0  0  0
 43 44  1  0  0  0
 44114  1  0  0  0
 45 46  2  0  0  0
 45115  1  0  0  0
 46116  1  0  0  0
 47117  1  0  0  0
 47118  1  0  0  0
 48 56  1  0  0  0
 48 65  1  0  0  0
 48119  1  0  0  0
 49 50  1  0  0  0
 49 53  1  0  0  0
 49 64  1  0  0  0
 49120  1  0  0  0
 50 51  1  0  0  0
 50121  1  0  0  0
 50122  1  0  0  0
 51 52  1  0  0  0
 51123  1  0  0  0
 51124  1  0  0  0
 52125  1  0  0  0
 52126  1  0  0  0
 53 54  1  0  0  0
 54 55  2  0  0  0
 54127  1  0  0  0
 55 57  1  0  0  0
 55128  1  0  0  0
 56 69  2  0  0  0
 57 58  2  0  0  0
 57129  1  0  0  0
 58130  1  0  0  0
 59 60  1  0  0  0
 59 61  1  0  0  0
 59 62  1  0  0  0
 60131  1  0  0  0
 60132  1  0  0  0
 60133  1  0  0  0
 61134  1  0  0  0
 61135  1  0  0  0
 61136  1  0  0  0
 62137  1  0  0  0
 62138  1  0  0  0
 62139  1  0  0  0
 63 65  1  0  0  0
 63140  1  0  0  0
 63141  1  0  0  0
 63142  1  0  0  0
 64143  1  0  0  0
 65144  1  0  0  0
 68 80  1  0  0  0
 71 72  2  0  0  0
 71 74  1  0  0  0
 71145  1  0  0  0
 72 73  1  0  0  0
 72 83  1  0  0  0
 73 75  2  0  0  0
 73 79  1  0  0  0
 74 80  1  0  0  0
 74 84  2  0  0  0
 75 76  1  0  0  0
 75 84  1  0  0  0
 76146  1  0  0  0
 76147  1  0  0  0
 76148  1  0  0  0
 77149  1  0  0  0
 77150  1  0  0  0
 77151  1  0  0  0
 77 83  1  0  0  0
 78 83  1  0  0  0
 78152  1  0  0  0
 78153  1  0  0  0
 78154  1  0  0  0
 79 81  1  0  0  0
 79155  1  0  0  0
 79156  1  0  0  0
 80157  1  0  0  0
 80158  1  0  0  0
 81 82  1  0  0  0
 81159  1  0  0  0
 81160  1  0  0  0
 82 85  1  0  0  0
 82161  1  0  0  0
 82162  1  0  0  0
 83163  1  0  0  0
 85164  1  0  0  0
M  ISO  4   1 100  68 101  80 101  85 100
M  END
> <chiral flag>
0

> <version>
0

> <s_m_source_file>
/data/baiqing/PycharmProjects/Reinvent-master-3.2/result/LINK_invent/BTK/process_docking_weight1_custom_sum_contain_oxygen_bond_distance_aromatic_linkinvent_7_9_3/rearranged_h_0040.sdf

> <i_m_source_file_index>
42

> <r_mmod_Potential_Energy-OPLS-2005>
-38.5686874389648

> <r_mmod_Stretch_Energy-OPLS-2005>
78.6127014160156

> <r_mmod_Bend_Energy-OPLS-2005>
172.745101928711

> <r_mmod_Torsional_Energy-OPLS-2005>
227.121200561523

> <r_mmod_Improper_Torsional_Energy-OPLS-2005>
8.18411254882812

> <r_mmod_Van_der_Waal_Energy-OPLS-2005>
174.219161987305

> <r_mmod_Electrostatic_Energy-OPLS-2005>
-517.273254394531

> <r_mmod_Solvation_Energy-OPLS-2005>
-229.515670776367

> <b_mmod_Minimization_Converged-OPLS-2005>
0

> <r_mmod_RMS_Derivative-OPLS-2005>
2.16236209869385

$$$$
42
                    3D
 Structure written by MMmdl.
153161  0  0  1  0            999 V2000
  -30.6052  -14.7728   20.4680 C   0  0  0  0  0  0
  -30.4352  -12.4760   19.4890 C   0  0  0  0  0  0
  -29.5146  -12.5049   18.2495 C   0  0  0  0  0  0
  -28.0449  -12.3107   18.6657 C   0  0  0  0  0  0
  -27.6389  -13.2283   19.8500 C   0  0  2  0  0  0
  -28.6794  -13.1876   20.9900 C   0  0  0  0  0  0
  -25.2504  -13.8192   20.5697 C   0  0  0  0  0  0
  -24.1796  -13.0444   20.9235 C   0  0  0  0  0  0
  -24.6365  -11.6912   20.8755 C   0  0  0  0  0  0
  -23.9040  -10.4301   21.0440 C   0  0  0  0  0  0
  -24.3607   -9.4216   21.9222 C   0  0  0  0  0  0
  -23.6301   -8.2230   22.0769 C   0  0  0  0  0  0
  -22.4274   -8.0262   21.3563 C   0  0  0  0  0  0
  -21.9889   -9.0246   20.4675 C   0  0  0  0  0  0
  -22.7208  -10.2136   20.3095 C   0  0  0  0  0  0
  -21.6834   -6.0743   22.5277 C   0  0  0  0  0  0
  -21.4015   -6.5652   23.8206 C   0  0  0  0  0  0
  -21.3672   -5.6805   24.9166 C   0  0  0  0  0  0
  -21.6037   -4.3070   24.7228 C   0  0  0  0  0  0
  -21.8816   -3.8165   23.4345 C   0  0  0  0  0  0
  -21.9186   -4.6980   22.3408 C   0  0  0  0  0  0
  -22.7826  -13.5245   21.1865 C   0  0  0  0  0  0
  -22.1660   -4.2163   21.0982 F   0  0  0  0  0  0
  -21.5619   -3.4558   25.7750 F   0  0  0  0  0  0
  -29.9793  -13.5453   20.4083 N   0  0  0  0  0  0
  -26.2911  -12.9380   20.3271 N   0  0  0  0  0  0
  -25.9299  -11.6529   20.5757 N   0  0  0  0  0  0
  -22.0412  -12.8234   22.0361 N   0  0  0  0  0  0
  -25.4239  -15.1907   20.4104 N   0  0  0  0  0  0
  -31.7945  -14.8651   20.1540 O   0  0  0  0  0  0
  -21.6629   -6.8882   21.4236 O   0  0  0  0  0  0
  -22.3551  -14.5580   20.6720 O   0  0  0  0  0  0
  -24.6301  -31.8530   23.1987 C   0  0  0  0  0  0
  -25.9119  -32.4747   23.8335 C   0  0  1  0  0  0
  -27.2287  -27.2633   20.1436 C   0  0  0  0  0  0
  -25.5886  -33.8549   24.2240 N   0  0  0  0  0  0
  -23.4298  -30.4737   21.5420 C   0  0  2  0  0  0
  -24.8815  -28.9139   20.1190 C   0  0  0  0  0  0
  -22.7510  -29.4588   22.4930 C   0  0  0  0  0  0
  -18.0285  -28.1385   22.8465 C   0  0  0  0  0  0
  -24.1495  -36.7286   23.2635 C   0  0  0  0  0  0
  -25.9771  -30.7697   21.3801 C   0  0  0  0  0  0
  -26.0538  -29.3906   20.7213 C   0  0  0  0  0  0
  -27.2347  -28.5791   20.7160 C   0  0  0  0  0  0
  -26.0365  -26.8478   19.5176 C   0  0  0  0  0  0
  -24.8763  -27.6502   19.5056 C   0  0  0  0  0  0
  -23.6506  -29.8005   20.1616 C   0  0  0  0  0  0
  -25.4107  -36.3050   24.0324 C   0  0  1  0  0  0
  -20.5893  -28.3688   23.1270 C   0  0  2  0  0  0
  -20.6760  -26.9400   22.5416 C   0  0  0  0  0  0
  -19.5749  -26.6370   21.5205 C   0  0  0  0  0  0
  -18.1923  -26.7925   22.1609 C   0  0  0  0  0  0
  -19.1536  -28.8849   23.2859 C   0  0  0  0  0  0
  -18.9467  -30.1447   23.8886 C   0  0  0  0  0  0
  -17.6457  -30.6579   24.0550 C   0  0  0  0  0  0
  -25.9040  -34.9426   23.5086 C   0  0  0  0  0  0
  -16.5341  -29.9081   23.6319 C   0  0  0  0  0  0
  -16.7271  -28.6497   23.0347 C   0  0  0  0  0  0
  -26.4493  -31.6603   25.0746 C   0  0  0  0  0  0
  -25.3736  -31.3786   26.1508 C   0  0  0  0  0  0
  -27.0339  -30.2997   24.6284 C   0  0  0  0  0  0
  -27.6047  -32.4381   25.7479 C   0  0  0  0  0  0
  -27.5574  -37.1802   24.8448 C   0  0  0  0  0  0
  -21.4217  -29.3037   22.3676 N   0  0  0  0  0  0
  -26.4273  -37.3757   23.9402 N   0  0  0  0  0  0
  -24.6986  -31.0495   22.0969 N   0  0  0  0  0  0
  -23.4210  -28.8148   23.3043 O   0  0  0  0  0  0
  -28.3194  -26.3683   20.1380 O   0  0  0  0  0  0
  -26.5650  -34.8900   22.4679 O   0  0  0  0  0  0
  -23.5442  -32.1333   23.7283 O   0  0  0  0  0  0
  -27.6498  -23.0136   19.2772 C   0  0  0  0  0  0
  -28.3990  -23.6340   20.3177 C   0  0  0  0  0  0
  -27.9968  -21.6771   19.2588 C   0  0  0  0  0  0
  -27.4634  -20.6122   18.3618 C   0  0  0  0  0  0
  -28.2068  -25.0965   20.9298 C   0  0  0  0  0  0
  -29.2258  -18.6266   20.4592 C   0  0  0  0  0  0
  -29.7719  -20.1637   20.5670 C   0  0  0  0  0  0
  -30.2807  -17.3939   20.6520 C   0  0  0  0  0  0
  -29.1809  -22.6539   20.8731 N   0  0  0  0  0  0
  -28.9423  -21.4240   20.2495 N   0  0  0  0  0  0
  -29.8423  -15.9192   20.6825 N   0  0  0  0  0  0
  -31.4763  -12.6049   19.1874 H   0  0  0  0  0  0
  -30.3869  -11.5046   19.9833 H   0  0  0  0  0  0
  -29.8084  -11.7264   17.5449 H   0  0  0  0  0  0
  -29.6271  -13.4561   17.7264 H   0  0  0  0  0  0
  -27.9278  -11.2651   18.9558 H   0  0  0  0  0  0
  -27.3798  -12.4629   17.8146 H   0  0  0  0  0  0
  -27.6271  -14.2457   19.4554 H   0  0  0  0  0  0
  -28.7192  -12.2002   21.4503 H   0  0  0  0  0  0
  -28.4013  -13.8820   21.7844 H   0  0  0  0  0  0
  -25.2755   -9.5704   22.4797 H   0  0  0  0  0  0
  -24.0070   -7.4609   22.7440 H   0  0  0  0  0  0
  -21.0827   -8.8769   19.8970 H   0  0  0  0  0  0
  -22.3663  -10.9691   19.6217 H   0  0  0  0  0  0
  -21.2009   -7.6156   23.9724 H   0  0  0  0  0  0
  -21.1487   -6.0534   25.9064 H   0  0  0  0  0  0
  -22.0580   -2.7627   23.2836 H   0  0  0  0  0  0
  -22.3992  -11.9898   22.4788 H   0  0  0  0  0  0
  -21.1004  -13.1248   22.2472 H   0  0  0  0  0  0
  -24.6616  -15.8487   20.5268 H   0  0  0  0  0  0
  -26.2786  -15.6283   20.0912 H   0  0  0  0  0  0
  -26.7201  -32.5397   23.1088 H   0  0  0  0  0  0
  -24.9955  -33.9666   25.0337 H   0  0  0  0  0  0
  -22.7268  -31.2959   21.3926 H   0  0  0  0  0  0
  -23.3741  -35.9640   23.3278 H   0  0  0  0  0  0
  -24.3578  -36.8922   22.2048 H   0  0  0  0  0  0
  -23.7287  -37.6495   23.6684 H   0  0  0  0  0  0
  -26.1170  -31.5358   20.6163 H   0  0  0  0  0  0
  -26.8521  -30.8158   22.0172 H   0  0  0  0  0  0
  -28.1378  -28.9408   21.1886 H   0  0  0  0  0  0
  -26.0018  -25.8758   19.0457 H   0  0  0  0  0  0
  -23.9795  -27.2786   19.0316 H   0  0  0  0  0  0
  -23.7777  -30.5748   19.4039 H   0  0  0  0  0  0
  -22.7691  -29.2337   19.8551 H   0  0  0  0  0  0
  -25.1293  -36.1877   25.0819 H   0  0  0  0  0  0
  -20.9961  -28.3272   24.1402 H   0  0  0  0  0  0
  -20.5610  -26.2305   23.3627 H   0  0  0  0  0  0
  -21.6641  -26.7397   22.1244 H   0  0  0  0  0  0
  -19.6909  -25.6279   21.1244 H   0  0  0  0  0  0
  -19.6701  -27.3184   20.6734 H   0  0  0  0  0  0
  -17.4192  -26.6658   21.4011 H   0  0  0  0  0  0
  -18.0321  -26.0084   22.9016 H   0  0  0  0  0  0
  -19.7946  -30.7253   24.2273 H   0  0  0  0  0  0
  -17.5017  -31.6264   24.5157 H   0  0  0  0  0  0
  -15.5348  -30.2974   23.7651 H   0  0  0  0  0  0
  -15.8669  -28.0805   22.7083 H   0  0  0  0  0  0
  -24.5891  -30.7127   25.7882 H   0  0  0  0  0  0
  -24.8956  -32.2979   26.4911 H   0  0  0  0  0  0
  -25.8088  -30.9001   27.0296 H   0  0  0  0  0  0
  -26.2928  -29.6736   24.1314 H   0  0  0  0  0  0
  -27.3975  -29.7290   25.4836 H   0  0  0  0  0  0
  -27.8826  -30.4202   23.9554 H   0  0  0  0  0  0
  -27.2642  -33.3706   26.1989 H   0  0  0  0  0  0
  -28.3879  -32.6916   25.0320 H   0  0  0  0  0  0
  -28.0724  -31.8578   26.5442 H   0  0  0  0  0  0
  -28.2561  -38.0119   24.7464 H   0  0  0  0  0  0
  -28.1101  -36.2644   24.6296 H   0  0  0  0  0  0
  -27.2301  -37.1465   25.8854 H   0  0  0  0  0  0
  -20.9422  -29.8743   21.6863 H   0  0  0  0  0  0
  -26.0142  -38.2820   24.1438 H   0  0  0  0  0  0
  -26.9058  -23.4886   18.6526 H   0  0  0  0  0  0
  -26.9028  -19.8732   18.9344 H   0  0  0  0  0  0
  -28.2698  -20.1094   17.8277 H   0  0  0  0  0  0
  -26.7849  -21.0347   17.6178 H   0  0  0  0  0  0
  -28.9125  -25.2077   21.7518 H   0  0  0  0  0  0
  -27.2360  -25.1043   21.4268 H   0  0  0  0  0  0
  -28.7539  -18.4893   19.4879 H   0  0  0  0  0  0
  -28.4217  -18.5091   21.1873 H   0  0  0  0  0  0
  -30.6544  -20.2240   19.9306 H   0  0  0  0  0  0
  -30.1501  -20.2916   21.5825 H   0  0  0  0  0  0
  -31.0334  -17.4872   19.8667 H   0  0  0  0  0  0
  -30.8214  -17.5755   21.5812 H   0  0  0  0  0  0
  -28.8750  -15.7486   20.9123 H   0  0  0  0  0  0
  1 25  1  0  0  0
  1 30  2  0  0  0
  1 81  1  0  0  0
  2  3  1  0  0  0
  2 25  1  0  0  0
  2 82  1  0  0  0
  2 83  1  0  0  0
  3  4  1  0  0  0
  3 84  1  0  0  0
  3 85  1  0  0  0
  4  5  1  0  0  0
  4 86  1  0  0  0
  4 87  1  0  0  0
  5  6  1  0  0  0
  5 26  1  0  0  0
  5 88  1  0  0  0
  6 25  1  0  0  0
  6 89  1  0  0  0
  6 90  1  0  0  0
  7  8  2  0  0  0
  7 26  1  0  0  0
  7 29  1  0  0  0
  8  9  1  0  0  0
  8 22  1  0  0  0
  9 10  1  0  0  0
  9 27  2  0  0  0
 10 11  2  0  0  0
 10 15  1  0  0  0
 11 12  1  0  0  0
 11 91  1  0  0  0
 12 13  2  0  0  0
 12 92  1  0  0  0
 13 14  1  0  0  0
 13 31  1  0  0  0
 14 15  2  0  0  0
 14 93  1  0  0  0
 15 94  1  0  0  0
 16 17  2  0  0  0
 16 21  1  0  0  0
 16 31  1  0  0  0
 17 18  1  0  0  0
 17 95  1  0  0  0
 18 19  2  0  0  0
 18 96  1  0  0  0
 19 20  1  0  0  0
 19 24  1  0  0  0
 20 21  2  0  0  0
 20 97  1  0  0  0
 21 23  1  0  0  0
 22 28  1  0  0  0
 22 32  2  0  0  0
 26 27  1  0  0  0
 28 98  1  0  0  0
 28 99  1  0  0  0
 29100  1  0  0  0
 29101  1  0  0  0
 33 34  1  0  0  0
 33 66  1  0  0  0
 33 70  2  0  0  0
 34 36  1  0  0  0
 34 59  1  0  0  0
 34102  1  0  0  0
 35 44  2  0  0  0
 35 45  1  0  0  0
 35 68  1  0  0  0
 36 56  1  0  0  0
 36103  1  0  0  0
 37 39  1  0  0  0
 37 47  1  0  0  0
 37 66  1  0  0  0
 37104  1  0  0  0
 38 43  2  0  0  0
 38 46  1  0  0  0
 38 47  1  0  0  0
 39 64  1  0  0  0
 39 67  2  0  0  0
 40 52  1  0  0  0
 40 53  2  0  0  0
 40 58  1  0  0  0
 41105  1  0  0  0
 41106  1  0  0  0
 41107  1  0  0  0
 41 48  1  0  0  0
 42 43  1  0  0  0
 42 66  1  0  0  0
 42108  1  0  0  0
 42109  1  0  0  0
 43 44  1  0  0  0
 44110  1  0  0  0
 45 46  2  0  0  0
 45111  1  0  0  0
 46112  1  0  0  0
 47113  1  0  0  0
 47114  1  0  0  0
 48 56  1  0  0  0
 48 65  1  0  0  0
 48115  1  0  0  0
 49 50  1  0  0  0
 49 53  1  0  0  0
 49 64  1  0  0  0
 49116  1  0  0  0
 50 51  1  0  0  0
 50117  1  0  0  0
 50118  1  0  0  0
 51 52  1  0  0  0
 51119  1  0  0  0
 51120  1  0  0  0
 52121  1  0  0  0
 52122  1  0  0  0
 53 54  1  0  0  0
 54 55  2  0  0  0
 54123  1  0  0  0
 55 57  1  0  0  0
 55124  1  0  0  0
 56 69  2  0  0  0
 57 58  2  0  0  0
 57125  1  0  0  0
 58126  1  0  0  0
 59 60  1  0  0  0
 59 61  1  0  0  0
 59 62  1  0  0  0
 60127  1  0  0  0
 60128  1  0  0  0
 60129  1  0  0  0
 61130  1  0  0  0
 61131  1  0  0  0
 61132  1  0  0  0
 62133  1  0  0  0
 62134  1  0  0  0
 62135  1  0  0  0
 63 65  1  0  0  0
 63136  1  0  0  0
 63137  1  0  0  0
 63138  1  0  0  0
 64139  1  0  0  0
 65140  1  0  0  0
 68 75  1  0  0  0
 71 72  1  0  0  0
 71 73  2  0  0  0
 71141  1  0  0  0
 72 75  1  0  0  0
 72 79  2  0  0  0
 73 74  1  0  0  0
 73 80  1  0  0  0
 74142  1  0  0  0
 74143  1  0  0  0
 74144  1  0  0  0
 75145  1  0  0  0
 75146  1  0  0  0
 76 77  1  0  0  0
 76 78  1  0  0  0
 76147  1  0  0  0
 76148  1  0  0  0
 77 80  1  0  0  0
 77149  1  0  0  0
 77150  1  0  0  0
 78 81  1  0  0  0
 78151  1  0  0  0
 78152  1  0  0  0
 79 80  1  0  0  0
 81153  1  0  0  0
M  ISO  4   1 100  68 101  75 101  81 100
M  END
> <chiral flag>
0

> <version>
0

> <s_m_source_file>
/data/baiqing/PycharmProjects/Reinvent-master-3.2/result/LINK_invent/BTK/process_docking_weight1_custom_sum_contain_oxygen_bond_distance_aromatic_linkinvent_7_9_3/rearranged_h_0040.sdf

> <i_m_source_file_index>
43

> <r_mmod_Potential_Energy-OPLS-2005>
168.350189208984

> <r_mmod_Stretch_Energy-OPLS-2005>
131.811614990234

> <r_mmod_Bend_Energy-OPLS-2005>
178.528930664062

> <r_mmod_Torsional_Energy-OPLS-2005>
244.467193603516

> <r_mmod_Improper_Torsional_Energy-OPLS-2005>
5.78309106826782

> <r_mmod_Van_der_Waal_Energy-OPLS-2005>
109.51530456543

> <r_mmod_Electrostatic_Energy-OPLS-2005>
-367.596740722656

> <r_mmod_Solvation_Energy-OPLS-2005>
-226.130325317383

> <b_mmod_Minimization_Converged-OPLS-2005>
0

> <r_mmod_RMS_Derivative-OPLS-2005>
3.32152199745178

$$$$
43
                    3D
 Structure written by MMmdl.
167175  0  0  1  0            999 V2000
  -30.7504  -14.4024   20.5703 C   0  0  0  0  0  0
  -30.3873  -12.2602   19.4117 C   0  0  0  0  0  0
  -29.4807  -12.5227   18.1948 C   0  0  0  0  0  0
  -27.9977  -12.4076   18.5967 C   0  0  0  0  0  0
  -27.6654  -13.2113   19.8855 C   0  0  2  0  0  0
  -28.7079  -12.9668   21.0023 C   0  0  0  0  0  0
  -25.2612  -13.8175   20.5707 C   0  0  0  0  0  0
  -24.1860  -13.0445   20.9188 C   0  0  0  0  0  0
  -24.6387  -11.6908   20.8714 C   0  0  0  0  0  0
  -23.9038  -10.4293   21.0365 C   0  0  0  0  0  0
  -24.3610   -9.4216   21.9118 C   0  0  0  0  0  0
  -23.6326   -8.2232   22.0692 C   0  0  0  0  0  0
  -22.4317   -8.0231   21.3501 C   0  0  0  0  0  0
  -21.9920   -9.0192   20.4596 C   0  0  0  0  0  0
  -22.7209  -10.2108   20.2998 C   0  0  0  0  0  0
  -21.6865   -6.0705   22.5235 C   0  0  0  0  0  0
  -21.4009   -6.5607   23.8161 C   0  0  0  0  0  0
  -21.3688   -5.6769   24.9132 C   0  0  0  0  0  0
  -21.6076   -4.3034   24.7185 C   0  0  0  0  0  0
  -21.8814   -3.8114   23.4302 C   0  0  0  0  0  0
  -21.9184   -4.6929   22.3362 C   0  0  0  0  0  0
  -22.7865  -13.5238   21.1882 C   0  0  0  0  0  0
  -22.1638   -4.2111   21.0944 F   0  0  0  0  0  0
  -21.5685   -3.4512   25.7707 F   0  0  0  0  0  0
  -30.0432  -13.2477   20.4456 N   0  0  0  0  0  0
  -26.3061  -12.9354   20.3445 N   0  0  0  0  0  0
  -25.9333  -11.6496   20.5738 N   0  0  0  0  0  0
  -22.0556  -12.8191   22.0434 N   0  0  0  0  0  0
  -25.4385  -15.1892   20.4135 N   0  0  0  0  0  0
  -31.8329  -14.5857   20.0056 O   0  0  0  0  0  0
  -21.6664   -6.8857   21.4207 O   0  0  0  0  0  0
  -22.3498  -14.5523   20.6733 O   0  0  0  0  0  0
  -24.6183  -31.8655   23.2099 C   0  0  0  0  0  0
  -25.9115  -32.4815   23.8390 C   0  0  1  0  0  0
  -27.2305  -27.4298   20.0903 C   0  0  0  0  0  0
  -25.6000  -33.8608   24.2314 N   0  0  0  0  0  0
  -23.4074  -30.4913   21.5491 C   0  0  2  0  0  0
  -24.8475  -28.9545   20.1110 C   0  0  0  0  0  0
  -22.7442  -29.4652   22.4996 C   0  0  0  0  0  0
  -18.0297  -28.1430   22.8465 C   0  0  0  0  0  0
  -24.1498  -36.7290   23.2625 C   0  0  0  0  0  0
  -25.9365  -30.8236   21.3672 C   0  0  0  0  0  0
  -26.0064  -29.4585   20.7136 C   0  0  0  0  0  0
  -27.2025  -28.7058   20.6967 C   0  0  0  0  0  0
  -26.0528  -26.9381   19.4853 C   0  0  0  0  0  0
  -24.8653  -27.6939   19.4892 C   0  0  0  0  0  0
  -23.6137  -29.8283   20.1622 C   0  0  0  0  0  0
  -25.4115  -36.3089   24.0330 C   0  0  1  0  0  0
  -20.5885  -28.3696   23.1341 C   0  0  2  0  0  0
  -20.6823  -26.9458   22.5439 C   0  0  0  0  0  0
  -19.5797  -26.6427   21.5247 C   0  0  0  0  0  0
  -18.1954  -26.7974   22.1615 C   0  0  0  0  0  0
  -19.1535  -28.8885   23.2889 C   0  0  0  0  0  0
  -18.9451  -30.1508   23.8894 C   0  0  0  0  0  0
  -17.6448  -30.6608   24.0584 C   0  0  0  0  0  0
  -25.9067  -34.9468   23.5102 C   0  0  0  0  0  0
  -16.5338  -29.9111   23.6362 C   0  0  0  0  0  0
  -16.7286  -28.6557   23.0332 C   0  0  0  0  0  0
  -26.4529  -31.6589   25.0715 C   0  0  0  0  0  0
  -25.3816  -31.3737   26.1497 C   0  0  0  0  0  0
  -27.0341  -30.3005   24.6131 C   0  0  0  0  0  0
  -27.6096  -32.4316   25.7483 C   0  0  0  0  0  0
  -27.5589  -37.1799   24.8449 C   0  0  0  0  0  0
  -21.4172  -29.3045   22.3718 N   0  0  0  0  0  0
  -26.4276  -37.3790   23.9423 N   0  0  0  0  0  0
  -24.6712  -31.0791   22.0996 N   0  0  0  0  0  0
  -23.4195  -28.8238   23.3082 O   0  0  0  0  0  0
  -28.4023  -26.7046   20.0488 O   0  0  0  0  0  0
  -26.5570  -34.8918   22.4647 O   0  0  0  0  0  0
  -23.5397  -32.1412   23.7518 O   0  0  0  0  0  0
  -33.0457  -21.2831   20.7290 C   0  0  0  0  0  0
  -33.9930  -22.2071   21.1757 C   0  0  0  0  0  0
  -31.6644  -21.5767   20.8174 C   0  0  0  0  0  0
  -31.3118  -22.8869   21.2695 C   0  0  0  0  0  0
  -32.3524  -23.7216   21.7805 C   0  0  0  0  0  0
  -32.2090  -24.8944   24.0486 C   0  0  0  0  0  0
  -30.6370  -20.4638   20.5044 C   0  0  0  0  0  0
  -29.8639  -23.3994   21.2522 C   0  0  0  0  0  0
  -32.1195  -25.0439   22.5170 C   0  0  0  0  0  0
  -31.2676  -19.0373   20.4126 C   0  0  0  0  0  0
  -29.6005  -24.5550   20.2427 C   0  0  0  0  0  0
  -30.3428  -17.7895   20.3681 C   0  0  0  0  0  0
  -30.7599  -16.7335   21.4368 C   0  0  0  0  0  0
  -28.3308  -25.3733   20.5774 C   0  0  0  0  0  0
  -33.6556  -23.3852   21.7204 N   0  0  0  0  0  0
  -30.1731  -15.3960   21.2619 N   0  0  0  0  0  0
  -31.4387  -12.2993   19.1270 H   0  0  0  0  0  0
  -30.2063  -11.2495   19.7844 H   0  0  0  0  0  0
  -29.7110  -11.8127   17.4003 H   0  0  0  0  0  0
  -29.6744  -13.5195   17.7917 H   0  0  0  0  0  0
  -27.7828  -11.3520   18.7530 H   0  0  0  0  0  0
  -27.3497  -12.7238   17.7755 H   0  0  0  0  0  0
  -27.7213  -14.2691   19.6286 H   0  0  0  0  0  0
  -28.6651  -11.9319   21.3368 H   0  0  0  0  0  0
  -28.4765  -13.5591   21.8882 H   0  0  0  0  0  0
  -25.2759   -9.5725   22.4674 H   0  0  0  0  0  0
  -24.0033   -7.4653   22.7447 H   0  0  0  0  0  0
  -21.0801   -8.8678   19.8973 H   0  0  0  0  0  0
  -22.3579  -10.9621   19.6104 H   0  0  0  0  0  0
  -21.1967   -7.6119   23.9633 H   0  0  0  0  0  0
  -21.1570   -6.0522   25.9051 H   0  0  0  0  0  0
  -22.0601   -2.7576   23.2791 H   0  0  0  0  0  0
  -22.4196  -11.9843   22.4819 H   0  0  0  0  0  0
  -21.1129  -13.1125   22.2657 H   0  0  0  0  0  0
  -24.6951  -15.8665   20.5385 H   0  0  0  0  0  0
  -26.3038  -15.6141   20.1021 H   0  0  0  0  0  0
  -26.7173  -32.5475   23.1128 H   0  0  0  0  0  0
  -25.0343  -33.9764   25.0600 H   0  0  0  0  0  0
  -22.6940  -31.3083   21.4190 H   0  0  0  0  0  0
  -23.3761  -35.9616   23.3254 H   0  0  0  0  0  0
  -24.3614  -36.8935   22.2047 H   0  0  0  0  0  0
  -23.7250  -37.6486   23.6658 H   0  0  0  0  0  0
  -26.0712  -31.5854   20.5985 H   0  0  0  0  0  0
  -26.8174  -30.8596   21.9968 H   0  0  0  0  0  0
  -28.0993  -29.0985   21.1518 H   0  0  0  0  0  0
  -26.0523  -25.9840   18.9797 H   0  0  0  0  0  0
  -23.9801  -27.3090   18.9991 H   0  0  0  0  0  0
  -23.7334  -30.6069   19.4061 H   0  0  0  0  0  0
  -22.7313  -29.2597   19.8641 H   0  0  0  0  0  0
  -25.1303  -36.1917   25.0812 H   0  0  0  0  0  0
  -20.9960  -28.3291   24.1461 H   0  0  0  0  0  0
  -20.5860  -26.2297   23.3609 H   0  0  0  0  0  0
  -21.6688  -26.7612   22.1160 H   0  0  0  0  0  0
  -19.6981  -25.6352   21.1272 H   0  0  0  0  0  0
  -19.6757  -27.3250   20.6781 H   0  0  0  0  0  0
  -17.4274  -26.6740   21.3964 H   0  0  0  0  0  0
  -18.0299  -26.0132   22.9012 H   0  0  0  0  0  0
  -19.7930  -30.7357   24.2192 H   0  0  0  0  0  0
  -17.5009  -31.6282   24.5247 H   0  0  0  0  0  0
  -15.5349  -30.3017   23.7730 H   0  0  0  0  0  0
  -15.8670  -28.0936   22.6965 H   0  0  0  0  0  0
  -24.5970  -30.7080   25.7900 H   0  0  0  0  0  0
  -24.9045  -32.2909   26.4942 H   0  0  0  0  0  0
  -25.8210  -30.8946   27.0251 H   0  0  0  0  0  0
  -26.2857  -29.6754   24.1233 H   0  0  0  0  0  0
  -27.4132  -29.7279   25.4606 H   0  0  0  0  0  0
  -27.8710  -30.4290   23.9255 H   0  0  0  0  0  0
  -27.2701  -33.3613   26.2050 H   0  0  0  0  0  0
  -28.3909  -32.6868   25.0319 H   0  0  0  0  0  0
  -28.0747  -31.8449   26.5411 H   0  0  0  0  0  0
  -28.2581  -38.0123   24.7569 H   0  0  0  0  0  0
  -28.1110  -36.2675   24.6169 H   0  0  0  0  0  0
  -27.2335  -37.1338   25.8852 H   0  0  0  0  0  0
  -20.9367  -29.8637   21.6827 H   0  0  0  0  0  0
  -26.0143  -38.2844   24.1469 H   0  0  0  0  0  0
  -33.4213  -20.3452   20.3556 H   0  0  0  0  0  0
  -35.0448  -21.9658   21.1373 H   0  0  0  0  0  0
  -32.0975  -25.8584   24.5481 H   0  0  0  0  0  0
  -33.1713  -24.4806   24.3527 H   0  0  0  0  0  0
  -31.4337  -24.2340   24.4349 H   0  0  0  0  0  0
  -30.0728  -20.7117   19.6049 H   0  0  0  0  0  0
  -29.9211  -20.4414   21.3262 H   0  0  0  0  0  0
  -29.6349  -23.7400   22.2617 H   0  0  0  0  0  0
  -29.1556  -22.5941   21.0670 H   0  0  0  0  0  0
  -31.1607  -25.4881   22.2678 H   0  0  0  0  0  0
  -32.8680  -25.7663   22.1824 H   0  0  0  0  0  0
  -31.9105  -18.9290   21.2844 H   0  0  0  0  0  0
  -31.9282  -19.0015   19.5453 H   0  0  0  0  0  0
  -29.5425  -24.1687   19.2219 H   0  0  0  0  0  0
  -30.4448  -25.2446   20.2274 H   0  0  0  0  0  0
  -30.4255  -17.3448   19.3722 H   0  0  0  0  0  0
  -29.2953  -18.0731   20.4805 H   0  0  0  0  0  0
  -30.5053  -17.1045   22.4287 H   0  0  0  0  0  0
  -31.8481  -16.6387   21.4393 H   0  0  0  0  0  0
  -28.2268  -25.4689   21.6599 H   0  0  0  0  0  0
  -27.4580  -24.8209   20.2318 H   0  0  0  0  0  0
  -29.3091  -15.1856   21.7438 H   0  0  0  0  0  0
  1 25  1  0  0  0
  1 30  2  0  0  0
  1 86  1  0  0  0
  2  3  1  0  0  0
  2 25  1  0  0  0
  2 87  1  0  0  0
  2 88  1  0  0  0
  3  4  1  0  0  0
  3 89  1  0  0  0
  3 90  1  0  0  0
  4  5  1  0  0  0
  4 91  1  0  0  0
  4 92  1  0  0  0
  5  6  1  0  0  0
  5 26  1  0  0  0
  5 93  1  0  0  0
  6 25  1  0  0  0
  6 94  1  0  0  0
  6 95  1  0  0  0
  7  8  2  0  0  0
  7 26  1  0  0  0
  7 29  1  0  0  0
  8  9  1  0  0  0
  8 22  1  0  0  0
  9 10  1  0  0  0
  9 27  2  0  0  0
 10 11  2  0  0  0
 10 15  1  0  0  0
 11 12  1  0  0  0
 11 96  1  0  0  0
 12 13  2  0  0  0
 12 97  1  0  0  0
 13 14  1  0  0  0
 13 31  1  0  0  0
 14 15  2  0  0  0
 14 98  1  0  0  0
 15 99  1  0  0  0
 16 17  2  0  0  0
 16 21  1  0  0  0
 16 31  1  0  0  0
 17 18  1  0  0  0
 17100  1  0  0  0
 18 19  2  0  0  0
 18101  1  0  0  0
 19 20  1  0  0  0
 19 24  1  0  0  0
 20 21  2  0  0  0
 20102  1  0  0  0
 21 23  1  0  0  0
 22 28  1  0  0  0
 22 32  2  0  0  0
 26 27  1  0  0  0
 28103  1  0  0  0
 28104  1  0  0  0
 29105  1  0  0  0
 29106  1  0  0  0
 33 34  1  0  0  0
 33 66  1  0  0  0
 33 70  2  0  0  0
 34 36  1  0  0  0
 34 59  1  0  0  0
 34107  1  0  0  0
 35 44  2  0  0  0
 35 45  1  0  0  0
 35 68  1  0  0  0
 36 56  1  0  0  0
 36108  1  0  0  0
 37 39  1  0  0  0
 37 47  1  0  0  0
 37 66  1  0  0  0
 37109  1  0  0  0
 38 43  2  0  0  0
 38 46  1  0  0  0
 38 47  1  0  0  0
 39 64  1  0  0  0
 39 67  2  0  0  0
 40 52  1  0  0  0
 40 53  2  0  0  0
 40 58  1  0  0  0
 41110  1  0  0  0
 41111  1  0  0  0
 41112  1  0  0  0
 41 48  1  0  0  0
 42 43  1  0  0  0
 42 66  1  0  0  0
 42113  1  0  0  0
 42114  1  0  0  0
 43 44  1  0  0  0
 44115  1  0  0  0
 45 46  2  0  0  0
 45116  1  0  0  0
 46117  1  0  0  0
 47118  1  0  0  0
 47119  1  0  0  0
 48 56  1  0  0  0
 48 65  1  0  0  0
 48120  1  0  0  0
 49 50  1  0  0  0
 49 53  1  0  0  0
 49 64  1  0  0  0
 49121  1  0  0  0
 50 51  1  0  0  0
 50122  1  0  0  0
 50123  1  0  0  0
 51 52  1  0  0  0
 51124  1  0  0  0
 51125  1  0  0  0
 52126  1  0  0  0
 52127  1  0  0  0
 53 54  1  0  0  0
 54 55  2  0  0  0
 54128  1  0  0  0
 55 57  1  0  0  0
 55129  1  0  0  0
 56 69  2  0  0  0
 57 58  2  0  0  0
 57130  1  0  0  0
 58131  1  0  0  0
 59 60  1  0  0  0
 59 61  1  0  0  0
 59 62  1  0  0  0
 60132  1  0  0  0
 60133  1  0  0  0
 60134  1  0  0  0
 61135  1  0  0  0
 61136  1  0  0  0
 61137  1  0  0  0
 62138  1  0  0  0
 62139  1  0  0  0
 62140  1  0  0  0
 63 65  1  0  0  0
 63141  1  0  0  0
 63142  1  0  0  0
 63143  1  0  0  0
 64144  1  0  0  0
 65145  1  0  0  0
 68 84  1  0  0  0
 71 72  2  0  0  0
 71 73  1  0  0  0
 71146  1  0  0  0
 72 85  1  0  0  0
 72147  1  0  0  0
 73 74  2  0  0  0
 73 77  1  0  0  0
 74 75  1  0  0  0
 74 78  1  0  0  0
 75 79  1  0  0  0
 75 85  2  0  0  0
 76 79  1  0  0  0
 76148  1  0  0  0
 76149  1  0  0  0
 76150  1  0  0  0
 77 80  1  0  0  0
 77151  1  0  0  0
 77152  1  0  0  0
 78 81  1  0  0  0
 78153  1  0  0  0
 78154  1  0  0  0
 79155  1  0  0  0
 79156  1  0  0  0
 80 82  1  0  0  0
 80157  1  0  0  0
 80158  1  0  0  0
 81 84  1  0  0  0
 81159  1  0  0  0
 81160  1  0  0  0
 82 83  1  0  0  0
 82161  1  0  0  0
 82162  1  0  0  0
 83 86  1  0  0  0
 83163  1  0  0  0
 83164  1  0  0  0
 84165  1  0  0  0
 84166  1  0  0  0
 86167  1  0  0  0
M  ISO  4   1 100  68 101  84 101  86 100
M  END
> <chiral flag>
0

> <version>
0

> <s_m_source_file>
/data/baiqing/PycharmProjects/Reinvent-master-3.2/result/LINK_invent/BTK/process_docking_weight1_custom_sum_contain_oxygen_bond_distance_aromatic_linkinvent_7_9_3/rearranged_h_0040.sdf

> <i_m_source_file_index>
44

> <r_mmod_Potential_Energy-OPLS-2005>
-197.032028198242

> <r_mmod_Stretch_Energy-OPLS-2005>
43.018310546875

> <r_mmod_Bend_Energy-OPLS-2005>
104.989456176758

> <r_mmod_Torsional_Energy-OPLS-2005>
224.845260620117

> <r_mmod_Improper_Torsional_Energy-OPLS-2005>
2.7973849773407

> <r_mmod_Van_der_Waal_Energy-OPLS-2005>
166.925964355469

> <r_mmod_Electrostatic_Energy-OPLS-2005>
-526.92724609375

> <r_mmod_Solvation_Energy-OPLS-2005>
-223.827728271484

> <b_mmod_Minimization_Converged-OPLS-2005>
0

> <r_mmod_RMS_Derivative-OPLS-2005>
6.31861019134521

$$$$
44
                    3D
 Structure written by MMmdl.
171179  0  0  1  0            999 V2000
  -29.7302  -15.3471   20.6737 C   0  0  0  0  0  0
  -30.3698  -12.9638   19.6417 C   0  0  0  0  0  0
  -29.5351  -12.6619   18.3584 C   0  0  0  0  0  0
  -28.0744  -12.3038   18.7040 C   0  0  0  0  0  0
  -27.5499  -13.2112   19.8418 C   0  0  2  0  0  0
  -28.4813  -13.2193   21.0492 C   0  0  0  0  0  0
  -25.2100  -13.8085   20.5582 C   0  0  0  0  0  0
  -24.1482  -13.0350   20.9231 C   0  0  0  0  0  0
  -24.6075  -11.6820   20.8738 C   0  0  0  0  0  0
  -23.8867  -10.4226   21.0460 C   0  0  0  0  0  0
  -24.3510   -9.4182   21.9224 C   0  0  0  0  0  0
  -23.6240   -8.2195   22.0775 C   0  0  0  0  0  0
  -22.4232   -8.0218   21.3550 C   0  0  0  0  0  0
  -21.9809   -9.0177   20.4669 C   0  0  0  0  0  0
  -22.7077  -10.2073   20.3096 C   0  0  0  0  0  0
  -21.6832   -6.0700   22.5287 C   0  0  0  0  0  0
  -21.3989   -6.5621   23.8211 C   0  0  0  0  0  0
  -21.3651   -5.6787   24.9180 C   0  0  0  0  0  0
  -21.6046   -4.3050   24.7236 C   0  0  0  0  0  0
  -21.8821   -3.8129   23.4361 C   0  0  0  0  0  0
  -21.9188   -4.6935   22.3413 C   0  0  0  0  0  0
  -22.7584  -13.5201   21.1936 C   0  0  0  0  0  0
  -22.1664   -4.2120   21.0992 F   0  0  0  0  0  0
  -21.5630   -3.4544   25.7753 F   0  0  0  0  0  0
  -29.6159  -13.9351   20.5489 N   0  0  0  0  0  0
  -26.2236  -12.9131   20.2845 N   0  0  0  0  0  0
  -25.8887  -11.6327   20.5501 N   0  0  0  0  0  0
  -22.0252  -12.8224   22.0518 N   0  0  0  0  0  0
  -25.3940  -15.1818   20.4076 N   0  0  0  0  0  0
  -30.9067  -15.6611   20.3508 O   0  0  0  0  0  0
  -21.6613   -6.8817   21.4243 O   0  0  0  0  0  0
  -22.3333  -14.5529   20.6784 O   0  0  0  0  0  0
  -24.6800  -31.9643   23.2079 C   0  0  0  0  0  0
  -25.9658  -32.5206   23.8629 C   0  0  1  0  0  0
  -26.8931  -27.3820   20.3073 C   0  0  0  0  0  0
  -25.6515  -33.8926   24.2653 N   0  0  0  0  0  0
  -23.4905  -30.6865   21.5085 C   0  0  2  0  0  0
  -24.8358  -29.1400   19.9963 C   0  0  0  0  0  0
  -22.9512  -29.6874   22.5062 C   0  0  0  0  0  0
  -18.3687  -27.3387   23.3649 C   0  0  0  0  0  0
  -24.1528  -36.7361   23.2585 C   0  0  0  0  0  0
  -25.9925  -30.9190   21.3530 C   0  0  0  0  0  0
  -25.9894  -29.5623   20.6732 C   0  0  0  0  0  0
  -27.0762  -28.6837   20.8038 C   0  0  0  0  0  0
  -25.9076  -27.0600   19.3844 C   0  0  0  0  0  0
  -24.8119  -27.9185   19.2930 C   0  0  0  0  0  0
  -23.6387  -30.0445   20.0990 C   0  0  0  0  0  0
  -25.4151  -36.3264   24.0328 C   0  0  1  0  0  0
  -21.2246  -28.2661   22.7522 C   0  0  2  0  0  0
  -21.4931  -27.1763   20.8823 C   0  0  0  0  0  0
  -19.9146  -25.7501   20.6268 C   0  0  0  0  0  0
  -18.4387  -25.9062   22.1340 C   0  0  0  0  0  0
  -19.5939  -28.3352   23.6485 C   0  0  0  0  0  0
  -19.2178  -29.6919   24.0366 C   0  0  0  0  0  0
  -17.9013  -30.2244   24.0632 C   0  0  0  0  0  0
  -25.9179  -34.9681   23.5160 C   0  0  0  0  0  0
  -16.8304  -29.4022   23.6946 C   0  0  0  0  0  0
  -17.0748  -28.0323   23.3716 C   0  0  0  0  0  0
  -26.4648  -31.6685   25.0897 C   0  0  0  0  0  0
  -25.3698  -31.3825   26.1427 C   0  0  0  0  0  0
  -27.0369  -30.3083   24.6242 C   0  0  0  0  0  0
  -27.6232  -32.4173   25.7873 C   0  0  0  0  0  0
  -27.5615  -37.1909   24.8469 C   0  0  0  0  0  0
  -21.6594  -29.5525   22.4441 N   0  0  0  0  0  0
  -26.4320  -37.3955   23.9433 N   0  0  0  0  0  0
  -24.7406  -31.2343   22.0601 N   0  0  0  0  0  0
  -23.6771  -29.0632   23.2922 O   0  0  0  0  0  0
  -27.0012  -26.3565   21.1706 O   0  0  0  0  0  0
  -26.5483  -34.9072   22.4568 O   0  0  0  0  0  0
  -23.5960  -32.2314   23.7537 O   0  0  0  0  0  0
  -23.2673  -24.2412   22.6909 C   0  0  0  0  0  0
  -20.8759  -25.9392   22.7000 C   0  0  0  0  0  0
  -22.5560  -25.5673   22.5957 C   0  0  0  0  0  0
  -22.8025  -22.9091   22.5438 C   0  0  0  0  0  0
  -20.6795  -24.4467   23.0606 C   0  0  0  0  0  0
  -19.4133  -27.8544   21.3184 C   0  0  0  0  0  0
  -18.3879  -28.1289   20.3980 C   0  0  0  0  0  0
  -19.7412  -24.1252   24.2111 C   0  0  0  0  0  0
  -17.9571  -29.5774   20.1119 C   0  0  0  0  0  0
  -17.5209  -27.2286   19.5037 C   0  0  0  0  0  0
  -23.9827  -26.2858   21.9067 C   0  0  0  0  0  0
  -23.7231  -21.3089   22.3802 C   0  0  0  0  0  0
  -25.3729  -20.4985   21.7983 C   0  0  0  0  0  0
  -26.1967  -18.7524   21.6885 C   0  0  0  0  0  0
  -27.8486  -17.8951   21.1716 C   0  0  0  0  0  0
  -25.7127  -26.0605   22.0749 C   0  0  0  0  0  0
  -21.4236  -23.1806   22.8162 N   0  0  0  0  0  0
  -28.5200  -16.2633   21.0392 N   0  0  0  0  0  0
  -31.3413  -13.3758   19.3594 H   0  0  0  0  0  0
  -30.5966  -12.0369   20.1729 H   0  0  0  0  0  0
  -29.9952  -11.8656   17.7726 H   0  0  0  0  0  0
  -29.5464  -13.5499   17.7243 H   0  0  0  0  0  0
  -28.0328  -11.2589   19.0157 H   0  0  0  0  0  0
  -27.4417  -12.3905   17.8198 H   0  0  0  0  0  0
  -27.4997  -14.2090   19.4049 H   0  0  0  0  0  0
  -28.7218  -12.2126   21.3919 H   0  0  0  0  0  0
  -28.0440  -13.7372   21.9052 H   0  0  0  0  0  0
  -25.2652   -9.5696   22.4788 H   0  0  0  0  0  0
  -23.9961   -7.4589   22.7484 H   0  0  0  0  0  0
  -21.0745   -8.8688   19.8985 H   0  0  0  0  0  0
  -22.3532  -10.9627   19.6225 H   0  0  0  0  0  0
  -21.1967   -7.6128   23.9692 H   0  0  0  0  0  0
  -21.1476   -6.0529   25.9076 H   0  0  0  0  0  0
  -22.0608   -2.7593   23.2877 H   0  0  0  0  0  0
  -22.3851  -11.9876   22.4898 H   0  0  0  0  0  0
  -21.0903  -13.1309   22.2759 H   0  0  0  0  0  0
  -24.6139  -15.8187   20.5165 H   0  0  0  0  0  0
  -26.1674  -15.6003   19.9073 H   0  0  0  0  0  0
  -26.7880  -32.5854   23.1548 H   0  0  0  0  0  0
  -25.0992  -34.0099   25.1018 H   0  0  0  0  0  0
  -22.7730  -31.5042   21.4155 H   0  0  0  0  0  0
  -23.3868  -35.9620   23.3250 H   0  0  0  0  0  0
  -24.3630  -36.8958   22.1999 H   0  0  0  0  0  0
  -23.7203  -37.6538   23.6569 H   0  0  0  0  0  0
  -26.1933  -31.7112   20.6279 H   0  0  0  0  0  0
  -26.8508  -30.8940   22.0122 H   0  0  0  0  0  0
  -27.8808  -28.9244   21.4848 H   0  0  0  0  0  0
  -25.7995  -26.0363   19.0543 H   0  0  0  0  0  0
  -23.9359  -27.6036   18.7427 H   0  0  0  0  0  0
  -23.7363  -30.8364   19.3543 H   0  0  0  0  0  0
  -22.7380  -29.5184   19.8079 H   0  0  0  0  0  0
  -25.1310  -36.2124   25.0816 H   0  0  0  0  0  0
  -21.8094  -27.8721   23.5938 H   0  0  0  0  0  0
  -22.3910  -26.8946   20.3738 H   0  0  0  0  0  0
  -21.3383  -27.9104   20.0867 H   0  0  0  0  0  0
  -20.3064  -24.7317   20.5815 H   0  0  0  0  0  0
  -19.5765  -25.8338   19.6022 H   0  0  0  0  0  0
  -17.4615  -25.9597   21.6640 H   0  0  0  0  0  0
  -18.2143  -24.9485   22.5846 H   0  0  0  0  0  0
  -20.0134  -30.4030   24.2118 H   0  0  0  0  0  0
  -17.7325  -31.2641   24.3039 H   0  0  0  0  0  0
  -15.8266  -29.8008   23.6489 H   0  0  0  0  0  0
  -16.2223  -27.4594   23.0367 H   0  0  0  0  0  0
  -24.5841  -30.7350   25.7514 H   0  0  0  0  0  0
  -24.8993  -32.3031   26.4891 H   0  0  0  0  0  0
  -25.7836  -30.8817   27.0188 H   0  0  0  0  0  0
  -26.2973  -29.7015   24.1014 H   0  0  0  0  0  0
  -27.3790  -29.7171   25.4751 H   0  0  0  0  0  0
  -27.8996  -30.4336   23.9695 H   0  0  0  0  0  0
  -27.2942  -33.3442   26.2579 H   0  0  0  0  0  0
  -28.4171  -32.6712   25.0839 H   0  0  0  0  0  0
  -28.0734  -31.8107   26.5739 H   0  0  0  0  0  0
  -28.2612  -38.0231   24.7602 H   0  0  0  0  0  0
  -28.1143  -36.2779   24.6208 H   0  0  0  0  0  0
  -27.2339  -37.1449   25.8869 H   0  0  0  0  0  0
  -21.1416  -30.1025   21.7755 H   0  0  0  0  0  0
  -26.0203  -38.3012   24.1519 H   0  0  0  0  0  0
  -24.3241  -24.1540   22.7448 H   0  0  0  0  0  0
  -19.6485  -28.8999   21.4103 H   0  0  0  0  0  0
  -19.1689  -24.9870   24.5497 H   0  0  0  0  0  0
  -20.3386  -23.8024   25.0657 H   0  0  0  0  0  0
  -19.0602  -23.3184   23.9342 H   0  0  0  0  0  0
  -18.4160  -30.3458   20.7400 H   0  0  0  0  0  0
  -16.8802  -29.6812   20.2588 H   0  0  0  0  0  0
  -18.1610  -29.8338   19.0732 H   0  0  0  0  0  0
  -16.4750  -27.5226   19.5861 H   0  0  0  0  0  0
  -17.5444  -26.1517   19.6383 H   0  0  0  0  0  0
  -17.8067  -27.4229   18.4699 H   0  0  0  0  0  0
  -23.8344  -27.3350   21.7881 H   0  0  0  0  0  0
  -23.9540  -25.8483   20.9081 H   0  0  0  0  0  0
  -22.9764  -20.7445   21.8220 H   0  0  0  0  0  0
  -23.6380  -20.9407   23.4009 H   0  0  0  0  0  0
  -26.1309  -21.0786   22.3264 H   0  0  0  0  0  0
  -25.4559  -20.8565   20.7707 H   0  0  0  0  0  0
  -25.4562  -18.1868   21.1226 H   0  0  0  0  0  0
  -26.0563  -18.3763   22.7015 H   0  0  0  0  0  0
  -28.5966  -18.4051   21.7807 H   0  0  0  0  0  0
  -28.0299  -18.2872   20.1696 H   0  0  0  0  0  0
  -25.9054  -24.9947   22.0940 H   0  0  0  0  0  0
  -25.9577  -26.4052   23.0820 H   0  0  0  0  0  0
  -27.7840  -15.6262   21.3118 H   0  0  0  0  0  0
  1 25  1  0  0  0
  1 30  2  0  0  0
  1 88  1  0  0  0
  2  3  1  0  0  0
  2 25  1  0  0  0
  2 89  1  0  0  0
  2 90  1  0  0  0
  3  4  1  0  0  0
  3 91  1  0  0  0
  3 92  1  0  0  0
  4  5  1  0  0  0
  4 93  1  0  0  0
  4 94  1  0  0  0
  5  6  1  0  0  0
  5 26  1  0  0  0
  5 95  1  0  0  0
  6 25  1  0  0  0
  6 96  1  0  0  0
  6 97  1  0  0  0
  7  8  2  0  0  0
  7 26  1  0  0  0
  7 29  1  0  0  0
  8  9  1  0  0  0
  8 22  1  0  0  0
  9 10  1  0  0  0
  9 27  2  0  0  0
 10 11  2  0  0  0
 10 15  1  0  0  0
 11 12  1  0  0  0
 11 98  1  0  0  0
 12 13  2  0  0  0
 12 99  1  0  0  0
 13 14  1  0  0  0
 13 31  1  0  0  0
 14 15  2  0  0  0
 14100  1  0  0  0
 15101  1  0  0  0
 16 17  2  0  0  0
 16 21  1  0  0  0
 16 31  1  0  0  0
 17 18  1  0  0  0
 17102  1  0  0  0
 18 19  2  0  0  0
 18103  1  0  0  0
 19 20  1  0  0  0
 19 24  1  0  0  0
 20 21  2  0  0  0
 20104  1  0  0  0
 21 23  1  0  0  0
 22 28  1  0  0  0
 22 32  2  0  0  0
 26 27  1  0  0  0
 28105  1  0  0  0
 28106  1  0  0  0
 29107  1  0  0  0
 29108  1  0  0  0
 33 34  1  0  0  0
 33 66  1  0  0  0
 33 70  2  0  0  0
 34 36  1  0  0  0
 34 59  1  0  0  0
 34109  1  0  0  0
 35 44  2  0  0  0
 35 45  1  0  0  0
 35 68  1  0  0  0
 36 56  1  0  0  0
 36110  1  0  0  0
 37 39  1  0  0  0
 37 47  1  0  0  0
 37 66  1  0  0  0
 37111  1  0  0  0
 38 43  2  0  0  0
 38 46  1  0  0  0
 38 47  1  0  0  0
 39 64  1  0  0  0
 39 67  2  0  0  0
 40 52  1  0  0  0
 40 53  2  0  0  0
 40 58  1  0  0  0
 41112  1  0  0  0
 41113  1  0  0  0
 41114  1  0  0  0
 41 48  1  0  0  0
 42 43  1  0  0  0
 42 66  1  0  0  0
 42115  1  0  0  0
 42116  1  0  0  0
 43 44  1  0  0  0
 44117  1  0  0  0
 45 46  2  0  0  0
 45118  1  0  0  0
 46119  1  0  0  0
 47120  1  0  0  0
 47121  1  0  0  0
 48 56  1  0  0  0
 48 65  1  0  0  0
 48122  1  0  0  0
 49 50  1  0  0  0
 49 53  1  0  0  0
 49 64  1  0  0  0
 49123  1  0  0  0
 50 51  1  0  0  0
 50124  1  0  0  0
 50125  1  0  0  0
 51 52  1  0  0  0
 51126  1  0  0  0
 51127  1  0  0  0
 52128  1  0  0  0
 52129  1  0  0  0
 53 54  1  0  0  0
 54 55  2  0  0  0
 54130  1  0  0  0
 55 57  1  0  0  0
 55131  1  0  0  0
 56 69  2  0  0  0
 57 58  2  0  0  0
 57132  1  0  0  0
 58133  1  0  0  0
 59 60  1  0  0  0
 59 61  1  0  0  0
 59 62  1  0  0  0
 60134  1  0  0  0
 60135  1  0  0  0
 60136  1  0  0  0
 61137  1  0  0  0
 61138  1  0  0  0
 61139  1  0  0  0
 62140  1  0  0  0
 62141  1  0  0  0
 62142  1  0  0  0
 63 65  1  0  0  0
 63143  1  0  0  0
 63144  1  0  0  0
 63145  1  0  0  0
 64146  1  0  0  0
 65147  1  0  0  0
 68 86  1  0  0  0
 71 73  2  0  0  0
 71 74  1  0  0  0
 71148  1  0  0  0
 72 73  1  0  0  0
 72 75  2  0  0  0
 72 76  1  0  0  0
 73 81  1  0  0  0
 74 82  1  0  0  0
 74 87  2  0  0  0
 75 78  1  0  0  0
 75 87  1  0  0  0
 76 77  2  0  0  0
 76149  1  0  0  0
 77 79  1  0  0  0
 77 80  1  0  0  0
 78150  1  0  0  0
 78151  1  0  0  0
 78152  1  0  0  0
 79153  1  0  0  0
 79154  1  0  0  0
 79155  1  0  0  0
 80156  1  0  0  0
 80157  1  0  0  0
 80158  1  0  0  0
 81 86  1  0  0  0
 81159  1  0  0  0
 81160  1  0  0  0
 82 83  1  0  0  0
 82161  1  0  0  0
 82162  1  0  0  0
 83 84  1  0  0  0
 83163  1  0  0  0
 83164  1  0  0  0
 84 85  1  0  0  0
 84165  1  0  0  0
 84166  1  0  0  0
 85 88  1  0  0  0
 85167  1  0  0  0
 85168  1  0  0  0
 86169  1  0  0  0
 86170  1  0  0  0
 88171  1  0  0  0
M  ISO  4   1 100  68 101  86 101  88 100
M  END
> <chiral flag>
0

> <version>
0

> <s_m_source_file>
/data/baiqing/PycharmProjects/Reinvent-master-3.2/result/LINK_invent/BTK/process_docking_weight1_custom_sum_contain_oxygen_bond_distance_aromatic_linkinvent_7_9_3/rearranged_h_0040.sdf

> <i_m_source_file_index>
45

> <r_mmod_Potential_Energy-OPLS-2005>
10843.865234375

> <r_mmod_Stretch_Energy-OPLS-2005>
5591.296875

> <r_mmod_Bend_Energy-OPLS-2005>
1305.90075683594

> <r_mmod_Torsional_Energy-OPLS-2005>
539.88330078125

> <r_mmod_Improper_Torsional_Energy-OPLS-2005>
63.2623672485352

> <r_mmod_Van_der_Waal_Energy-OPLS-2005>
2105.09912109375

> <r_mmod_Electrostatic_Energy-OPLS-2005>
-512.897583007812

> <r_mmod_Solvation_Energy-OPLS-2005>
-207.699813842773

> <b_mmod_Minimization_Converged-OPLS-2005>
0

> <r_mmod_RMS_Derivative-OPLS-2005>
8.27673530578613

$$$$
45
                    3D
 Structure written by MMmdl.
178186  0  0  1  0            999 V2000
  -30.3037  -15.6153   19.9616 C   0  0  0  0  0  0
  -30.4268  -13.0305   19.4298 C   0  0  0  0  0  0
  -29.5344  -12.5799   18.2489 C   0  0  0  0  0  0
  -28.1121  -12.2602   18.7402 C   0  0  0  0  0  0
  -27.5927  -13.3024   19.7610 C   0  0  2  0  0  0
  -28.6453  -13.6975   20.8215 C   0  0  0  0  0  0
  -25.2404  -13.8253   20.5816 C   0  0  0  0  0  0
  -24.1776  -13.0408   20.9303 C   0  0  0  0  0  0
  -24.6448  -11.6917   20.8728 C   0  0  0  0  0  0
  -23.9113  -10.4264   21.0377 C   0  0  0  0  0  0
  -24.3624   -9.4185   21.9186 C   0  0  0  0  0  0
  -23.6285   -8.2227   22.0761 C   0  0  0  0  0  0
  -22.4274   -8.0269   21.3558 C   0  0  0  0  0  0
  -21.9923   -9.0233   20.4654 C   0  0  0  0  0  0
  -22.7261  -10.2107   20.3053 C   0  0  0  0  0  0
  -21.6858   -6.0700   22.5255 C   0  0  0  0  0  0
  -21.4026   -6.5625   23.8178 C   0  0  0  0  0  0
  -21.3650   -5.6799   24.9161 C   0  0  0  0  0  0
  -21.6036   -4.3056   24.7243 C   0  0  0  0  0  0
  -21.8815   -3.8122   23.4377 C   0  0  0  0  0  0
  -21.9200   -4.6922   22.3413 C   0  0  0  0  0  0
  -22.7782  -13.5145   21.1897 C   0  0  0  0  0  0
  -22.1663   -4.2116   21.0987 F   0  0  0  0  0  0
  -21.5623   -3.4532   25.7747 F   0  0  0  0  0  0
  -29.7968  -14.2569   20.0737 N   0  0  0  0  0  0
  -26.2857  -12.9600   20.3167 N   0  0  0  0  0  0
  -25.9395  -11.6669   20.5603 N   0  0  0  0  0  0
  -22.0416  -12.8170   22.0458 N   0  0  0  0  0  0
  -25.3971  -15.1996   20.4267 N   0  0  0  0  0  0
  -31.5483  -15.5557   19.9378 O   0  0  0  0  0  0
  -21.6646   -6.8866   21.4234 O   0  0  0  0  0  0
  -22.3480  -14.5450   20.6731 O   0  0  0  0  0  0
  -24.7047  -32.1086   22.9414 C   0  0  0  0  0  0
  -25.9767  -32.5679   23.7744 C   0  0  1  0  0  0
  -28.0104  -26.2232   20.4988 C   0  0  0  0  0  0
  -25.5954  -33.9248   24.1572 N   0  0  0  0  0  0
  -23.2198  -30.5264   21.2688 C   0  0  2  0  0  0
  -24.5123  -27.7002   20.0933 C   0  0  0  0  0  0
  -22.3458  -29.8951   22.4641 C   0  0  0  0  0  0
  -17.9581  -28.1199   22.8665 C   0  0  0  0  0  0
  -24.1479  -36.7658   23.2456 C   0  0  0  0  0  0
  -26.5436  -30.6864   21.5346 C   0  0  0  0  0  0
  -26.8415  -28.8196   20.9492 C   0  0  0  0  0  0
  -28.0962  -27.8271   21.0557 C   0  0  0  0  0  0
  -26.3792  -25.1832   20.1091 C   0  0  0  0  0  0
  -24.7127  -25.9659   19.8002 C   0  0  0  0  0  0
  -23.0787  -28.8664   20.2326 C   0  0  0  0  0  0
  -25.4145  -36.3519   24.0070 C   0  0  1  0  0  0
  -20.4879  -28.4098   23.0947 C   0  0  2  0  0  0
  -20.6125  -26.9665   22.5383 C   0  0  0  0  0  0
  -19.5127  -26.6287   21.5297 C   0  0  0  0  0  0
  -18.1326  -26.7727   22.1806 C   0  0  0  0  0  0
  -19.0676  -28.8758   23.3163 C   0  0  0  0  0  0
  -18.8719  -30.1425   23.9126 C   0  0  0  0  0  0
  -17.5743  -30.6615   24.0618 C   0  0  0  0  0  0
  -25.9229  -35.0084   23.4597 C   0  0  0  0  0  0
  -16.4722  -29.8994   23.6397 C   0  0  0  0  0  0
  -16.6620  -28.6345   23.0550 C   0  0  0  0  0  0
  -26.5127  -31.8080   25.1155 C   0  0  0  0  0  0
  -25.4065  -31.5242   26.1664 C   0  0  0  0  0  0
  -27.3695  -30.5029   25.0064 C   0  0  0  0  0  0
  -27.5787  -32.7369   25.7574 C   0  0  0  0  0  0
  -27.5601  -37.1880   24.8415 C   0  0  0  0  0  0
  -21.1381  -29.3989   22.2197 N   0  0  0  0  0  0
  -26.4241  -37.4314   23.9549 N   0  0  0  0  0  0
  -24.8173  -31.3361   21.7839 N   0  0  0  0  0  0
  -22.8133  -29.5464   23.5356 O   0  0  0  0  0  0
  -28.6476  -27.1175   19.4800 O   0  0  0  0  0  0
  -26.6022  -34.9584   22.4311 O   0  0  0  0  0  0
  -23.6019  -32.3524   23.4713 O   0  0  0  0  0  0
  -24.8605  -28.9535   21.9277 C   0  0  0  0  0  0
  -25.2627  -27.5036   22.4002 C   0  0  0  0  0  0
  -26.4992  -27.3035   19.1974 C   0  0  0  0  0  0
  -26.1578  -28.7936   18.7307 C   0  0  0  0  0  0
  -25.3307  -29.3024   23.3922 C   0  0  0  0  0  0
  -26.3943  -25.8651   26.4610 C   0  0  0  0  0  0
  -23.9128  -26.5716   26.1978 C   0  0  0  0  0  0
  -25.8157  -24.1444   23.7786 C   0  0  0  0  0  0
  -27.2447  -25.7715   17.9801 C   0  0  0  0  0  0
  -25.8080  -26.7315   23.6775 C   0  0  0  0  0  0
  -27.8455  -28.3886   18.6220 C   0  0  0  0  0  0
  -27.6847  -23.7890   18.4042 C   0  0  0  0  0  0
  -28.6346  -22.0921   18.2613 C   0  0  0  0  0  0
  -28.6250  -20.2869   19.0325 C   0  0  0  0  0  0
  -29.6601  -18.6355   19.1183 C   0  0  0  0  0  0
  -25.0139  -25.5569   25.7701 C   0  0  0  0  0  0
  -25.0995  -25.4617   24.2102 C   0  0  2  0  0  0
  -25.1976  -29.7846   19.8857 N   0  0  0  0  0  0
  -26.0125  -26.8588   21.4693 N   0  0  0  0  0  0
  -29.5227  -16.9470   19.6800 N   0  0  0  0  0  0
  -31.4144  -13.2591   19.0328 H   0  0  0  0  0  0
  -30.5740  -12.2232   20.1486 H   0  0  0  0  0  0
  -29.9652  -11.7075   17.7525 H   0  0  0  0  0  0
  -29.5012  -13.3686   17.4962 H   0  0  0  0  0  0
  -28.1519  -11.2908   19.2349 H   0  0  0  0  0  0
  -27.4261  -12.1563   17.8978 H   0  0  0  0  0  0
  -27.4228  -14.1982   19.1600 H   0  0  0  0  0  0
  -28.9254  -12.8655   21.4683 H   0  0  0  0  0  0
  -28.2546  -14.4838   21.4692 H   0  0  0  0  0  0
  -25.2730   -9.5673   22.4831 H   0  0  0  0  0  0
  -23.9935   -7.4645   22.7539 H   0  0  0  0  0  0
  -21.0817   -8.8783   19.9007 H   0  0  0  0  0  0
  -22.3676  -10.9667   19.6204 H   0  0  0  0  0  0
  -21.2028   -7.6134   23.9695 H   0  0  0  0  0  0
  -21.1473   -6.0520   25.9067 H   0  0  0  0  0  0
  -22.0612   -2.7588   23.2884 H   0  0  0  0  0  0
  -22.3959  -11.9805   22.4867 H   0  0  0  0  0  0
  -21.1044  -13.1273   22.2596 H   0  0  0  0  0  0
  -24.6291  -15.8514   20.5548 H   0  0  0  0  0  0
  -26.2418  -15.6441   20.0939 H   0  0  0  0  0  0
  -26.8393  -32.6750   23.1313 H   0  0  0  0  0  0
  -24.9705  -34.0259   24.9433 H   0  0  0  0  0  0
  -22.5873  -31.2923   20.8180 H   0  0  0  0  0  0
  -23.3969  -35.9756   23.2933 H   0  0  0  0  0  0
  -24.3516  -36.9680   22.1900 H   0  0  0  0  0  0
  -23.7007  -37.6583   23.6875 H   0  0  0  0  0  0
  -26.9812  -31.3188   20.7637 H   0  0  0  0  0  0
  -27.2451  -30.8744   22.3328 H   0  0  0  0  0  0
  -29.0383  -28.2535   21.3900 H   0  0  0  0  0  0
  -26.3377  -24.1465   20.4182 H   0  0  0  0  0  0
  -23.8363  -25.3425   19.6601 H   0  0  0  0  0  0
  -22.8181  -29.1448   19.2080 H   0  0  0  0  0  0
  -22.2646  -28.1890   20.5039 H   0  0  0  0  0  0
  -25.1404  -36.2030   25.0548 H   0  0  0  0  0  0
  -20.9249  -28.3906   24.1003 H   0  0  0  0  0  0
  -20.5058  -26.2748   23.3712 H   0  0  0  0  0  0
  -21.6020  -26.7547   22.1353 H   0  0  0  0  0  0
  -19.6395  -25.6151   21.1441 H   0  0  0  0  0  0
  -19.5897  -27.3137   20.6878 H   0  0  0  0  0  0
  -17.3371  -26.6259   21.4445 H   0  0  0  0  0  0
  -18.0059  -25.9979   22.9391 H   0  0  0  0  0  0
  -19.7250  -30.7360   24.2235 H   0  0  0  0  0  0
  -17.4206  -31.6437   24.4914 H   0  0  0  0  0  0
  -15.4712  -30.2826   23.7718 H   0  0  0  0  0  0
  -15.8004  -28.0598   22.7480 H   0  0  0  0  0  0
  -24.6590  -30.7931   25.8717 H   0  0  0  0  0  0
  -24.8954  -32.4503   26.4402 H   0  0  0  0  0  0
  -25.8395  -31.1261   27.0786 H   0  0  0  0  0  0
  -28.0278  -30.4327   24.1455 H   0  0  0  0  0  0
  -26.8548  -29.5778   25.2819 H   0  0  0  0  0  0
  -28.1293  -30.4716   25.7913 H   0  0  0  0  0  0
  -27.2636  -33.7666   25.8758 H   0  0  0  0  0  0
  -28.4739  -32.7952   25.1371 H   0  0  0  0  0  0
  -27.8941  -32.4277   26.7544 H   0  0  0  0  0  0
  -28.2441  -38.0356   24.8231 H   0  0  0  0  0  0
  -28.1331  -36.3035   24.5604 H   0  0  0  0  0  0
  -27.2311  -37.0728   25.8739 H   0  0  0  0  0  0
  -20.6796  -29.5890   21.3357 H   0  0  0  0  0  0
  -26.0107  -38.3203   24.2287 H   0  0  0  0  0  0
  -26.3993  -29.1251   23.4139 H   0  0  0  0  0  0
  -24.8320  -28.7800   24.2064 H   0  0  0  0  0  0
  -25.0706  -30.1340   23.9525 H   0  0  0  0  0  0
  -26.4797  -25.4398   27.4630 H   0  0  0  0  0  0
  -26.5568  -26.9409   26.5883 H   0  0  0  0  0  0
  -27.2449  -25.4945   25.8799 H   0  0  0  0  0  0
  -23.5266  -26.4121   27.2047 H   0  0  0  0  0  0
  -23.0413  -26.5455   25.5447 H   0  0  0  0  0  0
  -24.2971  -27.5948   26.1508 H   0  0  0  0  0  0
  -25.9613  -24.0841   22.6937 H   0  0  0  0  0  0
  -25.2676  -23.2441   24.0764 H   0  0  0  0  0  0
  -26.8010  -24.0475   24.2362 H   0  0  0  0  0  0
  -28.1379  -26.1202   17.4711 H   0  0  0  0  0  0
  -26.5177  -25.7297   17.1696 H   0  0  0  0  0  0
  -26.1184  -27.3410   24.5095 H   0  0  0  0  0  0
  -26.8197  -26.3595   23.4599 H   0  0  0  0  0  0
  -28.3990  -29.3022   18.8473 H   0  0  0  0  0  0
  -28.0591  -28.2961   17.5515 H   0  0  0  0  0  0
  -26.6940  -23.3466   18.5192 H   0  0  0  0  0  0
  -28.1871  -23.9099   19.3601 H   0  0  0  0  0  0
  -29.6688  -22.3951   18.4161 H   0  0  0  0  0  0
  -28.5946  -21.8982   17.1897 H   0  0  0  0  0  0
  -27.6624  -19.9030   18.6878 H   0  0  0  0  0  0
  -28.4620  -20.4886   20.0934 H   0  0  0  0  0  0
  -30.6168  -18.9515   19.5325 H   0  0  0  0  0  0
  -29.9077  -18.4574   18.0751 H   0  0  0  0  0  0
  -24.7071  -24.5643   26.1020 H   0  0  0  0  0  0
  -24.1005  -25.4090   23.7727 H   0  0  0  0  0  0
  -28.5414  -16.7310   19.7693 H   0  0  0  0  0  0
  1 25  1  0  0  0
  1 30  2  0  0  0
  1 90  1  0  0  0
  2  3  1  0  0  0
  2 25  1  0  0  0
  2 91  1  0  0  0
  2 92  1  0  0  0
  3  4  1  0  0  0
  3 93  1  0  0  0
  3 94  1  0  0  0
  4  5  1  0  0  0
  4 95  1  0  0  0
  4 96  1  0  0  0
  5  6  1  0  0  0
  5 26  1  0  0  0
  5 97  1  0  0  0
  6 25  1  0  0  0
  6 98  1  0  0  0
  6 99  1  0  0  0
  7  8  2  0  0  0
  7 26  1  0  0  0
  7 29  1  0  0  0
  8  9  1  0  0  0
  8 22  1  0  0  0
  9 10  1  0  0  0
  9 27  2  0  0  0
 10 11  2  0  0  0
 10 15  1  0  0  0
 11 12  1  0  0  0
 11100  1  0  0  0
 12 13  2  0  0  0
 12101  1  0  0  0
 13 14  1  0  0  0
 13 31  1  0  0  0
 14 15  2  0  0  0
 14102  1  0  0  0
 15103  1  0  0  0
 16 17  2  0  0  0
 16 21  1  0  0  0
 16 31  1  0  0  0
 17 18  1  0  0  0
 17104  1  0  0  0
 18 19  2  0  0  0
 18105  1  0  0  0
 19 20  1  0  0  0
 19 24  1  0  0  0
 20 21  2  0  0  0
 20106  1  0  0  0
 21 23  1  0  0  0
 22 28  1  0  0  0
 22 32  2  0  0  0
 26 27  1  0  0  0
 28107  1  0  0  0
 28108  1  0  0  0
 29109  1  0  0  0
 29110  1  0  0  0
 33 34  1  0  0  0
 33 66  1  0  0  0
 33 70  2  0  0  0
 34 36  1  0  0  0
 34 59  1  0  0  0
 34111  1  0  0  0
 35 44  2  0  0  0
 35 45  1  0  0  0
 35 68  1  0  0  0
 36 56  1  0  0  0
 36112  1  0  0  0
 37 39  1  0  0  0
 37 47  1  0  0  0
 37 66  1  0  0  0
 37113  1  0  0  0
 38 43  2  0  0  0
 38 46  1  0  0  0
 38 47  1  0  0  0
 39 64  1  0  0  0
 39 67  2  0  0  0
 40 52  1  0  0  0
 40 53  2  0  0  0
 40 58  1  0  0  0
 41114  1  0  0  0
 41115  1  0  0  0
 41116  1  0  0  0
 41 48  1  0  0  0
 42 43  1  0  0  0
 42 66  1  0  0  0
 42117  1  0  0  0
 42118  1  0  0  0
 43 44  1  0  0  0
 44119  1  0  0  0
 45 46  2  0  0  0
 45120  1  0  0  0
 46121  1  0  0  0
 47122  1  0  0  0
 47123  1  0  0  0
 48 56  1  0  0  0
 48 65  1  0  0  0
 48124  1  0  0  0
 49 50  1  0  0  0
 49 53  1  0  0  0
 49 64  1  0  0  0
 49125  1  0  0  0
 50 51  1  0  0  0
 50126  1  0  0  0
 50127  1  0  0  0
 51 52  1  0  0  0
 51128  1  0  0  0
 51129  1  0  0  0
 52130  1  0  0  0
 52131  1  0  0  0
 53 54  1  0  0  0
 54 55  2  0  0  0
 54132  1  0  0  0
 55 57  1  0  0  0
 55133  1  0  0  0
 56 69  2  0  0  0
 57 58  2  0  0  0
 57134  1  0  0  0
 58135  1  0  0  0
 59 60  1  0  0  0
 59 61  1  0  0  0
 59 62  1  0  0  0
 60136  1  0  0  0
 60137  1  0  0  0
 60138  1  0  0  0
 61139  1  0  0  0
 61140  1  0  0  0
 61141  1  0  0  0
 62142  1  0  0  0
 62143  1  0  0  0
 62144  1  0  0  0
 63 65  1  0  0  0
 63145  1  0  0  0
 63146  1  0  0  0
 63147  1  0  0  0
 64148  1  0  0  0
 65149  1  0  0  0
 68 81  1  0  0  0
 71 72  2  0  0  0
 71 75  1  0  0  0
 71 88  1  0  0  0
 72 80  1  0  0  0
 72 89  1  0  0  0
 73 74  1  0  0  0
 73 79  1  0  0  0
 73 89  2  0  0  0
 74 81  1  0  0  0
 74 88  2  0  0  0
 75150  1  0  0  0
 75151  1  0  0  0
 75152  1  0  0  0
 76153  1  0  0  0
 76154  1  0  0  0
 76155  1  0  0  0
 76 86  1  0  0  0
 77 86  1  0  0  0
 77156  1  0  0  0
 77157  1  0  0  0
 77158  1  0  0  0
 78159  1  0  0  0
 78160  1  0  0  0
 78161  1  0  0  0
 78 87  1  0  0  0
 79 82  1  0  0  0
 79162  1  0  0  0
 79163  1  0  0  0
 80 87  1  0  0  0
 80164  1  0  0  0
 80165  1  0  0  0
 81166  1  0  0  0
 81167  1  0  0  0
 82 83  1  0  0  0
 82168  1  0  0  0
 82169  1  0  0  0
 83 84  1  0  0  0
 83170  1  0  0  0
 83171  1  0  0  0
 84 85  1  0  0  0
 84172  1  0  0  0
 84173  1  0  0  0
 85 90  1  0  0  0
 85174  1  0  0  0
 85175  1  0  0  0
 86 87  1  0  0  0
 86176  1  0  0  0
 87177  1  0  0  0
 90178  1  0  0  0
M  ISO  4   1 100  68 101  81 101  90 100
M  END
> <chiral flag>
0

> <version>
0

> <s_m_source_file>
/data/baiqing/PycharmProjects/Reinvent-master-3.2/result/LINK_invent/BTK/process_docking_weight1_custom_sum_contain_oxygen_bond_distance_aromatic_linkinvent_7_9_3/rearranged_h_0040.sdf

> <i_m_source_file_index>
46

> <r_mmod_Potential_Energy-OPLS-2005>
22869.125

> <r_mmod_Stretch_Energy-OPLS-2005>
12496.3564453125

> <r_mmod_Bend_Energy-OPLS-2005>
1853.04309082031

> <r_mmod_Torsional_Energy-OPLS-2005>
584.658081054688

> <r_mmod_Improper_Torsional_Energy-OPLS-2005>
109.294982910156

> <r_mmod_Van_der_Waal_Energy-OPLS-2005>
5910.9189453125

> <r_mmod_Electrostatic_Energy-OPLS-2005>
-308.287933349609

> <r_mmod_Solvation_Energy-OPLS-2005>
-216.126373291016

> <b_mmod_Minimization_Converged-OPLS-2005>
0

> <r_mmod_RMS_Derivative-OPLS-2005>
24.2002620697021

$$$$
46
                    3D
 Structure written by MMmdl.
164172  0  0  1  0            999 V2000
  -30.6783  -14.4353   20.5765 C   0  0  0  0  0  0
  -30.4363  -12.2771   19.4232 C   0  0  0  0  0  0
  -29.5086  -12.5013   18.2081 C   0  0  0  0  0  0
  -28.0241  -12.3805   18.6098 C   0  0  0  0  0  0
  -27.6770  -13.1941   19.8854 C   0  0  2  0  0  0
  -28.7134  -12.9223   21.0021 C   0  0  0  0  0  0
  -25.2680  -13.8135   20.5634 C   0  0  0  0  0  0
  -24.1906  -13.0437   20.9142 C   0  0  0  0  0  0
  -24.6429  -11.6891   20.8736 C   0  0  0  0  0  0
  -23.9095  -10.4273   21.0420 C   0  0  0  0  0  0
  -24.3620   -9.4170   21.9198 C   0  0  0  0  0  0
  -23.6268   -8.2222   22.0764 C   0  0  0  0  0  0
  -22.4252   -8.0276   21.3539 C   0  0  0  0  0  0
  -21.9890   -9.0270   20.4651 C   0  0  0  0  0  0
  -22.7259  -10.2116   20.3078 C   0  0  0  0  0  0
  -21.6841   -6.0732   22.5269 C   0  0  0  0  0  0
  -21.4005   -6.5628   23.8198 C   0  0  0  0  0  0
  -21.3661   -5.6762   24.9162 C   0  0  0  0  0  0
  -21.6053   -4.3040   24.7201 C   0  0  0  0  0  0
  -21.8824   -3.8132   23.4321 C   0  0  0  0  0  0
  -21.9180   -4.6970   22.3385 C   0  0  0  0  0  0
  -22.7927  -13.5287   21.1785 C   0  0  0  0  0  0
  -22.1661   -4.2163   21.0964 F   0  0  0  0  0  0
  -21.5632   -3.4509   25.7709 F   0  0  0  0  0  0
  -30.0547  -13.2308   20.4740 N   0  0  0  0  0  0
  -26.3114  -12.9274   20.3367 N   0  0  0  0  0  0
  -25.9353  -11.6450   20.5736 N   0  0  0  0  0  0
  -22.0513  -12.8323   22.0325 N   0  0  0  0  0  0
  -25.4451  -15.1837   20.3994 N   0  0  0  0  0  0
  -31.7588  -14.6964   20.0403 O   0  0  0  0  0  0
  -21.6621   -6.8877   21.4225 O   0  0  0  0  0  0
  -22.3631  -14.5595   20.6616 O   0  0  0  0  0  0
  -24.6115  -31.8722   23.2138 C   0  0  0  0  0  0
  -25.9022  -32.4848   23.8431 C   0  0  1  0  0  0
  -27.2384  -27.4664   20.0837 C   0  0  0  0  0  0
  -25.5891  -33.8648   24.2360 N   0  0  0  0  0  0
  -23.3968  -30.4964   21.5550 C   0  0  2  0  0  0
  -24.8394  -28.9622   20.1208 C   0  0  0  0  0  0
  -22.7396  -29.4683   22.5025 C   0  0  0  0  0  0
  -18.0271  -28.1361   22.8495 C   0  0  0  0  0  0
  -24.1480  -36.7336   23.2645 C   0  0  0  0  0  0
  -25.9246  -30.8414   21.3677 C   0  0  0  0  0  0
  -25.9977  -29.4790   20.7131 C   0  0  0  0  0  0
  -27.1958  -28.7360   20.6971 C   0  0  0  0  0  0
  -26.0558  -26.9486   19.5021 C   0  0  0  0  0  0
  -24.8608  -27.6915   19.5202 C   0  0  0  0  0  0
  -23.6018  -29.8284   20.1698 C   0  0  0  0  0  0
  -25.4098  -36.3141   24.0349 C   0  0  1  0  0  0
  -20.5859  -28.3646   23.1321 C   0  0  2  0  0  0
  -20.6755  -26.9380   22.5424 C   0  0  0  0  0  0
  -19.5736  -26.6369   21.5214 C   0  0  0  0  0  0
  -18.1909  -26.7914   22.1611 C   0  0  0  0  0  0
  -19.1516  -28.8814   23.2910 C   0  0  0  0  0  0
  -18.9463  -30.1422   23.8916 C   0  0  0  0  0  0
  -17.6465  -30.6569   24.0565 C   0  0  0  0  0  0
  -25.9021  -34.9495   23.5155 C   0  0  0  0  0  0
  -16.5355  -29.9075   23.6327 C   0  0  0  0  0  0
  -16.7259  -28.6487   23.0357 C   0  0  0  0  0  0
  -26.4464  -31.6627   25.0755 C   0  0  0  0  0  0
  -25.3748  -31.3772   26.1531 C   0  0  0  0  0  0
  -27.0276  -30.3051   24.6157 C   0  0  0  0  0  0
  -27.6066  -32.4339   25.7485 C   0  0  0  0  0  0
  -27.5586  -37.1820   24.8471 C   0  0  0  0  0  0
  -21.4128  -29.3027   22.3743 N   0  0  0  0  0  0
  -26.4305  -37.3806   23.9405 N   0  0  0  0  0  0
  -24.6618  -31.0845   22.1031 N   0  0  0  0  0  0
  -23.4175  -28.8234   23.3071 O   0  0  0  0  0  0
  -28.4423  -26.7989   20.0815 O   0  0  0  0  0  0
  -26.5589  -34.8939   22.4718 O   0  0  0  0  0  0
  -23.5313  -32.1485   23.7539 O   0  0  0  0  0  0
  -30.4780  -21.2376   17.6008 C   0  0  0  0  0  0
  -30.0872  -23.6089   17.3728 C   0  0  0  0  0  0
  -30.2382  -22.3494   16.7715 C   0  0  0  0  0  0
  -30.5337  -21.4226   18.9951 C   0  0  0  0  0  0
  -30.1462  -23.7065   18.7726 C   0  0  0  0  0  0
  -28.6767  -22.4317   14.8049 C   0  0  0  0  0  0
  -30.1208  -22.2090   15.2686 C   0  0  0  0  0  0
  -30.8825  -20.2683   19.9281 C   0  0  0  0  0  0
  -29.9757  -25.0561   19.4454 C   0  0  0  0  0  0
  -29.9414  -19.0498   19.8196 C   0  0  0  0  0  0
  -30.4172  -17.8387   20.6570 C   0  0  0  0  0  0
  -29.5224  -16.6084   20.4301 C   0  0  0  0  0  0
  -28.5200  -25.5371   19.4267 C   0  0  0  0  0  0
  -30.3428  -22.6311   19.5724 N   0  0  0  0  0  0
  -29.9230  -15.3896   21.1404 N   0  0  0  0  0  0
  -31.4835  -12.3755   19.1300 H   0  0  0  0  0  0
  -30.3340  -11.2590   19.8002 H   0  0  0  0  0  0
  -29.7396  -11.7788   17.4242 H   0  0  0  0  0  0
  -29.6933  -13.4860   17.7774 H   0  0  0  0  0  0
  -27.8051  -11.3249   18.7725 H   0  0  0  0  0  0
  -27.3924  -12.6953   17.7790 H   0  0  0  0  0  0
  -27.7380  -14.2491   19.6165 H   0  0  0  0  0  0
  -28.6776  -11.8711   21.2908 H   0  0  0  0  0  0
  -28.4727  -13.4770   21.9104 H   0  0  0  0  0  0
  -25.2776   -9.5610   22.4784 H   0  0  0  0  0  0
  -23.9949   -7.4598   22.7486 H   0  0  0  0  0  0
  -21.0810   -8.8822   19.8954 H   0  0  0  0  0  0
  -22.3755  -10.9673   19.6192 H   0  0  0  0  0  0
  -21.1995   -7.6135   23.9711 H   0  0  0  0  0  0
  -21.1507   -6.0496   25.9058 H   0  0  0  0  0  0
  -22.0612   -2.7610   23.2821 H   0  0  0  0  0  0
  -22.4067  -11.9980   22.4765 H   0  0  0  0  0  0
  -21.1170  -13.1441   22.2532 H   0  0  0  0  0  0
  -24.6835  -15.8459   20.5015 H   0  0  0  0  0  0
  -26.2903  -15.6006   20.0269 H   0  0  0  0  0  0
  -26.7099  -32.5560   23.1206 H   0  0  0  0  0  0
  -25.0049  -33.9819   25.0508 H   0  0  0  0  0  0
  -22.6849  -31.3131   21.4193 H   0  0  0  0  0  0
  -23.3722  -35.9694   23.3362 H   0  0  0  0  0  0
  -24.3581  -36.8887   22.2054 H   0  0  0  0  0  0
  -23.7250  -37.6568   23.6612 H   0  0  0  0  0  0
  -26.0515  -31.6091   20.6029 H   0  0  0  0  0  0
  -26.8075  -30.8840   21.9942 H   0  0  0  0  0  0
  -28.0914  -29.1366   21.1524 H   0  0  0  0  0  0
  -26.0298  -25.9766   19.0313 H   0  0  0  0  0  0
  -23.9674  -27.2761   19.0741 H   0  0  0  0  0  0
  -23.7130  -30.6053   19.4133 H   0  0  0  0  0  0
  -22.7233  -29.2524   19.8729 H   0  0  0  0  0  0
  -25.1264  -36.2048   25.0844 H   0  0  0  0  0  0
  -20.9955  -28.3211   24.1438 H   0  0  0  0  0  0
  -20.5627  -26.2263   23.3622 H   0  0  0  0  0  0
  -21.6632  -26.7410   22.1241 H   0  0  0  0  0  0
  -19.6903  -25.6281   21.1229 H   0  0  0  0  0  0
  -19.6669  -27.3189   20.6753 H   0  0  0  0  0  0
  -17.4191  -26.6688   21.3999 H   0  0  0  0  0  0
  -18.0285  -26.0031   22.8979 H   0  0  0  0  0  0
  -19.7942  -30.7230   24.2287 H   0  0  0  0  0  0
  -17.5027  -31.6248   24.5173 H   0  0  0  0  0  0
  -15.5354  -30.2993   23.7622 H   0  0  0  0  0  0
  -15.8660  -28.0803   22.7080 H   0  0  0  0  0  0
  -24.5895  -30.7129   25.7914 H   0  0  0  0  0  0
  -24.8965  -32.2943   26.4979 H   0  0  0  0  0  0
  -25.8112  -30.8965   27.0296 H   0  0  0  0  0  0
  -26.2818  -29.6822   24.1205 H   0  0  0  0  0  0
  -27.4017  -29.7298   25.4641 H   0  0  0  0  0  0
  -27.8679  -30.4348   23.9331 H   0  0  0  0  0  0
  -27.2700  -33.3610   26.2145 H   0  0  0  0  0  0
  -28.3808  -32.6955   25.0256 H   0  0  0  0  0  0
  -28.0819  -31.8428   26.5329 H   0  0  0  0  0  0
  -28.2655  -38.0064   24.7451 H   0  0  0  0  0  0
  -28.1023  -36.2601   24.6354 H   0  0  0  0  0  0
  -27.2321  -37.1557   25.8882 H   0  0  0  0  0  0
  -20.9287  -29.8762   21.6977 H   0  0  0  0  0  0
  -26.0218  -38.2910   24.1344 H   0  0  0  0  0  0
  -30.6322  -20.2566   17.1703 H   0  0  0  0  0  0
  -29.9162  -24.4903   16.7679 H   0  0  0  0  0  0
  -28.5787  -22.2908   13.7290 H   0  0  0  0  0  0
  -28.3418  -23.4430   15.0406 H   0  0  0  0  0  0
  -27.9985  -21.7362   15.3005 H   0  0  0  0  0  0
  -30.4699  -21.2243   14.9537 H   0  0  0  0  0  0
  -30.7838  -22.9350   14.7965 H   0  0  0  0  0  0
  -30.8874  -20.6247   20.9601 H   0  0  0  0  0  0
  -31.9081  -19.9691   19.7047 H   0  0  0  0  0  0
  -30.6067  -25.7809   18.9310 H   0  0  0  0  0  0
  -30.3385  -25.0082   20.4719 H   0  0  0  0  0  0
  -29.8696  -18.7418   18.7754 H   0  0  0  0  0  0
  -28.9312  -19.3449   20.1128 H   0  0  0  0  0  0
  -30.4271  -18.1010   21.7149 H   0  0  0  0  0  0
  -31.4467  -17.5957   20.3917 H   0  0  0  0  0  0
  -29.4575  -16.3955   19.3606 H   0  0  0  0  0  0
  -28.5049  -16.8392   20.7517 H   0  0  0  0  0  0
  -27.8783  -24.8093   19.9256 H   0  0  0  0  0  0
  -28.1896  -25.6350   18.3919 H   0  0  0  0  0  0
  -29.2070  -15.0193   21.7490 H   0  0  0  0  0  0
  1 25  1  0  0  0
  1 30  2  0  0  0
  1 85  1  0  0  0
  2  3  1  0  0  0
  2 25  1  0  0  0
  2 86  1  0  0  0
  2 87  1  0  0  0
  3  4  1  0  0  0
  3 88  1  0  0  0
  3 89  1  0  0  0
  4  5  1  0  0  0
  4 90  1  0  0  0
  4 91  1  0  0  0
  5  6  1  0  0  0
  5 26  1  0  0  0
  5 92  1  0  0  0
  6 25  1  0  0  0
  6 93  1  0  0  0
  6 94  1  0  0  0
  7  8  2  0  0  0
  7 26  1  0  0  0
  7 29  1  0  0  0
  8  9  1  0  0  0
  8 22  1  0  0  0
  9 10  1  0  0  0
  9 27  2  0  0  0
 10 11  2  0  0  0
 10 15  1  0  0  0
 11 12  1  0  0  0
 11 95  1  0  0  0
 12 13  2  0  0  0
 12 96  1  0  0  0
 13 14  1  0  0  0
 13 31  1  0  0  0
 14 15  2  0  0  0
 14 97  1  0  0  0
 15 98  1  0  0  0
 16 17  2  0  0  0
 16 21  1  0  0  0
 16 31  1  0  0  0
 17 18  1  0  0  0
 17 99  1  0  0  0
 18 19  2  0  0  0
 18100  1  0  0  0
 19 20  1  0  0  0
 19 24  1  0  0  0
 20 21  2  0  0  0
 20101  1  0  0  0
 21 23  1  0  0  0
 22 28  1  0  0  0
 22 32  2  0  0  0
 26 27  1  0  0  0
 28102  1  0  0  0
 28103  1  0  0  0
 29104  1  0  0  0
 29105  1  0  0  0
 33 34  1  0  0  0
 33 66  1  0  0  0
 33 70  2  0  0  0
 34 36  1  0  0  0
 34 59  1  0  0  0
 34106  1  0  0  0
 35 44  2  0  0  0
 35 45  1  0  0  0
 35 68  1  0  0  0
 36 56  1  0  0  0
 36107  1  0  0  0
 37 39  1  0  0  0
 37 47  1  0  0  0
 37 66  1  0  0  0
 37108  1  0  0  0
 38 43  2  0  0  0
 38 46  1  0  0  0
 38 47  1  0  0  0
 39 64  1  0  0  0
 39 67  2  0  0  0
 40 52  1  0  0  0
 40 53  2  0  0  0
 40 58  1  0  0  0
 41109  1  0  0  0
 41110  1  0  0  0
 41111  1  0  0  0
 41 48  1  0  0  0
 42 43  1  0  0  0
 42 66  1  0  0  0
 42112  1  0  0  0
 42113  1  0  0  0
 43 44  1  0  0  0
 44114  1  0  0  0
 45 46  2  0  0  0
 45115  1  0  0  0
 46116  1  0  0  0
 47117  1  0  0  0
 47118  1  0  0  0
 48 56  1  0  0  0
 48 65  1  0  0  0
 48119  1  0  0  0
 49 50  1  0  0  0
 49 53  1  0  0  0
 49 64  1  0  0  0
 49120  1  0  0  0
 50 51  1  0  0  0
 50121  1  0  0  0
 50122  1  0  0  0
 51 52  1  0  0  0
 51123  1  0  0  0
 51124  1  0  0  0
 52125  1  0  0  0
 52126  1  0  0  0
 53 54  1  0  0  0
 54 55  2  0  0  0
 54127  1  0  0  0
 55 57  1  0  0  0
 55128  1  0  0  0
 56 69  2  0  0  0
 57 58  2  0  0  0
 57129  1  0  0  0
 58130  1  0  0  0
 59 60  1  0  0  0
 59 61  1  0  0  0
 59 62  1  0  0  0
 60131  1  0  0  0
 60132  1  0  0  0
 60133  1  0  0  0
 61134  1  0  0  0
 61135  1  0  0  0
 61136  1  0  0  0
 62137  1  0  0  0
 62138  1  0  0  0
 62139  1  0  0  0
 63 65  1  0  0  0
 63140  1  0  0  0
 63141  1  0  0  0
 63142  1  0  0  0
 64143  1  0  0  0
 65144  1  0  0  0
 68 83  1  0  0  0
 71 73  2  0  0  0
 71 74  1  0  0  0
 71145  1  0  0  0
 72 73  1  0  0  0
 72 75  2  0  0  0
 72146  1  0  0  0
 73 77  1  0  0  0
 74 78  1  0  0  0
 74 84  2  0  0  0
 75 79  1  0  0  0
 75 84  1  0  0  0
 76 77  1  0  0  0
 76147  1  0  0  0
 76148  1  0  0  0
 76149  1  0  0  0
 77150  1  0  0  0
 77151  1  0  0  0
 78 80  1  0  0  0
 78152  1  0  0  0
 78153  1  0  0  0
 79 83  1  0  0  0
 79154  1  0  0  0
 79155  1  0  0  0
 80 81  1  0  0  0
 80156  1  0  0  0
 80157  1  0  0  0
 81 82  1  0  0  0
 81158  1  0  0  0
 81159  1  0  0  0
 82 85  1  0  0  0
 82160  1  0  0  0
 82161  1  0  0  0
 83162  1  0  0  0
 83163  1  0  0  0
 85164  1  0  0  0
M  ISO  4   1 100  68 101  83 101  85 100
M  END
> <chiral flag>
0

> <version>
0

> <s_m_source_file>
/data/baiqing/PycharmProjects/Reinvent-master-3.2/result/LINK_invent/BTK/process_docking_weight1_custom_sum_contain_oxygen_bond_distance_aromatic_linkinvent_7_9_3/rearranged_h_0040.sdf

> <i_m_source_file_index>
47

> <r_mmod_Potential_Energy-OPLS-2005>
-226.754684448242

> <r_mmod_Stretch_Energy-OPLS-2005>
32.4043159484863

> <r_mmod_Bend_Energy-OPLS-2005>
92.4912719726562

> <r_mmod_Torsional_Energy-OPLS-2005>
214.113204956055

> <r_mmod_Improper_Torsional_Energy-OPLS-2005>
8.14594745635986

> <r_mmod_Van_der_Waal_Energy-OPLS-2005>
154.420608520508

> <r_mmod_Electrostatic_Energy-OPLS-2005>
-516.20849609375

> <r_mmod_Solvation_Energy-OPLS-2005>
-222.660949707031

> <b_mmod_Minimization_Converged-OPLS-2005>
0

> <r_mmod_RMS_Derivative-OPLS-2005>
3.37660002708435

$$$$
47
                    3D
 Structure written by MMmdl.
167175  0  0  1  0            999 V2000
  -30.7001  -14.4638   20.5279 C   0  0  0  0  0  0
  -30.4210  -12.2853   19.4242 C   0  0  0  0  0  0
  -29.4972  -12.4823   18.2053 C   0  0  0  0  0  0
  -28.0152  -12.3534   18.6146 C   0  0  0  0  0  0
  -27.6585  -13.2051   19.8620 C   0  0  2  0  0  0
  -28.7024  -13.0045   20.9845 C   0  0  0  0  0  0
  -25.2581  -13.8182   20.5646 C   0  0  0  0  0  0
  -24.1835  -13.0463   20.9168 C   0  0  0  0  0  0
  -24.6387  -11.6923   20.8751 C   0  0  0  0  0  0
  -23.9060  -10.4309   21.0418 C   0  0  0  0  0  0
  -24.3615   -9.4220   21.9182 C   0  0  0  0  0  0
  -23.6290   -8.2258   22.0746 C   0  0  0  0  0  0
  -22.4272   -8.0293   21.3541 C   0  0  0  0  0  0
  -21.9916   -9.0272   20.4644 C   0  0  0  0  0  0
  -22.7248  -10.2143   20.3059 C   0  0  0  0  0  0
  -21.6868   -6.0735   22.5285 C   0  0  0  0  0  0
  -21.4011   -6.5631   23.8213 C   0  0  0  0  0  0
  -21.3653   -5.6782   24.9177 C   0  0  0  0  0  0
  -21.6056   -4.3049   24.7224 C   0  0  0  0  0  0
  -21.8824   -3.8134   23.4353 C   0  0  0  0  0  0
  -21.9181   -4.6954   22.3404 C   0  0  0  0  0  0
  -22.7845  -13.5251   21.1831 C   0  0  0  0  0  0
  -22.1651   -4.2134   21.0984 F   0  0  0  0  0  0
  -21.5631   -3.4538   25.7741 F   0  0  0  0  0  0
  -30.0355  -13.2822   20.4323 N   0  0  0  0  0  0
  -26.3008  -12.9331   20.3305 N   0  0  0  0  0  0
  -25.9309  -11.6501   20.5766 N   0  0  0  0  0  0
  -22.0486  -12.8248   22.0391 N   0  0  0  0  0  0
  -25.4333  -15.1908   20.4034 N   0  0  0  0  0  0
  -31.8571  -14.5964   20.1177 O   0  0  0  0  0  0
  -21.6648   -6.8887   21.4243 O   0  0  0  0  0  0
  -22.3521  -14.5560   20.6690 O   0  0  0  0  0  0
  -24.6112  -31.8698   23.2108 C   0  0  0  0  0  0
  -25.9019  -32.4835   23.8401 C   0  0  1  0  0  0
  -27.2354  -27.4645   20.0802 C   0  0  0  0  0  0
  -25.5893  -33.8636   24.2338 N   0  0  0  0  0  0
  -23.3978  -30.4938   21.5503 C   0  0  2  0  0  0
  -24.8449  -28.9585   20.1183 C   0  0  0  0  0  0
  -22.7391  -29.4670   22.4992 C   0  0  0  0  0  0
  -18.0261  -28.1365   22.8491 C   0  0  0  0  0  0
  -24.1482  -36.7324   23.2639 C   0  0  0  0  0  0
  -25.9238  -30.8445   21.3582 C   0  0  0  0  0  0
  -26.0043  -29.4792   20.7082 C   0  0  0  0  0  0
  -27.2063  -28.7382   20.6872 C   0  0  0  0  0  0
  -26.0637  -26.9498   19.4920 C   0  0  0  0  0  0
  -24.8673  -27.6910   19.5104 C   0  0  0  0  0  0
  -23.6059  -29.8236   20.1659 C   0  0  0  0  0  0
  -25.4101  -36.3119   24.0341 C   0  0  1  0  0  0
  -20.5850  -28.3651   23.1325 C   0  0  2  0  0  0
  -20.6745  -26.9390   22.5419 C   0  0  0  0  0  0
  -19.5725  -26.6376   21.5211 C   0  0  0  0  0  0
  -18.1907  -26.7915   22.1624 C   0  0  0  0  0  0
  -19.1511  -28.8825   23.2911 C   0  0  0  0  0  0
  -18.9448  -30.1430   23.8914 C   0  0  0  0  0  0
  -17.6454  -30.6580   24.0565 C   0  0  0  0  0  0
  -25.9026  -34.9484   23.5136 C   0  0  0  0  0  0
  -16.5340  -29.9085   23.6318 C   0  0  0  0  0  0
  -16.7255  -28.6499   23.0345 C   0  0  0  0  0  0
  -26.4460  -31.6596   25.0715 C   0  0  0  0  0  0
  -25.3751  -31.3696   26.1482 C   0  0  0  0  0  0
  -27.0288  -30.3042   24.6065 C   0  0  0  0  0  0
  -27.6034  -32.4310   25.7481 C   0  0  0  0  0  0
  -27.5577  -37.1813   24.8466 C   0  0  0  0  0  0
  -21.4120  -29.3037   22.3747 N   0  0  0  0  0  0
  -26.4290  -37.3799   23.9406 N   0  0  0  0  0  0
  -24.6625  -31.0828   22.0992 N   0  0  0  0  0  0
  -23.4173  -28.8209   23.3023 O   0  0  0  0  0  0
  -28.3933  -26.7292   20.0451 O   0  0  0  0  0  0
  -26.5596  -34.8928   22.4695 O   0  0  0  0  0  0
  -23.5316  -32.1428   23.7525 O   0  0  0  0  0  0
  -27.7263  -22.6543   19.0635 C   0  0  0  0  0  0
  -28.6633  -21.7139   19.5309 C   0  0  0  0  0  0
  -29.5597  -22.2062   20.5162 C   0  0  0  0  0  0
  -28.5334  -24.2707   20.4507 C   0  0  0  0  0  0
  -31.9740  -22.0731   18.0958 C   0  0  0  0  0  0
  -28.5660  -20.3082   18.9025 C   0  0  0  0  0  0
  -30.6964  -21.4388   21.1756 C   0  0  0  0  0  0
  -28.4470  -25.6860   21.0254 C   0  0  0  0  0  0
  -29.9606  -15.7481   20.9684 C   0  0  0  0  0  0
  -32.3148  -22.6939   19.4545 C   0  0  0  0  0  0
  -29.6657  -19.2315   19.0661 C   0  0  0  0  0  0
  -32.1308  -21.7426   20.6592 C   0  0  0  0  0  0
  -30.3549  -16.9758   20.0983 C   0  0  0  0  0  0
  -29.3381  -18.1374   20.1123 C   0  0  0  0  0  0
  -27.6648  -23.9181   19.5130 N   0  0  0  0  0  0
  -29.4569  -23.4712   20.9691 N   0  0  0  0  0  0
  -31.4657  -12.3724   19.1228 H   0  0  0  0  0  0
  -30.3112  -11.2773   19.8290 H   0  0  0  0  0  0
  -29.7346  -11.7480   17.4346 H   0  0  0  0  0  0
  -29.6765  -13.4613   17.7580 H   0  0  0  0  0  0
  -27.8237  -11.3003   18.8205 H   0  0  0  0  0  0
  -27.3674  -12.6216   17.7794 H   0  0  0  0  0  0
  -27.6929  -14.2467   19.5431 H   0  0  0  0  0  0
  -28.6709  -11.9802   21.3574 H   0  0  0  0  0  0
  -28.4786  -13.6335   21.8453 H   0  0  0  0  0  0
  -25.2775   -9.5693   22.4728 H   0  0  0  0  0  0
  -24.0007   -7.4659   22.7469 H   0  0  0  0  0  0
  -21.0847   -8.8829   19.8947 H   0  0  0  0  0  0
  -22.3754  -10.9684   19.6153 H   0  0  0  0  0  0
  -21.2012   -7.6135   23.9723 H   0  0  0  0  0  0
  -21.1465   -6.0505   25.9084 H   0  0  0  0  0  0
  -22.0600   -2.7593   23.2870 H   0  0  0  0  0  0
  -22.4091  -11.9924   22.4813 H   0  0  0  0  0  0
  -21.1092  -13.1270   22.2569 H   0  0  0  0  0  0
  -24.6820  -15.8607   20.5322 H   0  0  0  0  0  0
  -26.2969  -15.6226   20.1005 H   0  0  0  0  0  0
  -26.7101  -32.5554   23.1178 H   0  0  0  0  0  0
  -25.0034  -33.9794   25.0484 H   0  0  0  0  0  0
  -22.6850  -31.3092   21.4122 H   0  0  0  0  0  0
  -23.3733  -35.9670   23.3317 H   0  0  0  0  0  0
  -24.3584  -36.8921   22.2052 H   0  0  0  0  0  0
  -23.7243  -37.6537   23.6644 H   0  0  0  0  0  0
  -26.0305  -31.6124   20.5899 H   0  0  0  0  0  0
  -26.8127  -30.9010   21.9744 H   0  0  0  0  0  0
  -28.1048  -29.1420   21.1333 H   0  0  0  0  0  0
  -26.0778  -25.9819   19.0132 H   0  0  0  0  0  0
  -23.9764  -27.2833   19.0532 H   0  0  0  0  0  0
  -23.7130  -30.5975   19.4047 H   0  0  0  0  0  0
  -22.7298  -29.2437   19.8697 H   0  0  0  0  0  0
  -25.1276  -36.1986   25.0839 H   0  0  0  0  0  0
  -20.9952  -28.3209   24.1441 H   0  0  0  0  0  0
  -20.5623  -26.2273   23.3608 H   0  0  0  0  0  0
  -21.6623  -26.7416   22.1231 H   0  0  0  0  0  0
  -19.6886  -25.6294   21.1225 H   0  0  0  0  0  0
  -19.6652  -27.3199   20.6754 H   0  0  0  0  0  0
  -17.4173  -26.6660   21.4028 H   0  0  0  0  0  0
  -18.0311  -26.0052   22.9020 H   0  0  0  0  0  0
  -19.7932  -30.7245   24.2286 H   0  0  0  0  0  0
  -17.5012  -31.6260   24.5172 H   0  0  0  0  0  0
  -15.5342  -30.2998   23.7633 H   0  0  0  0  0  0
  -15.8654  -28.0831   22.7041 H   0  0  0  0  0  0
  -24.5910  -30.7055   25.7831 H   0  0  0  0  0  0
  -24.8965  -32.2860   26.4951 H   0  0  0  0  0  0
  -25.8128  -30.8851   27.0222 H   0  0  0  0  0  0
  -26.2826  -29.6807   24.1128 H   0  0  0  0  0  0
  -27.4085  -29.7265   25.4503 H   0  0  0  0  0  0
  -27.8646  -30.4367   23.9189 H   0  0  0  0  0  0
  -27.2641  -33.3587   26.2097 H   0  0  0  0  0  0
  -28.3824  -32.6904   25.0303 H   0  0  0  0  0  0
  -28.0724  -31.8416   26.5365 H   0  0  0  0  0  0
  -28.2604  -38.0100   24.7509 H   0  0  0  0  0  0
  -28.1058  -36.2636   24.6292 H   0  0  0  0  0  0
  -27.2307  -37.1474   25.8873 H   0  0  0  0  0  0
  -20.9266  -29.8803   21.7021 H   0  0  0  0  0  0
  -26.0180  -38.2878   24.1401 H   0  0  0  0  0  0
  -27.0004  -22.3866   18.3089 H   0  0  0  0  0  0
  -32.1988  -22.7723   17.2896 H   0  0  0  0  0  0
  -30.9188  -21.8239   18.0158 H   0  0  0  0  0  0
  -32.5504  -21.1653   17.9189 H   0  0  0  0  0  0
  -28.4808  -20.4889   17.8290 H   0  0  0  0  0  0
  -27.6016  -19.8829   19.1833 H   0  0  0  0  0  0
  -30.5063  -20.3754   21.1945 H   0  0  0  0  0  0
  -30.6690  -21.6920   22.2364 H   0  0  0  0  0  0
  -29.3265  -25.8753   21.6417 H   0  0  0  0  0  0
  -27.5968  -25.7207   21.7094 H   0  0  0  0  0  0
  -30.1680  -15.9403   22.0198 H   0  0  0  0  0  0
  -28.8844  -15.6125   20.8916 H   0  0  0  0  0  0
  -31.7549  -23.6179   19.5950 H   0  0  0  0  0  0
  -33.3613  -22.9999   19.4225 H   0  0  0  0  0  0
  -30.6631  -19.6547   19.1697 H   0  0  0  0  0  0
  -29.7137  -18.7103   18.1070 H   0  0  0  0  0  0
  -32.6506  -20.8039   20.4664 H   0  0  0  0  0  0
  -32.6732  -22.1889   21.4935 H   0  0  0  0  0  0
  -31.3301  -17.3476   20.4140 H   0  0  0  0  0  0
  -30.4859  -16.6549   19.0627 H   0  0  0  0  0  0
  -29.2610  -18.5574   21.1149 H   0  0  0  0  0  0
  -28.3503  -17.7353   19.8839 H   0  0  0  0  0  0
  1 25  1  0  0  0
  1 30  2  0  0  0
  1 79  1  0  0  0
  2  3  1  0  0  0
  2 25  1  0  0  0
  2 87  1  0  0  0
  2 88  1  0  0  0
  3  4  1  0  0  0
  3 89  1  0  0  0
  3 90  1  0  0  0
  4  5  1  0  0  0
  4 91  1  0  0  0
  4 92  1  0  0  0
  5  6  1  0  0  0
  5 26  1  0  0  0
  5 93  1  0  0  0
  6 25  1  0  0  0
  6 94  1  0  0  0
  6 95  1  0  0  0
  7  8  2  0  0  0
  7 26  1  0  0  0
  7 29  1  0  0  0
  8  9  1  0  0  0
  8 22  1  0  0  0
  9 10  1  0  0  0
  9 27  2  0  0  0
 10 11  2  0  0  0
 10 15  1  0  0  0
 11 12  1  0  0  0
 11 96  1  0  0  0
 12 13  2  0  0  0
 12 97  1  0  0  0
 13 14  1  0  0  0
 13 31  1  0  0  0
 14 15  2  0  0  0
 14 98  1  0  0  0
 15 99  1  0  0  0
 16 17  2  0  0  0
 16 21  1  0  0  0
 16 31  1  0  0  0
 17 18  1  0  0  0
 17100  1  0  0  0
 18 19  2  0  0  0
 18101  1  0  0  0
 19 20  1  0  0  0
 19 24  1  0  0  0
 20 21  2  0  0  0
 20102  1  0  0  0
 21 23  1  0  0  0
 22 28  1  0  0  0
 22 32  2  0  0  0
 26 27  1  0  0  0
 28103  1  0  0  0
 28104  1  0  0  0
 29105  1  0  0  0
 29106  1  0  0  0
 33 34  1  0  0  0
 33 66  1  0  0  0
 33 70  2  0  0  0
 34 36  1  0  0  0
 34 59  1  0  0  0
 34107  1  0  0  0
 35 44  2  0  0  0
 35 45  1  0  0  0
 35 68  1  0  0  0
 36 56  1  0  0  0
 36108  1  0  0  0
 37 39  1  0  0  0
 37 47  1  0  0  0
 37 66  1  0  0  0
 37109  1  0  0  0
 38 43  2  0  0  0
 38 46  1  0  0  0
 38 47  1  0  0  0
 39 64  1  0  0  0
 39 67  2  0  0  0
 40 52  1  0  0  0
 40 53  2  0  0  0
 40 58  1  0  0  0
 41110  1  0  0  0
 41111  1  0  0  0
 41112  1  0  0  0
 41 48  1  0  0  0
 42 43  1  0  0  0
 42 66  1  0  0  0
 42113  1  0  0  0
 42114  1  0  0  0
 43 44  1  0  0  0
 44115  1  0  0  0
 45 46  2  0  0  0
 45116  1  0  0  0
 46117  1  0  0  0
 47118  1  0  0  0
 47119  1  0  0  0
 48 56  1  0  0  0
 48 65  1  0  0  0
 48120  1  0  0  0
 49 50  1  0  0  0
 49 53  1  0  0  0
 49 64  1  0  0  0
 49121  1  0  0  0
 50 51  1  0  0  0
 50122  1  0  0  0
 50123  1  0  0  0
 51 52  1  0  0  0
 51124  1  0  0  0
 51125  1  0  0  0
 52126  1  0  0  0
 52127  1  0  0  0
 53 54  1  0  0  0
 54 55  2  0  0  0
 54128  1  0  0  0
 55 57  1  0  0  0
 55129  1  0  0  0
 56 69  2  0  0  0
 57 58  2  0  0  0
 57130  1  0  0  0
 58131  1  0  0  0
 59 60  1  0  0  0
 59 61  1  0  0  0
 59 62  1  0  0  0
 60132  1  0  0  0
 60133  1  0  0  0
 60134  1  0  0  0
 61135  1  0  0  0
 61136  1  0  0  0
 61137  1  0  0  0
 62138  1  0  0  0
 62139  1  0  0  0
 62140  1  0  0  0
 63 65  1  0  0  0
 63141  1  0  0  0
 63142  1  0  0  0
 63143  1  0  0  0
 64144  1  0  0  0
 65145  1  0  0  0
 68 78  1  0  0  0
 71 72  2  0  0  0
 71 85  1  0  0  0
 71146  1  0  0  0
 72 73  1  0  0  0
 72 76  1  0  0  0
 73 77  1  0  0  0
 73 86  2  0  0  0
 74 78  1  0  0  0
 74 85  2  0  0  0
 74 86  1  0  0  0
 75 80  1  0  0  0
 75147  1  0  0  0
 75148  1  0  0  0
 75149  1  0  0  0
 76 81  1  0  0  0
 76150  1  0  0  0
 76151  1  0  0  0
 77 82  1  0  0  0
 77152  1  0  0  0
 77153  1  0  0  0
 78154  1  0  0  0
 78155  1  0  0  0
 79 83  1  0  0  0
 79156  1  0  0  0
 79157  1  0  0  0
 80 82  1  0  0  0
 80158  1  0  0  0
 80159  1  0  0  0
 81 84  1  0  0  0
 81160  1  0  0  0
 81161  1  0  0  0
 82162  1  0  0  0
 82163  1  0  0  0
 83 84  1  0  0  0
 83164  1  0  0  0
 83165  1  0  0  0
 84166  1  0  0  0
 84167  1  0  0  0
M  ISO  4   1 100  68 101  78 101  79 100
M  END
> <chiral flag>
0

> <version>
0

> <s_m_source_file>
/data/baiqing/PycharmProjects/Reinvent-master-3.2/result/LINK_invent/BTK/process_docking_weight1_custom_sum_contain_oxygen_bond_distance_aromatic_linkinvent_7_9_3/rearranged_h_0040.sdf

> <i_m_source_file_index>
48

> <r_mmod_Potential_Energy-OPLS-2005>
-289.783264160156

> <r_mmod_Stretch_Energy-OPLS-2005>
36.232738494873

> <r_mmod_Bend_Energy-OPLS-2005>
131.69873046875

> <r_mmod_Torsional_Energy-OPLS-2005>
218.63752746582

> <r_mmod_Improper_Torsional_Energy-OPLS-2005>
3.994961977005

> <r_mmod_Van_der_Waal_Energy-OPLS-2005>
157.304107666016

> <r_mmod_Electrostatic_Energy-OPLS-2005>
-645.545349121094

> <r_mmod_Solvation_Energy-OPLS-2005>
-205.017913818359

> <b_mmod_Minimization_Converged-OPLS-2005>
0

> <r_mmod_RMS_Derivative-OPLS-2005>
2.15496778488159

$$$$
48
                    3D
 Structure written by MMmdl.
158166  0  0  1  0            999 V2000
  -30.6665  -14.6273   20.4984 C   0  0  0  0  0  0
  -30.4231  -12.3921   19.4431 C   0  0  0  0  0  0
  -29.4890  -12.4900   18.2189 C   0  0  0  0  0  0
  -28.0186  -12.3250   18.6446 C   0  0  0  0  0  0
  -27.6463  -13.2180   19.8576 C   0  0  2  0  0  0
  -28.6941  -13.1121   20.9889 C   0  0  0  0  0  0
  -25.2534  -13.8191   20.5698 C   0  0  0  0  0  0
  -24.1805  -13.0466   20.9213 C   0  0  0  0  0  0
  -24.6383  -11.6937   20.8802 C   0  0  0  0  0  0
  -23.9069  -10.4321   21.0449 C   0  0  0  0  0  0
  -24.3617   -9.4227   21.9221 C   0  0  0  0  0  0
  -23.6292   -8.2261   22.0774 C   0  0  0  0  0  0
  -22.4283   -8.0301   21.3549 C   0  0  0  0  0  0
  -21.9926   -9.0283   20.4658 C   0  0  0  0  0  0
  -22.7254  -10.2164   20.3086 C   0  0  0  0  0  0
  -21.6854   -6.0754   22.5290 C   0  0  0  0  0  0
  -21.4010   -6.5649   23.8225 C   0  0  0  0  0  0
  -21.3649   -5.6796   24.9181 C   0  0  0  0  0  0
  -21.6043   -4.3063   24.7232 C   0  0  0  0  0  0
  -21.8813   -3.8159   23.4350 C   0  0  0  0  0  0
  -21.9184   -4.6979   22.3406 C   0  0  0  0  0  0
  -22.7818  -13.5252   21.1862 C   0  0  0  0  0  0
  -22.1649   -4.2167   21.0989 F   0  0  0  0  0  0
  -21.5627   -3.4545   25.7736 F   0  0  0  0  0  0
  -30.0053  -13.4315   20.4080 N   0  0  0  0  0  0
  -26.2960  -12.9375   20.3346 N   0  0  0  0  0  0
  -25.9308  -11.6538   20.5830 N   0  0  0  0  0  0
  -22.0441  -12.8256   22.0410 N   0  0  0  0  0  0
  -25.4270  -15.1915   20.4053 N   0  0  0  0  0  0
  -31.8427  -14.7260   20.1435 O   0  0  0  0  0  0
  -21.6638   -6.8902   21.4251 O   0  0  0  0  0  0
  -22.3521  -14.5575   20.6717 O   0  0  0  0  0  0
  -24.6220  -31.8628   23.2010 C   0  0  0  0  0  0
  -25.9071  -32.4800   23.8358 C   0  0  1  0  0  0
  -27.2436  -27.3586   20.1039 C   0  0  0  0  0  0
  -25.5925  -33.8589   24.2303 N   0  0  0  0  0  0
  -23.4205  -30.4781   21.5400 C   0  0  2  0  0  0
  -24.8747  -28.9383   20.1076 C   0  0  0  0  0  0
  -22.7484  -29.4605   22.4923 C   0  0  0  0  0  0
  -18.0320  -28.1351   22.8484 C   0  0  0  0  0  0
  -24.1506  -36.7271   23.2651 C   0  0  0  0  0  0
  -25.9554  -30.8055   21.3668 C   0  0  0  0  0  0
  -26.0420  -29.4339   20.7086 C   0  0  0  0  0  0
  -27.2348  -28.6547   20.6980 C   0  0  0  0  0  0
  -26.0620  -26.9047   19.4841 C   0  0  0  0  0  0
  -24.8857  -27.6791   19.4832 C   0  0  0  0  0  0
  -23.6366  -29.8068   20.1579 C   0  0  0  0  0  0
  -25.4124  -36.3080   24.0335 C   0  0  1  0  0  0
  -20.5905  -28.3656   23.1273 C   0  0  2  0  0  0
  -20.6807  -26.9375   22.5397 C   0  0  0  0  0  0
  -19.5779  -26.6366   21.5205 C   0  0  0  0  0  0
  -18.1955  -26.7902   22.1616 C   0  0  0  0  0  0
  -19.1563  -28.8821   23.2889 C   0  0  0  0  0  0
  -18.9483  -30.1428   23.8885 C   0  0  0  0  0  0
  -17.6485  -30.6558   24.0538 C   0  0  0  0  0  0
  -25.9041  -34.9452   23.5108 C   0  0  0  0  0  0
  -16.5380  -29.9037   23.6328 C   0  0  0  0  0  0
  -16.7308  -28.6463   23.0341 C   0  0  0  0  0  0
  -26.4495  -31.6592   25.0703 C   0  0  0  0  0  0
  -25.3744  -31.3686   26.1446 C   0  0  0  0  0  0
  -27.0361  -30.3047   24.6079 C   0  0  0  0  0  0
  -27.6057  -32.4350   25.7464 C   0  0  0  0  0  0
  -27.5592  -37.1778   24.8470 C   0  0  0  0  0  0
  -21.4194  -29.3014   22.3666 N   0  0  0  0  0  0
  -26.4319  -37.3751   23.9396 N   0  0  0  0  0  0
  -24.6836  -31.0646   22.0941 N   0  0  0  0  0  0
  -23.4204  -28.8167   23.3025 O   0  0  0  0  0  0
  -28.3401  -26.4950   20.1236 O   0  0  0  0  0  0
  -26.5613  -34.8924   22.4680 O   0  0  0  0  0  0
  -23.5395  -32.1406   23.7342 O   0  0  0  0  0  0
  -28.2757  -21.4763   21.1636 C   0  0  0  0  0  0
  -30.2598  -22.3694   20.1994 C   0  0  0  0  0  0
  -29.5633  -21.2197   20.6526 C   0  0  0  0  0  0
  -27.7804  -22.8096   21.2618 C   0  0  0  0  0  0
  -28.5733  -23.9163   20.8033 C   0  0  0  0  0  0
  -25.2465  -22.4627   21.1404 C   0  0  0  0  0  0
  -30.2764  -19.8155   20.6806 C   0  0  0  0  0  0
  -26.4347  -22.9577   21.9738 C   0  0  0  0  0  0
  -28.2394  -25.4302   21.1299 C   0  0  0  0  0  0
  -29.5111  -18.4198   20.7577 C   0  0  0  0  0  0
  -30.4908  -17.1594   20.7912 C   0  0  0  0  0  0
  -29.7939  -23.6515   20.2643 N   0  0  0  0  0  0
  -29.9447  -15.7547   20.7980 N   0  0  0  0  0  0
  -31.4598  -12.5086   19.1244 H   0  0  0  0  0  0
  -30.3608  -11.4020   19.8990 H   0  0  0  0  0  0
  -29.7479  -11.7300   17.4813 H   0  0  0  0  0  0
  -29.6214  -13.4556   17.7275 H   0  0  0  0  0  0
  -27.8648  -11.2744   18.8975 H   0  0  0  0  0  0
  -27.3527  -12.5318   17.8061 H   0  0  0  0  0  0
  -27.6585  -14.2459   19.4934 H   0  0  0  0  0  0
  -28.7076  -12.1069   21.4145 H   0  0  0  0  0  0
  -28.4468  -13.7860   21.8108 H   0  0  0  0  0  0
  -25.2759   -9.5689   22.4809 H   0  0  0  0  0  0
  -23.9993   -7.4642   22.7497 H   0  0  0  0  0  0
  -21.0859   -8.8822   19.8945 H   0  0  0  0  0  0
  -22.3737  -10.9718   19.6201 H   0  0  0  0  0  0
  -21.2010   -7.6159   23.9734 H   0  0  0  0  0  0
  -21.1465   -6.0528   25.9086 H   0  0  0  0  0  0
  -22.0596   -2.7625   23.2850 H   0  0  0  0  0  0
  -22.4001  -11.9882   22.4782 H   0  0  0  0  0  0
  -21.1073  -13.1328   22.2629 H   0  0  0  0  0  0
  -24.6652  -15.8522   20.5187 H   0  0  0  0  0  0
  -26.2781  -15.6265   20.0723 H   0  0  0  0  0  0
  -26.7149  -32.5505   23.1123 H   0  0  0  0  0  0
  -25.0124  -33.9754   25.0488 H   0  0  0  0  0  0
  -22.7154  -31.2975   21.3912 H   0  0  0  0  0  0
  -23.3796  -35.9583   23.3323 H   0  0  0  0  0  0
  -24.3609  -36.8883   22.2070 H   0  0  0  0  0  0
  -23.7252  -37.6454   23.6683 H   0  0  0  0  0  0
  -26.0818  -31.5776   20.6069 H   0  0  0  0  0  0
  -26.8367  -30.8576   21.9929 H   0  0  0  0  0  0
  -28.1364  -29.0276   21.1676 H   0  0  0  0  0  0
  -26.0557  -25.9337   19.0074 H   0  0  0  0  0  0
  -23.9936  -27.2991   19.0043 H   0  0  0  0  0  0
  -23.7406  -30.5803   19.3957 H   0  0  0  0  0  0
  -22.7639  -29.2190   19.8664 H   0  0  0  0  0  0
  -25.1315  -36.1939   25.0831 H   0  0  0  0  0  0
  -21.0030  -28.3246   24.1384 H   0  0  0  0  0  0
  -20.5754  -26.2247   23.3586 H   0  0  0  0  0  0
  -21.6667  -26.7431   22.1152 H   0  0  0  0  0  0
  -19.6957  -25.6286   21.1222 H   0  0  0  0  0  0
  -19.6735  -27.3194   20.6740 H   0  0  0  0  0  0
  -17.4232  -26.6688   21.4009 H   0  0  0  0  0  0
  -18.0327  -26.0028   22.8988 H   0  0  0  0  0  0
  -19.7968  -30.7229   24.2258 H   0  0  0  0  0  0
  -17.5039  -31.6243   24.5141 H   0  0  0  0  0  0
  -15.5367  -30.2926   23.7645 H   0  0  0  0  0  0
  -15.8717  -28.0770   22.7042 H   0  0  0  0  0  0
  -24.5941  -30.7019   25.7757 H   0  0  0  0  0  0
  -24.8920  -32.2830   26.4896 H   0  0  0  0  0  0
  -25.8097  -30.8855   27.0205 H   0  0  0  0  0  0
  -26.2903  -29.6757   24.1201 H   0  0  0  0  0  0
  -27.4221  -29.7325   25.4521 H   0  0  0  0  0  0
  -27.8702  -30.4386   23.9186 H   0  0  0  0  0  0
  -27.2684  -33.3704   26.1944 H   0  0  0  0  0  0
  -28.3892  -32.6821   25.0287 H   0  0  0  0  0  0
  -28.0685  -31.8535   26.5445 H   0  0  0  0  0  0
  -28.2577  -38.0111   24.7523 H   0  0  0  0  0  0
  -28.1131  -36.2617   24.6307 H   0  0  0  0  0  0
  -27.2295  -37.1410   25.8876 H   0  0  0  0  0  0
  -20.9375  -29.8712   21.6854 H   0  0  0  0  0  0
  -26.0218  -38.2829   24.1421 H   0  0  0  0  0  0
  -27.6859  -20.6552   21.5507 H   0  0  0  0  0  0
  -31.2673  -22.2620   19.8205 H   0  0  0  0  0  0
  -24.3436  -22.4138   21.7526 H   0  0  0  0  0  0
  -25.4208  -21.4621   20.7429 H   0  0  0  0  0  0
  -25.0408  -23.1278   20.3018 H   0  0  0  0  0  0
  -30.9638  -19.8501   21.5277 H   0  0  0  0  0  0
  -30.9234  -19.7773   19.8019 H   0  0  0  0  0  0
  -26.2176  -23.9602   22.3285 H   0  0  0  0  0  0
  -26.4937  -22.3627   22.8853 H   0  0  0  0  0  0
  -28.9376  -25.7183   21.9164 H   0  0  0  0  0  0
  -27.2668  -25.5117   21.6028 H   0  0  0  0  0  0
  -28.8428  -18.3359   19.9016 H   0  0  0  0  0  0
  -28.8738  -18.4053   21.6440 H   0  0  0  0  0  0
  -31.1331  -17.2516   21.6689 H   0  0  0  0  0  0
  -31.1651  -17.2482   19.9377 H   0  0  0  0  0  0
  -28.9691  -15.6294   21.0255 H   0  0  0  0  0  0
  1 25  1  0  0  0
  1 30  2  0  0  0
  1 83  1  0  0  0
  2  3  1  0  0  0
  2 25  1  0  0  0
  2 84  1  0  0  0
  2 85  1  0  0  0
  3  4  1  0  0  0
  3 86  1  0  0  0
  3 87  1  0  0  0
  4  5  1  0  0  0
  4 88  1  0  0  0
  4 89  1  0  0  0
  5  6  1  0  0  0
  5 26  1  0  0  0
  5 90  1  0  0  0
  6 25  1  0  0  0
  6 91  1  0  0  0
  6 92  1  0  0  0
  7  8  2  0  0  0
  7 26  1  0  0  0
  7 29  1  0  0  0
  8  9  1  0  0  0
  8 22  1  0  0  0
  9 10  1  0  0  0
  9 27  2  0  0  0
 10 11  2  0  0  0
 10 15  1  0  0  0
 11 12  1  0  0  0
 11 93  1  0  0  0
 12 13  2  0  0  0
 12 94  1  0  0  0
 13 14  1  0  0  0
 13 31  1  0  0  0
 14 15  2  0  0  0
 14 95  1  0  0  0
 15 96  1  0  0  0
 16 17  2  0  0  0
 16 21  1  0  0  0
 16 31  1  0  0  0
 17 18  1  0  0  0
 17 97  1  0  0  0
 18 19  2  0  0  0
 18 98  1  0  0  0
 19 20  1  0  0  0
 19 24  1  0  0  0
 20 21  2  0  0  0
 20 99  1  0  0  0
 21 23  1  0  0  0
 22 28  1  0  0  0
 22 32  2  0  0  0
 26 27  1  0  0  0
 28100  1  0  0  0
 28101  1  0  0  0
 29102  1  0  0  0
 29103  1  0  0  0
 33 34  1  0  0  0
 33 66  1  0  0  0
 33 70  2  0  0  0
 34 36  1  0  0  0
 34 59  1  0  0  0
 34104  1  0  0  0
 35 44  2  0  0  0
 35 45  1  0  0  0
 35 68  1  0  0  0
 36 56  1  0  0  0
 36105  1  0  0  0
 37 39  1  0  0  0
 37 47  1  0  0  0
 37 66  1  0  0  0
 37106  1  0  0  0
 38 43  2  0  0  0
 38 46  1  0  0  0
 38 47  1  0  0  0
 39 64  1  0  0  0
 39 67  2  0  0  0
 40 52  1  0  0  0
 40 53  2  0  0  0
 40 58  1  0  0  0
 41107  1  0  0  0
 41108  1  0  0  0
 41109  1  0  0  0
 41 48  1  0  0  0
 42 43  1  0  0  0
 42 66  1  0  0  0
 42110  1  0  0  0
 42111  1  0  0  0
 43 44  1  0  0  0
 44112  1  0  0  0
 45 46  2  0  0  0
 45113  1  0  0  0
 46114  1  0  0  0
 47115  1  0  0  0
 47116  1  0  0  0
 48 56  1  0  0  0
 48 65  1  0  0  0
 48117  1  0  0  0
 49 50  1  0  0  0
 49 53  1  0  0  0
 49 64  1  0  0  0
 49118  1  0  0  0
 50 51  1  0  0  0
 50119  1  0  0  0
 50120  1  0  0  0
 51 52  1  0  0  0
 51121  1  0  0  0
 51122  1  0  0  0
 52123  1  0  0  0
 52124  1  0  0  0
 53 54  1  0  0  0
 54 55  2  0  0  0
 54125  1  0  0  0
 55 57  1  0  0  0
 55126  1  0  0  0
 56 69  2  0  0  0
 57 58  2  0  0  0
 57127  1  0  0  0
 58128  1  0  0  0
 59 60  1  0  0  0
 59 61  1  0  0  0
 59 62  1  0  0  0
 60129  1  0  0  0
 60130  1  0  0  0
 60131  1  0  0  0
 61132  1  0  0  0
 61133  1  0  0  0
 61134  1  0  0  0
 62135  1  0  0  0
 62136  1  0  0  0
 62137  1  0  0  0
 63 65  1  0  0  0
 63138  1  0  0  0
 63139  1  0  0  0
 63140  1  0  0  0
 64141  1  0  0  0
 65142  1  0  0  0
 68 79  1  0  0  0
 71 73  2  0  0  0
 71 74  1  0  0  0
 71143  1  0  0  0
 72 73  1  0  0  0
 72 82  2  0  0  0
 72144  1  0  0  0
 73 77  1  0  0  0
 74 75  2  0  0  0
 74 78  1  0  0  0
 75 79  1  0  0  0
 75 82  1  0  0  0
 76 78  1  0  0  0
 76145  1  0  0  0
 76146  1  0  0  0
 76147  1  0  0  0
 77 80  1  0  0  0
 77148  1  0  0  0
 77149  1  0  0  0
 78150  1  0  0  0
 78151  1  0  0  0
 79152  1  0  0  0
 79153  1  0  0  0
 80 81  1  0  0  0
 80154  1  0  0  0
 80155  1  0  0  0
 81 83  1  0  0  0
 81156  1  0  0  0
 81157  1  0  0  0
 83158  1  0  0  0
M  ISO  4   1 100  68 101  79 101  83 100
M  END
> <chiral flag>
0

> <version>
0

> <s_m_source_file>
/data/baiqing/PycharmProjects/Reinvent-master-3.2/result/LINK_invent/BTK/process_docking_weight1_custom_sum_contain_oxygen_bond_distance_aromatic_linkinvent_7_9_3/rearranged_h_0040.sdf

> <i_m_source_file_index>
49

> <r_mmod_Potential_Energy-OPLS-2005>
-40.212776184082

> <r_mmod_Stretch_Energy-OPLS-2005>
77.7008056640625

> <r_mmod_Bend_Energy-OPLS-2005>
144.051345825195

> <r_mmod_Torsional_Energy-OPLS-2005>
236.815887451172

> <r_mmod_Improper_Torsional_Energy-OPLS-2005>
6.11807441711426

> <r_mmod_Van_der_Waal_Energy-OPLS-2005>
143.319595336914

> <r_mmod_Electrostatic_Energy-OPLS-2005>
-464.642028808594

> <r_mmod_Solvation_Energy-OPLS-2005>
-226.610977172852

> <b_mmod_Minimization_Converged-OPLS-2005>
0

> <r_mmod_RMS_Derivative-OPLS-2005>
3.87127113342285

$$$$
49
                    3D
 Structure written by MMmdl.
156164  0  0  1  0            999 V2000
  -30.7009  -14.4049   20.6108 C   0  0  0  0  0  0
  -30.4248  -12.2690   19.4248 C   0  0  0  0  0  0
  -29.4983  -12.5103   18.2148 C   0  0  0  0  0  0
  -28.0156  -12.3835   18.6173 C   0  0  0  0  0  0
  -27.6724  -13.1955   19.8927 C   0  0  2  0  0  0
  -28.7069  -12.9258   21.0146 C   0  0  0  0  0  0
  -25.2608  -13.8154   20.5679 C   0  0  0  0  0  0
  -24.1851  -13.0440   20.9177 C   0  0  0  0  0  0
  -24.6370  -11.6910   20.8726 C   0  0  0  0  0  0
  -23.9028  -10.4305   21.0370 C   0  0  0  0  0  0
  -24.3583   -9.4231   21.9150 C   0  0  0  0  0  0
  -23.6284   -8.2266   22.0720 C   0  0  0  0  0  0
  -22.4273   -8.0283   21.3533 C   0  0  0  0  0  0
  -21.9879   -9.0244   20.4623 C   0  0  0  0  0  0
  -22.7183  -10.2135   20.3016 C   0  0  0  0  0  0
  -21.6871   -6.0724   22.5274 C   0  0  0  0  0  0
  -21.4026   -6.5623   23.8216 C   0  0  0  0  0  0
  -21.3657   -5.6783   24.9169 C   0  0  0  0  0  0
  -21.6048   -4.3041   24.7226 C   0  0  0  0  0  0
  -21.8829   -3.8129   23.4351 C   0  0  0  0  0  0
  -21.9206   -4.6958   22.3393 C   0  0  0  0  0  0
  -22.7898  -13.5260   21.1842 C   0  0  0  0  0  0
  -22.1678   -4.2142   21.0976 F   0  0  0  0  0  0
  -21.5624   -3.4519   25.7731 F   0  0  0  0  0  0
  -30.0556  -13.2200   20.4803 N   0  0  0  0  0  0
  -26.3043  -12.9309   20.3425 N   0  0  0  0  0  0
  -25.9299  -11.6467   20.5771 N   0  0  0  0  0  0
  -22.0536  -12.8246   22.0383 N   0  0  0  0  0  0
  -25.4352  -15.1864   20.4110 N   0  0  0  0  0  0
  -31.7786  -14.6756   20.0729 O   0  0  0  0  0  0
  -21.6652   -6.8855   21.4234 O   0  0  0  0  0  0
  -22.3585  -14.5557   20.6677 O   0  0  0  0  0  0
  -24.6125  -31.8650   23.2104 C   0  0  0  0  0  0
  -25.9044  -32.4821   23.8382 C   0  0  1  0  0  0
  -27.2553  -27.4553   20.0845 C   0  0  0  0  0  0
  -25.5912  -33.8598   24.2325 N   0  0  0  0  0  0
  -23.4022  -30.4881   21.5477 C   0  0  2  0  0  0
  -24.8517  -28.9429   20.1238 C   0  0  0  0  0  0
  -22.7391  -29.4675   22.5004 C   0  0  0  0  0  0
  -18.0283  -28.1364   22.8513 C   0  0  0  0  0  0
  -24.1480  -36.7308   23.2633 C   0  0  0  0  0  0
  -25.9286  -30.8316   21.3633 C   0  0  0  0  0  0
  -26.0102  -29.4633   20.7176 C   0  0  0  0  0  0
  -27.2152  -28.7274   20.6949 C   0  0  0  0  0  0
  -26.0840  -26.9335   19.5017 C   0  0  0  0  0  0
  -24.8808  -27.6711   19.5211 C   0  0  0  0  0  0
  -23.6132  -29.8112   20.1668 C   0  0  0  0  0  0
  -25.4113  -36.3094   24.0333 C   0  0  1  0  0  0
  -20.5855  -28.3657   23.1309 C   0  0  2  0  0  0
  -20.6756  -26.9412   22.5342 C   0  0  0  0  0  0
  -19.5712  -26.6434   21.5145 C   0  0  0  0  0  0
  -18.1910  -26.7928   22.1604 C   0  0  0  0  0  0
  -19.1519  -28.8824   23.2915 C   0  0  0  0  0  0
  -18.9451  -30.1445   23.8938 C   0  0  0  0  0  0
  -17.6471  -30.6572   24.0592 C   0  0  0  0  0  0
  -25.9035  -34.9470   23.5130 C   0  0  0  0  0  0
  -16.5354  -29.9084   23.6327 C   0  0  0  0  0  0
  -16.7270  -28.6508   23.0348 C   0  0  0  0  0  0
  -26.4484  -31.6595   25.0692 C   0  0  0  0  0  0
  -25.3796  -31.3670   26.1469 C   0  0  0  0  0  0
  -27.0290  -30.3026   24.6047 C   0  0  0  0  0  0
  -27.6064  -32.4294   25.7448 C   0  0  0  0  0  0
  -27.5583  -37.1809   24.8478 C   0  0  0  0  0  0
  -21.4129  -29.3046   22.3729 N   0  0  0  0  0  0
  -26.4305  -37.3795   23.9413 N   0  0  0  0  0  0
  -24.6650  -31.0773   22.0991 N   0  0  0  0  0  0
  -23.4166  -28.8243   23.3067 O   0  0  0  0  0  0
  -28.4329  -26.7528   19.9872 O   0  0  0  0  0  0
  -26.5604  -34.8931   22.4680 O   0  0  0  0  0  0
  -23.5309  -32.1438   23.7498 O   0  0  0  0  0  0
  -29.8622  -20.0975   19.8148 C   0  0  0  0  0  0
  -28.3399  -20.9369   21.1411 C   0  0  0  0  0  0
  -28.6773  -19.7598   20.5307 C   0  0  0  0  0  0
  -27.9295  -18.4478   20.5803 C   0  0  0  0  0  0
  -28.5880  -17.3351   21.4181 C   0  0  0  0  0  0
  -28.9912  -24.3476   20.2312 C   0  0  0  0  0  0
  -29.3663  -23.2649   21.2710 C   0  0  0  0  0  0
  -29.8459  -16.7120   20.7875 C   0  0  0  0  0  0
  -28.6006  -25.6807   20.9151 C   0  0  0  0  0  0
  -30.2170  -21.3703   19.9736 N   0  0  0  0  0  0
  -29.2754  -21.8886   20.7959 N   0  0  0  0  0  0
  -29.9718  -15.3294   21.2403 N   0  0  0  0  0  0
  -31.4705  -12.3661   19.1343 H   0  0  0  0  0  0
  -30.3189  -11.2530   19.7994 H   0  0  0  0  0  0
  -29.7356  -11.8091   17.4130 H   0  0  0  0  0  0
  -29.6832  -13.5039   17.8076 H   0  0  0  0  0  0
  -27.8060  -11.3239   18.7814 H   0  0  0  0  0  0
  -27.3745  -12.6945   17.7933 H   0  0  0  0  0  0
  -27.7294  -14.2520   19.6244 H   0  0  0  0  0  0
  -28.6627  -11.8834   21.3276 H   0  0  0  0  0  0
  -28.4603  -13.5025   21.9096 H   0  0  0  0  0  0
  -25.2718   -9.5768   22.4726 H   0  0  0  0  0  0
  -24.0037   -7.4653   22.7415 H   0  0  0  0  0  0
  -21.0828   -8.8717   19.8920 H   0  0  0  0  0  0
  -22.3603  -10.9661   19.6133 H   0  0  0  0  0  0
  -21.2024   -7.6136   23.9719 H   0  0  0  0  0  0
  -21.1465   -6.0501   25.9085 H   0  0  0  0  0  0
  -22.0610   -2.7593   23.2841 H   0  0  0  0  0  0
  -22.4187  -11.9929   22.4773 H   0  0  0  0  0  0
  -21.1137  -13.1228   22.2578 H   0  0  0  0  0  0
  -24.6641  -15.8361   20.5059 H   0  0  0  0  0  0
  -26.2855  -15.6223   20.0794 H   0  0  0  0  0  0
  -26.7120  -32.5526   23.1131 H   0  0  0  0  0  0
  -25.0114  -33.9776   25.0511 H   0  0  0  0  0  0
  -22.6911  -31.3025   21.4028 H   0  0  0  0  0  0
  -23.3731  -35.9646   23.3319 H   0  0  0  0  0  0
  -24.3588  -36.8897   22.2046 H   0  0  0  0  0  0
  -23.7244  -37.6528   23.6634 H   0  0  0  0  0  0
  -26.0339  -31.5928   20.5892 H   0  0  0  0  0  0
  -26.8181  -30.8899   21.9779 H   0  0  0  0  0  0
  -28.1153  -29.1395   21.1328 H   0  0  0  0  0  0
  -26.1092  -25.9673   19.0182 H   0  0  0  0  0  0
  -23.9970  -27.2574   19.0564 H   0  0  0  0  0  0
  -23.7285  -30.5806   19.4036 H   0  0  0  0  0  0
  -22.7365  -29.2330   19.8720 H   0  0  0  0  0  0
  -25.1273  -36.1967   25.0835 H   0  0  0  0  0  0
  -20.9976  -28.3187   24.1414 H   0  0  0  0  0  0
  -20.5632  -26.2260   23.3502 H   0  0  0  0  0  0
  -21.6626  -26.7485   22.1123 H   0  0  0  0  0  0
  -19.6870  -25.6360   21.1095 H   0  0  0  0  0  0
  -19.6579  -27.3288   20.6698 H   0  0  0  0  0  0
  -17.4176  -26.6749   21.4005 H   0  0  0  0  0  0
  -18.0345  -26.0003   22.8923 H   0  0  0  0  0  0
  -19.7924  -30.7244   24.2313 H   0  0  0  0  0  0
  -17.5026  -31.6233   24.5204 H   0  0  0  0  0  0
  -15.5354  -30.3003   23.7637 H   0  0  0  0  0  0
  -15.8671  -28.0826   22.7034 H   0  0  0  0  0  0
  -24.5976  -30.6985   25.7853 H   0  0  0  0  0  0
  -24.8978  -32.2808   26.4939 H   0  0  0  0  0  0
  -25.8207  -30.8855   27.0211 H   0  0  0  0  0  0
  -26.2798  -29.6773   24.1157 H   0  0  0  0  0  0
  -27.4140  -29.7242   25.4469 H   0  0  0  0  0  0
  -27.8613  -30.4318   23.9113 H   0  0  0  0  0  0
  -27.2688  -33.3578   26.2048 H   0  0  0  0  0  0
  -28.3864  -32.6877   25.0280 H   0  0  0  0  0  0
  -28.0750  -31.8410   26.5346 H   0  0  0  0  0  0
  -28.2613  -38.0083   24.7503 H   0  0  0  0  0  0
  -28.1054  -36.2625   24.6318 H   0  0  0  0  0  0
  -27.2310  -37.1492   25.8880 H   0  0  0  0  0  0
  -20.9270  -29.8776   21.6968 H   0  0  0  0  0  0
  -26.0175  -38.2865   24.1407 H   0  0  0  0  0  0
  -30.4701  -19.4603   19.1852 H   0  0  0  0  0  0
  -27.5102  -21.1708   21.7935 H   0  0  0  0  0  0
  -27.7413  -18.0729   19.5753 H   0  0  0  0  0  0
  -26.9392  -18.6188   21.0068 H   0  0  0  0  0  0
  -27.8311  -16.5538   21.5198 H   0  0  0  0  0  0
  -28.8076  -17.6768   22.4301 H   0  0  0  0  0  0
  -28.1677  -24.0083   19.6026 H   0  0  0  0  0  0
  -29.8421  -24.5025   19.5673 H   0  0  0  0  0  0
  -28.7169  -23.3507   22.1431 H   0  0  0  0  0  0
  -30.3772  -23.4346   21.6418 H   0  0  0  0  0  0
  -30.7489  -17.2857   21.0041 H   0  0  0  0  0  0
  -29.7472  -16.7051   19.6994 H   0  0  0  0  0  0
  -27.7098  -25.5317   21.5279 H   0  0  0  0  0  0
  -29.3923  -25.9785   21.6026 H   0  0  0  0  0  0
  -29.1812  -14.9529   21.7412 H   0  0  0  0  0  0
  1 25  1  0  0  0
  1 30  2  0  0  0
  1 82  1  0  0  0
  2  3  1  0  0  0
  2 25  1  0  0  0
  2 83  1  0  0  0
  2 84  1  0  0  0
  3  4  1  0  0  0
  3 85  1  0  0  0
  3 86  1  0  0  0
  4  5  1  0  0  0
  4 87  1  0  0  0
  4 88  1  0  0  0
  5  6  1  0  0  0
  5 26  1  0  0  0
  5 89  1  0  0  0
  6 25  1  0  0  0
  6 90  1  0  0  0
  6 91  1  0  0  0
  7  8  2  0  0  0
  7 26  1  0  0  0
  7 29  1  0  0  0
  8  9  1  0  0  0
  8 22  1  0  0  0
  9 10  1  0  0  0
  9 27  2  0  0  0
 10 11  2  0  0  0
 10 15  1  0  0  0
 11 12  1  0  0  0
 11 92  1  0  0  0
 12 13  2  0  0  0
 12 93  1  0  0  0
 13 14  1  0  0  0
 13 31  1  0  0  0
 14 15  2  0  0  0
 14 94  1  0  0  0
 15 95  1  0  0  0
 16 17  2  0  0  0
 16 21  1  0  0  0
 16 31  1  0  0  0
 17 18  1  0  0  0
 17 96  1  0  0  0
 18 19  2  0  0  0
 18 97  1  0  0  0
 19 20  1  0  0  0
 19 24  1  0  0  0
 20 21  2  0  0  0
 20 98  1  0  0  0
 21 23  1  0  0  0
 22 28  1  0  0  0
 22 32  2  0  0  0
 26 27  1  0  0  0
 28 99  1  0  0  0
 28100  1  0  0  0
 29101  1  0  0  0
 29102  1  0  0  0
 33 34  1  0  0  0
 33 66  1  0  0  0
 33 70  2  0  0  0
 34 36  1  0  0  0
 34 59  1  0  0  0
 34103  1  0  0  0
 35 44  2  0  0  0
 35 45  1  0  0  0
 35 68  1  0  0  0
 36 56  1  0  0  0
 36104  1  0  0  0
 37 39  1  0  0  0
 37 47  1  0  0  0
 37 66  1  0  0  0
 37105  1  0  0  0
 38 43  2  0  0  0
 38 46  1  0  0  0
 38 47  1  0  0  0
 39 64  1  0  0  0
 39 67  2  0  0  0
 40 52  1  0  0  0
 40 53  2  0  0  0
 40 58  1  0  0  0
 41106  1  0  0  0
 41107  1  0  0  0
 41108  1  0  0  0
 41 48  1  0  0  0
 42 43  1  0  0  0
 42 66  1  0  0  0
 42109  1  0  0  0
 42110  1  0  0  0
 43 44  1  0  0  0
 44111  1  0  0  0
 45 46  2  0  0  0
 45112  1  0  0  0
 46113  1  0  0  0
 47114  1  0  0  0
 47115  1  0  0  0
 48 56  1  0  0  0
 48 65  1  0  0  0
 48116  1  0  0  0
 49 50  1  0  0  0
 49 53  1  0  0  0
 49 64  1  0  0  0
 49117  1  0  0  0
 50 51  1  0  0  0
 50118  1  0  0  0
 50119  1  0  0  0
 51 52  1  0  0  0
 51120  1  0  0  0
 51121  1  0  0  0
 52122  1  0  0  0
 52123  1  0  0  0
 53 54  1  0  0  0
 54 55  2  0  0  0
 54124  1  0  0  0
 55 57  1  0  0  0
 55125  1  0  0  0
 56 69  2  0  0  0
 57 58  2  0  0  0
 57126  1  0  0  0
 58127  1  0  0  0
 59 60  1  0  0  0
 59 61  1  0  0  0
 59 62  1  0  0  0
 60128  1  0  0  0
 60129  1  0  0  0
 60130  1  0  0  0
 61131  1  0  0  0
 61132  1  0  0  0
 61133  1  0  0  0
 62134  1  0  0  0
 62135  1  0  0  0
 62136  1  0  0  0
 63 65  1  0  0  0
 63137  1  0  0  0
 63138  1  0  0  0
 63139  1  0  0  0
 64140  1  0  0  0
 65141  1  0  0  0
 68 79  1  0  0  0
 71 73  1  0  0  0
 71 80  2  0  0  0
 71142  1  0  0  0
 72 73  2  0  0  0
 72 81  1  0  0  0
 72143  1  0  0  0
 73 74  1  0  0  0
 74 75  1  0  0  0
 74144  1  0  0  0
 74145  1  0  0  0
 75 78  1  0  0  0
 75146  1  0  0  0
 75147  1  0  0  0
 76 77  1  0  0  0
 76 79  1  0  0  0
 76148  1  0  0  0
 76149  1  0  0  0
 77 81  1  0  0  0
 77150  1  0  0  0
 77151  1  0  0  0
 78 82  1  0  0  0
 78152  1  0  0  0
 78153  1  0  0  0
 79154  1  0  0  0
 79155  1  0  0  0
 80 81  1  0  0  0
 82156  1  0  0  0
M  ISO  4   1 100  68 101  79 101  82 100
M  END
> <chiral flag>
0

> <version>
0

> <s_m_source_file>
/data/baiqing/PycharmProjects/Reinvent-master-3.2/result/LINK_invent/BTK/process_docking_weight1_custom_sum_contain_oxygen_bond_distance_aromatic_linkinvent_7_9_3/rearranged_h_0040.sdf

> <i_m_source_file_index>
50

> <r_mmod_Potential_Energy-OPLS-2005>
-85.5117492675781

> <r_mmod_Stretch_Energy-OPLS-2005>
31.7906112670898

> <r_mmod_Bend_Energy-OPLS-2005>
89.7678146362305

> <r_mmod_Torsional_Energy-OPLS-2005>
258.974090576172

> <r_mmod_Improper_Torsional_Energy-OPLS-2005>
6.39914989471436

> <r_mmod_Van_der_Waal_Energy-OPLS-2005>
120.592559814453

> <r_mmod_Electrostatic_Energy-OPLS-2005>
-370.856140136719

> <r_mmod_Solvation_Energy-OPLS-2005>
-230.207000732422

> <b_mmod_Minimization_Converged-OPLS-2005>
0

> <r_mmod_RMS_Derivative-OPLS-2005>
6.56969404220581

$$$$
50
                    3D
 Structure written by MMmdl.
156164  0  0  1  0            999 V2000
  -30.7096  -14.5059   20.5689 C   0  0  0  0  0  0
  -30.4294  -12.3294   19.4300 C   0  0  0  0  0  0
  -29.5086  -12.5199   18.2088 C   0  0  0  0  0  0
  -28.0259  -12.3859   18.6116 C   0  0  0  0  0  0
  -27.6645  -13.2188   19.8723 C   0  0  2  0  0  0
  -28.7082  -13.0169   20.9947 C   0  0  0  0  0  0
  -25.2615  -13.8199   20.5708 C   0  0  0  0  0  0
  -24.1877  -13.0457   20.9212 C   0  0  0  0  0  0
  -24.6444  -11.6931   20.8729 C   0  0  0  0  0  0
  -23.9116  -10.4314   21.0380 C   0  0  0  0  0  0
  -24.3659   -9.4224   21.9164 C   0  0  0  0  0  0
  -23.6326   -8.2266   22.0750 C   0  0  0  0  0  0
  -22.4300   -8.0311   21.3558 C   0  0  0  0  0  0
  -21.9951   -9.0280   20.4655 C   0  0  0  0  0  0
  -22.7286  -10.2157   20.3047 C   0  0  0  0  0  0
  -21.6868   -6.0760   22.5285 C   0  0  0  0  0  0
  -21.3993   -6.5634   23.8228 C   0  0  0  0  0  0
  -21.3678   -5.6783   24.9178 C   0  0  0  0  0  0
  -21.6075   -4.3057   24.7223 C   0  0  0  0  0  0
  -21.8805   -3.8161   23.4336 C   0  0  0  0  0  0
  -21.9198   -4.6980   22.3399 C   0  0  0  0  0  0
  -22.7892  -13.5236   21.1872 C   0  0  0  0  0  0
  -22.1664   -4.2179   21.0971 F   0  0  0  0  0  0
  -21.5664   -3.4536   25.7724 F   0  0  0  0  0  0
  -30.0341  -13.3292   20.4352 N   0  0  0  0  0  0
  -26.3057  -12.9396   20.3347 N   0  0  0  0  0  0
  -25.9381  -11.6546   20.5734 N   0  0  0  0  0  0
  -22.0524  -12.8227   22.0426 N   0  0  0  0  0  0
  -25.4329  -15.1922   20.4141 N   0  0  0  0  0  0
  -31.8465  -14.6727   20.1213 O   0  0  0  0  0  0
  -21.6660   -6.8909   21.4249 O   0  0  0  0  0  0
  -22.3581  -14.5565   20.6741 O   0  0  0  0  0  0
  -24.6202  -31.8654   23.2024 C   0  0  0  0  0  0
  -25.9076  -32.4795   23.8337 C   0  0  1  0  0  0
  -27.2487  -27.3868   20.0993 C   0  0  0  0  0  0
  -25.5894  -33.8594   24.2273 N   0  0  0  0  0  0
  -23.4099  -30.4889   21.5430 C   0  0  2  0  0  0
  -24.8584  -28.9449   20.1110 C   0  0  0  0  0  0
  -22.7432  -29.4670   22.4930 C   0  0  0  0  0  0
  -18.0265  -28.1385   22.8473 C   0  0  0  0  0  0
  -24.1487  -36.7324   23.2643 C   0  0  0  0  0  0
  -25.9449  -30.8153   21.3613 C   0  0  0  0  0  0
  -26.0216  -29.4454   20.7071 C   0  0  0  0  0  0
  -27.2165  -28.6786   20.6912 C   0  0  0  0  0  0
  -26.0557  -26.9094   19.5056 C   0  0  0  0  0  0
  -24.8743  -27.6746   19.5064 C   0  0  0  0  0  0
  -23.6220  -29.8199   20.1579 C   0  0  0  0  0  0
  -25.4106  -36.3109   24.0336 C   0  0  1  0  0  0
  -20.5862  -28.3700   23.1265 C   0  0  2  0  0  0
  -20.6749  -26.9423   22.5402 C   0  0  0  0  0  0
  -19.5723  -26.6383   21.5205 C   0  0  0  0  0  0
  -18.1904  -26.7918   22.1626 C   0  0  0  0  0  0
  -19.1515  -28.8845   23.2868 C   0  0  0  0  0  0
  -18.9471  -30.1433   23.8907 C   0  0  0  0  0  0
  -17.6480  -30.6595   24.0565 C   0  0  0  0  0  0
  -25.9042  -34.9472   23.5121 C   0  0  0  0  0  0
  -16.5363  -29.9126   23.6298 C   0  0  0  0  0  0
  -16.7255  -28.6529   23.0334 C   0  0  0  0  0  0
  -26.4462  -31.6578   25.0690 C   0  0  0  0  0  0
  -25.3713  -31.3720   26.1432 C   0  0  0  0  0  0
  -27.0270  -30.2987   24.6115 C   0  0  0  0  0  0
  -27.6003  -32.4322   25.7473 C   0  0  0  0  0  0
  -27.5580  -37.1816   24.8465 C   0  0  0  0  0  0
  -21.4148  -29.3076   22.3675 N   0  0  0  0  0  0
  -26.4286  -37.3803   23.9413 N   0  0  0  0  0  0
  -24.6767  -31.0723   22.0932 N   0  0  0  0  0  0
  -23.4173  -28.8203   23.3002 O   0  0  0  0  0  0
  -28.4207  -26.6313   20.1144 O   0  0  0  0  0  0
  -26.5650  -34.8951   22.4705 O   0  0  0  0  0  0
  -23.5378  -32.1426   23.7387 O   0  0  0  0  0  0
  -30.1169  -22.0284   21.1222 C   0  0  0  0  0  0
  -29.6979  -22.9052   20.1473 C   0  0  0  0  0  0
  -29.3790  -22.0173   19.0712 C   0  0  0  0  0  0
  -28.9303  -22.3579   17.6791 C   0  0  0  0  0  0
  -29.6964  -24.4505   20.2016 C   0  0  0  0  0  0
  -30.0165  -18.1025   20.7176 C   0  0  0  0  0  0
  -30.4364  -19.4770   21.3449 C   0  0  0  0  0  0
  -30.5565  -16.8615   21.5104 C   0  0  0  0  0  0
  -28.3561  -25.1934   19.8789 C   0  0  0  0  0  0
  -29.5622  -20.7317   19.3834 N   0  0  0  0  0  0
  -30.0273  -20.7236   20.6531 N   0  0  0  0  0  0
  -30.0246  -15.5319   21.1188 N   0  0  0  0  0  0
  -31.4730  -12.4306   19.1318 H   0  0  0  0  0  0
  -30.3283  -11.3225   19.8375 H   0  0  0  0  0  0
  -29.7572  -11.7898   17.4372 H   0  0  0  0  0  0
  -29.6886  -13.5048   17.7721 H   0  0  0  0  0  0
  -27.8213  -11.3301   18.7891 H   0  0  0  0  0  0
  -27.3868  -12.6794   17.7779 H   0  0  0  0  0  0
  -27.7033  -14.2671   19.5794 H   0  0  0  0  0  0
  -28.6953  -11.9849   21.3483 H   0  0  0  0  0  0
  -28.4680  -13.6298   21.8632 H   0  0  0  0  0  0
  -25.2792   -9.5717   22.4738 H   0  0  0  0  0  0
  -24.0058   -7.4659   22.7450 H   0  0  0  0  0  0
  -21.0895   -8.8795   19.8954 H   0  0  0  0  0  0
  -22.3732  -10.9696   19.6165 H   0  0  0  0  0  0
  -21.1937   -7.6135   23.9727 H   0  0  0  0  0  0
  -21.1536   -6.0504   25.9082 H   0  0  0  0  0  0
  -22.0576   -2.7620   23.2811 H   0  0  0  0  0  0
  -22.4087  -11.9830   22.4753 H   0  0  0  0  0  0
  -21.1154  -13.1293   22.2662 H   0  0  0  0  0  0
  -24.6658  -15.8450   20.5313 H   0  0  0  0  0  0
  -26.2858  -15.6381   20.1002 H   0  0  0  0  0  0
  -26.7155  -32.5482   23.1097 H   0  0  0  0  0  0
  -24.9956  -33.9710   25.0356 H   0  0  0  0  0  0
  -22.7012  -31.3078   21.3999 H   0  0  0  0  0  0
  -23.3746  -35.9661   23.3303 H   0  0  0  0  0  0
  -24.3599  -36.8948   22.2063 H   0  0  0  0  0  0
  -23.7243  -37.6527   23.6662 H   0  0  0  0  0  0
  -26.0701  -31.5769   20.5893 H   0  0  0  0  0  0
  -26.8289  -30.8643   21.9858 H   0  0  0  0  0  0
  -28.1127  -29.0721   21.1494 H   0  0  0  0  0  0
  -26.0208  -25.9376   19.0389 H   0  0  0  0  0  0
  -23.9837  -27.2731   19.0438 H   0  0  0  0  0  0
  -23.7405  -30.5978   19.4030 H   0  0  0  0  0  0
  -22.7417  -29.2509   19.8553 H   0  0  0  0  0  0
  -25.1280  -36.1971   25.0830 H   0  0  0  0  0  0
  -20.9949  -28.3305   24.1387 H   0  0  0  0  0  0
  -20.5623  -26.2346   23.3623 H   0  0  0  0  0  0
  -21.6625  -26.7442   22.1218 H   0  0  0  0  0  0
  -19.6895  -25.6296   21.1236 H   0  0  0  0  0  0
  -19.6640  -27.3190   20.6727 H   0  0  0  0  0  0
  -17.4167  -26.6634   21.4042 H   0  0  0  0  0  0
  -18.0323  -26.0060   22.9027 H   0  0  0  0  0  0
  -19.7960  -30.7211   24.2304 H   0  0  0  0  0  0
  -17.5067  -31.6274   24.5179 H   0  0  0  0  0  0
  -15.5374  -30.3078   23.7578 H   0  0  0  0  0  0
  -15.8642  -28.0871   22.7050 H   0  0  0  0  0  0
  -24.5877  -30.7066   25.7794 H   0  0  0  0  0  0
  -24.8917  -32.2891   26.4862 H   0  0  0  0  0  0
  -25.8059  -30.8913   27.0204 H   0  0  0  0  0  0
  -26.2822  -29.6775   24.1122 H   0  0  0  0  0  0
  -27.3932  -29.7197   25.4606 H   0  0  0  0  0  0
  -27.8712  -30.4242   23.9329 H   0  0  0  0  0  0
  -27.2557  -33.3593   26.2063 H   0  0  0  0  0  0
  -28.3797  -32.6941   25.0308 H   0  0  0  0  0  0
  -28.0684  -31.8459   26.5385 H   0  0  0  0  0  0
  -28.2597  -38.0112   24.7506 H   0  0  0  0  0  0
  -28.1066  -36.2645   24.6278 H   0  0  0  0  0  0
  -27.2308  -37.1464   25.8869 H   0  0  0  0  0  0
  -20.9312  -29.8867   21.6946 H   0  0  0  0  0  0
  -26.0175  -38.2877   24.1418 H   0  0  0  0  0  0
  -30.5029  -22.2291   22.1126 H   0  0  0  0  0  0
  -29.3109  -23.3278   17.3647 H   0  0  0  0  0  0
  -27.8437  -22.3848   17.6037 H   0  0  0  0  0  0
  -29.2960  -21.6300   16.9535 H   0  0  0  0  0  0
  -30.4617  -24.8376   19.5286 H   0  0  0  0  0  0
  -30.0155  -24.7676   21.1961 H   0  0  0  0  0  0
  -30.3810  -18.0525   19.6916 H   0  0  0  0  0  0
  -28.9296  -18.0729   20.6606 H   0  0  0  0  0  0
  -31.5190  -19.5051   21.4512 H   0  0  0  0  0  0
  -30.0462  -19.5319   22.3611 H   0  0  0  0  0  0
  -30.2981  -16.9862   22.5628 H   0  0  0  0  0  0
  -31.6488  -16.8491   21.4806 H   0  0  0  0  0  0
  -27.5697  -24.7631   20.4981 H   0  0  0  0  0  0
  -28.0867  -25.0142   18.8372 H   0  0  0  0  0  0
  -29.0757  -15.3239   21.3911 H   0  0  0  0  0  0
  1 25  1  0  0  0
  1 30  2  0  0  0
  1 82  1  0  0  0
  2  3  1  0  0  0
  2 25  1  0  0  0
  2 83  1  0  0  0
  2 84  1  0  0  0
  3  4  1  0  0  0
  3 85  1  0  0  0
  3 86  1  0  0  0
  4  5  1  0  0  0
  4 87  1  0  0  0
  4 88  1  0  0  0
  5  6  1  0  0  0
  5 26  1  0  0  0
  5 89  1  0  0  0
  6 25  1  0  0  0
  6 90  1  0  0  0
  6 91  1  0  0  0
  7  8  2  0  0  0
  7 26  1  0  0  0
  7 29  1  0  0  0
  8  9  1  0  0  0
  8 22  1  0  0  0
  9 10  1  0  0  0
  9 27  2  0  0  0
 10 11  2  0  0  0
 10 15  1  0  0  0
 11 12  1  0  0  0
 11 92  1  0  0  0
 12 13  2  0  0  0
 12 93  1  0  0  0
 13 14  1  0  0  0
 13 31  1  0  0  0
 14 15  2  0  0  0
 14 94  1  0  0  0
 15 95  1  0  0  0
 16 17  2  0  0  0
 16 21  1  0  0  0
 16 31  1  0  0  0
 17 18  1  0  0  0
 17 96  1  0  0  0
 18 19  2  0  0  0
 18 97  1  0  0  0
 19 20  1  0  0  0
 19 24  1  0  0  0
 20 21  2  0  0  0
 20 98  1  0  0  0
 21 23  1  0  0  0
 22 28  1  0  0  0
 22 32  2  0  0  0
 26 27  1  0  0  0
 28 99  1  0  0  0
 28100  1  0  0  0
 29101  1  0  0  0
 29102  1  0  0  0
 33 34  1  0  0  0
 33 66  1  0  0  0
 33 70  2  0  0  0
 34 36  1  0  0  0
 34 59  1  0  0  0
 34103  1  0  0  0
 35 44  2  0  0  0
 35 45  1  0  0  0
 35 68  1  0  0  0
 36 56  1  0  0  0
 36104  1  0  0  0
 37 39  1  0  0  0
 37 47  1  0  0  0
 37 66  1  0  0  0
 37105  1  0  0  0
 38 43  2  0  0  0
 38 46  1  0  0  0
 38 47  1  0  0  0
 39 64  1  0  0  0
 39 67  2  0  0  0
 40 52  1  0  0  0
 40 53  2  0  0  0
 40 58  1  0  0  0
 41106  1  0  0  0
 41107  1  0  0  0
 41108  1  0  0  0
 41 48  1  0  0  0
 42 43  1  0  0  0
 42 66  1  0  0  0
 42109  1  0  0  0
 42110  1  0  0  0
 43 44  1  0  0  0
 44111  1  0  0  0
 45 46  2  0  0  0
 45112  1  0  0  0
 46113  1  0  0  0
 47114  1  0  0  0
 47115  1  0  0  0
 48 56  1  0  0  0
 48 65  1  0  0  0
 48116  1  0  0  0
 49 50  1  0  0  0
 49 53  1  0  0  0
 49 64  1  0  0  0
 49117  1  0  0  0
 50 51  1  0  0  0
 50118  1  0  0  0
 50119  1  0  0  0
 51 52  1  0  0  0
 51120  1  0  0  0
 51121  1  0  0  0
 52122  1  0  0  0
 52123  1  0  0  0
 53 54  1  0  0  0
 54 55  2  0  0  0
 54124  1  0  0  0
 55 57  1  0  0  0
 55125  1  0  0  0
 56 69  2  0  0  0
 57 58  2  0  0  0
 57126  1  0  0  0
 58127  1  0  0  0
 59 60  1  0  0  0
 59 61  1  0  0  0
 59 62  1  0  0  0
 60128  1  0  0  0
 60129  1  0  0  0
 60130  1  0  0  0
 61131  1  0  0  0
 61132  1  0  0  0
 61133  1  0  0  0
 62134  1  0  0  0
 62135  1  0  0  0
 62136  1  0  0  0
 63 65  1  0  0  0
 63137  1  0  0  0
 63138  1  0  0  0
 63139  1  0  0  0
 64140  1  0  0  0
 65141  1  0  0  0
 68 79  1  0  0  0
 71 72  2  0  0  0
 71 81  1  0  0  0
 71142  1  0  0  0
 72 73  1  0  0  0
 72 75  1  0  0  0
 73 74  1  0  0  0
 73 80  2  0  0  0
 74143  1  0  0  0
 74144  1  0  0  0
 74145  1  0  0  0
 75 79  1  0  0  0
 75146  1  0  0  0
 75147  1  0  0  0
 76 77  1  0  0  0
 76 78  1  0  0  0
 76148  1  0  0  0
 76149  1  0  0  0
 77 81  1  0  0  0
 77150  1  0  0  0
 77151  1  0  0  0
 78 82  1  0  0  0
 78152  1  0  0  0
 78153  1  0  0  0
 79154  1  0  0  0
 79155  1  0  0  0
 80 81  1  0  0  0
 82156  1  0  0  0
M  ISO  4   1 100  68 101  79 101  82 100
M  END
> <chiral flag>
0

> <version>
0

> <s_m_source_file>
/data/baiqing/PycharmProjects/Reinvent-master-3.2/result/LINK_invent/BTK/process_docking_weight1_custom_sum_contain_oxygen_bond_distance_aromatic_linkinvent_7_9_3/rearranged_h_0040.sdf

> <i_m_source_file_index>
51

> <r_mmod_Potential_Energy-OPLS-2005>
-126.004264831543

> <r_mmod_Stretch_Energy-OPLS-2005>
49.4194221496582

> <r_mmod_Bend_Energy-OPLS-2005>
111.01197052002

> <r_mmod_Torsional_Energy-OPLS-2005>
198.936676025391

> <r_mmod_Improper_Torsional_Energy-OPLS-2005>
3.2601113319397

> <r_mmod_Van_der_Waal_Energy-OPLS-2005>
122.269218444824

> <r_mmod_Electrostatic_Energy-OPLS-2005>
-403.939453125

> <r_mmod_Solvation_Energy-OPLS-2005>
-225.911056518555

> <b_mmod_Minimization_Converged-OPLS-2005>
0

> <r_mmod_RMS_Derivative-OPLS-2005>
3.73625612258911

$$$$
51
                    3D
 Structure written by MMmdl.
171179  0  0  1  0            999 V2000
  -30.7272  -14.4061   20.5876 C   0  0  0  0  0  0
  -30.4262  -12.2791   19.3920 C   0  0  0  0  0  0
  -29.4811  -12.4804   18.1901 C   0  0  0  0  0  0
  -28.0040  -12.3707   18.6124 C   0  0  0  0  0  0
  -27.6708  -13.1977   19.8830 C   0  0  2  0  0  0
  -28.7181  -12.9335   20.9888 C   0  0  0  0  0  0
  -25.2628  -13.8139   20.5666 C   0  0  0  0  0  0
  -24.1871  -13.0467   20.9202 C   0  0  0  0  0  0
  -24.6397  -11.6914   20.8782 C   0  0  0  0  0  0
  -23.9078  -10.4304   21.0434 C   0  0  0  0  0  0
  -24.3648   -9.4214   21.9197 C   0  0  0  0  0  0
  -23.6341   -8.2239   22.0742 C   0  0  0  0  0  0
  -22.4321   -8.0283   21.3531 C   0  0  0  0  0  0
  -21.9961   -9.0264   20.4633 C   0  0  0  0  0  0
  -22.7266  -10.2151   20.3062 C   0  0  0  0  0  0
  -21.6846   -6.0769   22.5282 C   0  0  0  0  0  0
  -21.3992   -6.5668   23.8225 C   0  0  0  0  0  0
  -21.3659   -5.6816   24.9197 C   0  0  0  0  0  0
  -21.6047   -4.3086   24.7226 C   0  0  0  0  0  0
  -21.8834   -3.8176   23.4351 C   0  0  0  0  0  0
  -21.9202   -4.6996   22.3405 C   0  0  0  0  0  0
  -22.7892  -13.5257   21.1842 C   0  0  0  0  0  0
  -22.1679   -4.2189   21.0990 F   0  0  0  0  0  0
  -21.5635   -3.4558   25.7740 F   0  0  0  0  0  0
  -30.0465  -13.2430   20.4329 N   0  0  0  0  0  0
  -26.3084  -12.9306   20.3461 N   0  0  0  0  0  0
  -25.9326  -11.6479   20.5833 N   0  0  0  0  0  0
  -22.0545  -12.8226   22.0391 N   0  0  0  0  0  0
  -25.4416  -15.1807   20.3887 N   0  0  0  0  0  0
  -31.8373  -14.6131   20.0865 O   0  0  0  0  0  0
  -21.6651   -6.8899   21.4236 O   0  0  0  0  0  0
  -22.3594  -14.5578   20.6702 O   0  0  0  0  0  0
  -24.6114  -31.8693   23.2116 C   0  0  0  0  0  0
  -25.9014  -32.4842   23.8407 C   0  0  1  0  0  0
  -27.2516  -27.4754   20.0761 C   0  0  0  0  0  0
  -25.5875  -33.8637   24.2334 N   0  0  0  0  0  0
  -23.4007  -30.4896   21.5511 C   0  0  2  0  0  0
  -24.8518  -28.9547   20.1181 C   0  0  0  0  0  0
  -22.7402  -29.4652   22.5005 C   0  0  0  0  0  0
  -18.0269  -28.1385   22.8503 C   0  0  0  0  0  0
  -24.1481  -36.7315   23.2643 C   0  0  0  0  0  0
  -25.9257  -30.8412   21.3636 C   0  0  0  0  0  0
  -26.0073  -29.4757   20.7155 C   0  0  0  0  0  0
  -27.2081  -28.7354   20.7060 C   0  0  0  0  0  0
  -26.0817  -26.9509   19.4886 C   0  0  0  0  0  0
  -24.8804  -27.6864   19.5090 C   0  0  0  0  0  0
  -23.6102  -29.8170   20.1670 C   0  0  0  0  0  0
  -25.4107  -36.3120   24.0336 C   0  0  1  0  0  0
  -20.5861  -28.3658   23.1334 C   0  0  2  0  0  0
  -20.6757  -26.9396   22.5432 C   0  0  0  0  0  0
  -19.5736  -26.6384   21.5226 C   0  0  0  0  0  0
  -18.1912  -26.7933   22.1632 C   0  0  0  0  0  0
  -19.1521  -28.8839   23.2916 C   0  0  0  0  0  0
  -18.9443  -30.1448   23.8919 C   0  0  0  0  0  0
  -17.6447  -30.6589   24.0569 C   0  0  0  0  0  0
  -25.9031  -34.9486   23.5139 C   0  0  0  0  0  0
  -16.5341  -29.9097   23.6324 C   0  0  0  0  0  0
  -16.7260  -28.6516   23.0348 C   0  0  0  0  0  0
  -26.4448  -31.6628   25.0737 C   0  0  0  0  0  0
  -25.3713  -31.3719   26.1481 C   0  0  0  0  0  0
  -27.0286  -30.3080   24.6104 C   0  0  0  0  0  0
  -27.6025  -32.4350   25.7499 C   0  0  0  0  0  0
  -27.5579  -37.1811   24.8466 C   0  0  0  0  0  0
  -21.4132  -29.3030   22.3746 N   0  0  0  0  0  0
  -26.4294  -37.3804   23.9409 N   0  0  0  0  0  0
  -24.6640  -31.0802   22.1016 N   0  0  0  0  0  0
  -23.4177  -28.8194   23.3043 O   0  0  0  0  0  0
  -28.4174  -26.7549   20.0461 O   0  0  0  0  0  0
  -26.5598  -34.8932   22.4705 O   0  0  0  0  0  0
  -23.5308  -32.1431   23.7515 O   0  0  0  0  0  0
  -29.3800  -22.4309   19.7676 C   0  0  0  0  0  0
  -28.5499  -22.4013   18.6103 C   0  0  0  0  0  0
  -28.7833  -23.6138   18.0190 C   0  0  0  0  0  0
  -28.2591  -24.1507   16.7266 C   0  0  0  0  0  0
  -25.7242  -18.4331   21.7389 C   0  0  0  0  0  0
  -27.6385  -21.3009   18.1111 C   0  0  0  0  0  0
  -27.7985  -19.9546   18.8411 C   0  0  0  0  0  0
  -29.4436  -17.7197   20.6875 C   0  0  0  0  0  0
  -27.1562  -19.9016   20.2469 C   0  0  0  0  0  0
  -28.1450  -17.8282   21.5054 C   0  0  0  0  0  0
  -30.1604  -25.6775   18.7048 C   0  0  0  0  0  0
  -30.4756  -16.7775   21.3339 C   0  0  0  0  0  0
  -29.0736  -26.7674   18.7809 C   0  0  0  0  0  0
  -26.9346  -18.4675   20.7903 C   0  0  1  0  0  0
  -30.0173  -23.5810   19.9111 N   0  0  0  0  0  0
  -29.6316  -24.3261   18.8525 N   0  0  0  0  0  0
  -30.0590  -15.3767   21.2242 N   0  0  0  0  0  0
  -31.4619  -12.3971   19.0705 H   0  0  0  0  0  0
  -30.3508  -11.2611   19.7765 H   0  0  0  0  0  0
  -29.6997  -11.7396   17.4178 H   0  0  0  0  0  0
  -29.6602  -13.4583   17.7418 H   0  0  0  0  0  0
  -27.7849  -11.3173   18.7907 H   0  0  0  0  0  0
  -27.3599  -12.6791   17.7855 H   0  0  0  0  0  0
  -27.7333  -14.2511   19.6061 H   0  0  0  0  0  0
  -28.6855  -11.8842   21.2901 H   0  0  0  0  0  0
  -28.4950  -13.4970   21.8947 H   0  0  0  0  0  0
  -25.2778   -9.5718   22.4814 H   0  0  0  0  0  0
  -24.0068   -7.4616   22.7441 H   0  0  0  0  0  0
  -21.0907   -8.8796   19.8890 H   0  0  0  0  0  0
  -22.3732  -10.9739   19.6209 H   0  0  0  0  0  0
  -21.1944   -7.6165   23.9748 H   0  0  0  0  0  0
  -21.1462   -6.0539   25.9111 H   0  0  0  0  0  0
  -22.0594   -2.7629   23.2855 H   0  0  0  0  0  0
  -22.4196  -11.9921   22.4800 H   0  0  0  0  0  0
  -21.1124  -13.1171   22.2521 H   0  0  0  0  0  0
  -24.6802  -15.8468   20.4668 H   0  0  0  0  0  0
  -26.2884  -15.5880   20.0144 H   0  0  0  0  0  0
  -26.7105  -32.5570   23.1194 H   0  0  0  0  0  0
  -25.0009  -33.9804   25.0467 H   0  0  0  0  0  0
  -22.6888  -31.3049   21.4097 H   0  0  0  0  0  0
  -23.3744  -35.9647   23.3321 H   0  0  0  0  0  0
  -24.3566  -36.8915   22.2053 H   0  0  0  0  0  0
  -23.7229  -37.6523   23.6648 H   0  0  0  0  0  0
  -26.0322  -31.6052   20.5917 H   0  0  0  0  0  0
  -26.8162  -30.9000   21.9787 H   0  0  0  0  0  0
  -28.1037  -29.1320   21.1646 H   0  0  0  0  0  0
  -26.1038  -25.9775   19.0179 H   0  0  0  0  0  0
  -23.9911  -27.2762   19.0504 H   0  0  0  0  0  0
  -23.7149  -30.5892   19.4039 H   0  0  0  0  0  0
  -22.7367  -29.2307   19.8750 H   0  0  0  0  0  0
  -25.1284  -36.1992   25.0829 H   0  0  0  0  0  0
  -20.9951  -28.3226   24.1454 H   0  0  0  0  0  0
  -20.5667  -26.2265   23.3615 H   0  0  0  0  0  0
  -21.6626  -26.7443   22.1224 H   0  0  0  0  0  0
  -19.6893  -25.6295   21.1250 H   0  0  0  0  0  0
  -19.6681  -27.3198   20.6757 H   0  0  0  0  0  0
  -17.4187  -26.6694   21.4028 H   0  0  0  0  0  0
  -18.0299  -26.0074   22.9023 H   0  0  0  0  0  0
  -19.7916  -30.7261   24.2306 H   0  0  0  0  0  0
  -17.4999  -31.6272   24.5165 H   0  0  0  0  0  0
  -15.5341  -30.3005   23.7632 H   0  0  0  0  0  0
  -15.8661  -28.0840   22.7046 H   0  0  0  0  0  0
  -24.5875  -30.7089   25.7799 H   0  0  0  0  0  0
  -24.8914  -32.2873   26.4955 H   0  0  0  0  0  0
  -25.8055  -30.8857   27.0225 H   0  0  0  0  0  0
  -26.2840  -29.6857   24.1129 H   0  0  0  0  0  0
  -27.4037  -29.7297   25.4558 H   0  0  0  0  0  0
  -27.8675  -30.4411   23.9268 H   0  0  0  0  0  0
  -27.2638  -33.3628   26.2117 H   0  0  0  0  0  0
  -28.3809  -32.6950   25.0315 H   0  0  0  0  0  0
  -28.0726  -31.8460   26.5383 H   0  0  0  0  0  0
  -28.2607  -38.0097   24.7523 H   0  0  0  0  0  0
  -28.1064  -36.2636   24.6292 H   0  0  0  0  0  0
  -27.2295  -37.1462   25.8867 H   0  0  0  0  0  0
  -20.9290  -29.8757   21.6972 H   0  0  0  0  0  0
  -26.0187  -38.2884   24.1413 H   0  0  0  0  0  0
  -29.5407  -21.6598   20.5074 H   0  0  0  0  0  0
  -28.1536  -23.3500   15.9948 H   0  0  0  0  0  0
  -28.9300  -24.8911   16.2937 H   0  0  0  0  0  0
  -27.2814  -24.6094   16.8667 H   0  0  0  0  0  0
  -24.8009  -18.6749   21.2133 H   0  0  0  0  0  0
  -25.8326  -19.1393   22.5624 H   0  0  0  0  0  0
  -25.5924  -17.4428   22.1759 H   0  0  0  0  0  0
  -27.8263  -21.1262   17.0517 H   0  0  0  0  0  0
  -26.5915  -21.6100   18.1548 H   0  0  0  0  0  0
  -28.8523  -19.6837   18.8590 H   0  0  0  0  0  0
  -27.3133  -19.1994   18.2212 H   0  0  0  0  0  0
  -29.8911  -18.7109   20.6028 H   0  0  0  0  0  0
  -29.2367  -17.3882   19.6688 H   0  0  0  0  0  0
  -26.1829  -20.3846   20.1679 H   0  0  0  0  0  0
  -27.7121  -20.4990   20.9690 H   0  0  0  0  0  0
  -28.3526  -18.3534   22.4395 H   0  0  0  0  0  0
  -27.8461  -16.8209   21.7970 H   0  0  0  0  0  0
  -30.9143  -25.8556   19.4739 H   0  0  0  0  0  0
  -30.6826  -25.7377   17.7492 H   0  0  0  0  0  0
  -30.6105  -17.0259   22.3870 H   0  0  0  0  0  0
  -31.4425  -16.9397   20.8572 H   0  0  0  0  0  0
  -28.3631  -26.6378   17.9638 H   0  0  0  0  0  0
  -29.5322  -27.7476   18.6365 H   0  0  0  0  0  0
  -26.6780  -17.8243   19.9487 H   0  0  0  0  0  0
  -29.1454  -15.1342   21.5721 H   0  0  0  0  0  0
  1 25  1  0  0  0
  1 30  2  0  0  0
  1 87  1  0  0  0
  2  3  1  0  0  0
  2 25  1  0  0  0
  2 88  1  0  0  0
  2 89  1  0  0  0
  3  4  1  0  0  0
  3 90  1  0  0  0
  3 91  1  0  0  0
  4  5  1  0  0  0
  4 92  1  0  0  0
  4 93  1  0  0  0
  5  6  1  0  0  0
  5 26  1  0  0  0
  5 94  1  0  0  0
  6 25  1  0  0  0
  6 95  1  0  0  0
  6 96  1  0  0  0
  7  8  2  0  0  0
  7 26  1  0  0  0
  7 29  1  0  0  0
  8  9  1  0  0  0
  8 22  1  0  0  0
  9 10  1  0  0  0
  9 27  2  0  0  0
 10 11  2  0  0  0
 10 15  1  0  0  0
 11 12  1  0  0  0
 11 97  1  0  0  0
 12 13  2  0  0  0
 12 98  1  0  0  0
 13 14  1  0  0  0
 13 31  1  0  0  0
 14 15  2  0  0  0
 14 99  1  0  0  0
 15100  1  0  0  0
 16 17  2  0  0  0
 16 21  1  0  0  0
 16 31  1  0  0  0
 17 18  1  0  0  0
 17101  1  0  0  0
 18 19  2  0  0  0
 18102  1  0  0  0
 19 20  1  0  0  0
 19 24  1  0  0  0
 20 21  2  0  0  0
 20103  1  0  0  0
 21 23  1  0  0  0
 22 28  1  0  0  0
 22 32  2  0  0  0
 26 27  1  0  0  0
 28104  1  0  0  0
 28105  1  0  0  0
 29106  1  0  0  0
 29107  1  0  0  0
 33 34  1  0  0  0
 33 66  1  0  0  0
 33 70  2  0  0  0
 34 36  1  0  0  0
 34 59  1  0  0  0
 34108  1  0  0  0
 35 44  2  0  0  0
 35 45  1  0  0  0
 35 68  1  0  0  0
 36 56  1  0  0  0
 36109  1  0  0  0
 37 39  1  0  0  0
 37 47  1  0  0  0
 37 66  1  0  0  0
 37110  1  0  0  0
 38 43  2  0  0  0
 38 46  1  0  0  0
 38 47  1  0  0  0
 39 64  1  0  0  0
 39 67  2  0  0  0
 40 52  1  0  0  0
 40 53  2  0  0  0
 40 58  1  0  0  0
 41111  1  0  0  0
 41112  1  0  0  0
 41113  1  0  0  0
 41 48  1  0  0  0
 42 43  1  0  0  0
 42 66  1  0  0  0
 42114  1  0  0  0
 42115  1  0  0  0
 43 44  1  0  0  0
 44116  1  0  0  0
 45 46  2  0  0  0
 45117  1  0  0  0
 46118  1  0  0  0
 47119  1  0  0  0
 47120  1  0  0  0
 48 56  1  0  0  0
 48 65  1  0  0  0
 48121  1  0  0  0
 49 50  1  0  0  0
 49 53  1  0  0  0
 49 64  1  0  0  0
 49122  1  0  0  0
 50 51  1  0  0  0
 50123  1  0  0  0
 50124  1  0  0  0
 51 52  1  0  0  0
 51125  1  0  0  0
 51126  1  0  0  0
 52127  1  0  0  0
 52128  1  0  0  0
 53 54  1  0  0  0
 54 55  2  0  0  0
 54129  1  0  0  0
 55 57  1  0  0  0
 55130  1  0  0  0
 56 69  2  0  0  0
 57 58  2  0  0  0
 57131  1  0  0  0
 58132  1  0  0  0
 59 60  1  0  0  0
 59 61  1  0  0  0
 59 62  1  0  0  0
 60133  1  0  0  0
 60134  1  0  0  0
 60135  1  0  0  0
 61136  1  0  0  0
 61137  1  0  0  0
 61138  1  0  0  0
 62139  1  0  0  0
 62140  1  0  0  0
 62141  1  0  0  0
 63 65  1  0  0  0
 63142  1  0  0  0
 63143  1  0  0  0
 63144  1  0  0  0
 64145  1  0  0  0
 65146  1  0  0  0
 68 83  1  0  0  0
 71 72  1  0  0  0
 71 85  2  0  0  0
 71147  1  0  0  0
 72 73  2  0  0  0
 72 76  1  0  0  0
 73 74  1  0  0  0
 73 86  1  0  0  0
 74148  1  0  0  0
 74149  1  0  0  0
 74150  1  0  0  0
 75151  1  0  0  0
 75152  1  0  0  0
 75153  1  0  0  0
 75 84  1  0  0  0
 76 77  1  0  0  0
 76154  1  0  0  0
 76155  1  0  0  0
 77 79  1  0  0  0
 77156  1  0  0  0
 77157  1  0  0  0
 78 80  1  0  0  0
 78 82  1  0  0  0
 78158  1  0  0  0
 78159  1  0  0  0
 79 84  1  0  0  0
 79160  1  0  0  0
 79161  1  0  0  0
 80 84  1  0  0  0
 80162  1  0  0  0
 80163  1  0  0  0
 81 83  1  0  0  0
 81 86  1  0  0  0
 81164  1  0  0  0
 81165  1  0  0  0
 82 87  1  0  0  0
 82166  1  0  0  0
 82167  1  0  0  0
 83168  1  0  0  0
 83169  1  0  0  0
 84170  1  0  0  0
 85 86  1  0  0  0
 87171  1  0  0  0
M  ISO  4   1 100  68 101  83 101  87 100
M  END
> <chiral flag>
0

> <version>
0

> <s_m_source_file>
/data/baiqing/PycharmProjects/Reinvent-master-3.2/result/LINK_invent/BTK/process_docking_weight1_custom_sum_contain_oxygen_bond_distance_aromatic_linkinvent_7_9_3/rearranged_h_0040.sdf

> <i_m_source_file_index>
52

> <r_mmod_Potential_Energy-OPLS-2005>
-92.4254760742188

> <r_mmod_Stretch_Energy-OPLS-2005>
31.3078918457031

> <r_mmod_Bend_Energy-OPLS-2005>
94.2719268798828

> <r_mmod_Torsional_Energy-OPLS-2005>
245.850509643555

> <r_mmod_Improper_Torsional_Energy-OPLS-2005>
3.19126462936401

> <r_mmod_Van_der_Waal_Energy-OPLS-2005>
119.154426574707

> <r_mmod_Electrostatic_Energy-OPLS-2005>
-377.154998779297

> <r_mmod_Solvation_Energy-OPLS-2005>
-217.567794799805

> <b_mmod_Minimization_Converged-OPLS-2005>
0

> <r_mmod_RMS_Derivative-OPLS-2005>
3.23420071601868

$$$$
52
                    3D
 Structure written by MMmdl.
159167  0  0  1  0            999 V2000
  -30.7280  -14.3755   20.5555 C   0  0  0  0  0  0
  -30.4182  -12.2400   19.4081 C   0  0  0  0  0  0
  -29.4926  -12.4901   18.1999 C   0  0  0  0  0  0
  -28.0107  -12.3741   18.6109 C   0  0  0  0  0  0
  -27.6708  -13.1950   19.8838 C   0  0  2  0  0  0
  -28.7117  -12.9356   20.9993 C   0  0  0  0  0  0
  -25.2634  -13.8144   20.5660 C   0  0  0  0  0  0
  -24.1874  -13.0440   20.9162 C   0  0  0  0  0  0
  -24.6407  -11.6898   20.8758 C   0  0  0  0  0  0
  -23.9073  -10.4285   21.0415 C   0  0  0  0  0  0
  -24.3618   -9.4198   21.9188 C   0  0  0  0  0  0
  -23.6285   -8.2242   22.0767 C   0  0  0  0  0  0
  -22.4269   -8.0286   21.3547 C   0  0  0  0  0  0
  -21.9911   -9.0267   20.4650 C   0  0  0  0  0  0
  -22.7253  -10.2137   20.3050 C   0  0  0  0  0  0
  -21.6850   -6.0735   22.5272 C   0  0  0  0  0  0
  -21.4016   -6.5633   23.8213 C   0  0  0  0  0  0
  -21.3659   -5.6787   24.9171 C   0  0  0  0  0  0
  -21.6042   -4.3050   24.7226 C   0  0  0  0  0  0
  -21.8822   -3.8143   23.4344 C   0  0  0  0  0  0
  -21.9198   -4.6962   22.3404 C   0  0  0  0  0  0
  -22.7886  -13.5247   21.1818 C   0  0  0  0  0  0
  -22.1661   -4.2147   21.0982 F   0  0  0  0  0  0
  -21.5632   -3.4536   25.7740 F   0  0  0  0  0  0
  -30.0507  -13.2074   20.4482 N   0  0  0  0  0  0
  -26.3079  -12.9285   20.3401 N   0  0  0  0  0  0
  -25.9329  -11.6454   20.5784 N   0  0  0  0  0  0
  -22.0537  -12.8239   22.0372 N   0  0  0  0  0  0
  -25.4365  -15.1861   20.4006 N   0  0  0  0  0  0
  -31.8585  -14.5637   20.0975 O   0  0  0  0  0  0
  -21.6632   -6.8879   21.4236 O   0  0  0  0  0  0
  -22.3577  -14.5572   20.6690 O   0  0  0  0  0  0
  -24.6078  -31.8728   23.2142 C   0  0  0  0  0  0
  -25.9000  -32.4848   23.8425 C   0  0  1  0  0  0
  -27.2433  -27.4952   20.0851 C   0  0  0  0  0  0
  -25.5882  -33.8642   24.2367 N   0  0  0  0  0  0
  -23.3944  -30.4961   21.5515 C   0  0  2  0  0  0
  -24.8439  -28.9656   20.1175 C   0  0  0  0  0  0
  -22.7372  -29.4700   22.5008 C   0  0  0  0  0  0
  -18.0289  -28.1353   22.8521 C   0  0  0  0  0  0
  -24.1488  -36.7329   23.2637 C   0  0  0  0  0  0
  -25.9152  -30.8550   21.3601 C   0  0  0  0  0  0
  -25.9973  -29.4910   20.7143 C   0  0  0  0  0  0
  -27.2001  -28.7591   20.7036 C   0  0  0  0  0  0
  -26.0819  -26.9699   19.4825 C   0  0  0  0  0  0
  -24.8774  -27.6989   19.5042 C   0  0  0  0  0  0
  -23.6019  -29.8245   20.1670 C   0  0  0  0  0  0
  -25.4103  -36.3132   24.0342 C   0  0  1  0  0  0
  -20.5863  -28.3668   23.1324 C   0  0  2  0  0  0
  -20.6776  -26.9425   22.5387 C   0  0  0  0  0  0
  -19.5734  -26.6371   21.5216 C   0  0  0  0  0  0
  -18.1947  -26.7883   22.1696 C   0  0  0  0  0  0
  -19.1530  -28.8827   23.2916 C   0  0  0  0  0  0
  -18.9451  -30.1435   23.8914 C   0  0  0  0  0  0
  -17.6456  -30.6577   24.0549 C   0  0  0  0  0  0
  -25.9014  -34.9490   23.5147 C   0  0  0  0  0  0
  -16.5352  -29.9076   23.6306 C   0  0  0  0  0  0
  -16.7277  -28.6480   23.0358 C   0  0  0  0  0  0
  -26.4454  -31.6608   25.0726 C   0  0  0  0  0  0
  -25.3742  -31.3690   26.1487 C   0  0  0  0  0  0
  -27.0283  -30.3064   24.6058 C   0  0  0  0  0  0
  -27.6046  -32.4311   25.7486 C   0  0  0  0  0  0
  -27.5583  -37.1817   24.8464 C   0  0  0  0  0  0
  -21.4105  -29.3072   22.3759 N   0  0  0  0  0  0
  -26.4303  -37.3804   23.9397 N   0  0  0  0  0  0
  -24.6568  -31.0876   22.1017 N   0  0  0  0  0  0
  -23.4164  -28.8236   23.3028 O   0  0  0  0  0  0
  -28.4168  -26.7921   20.0612 O   0  0  0  0  0  0
  -26.5573  -34.8929   22.4710 O   0  0  0  0  0  0
  -23.5280  -32.1459   23.7565 O   0  0  0  0  0  0
  -29.2139  -21.2236   21.0536 C   0  0  0  0  0  0
  -28.1682  -22.1304   21.3602 C   0  0  0  0  0  0
  -28.5872  -20.1764   20.4470 C   0  0  0  0  0  0
  -26.1408  -19.7140   19.8554 C   0  0  0  0  0  0
  -28.3068  -23.5117   21.9210 C   0  0  0  0  0  0
  -29.1905  -18.9430   19.8718 C   0  0  0  0  0  0
  -28.2260  -24.5328   20.7830 C   0  0  0  0  0  0
  -29.1128  -17.7250   20.8012 C   0  0  0  0  0  0
  -30.2580  -16.7547   20.4969 C   0  0  0  0  0  0
  -28.5974  -25.9557   21.1961 C   0  0  0  0  0  0
  -26.9809  -21.6681   20.9971 N   0  0  0  0  0  0
  -27.2366  -20.4704   20.4264 N   0  0  0  0  0  0
  -29.9827  -15.4045   20.9622 N   0  0  0  0  0  0
  -31.4640  -12.3225   19.1067 H   0  0  0  0  0  0
  -30.2978  -11.2217   19.7822 H   0  0  0  0  0  0
  -29.7140  -11.7788   17.4045 H   0  0  0  0  0  0
  -29.6815  -13.4804   17.7835 H   0  0  0  0  0  0
  -27.7961  -11.3186   18.7812 H   0  0  0  0  0  0
  -27.3682  -12.6833   17.7864 H   0  0  0  0  0  0
  -27.7284  -14.2475   19.6085 H   0  0  0  0  0  0
  -28.6620  -11.8965   21.3274 H   0  0  0  0  0  0
  -28.4971  -13.5291   21.8895 H   0  0  0  0  0  0
  -25.2767   -9.5669   22.4751 H   0  0  0  0  0  0
  -24.0000   -7.4630   22.7474 H   0  0  0  0  0  0
  -21.0849   -8.8786   19.8947 H   0  0  0  0  0  0
  -22.3727  -10.9673   19.6151 H   0  0  0  0  0  0
  -21.2002   -7.6141   23.9712 H   0  0  0  0  0  0
  -21.1475   -6.0519   25.9075 H   0  0  0  0  0  0
  -22.0606   -2.7604   23.2852 H   0  0  0  0  0  0
  -22.4145  -11.9892   22.4755 H   0  0  0  0  0  0
  -21.1156  -13.1266   22.2559 H   0  0  0  0  0  0
  -24.6688  -15.8414   20.4966 H   0  0  0  0  0  0
  -26.2833  -15.6179   20.0546 H   0  0  0  0  0  0
  -26.7084  -32.5598   23.1212 H   0  0  0  0  0  0
  -25.0067  -33.9820   25.0534 H   0  0  0  0  0  0
  -22.6808  -31.3112   21.4132 H   0  0  0  0  0  0
  -23.3741  -35.9673   23.3316 H   0  0  0  0  0  0
  -24.3590  -36.8922   22.2050 H   0  0  0  0  0  0
  -23.7251  -37.6544   23.6636 H   0  0  0  0  0  0
  -26.0168  -31.6202   20.5898 H   0  0  0  0  0  0
  -26.8055  -30.9130   21.9741 H   0  0  0  0  0  0
  -28.0933  -29.1649   21.1583 H   0  0  0  0  0  0
  -26.1122  -26.0071   18.9929 H   0  0  0  0  0  0
  -23.9903  -27.2894   19.0418 H   0  0  0  0  0  0
  -23.7047  -30.5966   19.4033 H   0  0  0  0  0  0
  -22.7277  -29.2392   19.8779 H   0  0  0  0  0  0
  -25.1282  -36.2009   25.0836 H   0  0  0  0  0  0
  -20.9961  -28.3221   24.1440 H   0  0  0  0  0  0
  -20.5719  -26.2287   23.3577 H   0  0  0  0  0  0
  -21.6643  -26.7515   22.1147 H   0  0  0  0  0  0
  -19.6879  -25.6291   21.1215 H   0  0  0  0  0  0
  -19.6623  -27.3204   20.6749 H   0  0  0  0  0  0
  -17.4174  -26.6580   21.4157 H   0  0  0  0  0  0
  -18.0439  -26.0042   22.9137 H   0  0  0  0  0  0
  -19.7919  -30.7248   24.2301 H   0  0  0  0  0  0
  -17.5003  -31.6249   24.5148 H   0  0  0  0  0  0
  -15.5351  -30.2977   23.7627 H   0  0  0  0  0  0
  -15.8667  -28.0812   22.7080 H   0  0  0  0  0  0
  -24.5907  -30.7046   25.7824 H   0  0  0  0  0  0
  -24.8947  -32.2840   26.4975 H   0  0  0  0  0  0
  -25.8110  -30.8834   27.0224 H   0  0  0  0  0  0
  -26.2811  -29.6827   24.1134 H   0  0  0  0  0  0
  -27.4109  -29.7288   25.4484 H   0  0  0  0  0  0
  -27.8622  -30.4411   23.9160 H   0  0  0  0  0  0
  -27.2675  -33.3586   26.2126 H   0  0  0  0  0  0
  -28.3826  -32.6905   25.0294 H   0  0  0  0  0  0
  -28.0752  -31.8398   26.5355 H   0  0  0  0  0  0
  -28.2610  -38.0104   24.7500 H   0  0  0  0  0  0
  -28.1064  -36.2632   24.6304 H   0  0  0  0  0  0
  -27.2294  -37.1496   25.8867 H   0  0  0  0  0  0
  -20.9232  -29.8816   21.7020 H   0  0  0  0  0  0
  -26.0193  -38.2884   24.1392 H   0  0  0  0  0  0
  -30.2762  -21.3435   21.2157 H   0  0  0  0  0  0
  -25.9798  -20.0337   18.8260 H   0  0  0  0  0  0
  -25.2267  -19.8774   20.4252 H   0  0  0  0  0  0
  -26.3674  -18.6491   19.8606 H   0  0  0  0  0  0
  -29.2615  -23.6049   22.4388 H   0  0  0  0  0  0
  -27.5327  -23.7086   22.6629 H   0  0  0  0  0  0
  -30.2349  -19.1589   19.6437 H   0  0  0  0  0  0
  -28.7339  -18.7046   18.9098 H   0  0  0  0  0  0
  -27.2178  -24.5066   20.3688 H   0  0  0  0  0  0
  -28.8991  -24.2316   19.9789 H   0  0  0  0  0  0
  -29.1910  -18.0379   21.8431 H   0  0  0  0  0  0
  -28.1355  -17.2554   20.6916 H   0  0  0  0  0  0
  -30.4078  -16.7126   19.4146 H   0  0  0  0  0  0
  -31.1949  -17.1134   20.9272 H   0  0  0  0  0  0
  -29.6427  -25.9967   21.5056 H   0  0  0  0  0  0
  -28.0018  -26.2807   22.0520 H   0  0  0  0  0  0
  -29.0631  -15.1988   21.3209 H   0  0  0  0  0  0
  1 25  1  0  0  0
  1 30  2  0  0  0
  1 83  1  0  0  0
  2  3  1  0  0  0
  2 25  1  0  0  0
  2 84  1  0  0  0
  2 85  1  0  0  0
  3  4  1  0  0  0
  3 86  1  0  0  0
  3 87  1  0  0  0
  4  5  1  0  0  0
  4 88  1  0  0  0
  4 89  1  0  0  0
  5  6  1  0  0  0
  5 26  1  0  0  0
  5 90  1  0  0  0
  6 25  1  0  0  0
  6 91  1  0  0  0
  6 92  1  0  0  0
  7  8  2  0  0  0
  7 26  1  0  0  0
  7 29  1  0  0  0
  8  9  1  0  0  0
  8 22  1  0  0  0
  9 10  1  0  0  0
  9 27  2  0  0  0
 10 11  2  0  0  0
 10 15  1  0  0  0
 11 12  1  0  0  0
 11 93  1  0  0  0
 12 13  2  0  0  0
 12 94  1  0  0  0
 13 14  1  0  0  0
 13 31  1  0  0  0
 14 15  2  0  0  0
 14 95  1  0  0  0
 15 96  1  0  0  0
 16 17  2  0  0  0
 16 21  1  0  0  0
 16 31  1  0  0  0
 17 18  1  0  0  0
 17 97  1  0  0  0
 18 19  2  0  0  0
 18 98  1  0  0  0
 19 20  1  0  0  0
 19 24  1  0  0  0
 20 21  2  0  0  0
 20 99  1  0  0  0
 21 23  1  0  0  0
 22 28  1  0  0  0
 22 32  2  0  0  0
 26 27  1  0  0  0
 28100  1  0  0  0
 28101  1  0  0  0
 29102  1  0  0  0
 29103  1  0  0  0
 33 34  1  0  0  0
 33 66  1  0  0  0
 33 70  2  0  0  0
 34 36  1  0  0  0
 34 59  1  0  0  0
 34104  1  0  0  0
 35 44  2  0  0  0
 35 45  1  0  0  0
 35 68  1  0  0  0
 36 56  1  0  0  0
 36105  1  0  0  0
 37 39  1  0  0  0
 37 47  1  0  0  0
 37 66  1  0  0  0
 37106  1  0  0  0
 38 43  2  0  0  0
 38 46  1  0  0  0
 38 47  1  0  0  0
 39 64  1  0  0  0
 39 67  2  0  0  0
 40 52  1  0  0  0
 40 53  2  0  0  0
 40 58  1  0  0  0
 41107  1  0  0  0
 41108  1  0  0  0
 41109  1  0  0  0
 41 48  1  0  0  0
 42 43  1  0  0  0
 42 66  1  0  0  0
 42110  1  0  0  0
 42111  1  0  0  0
 43 44  1  0  0  0
 44112  1  0  0  0
 45 46  2  0  0  0
 45113  1  0  0  0
 46114  1  0  0  0
 47115  1  0  0  0
 47116  1  0  0  0
 48 56  1  0  0  0
 48 65  1  0  0  0
 48117  1  0  0  0
 49 50  1  0  0  0
 49 53  1  0  0  0
 49 64  1  0  0  0
 49118  1  0  0  0
 50 51  1  0  0  0
 50119  1  0  0  0
 50120  1  0  0  0
 51 52  1  0  0  0
 51121  1  0  0  0
 51122  1  0  0  0
 52123  1  0  0  0
 52124  1  0  0  0
 53 54  1  0  0  0
 54 55  2  0  0  0
 54125  1  0  0  0
 55 57  1  0  0  0
 55126  1  0  0  0
 56 69  2  0  0  0
 57 58  2  0  0  0
 57127  1  0  0  0
 58128  1  0  0  0
 59 60  1  0  0  0
 59 61  1  0  0  0
 59 62  1  0  0  0
 60129  1  0  0  0
 60130  1  0  0  0
 60131  1  0  0  0
 61132  1  0  0  0
 61133  1  0  0  0
 61134  1  0  0  0
 62135  1  0  0  0
 62136  1  0  0  0
 62137  1  0  0  0
 63 65  1  0  0  0
 63138  1  0  0  0
 63139  1  0  0  0
 63140  1  0  0  0
 64141  1  0  0  0
 65142  1  0  0  0
 68 80  1  0  0  0
 71 72  1  0  0  0
 71 73  2  0  0  0
 71143  1  0  0  0
 72 75  1  0  0  0
 72 81  2  0  0  0
 73 76  1  0  0  0
 73 82  1  0  0  0
 74 82  1  0  0  0
 74144  1  0  0  0
 74145  1  0  0  0
 74146  1  0  0  0
 75 77  1  0  0  0
 75147  1  0  0  0
 75148  1  0  0  0
 76 78  1  0  0  0
 76149  1  0  0  0
 76150  1  0  0  0
 77 80  1  0  0  0
 77151  1  0  0  0
 77152  1  0  0  0
 78 79  1  0  0  0
 78153  1  0  0  0
 78154  1  0  0  0
 79 83  1  0  0  0
 79155  1  0  0  0
 79156  1  0  0  0
 80157  1  0  0  0
 80158  1  0  0  0
 81 82  1  0  0  0
 83159  1  0  0  0
M  ISO  4   1 100  68 101  80 101  83 100
M  END
> <chiral flag>
0

> <version>
0

> <s_m_source_file>
/data/baiqing/PycharmProjects/Reinvent-master-3.2/result/LINK_invent/BTK/process_docking_weight1_custom_sum_contain_oxygen_bond_distance_aromatic_linkinvent_7_9_3/rearranged_h_0040.sdf

> <i_m_source_file_index>
53

> <r_mmod_Potential_Energy-OPLS-2005>
-161.480987548828

> <r_mmod_Stretch_Energy-OPLS-2005>
27.7963409423828

> <r_mmod_Bend_Energy-OPLS-2005>
83.848503112793

> <r_mmod_Torsional_Energy-OPLS-2005>
232.602325439453

> <r_mmod_Improper_Torsional_Energy-OPLS-2005>
7.58270740509033

> <r_mmod_Van_der_Waal_Energy-OPLS-2005>
127.674499511719

> <r_mmod_Electrostatic_Energy-OPLS-2005>
-428.070251464844

> <r_mmod_Solvation_Energy-OPLS-2005>
-222.454208374023

> <b_mmod_Minimization_Converged-OPLS-2005>
0

> <r_mmod_RMS_Derivative-OPLS-2005>
2.21323537826538

$$$$
53
                    3D
 Structure written by MMmdl.
161169  0  0  1  0            999 V2000
  -30.6989  -14.3638   20.6792 C   0  0  0  0  0  0
  -30.4358  -12.2881   19.3682 C   0  0  0  0  0  0
  -29.4968  -12.5392   18.1718 C   0  0  0  0  0  0
  -28.0121  -12.3992   18.5781 C   0  0  0  0  0  0
  -27.6668  -13.1895   19.8685 C   0  0  2  0  0  0
  -28.6991  -12.8665   20.9666 C   0  0  0  0  0  0
  -25.2613  -13.8109   20.5653 C   0  0  0  0  0  0
  -24.1833  -13.0406   20.9113 C   0  0  0  0  0  0
  -24.6370  -11.6873   20.8662 C   0  0  0  0  0  0
  -23.9036  -10.4286   21.0375 C   0  0  0  0  0  0
  -24.3594   -9.4222   21.9169 C   0  0  0  0  0  0
  -23.6280   -8.2256   22.0777 C   0  0  0  0  0  0
  -22.4265   -8.0286   21.3570 C   0  0  0  0  0  0
  -21.9875   -9.0241   20.4674 C   0  0  0  0  0  0
  -22.7197  -10.2120   20.3049 C   0  0  0  0  0  0
  -21.6860   -6.0734   22.5310 C   0  0  0  0  0  0
  -21.4025   -6.5640   23.8247 C   0  0  0  0  0  0
  -21.3644   -5.6788   24.9200 C   0  0  0  0  0  0
  -21.6043   -4.3062   24.7255 C   0  0  0  0  0  0
  -21.8805   -3.8142   23.4382 C   0  0  0  0  0  0
  -21.9195   -4.6956   22.3429 C   0  0  0  0  0  0
  -22.7877  -13.5271   21.1777 C   0  0  0  0  0  0
  -22.1665   -4.2150   21.0999 F   0  0  0  0  0  0
  -21.5606   -3.4537   25.7752 F   0  0  0  0  0  0
  -30.0357  -13.2073   20.4394 N   0  0  0  0  0  0
  -26.3026  -12.9250   20.3259 N   0  0  0  0  0  0
  -25.9274  -11.6431   20.5626 N   0  0  0  0  0  0
  -22.0448  -12.8336   22.0354 N   0  0  0  0  0  0
  -25.4288  -15.1825   20.4133 N   0  0  0  0  0  0
  -31.7652  -14.6741   20.1356 O   0  0  0  0  0  0
  -21.6641   -6.8874   21.4269 O   0  0  0  0  0  0
  -22.3596  -14.5575   20.6609 O   0  0  0  0  0  0
  -24.6141  -31.8659   23.2147 C   0  0  0  0  0  0
  -25.9053  -32.4808   23.8423 C   0  0  1  0  0  0
  -27.2525  -27.4784   20.0794 C   0  0  0  0  0  0
  -25.5902  -33.8623   24.2315 N   0  0  0  0  0  0
  -23.4000  -30.4874   21.5529 C   0  0  2  0  0  0
  -24.8521  -28.9498   20.1292 C   0  0  0  0  0  0
  -22.7378  -29.4661   22.5049 C   0  0  0  0  0  0
  -18.0268  -28.1342   22.8492 C   0  0  0  0  0  0
  -24.1455  -36.7319   23.2633 C   0  0  0  0  0  0
  -25.9266  -30.8425   21.3669 C   0  0  0  0  0  0
  -26.0090  -29.4798   20.7125 C   0  0  0  0  0  0
  -27.2171  -28.7497   20.6862 C   0  0  0  0  0  0
  -26.0835  -26.9448   19.5067 C   0  0  0  0  0  0
  -24.8789  -27.6752   19.5320 C   0  0  0  0  0  0
  -23.6093  -29.8073   20.1733 C   0  0  0  0  0  0
  -25.4082  -36.3097   24.0310 C   0  0  1  0  0  0
  -20.5860  -28.3647   23.1310 C   0  0  2  0  0  0
  -20.6763  -26.9391   22.5386 C   0  0  0  0  0  0
  -19.5744  -26.6356   21.5181 C   0  0  0  0  0  0
  -18.1926  -26.7888   22.1590 C   0  0  0  0  0  0
  -19.1515  -28.8811   23.2901 C   0  0  0  0  0  0
  -18.9429  -30.1419   23.8913 C   0  0  0  0  0  0
  -17.6430  -30.6552   24.0552 C   0  0  0  0  0  0
  -25.8999  -34.9457   23.5081 C   0  0  0  0  0  0
  -16.5337  -29.9032   23.6315 C   0  0  0  0  0  0
  -16.7256  -28.6441   23.0353 C   0  0  0  0  0  0
  -26.4490  -31.6632   25.0786 C   0  0  0  0  0  0
  -25.3740  -31.3774   26.1529 C   0  0  0  0  0  0
  -27.0382  -30.3079   24.6216 C   0  0  0  0  0  0
  -27.6063  -32.4353   25.7550 C   0  0  0  0  0  0
  -27.5549  -37.1775   24.8443 C   0  0  0  0  0  0
  -21.4116  -29.3017   22.3734 N   0  0  0  0  0  0
  -26.4265  -37.3774   23.9414 N   0  0  0  0  0  0
  -24.6628  -31.0789   22.1017 N   0  0  0  0  0  0
  -23.4144  -28.8234   23.3126 O   0  0  0  0  0  0
  -28.4146  -26.7556   20.0059 O   0  0  0  0  0  0
  -26.5544  -34.8901   22.4628 O   0  0  0  0  0  0
  -23.5342  -32.1430   23.7520 O   0  0  0  0  0  0
  -31.1306  -20.6465   20.7410 C   0  0  0  0  0  0
  -30.8488  -21.8932   20.1610 C   0  0  0  0  0  0
  -30.2789  -20.1577   21.7503 C   0  0  0  0  0  0
  -29.7281  -22.6092   20.6129 C   0  0  0  0  0  0
  -29.1600  -20.9337   22.1263 C   0  0  0  0  0  0
  -28.1574  -20.4598   23.1642 C   0  0  0  0  0  0
  -30.6065  -18.8223   22.4013 C   0  0  0  0  0  0
  -29.4000  -23.9872   20.0670 C   0  0  0  0  0  0
  -30.1158  -17.6258   21.5794 C   0  0  0  0  0  0
  -29.8994  -25.1249   20.9791 C   0  0  0  0  0  0
  -30.5981  -16.3233   22.2338 C   0  0  0  0  0  0
  -28.8129  -26.1764   21.2403 C   0  0  0  0  0  0
  -28.9004  -22.1391   21.5735 N   0  0  0  0  0  0
  -30.0791  -15.1430   21.5707 N   0  0  0  0  0  0
  -31.4792  -12.4216   19.0785 H   0  0  0  0  0  0
  -30.3617  -11.2553   19.7157 H   0  0  0  0  0  0
  -29.7366  -11.8513   17.3590 H   0  0  0  0  0  0
  -29.6742  -13.5435   17.7794 H   0  0  0  0  0  0
  -27.8003  -11.3395   18.7215 H   0  0  0  0  0  0
  -27.3727  -12.7271   17.7564 H   0  0  0  0  0  0
  -27.7434  -14.2516   19.6317 H   0  0  0  0  0  0
  -28.6709  -11.8024   21.2065 H   0  0  0  0  0  0
  -28.4424  -13.3596   21.9025 H   0  0  0  0  0  0
  -25.2716   -9.5732   22.4753 H   0  0  0  0  0  0
  -23.9993   -7.4668   22.7520 H   0  0  0  0  0  0
  -21.0784   -8.8748   19.8993 H   0  0  0  0  0  0
  -22.3629  -10.9657   19.6161 H   0  0  0  0  0  0
  -21.2046   -7.6157   23.9761 H   0  0  0  0  0  0
  -21.1465   -6.0512   25.9100 H   0  0  0  0  0  0
  -22.0599   -2.7612   23.2874 H   0  0  0  0  0  0
  -22.3982  -12.0031   22.4849 H   0  0  0  0  0  0
  -21.1080  -13.1486   22.2486 H   0  0  0  0  0  0
  -24.6446  -15.8201   20.5063 H   0  0  0  0  0  0
  -26.2824  -15.6428   20.1185 H   0  0  0  0  0  0
  -26.7145  -32.5551   23.1217 H   0  0  0  0  0  0
  -25.0119  -33.9812   25.0490 H   0  0  0  0  0  0
  -22.6912  -31.3054   21.4042 H   0  0  0  0  0  0
  -23.3700  -35.9663   23.3290 H   0  0  0  0  0  0
  -24.3566  -36.8956   22.2060 H   0  0  0  0  0  0
  -23.7211  -37.6502   23.6672 H   0  0  0  0  0  0
  -26.0426  -31.6145   20.6037 H   0  0  0  0  0  0
  -26.8095  -30.8890   21.9932 H   0  0  0  0  0  0
  -28.1237  -29.1622   21.1065 H   0  0  0  0  0  0
  -26.1056  -25.9678   19.0480 H   0  0  0  0  0  0
  -23.9864  -27.2546   19.0894 H   0  0  0  0  0  0
  -23.7154  -30.5695   19.3995 H   0  0  0  0  0  0
  -22.7380  -29.2131   19.8855 H   0  0  0  0  0  0
  -25.1249  -36.1943   25.0795 H   0  0  0  0  0  0
  -20.9974  -28.3208   24.1419 H   0  0  0  0  0  0
  -20.5679  -26.2246   23.3577 H   0  0  0  0  0  0
  -21.6646  -26.7437   22.1195 H   0  0  0  0  0  0
  -19.6929  -25.6253   21.1239 H   0  0  0  0  0  0
  -19.6696  -27.3146   20.6715 H   0  0  0  0  0  0
  -17.4206  -26.6670   21.3986 H   0  0  0  0  0  0
  -18.0332  -25.9993   22.8956 H   0  0  0  0  0  0
  -19.7906  -30.7235   24.2303 H   0  0  0  0  0  0
  -17.4967  -31.6248   24.5122 H   0  0  0  0  0  0
  -15.5325  -30.2925   23.7601 H   0  0  0  0  0  0
  -15.8674  -28.0739   22.7068 H   0  0  0  0  0  0
  -24.5865  -30.7178   25.7873 H   0  0  0  0  0  0
  -24.9006  -32.2970   26.4964 H   0  0  0  0  0  0
  -25.8057  -30.8934   27.0296 H   0  0  0  0  0  0
  -26.2968  -29.6787   24.1292 H   0  0  0  0  0  0
  -27.4170  -29.7396   25.4725 H   0  0  0  0  0  0
  -27.8779  -30.4426   23.9400 H   0  0  0  0  0  0
  -27.2671  -33.3626   26.2179 H   0  0  0  0  0  0
  -28.3858  -32.6946   25.0371 H   0  0  0  0  0  0
  -28.0756  -31.8463   26.5435 H   0  0  0  0  0  0
  -28.2524  -38.0107   24.7528 H   0  0  0  0  0  0
  -28.1054  -36.2629   24.6177 H   0  0  0  0  0  0
  -27.2299  -37.1362   25.8851 H   0  0  0  0  0  0
  -20.9284  -29.8684   21.6910 H   0  0  0  0  0  0
  -26.0137  -38.2823   24.1449 H   0  0  0  0  0  0
  -31.9907  -20.0745   20.4267 H   0  0  0  0  0  0
  -31.4948  -22.2883   19.3888 H   0  0  0  0  0  0
  -27.6946  -19.5302   22.8285 H   0  0  0  0  0  0
  -27.3621  -21.1906   23.3236 H   0  0  0  0  0  0
  -28.6285  -20.2748   24.1314 H   0  0  0  0  0  0
  -30.1977  -18.7713   23.4098 H   0  0  0  0  0  0
  -31.6864  -18.7568   22.5290 H   0  0  0  0  0  0
  -28.3167  -24.0462   19.9457 H   0  0  0  0  0  0
  -29.8081  -24.1090   19.0613 H   0  0  0  0  0  0
  -30.4919  -17.6898   20.5577 H   0  0  0  0  0  0
  -29.0276  -17.6486   21.5077 H   0  0  0  0  0  0
  -30.7970  -25.5825   20.5559 H   0  0  0  0  0  0
  -30.2093  -24.7133   21.9429 H   0  0  0  0  0  0
  -30.2534  -16.2780   23.2678 H   0  0  0  0  0  0
  -31.6871  -16.2918   22.2719 H   0  0  0  0  0  0
  -29.1790  -26.9447   21.9215 H   0  0  0  0  0  0
  -27.9581  -25.6993   21.7231 H   0  0  0  0  0  0
  -29.1895  -14.7990   21.9001 H   0  0  0  0  0  0
  1 25  1  0  0  0
  1 30  2  0  0  0
  1 84  1  0  0  0
  2  3  1  0  0  0
  2 25  1  0  0  0
  2 85  1  0  0  0
  2 86  1  0  0  0
  3  4  1  0  0  0
  3 87  1  0  0  0
  3 88  1  0  0  0
  4  5  1  0  0  0
  4 89  1  0  0  0
  4 90  1  0  0  0
  5  6  1  0  0  0
  5 26  1  0  0  0
  5 91  1  0  0  0
  6 25  1  0  0  0
  6 92  1  0  0  0
  6 93  1  0  0  0
  7  8  2  0  0  0
  7 26  1  0  0  0
  7 29  1  0  0  0
  8  9  1  0  0  0
  8 22  1  0  0  0
  9 10  1  0  0  0
  9 27  2  0  0  0
 10 11  2  0  0  0
 10 15  1  0  0  0
 11 12  1  0  0  0
 11 94  1  0  0  0
 12 13  2  0  0  0
 12 95  1  0  0  0
 13 14  1  0  0  0
 13 31  1  0  0  0
 14 15  2  0  0  0
 14 96  1  0  0  0
 15 97  1  0  0  0
 16 17  2  0  0  0
 16 21  1  0  0  0
 16 31  1  0  0  0
 17 18  1  0  0  0
 17 98  1  0  0  0
 18 19  2  0  0  0
 18 99  1  0  0  0
 19 20  1  0  0  0
 19 24  1  0  0  0
 20 21  2  0  0  0
 20100  1  0  0  0
 21 23  1  0  0  0
 22 28  1  0  0  0
 22 32  2  0  0  0
 26 27  1  0  0  0
 28101  1  0  0  0
 28102  1  0  0  0
 29103  1  0  0  0
 29104  1  0  0  0
 33 34  1  0  0  0
 33 66  1  0  0  0
 33 70  2  0  0  0
 34 36  1  0  0  0
 34 59  1  0  0  0
 34105  1  0  0  0
 35 44  2  0  0  0
 35 45  1  0  0  0
 35 68  1  0  0  0
 36 56  1  0  0  0
 36106  1  0  0  0
 37 39  1  0  0  0
 37 47  1  0  0  0
 37 66  1  0  0  0
 37107  1  0  0  0
 38 43  2  0  0  0
 38 46  1  0  0  0
 38 47  1  0  0  0
 39 64  1  0  0  0
 39 67  2  0  0  0
 40 52  1  0  0  0
 40 53  2  0  0  0
 40 58  1  0  0  0
 41108  1  0  0  0
 41109  1  0  0  0
 41110  1  0  0  0
 41 48  1  0  0  0
 42 43  1  0  0  0
 42 66  1  0  0  0
 42111  1  0  0  0
 42112  1  0  0  0
 43 44  1  0  0  0
 44113  1  0  0  0
 45 46  2  0  0  0
 45114  1  0  0  0
 46115  1  0  0  0
 47116  1  0  0  0
 47117  1  0  0  0
 48 56  1  0  0  0
 48 65  1  0  0  0
 48118  1  0  0  0
 49 50  1  0  0  0
 49 53  1  0  0  0
 49 64  1  0  0  0
 49119  1  0  0  0
 50 51  1  0  0  0
 50120  1  0  0  0
 50121  1  0  0  0
 51 52  1  0  0  0
 51122  1  0  0  0
 51123  1  0  0  0
 52124  1  0  0  0
 52125  1  0  0  0
 53 54  1  0  0  0
 54 55  2  0  0  0
 54126  1  0  0  0
 55 57  1  0  0  0
 55127  1  0  0  0
 56 69  2  0  0  0
 57 58  2  0  0  0
 57128  1  0  0  0
 58129  1  0  0  0
 59 60  1  0  0  0
 59 61  1  0  0  0
 59 62  1  0  0  0
 60130  1  0  0  0
 60131  1  0  0  0
 60132  1  0  0  0
 61133  1  0  0  0
 61134  1  0  0  0
 61135  1  0  0  0
 62136  1  0  0  0
 62137  1  0  0  0
 62138  1  0  0  0
 63 65  1  0  0  0
 63139  1  0  0  0
 63140  1  0  0  0
 63141  1  0  0  0
 64142  1  0  0  0
 65143  1  0  0  0
 68 82  1  0  0  0
 71 72  2  0  0  0
 71 73  1  0  0  0
 71144  1  0  0  0
 72 74  1  0  0  0
 72145  1  0  0  0
 73 75  2  0  0  0
 73 77  1  0  0  0
 74 78  1  0  0  0
 74 83  2  0  0  0
 75 76  1  0  0  0
 75 83  1  0  0  0
 76146  1  0  0  0
 76147  1  0  0  0
 76148  1  0  0  0
 77 79  1  0  0  0
 77149  1  0  0  0
 77150  1  0  0  0
 78 80  1  0  0  0
 78151  1  0  0  0
 78152  1  0  0  0
 79 81  1  0  0  0
 79153  1  0  0  0
 79154  1  0  0  0
 80 82  1  0  0  0
 80155  1  0  0  0
 80156  1  0  0  0
 81 84  1  0  0  0
 81157  1  0  0  0
 81158  1  0  0  0
 82159  1  0  0  0
 82160  1  0  0  0
 84161  1  0  0  0
M  ISO  4   1 100  68 101  82 101  84 100
M  END
> <chiral flag>
0

> <version>
0

> <s_m_source_file>
/data/baiqing/PycharmProjects/Reinvent-master-3.2/result/LINK_invent/BTK/process_docking_weight1_custom_sum_contain_oxygen_bond_distance_aromatic_linkinvent_7_9_3/rearranged_h_0040.sdf

> <i_m_source_file_index>
54

> <r_mmod_Potential_Energy-OPLS-2005>
-272.353302001953

> <r_mmod_Stretch_Energy-OPLS-2005>
30.1103992462158

> <r_mmod_Bend_Energy-OPLS-2005>
87.3516006469727

> <r_mmod_Torsional_Energy-OPLS-2005>
218.341873168945

> <r_mmod_Improper_Torsional_Energy-OPLS-2005>
1.97333514690399

> <r_mmod_Van_der_Waal_Energy-OPLS-2005>
154.281555175781

> <r_mmod_Electrostatic_Energy-OPLS-2005>
-554.601379394531

> <r_mmod_Solvation_Energy-OPLS-2005>
-218.612930297852

> <b_mmod_Minimization_Converged-OPLS-2005>
0

> <r_mmod_RMS_Derivative-OPLS-2005>
4.89848852157593

$$$$
54
                    3D
 Structure written by MMmdl.
160168  0  0  1  0            999 V2000
  -30.6992  -14.4542   20.5049 C   0  0  0  0  0  0
  -30.4194  -12.2752   19.4215 C   0  0  0  0  0  0
  -29.4929  -12.4752   18.2043 C   0  0  0  0  0  0
  -28.0130  -12.3491   18.6199 C   0  0  0  0  0  0
  -27.6590  -13.1997   19.8708 C   0  0  2  0  0  0
  -28.7062  -12.9986   20.9911 C   0  0  0  0  0  0
  -25.2595  -13.8145   20.5696 C   0  0  0  0  0  0
  -24.1835  -13.0430   20.9176 C   0  0  0  0  0  0
  -24.6379  -11.6892   20.8743 C   0  0  0  0  0  0
  -23.9040  -10.4284   21.0407 C   0  0  0  0  0  0
  -24.3597   -9.4201   21.9182 C   0  0  0  0  0  0
  -23.6275   -8.2237   22.0752 C   0  0  0  0  0  0
  -22.4258   -8.0275   21.3544 C   0  0  0  0  0  0
  -21.9895   -9.0248   20.4649 C   0  0  0  0  0  0
  -22.7217  -10.2127   20.3058 C   0  0  0  0  0  0
  -21.6852   -6.0726   22.5272 C   0  0  0  0  0  0
  -21.4017   -6.5632   23.8204 C   0  0  0  0  0  0
  -21.3661   -5.6788   24.9167 C   0  0  0  0  0  0
  -21.6042   -4.3050   24.7226 C   0  0  0  0  0  0
  -21.8820   -3.8141   23.4348 C   0  0  0  0  0  0
  -21.9192   -4.6954   22.3401 C   0  0  0  0  0  0
  -22.7858  -13.5241   21.1829 C   0  0  0  0  0  0
  -22.1655   -4.2139   21.0978 F   0  0  0  0  0  0
  -21.5632   -3.4531   25.7739 F   0  0  0  0  0  0
  -30.0318  -13.2768   20.4218 N   0  0  0  0  0  0
  -26.3014  -12.9294   20.3372 N   0  0  0  0  0  0
  -25.9305  -11.6462   20.5791 N   0  0  0  0  0  0
  -22.0495  -12.8249   22.0397 N   0  0  0  0  0  0
  -25.4350  -15.1859   20.4109 N   0  0  0  0  0  0
  -31.8791  -14.5906   20.1849 O   0  0  0  0  0  0
  -21.6633   -6.8869   21.4232 O   0  0  0  0  0  0
  -22.3538  -14.5538   20.6666 O   0  0  0  0  0  0
  -24.6125  -31.8691   23.2121 C   0  0  0  0  0  0
  -25.9033  -32.4814   23.8407 C   0  0  1  0  0  0
  -27.2287  -27.4537   20.1013 C   0  0  0  0  0  0
  -25.5891  -33.8612   24.2331 N   0  0  0  0  0  0
  -23.3972  -30.4945   21.5518 C   0  0  2  0  0  0
  -24.8407  -28.9593   20.1182 C   0  0  0  0  0  0
  -22.7381  -29.4682   22.5006 C   0  0  0  0  0  0
  -18.0266  -28.1357   22.8497 C   0  0  0  0  0  0
  -24.1482  -36.7321   23.2631 C   0  0  0  0  0  0
  -25.9235  -30.8432   21.3593 C   0  0  0  0  0  0
  -26.0002  -29.4782   20.7086 C   0  0  0  0  0  0
  -27.1994  -28.7344   20.6924 C   0  0  0  0  0  0
  -26.0561  -26.9409   19.5071 C   0  0  0  0  0  0
  -24.8627  -27.6887   19.5140 C   0  0  0  0  0  0
  -23.6027  -29.8245   20.1663 C   0  0  0  0  0  0
  -25.4097  -36.3105   24.0338 C   0  0  1  0  0  0
  -20.5850  -28.3656   23.1332 C   0  0  2  0  0  0
  -20.6773  -26.9400   22.5413 C   0  0  0  0  0  0
  -19.5750  -26.6375   21.5215 C   0  0  0  0  0  0
  -18.1921  -26.7904   22.1631 C   0  0  0  0  0  0
  -19.1508  -28.8818   23.2912 C   0  0  0  0  0  0
  -18.9438  -30.1427   23.8916 C   0  0  0  0  0  0
  -17.6442  -30.6565   24.0570 C   0  0  0  0  0  0
  -25.9029  -34.9471   23.5137 C   0  0  0  0  0  0
  -16.5335  -29.9061   23.6322 C   0  0  0  0  0  0
  -16.7257  -28.6481   23.0346 C   0  0  0  0  0  0
  -26.4465  -31.6582   25.0731 C   0  0  0  0  0  0
  -25.3724  -31.3637   26.1455 C   0  0  0  0  0  0
  -27.0326  -30.3045   24.6079 C   0  0  0  0  0  0
  -27.6010  -32.4297   25.7540 C   0  0  0  0  0  0
  -27.5572  -37.1808   24.8459 C   0  0  0  0  0  0
  -21.4106  -29.3060   22.3763 N   0  0  0  0  0  0
  -26.4284  -37.3786   23.9405 N   0  0  0  0  0  0
  -24.6632  -31.0829   22.0997 N   0  0  0  0  0  0
  -23.4170  -28.8206   23.3025 O   0  0  0  0  0  0
  -28.4060  -26.7444   20.0838 O   0  0  0  0  0  0
  -26.5592  -34.8913   22.4699 O   0  0  0  0  0  0
  -23.5326  -32.1420   23.7548 O   0  0  0  0  0  0
  -25.8981  -20.9923   22.5354 C   0  0  0  0  0  0
  -25.6572  -22.1062   23.3451 C   0  0  0  0  0  0
  -27.0898  -20.9860   21.8043 C   0  0  0  0  0  0
  -27.6504  -23.0194   22.6980 C   0  0  0  0  0  0
  -27.4585  -19.8109   20.9140 C   0  0  0  0  0  0
  -28.6671  -24.1390   22.8549 C   0  0  0  0  0  0
  -28.2128  -18.6921   21.6606 C   0  0  0  0  0  0
  -28.2963  -25.4591   22.1498 C   0  0  0  0  0  0
  -28.6520  -17.5655   20.7087 C   0  0  0  0  0  0
  -29.3829  -16.3872   21.3842 C   0  0  0  0  0  0
  -28.3656  -25.4152   20.6123 C   0  0  0  0  0  0
  -26.5406  -23.1185   23.4227 N   0  0  0  0  0  0
  -27.9635  -22.0096   21.8891 N   0  0  0  0  0  0
  -29.9121  -15.5221   20.3370 N   0  0  0  0  0  0
  -31.4649  -12.3638   19.1205 H   0  0  0  0  0  0
  -30.3086  -11.2704   19.8319 H   0  0  0  0  0  0
  -29.7268  -11.7431   17.4300 H   0  0  0  0  0  0
  -29.6687  -13.4566   17.7612 H   0  0  0  0  0  0
  -27.8198  -11.2958   18.8257 H   0  0  0  0  0  0
  -27.3635  -12.6174   17.7857 H   0  0  0  0  0  0
  -27.6936  -14.2423   19.5565 H   0  0  0  0  0  0
  -28.6755  -11.9758   21.3689 H   0  0  0  0  0  0
  -28.4946  -13.6387   21.8465 H   0  0  0  0  0  0
  -25.2742   -9.5680   22.4754 H   0  0  0  0  0  0
  -23.9987   -7.4635   22.7479 H   0  0  0  0  0  0
  -21.0825   -8.8765   19.8962 H   0  0  0  0  0  0
  -22.3673  -10.9665   19.6171 H   0  0  0  0  0  0
  -21.2010   -7.6140   23.9705 H   0  0  0  0  0  0
  -21.1481   -6.0516   25.9067 H   0  0  0  0  0  0
  -22.0602   -2.7605   23.2848 H   0  0  0  0  0  0
  -22.4095  -11.9908   22.4801 H   0  0  0  0  0  0
  -21.1120  -13.1293   22.2602 H   0  0  0  0  0  0
  -24.6773  -15.8501   20.5266 H   0  0  0  0  0  0
  -26.3025  -15.6164   20.1178 H   0  0  0  0  0  0
  -26.7115  -32.5524   23.1177 H   0  0  0  0  0  0
  -25.0047  -33.9773   25.0479 H   0  0  0  0  0  0
  -22.6860  -31.3114   21.4147 H   0  0  0  0  0  0
  -23.3718  -35.9675   23.3306 H   0  0  0  0  0  0
  -24.3586  -36.8917   22.2043 H   0  0  0  0  0  0
  -23.7257  -37.6544   23.6635 H   0  0  0  0  0  0
  -26.0328  -31.6105   20.5926 H   0  0  0  0  0  0
  -26.8134  -30.8958   21.9740 H   0  0  0  0  0  0
  -28.0985  -29.1345   21.1408 H   0  0  0  0  0  0
  -26.0603  -25.9749   19.0240 H   0  0  0  0  0  0
  -23.9731  -27.2844   19.0506 H   0  0  0  0  0  0
  -23.7095  -30.5986   19.4055 H   0  0  0  0  0  0
  -22.7256  -29.2440   19.8740 H   0  0  0  0  0  0
  -25.1259  -36.1974   25.0830 H   0  0  0  0  0  0
  -20.9933  -28.3216   24.1454 H   0  0  0  0  0  0
  -20.5686  -26.2252   23.3586 H   0  0  0  0  0  0
  -21.6648  -26.7475   22.1211 H   0  0  0  0  0  0
  -19.6917  -25.6284   21.1236 H   0  0  0  0  0  0
  -19.6664  -27.3188   20.6746 H   0  0  0  0  0  0
  -17.4191  -26.6639   21.4035 H   0  0  0  0  0  0
  -18.0337  -26.0048   22.9035 H   0  0  0  0  0  0
  -19.7918  -30.7233   24.2290 H   0  0  0  0  0  0
  -17.5000  -31.6246   24.5168 H   0  0  0  0  0  0
  -15.5331  -30.2964   23.7639 H   0  0  0  0  0  0
  -15.8669  -28.0805   22.7043 H   0  0  0  0  0  0
  -25.8103  -30.8915   27.0266 H   0  0  0  0  0  0
  -24.5992  -30.6862   25.7814 H   0  0  0  0  0  0
  -24.8800  -32.2754   26.4842 H   0  0  0  0  0  0
  -26.2866  -29.6793   24.1151 H   0  0  0  0  0  0
  -27.4136  -29.7275   25.4521 H   0  0  0  0  0  0
  -27.8674  -30.4423   23.9191 H   0  0  0  0  0  0
  -27.2641  -33.3678   26.1966 H   0  0  0  0  0  0
  -28.3924  -32.6700   25.0431 H   0  0  0  0  0  0
  -28.0523  -31.8477   26.5588 H   0  0  0  0  0  0
  -28.2593  -38.0101   24.7484 H   0  0  0  0  0  0
  -28.1062  -36.2629   24.6298 H   0  0  0  0  0  0
  -27.2292  -37.1476   25.8863 H   0  0  0  0  0  0
  -20.9234  -29.8799   21.7017 H   0  0  0  0  0  0
  -26.0180  -38.2869   24.1389 H   0  0  0  0  0  0
  -25.1911  -20.1752   22.4864 H   0  0  0  0  0  0
  -24.7594  -22.1824   23.9398 H   0  0  0  0  0  0
  -28.0638  -20.1772   20.0846 H   0  0  0  0  0  0
  -26.5476  -19.4105   20.4671 H   0  0  0  0  0  0
  -29.6426  -23.7980   22.5069 H   0  0  0  0  0  0
  -28.7904  -24.3303   23.9215 H   0  0  0  0  0  0
  -27.5794  -18.2891   22.4518 H   0  0  0  0  0  0
  -29.0885  -19.1172   22.1522 H   0  0  0  0  0  0
  -28.9969  -26.2182   22.4965 H   0  0  0  0  0  0
  -27.3100  -25.7882   22.4782 H   0  0  0  0  0  0
  -29.2972  -18.0022   19.9447 H   0  0  0  0  0  0
  -27.7777  -17.1844   20.1788 H   0  0  0  0  0  0
  -28.7072  -15.8472   22.0469 H   0  0  0  0  0  0
  -30.2105  -16.7520   21.9966 H   0  0  0  0  0  0
  -27.5544  -24.8149   20.1996 H   0  0  0  0  0  0
  -29.2899  -24.9244   20.3046 H   0  0  0  0  0  0
  -30.2969  -16.0882   19.5954 H   0  0  0  0  0  0
  1 25  1  0  0  0
  1 30  2  0  0  0
  1 84  1  0  0  0
  2  3  1  0  0  0
  2 25  1  0  0  0
  2 85  1  0  0  0
  2 86  1  0  0  0
  3  4  1  0  0  0
  3 87  1  0  0  0
  3 88  1  0  0  0
  4  5  1  0  0  0
  4 89  1  0  0  0
  4 90  1  0  0  0
  5  6  1  0  0  0
  5 26  1  0  0  0
  5 91  1  0  0  0
  6 25  1  0  0  0
  6 92  1  0  0  0
  6 93  1  0  0  0
  7  8  2  0  0  0
  7 26  1  0  0  0
  7 29  1  0  0  0
  8  9  1  0  0  0
  8 22  1  0  0  0
  9 10  1  0  0  0
  9 27  2  0  0  0
 10 11  2  0  0  0
 10 15  1  0  0  0
 11 12  1  0  0  0
 11 94  1  0  0  0
 12 13  2  0  0  0
 12 95  1  0  0  0
 13 14  1  0  0  0
 13 31  1  0  0  0
 14 15  2  0  0  0
 14 96  1  0  0  0
 15 97  1  0  0  0
 16 17  2  0  0  0
 16 21  1  0  0  0
 16 31  1  0  0  0
 17 18  1  0  0  0
 17 98  1  0  0  0
 18 19  2  0  0  0
 18 99  1  0  0  0
 19 20  1  0  0  0
 19 24  1  0  0  0
 20 21  2  0  0  0
 20100  1  0  0  0
 21 23  1  0  0  0
 22 28  1  0  0  0
 22 32  2  0  0  0
 26 27  1  0  0  0
 28101  1  0  0  0
 28102  1  0  0  0
 29103  1  0  0  0
 29104  1  0  0  0
 33 34  1  0  0  0
 33 66  1  0  0  0
 33 70  2  0  0  0
 34 36  1  0  0  0
 34 59  1  0  0  0
 34105  1  0  0  0
 35 44  2  0  0  0
 35 45  1  0  0  0
 35 68  1  0  0  0
 36 56  1  0  0  0
 36106  1  0  0  0
 37 39  1  0  0  0
 37 47  1  0  0  0
 37 66  1  0  0  0
 37107  1  0  0  0
 38 43  2  0  0  0
 38 46  1  0  0  0
 38 47  1  0  0  0
 39 64  1  0  0  0
 39 67  2  0  0  0
 40 52  1  0  0  0
 40 53  2  0  0  0
 40 58  1  0  0  0
 41108  1  0  0  0
 41109  1  0  0  0
 41110  1  0  0  0
 41 48  1  0  0  0
 42 43  1  0  0  0
 42 66  1  0  0  0
 42111  1  0  0  0
 42112  1  0  0  0
 43 44  1  0  0  0
 44113  1  0  0  0
 45 46  2  0  0  0
 45114  1  0  0  0
 46115  1  0  0  0
 47116  1  0  0  0
 47117  1  0  0  0
 48 56  1  0  0  0
 48 65  1  0  0  0
 48118  1  0  0  0
 49 50  1  0  0  0
 49 53  1  0  0  0
 49 64  1  0  0  0
 49119  1  0  0  0
 50 51  1  0  0  0
 50120  1  0  0  0
 50121  1  0  0  0
 51 52  1  0  0  0
 51122  1  0  0  0
 51123  1  0  0  0
 52124  1  0  0  0
 52125  1  0  0  0
 53 54  1  0  0  0
 54 55  2  0  0  0
 54126  1  0  0  0
 55 57  1  0  0  0
 55127  1  0  0  0
 56 69  2  0  0  0
 57 58  2  0  0  0
 57128  1  0  0  0
 58129  1  0  0  0
 59 60  1  0  0  0
 59 61  1  0  0  0
 59 62  1  0  0  0
 60130  1  0  0  0
 60131  1  0  0  0
 60132  1  0  0  0
 61133  1  0  0  0
 61134  1  0  0  0
 61135  1  0  0  0
 62136  1  0  0  0
 62137  1  0  0  0
 62138  1  0  0  0
 63 65  1  0  0  0
 63139  1  0  0  0
 63140  1  0  0  0
 63141  1  0  0  0
 64142  1  0  0  0
 65143  1  0  0  0
 68 81  1  0  0  0
 71 72  2  0  0  0
 71 73  1  0  0  0
 71144  1  0  0  0
 72 82  1  0  0  0
 72145  1  0  0  0
 73 75  1  0  0  0
 73 83  2  0  0  0
 74 76  1  0  0  0
 74 82  2  0  0  0
 74 83  1  0  0  0
 75 77  1  0  0  0
 75146  1  0  0  0
 75147  1  0  0  0
 76 78  1  0  0  0
 76148  1  0  0  0
 76149  1  0  0  0
 77 79  1  0  0  0
 77150  1  0  0  0
 77151  1  0  0  0
 78 81  1  0  0  0
 78152  1  0  0  0
 78153  1  0  0  0
 79 80  1  0  0  0
 79154  1  0  0  0
 79155  1  0  0  0
 80 84  1  0  0  0
 80156  1  0  0  0
 80157  1  0  0  0
 81158  1  0  0  0
 81159  1  0  0  0
 84160  1  0  0  0
M  ISO  4   1 100  68 101  81 101  84 100
M  END
> <chiral flag>
0

> <version>
0

> <s_m_source_file>
/data/baiqing/PycharmProjects/Reinvent-master-3.2/result/LINK_invent/BTK/process_docking_weight1_custom_sum_contain_oxygen_bond_distance_aromatic_linkinvent_7_9_3/rearranged_h_0040.sdf

> <i_m_source_file_index>
55

> <r_mmod_Potential_Energy-OPLS-2005>
-480.728454589844

> <r_mmod_Stretch_Energy-OPLS-2005>
30.2120018005371

> <r_mmod_Bend_Energy-OPLS-2005>
104.755798339844

> <r_mmod_Torsional_Energy-OPLS-2005>
259.738220214844

> <r_mmod_Improper_Torsional_Energy-OPLS-2005>
25.53369140625

> <r_mmod_Van_der_Waal_Energy-OPLS-2005>
146.390441894531

> <r_mmod_Electrostatic_Energy-OPLS-2005>
-834.873291015625

> <r_mmod_Solvation_Energy-OPLS-2005>
-227.93049621582

> <b_mmod_Minimization_Converged-OPLS-2005>
0

> <r_mmod_RMS_Derivative-OPLS-2005>
1.55729913711548

$$$$
55
                    3D
 Structure written by MMmdl.
165173  0  0  1  0            999 V2000
  -30.7535  -14.4849   20.5134 C   0  0  0  0  0  0
  -30.4100  -12.3205   19.4014 C   0  0  0  0  0  0
  -29.4693  -12.4944   18.1904 C   0  0  0  0  0  0
  -27.9999  -12.3470   18.6258 C   0  0  0  0  0  0
  -27.6526  -13.2154   19.8648 C   0  0  2  0  0  0
  -28.7111  -13.0634   20.9813 C   0  0  0  0  0  0
  -25.2592  -13.8156   20.5706 C   0  0  0  0  0  0
  -24.1854  -13.0421   20.9155 C   0  0  0  0  0  0
  -24.6416  -11.6886   20.8714 C   0  0  0  0  0  0
  -23.9055  -10.4295   21.0385 C   0  0  0  0  0  0
  -24.3607   -9.4210   21.9156 C   0  0  0  0  0  0
  -23.6301   -8.2243   22.0730 C   0  0  0  0  0  0
  -22.4289   -8.0292   21.3522 C   0  0  0  0  0  0
  -21.9928   -9.0253   20.4598 C   0  0  0  0  0  0
  -22.7237  -10.2134   20.3011 C   0  0  0  0  0  0
  -21.6872   -6.0740   22.5269 C   0  0  0  0  0  0
  -21.4012   -6.5631   23.8197 C   0  0  0  0  0  0
  -21.3660   -5.6784   24.9152 C   0  0  0  0  0  0
  -21.6055   -4.3052   24.7214 C   0  0  0  0  0  0
  -21.8835   -3.8140   23.4334 C   0  0  0  0  0  0
  -21.9199   -4.6962   22.3389 C   0  0  0  0  0  0
  -22.7877  -13.5238   21.1830 C   0  0  0  0  0  0
  -22.1679   -4.2136   21.0976 F   0  0  0  0  0  0
  -21.5614   -3.4537   25.7729 F   0  0  0  0  0  0
  -30.0313  -13.3339   20.4025 N   0  0  0  0  0  0
  -26.3019  -12.9335   20.3377 N   0  0  0  0  0  0
  -25.9354  -11.6464   20.5765 N   0  0  0  0  0  0
  -22.0500  -12.8233   22.0362 N   0  0  0  0  0  0
  -25.4321  -15.1850   20.4175 N   0  0  0  0  0  0
  -31.9162  -14.5677   20.1079 O   0  0  0  0  0  0
  -21.6646   -6.8885   21.4237 O   0  0  0  0  0  0
  -22.3577  -14.5562   20.6680 O   0  0  0  0  0  0
  -24.6133  -31.8703   23.2162 C   0  0  0  0  0  0
  -25.9052  -32.4835   23.8439 C   0  0  1  0  0  0
  -27.2391  -27.4538   20.0598 C   0  0  0  0  0  0
  -25.5929  -33.8635   24.2365 N   0  0  0  0  0  0
  -23.4004  -30.4967   21.5533 C   0  0  2  0  0  0
  -24.8429  -28.9553   20.1248 C   0  0  0  0  0  0
  -22.7398  -29.4684   22.4982 C   0  0  0  0  0  0
  -18.0231  -28.1371   22.8536 C   0  0  0  0  0  0
  -24.1486  -36.7281   23.2642 C   0  0  0  0  0  0
  -25.9324  -30.8267   21.3796 C   0  0  0  0  0  0
  -26.0007  -29.4615   20.7259 C   0  0  0  0  0  0
  -27.1963  -28.7095   20.7062 C   0  0  0  0  0  0
  -26.0553  -26.9460   19.4829 C   0  0  0  0  0  0
  -24.8628  -27.6900   19.5097 C   0  0  0  0  0  0
  -23.6091  -29.8290   20.1693 C   0  0  0  0  0  0
  -25.4110  -36.3125   24.0346 C   0  0  1  0  0  0
  -20.5821  -28.3700   23.1257 C   0  0  2  0  0  0
  -20.6800  -26.9474   22.5235 C   0  0  0  0  0  0
  -19.5636  -26.6323   21.5198 C   0  0  0  0  0  0
  -18.1842  -26.7897   22.1661 C   0  0  0  0  0  0
  -19.1512  -28.8846   23.2899 C   0  0  0  0  0  0
  -18.9433  -30.1437   23.8941 C   0  0  0  0  0  0
  -17.6451  -30.6591   24.0582 C   0  0  0  0  0  0
  -25.9070  -34.9490   23.5156 C   0  0  0  0  0  0
  -16.5321  -29.9115   23.6357 C   0  0  0  0  0  0
  -16.7229  -28.6486   23.0471 C   0  0  0  0  0  0
  -26.4492  -31.6627   25.0774 C   0  0  0  0  0  0
  -25.3753  -31.3716   26.1528 C   0  0  0  0  0  0
  -27.0400  -30.3087   24.6210 C   0  0  0  0  0  0
  -27.6053  -32.4371   25.7516 C   0  0  0  0  0  0
  -27.5574  -37.1817   24.8475 C   0  0  0  0  0  0
  -21.4108  -29.3172   22.3795 N   0  0  0  0  0  0
  -26.4302  -37.3804   23.9399 N   0  0  0  0  0  0
  -24.6657  -31.0831   22.1030 N   0  0  0  0  0  0
  -23.4173  -28.8155   23.2953 O   0  0  0  0  0  0
  -28.4276  -26.7583   20.0373 O   0  0  0  0  0  0
  -26.5631  -34.8952   22.4713 O   0  0  0  0  0  0
  -23.5340  -32.1428   23.7568 O   0  0  0  0  0  0
  -29.2825  -16.5105   20.0258 C   0  0  0  0  0  0
  -29.6671  -18.5148   21.3205 C   0  0  0  0  0  0
  -29.0577  -17.8958   20.2187 C   0  0  0  0  0  0
  -30.1249  -15.8039   20.9257 C   0  0  0  0  0  0
  -30.4962  -17.7582   22.1638 C   0  0  0  0  0  0
  -31.6745  -19.8915   23.0331 C   0  0  0  0  0  0
  -28.3517  -18.7600   19.1754 C   0  0  0  0  0  0
  -31.3210  -18.4106   23.2700 C   0  0  0  0  0  0
  -27.2206  -19.6619   19.7265 C   0  0  0  0  0  0
  -28.9070  -24.4262   19.3873 C   0  0  0  0  0  0
  -27.0772  -21.0319   19.0113 C   0  0  0  0  0  0
  -27.8059  -23.4316   18.9468 C   0  0  0  0  0  0
  -28.7193  -25.8923   18.9303 C   0  0  0  0  0  0
  -30.7012  -16.4356   21.9829 N   0  0  0  0  0  0
  -27.9974  -22.0756   19.5350 N   0  3  0  0  0  0
  -31.4471  -12.4112   19.0697 H   0  0  0  0  0  0
  -30.3140  -11.3155   19.8164 H   0  0  0  0  0  0
  -29.7051  -11.7544   17.4230 H   0  0  0  0  0  0
  -29.6208  -13.4718   17.7323 H   0  0  0  0  0  0
  -27.8252  -11.2935   18.8568 H   0  0  0  0  0  0
  -27.3301  -12.5858   17.7980 H   0  0  0  0  0  0
  -27.6703  -14.2475   19.5254 H   0  0  0  0  0  0
  -28.6934  -12.0533   21.3910 H   0  0  0  0  0  0
  -28.5007  -13.7372   21.8139 H   0  0  0  0  0  0
  -25.2728   -9.5722   22.4744 H   0  0  0  0  0  0
  -24.0002   -7.4650   22.7496 H   0  0  0  0  0  0
  -21.0829   -8.8796   19.8918 H   0  0  0  0  0  0
  -22.3685  -10.9698   19.6139 H   0  0  0  0  0  0
  -21.2018   -7.6124   23.9722 H   0  0  0  0  0  0
  -21.1442   -6.0472   25.9052 H   0  0  0  0  0  0
  -22.0609   -2.7604   23.2830 H   0  0  0  0  0  0
  -22.4113  -11.9938   22.4849 H   0  0  0  0  0  0
  -21.1074  -13.1219   22.2444 H   0  0  0  0  0  0
  -24.6694  -15.8442   20.5386 H   0  0  0  0  0  0
  -26.3054  -15.6281   20.1643 H   0  0  0  0  0  0
  -26.7104  -32.5616   23.1197 H   0  0  0  0  0  0
  -25.0097  -33.9817   25.0510 H   0  0  0  0  0  0
  -22.6911  -31.3131   21.4111 H   0  0  0  0  0  0
  -23.3783  -35.9591   23.3357 H   0  0  0  0  0  0
  -24.3555  -36.8861   22.2055 H   0  0  0  0  0  0
  -23.7250  -37.6493   23.6617 H   0  0  0  0  0  0
  -26.0776  -31.5916   20.6177 H   0  0  0  0  0  0
  -26.8053  -30.8604   22.0191 H   0  0  0  0  0  0
  -28.0943  -29.0927   21.1717 H   0  0  0  0  0  0
  -26.0427  -25.9787   19.0055 H   0  0  0  0  0  0
  -23.9694  -27.2871   19.0568 H   0  0  0  0  0  0
  -23.7343  -30.6025   19.4102 H   0  0  0  0  0  0
  -22.7308  -29.2583   19.8642 H   0  0  0  0  0  0
  -25.1292  -36.2001   25.0843 H   0  0  0  0  0  0
  -20.9914  -28.3261   24.1371 H   0  0  0  0  0  0
  -20.5979  -26.2267   23.3371 H   0  0  0  0  0  0
  -21.6583  -26.7629   22.0769 H   0  0  0  0  0  0
  -19.6771  -25.6235   21.1224 H   0  0  0  0  0  0
  -19.6414  -27.3109   20.6684 H   0  0  0  0  0  0
  -17.4025  -26.6707   21.4136 H   0  0  0  0  0  0
  -18.0233  -26.0061   22.9081 H   0  0  0  0  0  0
  -19.7906  -30.7247   24.2360 H   0  0  0  0  0  0
  -17.4966  -31.6298   24.5166 H   0  0  0  0  0  0
  -15.5340  -30.3060   23.7653 H   0  0  0  0  0  0
  -15.8560  -28.0846   22.7262 H   0  0  0  0  0  0
  -24.5839  -30.7174   25.7834 H   0  0  0  0  0  0
  -24.9025  -32.2880   26.5072 H   0  0  0  0  0  0
  -25.8081  -30.8781   27.0256 H   0  0  0  0  0  0
  -26.2948  -29.6718   24.1445 H   0  0  0  0  0  0
  -27.4357  -29.7458   25.4689 H   0  0  0  0  0  0
  -27.8669  -30.4416   23.9233 H   0  0  0  0  0  0
  -27.2640  -33.3623   26.2179 H   0  0  0  0  0  0
  -28.3797  -32.7054   25.0303 H   0  0  0  0  0  0
  -28.0820  -31.8495   26.5382 H   0  0  0  0  0  0
  -28.2646  -38.0074   24.7481 H   0  0  0  0  0  0
  -28.1050  -36.2618   24.6340 H   0  0  0  0  0  0
  -27.2300  -37.1479   25.8893 H   0  0  0  0  0  0
  -20.9242  -29.9151   21.7281 H   0  0  0  0  0  0
  -26.0231  -38.2907   24.1360 H   0  0  0  0  0  0
  -28.9381  -16.0309   19.1229 H   0  0  0  0  0  0
  -29.5600  -19.5803   21.4668 H   0  0  0  0  0  0
  -32.3837  -20.2393   23.7854 H   0  0  0  0  0  0
  -30.7968  -20.5371   23.0840 H   0  0  0  0  0  0
  -32.1466  -20.0378   22.0630 H   0  0  0  0  0  0
  -27.9728  -18.1380   18.3612 H   0  0  0  0  0  0
  -29.1235  -19.3831   18.7235 H   0  0  0  0  0  0
  -32.2514  -17.8516   23.3746 H   0  0  0  0  0  0
  -30.7850  -18.3064   24.2141 H   0  0  0  0  0  0
  -27.3332  -19.8269   20.7985 H   0  0  0  0  0  0
  -26.2815  -19.1140   19.6249 H   0  0  0  0  0  0
  -29.8567  -24.0737   18.9798 H   0  0  0  0  0  0
  -29.0258  -24.4085   20.4707 H   0  0  0  0  0  0
  -26.0581  -21.3936   19.1531 H   0  0  0  0  0  0
  -27.2133  -20.9145   17.9351 H   0  0  0  0  0  0
  -27.8009  -23.3576   17.8575 H   0  0  0  0  0  0
  -26.8243  -23.8035   19.2438 H   0  0  0  0  0  0
  -28.0399  -25.9821   18.0818 H   0  0  0  0  0  0
  -29.6743  -26.2553   18.5436 H   0  0  0  0  0  0
  -28.9465  -21.7790   19.3795 H   0  0  0  0  0  0
  -27.8583  -22.1521   20.5310 H   0  0  0  0  0  0
  1 25  1  0  0  0
  1 30  2  0  0  0
  1 74  1  0  0  0
  2  3  1  0  0  0
  2 25  1  0  0  0
  2 86  1  0  0  0
  2 87  1  0  0  0
  3  4  1  0  0  0
  3 88  1  0  0  0
  3 89  1  0  0  0
  4  5  1  0  0  0
  4 90  1  0  0  0
  4 91  1  0  0  0
  5  6  1  0  0  0
  5 26  1  0  0  0
  5 92  1  0  0  0
  6 25  1  0  0  0
  6 93  1  0  0  0
  6 94  1  0  0  0
  7  8  2  0  0  0
  7 26  1  0  0  0
  7 29  1  0  0  0
  8  9  1  0  0  0
  8 22  1  0  0  0
  9 10  1  0  0  0
  9 27  2  0  0  0
 10 11  2  0  0  0
 10 15  1  0  0  0
 11 12  1  0  0  0
 11 95  1  0  0  0
 12 13  2  0  0  0
 12 96  1  0  0  0
 13 14  1  0  0  0
 13 31  1  0  0  0
 14 15  2  0  0  0
 14 97  1  0  0  0
 15 98  1  0  0  0
 16 17  2  0  0  0
 16 21  1  0  0  0
 16 31  1  0  0  0
 17 18  1  0  0  0
 17 99  1  0  0  0
 18 19  2  0  0  0
 18100  1  0  0  0
 19 20  1  0  0  0
 19 24  1  0  0  0
 20 21  2  0  0  0
 20101  1  0  0  0
 21 23  1  0  0  0
 22 28  1  0  0  0
 22 32  2  0  0  0
 26 27  1  0  0  0
 28102  1  0  0  0
 28103  1  0  0  0
 29104  1  0  0  0
 29105  1  0  0  0
 33 34  1  0  0  0
 33 66  1  0  0  0
 33 70  2  0  0  0
 34 36  1  0  0  0
 34 59  1  0  0  0
 34106  1  0  0  0
 35 44  2  0  0  0
 35 45  1  0  0  0
 35 68  1  0  0  0
 36 56  1  0  0  0
 36107  1  0  0  0
 37 39  1  0  0  0
 37 47  1  0  0  0
 37 66  1  0  0  0
 37108  1  0  0  0
 38 43  2  0  0  0
 38 46  1  0  0  0
 38 47  1  0  0  0
 39 64  1  0  0  0
 39 67  2  0  0  0
 40 52  1  0  0  0
 40 53  2  0  0  0
 40 58  1  0  0  0
 41109  1  0  0  0
 41110  1  0  0  0
 41111  1  0  0  0
 41 48  1  0  0  0
 42 43  1  0  0  0
 42 66  1  0  0  0
 42112  1  0  0  0
 42113  1  0  0  0
 43 44  1  0  0  0
 44114  1  0  0  0
 45 46  2  0  0  0
 45115  1  0  0  0
 46116  1  0  0  0
 47117  1  0  0  0
 47118  1  0  0  0
 48 56  1  0  0  0
 48 65  1  0  0  0
 48119  1  0  0  0
 49 50  1  0  0  0
 49 53  1  0  0  0
 49 64  1  0  0  0
 49120  1  0  0  0
 50 51  1  0  0  0
 50121  1  0  0  0
 50122  1  0  0  0
 51 52  1  0  0  0
 51123  1  0  0  0
 51124  1  0  0  0
 52125  1  0  0  0
 52126  1  0  0  0
 53 54  1  0  0  0
 54 55  2  0  0  0
 54127  1  0  0  0
 55 57  1  0  0  0
 55128  1  0  0  0
 56 69  2  0  0  0
 57 58  2  0  0  0
 57129  1  0  0  0
 58130  1  0  0  0
 59 60  1  0  0  0
 59 61  1  0  0  0
 59 62  1  0  0  0
 60131  1  0  0  0
 60132  1  0  0  0
 60133  1  0  0  0
 61134  1  0  0  0
 61135  1  0  0  0
 61136  1  0  0  0
 62137  1  0  0  0
 62138  1  0  0  0
 62139  1  0  0  0
 63 65  1  0  0  0
 63140  1  0  0  0
 63141  1  0  0  0
 63142  1  0  0  0
 64143  1  0  0  0
 65144  1  0  0  0
 68 83  1  0  0  0
 71 73  2  0  0  0
 71 74  1  0  0  0
 71145  1  0  0  0
 72 73  1  0  0  0
 72 75  2  0  0  0
 72146  1  0  0  0
 73 77  1  0  0  0
 74 84  2  0  0  0
 75 78  1  0  0  0
 75 84  1  0  0  0
 76 78  1  0  0  0
 76147  1  0  0  0
 76148  1  0  0  0
 76149  1  0  0  0
 77 79  1  0  0  0
 77150  1  0  0  0
 77151  1  0  0  0
 78152  1  0  0  0
 78153  1  0  0  0
 79 81  1  0  0  0
 79154  1  0  0  0
 79155  1  0  0  0
 80 82  1  0  0  0
 80 83  1  0  0  0
 80156  1  0  0  0
 80157  1  0  0  0
 81 85  1  0  0  0
 81158  1  0  0  0
 81159  1  0  0  0
 82 85  1  0  0  0
 82160  1  0  0  0
 82161  1  0  0  0
 83162  1  0  0  0
 83163  1  0  0  0
 85164  1  0  0  0
 85165  1  0  0  0
M  CHG  1  85   1
M  ISO  4   1 100  68 101  74 100  83 101
M  END
> <chiral flag>
0

> <version>
0

> <s_m_source_file>
/data/baiqing/PycharmProjects/Reinvent-master-3.2/result/LINK_invent/BTK/process_docking_weight1_custom_sum_contain_oxygen_bond_distance_aromatic_linkinvent_7_9_3/rearranged_h_0040.sdf

> <i_m_source_file_index>
56

> <r_mmod_Potential_Energy-OPLS-2005>
-200.127456665039

> <r_mmod_Stretch_Energy-OPLS-2005>
37.826961517334

> <r_mmod_Bend_Energy-OPLS-2005>
108.009315490723

> <r_mmod_Torsional_Energy-OPLS-2005>
242.6162109375

> <r_mmod_Improper_Torsional_Energy-OPLS-2005>
8.81607532501221

> <r_mmod_Van_der_Waal_Energy-OPLS-2005>
144.789245605469

> <r_mmod_Electrostatic_Energy-OPLS-2005>
-280.425262451172

> <r_mmod_Solvation_Energy-OPLS-2005>
-480.208404541016

> <b_mmod_Minimization_Converged-OPLS-2005>
0

> <r_mmod_RMS_Derivative-OPLS-2005>
6.49215936660767

$$$$
56
                    3D
 Structure written by MMmdl.
171179  0  0  1  0            999 V2000
  -30.6470  -14.6523   20.4991 C   0  0  0  0  0  0
  -30.4339  -12.4087   19.4400 C   0  0  0  0  0  0
  -29.4988  -12.4916   18.2141 C   0  0  0  0  0  0
  -28.0270  -12.3191   18.6398 C   0  0  0  0  0  0
  -27.6449  -13.2178   19.8459 C   0  0  2  0  0  0
  -28.6942  -13.1147   20.9738 C   0  0  0  0  0  0
  -25.2534  -13.8174   20.5679 C   0  0  0  0  0  0
  -24.1811  -13.0436   20.9203 C   0  0  0  0  0  0
  -24.6387  -11.6916   20.8748 C   0  0  0  0  0  0
  -23.9072  -10.4294   21.0419 C   0  0  0  0  0  0
  -24.3617   -9.4212   21.9203 C   0  0  0  0  0  0
  -23.6294   -8.2253   22.0767 C   0  0  0  0  0  0
  -22.4276   -8.0284   21.3557 C   0  0  0  0  0  0
  -21.9918   -9.0256   20.4653 C   0  0  0  0  0  0
  -22.7247  -10.2138   20.3060 C   0  0  0  0  0  0
  -21.6856   -6.0748   22.5291 C   0  0  0  0  0  0
  -21.4015   -6.5649   23.8231 C   0  0  0  0  0  0
  -21.3645   -5.6794   24.9184 C   0  0  0  0  0  0
  -21.6040   -4.3064   24.7233 C   0  0  0  0  0  0
  -21.8816   -3.8154   23.4358 C   0  0  0  0  0  0
  -21.9194   -4.6972   22.3412 C   0  0  0  0  0  0
  -22.7838  -13.5237   21.1865 C   0  0  0  0  0  0
  -22.1661   -4.2162   21.0995 F   0  0  0  0  0  0
  -21.5618   -3.4542   25.7748 F   0  0  0  0  0  0
  -30.0015  -13.4492   20.3920 N   0  0  0  0  0  0
  -26.2956  -12.9367   20.3267 N   0  0  0  0  0  0
  -25.9315  -11.6524   20.5749 N   0  0  0  0  0  0
  -22.0464  -12.8216   22.0404 N   0  0  0  0  0  0
  -25.4218  -15.1900   20.4089 N   0  0  0  0  0  0
  -31.8354  -14.7688   20.1924 O   0  0  0  0  0  0
  -21.6637   -6.8878   21.4255 O   0  0  0  0  0  0
  -22.3537  -14.5562   20.6731 O   0  0  0  0  0  0
  -24.6260  -31.8582   23.2037 C   0  0  0  0  0  0
  -25.9091  -32.4782   23.8351 C   0  0  1  0  0  0
  -27.2133  -27.3199   20.1277 C   0  0  0  0  0  0
  -25.5914  -33.8584   24.2280 N   0  0  0  0  0  0
  -23.4194  -30.4818   21.5453 C   0  0  2  0  0  0
  -24.8697  -28.9425   20.1021 C   0  0  0  0  0  0
  -22.7480  -29.4592   22.4930 C   0  0  0  0  0  0
  -18.0297  -28.1401   22.8486 C   0  0  0  0  0  0
  -24.1487  -36.7293   23.2642 C   0  0  0  0  0  0
  -25.9589  -30.7913   21.3733 C   0  0  0  0  0  0
  -26.0363  -29.4197   20.7161 C   0  0  0  0  0  0
  -27.2156  -28.6165   20.7257 C   0  0  0  0  0  0
  -26.0354  -26.8998   19.4753 C   0  0  0  0  0  0
  -24.8713  -27.6901   19.4701 C   0  0  0  0  0  0
  -23.6344  -29.8198   20.1587 C   0  0  0  0  0  0
  -25.4102  -36.3077   24.0339 C   0  0  1  0  0  0
  -20.5883  -28.3689   23.1308 C   0  0  2  0  0  0
  -20.6783  -26.9415   22.5428 C   0  0  0  0  0  0
  -19.5767  -26.6385   21.5242 C   0  0  0  0  0  0
  -18.1932  -26.7954   22.1618 C   0  0  0  0  0  0
  -19.1538  -28.8860   23.2897 C   0  0  0  0  0  0
  -18.9466  -30.1465   23.8912 C   0  0  0  0  0  0
  -17.6466  -30.6596   24.0568 C   0  0  0  0  0  0
  -25.9039  -34.9459   23.5102 C   0  0  0  0  0  0
  -16.5359  -29.9084   23.6352 C   0  0  0  0  0  0
  -16.7282  -28.6508   23.0358 C   0  0  0  0  0  0
  -26.4483  -31.6597   25.0720 C   0  0  0  0  0  0
  -25.3716  -31.3718   26.1451 C   0  0  0  0  0  0
  -27.0337  -30.3028   24.6159 C   0  0  0  0  0  0
  -27.6031  -32.4338   25.7494 C   0  0  0  0  0  0
  -27.5568  -37.1796   24.8466 C   0  0  0  0  0  0
  -21.4181  -29.3035   22.3697 N   0  0  0  0  0  0
  -26.4273  -37.3775   23.9426 N   0  0  0  0  0  0
  -24.6872  -31.0595   22.0990 N   0  0  0  0  0  0
  -23.4208  -28.8124   23.2991 O   0  0  0  0  0  0
  -28.2533  -26.3874   20.2206 O   0  0  0  0  0  0
  -26.5596  -34.8922   22.4666 O   0  0  0  0  0  0
  -23.5411  -32.1394   23.7338 O   0  0  0  0  0  0
  -29.3950  -21.8354   19.8089 C   0  0  0  0  0  0
  -29.1497  -23.2458   19.9595 C   0  0  0  0  0  0
  -27.9851  -21.3966   21.6883 C   0  0  0  0  0  0
  -28.8036  -20.8655   20.6684 C   0  0  0  0  0  0
  -28.2935  -23.7685   20.9748 C   0  0  0  0  0  0
  -27.7357  -22.7879   21.8638 C   0  0  0  0  0  0
  -24.8564  -22.7839   25.4561 C   0  0  0  0  0  0
  -25.7124  -20.5642   24.6021 C   0  0  0  0  0  0
  -27.8822  -23.7648   25.2253 C   0  0  0  0  0  0
  -28.8549  -19.2929   20.4911 C   0  0  0  0  0  0
  -26.7800  -23.1434   23.0110 C   0  0  0  0  0  0
  -27.9504  -25.3022   21.1827 C   0  0  0  0  0  0
  -30.2108  -18.4742   20.5245 C   0  0  0  0  0  0
  -30.3290  -17.0908   21.3291 C   0  0  0  0  0  0
  -26.1066  -21.9195   25.2168 C   0  0  0  0  0  0
  -27.2286  -22.6335   24.4107 C   0  0  2  0  0  0
  -29.8819  -15.7542   20.7925 N   0  0  0  0  0  0
  -31.4728  -12.5377   19.1320 H   0  0  0  0  0  0
  -30.3783  -11.4240   19.9062 H   0  0  0  0  0  0
  -29.7678  -11.7267   17.4846 H   0  0  0  0  0  0
  -29.6263  -13.4525   17.7131 H   0  0  0  0  0  0
  -27.8868  -11.2699   18.9059 H   0  0  0  0  0  0
  -27.3618  -12.5063   17.7961 H   0  0  0  0  0  0
  -27.6481  -14.2422   19.4732 H   0  0  0  0  0  0
  -28.7147  -12.1071   21.3903 H   0  0  0  0  0  0
  -28.4407  -13.7789   21.8013 H   0  0  0  0  0  0
  -25.2761   -9.5703   22.4784 H   0  0  0  0  0  0
  -24.0003   -7.4649   22.7501 H   0  0  0  0  0  0
  -21.0849   -8.8777   19.8958 H   0  0  0  0  0  0
  -22.3712  -10.9676   19.6162 H   0  0  0  0  0  0
  -21.2003   -7.6154   23.9741 H   0  0  0  0  0  0
  -21.1463   -6.0522   25.9089 H   0  0  0  0  0  0
  -22.0598   -2.7619   23.2860 H   0  0  0  0  0  0
  -22.4041  -11.9831   22.4741 H   0  0  0  0  0  0
  -21.1089  -13.1257   22.2599 H   0  0  0  0  0  0
  -24.6488  -15.8381   20.5148 H   0  0  0  0  0  0
  -26.2632  -15.6354   20.0661 H   0  0  0  0  0  0
  -26.7145  -32.5457   23.1088 H   0  0  0  0  0  0
  -25.0114  -33.9764   25.0453 H   0  0  0  0  0  0
  -22.7124  -31.3014   21.4004 H   0  0  0  0  0  0
  -23.3762  -35.9614   23.3294 H   0  0  0  0  0  0
  -24.3564  -36.8942   22.2056 H   0  0  0  0  0  0
  -23.7247  -37.6498   23.6670 H   0  0  0  0  0  0
  -26.0811  -31.5506   20.6000 H   0  0  0  0  0  0
  -26.8440  -30.8451   21.9969 H   0  0  0  0  0  0
  -28.1024  -28.9583   21.2413 H   0  0  0  0  0  0
  -26.0001  -25.9242   19.0096 H   0  0  0  0  0  0
  -23.9751  -27.3193   18.9926 H   0  0  0  0  0  0
  -23.7484  -30.6007   19.4061 H   0  0  0  0  0  0
  -22.7538  -29.2499   19.8551 H   0  0  0  0  0  0
  -25.1271  -36.1933   25.0828 H   0  0  0  0  0  0
  -20.9976  -28.3263   24.1432 H   0  0  0  0  0  0
  -20.5766  -26.2264   23.3607 H   0  0  0  0  0  0
  -21.6632  -26.7484   22.1162 H   0  0  0  0  0  0
  -19.6942  -25.6317   21.1240 H   0  0  0  0  0  0
  -19.6735  -27.3209   20.6804 H   0  0  0  0  0  0
  -17.4216  -26.6769   21.3995 H   0  0  0  0  0  0
  -18.0281  -26.0088   22.8992 H   0  0  0  0  0  0
  -19.7937  -30.7284   24.2265 H   0  0  0  0  0  0
  -17.5016  -31.6277   24.5164 H   0  0  0  0  0  0
  -15.5352  -30.2976   23.7698 H   0  0  0  0  0  0
  -15.8687  -28.0836   22.7064 H   0  0  0  0  0  0
  -24.5935  -30.6997   25.7811 H   0  0  0  0  0  0
  -24.8828  -32.2861   26.4825 H   0  0  0  0  0  0
  -25.8042  -30.8970   27.0269 H   0  0  0  0  0  0
  -26.2909  -29.6779   24.1178 H   0  0  0  0  0  0
  -27.4079  -29.7278   25.4649 H   0  0  0  0  0  0
  -27.8750  -30.4355   23.9352 H   0  0  0  0  0  0
  -27.2650  -33.3691   26.1984 H   0  0  0  0  0  0
  -28.3884  -32.6843   25.0339 H   0  0  0  0  0  0
  -28.0639  -31.8518   26.5504 H   0  0  0  0  0  0
  -28.2565  -38.0106   24.7480 H   0  0  0  0  0  0
  -28.1082  -36.2634   24.6294 H   0  0  0  0  0  0
  -27.2276  -37.1429   25.8866 H   0  0  0  0  0  0
  -20.9364  -29.8756   21.6907 H   0  0  0  0  0  0
  -26.0168  -38.2861   24.1419 H   0  0  0  0  0  0
  -30.0222  -21.5051   18.9919 H   0  0  0  0  0  0
  -29.6178  -23.9344   19.2700 H   0  0  0  0  0  0
  -27.4888  -20.7045   22.3530 H   0  0  0  0  0  0
  -24.1514  -22.2619   26.1053 H   0  0  0  0  0  0
  -24.3387  -23.0114   24.5245 H   0  0  0  0  0  0
  -25.0951  -23.7295   25.9429 H   0  0  0  0  0  0
  -24.9771  -20.0498   25.2232 H   0  0  0  0  0  0
  -26.5746  -19.9030   24.5161 H   0  0  0  0  0  0
  -25.2765  -20.6749   23.6093 H   0  0  0  0  0  0
  -28.7405  -24.1751   24.6923 H   0  0  0  0  0  0
  -28.2417  -23.4068   26.1911 H   0  0  0  0  0  0
  -27.1917  -24.5871   25.4113 H   0  0  0  0  0  0
  -28.3385  -19.0600   19.5599 H   0  0  0  0  0  0
  -28.2143  -18.8678   21.2625 H   0  0  0  0  0  0
  -25.8259  -22.6952   22.7361 H   0  0  0  0  0  0
  -26.5596  -24.2035   23.0864 H   0  0  0  0  0  0
  -28.3946  -25.5949   22.1357 H   0  0  0  0  0  0
  -26.8747  -25.3193   21.3567 H   0  0  0  0  0  0
  -30.9156  -19.1361   21.0298 H   0  0  0  0  0  0
  -30.6201  -18.3739   19.5191 H   0  0  0  0  0  0
  -29.8226  -17.2203   22.2859 H   0  0  0  0  0  0
  -31.3823  -16.9770   21.5952 H   0  0  0  0  0  0
  -26.5173  -21.6926   26.2017 H   0  0  0  0  0  0
  -28.0085  -21.8846   24.2793 H   0  0  0  0  0  0
  -28.8984  -15.5540   20.8986 H   0  0  0  0  0  0
  1 25  1  0  0  0
  1 30  2  0  0  0
  1 87  1  0  0  0
  2  3  1  0  0  0
  2 25  1  0  0  0
  2 88  1  0  0  0
  2 89  1  0  0  0
  3  4  1  0  0  0
  3 90  1  0  0  0
  3 91  1  0  0  0
  4  5  1  0  0  0
  4 92  1  0  0  0
  4 93  1  0  0  0
  5  6  1  0  0  0
  5 26  1  0  0  0
  5 94  1  0  0  0
  6 25  1  0  0  0
  6 95  1  0  0  0
  6 96  1  0  0  0
  7  8  2  0  0  0
  7 26  1  0  0  0
  7 29  1  0  0  0
  8  9  1  0  0  0
  8 22  1  0  0  0
  9 10  1  0  0  0
  9 27  2  0  0  0
 10 11  2  0  0  0
 10 15  1  0  0  0
 11 12  1  0  0  0
 11 97  1  0  0  0
 12 13  2  0  0  0
 12 98  1  0  0  0
 13 14  1  0  0  0
 13 31  1  0  0  0
 14 15  2  0  0  0
 14 99  1  0  0  0
 15100  1  0  0  0
 16 17  2  0  0  0
 16 21  1  0  0  0
 16 31  1  0  0  0
 17 18  1  0  0  0
 17101  1  0  0  0
 18 19  2  0  0  0
 18102  1  0  0  0
 19 20  1  0  0  0
 19 24  1  0  0  0
 20 21  2  0  0  0
 20103  1  0  0  0
 21 23  1  0  0  0
 22 28  1  0  0  0
 22 32  2  0  0  0
 26 27  1  0  0  0
 28104  1  0  0  0
 28105  1  0  0  0
 29106  1  0  0  0
 29107  1  0  0  0
 33 34  1  0  0  0
 33 66  1  0  0  0
 33 70  2  0  0  0
 34 36  1  0  0  0
 34 59  1  0  0  0
 34108  1  0  0  0
 35 44  2  0  0  0
 35 45  1  0  0  0
 35 68  1  0  0  0
 36 56  1  0  0  0
 36109  1  0  0  0
 37 39  1  0  0  0
 37 47  1  0  0  0
 37 66  1  0  0  0
 37110  1  0  0  0
 38 43  2  0  0  0
 38 46  1  0  0  0
 38 47  1  0  0  0
 39 64  1  0  0  0
 39 67  2  0  0  0
 40 52  1  0  0  0
 40 53  2  0  0  0
 40 58  1  0  0  0
 41111  1  0  0  0
 41112  1  0  0  0
 41113  1  0  0  0
 41 48  1  0  0  0
 42 43  1  0  0  0
 42 66  1  0  0  0
 42114  1  0  0  0
 42115  1  0  0  0
 43 44  1  0  0  0
 44116  1  0  0  0
 45 46  2  0  0  0
 45117  1  0  0  0
 46118  1  0  0  0
 47119  1  0  0  0
 47120  1  0  0  0
 48 56  1  0  0  0
 48 65  1  0  0  0
 48121  1  0  0  0
 49 50  1  0  0  0
 49 53  1  0  0  0
 49 64  1  0  0  0
 49122  1  0  0  0
 50 51  1  0  0  0
 50123  1  0  0  0
 50124  1  0  0  0
 51 52  1  0  0  0
 51125  1  0  0  0
 51126  1  0  0  0
 52127  1  0  0  0
 52128  1  0  0  0
 53 54  1  0  0  0
 54 55  2  0  0  0
 54129  1  0  0  0
 55 57  1  0  0  0
 55130  1  0  0  0
 56 69  2  0  0  0
 57 58  2  0  0  0
 57131  1  0  0  0
 58132  1  0  0  0
 59 60  1  0  0  0
 59 61  1  0  0  0
 59 62  1  0  0  0
 60133  1  0  0  0
 60134  1  0  0  0
 60135  1  0  0  0
 61136  1  0  0  0
 61137  1  0  0  0
 61138  1  0  0  0
 62139  1  0  0  0
 62140  1  0  0  0
 62141  1  0  0  0
 63 65  1  0  0  0
 63142  1  0  0  0
 63143  1  0  0  0
 63144  1  0  0  0
 64145  1  0  0  0
 65146  1  0  0  0
 68 82  1  0  0  0
 71 72  2  0  0  0
 71 74  1  0  0  0
 71147  1  0  0  0
 72 75  1  0  0  0
 72148  1  0  0  0
 73 74  2  0  0  0
 73 76  1  0  0  0
 73149  1  0  0  0
 74 80  1  0  0  0
 75 76  2  0  0  0
 75 82  1  0  0  0
 76 81  1  0  0  0
 77150  1  0  0  0
 77151  1  0  0  0
 77152  1  0  0  0
 77 85  1  0  0  0
 78 85  1  0  0  0
 78153  1  0  0  0
 78154  1  0  0  0
 78155  1  0  0  0
 79156  1  0  0  0
 79157  1  0  0  0
 79158  1  0  0  0
 79 86  1  0  0  0
 80 83  1  0  0  0
 80159  1  0  0  0
 80160  1  0  0  0
 81 86  1  0  0  0
 81161  1  0  0  0
 81162  1  0  0  0
 82163  1  0  0  0
 82164  1  0  0  0
 83 84  1  0  0  0
 83165  1  0  0  0
 83166  1  0  0  0
 84 87  1  0  0  0
 84167  1  0  0  0
 84168  1  0  0  0
 85 86  1  0  0  0
 85169  1  0  0  0
 86170  1  0  0  0
 87171  1  0  0  0
M  ISO  4   1 100  68 101  82 101  87 100
M  END
> <chiral flag>
0

> <version>
0

> <s_m_source_file>
/data/baiqing/PycharmProjects/Reinvent-master-3.2/result/LINK_invent/BTK/process_docking_weight1_custom_sum_contain_oxygen_bond_distance_aromatic_linkinvent_7_9_3/rearranged_h_0040.sdf

> <i_m_source_file_index>
57

> <r_mmod_Potential_Energy-OPLS-2005>
188.813705444336

> <r_mmod_Stretch_Energy-OPLS-2005>
87.2621154785156

> <r_mmod_Bend_Energy-OPLS-2005>
177.935073852539

> <r_mmod_Torsional_Energy-OPLS-2005>
274.293762207031

> <r_mmod_Improper_Torsional_Energy-OPLS-2005>
5.2490439414978

> <r_mmod_Van_der_Waal_Energy-OPLS-2005>
143.996032714844

> <r_mmod_Electrostatic_Energy-OPLS-2005>
-367.122924804688

> <r_mmod_Solvation_Energy-OPLS-2005>
-195.677917480469

> <b_mmod_Minimization_Converged-OPLS-2005>
0

> <r_mmod_RMS_Derivative-OPLS-2005>
2.87748122215271

$$$$
57
                    3D
 Structure written by MMmdl.
151159  0  0  1  0            999 V2000
  -30.4890  -14.9766   20.4277 C   0  0  0  0  0  0
  -30.4560  -12.5986   19.5046 C   0  0  0  0  0  0
  -29.5330  -12.5399   18.2618 C   0  0  0  0  0  0
  -28.0645  -12.3144   18.6728 C   0  0  0  0  0  0
  -27.6345  -13.2416   19.8376 C   0  0  2  0  0  0
  -28.6750  -13.2591   20.9770 C   0  0  0  0  0  0
  -25.2497  -13.8194   20.5700 C   0  0  0  0  0  0
  -24.1799  -13.0429   20.9208 C   0  0  0  0  0  0
  -24.6403  -11.6909   20.8730 C   0  0  0  0  0  0
  -23.9081  -10.4286   21.0394 C   0  0  0  0  0  0
  -24.3627   -9.4207   21.9178 C   0  0  0  0  0  0
  -23.6298   -8.2245   22.0753 C   0  0  0  0  0  0
  -22.4282   -8.0280   21.3543 C   0  0  0  0  0  0
  -21.9916   -9.0254   20.4648 C   0  0  0  0  0  0
  -22.7247  -10.2130   20.3051 C   0  0  0  0  0  0
  -21.6859   -6.0736   22.5279 C   0  0  0  0  0  0
  -21.4016   -6.5638   23.8212 C   0  0  0  0  0  0
  -21.3660   -5.6791   24.9174 C   0  0  0  0  0  0
  -21.6046   -4.3054   24.7225 C   0  0  0  0  0  0
  -21.8819   -3.8146   23.4346 C   0  0  0  0  0  0
  -21.9196   -4.6963   22.3403 C   0  0  0  0  0  0
  -22.7819  -13.5207   21.1874 C   0  0  0  0  0  0
  -22.1662   -4.2147   21.0981 F   0  0  0  0  0  0
  -21.5631   -3.4537   25.7740 F   0  0  0  0  0  0
  -29.9586  -13.6825   20.4008 N   0  0  0  0  0  0
  -26.2914  -12.9408   20.3219 N   0  0  0  0  0  0
  -25.9337  -11.6545   20.5708 N   0  0  0  0  0  0
  -22.0471  -12.8195   22.0433 N   0  0  0  0  0  0
  -25.4185  -15.1924   20.4154 N   0  0  0  0  0  0
  -31.6807  -15.0788   20.1062 O   0  0  0  0  0  0
  -21.6645   -6.8878   21.4241 O   0  0  0  0  0  0
  -22.3499  -14.5513   20.6722 O   0  0  0  0  0  0
  -24.6458  -31.8419   23.1861 C   0  0  0  0  0  0
  -25.9220  -32.4681   23.8260 C   0  0  1  0  0  0
  -27.2206  -27.1166   20.1520 C   0  0  0  0  0  0
  -25.5959  -33.8487   24.2176 N   0  0  0  0  0  0
  -23.4501  -30.4605   21.5329 C   0  0  2  0  0  0
  -24.9004  -28.8831   20.1110 C   0  0  0  0  0  0
  -22.7577  -29.4537   22.4859 C   0  0  0  0  0  0
  -18.0306  -28.1394   22.8478 C   0  0  0  0  0  0
  -24.1493  -36.7249   23.2644 C   0  0  0  0  0  0
  -26.0079  -30.7092   21.3879 C   0  0  0  0  0  0
  -26.0793  -29.3187   20.7290 C   0  0  0  0  0  0
  -27.2398  -28.4530   20.7299 C   0  0  0  0  0  0
  -26.0127  -26.7867   19.4971 C   0  0  0  0  0  0
  -24.8813  -27.6312   19.4790 C   0  0  0  0  0  0
  -23.6773  -29.7872   20.1534 C   0  0  0  0  0  0
  -25.4126  -36.3023   24.0315 C   0  0  1  0  0  0
  -20.5919  -28.3724   23.1233 C   0  0  2  0  0  0
  -20.6789  -26.9426   22.5405 C   0  0  0  0  0  0
  -19.5763  -26.6381   21.5215 C   0  0  0  0  0  0
  -18.1944  -26.7933   22.1625 C   0  0  0  0  0  0
  -19.1563  -28.8878   23.2848 C   0  0  0  0  0  0
  -18.9478  -30.1474   23.8871 C   0  0  0  0  0  0
  -17.6473  -30.6591   24.0557 C   0  0  0  0  0  0
  -25.9078  -34.9400   23.5056 C   0  0  0  0  0  0
  -16.5366  -29.9082   23.6337 C   0  0  0  0  0  0
  -16.7289  -28.6500   23.0361 C   0  0  0  0  0  0
  -26.4533  -31.6556   25.0712 C   0  0  0  0  0  0
  -25.3708  -31.3753   26.1400 C   0  0  0  0  0  0
  -27.0405  -30.2947   24.6315 C   0  0  0  0  0  0
  -27.6055  -32.4330   25.7502 C   0  0  0  0  0  0
  -27.5575  -37.1782   24.8466 C   0  0  0  0  0  0
  -21.4267  -29.3046   22.3604 N   0  0  0  0  0  0
  -26.4286  -37.3739   23.9409 N   0  0  0  0  0  0
  -24.7213  -31.0256   22.0905 N   0  0  0  0  0  0
  -23.4211  -28.8093   23.3023 O   0  0  0  0  0  0
  -28.2712  -26.1209   20.2203 O   0  0  0  0  0  0
  -26.5670  -34.8901   22.4639 O   0  0  0  0  0  0
  -23.5574  -32.1306   23.7072 O   0  0  0  0  0  0
  -31.0709  -18.6961   20.2814 C   0  0  0  0  0  0
  -29.8574  -17.9609   20.4750 C   0  0  0  0  0  0
  -30.7755  -20.0562   20.1917 C   0  0  0  0  0  0
  -31.7246  -21.1871   19.9765 C   0  0  0  0  0  0
  -29.5676  -16.3422   20.7366 C   0  0  0  0  0  0
  -29.0058  -23.2427   20.3265 C   0  0  0  0  0  0
  -28.5252  -21.6147   20.2181 C   0  0  0  0  0  0
  -27.9849  -24.5841   20.0909 C   0  0  0  0  0  0
  -28.8832  -18.9670   20.4950 N   0  0  0  0  0  0
  -29.4060  -20.2854   20.3330 N   0  0  0  0  0  0
  -31.4873  -12.7718   19.1935 H   0  0  0  0  0  0
  -30.4599  -11.6409   20.0277 H   0  0  0  0  0  0
  -29.8594  -11.7492   17.5852 H   0  0  0  0  0  0
  -29.6168  -13.4738   17.7037 H   0  0  0  0  0  0
  -27.9637  -11.2719   18.9768 H   0  0  0  0  0  0
  -27.4041  -12.4479   17.8154 H   0  0  0  0  0  0
  -27.5979  -14.2427   19.4100 H   0  0  0  0  0  0
  -28.7613  -12.2768   21.4437 H   0  0  0  0  0  0
  -28.3642  -13.9459   21.7655 H   0  0  0  0  0  0
  -25.2772   -9.5689   22.4752 H   0  0  0  0  0  0
  -24.0013   -7.4639   22.7471 H   0  0  0  0  0  0
  -21.0850   -8.8770   19.8952 H   0  0  0  0  0  0
  -22.3702  -10.9668   19.6161 H   0  0  0  0  0  0
  -21.2006   -7.6146   23.9715 H   0  0  0  0  0  0
  -21.1483   -6.0521   25.9077 H   0  0  0  0  0  0
  -22.0599   -2.7609   23.2849 H   0  0  0  0  0  0
  -22.4093  -11.9861   22.4829 H   0  0  0  0  0  0
  -21.1084  -13.1214   22.2628 H   0  0  0  0  0  0
  -24.6533  -15.8470   20.5371 H   0  0  0  0  0  0
  -26.2707  -15.6377   20.0999 H   0  0  0  0  0  0
  -26.7287  -32.5279   23.0987 H   0  0  0  0  0  0
  -25.0065  -33.9596   25.0297 H   0  0  0  0  0  0
  -22.7540  -31.2872   21.3766 H   0  0  0  0  0  0
  -23.3759  -35.9576   23.3290 H   0  0  0  0  0  0
  -24.3578  -36.8900   22.2061 H   0  0  0  0  0  0
  -23.7243  -37.6439   23.6693 H   0  0  0  0  0  0
  -26.1670  -31.4630   20.6156 H   0  0  0  0  0  0
  -26.8768  -30.7591   22.0323 H   0  0  0  0  0  0
  -28.1370  -28.7829   21.2343 H   0  0  0  0  0  0
  -25.9063  -25.8300   19.0090 H   0  0  0  0  0  0
  -23.9816  -27.2918   18.9842 H   0  0  0  0  0  0
  -23.8143  -30.5604   19.3966 H   0  0  0  0  0  0
  -22.7914  -29.2298   19.8431 H   0  0  0  0  0  0
  -25.1316  -36.1846   25.0806 H   0  0  0  0  0  0
  -21.0010  -28.3314   24.1355 H   0  0  0  0  0  0
  -20.5686  -26.2338   23.3627 H   0  0  0  0  0  0
  -21.6655  -26.7432   22.1201 H   0  0  0  0  0  0
  -19.6925  -25.6286   21.1260 H   0  0  0  0  0  0
  -19.6696  -27.3178   20.6734 H   0  0  0  0  0  0
  -17.4215  -26.6680   21.4028 H   0  0  0  0  0  0
  -18.0341  -26.0078   22.9024 H   0  0  0  0  0  0
  -19.7952  -30.7300   24.2228 H   0  0  0  0  0  0
  -17.5024  -31.6269   24.5162 H   0  0  0  0  0  0
  -15.5363  -30.2974   23.7675 H   0  0  0  0  0  0
  -15.8690  -28.0808   22.7093 H   0  0  0  0  0  0
  -24.5889  -30.7102   25.7714 H   0  0  0  0  0  0
  -24.8895  -32.2939   26.4768 H   0  0  0  0  0  0
  -25.7979  -30.8958   27.0215 H   0  0  0  0  0  0
  -26.3031  -29.6659   24.1311 H   0  0  0  0  0  0
  -27.3994  -29.7259   25.4905 H   0  0  0  0  0  0
  -27.8949  -30.4176   23.9655 H   0  0  0  0  0  0
  -27.2638  -33.3648   26.2022 H   0  0  0  0  0  0
  -28.3894  -32.6864   25.0352 H   0  0  0  0  0  0
  -28.0690  -31.8495   26.5467 H   0  0  0  0  0  0
  -28.2583  -38.0087   24.7512 H   0  0  0  0  0  0
  -28.1081  -36.2617   24.6292 H   0  0  0  0  0  0
  -27.2294  -37.1426   25.8868 H   0  0  0  0  0  0
  -20.9486  -29.8746   21.6765 H   0  0  0  0  0  0
  -26.0151  -38.2807   24.1404 H   0  0  0  0  0  0
  -32.0639  -18.2714   20.2216 H   0  0  0  0  0  0
  -32.7558  -20.8348   19.9517 H   0  0  0  0  0  0
  -31.6446  -21.9200   20.7791 H   0  0  0  0  0  0
  -31.5216  -21.6912   19.0318 H   0  0  0  0  0  0
  -28.6220  -16.1320   20.2415 H   0  0  0  0  0  0
  -29.3284  -16.2460   21.7952 H   0  0  0  0  0  0
  -29.8295  -23.3714   19.6253 H   0  0  0  0  0  0
  -29.4580  -23.3646   21.3104 H   0  0  0  0  0  0
  -28.0139  -21.5257   19.2595 H   0  0  0  0  0  0
  -27.7292  -21.4941   20.9533 H   0  0  0  0  0  0
  -27.1223  -24.4063   20.7341 H   0  0  0  0  0  0
  -27.6072  -24.4545   19.0769 H   0  0  0  0  0  0
  1 25  1  0  0  0
  1 30  2  0  0  0
  1 75  1  0  0  0
  2  3  1  0  0  0
  2 25  1  0  0  0
  2 81  1  0  0  0
  2 82  1  0  0  0
  3  4  1  0  0  0
  3 83  1  0  0  0
  3 84  1  0  0  0
  4  5  1  0  0  0
  4 85  1  0  0  0
  4 86  1  0  0  0
  5  6  1  0  0  0
  5 26  1  0  0  0
  5 87  1  0  0  0
  6 25  1  0  0  0
  6 88  1  0  0  0
  6 89  1  0  0  0
  7  8  2  0  0  0
  7 26  1  0  0  0
  7 29  1  0  0  0
  8  9  1  0  0  0
  8 22  1  0  0  0
  9 10  1  0  0  0
  9 27  2  0  0  0
 10 11  2  0  0  0
 10 15  1  0  0  0
 11 12  1  0  0  0
 11 90  1  0  0  0
 12 13  2  0  0  0
 12 91  1  0  0  0
 13 14  1  0  0  0
 13 31  1  0  0  0
 14 15  2  0  0  0
 14 92  1  0  0  0
 15 93  1  0  0  0
 16 17  2  0  0  0
 16 21  1  0  0  0
 16 31  1  0  0  0
 17 18  1  0  0  0
 17 94  1  0  0  0
 18 19  2  0  0  0
 18 95  1  0  0  0
 19 20  1  0  0  0
 19 24  1  0  0  0
 20 21  2  0  0  0
 20 96  1  0  0  0
 21 23  1  0  0  0
 22 28  1  0  0  0
 22 32  2  0  0  0
 26 27  1  0  0  0
 28 97  1  0  0  0
 28 98  1  0  0  0
 29 99  1  0  0  0
 29100  1  0  0  0
 33 34  1  0  0  0
 33 66  1  0  0  0
 33 70  2  0  0  0
 34 36  1  0  0  0
 34 59  1  0  0  0
 34101  1  0  0  0
 35 44  2  0  0  0
 35 45  1  0  0  0
 35 68  1  0  0  0
 36 56  1  0  0  0
 36102  1  0  0  0
 37 39  1  0  0  0
 37 47  1  0  0  0
 37 66  1  0  0  0
 37103  1  0  0  0
 38 43  2  0  0  0
 38 46  1  0  0  0
 38 47  1  0  0  0
 39 64  1  0  0  0
 39 67  2  0  0  0
 40 52  1  0  0  0
 40 53  2  0  0  0
 40 58  1  0  0  0
 41104  1  0  0  0
 41105  1  0  0  0
 41106  1  0  0  0
 41 48  1  0  0  0
 42 43  1  0  0  0
 42 66  1  0  0  0
 42107  1  0  0  0
 42108  1  0  0  0
 43 44  1  0  0  0
 44109  1  0  0  0
 45 46  2  0  0  0
 45110  1  0  0  0
 46111  1  0  0  0
 47112  1  0  0  0
 47113  1  0  0  0
 48 56  1  0  0  0
 48 65  1  0  0  0
 48114  1  0  0  0
 49 50  1  0  0  0
 49 53  1  0  0  0
 49 64  1  0  0  0
 49115  1  0  0  0
 50 51  1  0  0  0
 50116  1  0  0  0
 50117  1  0  0  0
 51 52  1  0  0  0
 51118  1  0  0  0
 51119  1  0  0  0
 52120  1  0  0  0
 52121  1  0  0  0
 53 54  1  0  0  0
 54 55  2  0  0  0
 54122  1  0  0  0
 55 57  1  0  0  0
 55123  1  0  0  0
 56 69  2  0  0  0
 57 58  2  0  0  0
 57124  1  0  0  0
 58125  1  0  0  0
 59 60  1  0  0  0
 59 61  1  0  0  0
 59 62  1  0  0  0
 60126  1  0  0  0
 60127  1  0  0  0
 60128  1  0  0  0
 61129  1  0  0  0
 61130  1  0  0  0
 61131  1  0  0  0
 62132  1  0  0  0
 62133  1  0  0  0
 62134  1  0  0  0
 63 65  1  0  0  0
 63135  1  0  0  0
 63136  1  0  0  0
 63137  1  0  0  0
 64138  1  0  0  0
 65139  1  0  0  0
 68 78  1  0  0  0
 71 72  1  0  0  0
 71 73  2  0  0  0
 71140  1  0  0  0
 72 75  1  0  0  0
 72 79  2  0  0  0
 73 74  1  0  0  0
 73 80  1  0  0  0
 74141  1  0  0  0
 74142  1  0  0  0
 74143  1  0  0  0
 75144  1  0  0  0
 75145  1  0  0  0
 76 77  1  0  0  0
 76 78  1  0  0  0
 76146  1  0  0  0
 76147  1  0  0  0
 77 80  1  0  0  0
 77148  1  0  0  0
 77149  1  0  0  0
 78150  1  0  0  0
 78151  1  0  0  0
 79 80  1  0  0  0
M  ISO  4   1 100  68 101  75 100  78 101
M  END
> <chiral flag>
0

> <version>
0

> <s_m_source_file>
/data/baiqing/PycharmProjects/Reinvent-master-3.2/result/LINK_invent/BTK/process_docking_weight1_custom_sum_contain_oxygen_bond_distance_aromatic_linkinvent_7_9_3/rearranged_h_0040.sdf

> <i_m_source_file_index>
58

> <r_mmod_Potential_Energy-OPLS-2005>
554.892944335938

> <r_mmod_Stretch_Energy-OPLS-2005>
289.055114746094

> <r_mmod_Bend_Energy-OPLS-2005>
287.025665283203

> <r_mmod_Torsional_Energy-OPLS-2005>
187.673187255859

> <r_mmod_Improper_Torsional_Energy-OPLS-2005>
3.07047915458679

> <r_mmod_Van_der_Waal_Energy-OPLS-2005>
106.879013061523

> <r_mmod_Electrostatic_Energy-OPLS-2005>
-316.3955078125

> <r_mmod_Solvation_Energy-OPLS-2005>
-212.925903320312

> <b_mmod_Minimization_Converged-OPLS-2005>
0

> <r_mmod_RMS_Derivative-OPLS-2005>
0.537757277488708

$$$$
58
                    3D
 Structure written by MMmdl.
160168  0  0  1  0            999 V2000
  -30.6583  -14.5419   20.5527 C   0  0  0  0  0  0
  -30.4322  -12.3464   19.4305 C   0  0  0  0  0  0
  -29.4987  -12.5106   18.2115 C   0  0  0  0  0  0
  -28.0210  -12.3587   18.6250 C   0  0  0  0  0  0
  -27.6585  -13.2080   19.8723 C   0  0  2  0  0  0
  -28.7012  -13.0104   20.9952 C   0  0  0  0  0  0
  -25.2574  -13.8150   20.5668 C   0  0  0  0  0  0
  -24.1829  -13.0431   20.9168 C   0  0  0  0  0  0
  -24.6386  -11.6898   20.8733 C   0  0  0  0  0  0
  -23.9052  -10.4289   21.0410 C   0  0  0  0  0  0
  -24.3610   -9.4206   21.9181 C   0  0  0  0  0  0
  -23.6286   -8.2243   22.0753 C   0  0  0  0  0  0
  -22.4270   -8.0279   21.3544 C   0  0  0  0  0  0
  -21.9902   -9.0249   20.4647 C   0  0  0  0  0  0
  -22.7228  -10.2129   20.3055 C   0  0  0  0  0  0
  -21.6849   -6.0732   22.5278 C   0  0  0  0  0  0
  -21.4013   -6.5638   23.8210 C   0  0  0  0  0  0
  -21.3659   -5.6793   24.9172 C   0  0  0  0  0  0
  -21.6044   -4.3054   24.7228 C   0  0  0  0  0  0
  -21.8818   -3.8144   23.4349 C   0  0  0  0  0  0
  -21.9193   -4.6959   22.3406 C   0  0  0  0  0  0
  -22.7855  -13.5231   21.1842 C   0  0  0  0  0  0
  -22.1662   -4.2144   21.0981 F   0  0  0  0  0  0
  -21.5636   -3.4538   25.7740 F   0  0  0  0  0  0
  -30.0247  -13.3388   20.4402 N   0  0  0  0  0  0
  -26.3007  -12.9321   20.3352 N   0  0  0  0  0  0
  -25.9314  -11.6481   20.5767 N   0  0  0  0  0  0
  -22.0500  -12.8221   22.0398 N   0  0  0  0  0  0
  -25.4307  -15.1868   20.4065 N   0  0  0  0  0  0
  -31.7977  -14.7337   20.1196 O   0  0  0  0  0  0
  -21.6639   -6.8874   21.4239 O   0  0  0  0  0  0
  -22.3544  -14.5545   20.6703 O   0  0  0  0  0  0
  -24.6195  -31.8656   23.2067 C   0  0  0  0  0  0
  -25.9068  -32.4814   23.8382 C   0  0  1  0  0  0
  -27.2292  -27.3799   20.1148 C   0  0  0  0  0  0
  -25.5903  -33.8609   24.2318 N   0  0  0  0  0  0
  -23.4103  -30.4886   21.5489 C   0  0  2  0  0  0
  -24.8562  -28.9446   20.1197 C   0  0  0  0  0  0
  -22.7438  -29.4658   22.4978 C   0  0  0  0  0  0
  -18.0278  -28.1381   22.8486 C   0  0  0  0  0  0
  -24.1488  -36.7310   23.2640 C   0  0  0  0  0  0
  -25.9441  -30.8138   21.3688 C   0  0  0  0  0  0
  -26.0199  -29.4428   20.7194 C   0  0  0  0  0  0
  -27.2108  -28.6706   20.7080 C   0  0  0  0  0  0
  -26.0476  -26.9146   19.5008 C   0  0  0  0  0  0
  -24.8676  -27.6820   19.5050 C   0  0  0  0  0  0
  -23.6218  -29.8190   20.1651 C   0  0  0  0  0  0
  -25.4109  -36.3110   24.0340 C   0  0  1  0  0  0
  -20.5872  -28.3679   23.1304 C   0  0  2  0  0  0
  -20.6771  -26.9412   22.5412 C   0  0  0  0  0  0
  -19.5748  -26.6390   21.5212 C   0  0  0  0  0  0
  -18.1928  -26.7928   22.1623 C   0  0  0  0  0  0
  -19.1527  -28.8845   23.2894 C   0  0  0  0  0  0
  -18.9452  -30.1450   23.8909 C   0  0  0  0  0  0
  -17.6452  -30.6587   24.0561 C   0  0  0  0  0  0
  -25.9036  -34.9474   23.5130 C   0  0  0  0  0  0
  -16.5344  -29.9086   23.6326 C   0  0  0  0  0  0
  -16.7268  -28.6504   23.0347 C   0  0  0  0  0  0
  -26.4473  -31.6601   25.0726 C   0  0  0  0  0  0
  -25.3720  -31.3700   26.1459 C   0  0  0  0  0  0
  -27.0317  -30.3045   24.6125 C   0  0  0  0  0  0
  -27.6057  -32.4314   25.7482 C   0  0  0  0  0  0
  -27.5583  -37.1814   24.8465 C   0  0  0  0  0  0
  -21.4162  -29.3042   22.3706 N   0  0  0  0  0  0
  -26.4299  -37.3792   23.9405 N   0  0  0  0  0  0
  -24.6766  -31.0717   22.0994 N   0  0  0  0  0  0
  -23.4192  -28.8202   23.3035 O   0  0  0  0  0  0
  -28.3902  -26.6190   20.0887 O   0  0  0  0  0  0
  -26.5597  -34.8929   22.4691 O   0  0  0  0  0  0
  -23.5374  -32.1431   23.7434 O   0  0  0  0  0  0
  -27.8401  -19.4942   18.1451 C   0  0  0  0  0  0
  -28.4003  -20.1277   19.2279 C   0  0  0  0  0  0
  -27.1751  -21.5990   18.0490 C   0  0  0  0  0  0
  -26.3949  -22.7509   17.4901 C   0  0  0  0  0  0
  -29.2758  -19.4503   20.2814 C   0  0  0  0  0  0
  -29.2337  -17.8731   20.1767 C   0  0  0  0  0  0
  -28.1132  -24.1033   19.6138 C   0  0  0  0  0  0
  -28.3097  -22.6074   20.0936 C   0  0  0  0  0  0
  -30.1903  -17.0183   21.0691 C   0  0  0  0  0  0
  -28.3650  -25.2646   20.6304 C   0  0  0  0  0  0
  -27.9934  -21.4772   19.1332 N   0  0  0  0  0  0
  -27.1136  -20.4075   17.4610 N   0  3  0  0  0  0
  -29.8926  -15.5616   21.0138 N   0  0  0  0  0  0
  -31.4741  -12.4660   19.1282 H   0  0  0  0  0  0
  -30.3547  -11.3391   19.8418 H   0  0  0  0  0  0
  -29.7480  -11.7777   17.4428 H   0  0  0  0  0  0
  -29.6532  -13.4911   17.7586 H   0  0  0  0  0  0
  -27.8427  -11.3031   18.8318 H   0  0  0  0  0  0
  -27.3674  -12.6176   17.7914 H   0  0  0  0  0  0
  -27.6944  -14.2527   19.5619 H   0  0  0  0  0  0
  -28.6941  -11.9774   21.3459 H   0  0  0  0  0  0
  -28.4551  -13.6155   21.8689 H   0  0  0  0  0  0
  -25.2757   -9.5680   22.4751 H   0  0  0  0  0  0
  -23.9994   -7.4635   22.7471 H   0  0  0  0  0  0
  -21.0838   -8.8764   19.8951 H   0  0  0  0  0  0
  -22.3688  -10.9665   19.6162 H   0  0  0  0  0  0
  -21.2002   -7.6145   23.9709 H   0  0  0  0  0  0
  -21.1481   -6.0526   25.9076 H   0  0  0  0  0  0
  -22.0599   -2.7606   23.2851 H   0  0  0  0  0  0
  -22.4118  -11.9876   22.4775 H   0  0  0  0  0  0
  -21.1119  -13.1242   22.2617 H   0  0  0  0  0  0
  -24.6645  -15.8423   20.5150 H   0  0  0  0  0  0
  -26.2833  -15.6236   20.0818 H   0  0  0  0  0  0
  -26.7135  -32.5518   23.1140 H   0  0  0  0  0  0
  -25.0062  -33.9754   25.0467 H   0  0  0  0  0  0
  -22.7014  -31.3070   21.4067 H   0  0  0  0  0  0
  -23.3756  -35.9638   23.3311 H   0  0  0  0  0  0
  -24.3581  -36.8916   22.2052 H   0  0  0  0  0  0
  -23.7236  -37.6517   23.6646 H   0  0  0  0  0  0
  -26.0613  -31.5749   20.5957 H   0  0  0  0  0  0
  -26.8299  -30.8693   21.9897 H   0  0  0  0  0  0
  -28.1113  -29.0534   21.1686 H   0  0  0  0  0  0
  -26.0229  -25.9681   18.9892 H   0  0  0  0  0  0
  -23.9771  -27.2969   19.0276 H   0  0  0  0  0  0
  -23.7352  -30.5926   19.4046 H   0  0  0  0  0  0
  -22.7440  -29.2423   19.8683 H   0  0  0  0  0  0
  -25.1286  -36.1981   25.0833 H   0  0  0  0  0  0
  -20.9960  -28.3251   24.1426 H   0  0  0  0  0  0
  -20.5682  -26.2290   23.3604 H   0  0  0  0  0  0
  -21.6642  -26.7458   22.1198 H   0  0  0  0  0  0
  -19.6911  -25.6303   21.1239 H   0  0  0  0  0  0
  -19.6687  -27.3202   20.6743 H   0  0  0  0  0  0
  -17.4199  -26.6676   21.4025 H   0  0  0  0  0  0
  -18.0327  -26.0068   22.9014 H   0  0  0  0  0  0
  -19.7927  -30.7259   24.2298 H   0  0  0  0  0  0
  -17.5007  -31.6271   24.5156 H   0  0  0  0  0  0
  -15.5345  -30.2985   23.7652 H   0  0  0  0  0  0
  -15.8670  -28.0827   22.7054 H   0  0  0  0  0  0
  -24.5900  -30.7045   25.7776 H   0  0  0  0  0  0
  -24.8892  -32.2844   26.4915 H   0  0  0  0  0  0
  -25.8049  -30.8856   27.0221 H   0  0  0  0  0  0
  -26.2876  -29.6798   24.1167 H   0  0  0  0  0  0
  -27.4072  -29.7285   25.4593 H   0  0  0  0  0  0
  -27.8713  -30.4367   23.9297 H   0  0  0  0  0  0
  -27.2702  -33.3615   26.2078 H   0  0  0  0  0  0
  -28.3852  -32.6868   25.0293 H   0  0  0  0  0  0
  -28.0742  -31.8425   26.5376 H   0  0  0  0  0  0
  -28.2611  -38.0104   24.7516 H   0  0  0  0  0  0
  -28.1073  -36.2638   24.6294 H   0  0  0  0  0  0
  -27.2298  -37.1461   25.8868 H   0  0  0  0  0  0
  -20.9335  -29.8768   21.6920 H   0  0  0  0  0  0
  -26.0198  -38.2879   24.1391 H   0  0  0  0  0  0
  -27.8865  -18.4651   17.8178 H   0  0  0  0  0  0
  -25.6633  -23.0806   18.2273 H   0  0  0  0  0  0
  -25.8565  -22.4166   16.6028 H   0  0  0  0  0  0
  -27.0742  -23.5495   17.1959 H   0  0  0  0  0  0
  -28.9505  -19.7677   21.2728 H   0  0  0  0  0  0
  -30.2998  -19.8035   20.1575 H   0  0  0  0  0  0
  -29.4573  -17.5825   19.1504 H   0  0  0  0  0  0
  -28.2075  -17.5536   20.3642 H   0  0  0  0  0  0
  -27.0775  -24.2294   19.3447 H   0  0  0  0  0  0
  -28.7180  -24.2791   18.7240 H   0  0  0  0  0  0
  -27.7057  -22.4329   20.9839 H   0  0  0  0  0  0
  -29.3463  -22.4713   20.4024 H   0  0  0  0  0  0
  -30.0927  -17.3346   22.1082 H   0  0  0  0  0  0
  -31.2279  -17.2090   20.7885 H   0  0  0  0  0  0
  -29.3398  -25.1033   21.0913 H   0  0  0  0  0  0
  -27.6456  -25.2059   21.4490 H   0  0  0  0  0  0
  -26.5767  -20.2040   16.6260 H   0  0  0  0  0  0
  -28.9769  -15.2883   21.3380 H   0  0  0  0  0  0
  1 25  1  0  0  0
  1 30  2  0  0  0
  1 83  1  0  0  0
  2  3  1  0  0  0
  2 25  1  0  0  0
  2 84  1  0  0  0
  2 85  1  0  0  0
  3  4  1  0  0  0
  3 86  1  0  0  0
  3 87  1  0  0  0
  4  5  1  0  0  0
  4 88  1  0  0  0
  4 89  1  0  0  0
  5  6  1  0  0  0
  5 26  1  0  0  0
  5 90  1  0  0  0
  6 25  1  0  0  0
  6 91  1  0  0  0
  6 92  1  0  0  0
  7  8  2  0  0  0
  7 26  1  0  0  0
  7 29  1  0  0  0
  8  9  1  0  0  0
  8 22  1  0  0  0
  9 10  1  0  0  0
  9 27  2  0  0  0
 10 11  2  0  0  0
 10 15  1  0  0  0
 11 12  1  0  0  0
 11 93  1  0  0  0
 12 13  2  0  0  0
 12 94  1  0  0  0
 13 14  1  0  0  0
 13 31  1  0  0  0
 14 15  2  0  0  0
 14 95  1  0  0  0
 15 96  1  0  0  0
 16 17  2  0  0  0
 16 21  1  0  0  0
 16 31  1  0  0  0
 17 18  1  0  0  0
 17 97  1  0  0  0
 18 19  2  0  0  0
 18 98  1  0  0  0
 19 20  1  0  0  0
 19 24  1  0  0  0
 20 21  2  0  0  0
 20 99  1  0  0  0
 21 23  1  0  0  0
 22 28  1  0  0  0
 22 32  2  0  0  0
 26 27  1  0  0  0
 28100  1  0  0  0
 28101  1  0  0  0
 29102  1  0  0  0
 29103  1  0  0  0
 33 34  1  0  0  0
 33 66  1  0  0  0
 33 70  2  0  0  0
 34 36  1  0  0  0
 34 59  1  0  0  0
 34104  1  0  0  0
 35 44  2  0  0  0
 35 45  1  0  0  0
 35 68  1  0  0  0
 36 56  1  0  0  0
 36105  1  0  0  0
 37 39  1  0  0  0
 37 47  1  0  0  0
 37 66  1  0  0  0
 37106  1  0  0  0
 38 43  2  0  0  0
 38 46  1  0  0  0
 38 47  1  0  0  0
 39 64  1  0  0  0
 39 67  2  0  0  0
 40 52  1  0  0  0
 40 53  2  0  0  0
 40 58  1  0  0  0
 41107  1  0  0  0
 41108  1  0  0  0
 41109  1  0  0  0
 41 48  1  0  0  0
 42 43  1  0  0  0
 42 66  1  0  0  0
 42110  1  0  0  0
 42111  1  0  0  0
 43 44  1  0  0  0
 44112  1  0  0  0
 45 46  2  0  0  0
 45113  1  0  0  0
 46114  1  0  0  0
 47115  1  0  0  0
 47116  1  0  0  0
 48 56  1  0  0  0
 48 65  1  0  0  0
 48117  1  0  0  0
 49 50  1  0  0  0
 49 53  1  0  0  0
 49 64  1  0  0  0
 49118  1  0  0  0
 50 51  1  0  0  0
 50119  1  0  0  0
 50120  1  0  0  0
 51 52  1  0  0  0
 51121  1  0  0  0
 51122  1  0  0  0
 52123  1  0  0  0
 52124  1  0  0  0
 53 54  1  0  0  0
 54 55  2  0  0  0
 54125  1  0  0  0
 55 57  1  0  0  0
 55126  1  0  0  0
 56 69  2  0  0  0
 57 58  2  0  0  0
 57127  1  0  0  0
 58128  1  0  0  0
 59 60  1  0  0  0
 59 61  1  0  0  0
 59 62  1  0  0  0
 60129  1  0  0  0
 60130  1  0  0  0
 60131  1  0  0  0
 61132  1  0  0  0
 61133  1  0  0  0
 61134  1  0  0  0
 62135  1  0  0  0
 62136  1  0  0  0
 62137  1  0  0  0
 63 65  1  0  0  0
 63138  1  0  0  0
 63139  1  0  0  0
 63140  1  0  0  0
 64141  1  0  0  0
 65142  1  0  0  0
 68 80  1  0  0  0
 71 72  2  0  0  0
 71 82  1  0  0  0
 71143  1  0  0  0
 72 75  1  0  0  0
 72 81  1  0  0  0
 73 74  1  0  0  0
 73 81  1  0  0  0
 73 82  2  0  0  0
 74144  1  0  0  0
 74145  1  0  0  0
 74146  1  0  0  0
 75 76  1  0  0  0
 75147  1  0  0  0
 75148  1  0  0  0
 76 79  1  0  0  0
 76149  1  0  0  0
 76150  1  0  0  0
 77 78  1  0  0  0
 77 80  1  0  0  0
 77151  1  0  0  0
 77152  1  0  0  0
 78 81  1  0  0  0
 78153  1  0  0  0
 78154  1  0  0  0
 79 83  1  0  0  0
 79155  1  0  0  0
 79156  1  0  0  0
 80157  1  0  0  0
 80158  1  0  0  0
 82159  1  0  0  0
 83160  1  0  0  0
M  CHG  1  82   1
M  ISO  4   1 100  68 101  80 101  83 100
M  END
> <chiral flag>
0

> <version>
0

> <s_m_source_file>
/data/baiqing/PycharmProjects/Reinvent-master-3.2/result/LINK_invent/BTK/process_docking_weight1_custom_sum_contain_oxygen_bond_distance_aromatic_linkinvent_7_9_3/rearranged_h_0040.sdf

> <i_m_source_file_index>
59

> <r_mmod_Potential_Energy-OPLS-2005>
-87.3289794921875

> <r_mmod_Stretch_Energy-OPLS-2005>
59.7794036865234

> <r_mmod_Bend_Energy-OPLS-2005>
129.956954956055

> <r_mmod_Torsional_Energy-OPLS-2005>
220.747039794922

> <r_mmod_Improper_Torsional_Energy-OPLS-2005>
4.00207090377808

> <r_mmod_Van_der_Waal_Energy-OPLS-2005>
131.141235351562

> <r_mmod_Electrostatic_Energy-OPLS-2005>
-219.444046020508

> <r_mmod_Solvation_Energy-OPLS-2005>
-435.326507568359

> <b_mmod_Minimization_Converged-OPLS-2005>
0

> <r_mmod_RMS_Derivative-OPLS-2005>
0.976787567138672

$$$$
59
                    3D
 Structure written by MMmdl.
165173  0  0  1  0            999 V2000
  -30.7168  -14.4191   20.5412 C   0  0  0  0  0  0
  -30.4200  -12.2642   19.4148 C   0  0  0  0  0  0
  -29.4927  -12.4875   18.2031 C   0  0  0  0  0  0
  -28.0117  -12.3611   18.6166 C   0  0  0  0  0  0
  -27.6638  -13.1998   19.8775 C   0  0  2  0  0  0
  -28.7084  -12.9702   20.9943 C   0  0  0  0  0  0
  -25.2593  -13.8134   20.5652 C   0  0  0  0  0  0
  -24.1848  -13.0422   20.9176 C   0  0  0  0  0  0
  -24.6400  -11.6887   20.8736 C   0  0  0  0  0  0
  -23.9067  -10.4274   21.0407 C   0  0  0  0  0  0
  -24.3616   -9.4189   21.9181 C   0  0  0  0  0  0
  -23.6294   -8.2229   22.0758 C   0  0  0  0  0  0
  -22.4278   -8.0271   21.3548 C   0  0  0  0  0  0
  -21.9914   -9.0240   20.4647 C   0  0  0  0  0  0
  -22.7240  -10.2117   20.3053 C   0  0  0  0  0  0
  -21.6853   -6.0740   22.5290 C   0  0  0  0  0  0
  -21.4013   -6.5641   23.8223 C   0  0  0  0  0  0
  -21.3659   -5.6788   24.9182 C   0  0  0  0  0  0
  -21.6046   -4.3055   24.7227 C   0  0  0  0  0  0
  -21.8823   -3.8150   23.4345 C   0  0  0  0  0  0
  -21.9188   -4.6970   22.3403 C   0  0  0  0  0  0
  -22.7869  -13.5212   21.1836 C   0  0  0  0  0  0
  -22.1644   -4.2162   21.0978 F   0  0  0  0  0  0
  -21.5628   -3.4532   25.7732 F   0  0  0  0  0  0
  -30.0409  -13.2489   20.4337 N   0  0  0  0  0  0
  -26.3039  -12.9309   20.3391 N   0  0  0  0  0  0
  -25.9325  -11.6471   20.5786 N   0  0  0  0  0  0
  -22.0475  -12.8206   22.0364 N   0  0  0  0  0  0
  -25.4296  -15.1851   20.3990 N   0  0  0  0  0  0
  -31.8668  -14.5896   20.1363 O   0  0  0  0  0  0
  -21.6635   -6.8877   21.4247 O   0  0  0  0  0  0
  -22.3569  -14.5537   20.6704 O   0  0  0  0  0  0
  -24.6115  -31.8697   23.2136 C   0  0  0  0  0  0
  -25.9024  -32.4827   23.8422 C   0  0  1  0  0  0
  -27.2317  -27.4678   20.0851 C   0  0  0  0  0  0
  -25.5879  -33.8625   24.2342 N   0  0  0  0  0  0
  -23.3990  -30.4948   21.5518 C   0  0  2  0  0  0
  -24.8466  -28.9704   20.1093 C   0  0  0  0  0  0
  -22.7394  -29.4665   22.4984 C   0  0  0  0  0  0
  -18.0273  -28.1369   22.8486 C   0  0  0  0  0  0
  -24.1481  -36.7322   23.2634 C   0  0  0  0  0  0
  -25.9245  -30.8460   21.3628 C   0  0  0  0  0  0
  -26.0052  -29.4852   20.7061 C   0  0  0  0  0  0
  -27.2045  -28.7407   20.6920 C   0  0  0  0  0  0
  -26.0648  -26.9706   19.4711 C   0  0  0  0  0  0
  -24.8694  -27.7096   19.4895 C   0  0  0  0  0  0
  -23.6064  -29.8310   20.1643 C   0  0  0  0  0  0
  -25.4098  -36.3111   24.0338 C   0  0  1  0  0  0
  -20.5857  -28.3652   23.1313 C   0  0  2  0  0  0
  -20.6750  -26.9391   22.5410 C   0  0  0  0  0  0
  -19.5731  -26.6380   21.5199 C   0  0  0  0  0  0
  -18.1912  -26.7917   22.1618 C   0  0  0  0  0  0
  -19.1519  -28.8829   23.2899 C   0  0  0  0  0  0
  -18.9448  -30.1432   23.8913 C   0  0  0  0  0  0
  -17.6452  -30.6572   24.0567 C   0  0  0  0  0  0
  -25.9026  -34.9477   23.5140 C   0  0  0  0  0  0
  -16.5344  -29.9080   23.6321 C   0  0  0  0  0  0
  -16.7265  -28.6499   23.0341 C   0  0  0  0  0  0
  -26.4469  -31.6596   25.0738 C   0  0  0  0  0  0
  -25.3742  -31.3699   26.1494 C   0  0  0  0  0  0
  -27.0301  -30.3043   24.6097 C   0  0  0  0  0  0
  -27.6050  -32.4313   25.7486 C   0  0  0  0  0  0
  -27.5571  -37.1814   24.8463 C   0  0  0  0  0  0
  -21.4124  -29.3036   22.3730 N   0  0  0  0  0  0
  -26.4284  -37.3795   23.9411 N   0  0  0  0  0  0
  -24.6629  -31.0825   22.1022 N   0  0  0  0  0  0
  -23.4175  -28.8197   23.3010 O   0  0  0  0  0  0
  -28.3752  -26.7086   20.1107 O   0  0  0  0  0  0
  -26.5587  -34.8932   22.4699 O   0  0  0  0  0  0
  -23.5316  -32.1439   23.7548 O   0  0  0  0  0  0
  -27.0013  -21.4718   22.0841 C   0  0  0  0  0  0
  -28.0234  -22.2771   21.6310 C   0  0  0  0  0  0
  -26.1647  -22.7949   20.5954 C   0  0  0  0  0  0
  -29.4702  -22.3022   22.0101 C   0  0  0  0  0  0
  -25.1831  -23.4551   19.6829 C   0  0  0  0  0  0
  -26.9998  -20.3917   23.1314 C   0  0  0  0  0  0
  -26.9757  -18.9723   22.5327 C   0  0  0  0  0  0
  -28.3151  -18.2272   22.6505 C   0  0  0  0  0  0
  -28.3388  -16.9450   21.8065 C   0  0  0  0  0  0
  -28.1480  -24.2366   19.9967 C   0  0  0  0  0  0
  -29.6572  -16.1605   21.9233 C   0  0  0  0  0  0
  -28.2362  -25.5027   20.8724 C   0  0  0  0  0  0
  -25.8312  -21.8024   21.4121 N   0  0  0  0  0  0
  -27.4629  -23.1505   20.6959 N   0  0  0  0  0  0
  -29.9328  -15.4902   20.6622 N   0  0  0  0  0  0
  -31.4675  -12.3474   19.1149 H   0  0  0  0  0  0
  -30.3007  -11.2545   19.8095 H   0  0  0  0  0  0
  -29.7255  -11.7677   17.4179 H   0  0  0  0  0  0
  -29.6696  -13.4753   17.7747 H   0  0  0  0  0  0
  -27.8081  -11.3057   18.8047 H   0  0  0  0  0  0
  -27.3646  -12.6461   17.7867 H   0  0  0  0  0  0
  -27.7097  -14.2488   19.5836 H   0  0  0  0  0  0
  -28.6682  -11.9379   21.3466 H   0  0  0  0  0  0
  -28.4909  -13.5884   21.8657 H   0  0  0  0  0  0
  -25.2767   -9.5667   22.4752 H   0  0  0  0  0  0
  -24.0011   -7.4621   22.7474 H   0  0  0  0  0  0
  -21.0852   -8.8762   19.8949 H   0  0  0  0  0  0
  -22.3709  -10.9657   19.6166 H   0  0  0  0  0  0
  -21.2010   -7.6149   23.9741 H   0  0  0  0  0  0
  -21.1474   -6.0509   25.9087 H   0  0  0  0  0  0
  -22.0607   -2.7614   23.2838 H   0  0  0  0  0  0
  -22.4014  -11.9808   22.4708 H   0  0  0  0  0  0
  -21.1065  -13.1228   22.2459 H   0  0  0  0  0  0
  -24.6629  -15.8400   20.5039 H   0  0  0  0  0  0
  -26.2944  -15.6246   20.1121 H   0  0  0  0  0  0
  -26.7086  -32.5562   23.1184 H   0  0  0  0  0  0
  -25.0032  -33.9789   25.0487 H   0  0  0  0  0  0
  -22.6889  -31.3121   21.4141 H   0  0  0  0  0  0
  -23.3732  -35.9665   23.3304 H   0  0  0  0  0  0
  -24.3565  -36.8930   22.2045 H   0  0  0  0  0  0
  -23.7267  -37.6543   23.6648 H   0  0  0  0  0  0
  -26.0365  -31.6161   20.5980 H   0  0  0  0  0  0
  -26.8126  -30.8950   21.9813 H   0  0  0  0  0  0
  -28.0997  -29.1303   21.1569 H   0  0  0  0  0  0
  -26.0797  -26.0186   18.9678 H   0  0  0  0  0  0
  -23.9832  -27.3073   19.0182 H   0  0  0  0  0  0
  -23.7130  -30.6091   19.4070 H   0  0  0  0  0  0
  -22.7320  -29.2482   19.8682 H   0  0  0  0  0  0
  -25.1278  -36.1967   25.0831 H   0  0  0  0  0  0
  -20.9956  -28.3200   24.1431 H   0  0  0  0  0  0
  -20.5618  -26.2266   23.3596 H   0  0  0  0  0  0
  -21.6623  -26.7413   22.1220 H   0  0  0  0  0  0
  -19.6889  -25.6300   21.1208 H   0  0  0  0  0  0
  -19.6658  -27.3204   20.6738 H   0  0  0  0  0  0
  -17.4181  -26.6661   21.4027 H   0  0  0  0  0  0
  -18.0320  -26.0060   22.9016 H   0  0  0  0  0  0
  -19.7926  -30.7237   24.2291 H   0  0  0  0  0  0
  -17.5015  -31.6258   24.5163 H   0  0  0  0  0  0
  -15.5349  -30.2990   23.7640 H   0  0  0  0  0  0
  -15.8662  -28.0831   22.7042 H   0  0  0  0  0  0
  -24.5905  -30.7055   25.7837 H   0  0  0  0  0  0
  -24.8942  -32.2853   26.4962 H   0  0  0  0  0  0
  -25.8092  -30.8854   27.0243 H   0  0  0  0  0  0
  -26.2849  -29.6810   24.1140 H   0  0  0  0  0  0
  -27.4072  -29.7274   25.4552 H   0  0  0  0  0  0
  -27.8679  -30.4372   23.9248 H   0  0  0  0  0  0
  -27.2671  -33.3596   26.2109 H   0  0  0  0  0  0
  -28.3830  -32.6903   25.0290 H   0  0  0  0  0  0
  -28.0757  -31.8414   26.5364 H   0  0  0  0  0  0
  -28.2601  -38.0100   24.7502 H   0  0  0  0  0  0
  -28.1052  -36.2635   24.6287 H   0  0  0  0  0  0
  -27.2284  -37.1474   25.8864 H   0  0  0  0  0  0
  -20.9268  -29.8820   21.7013 H   0  0  0  0  0  0
  -26.0164  -38.2867   24.1416 H   0  0  0  0  0  0
  -29.6983  -21.5489   22.7629 H   0  0  0  0  0  0
  -29.7551  -23.2712   22.4179 H   0  0  0  0  0  0
  -30.0992  -22.0972   21.1435 H   0  0  0  0  0  0
  -24.2857  -22.8434   19.5861 H   0  0  0  0  0  0
  -25.6036  -23.5922   18.6869 H   0  0  0  0  0  0
  -24.8890  -24.4204   20.0906 H   0  0  0  0  0  0
  -26.1186  -20.5174   23.7630 H   0  0  0  0  0  0
  -27.8439  -20.5086   23.8115 H   0  0  0  0  0  0
  -26.6530  -19.0181   21.4910 H   0  0  0  0  0  0
  -26.2136  -18.3844   23.0458 H   0  0  0  0  0  0
  -28.5149  -17.9952   23.6974 H   0  0  0  0  0  0
  -29.1218  -18.8808   22.3158 H   0  0  0  0  0  0
  -28.1627  -17.2293   20.7677 H   0  0  0  0  0  0
  -27.5080  -16.2935   22.0826 H   0  0  0  0  0  0
  -29.1458  -23.9067   19.7062 H   0  0  0  0  0  0
  -27.6325  -24.4447   19.0625 H   0  0  0  0  0  0
  -29.6168  -15.4589   22.7576 H   0  0  0  0  0  0
  -30.4899  -16.8360   22.1248 H   0  0  0  0  0  0
  -27.3695  -25.5581   21.5376 H   0  0  0  0  0  0
  -29.0972  -25.4224   21.5340 H   0  0  0  0  0  0
  -30.1902  -16.1696   19.9615 H   0  0  0  0  0  0
  1 25  1  0  0  0
  1 30  2  0  0  0
  1 85  1  0  0  0
  2  3  1  0  0  0
  2 25  1  0  0  0
  2 86  1  0  0  0
  2 87  1  0  0  0
  3  4  1  0  0  0
  3 88  1  0  0  0
  3 89  1  0  0  0
  4  5  1  0  0  0
  4 90  1  0  0  0
  4 91  1  0  0  0
  5  6  1  0  0  0
  5 26  1  0  0  0
  5 92  1  0  0  0
  6 25  1  0  0  0
  6 93  1  0  0  0
  6 94  1  0  0  0
  7  8  2  0  0  0
  7 26  1  0  0  0
  7 29  1  0  0  0
  8  9  1  0  0  0
  8 22  1  0  0  0
  9 10  1  0  0  0
  9 27  2  0  0  0
 10 11  2  0  0  0
 10 15  1  0  0  0
 11 12  1  0  0  0
 11 95  1  0  0  0
 12 13  2  0  0  0
 12 96  1  0  0  0
 13 14  1  0  0  0
 13 31  1  0  0  0
 14 15  2  0  0  0
 14 97  1  0  0  0
 15 98  1  0  0  0
 16 17  2  0  0  0
 16 21  1  0  0  0
 16 31  1  0  0  0
 17 18  1  0  0  0
 17 99  1  0  0  0
 18 19  2  0  0  0
 18100  1  0  0  0
 19 20  1  0  0  0
 19 24  1  0  0  0
 20 21  2  0  0  0
 20101  1  0  0  0
 21 23  1  0  0  0
 22 28  1  0  0  0
 22 32  2  0  0  0
 26 27  1  0  0  0
 28102  1  0  0  0
 28103  1  0  0  0
 29104  1  0  0  0
 29105  1  0  0  0
 33 34  1  0  0  0
 33 66  1  0  0  0
 33 70  2  0  0  0
 34 36  1  0  0  0
 34 59  1  0  0  0
 34106  1  0  0  0
 35 44  2  0  0  0
 35 45  1  0  0  0
 35 68  1  0  0  0
 36 56  1  0  0  0
 36107  1  0  0  0
 37 39  1  0  0  0
 37 47  1  0  0  0
 37 66  1  0  0  0
 37108  1  0  0  0
 38 43  2  0  0  0
 38 46  1  0  0  0
 38 47  1  0  0  0
 39 64  1  0  0  0
 39 67  2  0  0  0
 40 52  1  0  0  0
 40 53  2  0  0  0
 40 58  1  0  0  0
 41109  1  0  0  0
 41110  1  0  0  0
 41111  1  0  0  0
 41 48  1  0  0  0
 42 43  1  0  0  0
 42 66  1  0  0  0
 42112  1  0  0  0
 42113  1  0  0  0
 43 44  1  0  0  0
 44114  1  0  0  0
 45 46  2  0  0  0
 45115  1  0  0  0
 46116  1  0  0  0
 47117  1  0  0  0
 47118  1  0  0  0
 48 56  1  0  0  0
 48 65  1  0  0  0
 48119  1  0  0  0
 49 50  1  0  0  0
 49 53  1  0  0  0
 49 64  1  0  0  0
 49120  1  0  0  0
 50 51  1  0  0  0
 50121  1  0  0  0
 50122  1  0  0  0
 51 52  1  0  0  0
 51123  1  0  0  0
 51124  1  0  0  0
 52125  1  0  0  0
 52126  1  0  0  0
 53 54  1  0  0  0
 54 55  2  0  0  0
 54127  1  0  0  0
 55 57  1  0  0  0
 55128  1  0  0  0
 56 69  2  0  0  0
 57 58  2  0  0  0
 57129  1  0  0  0
 58130  1  0  0  0
 59 60  1  0  0  0
 59 61  1  0  0  0
 59 62  1  0  0  0
 60131  1  0  0  0
 60132  1  0  0  0
 60133  1  0  0  0
 61134  1  0  0  0
 61135  1  0  0  0
 61136  1  0  0  0
 62137  1  0  0  0
 62138  1  0  0  0
 62139  1  0  0  0
 63 65  1  0  0  0
 63140  1  0  0  0
 63141  1  0  0  0
 63142  1  0  0  0
 64143  1  0  0  0
 65144  1  0  0  0
 68 82  1  0  0  0
 71 72  2  0  0  0
 71 76  1  0  0  0
 71 83  1  0  0  0
 72 74  1  0  0  0
 72 84  1  0  0  0
 73 75  1  0  0  0
 73 83  2  0  0  0
 73 84  1  0  0  0
 74145  1  0  0  0
 74146  1  0  0  0
 74147  1  0  0  0
 75148  1  0  0  0
 75149  1  0  0  0
 75150  1  0  0  0
 76 77  1  0  0  0
 76151  1  0  0  0
 76152  1  0  0  0
 77 78  1  0  0  0
 77153  1  0  0  0
 77154  1  0  0  0
 78 79  1  0  0  0
 78155  1  0  0  0
 78156  1  0  0  0
 79 81  1  0  0  0
 79157  1  0  0  0
 79158  1  0  0  0
 80 82  1  0  0  0
 80 84  1  0  0  0
 80159  1  0  0  0
 80160  1  0  0  0
 81 85  1  0  0  0
 81161  1  0  0  0
 81162  1  0  0  0
 82163  1  0  0  0
 82164  1  0  0  0
 85165  1  0  0  0
M  ISO  4   1 100  68 101  82 101  85 100
M  END
> <chiral flag>
0

> <version>
0

> <s_m_source_file>
/data/baiqing/PycharmProjects/Reinvent-master-3.2/result/LINK_invent/BTK/process_docking_weight1_custom_sum_contain_oxygen_bond_distance_aromatic_linkinvent_7_9_3/rearranged_h_0040.sdf

> <i_m_source_file_index>
60

> <r_mmod_Potential_Energy-OPLS-2005>
-48.9259338378906

> <r_mmod_Stretch_Energy-OPLS-2005>
30.5520210266113

> <r_mmod_Bend_Energy-OPLS-2005>
102.430274963379

> <r_mmod_Torsional_Energy-OPLS-2005>
308.887969970703

> <r_mmod_Improper_Torsional_Energy-OPLS-2005>
18.5490226745605

> <r_mmod_Van_der_Waal_Energy-OPLS-2005>
117.431587219238

> <r_mmod_Electrostatic_Energy-OPLS-2005>
-424.564361572266

> <r_mmod_Solvation_Energy-OPLS-2005>
-214.363388061523

> <b_mmod_Minimization_Converged-OPLS-2005>
0

> <r_mmod_RMS_Derivative-OPLS-2005>
1.85505878925323

$$$$
60
                    3D
 Structure written by MMmdl.
163171  0  0  1  0            999 V2000
  -30.6888  -14.4162   20.5971 C   0  0  0  0  0  0
  -30.4319  -12.2781   19.4153 C   0  0  0  0  0  0
  -29.5056  -12.5109   18.2037 C   0  0  0  0  0  0
  -28.0188  -12.4003   18.6041 C   0  0  0  0  0  0
  -27.6711  -13.2003   19.8898 C   0  0  2  0  0  0
  -28.7071  -12.9171   21.0010 C   0  0  0  0  0  0
  -25.2613  -13.8144   20.5670 C   0  0  0  0  0  0
  -24.1855  -13.0448   20.9184 C   0  0  0  0  0  0
  -24.6397  -11.6900   20.8715 C   0  0  0  0  0  0
  -23.9055  -10.4305   21.0400 C   0  0  0  0  0  0
  -24.3611   -9.4224   21.9191 C   0  0  0  0  0  0
  -23.6296   -8.2249   22.0754 C   0  0  0  0  0  0
  -22.4273   -8.0285   21.3544 C   0  0  0  0  0  0
  -21.9906   -9.0262   20.4653 C   0  0  0  0  0  0
  -22.7223  -10.2147   20.3070 C   0  0  0  0  0  0
  -21.6854   -6.0741   22.5285 C   0  0  0  0  0  0
  -21.4010   -6.5644   23.8217 C   0  0  0  0  0  0
  -21.3665   -5.6787   24.9178 C   0  0  0  0  0  0
  -21.6056   -4.3054   24.7220 C   0  0  0  0  0  0
  -21.8822   -3.8154   23.4334 C   0  0  0  0  0  0
  -21.9186   -4.6970   22.3393 C   0  0  0  0  0  0
  -22.7878  -13.5257   21.1856 C   0  0  0  0  0  0
  -22.1666   -4.2161   21.0970 F   0  0  0  0  0  0
  -21.5626   -3.4534   25.7729 F   0  0  0  0  0  0
  -30.0470  -13.2276   20.4670 N   0  0  0  0  0  0
  -26.3062  -12.9309   20.3397 N   0  0  0  0  0  0
  -25.9322  -11.6469   20.5738 N   0  0  0  0  0  0
  -22.0492  -12.8264   22.0401 N   0  0  0  0  0  0
  -25.4339  -15.1870   20.4078 N   0  0  0  0  0  0
  -31.7847  -14.6616   20.0833 O   0  0  0  0  0  0
  -21.6643   -6.8883   21.4240 O   0  0  0  0  0  0
  -22.3581  -14.5585   20.6713 O   0  0  0  0  0  0
  -24.6129  -31.8673   23.2091 C   0  0  0  0  0  0
  -25.9017  -32.4820   23.8379 C   0  0  1  0  0  0
  -27.2452  -27.4546   20.0934 C   0  0  0  0  0  0
  -25.5850  -33.8616   24.2305 N   0  0  0  0  0  0
  -23.3998  -30.4886   21.5525 C   0  0  2  0  0  0
  -24.8449  -28.9449   20.1244 C   0  0  0  0  0  0
  -22.7385  -29.4658   22.5032 C   0  0  0  0  0  0
  -18.0256  -28.1381   22.8491 C   0  0  0  0  0  0
  -24.1479  -36.7324   23.2653 C   0  0  0  0  0  0
  -25.9256  -30.8370   21.3570 C   0  0  0  0  0  0
  -26.0038  -29.4720   20.7068 C   0  0  0  0  0  0
  -27.2072  -28.7362   20.6825 C   0  0  0  0  0  0
  -26.0688  -26.9299   19.5120 C   0  0  0  0  0  0
  -24.8685  -27.6698   19.5304 C   0  0  0  0  0  0
  -23.6066  -29.8108   20.1711 C   0  0  0  0  0  0
  -25.4099  -36.3112   24.0352 C   0  0  1  0  0  0
  -20.5850  -28.3665   23.1325 C   0  0  2  0  0  0
  -20.6743  -26.9403   22.5424 C   0  0  0  0  0  0
  -19.5727  -26.6389   21.5209 C   0  0  0  0  0  0
  -18.1909  -26.7932   22.1618 C   0  0  0  0  0  0
  -19.1513  -28.8839   23.2908 C   0  0  0  0  0  0
  -18.9444  -30.1441   23.8926 C   0  0  0  0  0  0
  -17.6453  -30.6591   24.0570 C   0  0  0  0  0  0
  -25.9018  -34.9477   23.5132 C   0  0  0  0  0  0
  -16.5342  -29.9107   23.6329 C   0  0  0  0  0  0
  -16.7249  -28.6512   23.0356 C   0  0  0  0  0  0
  -26.4441  -31.6613   25.0717 C   0  0  0  0  0  0
  -25.3721  -31.3715   26.1481 C   0  0  0  0  0  0
  -27.0290  -30.3063   24.6097 C   0  0  0  0  0  0
  -27.6007  -32.4360   25.7459 C   0  0  0  0  0  0
  -27.5586  -37.1813   24.8462 C   0  0  0  0  0  0
  -21.4118  -29.3032   22.3750 N   0  0  0  0  0  0
  -26.4289  -37.3790   23.9409 N   0  0  0  0  0  0
  -24.6649  -31.0792   22.0980 N   0  0  0  0  0  0
  -23.4156  -28.8212   23.3079 O   0  0  0  0  0  0
  -28.4381  -26.7674   20.0803 O   0  0  0  0  0  0
  -26.5613  -34.8937   22.4717 O   0  0  0  0  0  0
  -23.5326  -32.1416   23.7504 O   0  0  0  0  0  0
  -29.1578  -22.1747   23.5457 C   0  0  0  0  0  0
  -29.9795  -21.5629   22.6446 C   0  0  0  0  0  0
  -30.2326  -22.5187   21.6049 C   0  0  0  0  0  0
  -29.5999  -23.6926   21.9472 C   0  0  0  0  0  0
  -31.0687  -22.2918   20.3689 C   0  0  0  0  0  0
  -28.0885  -24.4106   23.8727 C   0  0  0  0  0  0
  -30.5063  -20.1482   22.7977 C   0  0  0  0  0  0
  -29.6089  -25.0517   21.2846 C   0  0  0  0  0  0
  -30.0305  -19.1726   21.7090 C   0  0  0  0  0  0
  -30.2955  -17.6907   22.0472 C   0  0  0  0  0  0
  -30.0031  -16.7936   20.8351 C   0  0  0  0  0  0
  -28.4016  -25.3695   20.3841 C   0  0  0  0  0  0
  -28.9165  -23.4679   23.1359 N   0  0  0  0  0  0
  -29.9469  -15.3723   21.1700 N   0  0  0  0  0  0
  -31.4771  -12.3876   19.1196 H   0  0  0  0  0  0
  -30.3349  -11.2546   19.7819 H   0  0  0  0  0  0
  -29.7339  -11.7892   17.4182 H   0  0  0  0  0  0
  -29.7005  -13.4959   17.7748 H   0  0  0  0  0  0
  -27.7895  -11.3439   18.7492 H   0  0  0  0  0  0
  -27.3915  -12.7377   17.7784 H   0  0  0  0  0  0
  -27.7341  -14.2597   19.6403 H   0  0  0  0  0  0
  -28.6658  -11.8655   21.2865 H   0  0  0  0  0  0
  -28.4703  -13.4671   21.9127 H   0  0  0  0  0  0
  -25.2748   -9.5706   22.4769 H   0  0  0  0  0  0
  -24.0012   -7.4639   22.7462 H   0  0  0  0  0  0
  -21.0840   -8.8782   19.8953 H   0  0  0  0  0  0
  -22.3680  -10.9692   19.6187 H   0  0  0  0  0  0
  -21.2008   -7.6153   23.9727 H   0  0  0  0  0  0
  -21.1489   -6.0516   25.9080 H   0  0  0  0  0  0
  -22.0596   -2.7615   23.2829 H   0  0  0  0  0  0
  -22.4070  -11.9914   22.4812 H   0  0  0  0  0  0
  -21.1118  -13.1337   22.2591 H   0  0  0  0  0  0
  -24.6675  -15.8426   20.5184 H   0  0  0  0  0  0
  -26.2865  -15.6249   20.0826 H   0  0  0  0  0  0
  -26.7090  -32.5532   23.1147 H   0  0  0  0  0  0
  -24.9916  -33.9755   25.0394 H   0  0  0  0  0  0
  -22.6884  -31.3061   21.4097 H   0  0  0  0  0  0
  -23.3730  -35.9665   23.3326 H   0  0  0  0  0  0
  -24.3577  -36.8930   22.2064 H   0  0  0  0  0  0
  -23.7241  -37.6540   23.6662 H   0  0  0  0  0  0
  -26.0393  -31.6017   20.5875 H   0  0  0  0  0  0
  -26.8131  -30.8886   21.9755 H   0  0  0  0  0  0
  -28.1062  -29.1489   21.1195 H   0  0  0  0  0  0
  -26.0800  -25.9588   19.0368 H   0  0  0  0  0  0
  -23.9735  -27.2521   19.0896 H   0  0  0  0  0  0
  -23.7175  -30.5808   19.4069 H   0  0  0  0  0  0
  -22.7288  -29.2310   19.8802 H   0  0  0  0  0  0
  -25.1283  -36.1980   25.0846 H   0  0  0  0  0  0
  -20.9921  -28.3221   24.1451 H   0  0  0  0  0  0
  -20.5610  -26.2280   23.3618 H   0  0  0  0  0  0
  -21.6622  -26.7432   22.1239 H   0  0  0  0  0  0
  -19.6886  -25.6296   21.1246 H   0  0  0  0  0  0
  -19.6676  -27.3194   20.6738 H   0  0  0  0  0  0
  -17.4177  -26.6685   21.4022 H   0  0  0  0  0  0
  -18.0305  -26.0073   22.9012 H   0  0  0  0  0  0
  -19.7930  -30.7239   24.2318 H   0  0  0  0  0  0
  -17.5021  -31.6279   24.5167 H   0  0  0  0  0  0
  -15.5346  -30.3024   23.7642 H   0  0  0  0  0  0
  -15.8646  -28.0843   22.7076 H   0  0  0  0  0  0
  -24.5854  -30.7108   25.7816 H   0  0  0  0  0  0
  -24.8954  -32.2875   26.4992 H   0  0  0  0  0  0
  -25.8079  -30.8825   27.0203 H   0  0  0  0  0  0
  -26.2822  -29.6805   24.1194 H   0  0  0  0  0  0
  -27.4113  -29.7337   25.4559 H   0  0  0  0  0  0
  -27.8635  -30.4414   23.9209 H   0  0  0  0  0  0
  -27.2607  -33.3664   26.2031 H   0  0  0  0  0  0
  -28.3786  -32.6938   25.0254 H   0  0  0  0  0  0
  -28.0706  -31.8501   26.5369 H   0  0  0  0  0  0
  -28.2610  -38.0103   24.7486 H   0  0  0  0  0  0
  -28.1072  -36.2635   24.6293 H   0  0  0  0  0  0
  -27.2318  -37.1480   25.8870 H   0  0  0  0  0  0
  -20.9295  -29.8737   21.6959 H   0  0  0  0  0  0
  -26.0190  -38.2881   24.1371 H   0  0  0  0  0  0
  -28.7320  -21.8012   24.4691 H   0  0  0  0  0  0
  -32.0389  -21.8667   20.6263 H   0  0  0  0  0  0
  -31.2429  -23.2215   19.8277 H   0  0  0  0  0  0
  -30.5648  -21.6034   19.6884 H   0  0  0  0  0  0
  -27.8857  -24.0338   24.8765 H   0  0  0  0  0  0
  -27.1378  -24.5464   23.3596 H   0  0  0  0  0  0
  -28.5896  -25.3714   23.9687 H   0  0  0  0  0  0
  -30.1782  -19.7755   23.7694 H   0  0  0  0  0  0
  -31.5961  -20.1733   22.8298 H   0  0  0  0  0  0
  -30.5195  -25.1725   20.6978 H   0  0  0  0  0  0
  -29.6823  -25.8203   22.0536 H   0  0  0  0  0  0
  -30.5034  -19.4279   20.7598 H   0  0  0  0  0  0
  -28.9569  -19.2988   21.5633 H   0  0  0  0  0  0
  -31.3304  -17.5445   22.3634 H   0  0  0  0  0  0
  -29.6670  -17.3954   22.8891 H   0  0  0  0  0  0
  -30.7327  -16.9851   20.0452 H   0  0  0  0  0  0
  -29.0320  -17.0562   20.4104 H   0  0  0  0  0  0
  -27.4825  -25.0929   20.9023 H   0  0  0  0  0  0
  -28.4554  -24.7844   19.4649 H   0  0  0  0  0  0
  -29.0963  -15.0500   21.6081 H   0  0  0  0  0  0
  1 25  1  0  0  0
  1 30  2  0  0  0
  1 84  1  0  0  0
  2  3  1  0  0  0
  2 25  1  0  0  0
  2 85  1  0  0  0
  2 86  1  0  0  0
  3  4  1  0  0  0
  3 87  1  0  0  0
  3 88  1  0  0  0
  4  5  1  0  0  0
  4 89  1  0  0  0
  4 90  1  0  0  0
  5  6  1  0  0  0
  5 26  1  0  0  0
  5 91  1  0  0  0
  6 25  1  0  0  0
  6 92  1  0  0  0
  6 93  1  0  0  0
  7  8  2  0  0  0
  7 26  1  0  0  0
  7 29  1  0  0  0
  8  9  1  0  0  0
  8 22  1  0  0  0
  9 10  1  0  0  0
  9 27  2  0  0  0
 10 11  2  0  0  0
 10 15  1  0  0  0
 11 12  1  0  0  0
 11 94  1  0  0  0
 12 13  2  0  0  0
 12 95  1  0  0  0
 13 14  1  0  0  0
 13 31  1  0  0  0
 14 15  2  0  0  0
 14 96  1  0  0  0
 15 97  1  0  0  0
 16 17  2  0  0  0
 16 21  1  0  0  0
 16 31  1  0  0  0
 17 18  1  0  0  0
 17 98  1  0  0  0
 18 19  2  0  0  0
 18 99  1  0  0  0
 19 20  1  0  0  0
 19 24  1  0  0  0
 20 21  2  0  0  0
 20100  1  0  0  0
 21 23  1  0  0  0
 22 28  1  0  0  0
 22 32  2  0  0  0
 26 27  1  0  0  0
 28101  1  0  0  0
 28102  1  0  0  0
 29103  1  0  0  0
 29104  1  0  0  0
 33 34  1  0  0  0
 33 66  1  0  0  0
 33 70  2  0  0  0
 34 36  1  0  0  0
 34 59  1  0  0  0
 34105  1  0  0  0
 35 44  2  0  0  0
 35 45  1  0  0  0
 35 68  1  0  0  0
 36 56  1  0  0  0
 36106  1  0  0  0
 37 39  1  0  0  0
 37 47  1  0  0  0
 37 66  1  0  0  0
 37107  1  0  0  0
 38 43  2  0  0  0
 38 46  1  0  0  0
 38 47  1  0  0  0
 39 64  1  0  0  0
 39 67  2  0  0  0
 40 52  1  0  0  0
 40 53  2  0  0  0
 40 58  1  0  0  0
 41108  1  0  0  0
 41109  1  0  0  0
 41110  1  0  0  0
 41 48  1  0  0  0
 42 43  1  0  0  0
 42 66  1  0  0  0
 42111  1  0  0  0
 42112  1  0  0  0
 43 44  1  0  0  0
 44113  1  0  0  0
 45 46  2  0  0  0
 45114  1  0  0  0
 46115  1  0  0  0
 47116  1  0  0  0
 47117  1  0  0  0
 48 56  1  0  0  0
 48 65  1  0  0  0
 48118  1  0  0  0
 49 50  1  0  0  0
 49 53  1  0  0  0
 49 64  1  0  0  0
 49119  1  0  0  0
 50 51  1  0  0  0
 50120  1  0  0  0
 50121  1  0  0  0
 51 52  1  0  0  0
 51122  1  0  0  0
 51123  1  0  0  0
 52124  1  0  0  0
 52125  1  0  0  0
 53 54  1  0  0  0
 54 55  2  0  0  0
 54126  1  0  0  0
 55 57  1  0  0  0
 55127  1  0  0  0
 56 69  2  0  0  0
 57 58  2  0  0  0
 57128  1  0  0  0
 58129  1  0  0  0
 59 60  1  0  0  0
 59 61  1  0  0  0
 59 62  1  0  0  0
 60130  1  0  0  0
 60131  1  0  0  0
 60132  1  0  0  0
 61133  1  0  0  0
 61134  1  0  0  0
 61135  1  0  0  0
 62136  1  0  0  0
 62137  1  0  0  0
 62138  1  0  0  0
 63 65  1  0  0  0
 63139  1  0  0  0
 63140  1  0  0  0
 63141  1  0  0  0
 64142  1  0  0  0
 65143  1  0  0  0
 68 82  1  0  0  0
 71 72  2  0  0  0
 71 83  1  0  0  0
 71144  1  0  0  0
 72 73  1  0  0  0
 72 77  1  0  0  0
 73 74  2  0  0  0
 73 75  1  0  0  0
 74 78  1  0  0  0
 74 83  1  0  0  0
 75145  1  0  0  0
 75146  1  0  0  0
 75147  1  0  0  0
 76 83  1  0  0  0
 76148  1  0  0  0
 76149  1  0  0  0
 76150  1  0  0  0
 77 79  1  0  0  0
 77151  1  0  0  0
 77152  1  0  0  0
 78 82  1  0  0  0
 78153  1  0  0  0
 78154  1  0  0  0
 79 80  1  0  0  0
 79155  1  0  0  0
 79156  1  0  0  0
 80 81  1  0  0  0
 80157  1  0  0  0
 80158  1  0  0  0
 81 84  1  0  0  0
 81159  1  0  0  0
 81160  1  0  0  0
 82161  1  0  0  0
 82162  1  0  0  0
 84163  1  0  0  0
M  ISO  4   1 100  68 101  82 101  84 100
M  END
> <chiral flag>
0

> <version>
0

> <s_m_source_file>
/data/baiqing/PycharmProjects/Reinvent-master-3.2/result/LINK_invent/BTK/process_docking_weight1_custom_sum_contain_oxygen_bond_distance_aromatic_linkinvent_7_9_3/rearranged_h_0040.sdf

> <i_m_source_file_index>
61

> <r_mmod_Potential_Energy-OPLS-2005>
-125.482803344727

> <r_mmod_Stretch_Energy-OPLS-2005>
32.2158737182617

> <r_mmod_Bend_Energy-OPLS-2005>
95.470329284668

> <r_mmod_Torsional_Energy-OPLS-2005>
220.230117797852

> <r_mmod_Improper_Torsional_Energy-OPLS-2005>
5.67453956604004

> <r_mmod_Van_der_Waal_Energy-OPLS-2005>
125.918586730957

> <r_mmod_Electrostatic_Energy-OPLS-2005>
-402.87890625

> <r_mmod_Solvation_Energy-OPLS-2005>
-211.255172729492

> <b_mmod_Minimization_Converged-OPLS-2005>
0

> <r_mmod_RMS_Derivative-OPLS-2005>
2.93277335166931

$$$$
61
                    3D
 Structure written by MMmdl.
151159  0  0  1  0            999 V2000
  -30.4084  -15.1859   20.3603 C   0  0  0  0  0  0
  -30.4539  -12.7499   19.5118 C   0  0  0  0  0  0
  -29.5490  -12.6090   18.2646 C   0  0  0  0  0  0
  -28.0825  -12.3568   18.6614 C   0  0  0  0  0  0
  -27.6246  -13.2754   19.8223 C   0  0  2  0  0  0
  -28.6573  -13.3799   20.9577 C   0  0  0  0  0  0
  -25.2493  -13.8209   20.5712 C   0  0  0  0  0  0
  -24.1812  -13.0412   20.9168 C   0  0  0  0  0  0
  -24.6467  -11.6923   20.8671 C   0  0  0  0  0  0
  -23.9142  -10.4261   21.0320 C   0  0  0  0  0  0
  -24.3703   -9.4203   21.9119 C   0  0  0  0  0  0
  -23.6364   -8.2251   22.0747 C   0  0  0  0  0  0
  -22.4323   -8.0300   21.3575 C   0  0  0  0  0  0
  -21.9957   -9.0230   20.4627 C   0  0  0  0  0  0
  -22.7288  -10.2098   20.3010 C   0  0  0  0  0  0
  -21.6878   -6.0744   22.5276 C   0  0  0  0  0  0
  -21.3996   -6.5629   23.8186 C   0  0  0  0  0  0
  -21.3670   -5.6803   24.9149 C   0  0  0  0  0  0
  -21.6088   -4.3088   24.7207 C   0  0  0  0  0  0
  -21.8819   -3.8162   23.4323 C   0  0  0  0  0  0
  -21.9200   -4.6972   22.3393 C   0  0  0  0  0  0
  -22.7842  -13.5143   21.1867 C   0  0  0  0  0  0
  -22.1704   -4.2175   21.0975 F   0  0  0  0  0  0
  -21.5636   -3.4552   25.7702 F   0  0  0  0  0  0
  -29.9109  -13.8604   20.3626 N   0  0  0  0  0  0
  -26.2900  -12.9497   20.3149 N   0  0  0  0  0  0
  -25.9399  -11.6587   20.5596 N   0  0  0  0  0  0
  -22.0579  -12.8093   22.0443 N   0  0  0  0  0  0
  -25.4220  -15.1923   20.4180 N   0  0  0  0  0  0
  -31.6277  -15.2496   20.1448 O   0  0  0  0  0  0
  -21.6730   -6.8898   21.4253 O   0  0  0  0  0  0
  -22.3485  -14.5429   20.6728 O   0  0  0  0  0  0
  -24.6651  -31.8296   23.1705 C   0  0  0  0  0  0
  -25.9368  -32.4607   23.8138 C   0  0  1  0  0  0
  -27.1915  -26.9798   20.1347 C   0  0  0  0  0  0
  -25.6026  -33.8433   24.2054 N   0  0  0  0  0  0
  -23.4679  -30.4474   21.5267 C   0  0  2  0  0  0
  -24.9058  -28.8471   20.0989 C   0  0  0  0  0  0
  -22.7628  -29.4533   22.4834 C   0  0  0  0  0  0
  -18.0293  -28.1440   22.8441 C   0  0  0  0  0  0
  -24.1482  -36.7227   23.2637 C   0  0  0  0  0  0
  -26.0364  -30.6446   21.3891 C   0  0  0  0  0  0
  -26.0938  -29.2446   20.7258 C   0  0  0  0  0  0
  -27.2370  -28.3327   20.7169 C   0  0  0  0  0  0
  -25.9788  -26.7263   19.4590 C   0  0  0  0  0  0
  -24.8746  -27.6080   19.4417 C   0  0  0  0  0  0
  -23.6913  -29.7733   20.1461 C   0  0  0  0  0  0
  -25.4132  -36.3000   24.0273 C   0  0  1  0  0  0
  -20.5909  -28.3820   23.1179 C   0  0  2  0  0  0
  -20.6790  -26.9513   22.5413 C   0  0  0  0  0  0
  -19.5775  -26.6406   21.5225 C   0  0  0  0  0  0
  -18.1940  -26.7961   22.1600 C   0  0  0  0  0  0
  -19.1551  -28.8943   23.2789 C   0  0  0  0  0  0
  -18.9475  -30.1506   23.8868 C   0  0  0  0  0  0
  -17.6485  -30.6628   24.0571 C   0  0  0  0  0  0
  -25.9125  -34.9383   23.4986 C   0  0  0  0  0  0
  -16.5370  -29.9126   23.6349 C   0  0  0  0  0  0
  -16.7271  -28.6541   23.0375 C   0  0  0  0  0  0
  -26.4564  -31.6537   25.0666 C   0  0  0  0  0  0
  -25.3676  -31.3823   26.1305 C   0  0  0  0  0  0
  -27.0425  -30.2880   24.6418 C   0  0  0  0  0  0
  -27.6044  -32.4344   25.7511 C   0  0  0  0  0  0
  -27.5574  -37.1782   24.8453 C   0  0  0  0  0  0
  -21.4303  -29.3089   22.3529 N   0  0  0  0  0  0
  -26.4293  -37.3741   23.9397 N   0  0  0  0  0  0
  -24.7456  -31.0007   22.0818 N   0  0  0  0  0  0
  -23.4181  -28.8128   23.3101 O   0  0  0  0  0  0
  -28.1845  -25.8864   20.1904 O   0  0  0  0  0  0
  -26.5757  -34.8931   22.4595 O   0  0  0  0  0  0
  -23.5741  -32.1277   23.6826 O   0  0  0  0  0  0
  -27.3411  -18.9759   20.0549 C   0  0  0  0  0  0
  -28.5956  -19.6303   20.1875 C   0  0  0  0  0  0
  -28.2032  -21.0993   20.1033 C   0  0  0  0  0  0
  -25.8249  -21.9914   19.4316 C   0  0  0  0  0  0
  -29.7781  -18.3865   20.3638 C   0  0  0  0  0  0
  -28.7102  -22.7510   20.2351 C   0  0  0  0  0  0
  -29.4583  -16.6367   20.4006 C   0  0  0  0  0  0
  -27.8486  -24.3033   19.9926 C   0  0  0  0  0  0
  -26.3356  -19.7533   19.7881 N   0  0  0  0  0  0
  -26.8301  -20.9934   19.7788 N   0  0  0  0  0  0
  -31.4787  -12.9556   19.1932 H   0  0  0  0  0  0
  -30.5038  -11.8128   20.0675 H   0  0  0  0  0  0
  -29.9078  -11.8170   17.6053 H   0  0  0  0  0  0
  -29.6128  -13.5316   17.6837 H   0  0  0  0  0  0
  -27.9856  -11.3091   18.9451 H   0  0  0  0  0  0
  -27.4396  -12.5064   17.7928 H   0  0  0  0  0  0
  -27.5551  -14.2675   19.3737 H   0  0  0  0  0  0
  -28.8026  -12.4300   21.4738 H   0  0  0  0  0  0
  -28.3128  -14.0957   21.7062 H   0  0  0  0  0  0
  -25.2856   -9.5699   22.4685 H   0  0  0  0  0  0
  -24.0104   -7.4646   22.7448 H   0  0  0  0  0  0
  -21.0932   -8.8671   19.8906 H   0  0  0  0  0  0
  -22.3729  -10.9613   19.6112 H   0  0  0  0  0  0
  -21.1988   -7.6129   23.9671 H   0  0  0  0  0  0
  -21.1513   -6.0545   25.9049 H   0  0  0  0  0  0
  -22.0605   -2.7615   23.2796 H   0  0  0  0  0  0
  -22.4289  -11.9810   22.4868 H   0  0  0  0  0  0
  -21.1113  -13.0973   22.2487 H   0  0  0  0  0  0
  -24.6633  -15.8585   20.5118 H   0  0  0  0  0  0
  -26.2822  -15.6140   20.0878 H   0  0  0  0  0  0
  -26.7454  -32.5121   23.0868 H   0  0  0  0  0  0
  -25.0071  -33.9509   25.0130 H   0  0  0  0  0  0
  -22.7831  -31.2830   21.3705 H   0  0  0  0  0  0
  -23.3765  -35.9547   23.3269 H   0  0  0  0  0  0
  -24.3545  -36.8928   22.2063 H   0  0  0  0  0  0
  -23.7224  -37.6393   23.6728 H   0  0  0  0  0  0
  -26.2239  -31.3875   20.6127 H   0  0  0  0  0  0
  -26.8974  -30.6845   22.0445 H   0  0  0  0  0  0
  -28.1428  -28.6411   21.2157 H   0  0  0  0  0  0
  -25.8483  -25.7882   18.9389 H   0  0  0  0  0  0
  -23.9832  -27.3039   18.9106 H   0  0  0  0  0  0
  -23.8264  -30.5515   19.3927 H   0  0  0  0  0  0
  -22.7940  -29.2302   19.8394 H   0  0  0  0  0  0
  -25.1344  -36.1787   25.0762 H   0  0  0  0  0  0
  -20.9966  -28.3447   24.1324 H   0  0  0  0  0  0
  -20.5703  -26.2468   23.3665 H   0  0  0  0  0  0
  -21.6661  -26.7526   22.1211 H   0  0  0  0  0  0
  -19.6973  -25.6295   21.1315 H   0  0  0  0  0  0
  -19.6707  -27.3177   20.6709 H   0  0  0  0  0  0
  -17.4215  -26.6670   21.4004 H   0  0  0  0  0  0
  -18.0343  -26.0135   22.9029 H   0  0  0  0  0  0
  -19.7947  -30.7299   24.2253 H   0  0  0  0  0  0
  -17.5052  -31.6312   24.5174 H   0  0  0  0  0  0
  -15.5390  -30.3068   23.7694 H   0  0  0  0  0  0
  -15.8634  -28.0876   22.7167 H   0  0  0  0  0  0
  -24.5847  -30.7196   25.7582 H   0  0  0  0  0  0
  -24.8887  -32.3057   26.4588 H   0  0  0  0  0  0
  -25.7868  -30.9048   27.0171 H   0  0  0  0  0  0
  -26.3055  -29.6572   24.1423 H   0  0  0  0  0  0
  -27.3908  -29.7238   25.5084 H   0  0  0  0  0  0
  -27.9042  -30.3992   23.9832 H   0  0  0  0  0  0
  -27.2570  -33.3670   26.1975 H   0  0  0  0  0  0
  -28.3938  -32.6867   25.0419 H   0  0  0  0  0  0
  -28.0620  -31.8546   26.5546 H   0  0  0  0  0  0
  -28.2568  -38.0103   24.7540 H   0  0  0  0  0  0
  -28.1094  -36.2637   24.6230 H   0  0  0  0  0  0
  -27.2296  -37.1367   25.8859 H   0  0  0  0  0  0
  -20.9586  -29.8752   21.6604 H   0  0  0  0  0  0
  -26.0115  -38.2803   24.1418 H   0  0  0  0  0  0
  -27.1307  -17.9183   20.1148 H   0  0  0  0  0  0
  -26.1118  -22.5331   18.5345 H   0  0  0  0  0  0
  -25.6377  -22.6657   20.2625 H   0  0  0  0  0  0
  -24.8690  -21.5122   19.2134 H   0  0  0  0  0  0
  -30.3477  -18.5944   21.2732 H   0  0  0  0  0  0
  -30.5183  -18.5219   19.5783 H   0  0  0  0  0  0
  -29.6163  -22.8343   19.6376 H   0  0  0  0  0  0
  -29.0711  -22.8425   21.2560 H   0  0  0  0  0  0
  -28.8367  -16.4816   19.5173 H   0  0  0  0  0  0
  -28.7839  -16.4814   21.2425 H   0  0  0  0  0  0
  -26.9627  -24.2204   20.6151 H   0  0  0  0  0  0
  -27.4870  -24.2646   18.9631 H   0  0  0  0  0  0
  1 25  1  0  0  0
  1 30  2  0  0  0
  1 77  1  0  0  0
  2  3  1  0  0  0
  2 25  1  0  0  0
  2 81  1  0  0  0
  2 82  1  0  0  0
  3  4  1  0  0  0
  3 83  1  0  0  0
  3 84  1  0  0  0
  4  5  1  0  0  0
  4 85  1  0  0  0
  4 86  1  0  0  0
  5  6  1  0  0  0
  5 26  1  0  0  0
  5 87  1  0  0  0
  6 25  1  0  0  0
  6 88  1  0  0  0
  6 89  1  0  0  0
  7  8  2  0  0  0
  7 26  1  0  0  0
  7 29  1  0  0  0
  8  9  1  0  0  0
  8 22  1  0  0  0
  9 10  1  0  0  0
  9 27  2  0  0  0
 10 11  2  0  0  0
 10 15  1  0  0  0
 11 12  1  0  0  0
 11 90  1  0  0  0
 12 13  2  0  0  0
 12 91  1  0  0  0
 13 14  1  0  0  0
 13 31  1  0  0  0
 14 15  2  0  0  0
 14 92  1  0  0  0
 15 93  1  0  0  0
 16 17  2  0  0  0
 16 21  1  0  0  0
 16 31  1  0  0  0
 17 18  1  0  0  0
 17 94  1  0  0  0
 18 19  2  0  0  0
 18 95  1  0  0  0
 19 20  1  0  0  0
 19 24  1  0  0  0
 20 21  2  0  0  0
 20 96  1  0  0  0
 21 23  1  0  0  0
 22 28  1  0  0  0
 22 32  2  0  0  0
 26 27  1  0  0  0
 28 97  1  0  0  0
 28 98  1  0  0  0
 29 99  1  0  0  0
 29100  1  0  0  0
 33 34  1  0  0  0
 33 66  1  0  0  0
 33 70  2  0  0  0
 34 36  1  0  0  0
 34 59  1  0  0  0
 34101  1  0  0  0
 35 44  2  0  0  0
 35 45  1  0  0  0
 35 68  1  0  0  0
 36 56  1  0  0  0
 36102  1  0  0  0
 37 39  1  0  0  0
 37 47  1  0  0  0
 37 66  1  0  0  0
 37103  1  0  0  0
 38 43  2  0  0  0
 38 46  1  0  0  0
 38 47  1  0  0  0
 39 64  1  0  0  0
 39 67  2  0  0  0
 40 52  1  0  0  0
 40 53  2  0  0  0
 40 58  1  0  0  0
 41104  1  0  0  0
 41105  1  0  0  0
 41106  1  0  0  0
 41 48  1  0  0  0
 42 43  1  0  0  0
 42 66  1  0  0  0
 42107  1  0  0  0
 42108  1  0  0  0
 43 44  1  0  0  0
 44109  1  0  0  0
 45 46  2  0  0  0
 45110  1  0  0  0
 46111  1  0  0  0
 47112  1  0  0  0
 47113  1  0  0  0
 48 56  1  0  0  0
 48 65  1  0  0  0
 48114  1  0  0  0
 49 50  1  0  0  0
 49 53  1  0  0  0
 49 64  1  0  0  0
 49115  1  0  0  0
 50 51  1  0  0  0
 50116  1  0  0  0
 50117  1  0  0  0
 51 52  1  0  0  0
 51118  1  0  0  0
 51119  1  0  0  0
 52120  1  0  0  0
 52121  1  0  0  0
 53 54  1  0  0  0
 54 55  2  0  0  0
 54122  1  0  0  0
 55 57  1  0  0  0
 55123  1  0  0  0
 56 69  2  0  0  0
 57 58  2  0  0  0
 57124  1  0  0  0
 58125  1  0  0  0
 59 60  1  0  0  0
 59 61  1  0  0  0
 59 62  1  0  0  0
 60126  1  0  0  0
 60127  1  0  0  0
 60128  1  0  0  0
 61129  1  0  0  0
 61130  1  0  0  0
 61131  1  0  0  0
 62132  1  0  0  0
 62133  1  0  0  0
 62134  1  0  0  0
 63 65  1  0  0  0
 63135  1  0  0  0
 63136  1  0  0  0
 63137  1  0  0  0
 64138  1  0  0  0
 65139  1  0  0  0
 68 78  1  0  0  0
 71 72  1  0  0  0
 71 79  2  0  0  0
 71140  1  0  0  0
 72 73  2  0  0  0
 72 75  1  0  0  0
 73 76  1  0  0  0
 73 80  1  0  0  0
 74 80  1  0  0  0
 74141  1  0  0  0
 74142  1  0  0  0
 74143  1  0  0  0
 75 77  1  0  0  0
 75144  1  0  0  0
 75145  1  0  0  0
 76 78  1  0  0  0
 76146  1  0  0  0
 76147  1  0  0  0
 77148  1  0  0  0
 77149  1  0  0  0
 78150  1  0  0  0
 78151  1  0  0  0
 79 80  1  0  0  0
M  ISO  4   1 100  68 101  77 100  78 101
M  END
> <chiral flag>
0

> <version>
0

> <s_m_source_file>
/data/baiqing/PycharmProjects/Reinvent-master-3.2/result/LINK_invent/BTK/process_docking_weight1_custom_sum_contain_oxygen_bond_distance_aromatic_linkinvent_7_9_3/rearranged_h_0040.sdf

> <i_m_source_file_index>
62

> <r_mmod_Potential_Energy-OPLS-2005>
1151.486328125

> <r_mmod_Stretch_Energy-OPLS-2005>
559.413635253906

> <r_mmod_Bend_Energy-OPLS-2005>
431.895080566406

> <r_mmod_Torsional_Energy-OPLS-2005>
194.067367553711

> <r_mmod_Improper_Torsional_Energy-OPLS-2005>
4.28449058532715

> <r_mmod_Van_der_Waal_Energy-OPLS-2005>
114.817749023438

> <r_mmod_Electrostatic_Energy-OPLS-2005>
-323.629241943359

> <r_mmod_Solvation_Energy-OPLS-2005>
-215.412109375

> <b_mmod_Minimization_Converged-OPLS-2005>
0

> <r_mmod_RMS_Derivative-OPLS-2005>
6.04130411148071

$$$$
62
                    3D
 Structure written by MMmdl.
171179  0  0  1  0            999 V2000
  -30.6774  -14.5053   20.5361 C   0  0  0  0  0  0
  -30.4278  -12.3125   19.4395 C   0  0  0  0  0  0
  -29.5012  -12.4957   18.2178 C   0  0  0  0  0  0
  -28.0228  -12.3518   18.6292 C   0  0  0  0  0  0
  -27.6624  -13.2045   19.8754 C   0  0  2  0  0  0
  -28.7035  -13.0054   21.0027 C   0  0  0  0  0  0
  -25.2600  -13.8157   20.5684 C   0  0  0  0  0  0
  -24.1843  -13.0438   20.9183 C   0  0  0  0  0  0
  -24.6389  -11.6905   20.8738 C   0  0  0  0  0  0
  -23.9056  -10.4294   21.0409 C   0  0  0  0  0  0
  -24.3608   -9.4212   21.9187 C   0  0  0  0  0  0
  -23.6287   -8.2247   22.0756 C   0  0  0  0  0  0
  -22.4269   -8.0285   21.3546 C   0  0  0  0  0  0
  -21.9902   -9.0258   20.4649 C   0  0  0  0  0  0
  -22.7229  -10.2139   20.3059 C   0  0  0  0  0  0
  -21.6854   -6.0736   22.5282 C   0  0  0  0  0  0
  -21.4012   -6.5638   23.8216 C   0  0  0  0  0  0
  -21.3657   -5.6792   24.9176 C   0  0  0  0  0  0
  -21.6044   -4.3055   24.7227 C   0  0  0  0  0  0
  -21.8820   -3.8146   23.4347 C   0  0  0  0  0  0
  -21.9192   -4.6964   22.3404 C   0  0  0  0  0  0
  -22.7871  -13.5251   21.1842 C   0  0  0  0  0  0
  -22.1663   -4.2149   21.0984 F   0  0  0  0  0  0
  -21.5627   -3.4538   25.7738 F   0  0  0  0  0  0
  -30.0350  -13.3075   20.4512 N   0  0  0  0  0  0
  -26.3029  -12.9316   20.3371 N   0  0  0  0  0  0
  -25.9317  -11.6480   20.5776 N   0  0  0  0  0  0
  -22.0501  -12.8251   22.0399 N   0  0  0  0  0  0
  -25.4326  -15.1873   20.4089 N   0  0  0  0  0  0
  -31.8138  -14.6874   20.0910 O   0  0  0  0  0  0
  -21.6637   -6.8878   21.4241 O   0  0  0  0  0  0
  -22.3564  -14.5557   20.6692 O   0  0  0  0  0  0
  -24.6169  -31.8672   23.2095 C   0  0  0  0  0  0
  -25.9061  -32.4821   23.8390 C   0  0  1  0  0  0
  -27.2296  -27.4120   20.0999 C   0  0  0  0  0  0
  -25.5908  -33.8618   24.2323 N   0  0  0  0  0  0
  -23.4050  -30.4917   21.5513 C   0  0  2  0  0  0
  -24.8512  -28.9618   20.1099 C   0  0  0  0  0  0
  -22.7420  -29.4655   22.4987 C   0  0  0  0  0  0
  -18.0278  -28.1361   22.8481 C   0  0  0  0  0  0
  -24.1493  -36.7310   23.2635 C   0  0  0  0  0  0
  -25.9367  -30.8271   21.3670 C   0  0  0  0  0  0
  -26.0140  -29.4624   20.7085 C   0  0  0  0  0  0
  -27.2063  -28.6967   20.6980 C   0  0  0  0  0  0
  -26.0474  -26.9453   19.4755 C   0  0  0  0  0  0
  -24.8641  -27.7036   19.4888 C   0  0  0  0  0  0
  -23.6127  -29.8275   20.1650 C   0  0  0  0  0  0
  -25.4114  -36.3109   24.0334 C   0  0  1  0  0  0
  -20.5866  -28.3659   23.1299 C   0  0  2  0  0  0
  -20.6773  -26.9392   22.5405 C   0  0  0  0  0  0
  -19.5756  -26.6368   21.5198 C   0  0  0  0  0  0
  -18.1932  -26.7905   22.1608 C   0  0  0  0  0  0
  -19.1524  -28.8822   23.2891 C   0  0  0  0  0  0
  -18.9453  -30.1425   23.8902 C   0  0  0  0  0  0
  -17.6457  -30.6571   24.0545 C   0  0  0  0  0  0
  -25.9037  -34.9475   23.5123 C   0  0  0  0  0  0
  -16.5349  -29.9066   23.6318 C   0  0  0  0  0  0
  -16.7265  -28.6481   23.0343 C   0  0  0  0  0  0
  -26.4479  -31.6605   25.0727 C   0  0  0  0  0  0
  -25.3735  -31.3718   26.1474 C   0  0  0  0  0  0
  -27.0325  -30.3045   24.6128 C   0  0  0  0  0  0
  -27.6052  -32.4329   25.7489 C   0  0  0  0  0  0
  -27.5589  -37.1811   24.8462 C   0  0  0  0  0  0
  -21.4145  -29.3033   22.3717 N   0  0  0  0  0  0
  -26.4303  -37.3790   23.9402 N   0  0  0  0  0  0
  -24.6710  -31.0756   22.1009 N   0  0  0  0  0  0
  -23.4186  -28.8186   23.3023 O   0  0  0  0  0  0
  -28.3785  -26.6336   20.1538 O   0  0  0  0  0  0
  -26.5594  -34.8924   22.4681 O   0  0  0  0  0  0
  -23.5356  -32.1425   23.7485 O   0  0  0  0  0  0
  -29.9098  -21.8560   20.8570 C   0  0  0  0  0  0
  -28.3036  -20.1167   21.4427 C   0  0  0  0  0  0
  -27.6494  -22.4686   21.4990 C   0  0  0  0  0  0
  -29.6145  -20.4786   21.0631 C   0  0  0  0  0  0
  -28.9324  -22.8666   21.0647 C   0  0  0  0  0  0
  -27.3223  -21.1065   21.6660 C   0  0  0  0  0  0
  -26.5622  -20.5822   24.5892 C   0  0  0  0  0  0
  -25.0461  -20.7933   19.6555 C   0  0  0  0  0  0
  -30.7185  -19.4219   20.8695 C   0  0  0  0  0  0
  -29.2599  -24.3670   20.8881 C   0  0  0  0  0  0
  -25.5963  -21.1494   23.5386 C   0  0  0  0  0  0
  -24.8301  -21.2219   21.1150 C   0  0  0  0  0  0
  -30.5079  -17.9822   21.4493 C   0  0  0  0  0  0
  -30.0227  -16.9337   20.4146 C   0  0  0  0  0  0
  -28.1846  -25.1973   20.1277 C   0  0  0  0  0  0
  -25.9108  -20.7085   22.0936 C   0  0  0  0  0  0
  -29.9037  -15.5454   20.9141 N   0  0  0  0  0  0
  -31.4733  -12.4107   19.1411 H   0  0  0  0  0  0
  -30.3294  -11.3055   19.8484 H   0  0  0  0  0  0
  -29.7465  -11.7637   17.4473 H   0  0  0  0  0  0
  -29.6656  -13.4775   17.7709 H   0  0  0  0  0  0
  -27.8422  -11.2970   18.8409 H   0  0  0  0  0  0
  -27.3704  -12.6087   17.7940 H   0  0  0  0  0  0
  -27.7005  -14.2478   19.5613 H   0  0  0  0  0  0
  -28.6819  -11.9763   21.3637 H   0  0  0  0  0  0
  -28.4667  -13.6248   21.8689 H   0  0  0  0  0  0
  -25.2749   -9.5691   22.4764 H   0  0  0  0  0  0
  -23.9996   -7.4638   22.7476 H   0  0  0  0  0  0
  -21.0833   -8.8778   19.8957 H   0  0  0  0  0  0
  -22.3685  -10.9679   19.6173 H   0  0  0  0  0  0
  -21.2005   -7.6146   23.9719 H   0  0  0  0  0  0
  -21.1478   -6.0520   25.9080 H   0  0  0  0  0  0
  -22.0599   -2.7609   23.2849 H   0  0  0  0  0  0
  -22.4093  -11.9903   22.4784 H   0  0  0  0  0  0
  -21.1131  -13.1305   22.2606 H   0  0  0  0  0  0
  -24.6642  -15.8414   20.5104 H   0  0  0  0  0  0
  -26.2852  -15.6262   20.0850 H   0  0  0  0  0  0
  -26.7129  -32.5524   23.1144 H   0  0  0  0  0  0
  -25.0078  -33.9761   25.0488 H   0  0  0  0  0  0
  -22.6949  -31.3097   21.4142 H   0  0  0  0  0  0
  -23.3756  -35.9644   23.3305 H   0  0  0  0  0  0
  -24.3586  -36.8914   22.2047 H   0  0  0  0  0  0
  -23.7252  -37.6517   23.6647 H   0  0  0  0  0  0
  -26.0557  -31.5978   20.6041 H   0  0  0  0  0  0
  -26.8206  -30.8738   21.9906 H   0  0  0  0  0  0
  -28.0999  -29.0771   21.1732 H   0  0  0  0  0  0
  -26.0163  -25.9865   18.9785 H   0  0  0  0  0  0
  -23.9721  -27.3137   19.0181 H   0  0  0  0  0  0
  -23.7169  -30.6029   19.4054 H   0  0  0  0  0  0
  -22.7369  -29.2458   19.8715 H   0  0  0  0  0  0
  -25.1297  -36.1970   25.0829 H   0  0  0  0  0  0
  -20.9958  -28.3231   24.1419 H   0  0  0  0  0  0
  -20.5666  -26.2266   23.3590 H   0  0  0  0  0  0
  -21.6648  -26.7429   22.1203 H   0  0  0  0  0  0
  -19.6914  -25.6277   21.1227 H   0  0  0  0  0  0
  -19.6696  -27.3177   20.6726 H   0  0  0  0  0  0
  -17.4202  -26.6639   21.4015 H   0  0  0  0  0  0
  -18.0343  -26.0040   22.8997 H   0  0  0  0  0  0
  -19.7933  -30.7233   24.2282 H   0  0  0  0  0  0
  -17.5015  -31.6252   24.5146 H   0  0  0  0  0  0
  -15.5347  -30.2966   23.7644 H   0  0  0  0  0  0
  -15.8665  -28.0800   22.7056 H   0  0  0  0  0  0
  -24.5899  -30.7071   25.7812 H   0  0  0  0  0  0
  -24.8929  -32.2876   26.4931 H   0  0  0  0  0  0
  -25.8079  -30.8882   27.0233 H   0  0  0  0  0  0
  -26.2884  -29.6792   24.1175 H   0  0  0  0  0  0
  -27.4078  -29.7303   25.4610 H   0  0  0  0  0  0
  -27.8729  -30.4359   23.9302 H   0  0  0  0  0  0
  -27.2673  -33.3623   26.2089 H   0  0  0  0  0  0
  -28.3853  -32.6899   25.0309 H   0  0  0  0  0  0
  -28.0732  -31.8436   26.5384 H   0  0  0  0  0  0
  -28.2614  -38.0104   24.7519 H   0  0  0  0  0  0
  -28.1082  -36.2637   24.6292 H   0  0  0  0  0  0
  -27.2298  -37.1463   25.8861 H   0  0  0  0  0  0
  -20.9303  -29.8760   21.6945 H   0  0  0  0  0  0
  -26.0196  -38.2872   24.1394 H   0  0  0  0  0  0
  -30.9075  -22.1411   20.5498 H   0  0  0  0  0  0
  -28.0427  -19.0775   21.5802 H   0  0  0  0  0  0
  -26.8911  -23.2066   21.7124 H   0  0  0  0  0  0
  -26.2516  -20.8699   25.5937 H   0  0  0  0  0  0
  -27.5771  -20.9526   24.4412 H   0  0  0  0  0  0
  -26.5931  -19.4929   24.5503 H   0  0  0  0  0  0
  -24.2300  -21.1463   19.0241 H   0  0  0  0  0  0
  -25.0910  -19.7077   19.5643 H   0  0  0  0  0  0
  -25.9723  -21.2018   19.2498 H   0  0  0  0  0  0
  -31.6122  -19.8346   21.3404 H   0  0  0  0  0  0
  -30.9579  -19.3636   19.8070 H   0  0  0  0  0  0
  -30.2215  -24.4746   20.3855 H   0  0  0  0  0  0
  -29.3902  -24.7910   21.8845 H   0  0  0  0  0  0
  -25.5993  -22.2382   23.6041 H   0  0  0  0  0  0
  -24.5833  -20.8378   23.7953 H   0  0  0  0  0  0
  -23.8533  -20.8641   21.4434 H   0  0  0  0  0  0
  -24.7745  -22.3105   21.1563 H   0  0  0  0  0  0
  -29.8808  -17.9968   22.3411 H   0  0  0  0  0  0
  -31.4817  -17.6359   21.7986 H   0  0  0  0  0  0
  -30.6788  -16.9565   19.5422 H   0  0  0  0  0  0
  -29.0410  -17.2333   20.0463 H   0  0  0  0  0  0
  -27.2251  -24.9741   20.5904 H   0  0  0  0  0  0
  -28.1240  -24.8582   19.0929 H   0  0  0  0  0  0
  -25.8583  -19.6184   22.0740 H   0  0  0  0  0  0
  -29.0043  -15.2889   21.2942 H   0  0  0  0  0  0
  1 25  1  0  0  0
  1 30  2  0  0  0
  1 87  1  0  0  0
  2  3  1  0  0  0
  2 25  1  0  0  0
  2 88  1  0  0  0
  2 89  1  0  0  0
  3  4  1  0  0  0
  3 90  1  0  0  0
  3 91  1  0  0  0
  4  5  1  0  0  0
  4 92  1  0  0  0
  4 93  1  0  0  0
  5  6  1  0  0  0
  5 26  1  0  0  0
  5 94  1  0  0  0
  6 25  1  0  0  0
  6 95  1  0  0  0
  6 96  1  0  0  0
  7  8  2  0  0  0
  7 26  1  0  0  0
  7 29  1  0  0  0
  8  9  1  0  0  0
  8 22  1  0  0  0
  9 10  1  0  0  0
  9 27  2  0  0  0
 10 11  2  0  0  0
 10 15  1  0  0  0
 11 12  1  0  0  0
 11 97  1  0  0  0
 12 13  2  0  0  0
 12 98  1  0  0  0
 13 14  1  0  0  0
 13 31  1  0  0  0
 14 15  2  0  0  0
 14 99  1  0  0  0
 15100  1  0  0  0
 16 17  2  0  0  0
 16 21  1  0  0  0
 16 31  1  0  0  0
 17 18  1  0  0  0
 17101  1  0  0  0
 18 19  2  0  0  0
 18102  1  0  0  0
 19 20  1  0  0  0
 19 24  1  0  0  0
 20 21  2  0  0  0
 20103  1  0  0  0
 21 23  1  0  0  0
 22 28  1  0  0  0
 22 32  2  0  0  0
 26 27  1  0  0  0
 28104  1  0  0  0
 28105  1  0  0  0
 29106  1  0  0  0
 29107  1  0  0  0
 33 34  1  0  0  0
 33 66  1  0  0  0
 33 70  2  0  0  0
 34 36  1  0  0  0
 34 59  1  0  0  0
 34108  1  0  0  0
 35 44  2  0  0  0
 35 45  1  0  0  0
 35 68  1  0  0  0
 36 56  1  0  0  0
 36109  1  0  0  0
 37 39  1  0  0  0
 37 47  1  0  0  0
 37 66  1  0  0  0
 37110  1  0  0  0
 38 43  2  0  0  0
 38 46  1  0  0  0
 38 47  1  0  0  0
 39 64  1  0  0  0
 39 67  2  0  0  0
 40 52  1  0  0  0
 40 53  2  0  0  0
 40 58  1  0  0  0
 41111  1  0  0  0
 41112  1  0  0  0
 41113  1  0  0  0
 41 48  1  0  0  0
 42 43  1  0  0  0
 42 66  1  0  0  0
 42114  1  0  0  0
 42115  1  0  0  0
 43 44  1  0  0  0
 44116  1  0  0  0
 45 46  2  0  0  0
 45117  1  0  0  0
 46118  1  0  0  0
 47119  1  0  0  0
 47120  1  0  0  0
 48 56  1  0  0  0
 48 65  1  0  0  0
 48121  1  0  0  0
 49 50  1  0  0  0
 49 53  1  0  0  0
 49 64  1  0  0  0
 49122  1  0  0  0
 50 51  1  0  0  0
 50123  1  0  0  0
 50124  1  0  0  0
 51 52  1  0  0  0
 51125  1  0  0  0
 51126  1  0  0  0
 52127  1  0  0  0
 52128  1  0  0  0
 53 54  1  0  0  0
 54 55  2  0  0  0
 54129  1  0  0  0
 55 57  1  0  0  0
 55130  1  0  0  0
 56 69  2  0  0  0
 57 58  2  0  0  0
 57131  1  0  0  0
 58132  1  0  0  0
 59 60  1  0  0  0
 59 61  1  0  0  0
 59 62  1  0  0  0
 60133  1  0  0  0
 60134  1  0  0  0
 60135  1  0  0  0
 61136  1  0  0  0
 61137  1  0  0  0
 61138  1  0  0  0
 62139  1  0  0  0
 62140  1  0  0  0
 62141  1  0  0  0
 63 65  1  0  0  0
 63142  1  0  0  0
 63143  1  0  0  0
 63144  1  0  0  0
 64145  1  0  0  0
 65146  1  0  0  0
 68 85  1  0  0  0
 71 74  2  0  0  0
 71 75  1  0  0  0
 71147  1  0  0  0
 72 74  1  0  0  0
 72 76  2  0  0  0
 72148  1  0  0  0
 73 75  2  0  0  0
 73 76  1  0  0  0
 73149  1  0  0  0
 74 79  1  0  0  0
 75 80  1  0  0  0
 76 86  1  0  0  0
 77 81  1  0  0  0
 77150  1  0  0  0
 77151  1  0  0  0
 77152  1  0  0  0
 78 82  1  0  0  0
 78153  1  0  0  0
 78154  1  0  0  0
 78155  1  0  0  0
 79 83  1  0  0  0
 79156  1  0  0  0
 79157  1  0  0  0
 80 85  1  0  0  0
 80158  1  0  0  0
 80159  1  0  0  0
 81160  1  0  0  0
 81161  1  0  0  0
 81 86  1  0  0  0
 82 86  1  0  0  0
 82162  1  0  0  0
 82163  1  0  0  0
 83 84  1  0  0  0
 83164  1  0  0  0
 83165  1  0  0  0
 84 87  1  0  0  0
 84166  1  0  0  0
 84167  1  0  0  0
 85168  1  0  0  0
 85169  1  0  0  0
 86170  1  0  0  0
 87171  1  0  0  0
M  ISO  4   1 100  68 101  85 101  87 100
M  END
> <chiral flag>
0

> <version>
0

> <s_m_source_file>
/data/baiqing/PycharmProjects/Reinvent-master-3.2/result/LINK_invent/BTK/process_docking_weight1_custom_sum_contain_oxygen_bond_distance_aromatic_linkinvent_7_9_3/rearranged_h_0040.sdf

> <i_m_source_file_index>
63

> <r_mmod_Potential_Energy-OPLS-2005>
-22.0903091430664

> <r_mmod_Stretch_Energy-OPLS-2005>
45.109260559082

> <r_mmod_Bend_Energy-OPLS-2005>
102.239898681641

> <r_mmod_Torsional_Energy-OPLS-2005>
219.880416870117

> <r_mmod_Improper_Torsional_Energy-OPLS-2005>
6.96973180770874

> <r_mmod_Van_der_Waal_Energy-OPLS-2005>
151.685134887695

> <r_mmod_Electrostatic_Energy-OPLS-2005>
-370.455505371094

> <r_mmod_Solvation_Energy-OPLS-2005>
-195.986343383789

> <b_mmod_Minimization_Converged-OPLS-2005>
0

> <r_mmod_RMS_Derivative-OPLS-2005>
0.931944489479065

$$$$
63
                    3D
 Structure written by MMmdl.
157165  0  0  1  0            999 V2000
  -30.6238  -14.6835   20.4739 C   0  0  0  0  0  0
  -30.4304  -12.4126   19.4632 C   0  0  0  0  0  0
  -29.5074  -12.4923   18.2290 C   0  0  0  0  0  0
  -28.0304  -12.3313   18.6408 C   0  0  0  0  0  0
  -27.6433  -13.2261   19.8481 C   0  0  2  0  0  0
  -28.6866  -13.1306   20.9816 C   0  0  0  0  0  0
  -25.2535  -13.8196   20.5703 C   0  0  0  0  0  0
  -24.1824  -13.0446   20.9236 C   0  0  0  0  0  0
  -24.6403  -11.6921   20.8764 C   0  0  0  0  0  0
  -23.9075  -10.4296   21.0423 C   0  0  0  0  0  0
  -24.3623   -9.4204   21.9195 C   0  0  0  0  0  0
  -23.6301   -8.2235   22.0748 C   0  0  0  0  0  0
  -22.4280   -8.0284   21.3531 C   0  0  0  0  0  0
  -21.9916   -9.0259   20.4633 C   0  0  0  0  0  0
  -22.7252  -10.2135   20.3061 C   0  0  0  0  0  0
  -21.6847   -6.0745   22.5289 C   0  0  0  0  0  0
  -21.4009   -6.5646   23.8225 C   0  0  0  0  0  0
  -21.3661   -5.6794   24.9182 C   0  0  0  0  0  0
  -21.6047   -4.3059   24.7225 C   0  0  0  0  0  0
  -21.8816   -3.8155   23.4345 C   0  0  0  0  0  0
  -21.9190   -4.6975   22.3407 C   0  0  0  0  0  0
  -22.7838  -13.5219   21.1897 C   0  0  0  0  0  0
  -22.1664   -4.2171   21.0980 F   0  0  0  0  0  0
  -21.5627   -3.4535   25.7731 F   0  0  0  0  0  0
  -29.9922  -13.4670   20.4010 N   0  0  0  0  0  0
  -26.2948  -12.9389   20.3259 N   0  0  0  0  0  0
  -25.9323  -11.6537   20.5742 N   0  0  0  0  0  0
  -22.0472  -12.8200   22.0439 N   0  0  0  0  0  0
  -25.4212  -15.1925   20.4107 N   0  0  0  0  0  0
  -31.8126  -14.7930   20.1674 O   0  0  0  0  0  0
  -21.6632   -6.8886   21.4243 O   0  0  0  0  0  0
  -22.3517  -14.5519   20.6741 O   0  0  0  0  0  0
  -24.6259  -31.8592   23.1976 C   0  0  0  0  0  0
  -25.9095  -32.4778   23.8340 C   0  0  1  0  0  0
  -27.2227  -27.2922   20.1343 C   0  0  0  0  0  0
  -25.5902  -33.8581   24.2255 N   0  0  0  0  0  0
  -23.4224  -30.4776   21.5397 C   0  0  2  0  0  0
  -24.8715  -28.9287   20.1092 C   0  0  0  0  0  0
  -22.7484  -29.4607   22.4918 C   0  0  0  0  0  0
  -18.0281  -28.1405   22.8513 C   0  0  0  0  0  0
  -24.1472  -36.7283   23.2645 C   0  0  0  0  0  0
  -25.9638  -30.7832   21.3713 C   0  0  0  0  0  0
  -26.0390  -29.4061   20.7172 C   0  0  0  0  0  0
  -27.2161  -28.5984   20.7201 C   0  0  0  0  0  0
  -26.0395  -26.8768   19.4859 C   0  0  0  0  0  0
  -24.8740  -27.6718   19.4822 C   0  0  0  0  0  0
  -23.6395  -29.8092   20.1559 C   0  0  0  0  0  0
  -25.4113  -36.3095   24.0325 C   0  0  1  0  0  0
  -20.5895  -28.3698   23.1303 C   0  0  2  0  0  0
  -20.6767  -26.9417   22.5429 C   0  0  0  0  0  0
  -19.5738  -26.6413   21.5231 C   0  0  0  0  0  0
  -18.1918  -26.7953   22.1646 C   0  0  0  0  0  0
  -19.1541  -28.8864   23.2914 C   0  0  0  0  0  0
  -18.9458  -30.1473   23.8933 C   0  0  0  0  0  0
  -17.6461  -30.6618   24.0586 C   0  0  0  0  0  0
  -25.9054  -34.9461   23.5087 C   0  0  0  0  0  0
  -16.5351  -29.9128   23.6349 C   0  0  0  0  0  0
  -16.7274  -28.6536   23.0387 C   0  0  0  0  0  0
  -26.4473  -31.6589   25.0706 C   0  0  0  0  0  0
  -25.3720  -31.3724   26.1435 C   0  0  0  0  0  0
  -27.0300  -30.3023   24.6129 C   0  0  0  0  0  0
  -27.6040  -32.4316   25.7478 C   0  0  0  0  0  0
  -27.5568  -37.1812   24.8472 C   0  0  0  0  0  0
  -21.4188  -29.3049   22.3691 N   0  0  0  0  0  0
  -26.4286  -37.3791   23.9408 N   0  0  0  0  0  0
  -24.6896  -31.0592   22.0923 N   0  0  0  0  0  0
  -23.4208  -28.8175   23.3035 O   0  0  0  0  0  0
  -28.3353  -26.4341   20.2167 O   0  0  0  0  0  0
  -26.5640  -34.8923   22.4664 O   0  0  0  0  0  0
  -23.5410  -32.1388   23.7286 O   0  0  0  0  0  0
  -30.5381  -22.5695   21.9369 C   0  0  0  0  0  0
  -30.0239  -24.7208   21.7810 C   0  0  0  0  0  0
  -29.5329  -22.6326   21.0018 C   0  0  0  0  0  0
  -29.1957  -24.0788   20.8985 C   0  0  0  0  0  0
  -31.8535  -24.1255   23.4073 C   0  0  0  0  0  0
  -29.0298  -21.2895   20.3358 C   0  0  0  0  0  0
  -28.1620  -24.9525   20.1034 C   0  0  0  0  0  0
  -29.7461  -19.9302   20.8446 C   0  0  0  0  0  0
  -29.3630  -18.4531   20.3367 C   0  0  0  0  0  0
  -30.2879  -17.2453   20.8609 C   0  0  0  0  0  0
  -30.8439  -23.8201   22.4101 N   0  0  0  0  0  0
  -29.8477  -15.8016   20.7005 N   0  0  0  0  0  0
  -31.4735  -12.5288   19.1634 H   0  0  0  0  0  0
  -30.3613  -11.4299   19.9336 H   0  0  0  0  0  0
  -29.7766  -11.7226   17.5038 H   0  0  0  0  0  0
  -29.6529  -13.4495   17.7260 H   0  0  0  0  0  0
  -27.8763  -11.2829   18.8975 H   0  0  0  0  0  0
  -27.3752  -12.5355   17.7941 H   0  0  0  0  0  0
  -27.6444  -14.2520   19.4783 H   0  0  0  0  0  0
  -28.7054  -12.1259   21.4068 H   0  0  0  0  0  0
  -28.4288  -13.8034   21.8017 H   0  0  0  0  0  0
  -25.2759   -9.5681   22.4783 H   0  0  0  0  0  0
  -24.0016   -7.4613   22.7454 H   0  0  0  0  0  0
  -21.0855   -8.8777   19.8931 H   0  0  0  0  0  0
  -22.3717  -10.9678   19.6176 H   0  0  0  0  0  0
  -21.1996   -7.6151   23.9737 H   0  0  0  0  0  0
  -21.1489   -6.0519   25.9090 H   0  0  0  0  0  0
  -22.0592   -2.7618   23.2833 H   0  0  0  0  0  0
  -22.4060  -11.9853   22.4830 H   0  0  0  0  0  0
  -21.1086  -13.1217   22.2625 H   0  0  0  0  0  0
  -24.6462  -15.8401   20.5096 H   0  0  0  0  0  0
  -26.2562  -15.6287   20.0412 H   0  0  0  0  0  0
  -26.7157  -32.5454   23.1097 H   0  0  0  0  0  0
  -25.0014  -33.9732   25.0373 H   0  0  0  0  0  0
  -22.7149  -31.2963   21.3935 H   0  0  0  0  0  0
  -23.3740  -35.9615   23.3328 H   0  0  0  0  0  0
  -24.3556  -36.8890   22.2056 H   0  0  0  0  0  0
  -23.7212  -37.6477   23.6652 H   0  0  0  0  0  0
  -26.0952  -31.5426   20.6001 H   0  0  0  0  0  0
  -26.8439  -30.8359   22.0005 H   0  0  0  0  0  0
  -28.1085  -28.9586   21.2104 H   0  0  0  0  0  0
  -25.9895  -25.9170   18.9923 H   0  0  0  0  0  0
  -23.9794  -27.3057   18.9995 H   0  0  0  0  0  0
  -23.7606  -30.5842   19.3977 H   0  0  0  0  0  0
  -22.7601  -29.2382   19.8540 H   0  0  0  0  0  0
  -25.1299  -36.1948   25.0822 H   0  0  0  0  0  0
  -20.9997  -28.3259   24.1416 H   0  0  0  0  0  0
  -20.5669  -26.2302   23.3628 H   0  0  0  0  0  0
  -21.6636  -26.7450   22.1216 H   0  0  0  0  0  0
  -19.6881  -25.6328   21.1241 H   0  0  0  0  0  0
  -19.6667  -27.3242   20.6776 H   0  0  0  0  0  0
  -17.4193  -26.6730   21.4043 H   0  0  0  0  0  0
  -18.0306  -26.0085   22.9023 H   0  0  0  0  0  0
  -19.7932  -30.7298   24.2312 H   0  0  0  0  0  0
  -17.5011  -31.6298   24.5186 H   0  0  0  0  0  0
  -15.5355  -30.3050   23.7644 H   0  0  0  0  0  0
  -15.8666  -28.0863   22.7109 H   0  0  0  0  0  0
  -24.5902  -30.7051   25.7776 H   0  0  0  0  0  0
  -24.8900  -32.2886   26.4851 H   0  0  0  0  0  0
  -25.8074  -30.8914   27.0214 H   0  0  0  0  0  0
  -26.2846  -29.6791   24.1159 H   0  0  0  0  0  0
  -27.4000  -29.7249   25.4614 H   0  0  0  0  0  0
  -27.8727  -30.4313   23.9338 H   0  0  0  0  0  0
  -27.2661  -33.3624   26.2054 H   0  0  0  0  0  0
  -28.3867  -32.6878   25.0320 H   0  0  0  0  0  0
  -28.0683  -31.8434   26.5399 H   0  0  0  0  0  0
  -28.2640  -38.0066   24.7536 H   0  0  0  0  0  0
  -28.1019  -36.2613   24.6303 H   0  0  0  0  0  0
  -27.2293  -37.1476   25.8880 H   0  0  0  0  0  0
  -20.9344  -29.8766   21.6911 H   0  0  0  0  0  0
  -26.0149  -38.2860   24.1420 H   0  0  0  0  0  0
  -31.0840  -21.7205   22.3283 H   0  0  0  0  0  0
  -30.0898  -25.7734   22.0289 H   0  0  0  0  0  0
  -32.7108  -23.4628   23.2856 H   0  0  0  0  0  0
  -31.4403  -23.9913   24.4082 H   0  0  0  0  0  0
  -32.1989  -25.1535   23.3000 H   0  0  0  0  0  0
  -29.1738  -21.3822   19.2581 H   0  0  0  0  0  0
  -27.9517  -21.2163   20.4885 H   0  0  0  0  0  0
  -27.1800  -24.6596   20.4741 H   0  0  0  0  0  0
  -28.2087  -24.6691   19.0526 H   0  0  0  0  0  0
  -29.6303  -19.9005   21.9292 H   0  0  0  0  0  0
  -30.8163  -20.0481   20.6690 H   0  0  0  0  0  0
  -29.3824  -18.4508   19.2465 H   0  0  0  0  0  0
  -28.3279  -18.2532   20.6158 H   0  0  0  0  0  0
  -30.4384  -17.3860   21.9320 H   0  0  0  0  0  0
  -31.2783  -17.3614   20.4176 H   0  0  0  0  0  0
  -28.8688  -15.6183   20.8653 H   0  0  0  0  0  0
  1 25  1  0  0  0
  1 30  2  0  0  0
  1 82  1  0  0  0
  2  3  1  0  0  0
  2 25  1  0  0  0
  2 83  1  0  0  0
  2 84  1  0  0  0
  3  4  1  0  0  0
  3 85  1  0  0  0
  3 86  1  0  0  0
  4  5  1  0  0  0
  4 87  1  0  0  0
  4 88  1  0  0  0
  5  6  1  0  0  0
  5 26  1  0  0  0
  5 89  1  0  0  0
  6 25  1  0  0  0
  6 90  1  0  0  0
  6 91  1  0  0  0
  7  8  2  0  0  0
  7 26  1  0  0  0
  7 29  1  0  0  0
  8  9  1  0  0  0
  8 22  1  0  0  0
  9 10  1  0  0  0
  9 27  2  0  0  0
 10 11  2  0  0  0
 10 15  1  0  0  0
 11 12  1  0  0  0
 11 92  1  0  0  0
 12 13  2  0  0  0
 12 93  1  0  0  0
 13 14  1  0  0  0
 13 31  1  0  0  0
 14 15  2  0  0  0
 14 94  1  0  0  0
 15 95  1  0  0  0
 16 17  2  0  0  0
 16 21  1  0  0  0
 16 31  1  0  0  0
 17 18  1  0  0  0
 17 96  1  0  0  0
 18 19  2  0  0  0
 18 97  1  0  0  0
 19 20  1  0  0  0
 19 24  1  0  0  0
 20 21  2  0  0  0
 20 98  1  0  0  0
 21 23  1  0  0  0
 22 28  1  0  0  0
 22 32  2  0  0  0
 26 27  1  0  0  0
 28 99  1  0  0  0
 28100  1  0  0  0
 29101  1  0  0  0
 29102  1  0  0  0
 33 34  1  0  0  0
 33 66  1  0  0  0
 33 70  2  0  0  0
 34 36  1  0  0  0
 34 59  1  0  0  0
 34103  1  0  0  0
 35 44  2  0  0  0
 35 45  1  0  0  0
 35 68  1  0  0  0
 36 56  1  0  0  0
 36104  1  0  0  0
 37 39  1  0  0  0
 37 47  1  0  0  0
 37 66  1  0  0  0
 37105  1  0  0  0
 38 43  2  0  0  0
 38 46  1  0  0  0
 38 47  1  0  0  0
 39 64  1  0  0  0
 39 67  2  0  0  0
 40 52  1  0  0  0
 40 53  2  0  0  0
 40 58  1  0  0  0
 41106  1  0  0  0
 41107  1  0  0  0
 41108  1  0  0  0
 41 48  1  0  0  0
 42 43  1  0  0  0
 42 66  1  0  0  0
 42109  1  0  0  0
 42110  1  0  0  0
 43 44  1  0  0  0
 44111  1  0  0  0
 45 46  2  0  0  0
 45112  1  0  0  0
 46113  1  0  0  0
 47114  1  0  0  0
 47115  1  0  0  0
 48 56  1  0  0  0
 48 65  1  0  0  0
 48116  1  0  0  0
 49 50  1  0  0  0
 49 53  1  0  0  0
 49 64  1  0  0  0
 49117  1  0  0  0
 50 51  1  0  0  0
 50118  1  0  0  0
 50119  1  0  0  0
 51 52  1  0  0  0
 51120  1  0  0  0
 51121  1  0  0  0
 52122  1  0  0  0
 52123  1  0  0  0
 53 54  1  0  0  0
 54 55  2  0  0  0
 54124  1  0  0  0
 55 57  1  0  0  0
 55125  1  0  0  0
 56 69  2  0  0  0
 57 58  2  0  0  0
 57126  1  0  0  0
 58127  1  0  0  0
 59 60  1  0  0  0
 59 61  1  0  0  0
 59 62  1  0  0  0
 60128  1  0  0  0
 60129  1  0  0  0
 60130  1  0  0  0
 61131  1  0  0  0
 61132  1  0  0  0
 61133  1  0  0  0
 62134  1  0  0  0
 62135  1  0  0  0
 62136  1  0  0  0
 63 65  1  0  0  0
 63137  1  0  0  0
 63138  1  0  0  0
 63139  1  0  0  0
 64140  1  0  0  0
 65141  1  0  0  0
 68 77  1  0  0  0
 71 73  2  0  0  0
 71 81  1  0  0  0
 71142  1  0  0  0
 72 74  2  0  0  0
 72 81  1  0  0  0
 72143  1  0  0  0
 73 74  1  0  0  0
 73 76  1  0  0  0
 74 77  1  0  0  0
 75 81  1  0  0  0
 75144  1  0  0  0
 75145  1  0  0  0
 75146  1  0  0  0
 76 78  1  0  0  0
 76147  1  0  0  0
 76148  1  0  0  0
 77149  1  0  0  0
 77150  1  0  0  0
 78 79  1  0  0  0
 78151  1  0  0  0
 78152  1  0  0  0
 79 80  1  0  0  0
 79153  1  0  0  0
 79154  1  0  0  0
 80 82  1  0  0  0
 80155  1  0  0  0
 80156  1  0  0  0
 82157  1  0  0  0
M  ISO  4   1 100  68 101  77 101  82 100
M  END
> <chiral flag>
0

> <version>
0

> <s_m_source_file>
/data/baiqing/PycharmProjects/Reinvent-master-3.2/result/LINK_invent/BTK/process_docking_weight1_custom_sum_contain_oxygen_bond_distance_aromatic_linkinvent_7_9_3/rearranged_h_0040.sdf

> <i_m_source_file_index>
64

> <r_mmod_Potential_Energy-OPLS-2005>
86.6164016723633

> <r_mmod_Stretch_Energy-OPLS-2005>
104.700088500977

> <r_mmod_Bend_Energy-OPLS-2005>
159.815338134766

> <r_mmod_Torsional_Energy-OPLS-2005>
209.763397216797

> <r_mmod_Improper_Torsional_Energy-OPLS-2005>
4.511399269104

> <r_mmod_Van_der_Waal_Energy-OPLS-2005>
120.447143554688

> <r_mmod_Electrostatic_Energy-OPLS-2005>
-360.136596679688

> <r_mmod_Solvation_Energy-OPLS-2005>
-217.920623779297

> <b_mmod_Minimization_Converged-OPLS-2005>
0

> <r_mmod_RMS_Derivative-OPLS-2005>
3.06826829910278

$$$$
64
                    3D
 Structure written by MMmdl.
159167  0  0  1  0            999 V2000
  -30.7174  -14.4358   20.6202 C   0  0  0  0  0  0
  -30.4230  -12.3041   19.4093 C   0  0  0  0  0  0
  -29.4910  -12.5131   18.1995 C   0  0  0  0  0  0
  -28.0135  -12.3690   18.6146 C   0  0  0  0  0  0
  -27.6627  -13.2031   19.8760 C   0  0  2  0  0  0
  -28.7023  -12.9631   20.9929 C   0  0  0  0  0  0
  -25.2595  -13.8155   20.5672 C   0  0  0  0  0  0
  -24.1840  -13.0442   20.9175 C   0  0  0  0  0  0
  -24.6384  -11.6905   20.8728 C   0  0  0  0  0  0
  -23.9049  -10.4293   21.0402 C   0  0  0  0  0  0
  -24.3600   -9.4213   21.9186 C   0  0  0  0  0  0
  -23.6282   -8.2246   22.0753 C   0  0  0  0  0  0
  -22.4267   -8.0276   21.3540 C   0  0  0  0  0  0
  -21.9900   -9.0250   20.4644 C   0  0  0  0  0  0
  -22.7221  -10.2133   20.3054 C   0  0  0  0  0  0
  -21.6850   -6.0736   22.5281 C   0  0  0  0  0  0
  -21.4010   -6.5639   23.8214 C   0  0  0  0  0  0
  -21.3659   -5.6792   24.9175 C   0  0  0  0  0  0
  -21.6045   -4.3054   24.7226 C   0  0  0  0  0  0
  -21.8820   -3.8147   23.4346 C   0  0  0  0  0  0
  -21.9193   -4.6965   22.3404 C   0  0  0  0  0  0
  -22.7865  -13.5251   21.1844 C   0  0  0  0  0  0
  -22.1662   -4.2150   21.0981 F   0  0  0  0  0  0
  -21.5631   -3.4540   25.7741 F   0  0  0  0  0  0
  -30.0355  -13.2728   20.4466 N   0  0  0  0  0  0
  -26.3025  -12.9314   20.3364 N   0  0  0  0  0  0
  -25.9309  -11.6475   20.5756 N   0  0  0  0  0  0
  -22.0488  -12.8243   22.0387 N   0  0  0  0  0  0
  -25.4347  -15.1867   20.4085 N   0  0  0  0  0  0
  -31.8087  -14.6616   20.0888 O   0  0  0  0  0  0
  -21.6631   -6.8875   21.4241 O   0  0  0  0  0  0
  -22.3563  -14.5563   20.6698 O   0  0  0  0  0  0
  -24.6157  -31.8678   23.2112 C   0  0  0  0  0  0
  -25.9042  -32.4830   23.8405 C   0  0  1  0  0  0
  -27.2349  -27.4473   20.0932 C   0  0  0  0  0  0
  -25.5885  -33.8625   24.2332 N   0  0  0  0  0  0
  -23.4031  -30.4921   21.5501 C   0  0  2  0  0  0
  -24.8531  -28.9601   20.1133 C   0  0  0  0  0  0
  -22.7425  -29.4649   22.4978 C   0  0  0  0  0  0
  -18.0286  -28.1373   22.8479 C   0  0  0  0  0  0
  -24.1487  -36.7305   23.2635 C   0  0  0  0  0  0
  -25.9316  -30.8371   21.3645 C   0  0  0  0  0  0
  -26.0119  -29.4721   20.7129 C   0  0  0  0  0  0
  -27.2087  -28.7193   20.7078 C   0  0  0  0  0  0
  -26.0666  -26.9462   19.4891 C   0  0  0  0  0  0
  -24.8739  -27.6934   19.5017 C   0  0  0  0  0  0
  -23.6141  -29.8247   20.1641 C   0  0  0  0  0  0
  -25.4106  -36.3113   24.0343 C   0  0  1  0  0  0
  -20.5881  -28.3648   23.1322 C   0  0  2  0  0  0
  -20.6770  -26.9376   22.5425 C   0  0  0  0  0  0
  -19.5747  -26.6370   21.5224 C   0  0  0  0  0  0
  -18.1921  -26.7922   22.1619 C   0  0  0  0  0  0
  -19.1535  -28.8827   23.2900 C   0  0  0  0  0  0
  -18.9459  -30.1433   23.8909 C   0  0  0  0  0  0
  -17.6457  -30.6573   24.0555 C   0  0  0  0  0  0
  -25.9026  -34.9483   23.5138 C   0  0  0  0  0  0
  -16.5349  -29.9069   23.6330 C   0  0  0  0  0  0
  -16.7271  -28.6500   23.0331 C   0  0  0  0  0  0
  -26.4477  -31.6601   25.0732 C   0  0  0  0  0  0
  -25.3735  -31.3699   26.1473 C   0  0  0  0  0  0
  -27.0309  -30.3055   24.6083 C   0  0  0  0  0  0
  -27.6071  -32.4303   25.7484 C   0  0  0  0  0  0
  -27.5582  -37.1799   24.8462 C   0  0  0  0  0  0
  -21.4155  -29.3021   22.3724 N   0  0  0  0  0  0
  -26.4293  -37.3785   23.9411 N   0  0  0  0  0  0
  -24.6676  -31.0788   22.1011 N   0  0  0  0  0  0
  -23.4202  -28.8175   23.3011 O   0  0  0  0  0  0
  -28.3661  -26.6673   20.0748 O   0  0  0  0  0  0
  -26.5594  -34.8943   22.4702 O   0  0  0  0  0  0
  -23.5338  -32.1421   23.7507 O   0  0  0  0  0  0
  -28.6946  -20.6222   22.4844 C   0  0  0  0  0  0
  -28.7411  -19.9171   21.2500 C   0  0  0  0  0  0
  -28.6720  -20.9200   20.3101 C   0  0  0  0  0  0
  -28.6525  -20.8315   18.8186 C   0  0  0  0  0  0
  -28.8033  -18.4037   21.1030 C   0  0  0  0  0  0
  -30.2333  -17.8623   20.8681 C   0  0  0  0  0  0
  -29.2615  -24.5905   21.1154 C   0  0  0  0  0  0
  -28.3551  -23.4962   20.4836 C   0  0  0  0  0  0
  -30.6525  -16.6672   21.7641 C   0  0  0  0  0  0
  -28.5909  -25.9723   21.3029 C   0  0  0  0  0  0
  -28.5846  -21.9305   22.3272 N   0  0  0  0  0  0
  -28.5829  -22.1338   20.9904 N   0  0  0  0  0  0
  -30.0980  -15.3662   21.3673 N   0  0  0  0  0  0
  -31.4663  -12.4093   19.1060 H   0  0  0  0  0  0
  -30.3294  -11.2878   19.7948 H   0  0  0  0  0  0
  -29.7289  -11.7970   17.4122 H   0  0  0  0  0  0
  -29.6575  -13.5038   17.7736 H   0  0  0  0  0  0
  -27.8262  -11.3118   18.8075 H   0  0  0  0  0  0
  -27.3608  -12.6453   17.7862 H   0  0  0  0  0  0
  -27.7146  -14.2539   19.5898 H   0  0  0  0  0  0
  -28.6776  -11.9202   21.3120 H   0  0  0  0  0  0
  -28.4562  -13.5402   21.8844 H   0  0  0  0  0  0
  -25.2743   -9.5699   22.4760 H   0  0  0  0  0  0
  -23.9998   -7.4640   22.7470 H   0  0  0  0  0  0
  -21.0834   -8.8760   19.8947 H   0  0  0  0  0  0
  -22.3674  -10.9669   19.6160 H   0  0  0  0  0  0
  -21.1993   -7.6145   23.9719 H   0  0  0  0  0  0
  -21.1482   -6.0519   25.9078 H   0  0  0  0  0  0
  -22.0598   -2.7607   23.2847 H   0  0  0  0  0  0
  -22.4074  -11.9895   22.4780 H   0  0  0  0  0  0
  -21.1105  -13.1276   22.2571 H   0  0  0  0  0  0
  -24.6733  -15.8477   20.5163 H   0  0  0  0  0  0
  -26.2930  -15.6190   20.0908 H   0  0  0  0  0  0
  -26.7122  -32.5581   23.1175 H   0  0  0  0  0  0
  -25.0073  -33.9776   25.0506 H   0  0  0  0  0  0
  -22.6929  -31.3101   21.4120 H   0  0  0  0  0  0
  -23.3755  -35.9625   23.3305 H   0  0  0  0  0  0
  -24.3583  -36.8912   22.2046 H   0  0  0  0  0  0
  -23.7251  -37.6516   23.6641 H   0  0  0  0  0  0
  -26.0441  -31.6018   20.5950 H   0  0  0  0  0  0
  -26.8199  -30.8933   21.9814 H   0  0  0  0  0  0
  -28.1063  -29.1042   21.1728 H   0  0  0  0  0  0
  -26.0793  -25.9728   19.0208 H   0  0  0  0  0  0
  -23.9826  -27.2909   19.0410 H   0  0  0  0  0  0
  -23.7219  -30.6001   19.4056 H   0  0  0  0  0  0
  -22.7401  -29.2435   19.8659 H   0  0  0  0  0  0
  -25.1279  -36.1974   25.0834 H   0  0  0  0  0  0
  -20.9977  -28.3207   24.1442 H   0  0  0  0  0  0
  -20.5694  -26.2233   23.3602 H   0  0  0  0  0  0
  -21.6631  -26.7416   22.1190 H   0  0  0  0  0  0
  -19.6897  -25.6298   21.1208 H   0  0  0  0  0  0
  -19.6695  -27.3219   20.6791 H   0  0  0  0  0  0
  -17.4193  -26.6697   21.4014 H   0  0  0  0  0  0
  -18.0289  -26.0076   22.9023 H   0  0  0  0  0  0
  -19.7938  -30.7250   24.2264 H   0  0  0  0  0  0
  -17.5012  -31.6253   24.5151 H   0  0  0  0  0  0
  -15.5342  -30.2953   23.7657 H   0  0  0  0  0  0
  -15.8684  -28.0819   22.7009 H   0  0  0  0  0  0
  -24.5921  -30.7039   25.7797 H   0  0  0  0  0  0
  -24.8906  -32.2848   26.4915 H   0  0  0  0  0  0
  -25.8076  -30.8862   27.0237 H   0  0  0  0  0  0
  -26.2842  -29.6826   24.1142 H   0  0  0  0  0  0
  -27.4123  -29.7289   25.4522 H   0  0  0  0  0  0
  -27.8653  -30.4403   23.9199 H   0  0  0  0  0  0
  -27.2708  -33.3598   26.2089 H   0  0  0  0  0  0
  -28.3852  -32.6865   25.0282 H   0  0  0  0  0  0
  -28.0762  -31.8412   26.5374 H   0  0  0  0  0  0
  -28.2580  -38.0111   24.7535 H   0  0  0  0  0  0
  -28.1095  -36.2656   24.6237 H   0  0  0  0  0  0
  -27.2302  -37.1391   25.8860 H   0  0  0  0  0  0
  -20.9314  -29.8753   21.6956 H   0  0  0  0  0  0
  -26.0189  -38.2853   24.1453 H   0  0  0  0  0  0
  -28.7083  -20.2161   23.4863 H   0  0  0  0  0  0
  -28.5839  -19.7959   18.4868 H   0  0  0  0  0  0
  -29.5595  -21.2597   18.3927 H   0  0  0  0  0  0
  -27.7974  -21.3632   18.4024 H   0  0  0  0  0  0
  -28.1476  -18.0542   20.3041 H   0  0  0  0  0  0
  -28.3960  -17.9418   22.0033 H   0  0  0  0  0  0
  -30.9372  -18.6672   21.0792 H   0  0  0  0  0  0
  -30.3829  -17.6291   19.8123 H   0  0  0  0  0  0
  -30.1833  -24.6906   20.5429 H   0  0  0  0  0  0
  -29.5780  -24.2737   22.1084 H   0  0  0  0  0  0
  -28.4729  -23.5070   19.3997 H   0  0  0  0  0  0
  -27.3076  -23.7352   20.6714 H   0  0  0  0  0  0
  -30.3652  -16.8663   22.7973 H   0  0  0  0  0  0
  -31.7418  -16.6038   21.7806 H   0  0  0  0  0  0
  -29.2355  -26.6004   21.9190 H   0  0  0  0  0  0
  -27.6671  -25.8419   21.8719 H   0  0  0  0  0  0
  -29.2055  -15.1025   21.7587 H   0  0  0  0  0  0
  1 25  1  0  0  0
  1 30  2  0  0  0
  1 83  1  0  0  0
  2  3  1  0  0  0
  2 25  1  0  0  0
  2 84  1  0  0  0
  2 85  1  0  0  0
  3  4  1  0  0  0
  3 86  1  0  0  0
  3 87  1  0  0  0
  4  5  1  0  0  0
  4 88  1  0  0  0
  4 89  1  0  0  0
  5  6  1  0  0  0
  5 26  1  0  0  0
  5 90  1  0  0  0
  6 25  1  0  0  0
  6 91  1  0  0  0
  6 92  1  0  0  0
  7  8  2  0  0  0
  7 26  1  0  0  0
  7 29  1  0  0  0
  8  9  1  0  0  0
  8 22  1  0  0  0
  9 10  1  0  0  0
  9 27  2  0  0  0
 10 11  2  0  0  0
 10 15  1  0  0  0
 11 12  1  0  0  0
 11 93  1  0  0  0
 12 13  2  0  0  0
 12 94  1  0  0  0
 13 14  1  0  0  0
 13 31  1  0  0  0
 14 15  2  0  0  0
 14 95  1  0  0  0
 15 96  1  0  0  0
 16 17  2  0  0  0
 16 21  1  0  0  0
 16 31  1  0  0  0
 17 18  1  0  0  0
 17 97  1  0  0  0
 18 19  2  0  0  0
 18 98  1  0  0  0
 19 20  1  0  0  0
 19 24  1  0  0  0
 20 21  2  0  0  0
 20 99  1  0  0  0
 21 23  1  0  0  0
 22 28  1  0  0  0
 22 32  2  0  0  0
 26 27  1  0  0  0
 28100  1  0  0  0
 28101  1  0  0  0
 29102  1  0  0  0
 29103  1  0  0  0
 33 34  1  0  0  0
 33 66  1  0  0  0
 33 70  2  0  0  0
 34 36  1  0  0  0
 34 59  1  0  0  0
 34104  1  0  0  0
 35 44  2  0  0  0
 35 45  1  0  0  0
 35 68  1  0  0  0
 36 56  1  0  0  0
 36105  1  0  0  0
 37 39  1  0  0  0
 37 47  1  0  0  0
 37 66  1  0  0  0
 37106  1  0  0  0
 38 43  2  0  0  0
 38 46  1  0  0  0
 38 47  1  0  0  0
 39 64  1  0  0  0
 39 67  2  0  0  0
 40 52  1  0  0  0
 40 53  2  0  0  0
 40 58  1  0  0  0
 41107  1  0  0  0
 41108  1  0  0  0
 41109  1  0  0  0
 41 48  1  0  0  0
 42 43  1  0  0  0
 42 66  1  0  0  0
 42110  1  0  0  0
 42111  1  0  0  0
 43 44  1  0  0  0
 44112  1  0  0  0
 45 46  2  0  0  0
 45113  1  0  0  0
 46114  1  0  0  0
 47115  1  0  0  0
 47116  1  0  0  0
 48 56  1  0  0  0
 48 65  1  0  0  0
 48117  1  0  0  0
 49 50  1  0  0  0
 49 53  1  0  0  0
 49 64  1  0  0  0
 49118  1  0  0  0
 50 51  1  0  0  0
 50119  1  0  0  0
 50120  1  0  0  0
 51 52  1  0  0  0
 51121  1  0  0  0
 51122  1  0  0  0
 52123  1  0  0  0
 52124  1  0  0  0
 53 54  1  0  0  0
 54 55  2  0  0  0
 54125  1  0  0  0
 55 57  1  0  0  0
 55126  1  0  0  0
 56 69  2  0  0  0
 57 58  2  0  0  0
 57127  1  0  0  0
 58128  1  0  0  0
 59 60  1  0  0  0
 59 61  1  0  0  0
 59 62  1  0  0  0
 60129  1  0  0  0
 60130  1  0  0  0
 60131  1  0  0  0
 61132  1  0  0  0
 61133  1  0  0  0
 61134  1  0  0  0
 62135  1  0  0  0
 62136  1  0  0  0
 62137  1  0  0  0
 63 65  1  0  0  0
 63138  1  0  0  0
 63139  1  0  0  0
 63140  1  0  0  0
 64141  1  0  0  0
 65142  1  0  0  0
 68 80  1  0  0  0
 71 72  1  0  0  0
 71 81  2  0  0  0
 71143  1  0  0  0
 72 73  2  0  0  0
 72 75  1  0  0  0
 73 74  1  0  0  0
 73 82  1  0  0  0
 74144  1  0  0  0
 74145  1  0  0  0
 74146  1  0  0  0
 75 76  1  0  0  0
 75147  1  0  0  0
 75148  1  0  0  0
 76 79  1  0  0  0
 76149  1  0  0  0
 76150  1  0  0  0
 77 78  1  0  0  0
 77 80  1  0  0  0
 77151  1  0  0  0
 77152  1  0  0  0
 78 82  1  0  0  0
 78153  1  0  0  0
 78154  1  0  0  0
 79 83  1  0  0  0
 79155  1  0  0  0
 79156  1  0  0  0
 80157  1  0  0  0
 80158  1  0  0  0
 81 82  1  0  0  0
 83159  1  0  0  0
M  ISO  4   1 100  68 101  80 101  83 100
M  END
> <chiral flag>
0

> <version>
0

> <s_m_source_file>
/data/baiqing/PycharmProjects/Reinvent-master-3.2/result/LINK_invent/BTK/process_docking_weight1_custom_sum_contain_oxygen_bond_distance_aromatic_linkinvent_7_9_3/rearranged_h_0040.sdf

> <i_m_source_file_index>
65

> <r_mmod_Potential_Energy-OPLS-2005>
-101.123550415039

> <r_mmod_Stretch_Energy-OPLS-2005>
34.4721031188965

> <r_mmod_Bend_Energy-OPLS-2005>
93.4157104492188

> <r_mmod_Torsional_Energy-OPLS-2005>
250.651580810547

> <r_mmod_Improper_Torsional_Energy-OPLS-2005>
2.52611660957336

> <r_mmod_Van_der_Waal_Energy-OPLS-2005>
123.291229248047

> <r_mmod_Electrostatic_Energy-OPLS-2005>
-395.893524169922

> <r_mmod_Solvation_Energy-OPLS-2005>
-219.205001831055

> <b_mmod_Minimization_Converged-OPLS-2005>
0

> <r_mmod_RMS_Derivative-OPLS-2005>
1.79456841945648

$$$$
65
                    3D
 Structure written by MMmdl.
156164  0  0  1  0            999 V2000
  -30.7202  -14.4274   20.6053 C   0  0  0  0  0  0
  -30.4184  -12.2915   19.4131 C   0  0  0  0  0  0
  -29.4902  -12.5070   18.2009 C   0  0  0  0  0  0
  -28.0118  -12.3712   18.6151 C   0  0  0  0  0  0
  -27.6634  -13.2040   19.8782 C   0  0  2  0  0  0
  -28.7022  -12.9644   20.9965 C   0  0  0  0  0  0
  -25.2594  -13.8159   20.5680 C   0  0  0  0  0  0
  -24.1836  -13.0438   20.9169 C   0  0  0  0  0  0
  -24.6385  -11.6906   20.8728 C   0  0  0  0  0  0
  -23.9049  -10.4294   21.0403 C   0  0  0  0  0  0
  -24.3606   -9.4212   21.9181 C   0  0  0  0  0  0
  -23.6286   -8.2246   22.0753 C   0  0  0  0  0  0
  -22.4270   -8.0280   21.3544 C   0  0  0  0  0  0
  -21.9898   -9.0252   20.4648 C   0  0  0  0  0  0
  -22.7223  -10.2133   20.3056 C   0  0  0  0  0  0
  -21.6850   -6.0732   22.5279 C   0  0  0  0  0  0
  -21.4014   -6.5637   23.8211 C   0  0  0  0  0  0
  -21.3661   -5.6791   24.9174 C   0  0  0  0  0  0
  -21.6044   -4.3053   24.7226 C   0  0  0  0  0  0
  -21.8820   -3.8144   23.4348 C   0  0  0  0  0  0
  -21.9194   -4.6960   22.3403 C   0  0  0  0  0  0
  -22.7862  -13.5242   21.1841 C   0  0  0  0  0  0
  -22.1661   -4.2145   21.0981 F   0  0  0  0  0  0
  -21.5630   -3.4538   25.7740 F   0  0  0  0  0  0
  -30.0373  -13.2628   20.4497 N   0  0  0  0  0  0
  -26.3028  -12.9321   20.3375 N   0  0  0  0  0  0
  -25.9310  -11.6482   20.5758 N   0  0  0  0  0  0
  -22.0502  -12.8236   22.0403 N   0  0  0  0  0  0
  -25.4332  -15.1872   20.4103 N   0  0  0  0  0  0
  -31.8146  -14.6433   20.0765 O   0  0  0  0  0  0
  -21.6637   -6.8874   21.4241 O   0  0  0  0  0  0
  -22.3552  -14.5554   20.6702 O   0  0  0  0  0  0
  -24.6117  -31.8697   23.2114 C   0  0  0  0  0  0
  -25.9018  -32.4834   23.8403 C   0  0  1  0  0  0
  -27.2356  -27.4582   20.0980 C   0  0  0  0  0  0
  -25.5882  -33.8630   24.2340 N   0  0  0  0  0  0
  -23.3992  -30.4920   21.5514 C   0  0  2  0  0  0
  -24.8480  -28.9575   20.1168 C   0  0  0  0  0  0
  -22.7393  -29.4664   22.5000 C   0  0  0  0  0  0
  -18.0264  -28.1379   22.8491 C   0  0  0  0  0  0
  -24.1484  -36.7325   23.2640 C   0  0  0  0  0  0
  -25.9249  -30.8406   21.3622 C   0  0  0  0  0  0
  -26.0045  -29.4744   20.7160 C   0  0  0  0  0  0
  -27.2030  -28.7287   20.7111 C   0  0  0  0  0  0
  -26.0711  -26.9484   19.4923 C   0  0  0  0  0  0
  -24.8743  -27.6911   19.5037 C   0  0  0  0  0  0
  -23.6077  -29.8215   20.1661 C   0  0  0  0  0  0
  -25.4102  -36.3125   24.0345 C   0  0  1  0  0  0
  -20.5853  -28.3662   23.1326 C   0  0  2  0  0  0
  -20.6759  -26.9402   22.5422 C   0  0  0  0  0  0
  -19.5741  -26.6387   21.5215 C   0  0  0  0  0  0
  -18.1916  -26.7923   22.1619 C   0  0  0  0  0  0
  -19.1514  -28.8835   23.2906 C   0  0  0  0  0  0
  -18.9449  -30.1441   23.8917 C   0  0  0  0  0  0
  -17.6454  -30.6589   24.0567 C   0  0  0  0  0  0
  -25.9025  -34.9487   23.5144 C   0  0  0  0  0  0
  -16.5342  -29.9097   23.6325 C   0  0  0  0  0  0
  -16.7254  -28.6511   23.0344 C   0  0  0  0  0  0
  -26.4456  -31.6603   25.0719 C   0  0  0  0  0  0
  -25.3729  -31.3703   26.1476 C   0  0  0  0  0  0
  -27.0287  -30.3056   24.6065 C   0  0  0  0  0  0
  -27.6040  -32.4315   25.7473 C   0  0  0  0  0  0
  -27.5577  -37.1816   24.8464 C   0  0  0  0  0  0
  -21.4123  -29.3033   22.3737 N   0  0  0  0  0  0
  -26.4292  -37.3804   23.9410 N   0  0  0  0  0  0
  -24.6637  -31.0809   22.1009 N   0  0  0  0  0  0
  -23.4178  -28.8210   23.3034 O   0  0  0  0  0  0
  -28.3838  -26.7080   20.0754 O   0  0  0  0  0  0
  -26.5591  -34.8937   22.4707 O   0  0  0  0  0  0
  -23.5315  -32.1440   23.7519 O   0  0  0  0  0  0
  -28.8470  -21.3086   20.9970 C   0  0  0  0  0  0
  -29.8752  -21.3303   22.9271 C   0  0  0  0  0  0
  -29.2037  -22.1676   22.0783 C   0  0  0  0  0  0
  -28.9204  -23.6423   22.2896 C   0  0  0  0  0  0
  -28.7234  -24.4644   20.9974 C   0  0  0  0  0  0
  -29.8939  -17.5175   22.5896 C   0  0  0  0  0  0
  -30.5575  -18.8819   22.9058 C   0  0  0  0  0  0
  -30.5517  -16.7736   21.4106 C   0  0  0  0  0  0
  -28.6245  -25.9790   21.2805 C   0  0  0  0  0  0
  -29.2769  -20.0611   21.1653 N   0  0  0  0  0  0
  -29.8940  -20.0676   22.3694 N   0  0  0  0  0  0
  -30.0828  -15.3892   21.2915 N   0  0  0  0  0  0
  -31.4632  -12.3873   19.1117 H   0  0  0  0  0  0
  -30.3148  -11.2763   19.7989 H   0  0  0  0  0  0
  -29.7243  -11.7875   17.4151 H   0  0  0  0  0  0
  -29.6630  -13.4953   17.7717 H   0  0  0  0  0  0
  -27.8188  -11.3145   18.8046 H   0  0  0  0  0  0
  -27.3605  -12.6539   17.7871 H   0  0  0  0  0  0
  -27.7153  -14.2552   19.5939 H   0  0  0  0  0  0
  -28.6700  -11.9241   21.3239 H   0  0  0  0  0  0
  -28.4626  -13.5517   21.8834 H   0  0  0  0  0  0
  -25.2753   -9.5688   22.4751 H   0  0  0  0  0  0
  -23.9998   -7.4635   22.7470 H   0  0  0  0  0  0
  -21.0830   -8.8770   19.8953 H   0  0  0  0  0  0
  -22.3682  -10.9671   19.6164 H   0  0  0  0  0  0
  -21.2007   -7.6145   23.9713 H   0  0  0  0  0  0
  -21.1481   -6.0521   25.9076 H   0  0  0  0  0  0
  -22.0599   -2.7606   23.2850 H   0  0  0  0  0  0
  -22.4111  -11.9894   22.4790 H   0  0  0  0  0  0
  -21.1124  -13.1273   22.2615 H   0  0  0  0  0  0
  -24.6722  -15.8477   20.5265 H   0  0  0  0  0  0
  -26.2948  -15.6256   20.1084 H   0  0  0  0  0  0
  -26.7092  -32.5571   23.1177 H   0  0  0  0  0  0
  -25.0028  -33.9789   25.0480 H   0  0  0  0  0  0
  -22.6872  -31.3087   21.4118 H   0  0  0  0  0  0
  -23.3737  -35.9668   23.3318 H   0  0  0  0  0  0
  -24.3574  -36.8915   22.2050 H   0  0  0  0  0  0
  -23.7241  -37.6540   23.6638 H   0  0  0  0  0  0
  -26.0288  -31.6028   20.5889 H   0  0  0  0  0  0
  -26.8162  -30.9019   21.9750 H   0  0  0  0  0  0
  -28.0981  -29.1220   21.1731 H   0  0  0  0  0  0
  -26.0918  -25.9760   19.0210 H   0  0  0  0  0  0
  -23.9872  -27.2852   19.0370 H   0  0  0  0  0  0
  -23.7168  -30.5967   19.4070 H   0  0  0  0  0  0
  -22.7318  -29.2405   19.8704 H   0  0  0  0  0  0
  -25.1277  -36.2000   25.0837 H   0  0  0  0  0  0
  -20.9935  -28.3225   24.1450 H   0  0  0  0  0  0
  -20.5668  -26.2267   23.3605 H   0  0  0  0  0  0
  -21.6634  -26.7461   22.1217 H   0  0  0  0  0  0
  -19.6916  -25.6305   21.1232 H   0  0  0  0  0  0
  -19.6689  -27.3207   20.6757 H   0  0  0  0  0  0
  -17.4191  -26.6668   21.4017 H   0  0  0  0  0  0
  -18.0325  -26.0064   22.9017 H   0  0  0  0  0  0
  -19.7930  -30.7245   24.2298 H   0  0  0  0  0  0
  -17.5019  -31.6275   24.5162 H   0  0  0  0  0  0
  -15.5347  -30.3014   23.7645 H   0  0  0  0  0  0
  -15.8647  -28.0846   22.7048 H   0  0  0  0  0  0
  -24.5900  -30.7048   25.7815 H   0  0  0  0  0  0
  -24.8929  -32.2860   26.4942 H   0  0  0  0  0  0
  -25.8098  -30.8864   27.0219 H   0  0  0  0  0  0
  -26.2831  -29.6823   24.1114 H   0  0  0  0  0  0
  -27.4069  -29.7273   25.4502 H   0  0  0  0  0  0
  -27.8650  -30.4389   23.9197 H   0  0  0  0  0  0
  -27.2662  -33.3595   26.2094 H   0  0  0  0  0  0
  -28.3823  -32.6898   25.0282 H   0  0  0  0  0  0
  -28.0736  -31.8412   26.5349 H   0  0  0  0  0  0
  -28.2612  -38.0098   24.7505 H   0  0  0  0  0  0
  -28.1058  -36.2631   24.6305 H   0  0  0  0  0  0
  -27.2295  -37.1486   25.8867 H   0  0  0  0  0  0
  -20.9283  -29.8754   21.6959 H   0  0  0  0  0  0
  -26.0188  -38.2888   24.1403 H   0  0  0  0  0  0
  -28.2969  -21.5551   20.0994 H   0  0  0  0  0  0
  -30.3425  -21.5283   23.8823 H   0  0  0  0  0  0
  -29.7361  -24.0908   22.8587 H   0  0  0  0  0  0
  -28.0363  -23.7652   22.9165 H   0  0  0  0  0  0
  -27.8234  -24.1288   20.4813 H   0  0  0  0  0  0
  -29.5562  -24.2861   20.3165 H   0  0  0  0  0  0
  -28.8209  -17.6349   22.4299 H   0  0  0  0  0  0
  -29.9919  -16.8938   23.4798 H   0  0  0  0  0  0
  -31.5988  -18.8968   22.5813 H   0  0  0  0  0  0
  -30.5915  -19.0007   23.9898 H   0  0  0  0  0  0
  -31.6352  -16.7755   21.5439 H   0  0  0  0  0  0
  -30.3520  -17.3014   20.4766 H   0  0  0  0  0  0
  -29.5592  -26.3378   21.7143 H   0  0  0  0  0  0
  -27.8487  -26.1609   22.0288 H   0  0  0  0  0  0
  -29.1791  -15.1576   21.6766 H   0  0  0  0  0  0
  1 25  1  0  0  0
  1 30  2  0  0  0
  1 82  1  0  0  0
  2  3  1  0  0  0
  2 25  1  0  0  0
  2 83  1  0  0  0
  2 84  1  0  0  0
  3  4  1  0  0  0
  3 85  1  0  0  0
  3 86  1  0  0  0
  4  5  1  0  0  0
  4 87  1  0  0  0
  4 88  1  0  0  0
  5  6  1  0  0  0
  5 26  1  0  0  0
  5 89  1  0  0  0
  6 25  1  0  0  0
  6 90  1  0  0  0
  6 91  1  0  0  0
  7  8  2  0  0  0
  7 26  1  0  0  0
  7 29  1  0  0  0
  8  9  1  0  0  0
  8 22  1  0  0  0
  9 10  1  0  0  0
  9 27  2  0  0  0
 10 11  2  0  0  0
 10 15  1  0  0  0
 11 12  1  0  0  0
 11 92  1  0  0  0
 12 13  2  0  0  0
 12 93  1  0  0  0
 13 14  1  0  0  0
 13 31  1  0  0  0
 14 15  2  0  0  0
 14 94  1  0  0  0
 15 95  1  0  0  0
 16 17  2  0  0  0
 16 21  1  0  0  0
 16 31  1  0  0  0
 17 18  1  0  0  0
 17 96  1  0  0  0
 18 19  2  0  0  0
 18 97  1  0  0  0
 19 20  1  0  0  0
 19 24  1  0  0  0
 20 21  2  0  0  0
 20 98  1  0  0  0
 21 23  1  0  0  0
 22 28  1  0  0  0
 22 32  2  0  0  0
 26 27  1  0  0  0
 28 99  1  0  0  0
 28100  1  0  0  0
 29101  1  0  0  0
 29102  1  0  0  0
 33 34  1  0  0  0
 33 66  1  0  0  0
 33 70  2  0  0  0
 34 36  1  0  0  0
 34 59  1  0  0  0
 34103  1  0  0  0
 35 44  2  0  0  0
 35 45  1  0  0  0
 35 68  1  0  0  0
 36 56  1  0  0  0
 36104  1  0  0  0
 37 39  1  0  0  0
 37 47  1  0  0  0
 37 66  1  0  0  0
 37105  1  0  0  0
 38 43  2  0  0  0
 38 46  1  0  0  0
 38 47  1  0  0  0
 39 64  1  0  0  0
 39 67  2  0  0  0
 40 52  1  0  0  0
 40 53  2  0  0  0
 40 58  1  0  0  0
 41106  1  0  0  0
 41107  1  0  0  0
 41108  1  0  0  0
 41 48  1  0  0  0
 42 43  1  0  0  0
 42 66  1  0  0  0
 42109  1  0  0  0
 42110  1  0  0  0
 43 44  1  0  0  0
 44111  1  0  0  0
 45 46  2  0  0  0
 45112  1  0  0  0
 46113  1  0  0  0
 47114  1  0  0  0
 47115  1  0  0  0
 48 56  1  0  0  0
 48 65  1  0  0  0
 48116  1  0  0  0
 49 50  1  0  0  0
 49 53  1  0  0  0
 49 64  1  0  0  0
 49117  1  0  0  0
 50 51  1  0  0  0
 50118  1  0  0  0
 50119  1  0  0  0
 51 52  1  0  0  0
 51120  1  0  0  0
 51121  1  0  0  0
 52122  1  0  0  0
 52123  1  0  0  0
 53 54  1  0  0  0
 54 55  2  0  0  0
 54124  1  0  0  0
 55 57  1  0  0  0
 55125  1  0  0  0
 56 69  2  0  0  0
 57 58  2  0  0  0
 57126  1  0  0  0
 58127  1  0  0  0
 59 60  1  0  0  0
 59 61  1  0  0  0
 59 62  1  0  0  0
 60128  1  0  0  0
 60129  1  0  0  0
 60130  1  0  0  0
 61131  1  0  0  0
 61132  1  0  0  0
 61133  1  0  0  0
 62134  1  0  0  0
 62135  1  0  0  0
 62136  1  0  0  0
 63 65  1  0  0  0
 63137  1  0  0  0
 63138  1  0  0  0
 63139  1  0  0  0
 64140  1  0  0  0
 65141  1  0  0  0
 68 79  1  0  0  0
 71 73  1  0  0  0
 71 80  2  0  0  0
 71142  1  0  0  0
 72 73  2  0  0  0
 72 81  1  0  0  0
 72143  1  0  0  0
 73 74  1  0  0  0
 74 75  1  0  0  0
 74144  1  0  0  0
 74145  1  0  0  0
 75 79  1  0  0  0
 75146  1  0  0  0
 75147  1  0  0  0
 76 77  1  0  0  0
 76 78  1  0  0  0
 76148  1  0  0  0
 76149  1  0  0  0
 77 81  1  0  0  0
 77150  1  0  0  0
 77151  1  0  0  0
 78 82  1  0  0  0
 78152  1  0  0  0
 78153  1  0  0  0
 79154  1  0  0  0
 79155  1  0  0  0
 80 81  1  0  0  0
 82156  1  0  0  0
M  ISO  4   1 100  68 101  79 101  82 100
M  END
> <chiral flag>
0

> <version>
0

> <s_m_source_file>
/data/baiqing/PycharmProjects/Reinvent-master-3.2/result/LINK_invent/BTK/process_docking_weight1_custom_sum_contain_oxygen_bond_distance_aromatic_linkinvent_7_9_3/rearranged_h_0040.sdf

> <i_m_source_file_index>
66

> <r_mmod_Potential_Energy-OPLS-2005>
-99.8451690673828

> <r_mmod_Stretch_Energy-OPLS-2005>
31.6820011138916

> <r_mmod_Bend_Energy-OPLS-2005>
88.444465637207

> <r_mmod_Torsional_Energy-OPLS-2005>
235.445877075195

> <r_mmod_Improper_Torsional_Energy-OPLS-2005>
2.7131335735321

> <r_mmod_Van_der_Waal_Energy-OPLS-2005>
126.878692626953

> <r_mmod_Electrostatic_Energy-OPLS-2005>
-371.119110107422

> <r_mmod_Solvation_Energy-OPLS-2005>
-222.331359863281

> <b_mmod_Minimization_Converged-OPLS-2005>
0

> <r_mmod_RMS_Derivative-OPLS-2005>
0.930180609226227

$$$$
66
                    3D
 Structure written by MMmdl.
161169  0  0  1  0            999 V2000
  -30.7058  -14.5288   20.5503 C   0  0  0  0  0  0
  -30.4253  -12.3362   19.4312 C   0  0  0  0  0  0
  -29.4988  -12.4992   18.2092 C   0  0  0  0  0  0
  -28.0265  -12.3348   18.6330 C   0  0  0  0  0  0
  -27.6591  -13.2081   19.8624 C   0  0  2  0  0  0
  -28.7054  -13.0457   20.9892 C   0  0  0  0  0  0
  -25.2607  -13.8157   20.5670 C   0  0  0  0  0  0
  -24.1846  -13.0446   20.9201 C   0  0  0  0  0  0
  -24.6392  -11.6905   20.8758 C   0  0  0  0  0  0
  -23.9047  -10.4303   21.0415 C   0  0  0  0  0  0
  -24.3610   -9.4225   21.9188 C   0  0  0  0  0  0
  -23.6290   -8.2252   22.0757 C   0  0  0  0  0  0
  -22.4270   -8.0287   21.3557 C   0  0  0  0  0  0
  -21.9904   -9.0261   20.4657 C   0  0  0  0  0  0
  -22.7227  -10.2144   20.3054 C   0  0  0  0  0  0
  -21.6857   -6.0731   22.5269 C   0  0  0  0  0  0
  -21.4039   -6.5633   23.8211 C   0  0  0  0  0  0
  -21.3673   -5.6773   24.9166 C   0  0  0  0  0  0
  -21.6035   -4.3039   24.7204 C   0  0  0  0  0  0
  -21.8821   -3.8139   23.4328 C   0  0  0  0  0  0
  -21.9206   -4.6957   22.3392 C   0  0  0  0  0  0
  -22.7876  -13.5263   21.1845 C   0  0  0  0  0  0
  -22.1657   -4.2142   21.0965 F   0  0  0  0  0  0
  -21.5629   -3.4527   25.7723 F   0  0  0  0  0  0
  -30.0275  -13.3522   20.4208 N   0  0  0  0  0  0
  -26.3023  -12.9313   20.3311 N   0  0  0  0  0  0
  -25.9327  -11.6481   20.5768 N   0  0  0  0  0  0
  -22.0472  -12.8288   22.0396 N   0  0  0  0  0  0
  -25.4365  -15.1865   20.4072 N   0  0  0  0  0  0
  -31.8551  -14.6807   20.1342 O   0  0  0  0  0  0
  -21.6648   -6.8882   21.4233 O   0  0  0  0  0  0
  -22.3579  -14.5573   20.6694 O   0  0  0  0  0  0
  -24.6200  -31.8659   23.2056 C   0  0  0  0  0  0
  -25.9066  -32.4813   23.8372 C   0  0  1  0  0  0
  -27.2416  -27.3883   20.0916 C   0  0  0  0  0  0
  -25.5907  -33.8608   24.2304 N   0  0  0  0  0  0
  -23.4095  -30.4890   21.5495 C   0  0  2  0  0  0
  -24.8573  -28.9497   20.1096 C   0  0  0  0  0  0
  -22.7442  -29.4646   22.4987 C   0  0  0  0  0  0
  -18.0281  -28.1373   22.8513 C   0  0  0  0  0  0
  -24.1476  -36.7293   23.2639 C   0  0  0  0  0  0
  -25.9432  -30.8125   21.3689 C   0  0  0  0  0  0
  -26.0194  -29.4445   20.7132 C   0  0  0  0  0  0
  -27.2083  -28.6719   20.7012 C   0  0  0  0  0  0
  -26.0562  -26.9281   19.4668 C   0  0  0  0  0  0
  -24.8737  -27.6927   19.4831 C   0  0  0  0  0  0
  -23.6194  -29.8222   20.1628 C   0  0  0  0  0  0
  -25.4104  -36.3112   24.0341 C   0  0  1  0  0  0
  -20.5874  -28.3673   23.1317 C   0  0  2  0  0  0
  -20.6770  -26.9405   22.5427 C   0  0  0  0  0  0
  -19.5743  -26.6387   21.5223 C   0  0  0  0  0  0
  -18.1924  -26.7931   22.1635 C   0  0  0  0  0  0
  -19.1527  -28.8839   23.2922 C   0  0  0  0  0  0
  -18.9461  -30.1441   23.8942 C   0  0  0  0  0  0
  -17.6457  -30.6589   24.0565 C   0  0  0  0  0  0
  -25.9047  -34.9474   23.5130 C   0  0  0  0  0  0
  -16.5352  -29.9097   23.6303 C   0  0  0  0  0  0
  -16.7272  -28.6497   23.0367 C   0  0  0  0  0  0
  -26.4467  -31.6599   25.0720 C   0  0  0  0  0  0
  -25.3704  -31.3721   26.1451 C   0  0  0  0  0  0
  -27.0294  -30.3041   24.6112 C   0  0  0  0  0  0
  -27.6076  -32.4304   25.7471 C   0  0  0  0  0  0
  -27.5576  -37.1807   24.8470 C   0  0  0  0  0  0
  -21.4157  -29.3045   22.3727 N   0  0  0  0  0  0
  -26.4289  -37.3803   23.9414 N   0  0  0  0  0  0
  -24.6767  -31.0705   22.0992 N   0  0  0  0  0  0
  -23.4199  -28.8211   23.3054 O   0  0  0  0  0  0
  -28.4155  -26.6376   20.1334 O   0  0  0  0  0  0
  -26.5619  -34.8942   22.4706 O   0  0  0  0  0  0
  -23.5373  -32.1442   23.7409 O   0  0  0  0  0  0
  -29.5527  -21.7453   20.4175 C   0  0  0  0  0  0
  -30.4339  -22.9361   18.5144 C   0  0  0  0  0  0
  -29.8113  -22.9890   19.7703 C   0  0  0  0  0  0
  -29.8612  -20.5106   19.7653 C   0  0  0  0  0  0
  -30.3940  -20.6056   18.4525 C   0  0  0  0  0  0
  -30.4449  -19.6259   16.0747 C   0  0  0  0  0  0
  -29.5268  -24.3795   20.3918 C   0  0  0  0  0  0
  -29.5512  -19.1385   20.4462 C   0  0  0  0  0  0
  -30.6540  -19.3837   17.5772 C   0  0  0  0  0  0
  -30.6938  -18.0551   20.5085 C   0  0  0  0  0  0
  -30.5483  -16.8714   21.5332 C   0  0  0  0  0  0
  -28.4336  -25.2515   19.6859 C   0  0  0  0  0  0
  -30.7246  -21.7860   17.8820 N   0  0  0  0  0  0
  -30.0058  -15.5724   21.0524 N   0  0  0  0  0  0
  -31.4711  -12.4248   19.1334 H   0  0  0  0  0  0
  -30.3205  -11.3375   19.8575 H   0  0  0  0  0  0
  -29.7552  -11.7697   17.4395 H   0  0  0  0  0  0
  -29.6465  -13.4826   17.7634 H   0  0  0  0  0  0
  -27.8768  -11.2824   18.8736 H   0  0  0  0  0  0
  -27.3626  -12.5555   17.7953 H   0  0  0  0  0  0
  -27.6867  -14.2460   19.5300 H   0  0  0  0  0  0
  -28.6958  -12.0252   21.3718 H   0  0  0  0  0  0
  -28.4647  -13.6842   21.8408 H   0  0  0  0  0  0
  -25.2738   -9.5713   22.4783 H   0  0  0  0  0  0
  -24.0000   -7.4644   22.7483 H   0  0  0  0  0  0
  -21.0838   -8.8793   19.8960 H   0  0  0  0  0  0
  -22.3687  -10.9696   19.6182 H   0  0  0  0  0  0
  -21.2034   -7.6140   23.9726 H   0  0  0  0  0  0
  -21.1497   -6.0495   25.9075 H   0  0  0  0  0  0
  -22.0593   -2.7601   23.2824 H   0  0  0  0  0  0
  -22.4022  -11.9931   22.4788 H   0  0  0  0  0  0
  -21.1099  -13.1381   22.2562 H   0  0  0  0  0  0
  -24.6809  -15.8510   20.5329 H   0  0  0  0  0  0
  -26.2750  -15.6131   20.0319 H   0  0  0  0  0  0
  -26.7144  -32.5495   23.1131 H   0  0  0  0  0  0
  -25.0044  -33.9766   25.0439 H   0  0  0  0  0  0
  -22.6996  -31.3070   21.4086 H   0  0  0  0  0  0
  -23.3755  -35.9609   23.3324 H   0  0  0  0  0  0
  -24.3568  -36.8888   22.2050 H   0  0  0  0  0  0
  -23.7197  -37.6493   23.6638 H   0  0  0  0  0  0
  -26.0635  -31.5764   20.5993 H   0  0  0  0  0  0
  -26.8288  -30.8623   21.9911 H   0  0  0  0  0  0
  -28.1032  -29.0549   21.1748 H   0  0  0  0  0  0
  -26.0153  -25.9808   18.9506 H   0  0  0  0  0  0
  -23.9856  -27.3073   18.9993 H   0  0  0  0  0  0
  -23.7268  -30.5991   19.4046 H   0  0  0  0  0  0
  -22.7417  -29.2469   19.8653 H   0  0  0  0  0  0
  -25.1273  -36.1988   25.0831 H   0  0  0  0  0  0
  -20.9966  -28.3243   24.1439 H   0  0  0  0  0  0
  -20.5665  -26.2290   23.3631 H   0  0  0  0  0  0
  -21.6648  -26.7448   22.1227 H   0  0  0  0  0  0
  -19.6914  -25.6298   21.1260 H   0  0  0  0  0  0
  -19.6687  -27.3201   20.6759 H   0  0  0  0  0  0
  -17.4209  -26.6706   21.4032 H   0  0  0  0  0  0
  -18.0314  -26.0055   22.9007 H   0  0  0  0  0  0
  -19.7934  -30.7240   24.2363 H   0  0  0  0  0  0
  -17.5013  -31.6279   24.5155 H   0  0  0  0  0  0
  -15.5356  -30.3030   23.7569 H   0  0  0  0  0  0
  -15.8674  -28.0809   22.7090 H   0  0  0  0  0  0
  -24.5896  -30.7060   25.7757 H   0  0  0  0  0  0
  -24.8868  -32.2883   26.4862 H   0  0  0  0  0  0
  -25.8023  -30.8901   27.0232 H   0  0  0  0  0  0
  -26.2846  -29.6831   24.1130 H   0  0  0  0  0  0
  -27.4027  -29.7256   25.4567 H   0  0  0  0  0  0
  -27.8701  -30.4363   23.9295 H   0  0  0  0  0  0
  -27.2743  -33.3624   26.2042 H   0  0  0  0  0  0
  -28.3875  -32.6824   25.0273 H   0  0  0  0  0  0
  -28.0746  -31.8417   26.5373 H   0  0  0  0  0  0
  -28.2623  -38.0078   24.7515 H   0  0  0  0  0  0
  -28.1050  -36.2625   24.6301 H   0  0  0  0  0  0
  -27.2313  -37.1457   25.8879 H   0  0  0  0  0  0
  -20.9326  -29.8751   21.6924 H   0  0  0  0  0  0
  -26.0189  -38.2890   24.1418 H   0  0  0  0  0  0
  -29.1171  -21.7401   21.4069 H   0  0  0  0  0  0
  -30.7120  -23.8437   17.9977 H   0  0  0  0  0  0
  -30.5059  -18.6874   15.5232 H   0  0  0  0  0  0
  -31.2047  -20.2940   15.6694 H   0  0  0  0  0  0
  -29.4674  -20.0736   15.8875 H   0  0  0  0  0  0
  -30.4700  -24.9273   20.3696 H   0  0  0  0  0  0
  -29.2750  -24.2678   21.4454 H   0  0  0  0  0  0
  -28.6789  -18.7053   19.9545 H   0  0  0  0  0  0
  -29.2341  -19.3453   21.4679 H   0  0  0  0  0  0
  -29.9519  -18.5955   17.8479 H   0  0  0  0  0  0
  -31.6601  -19.0052   17.7639 H   0  0  0  0  0  0
  -31.5996  -18.5885   20.8029 H   0  0  0  0  0  0
  -30.9215  -17.6392   19.5307 H   0  0  0  0  0  0
  -29.9550  -17.1956   22.3889 H   0  0  0  0  0  0
  -31.5375  -16.6611   21.9502 H   0  0  0  0  0  0
  -27.4790  -24.7525   19.8508 H   0  0  0  0  0  0
  -28.6085  -25.2620   18.6082 H   0  0  0  0  0  0
  -29.0426  -15.3704   21.2801 H   0  0  0  0  0  0
  1 25  1  0  0  0
  1 30  2  0  0  0
  1 84  1  0  0  0
  2  3  1  0  0  0
  2 25  1  0  0  0
  2 85  1  0  0  0
  2 86  1  0  0  0
  3  4  1  0  0  0
  3 87  1  0  0  0
  3 88  1  0  0  0
  4  5  1  0  0  0
  4 89  1  0  0  0
  4 90  1  0  0  0
  5  6  1  0  0  0
  5 26  1  0  0  0
  5 91  1  0  0  0
  6 25  1  0  0  0
  6 92  1  0  0  0
  6 93  1  0  0  0
  7  8  2  0  0  0
  7 26  1  0  0  0
  7 29  1  0  0  0
  8  9  1  0  0  0
  8 22  1  0  0  0
  9 10  1  0  0  0
  9 27  2  0  0  0
 10 11  2  0  0  0
 10 15  1  0  0  0
 11 12  1  0  0  0
 11 94  1  0  0  0
 12 13  2  0  0  0
 12 95  1  0  0  0
 13 14  1  0  0  0
 13 31  1  0  0  0
 14 15  2  0  0  0
 14 96  1  0  0  0
 15 97  1  0  0  0
 16 17  2  0  0  0
 16 21  1  0  0  0
 16 31  1  0  0  0
 17 18  1  0  0  0
 17 98  1  0  0  0
 18 19  2  0  0  0
 18 99  1  0  0  0
 19 20  1  0  0  0
 19 24  1  0  0  0
 20 21  2  0  0  0
 20100  1  0  0  0
 21 23  1  0  0  0
 22 28  1  0  0  0
 22 32  2  0  0  0
 26 27  1  0  0  0
 28101  1  0  0  0
 28102  1  0  0  0
 29103  1  0  0  0
 29104  1  0  0  0
 33 34  1  0  0  0
 33 66  1  0  0  0
 33 70  2  0  0  0
 34 36  1  0  0  0
 34 59  1  0  0  0
 34105  1  0  0  0
 35 44  2  0  0  0
 35 45  1  0  0  0
 35 68  1  0  0  0
 36 56  1  0  0  0
 36106  1  0  0  0
 37 39  1  0  0  0
 37 47  1  0  0  0
 37 66  1  0  0  0
 37107  1  0  0  0
 38 43  2  0  0  0
 38 46  1  0  0  0
 38 47  1  0  0  0
 39 64  1  0  0  0
 39 67  2  0  0  0
 40 52  1  0  0  0
 40 53  2  0  0  0
 40 58  1  0  0  0
 41108  1  0  0  0
 41109  1  0  0  0
 41110  1  0  0  0
 41 48  1  0  0  0
 42 43  1  0  0  0
 42 66  1  0  0  0
 42111  1  0  0  0
 42112  1  0  0  0
 43 44  1  0  0  0
 44113  1  0  0  0
 45 46  2  0  0  0
 45114  1  0  0  0
 46115  1  0  0  0
 47116  1  0  0  0
 47117  1  0  0  0
 48 56  1  0  0  0
 48 65  1  0  0  0
 48118  1  0  0  0
 49 50  1  0  0  0
 49 53  1  0  0  0
 49 64  1  0  0  0
 49119  1  0  0  0
 50 51  1  0  0  0
 50120  1  0  0  0
 50121  1  0  0  0
 51 52  1  0  0  0
 51122  1  0  0  0
 51123  1  0  0  0
 52124  1  0  0  0
 52125  1  0  0  0
 53 54  1  0  0  0
 54 55  2  0  0  0
 54126  1  0  0  0
 55 57  1  0  0  0
 55127  1  0  0  0
 56 69  2  0  0  0
 57 58  2  0  0  0
 57128  1  0  0  0
 58129  1  0  0  0
 59 60  1  0  0  0
 59 61  1  0  0  0
 59 62  1  0  0  0
 60130  1  0  0  0
 60131  1  0  0  0
 60132  1  0  0  0
 61133  1  0  0  0
 61134  1  0  0  0
 61135  1  0  0  0
 62136  1  0  0  0
 62137  1  0  0  0
 62138  1  0  0  0
 63 65  1  0  0  0
 63139  1  0  0  0
 63140  1  0  0  0
 63141  1  0  0  0
 64142  1  0  0  0
 65143  1  0  0  0
 68 82  1  0  0  0
 71 73  2  0  0  0
 71 74  1  0  0  0
 71144  1  0  0  0
 72 73  1  0  0  0
 72 83  2  0  0  0
 72145  1  0  0  0
 73 77  1  0  0  0
 74 75  2  0  0  0
 74 78  1  0  0  0
 75 79  1  0  0  0
 75 83  1  0  0  0
 76 79  1  0  0  0
 76146  1  0  0  0
 76147  1  0  0  0
 76148  1  0  0  0
 77 82  1  0  0  0
 77149  1  0  0  0
 77150  1  0  0  0
 78 80  1  0  0  0
 78151  1  0  0  0
 78152  1  0  0  0
 79153  1  0  0  0
 79154  1  0  0  0
 80 81  1  0  0  0
 80155  1  0  0  0
 80156  1  0  0  0
 81 84  1  0  0  0
 81157  1  0  0  0
 81158  1  0  0  0
 82159  1  0  0  0
 82160  1  0  0  0
 84161  1  0  0  0
M  ISO  4   1 100  68 101  82 101  84 100
M  END
> <chiral flag>
0

> <version>
0

> <s_m_source_file>
/data/baiqing/PycharmProjects/Reinvent-master-3.2/result/LINK_invent/BTK/process_docking_weight1_custom_sum_contain_oxygen_bond_distance_aromatic_linkinvent_7_9_3/rearranged_h_0040.sdf

> <i_m_source_file_index>
67

> <r_mmod_Potential_Energy-OPLS-2005>
-187.18782043457

> <r_mmod_Stretch_Energy-OPLS-2005>
55.0124206542969

> <r_mmod_Bend_Energy-OPLS-2005>
121.956489562988

> <r_mmod_Torsional_Energy-OPLS-2005>
207.729415893555

> <r_mmod_Improper_Torsional_Energy-OPLS-2005>
3.33454132080078

> <r_mmod_Van_der_Waal_Energy-OPLS-2005>
155.090744018555

> <r_mmod_Electrostatic_Energy-OPLS-2005>
-530.409851074219

> <r_mmod_Solvation_Energy-OPLS-2005>
-222.669952392578

> <b_mmod_Minimization_Converged-OPLS-2005>
0

> <r_mmod_RMS_Derivative-OPLS-2005>
3.34641003608704

$$$$
67
                    3D
 Structure written by MMmdl.
154162  0  0  1  0            999 V2000
  -30.5053  -15.3026   20.3428 C   0  0  0  0  0  0
  -30.4125  -12.8329   19.5415 C   0  0  0  0  0  0
  -29.5297  -12.5776   18.2964 C   0  0  0  0  0  0
  -28.0812  -12.2982   18.7223 C   0  0  0  0  0  0
  -27.5974  -13.2934   19.8061 C   0  0  2  0  0  0
  -28.6219  -13.5375   20.9338 C   0  0  0  0  0  0
  -25.2341  -13.8295   20.5770 C   0  0  0  0  0  0
  -24.1712  -13.0455   20.9262 C   0  0  0  0  0  0
  -24.6393  -11.6958   20.8757 C   0  0  0  0  0  0
  -23.9102  -10.4304   21.0402 C   0  0  0  0  0  0
  -24.3646   -9.4216   21.9179 C   0  0  0  0  0  0
  -23.6313   -8.2253   22.0752 C   0  0  0  0  0  0
  -22.4294   -8.0290   21.3543 C   0  0  0  0  0  0
  -21.9933   -9.0267   20.4646 C   0  0  0  0  0  0
  -22.7272  -10.2141   20.3052 C   0  0  0  0  0  0
  -21.6861   -6.0742   22.5278 C   0  0  0  0  0  0
  -21.4021   -6.5643   23.8213 C   0  0  0  0  0  0
  -21.3661   -5.6792   24.9173 C   0  0  0  0  0  0
  -21.6044   -4.3055   24.7222 C   0  0  0  0  0  0
  -21.8819   -3.8149   23.4343 C   0  0  0  0  0  0
  -21.9194   -4.6968   22.3400 C   0  0  0  0  0  0
  -22.7727  -13.5189   21.1907 C   0  0  0  0  0  0
  -22.1661   -4.2153   21.0978 F   0  0  0  0  0  0
  -21.5626   -3.4538   25.7735 F   0  0  0  0  0  0
  -29.8591  -14.0249   20.3025 N   0  0  0  0  0  0
  -26.2759  -12.9599   20.3179 N   0  0  0  0  0  0
  -25.9330  -11.6686   20.5698 N   0  0  0  0  0  0
  -22.0393  -12.8169   22.0464 N   0  0  0  0  0  0
  -25.3984  -15.2036   20.4268 N   0  0  0  0  0  0
  -31.7284  -15.1344   20.2008 O   0  0  0  0  0  0
  -21.6650   -6.8891   21.4243 O   0  0  0  0  0  0
  -22.3402  -14.5487   20.6747 O   0  0  0  0  0  0
  -24.6647  -31.8217   23.1690 C   0  0  0  0  0  0
  -25.9317  -32.4579   23.8163 C   0  0  1  0  0  0
  -27.2087  -26.9036   20.1883 C   0  0  0  0  0  0
  -25.5977  -33.8395   24.2065 N   0  0  0  0  0  0
  -23.4798  -30.4333   21.5193 C   0  0  2  0  0  0
  -24.9310  -28.8156   20.1146 C   0  0  0  0  0  0
  -22.7672  -29.4430   22.4777 C   0  0  0  0  0  0
  -18.0324  -28.1410   22.8464 C   0  0  0  0  0  0
  -24.1495  -36.7200   23.2646 C   0  0  0  0  0  0
  -26.0507  -30.6207   21.4024 C   0  0  0  0  0  0
  -26.1170  -29.2080   20.7475 C   0  0  0  0  0  0
  -27.2519  -28.2744   20.7561 C   0  0  0  0  0  0
  -25.9934  -26.6690   19.5076 C   0  0  0  0  0  0
  -24.8958  -27.5674   19.4739 C   0  0  0  0  0  0
  -23.7204  -29.7480   20.1464 C   0  0  0  0  0  0
  -25.4137  -36.2961   24.0297 C   0  0  1  0  0  0
  -20.5949  -28.3753   23.1183 C   0  0  2  0  0  0
  -20.6801  -26.9434   22.5400 C   0  0  0  0  0  0
  -19.5775  -26.6376   21.5212 C   0  0  0  0  0  0
  -18.1958  -26.7942   22.1622 C   0  0  0  0  0  0
  -19.1586  -28.8903   23.2810 C   0  0  0  0  0  0
  -18.9495  -30.1493   23.8845 C   0  0  0  0  0  0
  -17.6487  -30.6598   24.0555 C   0  0  0  0  0  0
  -25.9102  -34.9344   23.5004 C   0  0  0  0  0  0
  -16.5378  -29.9083   23.6346 C   0  0  0  0  0  0
  -16.7306  -28.6506   23.0362 C   0  0  0  0  0  0
  -26.4565  -31.6532   25.0701 C   0  0  0  0  0  0
  -25.3683  -31.3787   26.1349 C   0  0  0  0  0  0
  -27.0468  -30.2897   24.6453 C   0  0  0  0  0  0
  -27.6053  -32.4347   25.7504 C   0  0  0  0  0  0
  -27.5571  -37.1757   24.8465 C   0  0  0  0  0  0
  -21.4340  -29.3039   22.3526 N   0  0  0  0  0  0
  -26.4282  -37.3698   23.9405 N   0  0  0  0  0  0
  -24.7535  -30.9860   22.0836 N   0  0  0  0  0  0
  -23.4212  -28.8000   23.3026 O   0  0  0  0  0  0
  -28.2052  -25.7866   20.2480 O   0  0  0  0  0  0
  -26.5717  -34.8884   22.4604 O   0  0  0  0  0  0
  -23.5711  -32.1197   23.6770 O   0  0  0  0  0  0
  -31.0375  -17.8416   19.7159 C   0  0  0  0  0  0
  -30.0388  -16.9523   20.2648 C   0  0  0  0  0  0
  -30.6560  -19.1870   19.7072 C   0  0  0  0  0  0
  -31.8771  -21.9082   17.2057 C   0  0  0  0  0  0
  -31.4586  -20.3304   19.1727 C   0  0  0  0  0  0
  -31.0858  -20.7034   17.7293 C   0  0  0  0  0  0
  -28.9049  -22.6131   20.2463 C   0  0  0  0  0  0
  -28.5014  -20.8407   20.3587 C   0  0  0  0  0  0
  -27.9207  -24.1472   20.2214 C   0  0  0  0  0  0
  -29.0433  -17.9776   20.5738 N   0  0  0  0  0  0
  -29.3901  -19.4010   20.2510 N   0  0  0  0  0  0
  -31.4400  -12.9865   19.2105 H   0  0  0  0  0  0
  -30.4497  -11.9472   20.1779 H   0  0  0  0  0  0
  -29.9207  -11.7409   17.7159 H   0  0  0  0  0  0
  -29.5610  -13.4498   17.6414 H   0  0  0  0  0  0
  -28.0464  -11.2816   19.1163 H   0  0  0  0  0  0
  -27.4164  -12.3150   17.8579 H   0  0  0  0  0  0
  -27.4924  -14.2426   19.2788 H   0  0  0  0  0  0
  -28.7919  -12.6362   21.5247 H   0  0  0  0  0  0
  -28.2488  -14.2961   21.6235 H   0  0  0  0  0  0
  -25.2788   -9.5691   22.4759 H   0  0  0  0  0  0
  -24.0017   -7.4646   22.7477 H   0  0  0  0  0  0
  -21.0861   -8.8799   19.8956 H   0  0  0  0  0  0
  -22.3732  -10.9683   19.6165 H   0  0  0  0  0  0
  -21.2021   -7.6152   23.9720 H   0  0  0  0  0  0
  -21.1479   -6.0520   25.9077 H   0  0  0  0  0  0
  -22.0597   -2.7611   23.2841 H   0  0  0  0  0  0
  -22.4034  -11.9849   22.4864 H   0  0  0  0  0  0
  -21.1002  -13.1171   22.2666 H   0  0  0  0  0  0
  -24.6360  -15.8582   20.5646 H   0  0  0  0  0  0
  -26.2608  -15.6550   20.1463 H   0  0  0  0  0  0
  -26.7385  -32.5111   23.0876 H   0  0  0  0  0  0
  -25.0068  -33.9475   25.0177 H   0  0  0  0  0  0
  -22.7937  -31.2653   21.3471 H   0  0  0  0  0  0
  -23.3773  -35.9514   23.3278 H   0  0  0  0  0  0
  -24.3566  -36.8880   22.2066 H   0  0  0  0  0  0
  -23.7240  -37.6372   23.6726 H   0  0  0  0  0  0
  -26.2334  -31.3602   20.6214 H   0  0  0  0  0  0
  -26.9096  -30.6777   22.0593 H   0  0  0  0  0  0
  -28.1511  -28.5737   21.2761 H   0  0  0  0  0  0
  -25.8558  -25.7188   19.0137 H   0  0  0  0  0  0
  -23.9950  -27.2608   18.9602 H   0  0  0  0  0  0
  -23.8794  -30.5154   19.3878 H   0  0  0  0  0  0
  -22.8290  -29.2047   19.8281 H   0  0  0  0  0  0
  -25.1338  -36.1755   25.0788 H   0  0  0  0  0  0
  -21.0041  -28.3365   24.1304 H   0  0  0  0  0  0
  -20.5681  -26.2373   23.3641 H   0  0  0  0  0  0
  -21.6665  -26.7407   22.1207 H   0  0  0  0  0  0
  -19.6934  -25.6273   21.1274 H   0  0  0  0  0  0
  -19.6717  -27.3160   20.6721 H   0  0  0  0  0  0
  -17.4226  -26.6683   21.4026 H   0  0  0  0  0  0
  -18.0354  -26.0097   22.9032 H   0  0  0  0  0  0
  -19.7968  -30.7325   24.2191 H   0  0  0  0  0  0
  -17.5037  -31.6272   24.5165 H   0  0  0  0  0  0
  -15.5375  -30.2967   23.7698 H   0  0  0  0  0  0
  -15.8709  -28.0806   22.7105 H   0  0  0  0  0  0
  -24.5881  -30.7124   25.7649 H   0  0  0  0  0  0
  -24.8855  -32.2991   26.4645 H   0  0  0  0  0  0
  -25.7903  -30.9034   27.0213 H   0  0  0  0  0  0
  -26.3144  -29.6561   24.1441 H   0  0  0  0  0  0
  -27.3971  -29.7274   25.5119 H   0  0  0  0  0  0
  -27.9095  -30.4072   23.9893 H   0  0  0  0  0  0
  -27.2621  -33.3693   26.1953 H   0  0  0  0  0  0
  -28.3932  -32.6835   25.0382 H   0  0  0  0  0  0
  -28.0649  -31.8561   26.5528 H   0  0  0  0  0  0
  -28.2567  -38.0072   24.7514 H   0  0  0  0  0  0
  -28.1091  -36.2598   24.6296 H   0  0  0  0  0  0
  -27.2284  -37.1399   25.8866 H   0  0  0  0  0  0
  -20.9596  -29.8723   21.6648 H   0  0  0  0  0  0
  -26.0129  -38.2755   24.1416 H   0  0  0  0  0  0
  -31.9955  -17.5093   19.3403 H   0  0  0  0  0  0
  -31.6047  -22.1347   16.1742 H   0  0  0  0  0  0
  -32.9507  -21.7175   17.2299 H   0  0  0  0  0  0
  -31.6819  -22.7997   17.8027 H   0  0  0  0  0  0
  -32.5178  -20.0739   19.2141 H   0  0  0  0  0  0
  -31.3466  -21.1943   19.8271 H   0  0  0  0  0  0
  -31.2589  -19.8451   17.0784 H   0  0  0  0  0  0
  -30.0190  -20.9218   17.6679 H   0  0  0  0  0  0
  -29.5114  -22.6921   19.3452 H   0  0  0  0  0  0
  -29.6196  -22.7697   21.0540 H   0  0  0  0  0  0
  -27.7193  -20.7081   19.6116 H   0  0  0  0  0  0
  -27.9651  -20.7470   21.3029 H   0  0  0  0  0  0
  -27.2282  -24.0221   21.0543 H   0  0  0  0  0  0
  -27.2921  -24.0214   19.3407 H   0  0  0  0  0  0
  1 25  1  0  0  0
  1 30  2  0  0  0
  1 72  1  0  0  0
  2  3  1  0  0  0
  2 25  1  0  0  0
  2 82  1  0  0  0
  2 83  1  0  0  0
  3  4  1  0  0  0
  3 84  1  0  0  0
  3 85  1  0  0  0
  4  5  1  0  0  0
  4 86  1  0  0  0
  4 87  1  0  0  0
  5  6  1  0  0  0
  5 26  1  0  0  0
  5 88  1  0  0  0
  6 25  1  0  0  0
  6 89  1  0  0  0
  6 90  1  0  0  0
  7  8  2  0  0  0
  7 26  1  0  0  0
  7 29  1  0  0  0
  8  9  1  0  0  0
  8 22  1  0  0  0
  9 10  1  0  0  0
  9 27  2  0  0  0
 10 11  2  0  0  0
 10 15  1  0  0  0
 11 12  1  0  0  0
 11 91  1  0  0  0
 12 13  2  0  0  0
 12 92  1  0  0  0
 13 14  1  0  0  0
 13 31  1  0  0  0
 14 15  2  0  0  0
 14 93  1  0  0  0
 15 94  1  0  0  0
 16 17  2  0  0  0
 16 21  1  0  0  0
 16 31  1  0  0  0
 17 18  1  0  0  0
 17 95  1  0  0  0
 18 19  2  0  0  0
 18 96  1  0  0  0
 19 20  1  0  0  0
 19 24  1  0  0  0
 20 21  2  0  0  0
 20 97  1  0  0  0
 21 23  1  0  0  0
 22 28  1  0  0  0
 22 32  2  0  0  0
 26 27  1  0  0  0
 28 98  1  0  0  0
 28 99  1  0  0  0
 29100  1  0  0  0
 29101  1  0  0  0
 33 34  1  0  0  0
 33 66  1  0  0  0
 33 70  2  0  0  0
 34 36  1  0  0  0
 34 59  1  0  0  0
 34102  1  0  0  0
 35 44  2  0  0  0
 35 45  1  0  0  0
 35 68  1  0  0  0
 36 56  1  0  0  0
 36103  1  0  0  0
 37 39  1  0  0  0
 37 47  1  0  0  0
 37 66  1  0  0  0
 37104  1  0  0  0
 38 43  2  0  0  0
 38 46  1  0  0  0
 38 47  1  0  0  0
 39 64  1  0  0  0
 39 67  2  0  0  0
 40 52  1  0  0  0
 40 53  2  0  0  0
 40 58  1  0  0  0
 41105  1  0  0  0
 41106  1  0  0  0
 41107  1  0  0  0
 41 48  1  0  0  0
 42 43  1  0  0  0
 42 66  1  0  0  0
 42108  1  0  0  0
 42109  1  0  0  0
 43 44  1  0  0  0
 44110  1  0  0  0
 45 46  2  0  0  0
 45111  1  0  0  0
 46112  1  0  0  0
 47113  1  0  0  0
 47114  1  0  0  0
 48 56  1  0  0  0
 48 65  1  0  0  0
 48115  1  0  0  0
 49 50  1  0  0  0
 49 53  1  0  0  0
 49 64  1  0  0  0
 49116  1  0  0  0
 50 51  1  0  0  0
 50117  1  0  0  0
 50118  1  0  0  0
 51 52  1  0  0  0
 51119  1  0  0  0
 51120  1  0  0  0
 52121  1  0  0  0
 52122  1  0  0  0
 53 54  1  0  0  0
 54 55  2  0  0  0
 54123  1  0  0  0
 55 57  1  0  0  0
 55124  1  0  0  0
 56 69  2  0  0  0
 57 58  2  0  0  0
 57125  1  0  0  0
 58126  1  0  0  0
 59 60  1  0  0  0
 59 61  1  0  0  0
 59 62  1  0  0  0
 60127  1  0  0  0
 60128  1  0  0  0
 60129  1  0  0  0
 61130  1  0  0  0
 61131  1  0  0  0
 61132  1  0  0  0
 62133  1  0  0  0
 62134  1  0  0  0
 62135  1  0  0  0
 63 65  1  0  0  0
 63136  1  0  0  0
 63137  1  0  0  0
 63138  1  0  0  0
 64139  1  0  0  0
 65140  1  0  0  0
 68 79  1  0  0  0
 71 72  1  0  0  0
 71 73  2  0  0  0
 71141  1  0  0  0
 72 80  2  0  0  0
 73 75  1  0  0  0
 73 81  1  0  0  0
 74 76  1  0  0  0
 74142  1  0  0  0
 74143  1  0  0  0
 74144  1  0  0  0
 75 76  1  0  0  0
 75145  1  0  0  0
 75146  1  0  0  0
 76147  1  0  0  0
 76148  1  0  0  0
 77 78  1  0  0  0
 77 79  1  0  0  0
 77149  1  0  0  0
 77150  1  0  0  0
 78 81  1  0  0  0
 78151  1  0  0  0
 78152  1  0  0  0
 79153  1  0  0  0
 79154  1  0  0  0
 80 81  1  0  0  0
M  ISO  4   1 100  68 101  72 100  79 101
M  END
> <chiral flag>
0

> <version>
0

> <s_m_source_file>
/data/baiqing/PycharmProjects/Reinvent-master-3.2/result/LINK_invent/BTK/process_docking_weight1_custom_sum_contain_oxygen_bond_distance_aromatic_linkinvent_7_9_3/rearranged_h_0040.sdf

> <i_m_source_file_index>
68

> <r_mmod_Potential_Energy-OPLS-2005>
1537.61022949219

> <r_mmod_Stretch_Energy-OPLS-2005>
647.136779785156

> <r_mmod_Bend_Energy-OPLS-2005>
517.350280761719

> <r_mmod_Torsional_Energy-OPLS-2005>
221.82389831543

> <r_mmod_Improper_Torsional_Energy-OPLS-2005>
6.45704078674316

> <r_mmod_Van_der_Waal_Energy-OPLS-2005>
108.843955993652

> <r_mmod_Electrostatic_Energy-OPLS-2005>
-254.616958618164

> <r_mmod_Solvation_Energy-OPLS-2005>
-199.336853027344

> <b_mmod_Minimization_Converged-OPLS-2005>
0

> <r_mmod_RMS_Derivative-OPLS-2005>
0.452776402235031

$$$$
68
                    3D
 Structure written by MMmdl.
162170  0  0  1  0            999 V2000
  -30.5058  -14.9297   20.4234 C   0  0  0  0  0  0
  -30.4487  -12.5658   19.5117 C   0  0  0  0  0  0
  -29.5297  -12.5256   18.2662 C   0  0  0  0  0  0
  -28.0607  -12.3049   18.6772 C   0  0  0  0  0  0
  -27.6316  -13.2395   19.8375 C   0  0  2  0  0  0
  -28.6663  -13.2509   20.9804 C   0  0  0  0  0  0
  -25.2477  -13.8195   20.5700 C   0  0  0  0  0  0
  -24.1775  -13.0434   20.9205 C   0  0  0  0  0  0
  -24.6372  -11.6914   20.8725 C   0  0  0  0  0  0
  -23.9056  -10.4293   21.0392 C   0  0  0  0  0  0
  -24.3609   -9.4220   21.9183 C   0  0  0  0  0  0
  -23.6295   -8.2249   22.0752 C   0  0  0  0  0  0
  -22.4281   -8.0275   21.3539 C   0  0  0  0  0  0
  -21.9906   -9.0243   20.4639 C   0  0  0  0  0  0
  -22.7224  -10.2130   20.3048 C   0  0  0  0  0  0
  -21.6851   -6.0733   22.5279 C   0  0  0  0  0  0
  -21.4017   -6.5639   23.8213 C   0  0  0  0  0  0
  -21.3666   -5.6794   24.9177 C   0  0  0  0  0  0
  -21.6039   -4.3054   24.7227 C   0  0  0  0  0  0
  -21.8819   -3.8145   23.4350 C   0  0  0  0  0  0
  -21.9198   -4.6961   22.3406 C   0  0  0  0  0  0
  -22.7801  -13.5214   21.1895 C   0  0  0  0  0  0
  -22.1661   -4.2147   21.0981 F   0  0  0  0  0  0
  -21.5634   -3.4536   25.7740 F   0  0  0  0  0  0
  -29.9582  -13.6493   20.4080 N   0  0  0  0  0  0
  -26.2877  -12.9403   20.3204 N   0  0  0  0  0  0
  -25.9296  -11.6540   20.5698 N   0  0  0  0  0  0
  -22.0454  -12.8185   22.0442 N   0  0  0  0  0  0
  -25.4196  -15.1924   20.4169 N   0  0  0  0  0  0
  -31.7050  -15.0227   20.1363 O   0  0  0  0  0  0
  -21.6641   -6.8874   21.4241 O   0  0  0  0  0  0
  -22.3475  -14.5524   20.6759 O   0  0  0  0  0  0
  -24.6402  -31.8461   23.1880 C   0  0  0  0  0  0
  -25.9177  -32.4696   23.8270 C   0  0  1  0  0  0
  -27.2101  -27.1458   20.1551 C   0  0  0  0  0  0
  -25.5936  -33.8507   24.2186 N   0  0  0  0  0  0
  -23.4433  -30.4688   21.5322 C   0  0  2  0  0  0
  -24.8936  -28.9003   20.1092 C   0  0  0  0  0  0
  -22.7550  -29.4569   22.4831 C   0  0  0  0  0  0
  -18.0310  -28.1385   22.8481 C   0  0  0  0  0  0
  -24.1494  -36.7260   23.2645 C   0  0  0  0  0  0
  -25.9989  -30.7238   21.3870 C   0  0  0  0  0  0
  -26.0703  -29.3367   20.7301 C   0  0  0  0  0  0
  -27.2320  -28.4755   20.7378 C   0  0  0  0  0  0
  -26.0114  -26.8175   19.4839 C   0  0  0  0  0  0
  -24.8758  -27.6543   19.4705 C   0  0  0  0  0  0
  -23.6701  -29.8029   20.1508 C   0  0  0  0  0  0
  -25.4120  -36.3033   24.0321 C   0  0  1  0  0  0
  -20.5921  -28.3707   23.1212 C   0  0  2  0  0  0
  -20.6791  -26.9401   22.5392 C   0  0  0  0  0  0
  -19.5770  -26.6374   21.5191 C   0  0  0  0  0  0
  -18.1952  -26.7937   22.1612 C   0  0  0  0  0  0
  -19.1573  -28.8866   23.2845 C   0  0  0  0  0  0
  -18.9497  -30.1464   23.8866 C   0  0  0  0  0  0
  -17.6499  -30.6584   24.0571 C   0  0  0  0  0  0
  -25.9066  -34.9406   23.5064 C   0  0  0  0  0  0
  -16.5383  -29.9084   23.6345 C   0  0  0  0  0  0
  -16.7298  -28.6505   23.0352 C   0  0  0  0  0  0
  -26.4515  -31.6551   25.0706 C   0  0  0  0  0  0
  -25.3700  -31.3753   26.1403 C   0  0  0  0  0  0
  -27.0387  -30.2953   24.6276 C   0  0  0  0  0  0
  -27.6060  -32.4306   25.7483 C   0  0  0  0  0  0
  -27.5576  -37.1783   24.8473 C   0  0  0  0  0  0
  -21.4241  -29.3049   22.3594 N   0  0  0  0  0  0
  -26.4289  -37.3737   23.9409 N   0  0  0  0  0  0
  -24.7134  -31.0342   22.0903 N   0  0  0  0  0  0
  -23.4212  -28.8105   23.2958 O   0  0  0  0  0  0
  -28.2596  -26.1579   20.2030 O   0  0  0  0  0  0
  -26.5663  -34.8913   22.4647 O   0  0  0  0  0  0
  -23.5517  -32.1315   23.7099 O   0  0  0  0  0  0
  -28.4284  -22.4312   22.6356 C   0  0  0  0  0  0
  -28.2106  -21.5818   23.7307 C   0  0  0  0  0  0
  -28.7573  -21.9661   21.3361 C   0  0  0  0  0  0
  -28.3375  -20.2041   23.5268 C   0  0  0  0  0  0
  -28.9629  -20.4633   21.2615 C   0  0  0  0  0  0
  -28.1248  -19.1849   24.6322 C   0  0  0  0  0  0
  -29.0451  -22.2994   26.0301 C   0  0  0  0  0  0
  -27.8419  -22.1738   25.0877 C   0  0  0  0  0  0
  -28.8993  -23.2628   20.3329 C   0  0  0  0  0  0
  -29.3804  -19.3545   20.1550 C   0  0  0  0  0  0
  -29.6115  -16.3222   20.5818 C   0  0  0  0  0  0
  -30.1893  -17.9025   20.5240 C   0  0  0  0  0  0
  -27.9267  -24.6561   20.4528 C   0  0  0  0  0  0
  -28.6948  -19.6973   22.3422 N   0  0  0  0  0  0
  -31.4832  -12.7284   19.2066 H   0  0  0  0  0  0
  -30.4389  -11.6079   20.0335 H   0  0  0  0  0  0
  -29.8520  -11.7371   17.5850 H   0  0  0  0  0  0
  -29.6182  -13.4640   17.7161 H   0  0  0  0  0  0
  -27.9612  -11.2647   18.9906 H   0  0  0  0  0  0
  -27.3999  -12.4290   17.8184 H   0  0  0  0  0  0
  -27.6005  -14.2421   19.4113 H   0  0  0  0  0  0
  -28.7356  -12.2711   21.4549 H   0  0  0  0  0  0
  -28.3612  -13.9493   21.7609 H   0  0  0  0  0  0
  -25.2750   -9.5708   22.4759 H   0  0  0  0  0  0
  -24.0011   -7.4638   22.7465 H   0  0  0  0  0  0
  -21.0842   -8.8745   19.8934 H   0  0  0  0  0  0
  -22.3670  -10.9664   19.6153 H   0  0  0  0  0  0
  -21.2002   -7.6145   23.9719 H   0  0  0  0  0  0
  -21.1488   -6.0520   25.9082 H   0  0  0  0  0  0
  -22.0593   -2.7606   23.2846 H   0  0  0  0  0  0
  -22.4074  -11.9835   22.4805 H   0  0  0  0  0  0
  -21.1070  -13.1196   22.2670 H   0  0  0  0  0  0
  -24.6598  -15.8526   20.5430 H   0  0  0  0  0  0
  -26.2827  -15.6331   20.1255 H   0  0  0  0  0  0
  -26.7239  -32.5319   23.0997 H   0  0  0  0  0  0
  -25.0074  -33.9634   25.0331 H   0  0  0  0  0  0
  -22.7459  -31.2951   21.3785 H   0  0  0  0  0  0
  -23.3771  -35.9581   23.3294 H   0  0  0  0  0  0
  -24.3594  -36.8892   22.2065 H   0  0  0  0  0  0
  -23.7236  -37.6450   23.6689 H   0  0  0  0  0  0
  -26.1553  -31.4775   20.6138 H   0  0  0  0  0  0
  -26.8682  -30.7725   22.0297 H   0  0  0  0  0  0
  -28.1268  -28.8069   21.2461 H   0  0  0  0  0  0
  -25.9178  -25.8797   18.9595 H   0  0  0  0  0  0
  -23.9803  -27.3210   18.9641 H   0  0  0  0  0  0
  -23.8070  -30.5787   19.3963 H   0  0  0  0  0  0
  -22.7854  -29.2440   19.8396 H   0  0  0  0  0  0
  -25.1299  -36.1868   25.0814 H   0  0  0  0  0  0
  -21.0029  -28.3292   24.1323 H   0  0  0  0  0  0
  -20.5651  -26.2307   23.3606 H   0  0  0  0  0  0
  -21.6663  -26.7389   22.1203 H   0  0  0  0  0  0
  -19.6925  -25.6274   21.1234 H   0  0  0  0  0  0
  -19.6724  -27.3189   20.6720 H   0  0  0  0  0  0
  -17.4213  -26.6676   21.4022 H   0  0  0  0  0  0
  -18.0366  -26.0086   22.9020 H   0  0  0  0  0  0
  -19.7972  -30.7291   24.2211 H   0  0  0  0  0  0
  -17.5054  -31.6271   24.5170 H   0  0  0  0  0  0
  -15.5377  -30.2985   23.7674 H   0  0  0  0  0  0
  -15.8702  -28.0821   22.7048 H   0  0  0  0  0  0
  -24.5916  -30.7046   25.7739 H   0  0  0  0  0  0
  -24.8865  -32.2942   26.4731 H   0  0  0  0  0  0
  -25.7986  -30.9023   27.0242 H   0  0  0  0  0  0
  -26.3004  -29.6669   24.1291 H   0  0  0  0  0  0
  -27.4018  -29.7252   25.4837 H   0  0  0  0  0  0
  -27.8894  -30.4197   23.9574 H   0  0  0  0  0  0
  -27.2675  -33.3651   26.1966 H   0  0  0  0  0  0
  -28.3916  -32.6768   25.0322 H   0  0  0  0  0  0
  -28.0672  -31.8486   26.5465 H   0  0  0  0  0  0
  -28.2575  -38.0094   24.7508 H   0  0  0  0  0  0
  -28.1070  -36.2616   24.6290 H   0  0  0  0  0  0
  -27.2299  -37.1423   25.8877 H   0  0  0  0  0  0
  -20.9411  -29.8777   21.6817 H   0  0  0  0  0  0
  -26.0165  -38.2803   24.1424 H   0  0  0  0  0  0
  -28.3541  -23.4866   22.8366 H   0  0  0  0  0  0
  -27.1685  -19.3356   25.1332 H   0  0  0  0  0  0
  -28.9206  -19.2537   25.3742 H   0  0  0  0  0  0
  -28.1298  -18.1673   24.2394 H   0  0  0  0  0  0
  -29.4885  -21.3288   26.2490 H   0  0  0  0  0  0
  -28.7452  -22.7381   26.9823 H   0  0  0  0  0  0
  -29.8219  -22.9336   25.6026 H   0  0  0  0  0  0
  -27.0615  -21.5763   25.5578 H   0  0  0  0  0  0
  -27.3992  -23.1598   24.9432 H   0  0  0  0  0  0
  -29.9278  -23.6003   20.4589 H   0  0  0  0  0  0
  -28.8545  -22.8966   19.3073 H   0  0  0  0  0  0
  -30.0160  -19.8991   19.4564 H   0  0  0  0  0  0
  -28.4875  -19.1159   19.5768 H   0  0  0  0  0  0
  -28.8615  -16.2502   19.7945 H   0  0  0  0  0  0
  -29.0442  -16.2197   21.5072 H   0  0  0  0  0  0
  -30.7673  -18.0752   21.4322 H   0  0  0  0  0  0
  -30.9566  -17.8411   19.7523 H   0  0  0  0  0  0
  -27.0630  -24.3977   19.8479 H   0  0  0  0  0  0
  -27.4988  -24.7027   21.4502 H   0  0  0  0  0  0
  1 25  1  0  0  0
  1 30  2  0  0  0
  1 81  1  0  0  0
  2  3  1  0  0  0
  2 25  1  0  0  0
  2 85  1  0  0  0
  2 86  1  0  0  0
  3  4  1  0  0  0
  3 87  1  0  0  0
  3 88  1  0  0  0
  4  5  1  0  0  0
  4 89  1  0  0  0
  4 90  1  0  0  0
  5  6  1  0  0  0
  5 26  1  0  0  0
  5 91  1  0  0  0
  6 25  1  0  0  0
  6 92  1  0  0  0
  6 93  1  0  0  0
  7  8  2  0  0  0
  7 26  1  0  0  0
  7 29  1  0  0  0
  8  9  1  0  0  0
  8 22  1  0  0  0
  9 10  1  0  0  0
  9 27  2  0  0  0
 10 11  2  0  0  0
 10 15  1  0  0  0
 11 12  1  0  0  0
 11 94  1  0  0  0
 12 13  2  0  0  0
 12 95  1  0  0  0
 13 14  1  0  0  0
 13 31  1  0  0  0
 14 15  2  0  0  0
 14 96  1  0  0  0
 15 97  1  0  0  0
 16 17  2  0  0  0
 16 21  1  0  0  0
 16 31  1  0  0  0
 17 18  1  0  0  0
 17 98  1  0  0  0
 18 19  2  0  0  0
 18 99  1  0  0  0
 19 20  1  0  0  0
 19 24  1  0  0  0
 20 21  2  0  0  0
 20100  1  0  0  0
 21 23  1  0  0  0
 22 28  1  0  0  0
 22 32  2  0  0  0
 26 27  1  0  0  0
 28101  1  0  0  0
 28102  1  0  0  0
 29103  1  0  0  0
 29104  1  0  0  0
 33 34  1  0  0  0
 33 66  1  0  0  0
 33 70  2  0  0  0
 34 36  1  0  0  0
 34 59  1  0  0  0
 34105  1  0  0  0
 35 44  2  0  0  0
 35 45  1  0  0  0
 35 68  1  0  0  0
 36 56  1  0  0  0
 36106  1  0  0  0
 37 39  1  0  0  0
 37 47  1  0  0  0
 37 66  1  0  0  0
 37107  1  0  0  0
 38 43  2  0  0  0
 38 46  1  0  0  0
 38 47  1  0  0  0
 39 64  1  0  0  0
 39 67  2  0  0  0
 40 52  1  0  0  0
 40 53  2  0  0  0
 40 58  1  0  0  0
 41108  1  0  0  0
 41109  1  0  0  0
 41110  1  0  0  0
 41 48  1  0  0  0
 42 43  1  0  0  0
 42 66  1  0  0  0
 42111  1  0  0  0
 42112  1  0  0  0
 43 44  1  0  0  0
 44113  1  0  0  0
 45 46  2  0  0  0
 45114  1  0  0  0
 46115  1  0  0  0
 47116  1  0  0  0
 47117  1  0  0  0
 48 56  1  0  0  0
 48 65  1  0  0  0
 48118  1  0  0  0
 49 50  1  0  0  0
 49 53  1  0  0  0
 49 64  1  0  0  0
 49119  1  0  0  0
 50 51  1  0  0  0
 50120  1  0  0  0
 50121  1  0  0  0
 51 52  1  0  0  0
 51122  1  0  0  0
 51123  1  0  0  0
 52124  1  0  0  0
 52125  1  0  0  0
 53 54  1  0  0  0
 54 55  2  0  0  0
 54126  1  0  0  0
 55 57  1  0  0  0
 55127  1  0  0  0
 56 69  2  0  0  0
 57 58  2  0  0  0
 57128  1  0  0  0
 58129  1  0  0  0
 59 60  1  0  0  0
 59 61  1  0  0  0
 59 62  1  0  0  0
 60130  1  0  0  0
 60131  1  0  0  0
 60132  1  0  0  0
 61133  1  0  0  0
 61134  1  0  0  0
 61135  1  0  0  0
 62136  1  0  0  0
 62137  1  0  0  0
 62138  1  0  0  0
 63 65  1  0  0  0
 63139  1  0  0  0
 63140  1  0  0  0
 63141  1  0  0  0
 64142  1  0  0  0
 65143  1  0  0  0
 68 83  1  0  0  0
 71 72  2  0  0  0
 71 73  1  0  0  0
 71144  1  0  0  0
 72 74  1  0  0  0
 72 78  1  0  0  0
 73 75  2  0  0  0
 73 79  1  0  0  0
 74 76  1  0  0  0
 74 84  2  0  0  0
 75 80  1  0  0  0
 75 84  1  0  0  0
 76145  1  0  0  0
 76146  1  0  0  0
 76147  1  0  0  0
 77 78  1  0  0  0
 77148  1  0  0  0
 77149  1  0  0  0
 77150  1  0  0  0
 78151  1  0  0  0
 78152  1  0  0  0
 79 83  1  0  0  0
 79153  1  0  0  0
 79154  1  0  0  0
 80 82  1  0  0  0
 80155  1  0  0  0
 80156  1  0  0  0
 81 82  1  0  0  0
 81157  1  0  0  0
 81158  1  0  0  0
 82159  1  0  0  0
 82160  1  0  0  0
 83161  1  0  0  0
 83162  1  0  0  0
M  ISO  4   1 100  68 101  81 100  83 101
M  END
> <chiral flag>
0

> <version>
0

> <s_m_source_file>
/data/baiqing/PycharmProjects/Reinvent-master-3.2/result/LINK_invent/BTK/process_docking_weight1_custom_sum_contain_oxygen_bond_distance_aromatic_linkinvent_7_9_3/rearranged_h_0040.sdf

> <i_m_source_file_index>
69

> <r_mmod_Potential_Energy-OPLS-2005>
439.511474609375

> <r_mmod_Stretch_Energy-OPLS-2005>
280.257629394531

> <r_mmod_Bend_Energy-OPLS-2005>
326.1357421875

> <r_mmod_Torsional_Energy-OPLS-2005>
210.298370361328

> <r_mmod_Improper_Torsional_Energy-OPLS-2005>
4.41721439361572

> <r_mmod_Van_der_Waal_Energy-OPLS-2005>
137.245086669922

> <r_mmod_Electrostatic_Energy-OPLS-2005>
-493.365936279297

> <r_mmod_Solvation_Energy-OPLS-2005>
-208.219970703125

> <b_mmod_Minimization_Converged-OPLS-2005>
0

> <r_mmod_RMS_Derivative-OPLS-2005>
2.12353205680847

$$$$
69
                    3D
 Structure written by MMmdl.
172180  0  0  1  0            999 V2000
  -30.8384  -14.2441   20.7630 C   0  0  0  0  0  0
  -30.4136  -12.2690   19.3610 C   0  0  0  0  0  0
  -29.4732  -12.5544   18.1788 C   0  0  0  0  0  0
  -28.0042  -12.3929   18.6047 C   0  0  0  0  0  0
  -27.6739  -13.1998   19.8853 C   0  0  2  0  0  0
  -28.7125  -12.9186   20.9943 C   0  0  0  0  0  0
  -25.2645  -13.8149   20.5680 C   0  0  0  0  0  0
  -24.1881  -13.0448   20.9152 C   0  0  0  0  0  0
  -24.6418  -11.6904   20.8716 C   0  0  0  0  0  0
  -23.9075  -10.4299   21.0394 C   0  0  0  0  0  0
  -24.3632   -9.4210   21.9165 C   0  0  0  0  0  0
  -23.6307   -8.2246   22.0739 C   0  0  0  0  0  0
  -22.4276   -8.0291   21.3544 C   0  0  0  0  0  0
  -21.9907   -9.0276   20.4657 C   0  0  0  0  0  0
  -22.7233  -10.2151   20.3068 C   0  0  0  0  0  0
  -21.6861   -6.0743   22.5279 C   0  0  0  0  0  0
  -21.4022   -6.5647   23.8215 C   0  0  0  0  0  0
  -21.3670   -5.6797   24.9175 C   0  0  0  0  0  0
  -21.6035   -4.3057   24.7221 C   0  0  0  0  0  0
  -21.8825   -3.8153   23.4344 C   0  0  0  0  0  0
  -21.9189   -4.6973   22.3401 C   0  0  0  0  0  0
  -22.7902  -13.5245   21.1825 C   0  0  0  0  0  0
  -22.1659   -4.2158   21.0979 F   0  0  0  0  0  0
  -21.5627   -3.4543   25.7735 F   0  0  0  0  0  0
  -30.0701  -13.1695   20.4672 N   0  0  0  0  0  0
  -26.3099  -12.9320   20.3416 N   0  0  0  0  0  0
  -25.9346  -11.6478   20.5764 N   0  0  0  0  0  0
  -22.0558  -12.8267   22.0409 N   0  0  0  0  0  0
  -25.4394  -15.1868   20.4101 N   0  0  0  0  0  0
  -31.7586  -14.6536   20.0492 O   0  0  0  0  0  0
  -21.6641   -6.8890   21.4240 O   0  0  0  0  0  0
  -22.3579  -14.5557   20.6670 O   0  0  0  0  0  0
  -24.6066  -31.8713   23.2134 C   0  0  0  0  0  0
  -25.8977  -32.4838   23.8413 C   0  0  1  0  0  0
  -27.2492  -27.4995   20.0695 C   0  0  0  0  0  0
  -25.5869  -33.8636   24.2354 N   0  0  0  0  0  0
  -23.3920  -30.4922   21.5555 C   0  0  2  0  0  0
  -24.8412  -28.9632   20.1197 C   0  0  0  0  0  0
  -22.7368  -29.4655   22.5059 C   0  0  0  0  0  0
  -18.0273  -28.1358   22.8471 C   0  0  0  0  0  0
  -24.1514  -36.7345   23.2618 C   0  0  0  0  0  0
  -25.9148  -30.8536   21.3587 C   0  0  0  0  0  0
  -25.9958  -29.4878   20.7159 C   0  0  0  0  0  0
  -27.2006  -28.7582   20.7032 C   0  0  0  0  0  0
  -26.0834  -26.9734   19.4773 C   0  0  0  0  0  0
  -24.8741  -27.6965   19.5078 C   0  0  0  0  0  0
  -23.5955  -29.8185   20.1709 C   0  0  0  0  0  0
  -25.4111  -36.3126   24.0336 C   0  0  1  0  0  0
  -20.5848  -28.3620   23.1394 C   0  0  2  0  0  0
  -20.6778  -26.9374   22.5480 C   0  0  0  0  0  0
  -19.5794  -26.6363   21.5228 C   0  0  0  0  0  0
  -18.1942  -26.7920   22.1579 C   0  0  0  0  0  0
  -19.1503  -28.8798   23.2944 C   0  0  0  0  0  0
  -18.9439  -30.1403   23.8957 C   0  0  0  0  0  0
  -17.6447  -30.6568   24.0552 C   0  0  0  0  0  0
  -25.9015  -34.9482   23.5135 C   0  0  0  0  0  0
  -16.5335  -29.9072   23.6307 C   0  0  0  0  0  0
  -16.7258  -28.6493   23.0321 C   0  0  0  0  0  0
  -26.4438  -31.6578   25.0702 C   0  0  0  0  0  0
  -25.3752  -31.3790   26.1508 C   0  0  0  0  0  0
  -27.0151  -30.2985   24.6027 C   0  0  0  0  0  0
  -27.6106  -32.4206   25.7410 C   0  0  0  0  0  0
  -27.5613  -37.1796   24.8441 C   0  0  0  0  0  0
  -21.4098  -29.2999   22.3799 N   0  0  0  0  0  0
  -26.4306  -37.3785   23.9416 N   0  0  0  0  0  0
  -24.6556  -31.0862   22.1004 N   0  0  0  0  0  0
  -23.4181  -28.8178   23.3056 O   0  0  0  0  0  0
  -28.4161  -26.7840   19.9732 O   0  0  0  0  0  0
  -26.5574  -34.8916   22.4694 O   0  0  0  0  0  0
  -23.5281  -32.1428   23.7586 O   0  0  0  0  0  0
  -27.0155  -20.8969   20.7048 C   0  0  0  0  0  0
  -26.2945  -22.4601   19.0193 C   0  0  0  0  0  0
  -26.9482  -19.8840   19.7347 C   0  0  0  0  0  0
  -26.7203  -22.2189   20.3452 C   0  0  0  0  0  0
  -26.5143  -20.2231   18.4317 C   0  0  0  0  0  0
  -24.9389  -18.5357   17.4262 C   0  0  0  0  0  0
  -27.3838  -18.4932   20.1570 C   0  0  0  0  0  0
  -26.3264  -19.1869   17.3341 C   0  0  0  0  0  0
  -28.8825  -18.4748   20.4950 C   0  0  0  0  0  0
  -29.2533  -17.2641   21.3413 C   0  0  0  0  0  0
  -30.7577  -17.2135   21.6546 C   0  0  0  0  0  0
  -28.1477  -25.3042   21.8542 C   0  0  0  0  0  0
  -31.1445  -15.9981   22.5135 C   0  0  0  0  0  0
  -28.0595  -24.0571   20.9632 C   0  0  0  0  0  0
  -29.0129  -26.3944   21.2031 C   0  0  0  0  0  0
  -26.1720  -21.4846   18.0933 N   0  0  0  0  0  0
  -26.9053  -23.2316   21.2920 N   0  0  0  0  0  0
  -30.5948  -14.7610   21.9722 N   0  0  0  0  0  0
  -31.4546  -12.3735   19.0476 H   0  0  0  0  0  0
  -30.3072  -11.2333   19.6878 H   0  0  0  0  0  0
  -29.6982  -11.8884   17.3443 H   0  0  0  0  0  0
  -29.6400  -13.5702   17.8151 H   0  0  0  0  0  0
  -27.8160  -11.3320   18.7723 H   0  0  0  0  0  0
  -27.3430  -12.6953   17.7919 H   0  0  0  0  0  0
  -27.7421  -14.2573   19.6289 H   0  0  0  0  0  0
  -28.6511  -11.8783   21.3176 H   0  0  0  0  0  0
  -28.4646  -13.5126   21.8738 H   0  0  0  0  0  0
  -25.2795   -9.5668   22.4718 H   0  0  0  0  0  0
  -24.0022   -7.4629   22.7447 H   0  0  0  0  0  0
  -21.0828   -8.8807   19.8979 H   0  0  0  0  0  0
  -22.3689  -10.9702   19.6192 H   0  0  0  0  0  0
  -21.2031   -7.6160   23.9723 H   0  0  0  0  0  0
  -21.1484   -6.0529   25.9080 H   0  0  0  0  0  0
  -22.0595   -2.7618   23.2840 H   0  0  0  0  0  0
  -22.4190  -11.9936   22.4815 H   0  0  0  0  0  0
  -21.1193  -13.1313   22.2652 H   0  0  0  0  0  0
  -24.6782  -15.8463   20.5243 H   0  0  0  0  0  0
  -26.3081  -15.6200   20.1288 H   0  0  0  0  0  0
  -26.7065  -32.5604   23.1212 H   0  0  0  0  0  0
  -25.0054  -33.9831   25.0523 H   0  0  0  0  0  0
  -22.6758  -31.3053   21.4184 H   0  0  0  0  0  0
  -23.3743  -35.9714   23.3255 H   0  0  0  0  0  0
  -24.3644  -36.8967   22.2041 H   0  0  0  0  0  0
  -23.7280  -37.6562   23.6614 H   0  0  0  0  0  0
  -26.0126  -31.6236   20.5909 H   0  0  0  0  0  0
  -26.8071  -30.9158   21.9704 H   0  0  0  0  0  0
  -28.0931  -29.1730   21.1496 H   0  0  0  0  0  0
  -26.1175  -26.0070   18.9953 H   0  0  0  0  0  0
  -23.9858  -27.2858   19.0492 H   0  0  0  0  0  0
  -23.6890  -30.5907   19.4056 H   0  0  0  0  0  0
  -22.7253  -29.2222   19.8854 H   0  0  0  0  0  0
  -25.1284  -36.1993   25.0827 H   0  0  0  0  0  0
  -20.9943  -28.3192   24.1513 H   0  0  0  0  0  0
  -20.5647  -26.2229   23.3648 H   0  0  0  0  0  0
  -21.6671  -26.7424   22.1317 H   0  0  0  0  0  0
  -19.6985  -25.6276   21.1250 H   0  0  0  0  0  0
  -19.6796  -27.3203   20.6790 H   0  0  0  0  0  0
  -17.4251  -26.6675   21.3936 H   0  0  0  0  0  0
  -18.0312  -26.0050   22.8960 H   0  0  0  0  0  0
  -19.7916  -30.7183   24.2389 H   0  0  0  0  0  0
  -17.5001  -31.6260   24.5126 H   0  0  0  0  0  0
  -15.5338  -30.2982   23.7601 H   0  0  0  0  0  0
  -15.8666  -28.0821   22.7011 H   0  0  0  0  0  0
  -24.5981  -30.6993   25.7988 H   0  0  0  0  0  0
  -24.8874  -32.2996   26.4741 H   0  0  0  0  0  0
  -25.8170  -30.9218   27.0378 H   0  0  0  0  0  0
  -26.2649  -29.6844   24.1035 H   0  0  0  0  0  0
  -27.3839  -29.7107   25.4442 H   0  0  0  0  0  0
  -27.8539  -30.4222   23.9170 H   0  0  0  0  0  0
  -27.2794  -33.3473   26.2098 H   0  0  0  0  0  0
  -28.3850  -32.6785   25.0172 H   0  0  0  0  0  0
  -28.0823  -31.8223   26.5221 H   0  0  0  0  0  0
  -28.2644  -38.0082   24.7465 H   0  0  0  0  0  0
  -28.1090  -36.2612   24.6242 H   0  0  0  0  0  0
  -27.2361  -37.1444   25.8856 H   0  0  0  0  0  0
  -20.9213  -29.8742   21.7071 H   0  0  0  0  0  0
  -26.0206  -38.2882   24.1396 H   0  0  0  0  0  0
  -27.3427  -20.6649   21.7086 H   0  0  0  0  0  0
  -26.0511  -23.4578   18.6862 H   0  0  0  0  0  0
  -24.8125  -17.7577   16.6739 H   0  0  0  0  0  0
  -24.1574  -19.2807   17.2752 H   0  0  0  0  0  0
  -24.7780  -18.0861   18.4072 H   0  0  0  0  0  0
  -27.1616  -17.7333   19.4103 H   0  0  0  0  0  0
  -26.7994  -18.2132   21.0347 H   0  0  0  0  0  0
  -27.1180  -18.4384   17.3727 H   0  0  0  0  0  0
  -26.4416  -19.6658   16.3600 H   0  0  0  0  0  0
  -29.1652  -19.3607   21.0631 H   0  0  0  0  0  0
  -29.4732  -18.5060   19.5785 H   0  0  0  0  0  0
  -28.9338  -16.3711   20.8052 H   0  0  0  0  0  0
  -28.6884  -17.2807   22.2745 H   0  0  0  0  0  0
  -31.0666  -18.1272   22.1636 H   0  0  0  0  0  0
  -31.3208  -17.1952   20.7204 H   0  0  0  0  0  0
  -28.5618  -25.0475   22.8297 H   0  0  0  0  0  0
  -27.1519  -25.7013   22.0457 H   0  0  0  0  0  0
  -30.7444  -16.1270   23.5202 H   0  0  0  0  0  0
  -32.2284  -15.9226   22.6168 H   0  0  0  0  0  0
  -28.9735  -23.4707   21.0788 H   0  0  0  0  0  0
  -28.0198  -24.3509   19.9132 H   0  0  0  0  0  0
  -29.1652  -27.2434   21.8707 H   0  0  0  0  0  0
  -30.0025  -25.9901   20.9830 H   0  0  0  0  0  0
  -26.9585  -22.8702   22.2416 H   0  0  0  0  0  0
  -29.8979  -14.2864   22.5267 H   0  0  0  0  0  0
  1 25  1  0  0  0
  1 30  2  0  0  0
  1 88  1  0  0  0
  2  3  1  0  0  0
  2 25  1  0  0  0
  2 89  1  0  0  0
  2 90  1  0  0  0
  3  4  1  0  0  0
  3 91  1  0  0  0
  3 92  1  0  0  0
  4  5  1  0  0  0
  4 93  1  0  0  0
  4 94  1  0  0  0
  5  6  1  0  0  0
  5 26  1  0  0  0
  5 95  1  0  0  0
  6 25  1  0  0  0
  6 96  1  0  0  0
  6 97  1  0  0  0
  7  8  2  0  0  0
  7 26  1  0  0  0
  7 29  1  0  0  0
  8  9  1  0  0  0
  8 22  1  0  0  0
  9 10  1  0  0  0
  9 27  2  0  0  0
 10 11  2  0  0  0
 10 15  1  0  0  0
 11 12  1  0  0  0
 11 98  1  0  0  0
 12 13  2  0  0  0
 12 99  1  0  0  0
 13 14  1  0  0  0
 13 31  1  0  0  0
 14 15  2  0  0  0
 14100  1  0  0  0
 15101  1  0  0  0
 16 17  2  0  0  0
 16 21  1  0  0  0
 16 31  1  0  0  0
 17 18  1  0  0  0
 17102  1  0  0  0
 18 19  2  0  0  0
 18103  1  0  0  0
 19 20  1  0  0  0
 19 24  1  0  0  0
 20 21  2  0  0  0
 20104  1  0  0  0
 21 23  1  0  0  0
 22 28  1  0  0  0
 22 32  2  0  0  0
 26 27  1  0  0  0
 28105  1  0  0  0
 28106  1  0  0  0
 29107  1  0  0  0
 29108  1  0  0  0
 33 34  1  0  0  0
 33 66  1  0  0  0
 33 70  2  0  0  0
 34 36  1  0  0  0
 34 59  1  0  0  0
 34109  1  0  0  0
 35 44  2  0  0  0
 35 45  1  0  0  0
 35 68  1  0  0  0
 36 56  1  0  0  0
 36110  1  0  0  0
 37 39  1  0  0  0
 37 47  1  0  0  0
 37 66  1  0  0  0
 37111  1  0  0  0
 38 43  2  0  0  0
 38 46  1  0  0  0
 38 47  1  0  0  0
 39 64  1  0  0  0
 39 67  2  0  0  0
 40 52  1  0  0  0
 40 53  2  0  0  0
 40 58  1  0  0  0
 41112  1  0  0  0
 41113  1  0  0  0
 41114  1  0  0  0
 41 48  1  0  0  0
 42 43  1  0  0  0
 42 66  1  0  0  0
 42115  1  0  0  0
 42116  1  0  0  0
 43 44  1  0  0  0
 44117  1  0  0  0
 45 46  2  0  0  0
 45118  1  0  0  0
 46119  1  0  0  0
 47120  1  0  0  0
 47121  1  0  0  0
 48 56  1  0  0  0
 48 65  1  0  0  0
 48122  1  0  0  0
 49 50  1  0  0  0
 49 53  1  0  0  0
 49 64  1  0  0  0
 49123  1  0  0  0
 50 51  1  0  0  0
 50124  1  0  0  0
 50125  1  0  0  0
 51 52  1  0  0  0
 51126  1  0  0  0
 51127  1  0  0  0
 52128  1  0  0  0
 52129  1  0  0  0
 53 54  1  0  0  0
 54 55  2  0  0  0
 54130  1  0  0  0
 55 57  1  0  0  0
 55131  1  0  0  0
 56 69  2  0  0  0
 57 58  2  0  0  0
 57132  1  0  0  0
 58133  1  0  0  0
 59 60  1  0  0  0
 59 61  1  0  0  0
 59 62  1  0  0  0
 60134  1  0  0  0
 60135  1  0  0  0
 60136  1  0  0  0
 61137  1  0  0  0
 61138  1  0  0  0
 61139  1  0  0  0
 62140  1  0  0  0
 62141  1  0  0  0
 62142  1  0  0  0
 63 65  1  0  0  0
 63143  1  0  0  0
 63144  1  0  0  0
 63145  1  0  0  0
 64146  1  0  0  0
 65147  1  0  0  0
 68 85  1  0  0  0
 71 73  2  0  0  0
 71 74  1  0  0  0
 71148  1  0  0  0
 72 74  2  0  0  0
 72 86  1  0  0  0
 72149  1  0  0  0
 73 75  1  0  0  0
 73 77  1  0  0  0
 74 87  1  0  0  0
 75 78  1  0  0  0
 75 86  2  0  0  0
 76 78  1  0  0  0
 76150  1  0  0  0
 76151  1  0  0  0
 76152  1  0  0  0
 77 79  1  0  0  0
 77153  1  0  0  0
 77154  1  0  0  0
 78155  1  0  0  0
 78156  1  0  0  0
 79 80  1  0  0  0
 79157  1  0  0  0
 79158  1  0  0  0
 80 81  1  0  0  0
 80159  1  0  0  0
 80160  1  0  0  0
 81 83  1  0  0  0
 81161  1  0  0  0
 81162  1  0  0  0
 82 84  1  0  0  0
 82 85  1  0  0  0
 82163  1  0  0  0
 82164  1  0  0  0
 83 88  1  0  0  0
 83165  1  0  0  0
 83166  1  0  0  0
 84 87  1  0  0  0
 84167  1  0  0  0
 84168  1  0  0  0
 85169  1  0  0  0
 85170  1  0  0  0
 87171  1  0  0  0
 88172  1  0  0  0
M  ISO  4   1 100  68 101  85 101  88 100
M  END
> <chiral flag>
0

> <version>
0

> <s_m_source_file>
/data/baiqing/PycharmProjects/Reinvent-master-3.2/result/LINK_invent/BTK/process_docking_weight1_custom_sum_contain_oxygen_bond_distance_aromatic_linkinvent_7_9_3/rearranged_h_0040.sdf

> <i_m_source_file_index>
70

> <r_mmod_Potential_Energy-OPLS-2005>
-153.150817871094

> <r_mmod_Stretch_Energy-OPLS-2005>
30.1227245330811

> <r_mmod_Bend_Energy-OPLS-2005>
89.2329177856445

> <r_mmod_Torsional_Energy-OPLS-2005>
226.942153930664

> <r_mmod_Improper_Torsional_Energy-OPLS-2005>
8.23451042175293

> <r_mmod_Van_der_Waal_Energy-OPLS-2005>
152.238754272461

> <r_mmod_Electrostatic_Energy-OPLS-2005>
-438.896911621094

> <r_mmod_Solvation_Energy-OPLS-2005>
-230.686309814453

> <b_mmod_Minimization_Converged-OPLS-2005>
0

> <r_mmod_RMS_Derivative-OPLS-2005>
2.75873947143555

$$$$
70
                    3D
 Structure written by MMmdl.
158166  0  0  1  0            999 V2000
  -30.7077  -14.5910   20.5009 C   0  0  0  0  0  0
  -30.4158  -12.3658   19.4615 C   0  0  0  0  0  0
  -29.4949  -12.4892   18.2308 C   0  0  0  0  0  0
  -28.0210  -12.3382   18.6475 C   0  0  0  0  0  0
  -27.6491  -13.2269   19.8652 C   0  0  2  0  0  0
  -28.6962  -13.1219   20.9979 C   0  0  0  0  0  0
  -25.2530  -13.8209   20.5724 C   0  0  0  0  0  0
  -24.1804  -13.0463   20.9204 C   0  0  0  0  0  0
  -24.6389  -11.6942   20.8775 C   0  0  0  0  0  0
  -23.9070  -10.4311   21.0416 C   0  0  0  0  0  0
  -24.3617   -9.4223   21.9199 C   0  0  0  0  0  0
  -23.6295   -8.2255   22.0766 C   0  0  0  0  0  0
  -22.4279   -8.0285   21.3545 C   0  0  0  0  0  0
  -21.9922   -9.0268   20.4648 C   0  0  0  0  0  0
  -22.7249  -10.2146   20.3066 C   0  0  0  0  0  0
  -21.6848   -6.0740   22.5274 C   0  0  0  0  0  0
  -21.4011   -6.5643   23.8207 C   0  0  0  0  0  0
  -21.3662   -5.6802   24.9173 C   0  0  0  0  0  0
  -21.6039   -4.3059   24.7226 C   0  0  0  0  0  0
  -21.8819   -3.8151   23.4345 C   0  0  0  0  0  0
  -21.9190   -4.6968   22.3401 C   0  0  0  0  0  0
  -22.7820  -13.5232   21.1865 C   0  0  0  0  0  0
  -22.1657   -4.2156   21.0979 F   0  0  0  0  0  0
  -21.5633   -3.4542   25.7743 F   0  0  0  0  0  0
  -30.0142  -13.4151   20.4181 N   0  0  0  0  0  0
  -26.2974  -12.9413   20.3385 N   0  0  0  0  0  0
  -25.9322  -11.6559   20.5832 N   0  0  0  0  0  0
  -22.0479  -12.8220   22.0417 N   0  0  0  0  0  0
  -25.4231  -15.1939   20.4102 N   0  0  0  0  0  0
  -31.8819  -14.6659   20.1353 O   0  0  0  0  0  0
  -21.6638   -6.8884   21.4239 O   0  0  0  0  0  0
  -22.3507  -14.5541   20.6720 O   0  0  0  0  0  0
  -24.6277  -31.8611   23.2091 C   0  0  0  0  0  0
  -25.9127  -32.4782   23.8403 C   0  0  1  0  0  0
  -27.2077  -27.3189   20.1005 C   0  0  0  0  0  0
  -25.5949  -33.8574   24.2321 N   0  0  0  0  0  0
  -23.4204  -30.4940   21.5512 C   0  0  2  0  0  0
  -24.8639  -28.9676   20.1066 C   0  0  0  0  0  0
  -22.7491  -29.4632   22.4916 C   0  0  0  0  0  0
  -18.0292  -28.1351   22.8492 C   0  0  0  0  0  0
  -24.1486  -36.7283   23.2644 C   0  0  0  0  0  0
  -25.9671  -30.7908   21.3868 C   0  0  0  0  0  0
  -26.0371  -29.4227   20.7223 C   0  0  0  0  0  0
  -27.2108  -28.6075   20.7200 C   0  0  0  0  0  0
  -26.0075  -26.9411   19.4405 C   0  0  0  0  0  0
  -24.8521  -27.7313   19.4567 C   0  0  0  0  0  0
  -23.6346  -29.8472   20.1608 C   0  0  0  0  0  0
  -25.4110  -36.3076   24.0340 C   0  0  1  0  0  0
  -20.5900  -28.3660   23.1258 C   0  0  2  0  0  0
  -20.6779  -26.9382   22.5374 C   0  0  0  0  0  0
  -19.5733  -26.6363   21.5199 C   0  0  0  0  0  0
  -18.1921  -26.7895   22.1633 C   0  0  0  0  0  0
  -19.1548  -28.8826   23.2868 C   0  0  0  0  0  0
  -18.9478  -30.1444   23.8858 C   0  0  0  0  0  0
  -17.6479  -30.6560   24.0559 C   0  0  0  0  0  0
  -25.9051  -34.9440   23.5125 C   0  0  0  0  0  0
  -16.5366  -29.9064   23.6329 C   0  0  0  0  0  0
  -16.7286  -28.6479   23.0346 C   0  0  0  0  0  0
  -26.4524  -31.6587   25.0758 C   0  0  0  0  0  0
  -25.3772  -31.3662   26.1490 C   0  0  0  0  0  0
  -27.0430  -30.3041   24.6194 C   0  0  0  0  0  0
  -27.6036  -32.4372   25.7535 C   0  0  0  0  0  0
  -27.5569  -37.1805   24.8471 C   0  0  0  0  0  0
  -21.4194  -29.3040   22.3664 N   0  0  0  0  0  0
  -26.4286  -37.3779   23.9412 N   0  0  0  0  0  0
  -24.6904  -31.0641   22.1046 N   0  0  0  0  0  0
  -23.4234  -28.8128   23.2940 O   0  0  0  0  0  0
  -28.2936  -26.4208   20.1675 O   0  0  0  0  0  0
  -26.5596  -34.8901   22.4679 O   0  0  0  0  0  0
  -23.5437  -32.1402   23.7420 O   0  0  0  0  0  0
  -29.9488  -22.1279   21.5681 C   0  0  0  0  0  0
  -29.4234  -23.4342   21.3635 C   0  0  0  0  0  0
  -29.8538  -21.1332   20.5569 C   0  0  0  0  0  0
  -28.8261  -23.7610   20.1267 C   0  0  0  0  0  0
  -29.2330  -21.5503   19.3530 C   0  0  0  0  0  0
  -27.5547  -20.1270   18.1010 C   0  0  0  0  0  0
  -30.5495  -19.7417   20.7304 C   0  0  0  0  0  0
  -29.0125  -20.6066   18.1780 C   0  0  0  0  0  0
  -27.9328  -25.0164   19.8648 C   0  0  0  0  0  0
  -29.7234  -18.3903   20.7875 C   0  0  0  0  0  0
  -30.6364  -17.1039   20.6718 C   0  0  0  0  0  0
  -28.7530  -22.8077   19.1593 N   0  0  0  0  0  0
  -30.0260  -15.7381   20.7879 N   0  0  0  0  0  0
  -31.4600  -12.4513   19.1567 H   0  0  0  0  0  0
  -30.3203  -11.3809   19.9236 H   0  0  0  0  0  0
  -29.7508  -11.7297   17.4909 H   0  0  0  0  0  0
  -29.6442  -13.4563   17.7470 H   0  0  0  0  0  0
  -27.8572  -11.2884   18.8954 H   0  0  0  0  0  0
  -27.3625  -12.5588   17.8073 H   0  0  0  0  0  0
  -27.6607  -14.2560   19.5052 H   0  0  0  0  0  0
  -28.6942  -12.1247   21.4410 H   0  0  0  0  0  0
  -28.4568  -13.8139   21.8075 H   0  0  0  0  0  0
  -25.2754   -9.5695   22.4794 H   0  0  0  0  0  0
  -23.9997   -7.4645   22.7492 H   0  0  0  0  0  0
  -21.0860   -8.8786   19.8951 H   0  0  0  0  0  0
  -22.3709  -10.9690   19.6188 H   0  0  0  0  0  0
  -21.2000   -7.6152   23.9715 H   0  0  0  0  0  0
  -21.1482   -6.0530   25.9078 H   0  0  0  0  0  0
  -22.0592   -2.7616   23.2845 H   0  0  0  0  0  0
  -22.4099  -11.9851   22.4758 H   0  0  0  0  0  0
  -21.1111  -13.1252   22.2682 H   0  0  0  0  0  0
  -24.6549  -15.8491   20.5060 H   0  0  0  0  0  0
  -26.2772  -15.6317   20.0907 H   0  0  0  0  0  0
  -26.7189  -32.5464   23.1149 H   0  0  0  0  0  0
  -25.0154  -33.9719   25.0502 H   0  0  0  0  0  0
  -22.7138  -31.3157   21.4169 H   0  0  0  0  0  0
  -23.3752  -35.9605   23.3288 H   0  0  0  0  0  0
  -24.3590  -36.8927   22.2061 H   0  0  0  0  0  0
  -23.7225  -37.6479   23.6676 H   0  0  0  0  0  0
  -26.1067  -31.5568   20.6229 H   0  0  0  0  0  0
  -26.8440  -30.8315   22.0200 H   0  0  0  0  0  0
  -28.1020  -28.9408   21.2330 H   0  0  0  0  0  0
  -25.8961  -26.0134   18.9016 H   0  0  0  0  0  0
  -23.9582  -27.3838   18.9573 H   0  0  0  0  0  0
  -23.7550  -30.6320   19.4122 H   0  0  0  0  0  0
  -22.7523  -29.2844   19.8524 H   0  0  0  0  0  0
  -25.1281  -36.1941   25.0833 H   0  0  0  0  0  0
  -21.0011  -28.3232   24.1378 H   0  0  0  0  0  0
  -20.5704  -26.2258   23.3572 H   0  0  0  0  0  0
  -21.6640  -26.7397   22.1156 H   0  0  0  0  0  0
  -19.6884  -25.6282   21.1209 H   0  0  0  0  0  0
  -19.6658  -27.3179   20.6729 H   0  0  0  0  0  0
  -17.4185  -26.6644   21.4042 H   0  0  0  0  0  0
  -18.0315  -26.0025   22.9021 H   0  0  0  0  0  0
  -19.7965  -30.7266   24.2194 H   0  0  0  0  0  0
  -17.5040  -31.6235   24.5174 H   0  0  0  0  0  0
  -15.5369  -30.2960   23.7665 H   0  0  0  0  0  0
  -15.8685  -28.0812   22.7053 H   0  0  0  0  0  0
  -24.5929  -30.7044   25.7807 H   0  0  0  0  0  0
  -24.8986  -32.2803   26.5012 H   0  0  0  0  0  0
  -25.8127  -30.8772   27.0214 H   0  0  0  0  0  0
  -26.3033  -29.6739   24.1247 H   0  0  0  0  0  0
  -27.4223  -29.7333   25.4680 H   0  0  0  0  0  0
  -27.8836  -30.4388   23.9378 H   0  0  0  0  0  0
  -27.2604  -33.3688   26.2049 H   0  0  0  0  0  0
  -28.3866  -32.6940   25.0382 H   0  0  0  0  0  0
  -28.0679  -31.8564   26.5518 H   0  0  0  0  0  0
  -28.2567  -38.0128   24.7577 H   0  0  0  0  0  0
  -28.1111  -36.2665   24.6263 H   0  0  0  0  0  0
  -27.2282  -37.1389   25.8875 H   0  0  0  0  0  0
  -20.9343  -29.8873   21.6988 H   0  0  0  0  0  0
  -26.0165  -38.2852   24.1449 H   0  0  0  0  0  0
  -30.4191  -21.8918   22.5123 H   0  0  0  0  0  0
  -29.4401  -24.1621   22.1633 H   0  0  0  0  0  0
  -27.4050  -19.4580   17.2543 H   0  0  0  0  0  0
  -26.8698  -20.9676   17.9844 H   0  0  0  0  0  0
  -27.2677  -19.5937   19.0072 H   0  0  0  0  0  0
  -31.1697  -19.7893   21.6277 H   0  0  0  0  0  0
  -31.2697  -19.6657   19.9144 H   0  0  0  0  0  0
  -29.6799  -19.7477   18.2264 H   0  0  0  0  0  0
  -29.2798  -21.1198   17.2540 H   0  0  0  0  0  0
  -27.0101  -24.7713   20.3934 H   0  0  0  0  0  0
  -27.7166  -24.9829   18.7966 H   0  0  0  0  0  0
  -29.0006  -18.3641   19.9741 H   0  0  0  0  0  0
  -29.1446  -18.3599   21.7109 H   0  0  0  0  0  0
  -31.4309  -17.1724   21.4157 H   0  0  0  0  0  0
  -31.1394  -17.1549   19.7036 H   0  0  0  0  0  0
  -29.0488  -15.6622   21.0289 H   0  0  0  0  0  0
  1 25  1  0  0  0
  1 30  2  0  0  0
  1 83  1  0  0  0
  2  3  1  0  0  0
  2 25  1  0  0  0
  2 84  1  0  0  0
  2 85  1  0  0  0
  3  4  1  0  0  0
  3 86  1  0  0  0
  3 87  1  0  0  0
  4  5  1  0  0  0
  4 88  1  0  0  0
  4 89  1  0  0  0
  5  6  1  0  0  0
  5 26  1  0  0  0
  5 90  1  0  0  0
  6 25  1  0  0  0
  6 91  1  0  0  0
  6 92  1  0  0  0
  7  8  2  0  0  0
  7 26  1  0  0  0
  7 29  1  0  0  0
  8  9  1  0  0  0
  8 22  1  0  0  0
  9 10  1  0  0  0
  9 27  2  0  0  0
 10 11  2  0  0  0
 10 15  1  0  0  0
 11 12  1  0  0  0
 11 93  1  0  0  0
 12 13  2  0  0  0
 12 94  1  0  0  0
 13 14  1  0  0  0
 13 31  1  0  0  0
 14 15  2  0  0  0
 14 95  1  0  0  0
 15 96  1  0  0  0
 16 17  2  0  0  0
 16 21  1  0  0  0
 16 31  1  0  0  0
 17 18  1  0  0  0
 17 97  1  0  0  0
 18 19  2  0  0  0
 18 98  1  0  0  0
 19 20  1  0  0  0
 19 24  1  0  0  0
 20 21  2  0  0  0
 20 99  1  0  0  0
 21 23  1  0  0  0
 22 28  1  0  0  0
 22 32  2  0  0  0
 26 27  1  0  0  0
 28100  1  0  0  0
 28101  1  0  0  0
 29102  1  0  0  0
 29103  1  0  0  0
 33 34  1  0  0  0
 33 66  1  0  0  0
 33 70  2  0  0  0
 34 36  1  0  0  0
 34 59  1  0  0  0
 34104  1  0  0  0
 35 44  2  0  0  0
 35 45  1  0  0  0
 35 68  1  0  0  0
 36 56  1  0  0  0
 36105  1  0  0  0
 37 39  1  0  0  0
 37 47  1  0  0  0
 37 66  1  0  0  0
 37106  1  0  0  0
 38 43  2  0  0  0
 38 46  1  0  0  0
 38 47  1  0  0  0
 39 64  1  0  0  0
 39 67  2  0  0  0
 40 52  1  0  0  0
 40 53  2  0  0  0
 40 58  1  0  0  0
 41107  1  0  0  0
 41108  1  0  0  0
 41109  1  0  0  0
 41 48  1  0  0  0
 42 43  1  0  0  0
 42 66  1  0  0  0
 42110  1  0  0  0
 42111  1  0  0  0
 43 44  1  0  0  0
 44112  1  0  0  0
 45 46  2  0  0  0
 45113  1  0  0  0
 46114  1  0  0  0
 47115  1  0  0  0
 47116  1  0  0  0
 48 56  1  0  0  0
 48 65  1  0  0  0
 48117  1  0  0  0
 49 50  1  0  0  0
 49 53  1  0  0  0
 49 64  1  0  0  0
 49118  1  0  0  0
 50 51  1  0  0  0
 50119  1  0  0  0
 50120  1  0  0  0
 51 52  1  0  0  0
 51121  1  0  0  0
 51122  1  0  0  0
 52123  1  0  0  0
 52124  1  0  0  0
 53 54  1  0  0  0
 54 55  2  0  0  0
 54125  1  0  0  0
 55 57  1  0  0  0
 55126  1  0  0  0
 56 69  2  0  0  0
 57 58  2  0  0  0
 57127  1  0  0  0
 58128  1  0  0  0
 59 60  1  0  0  0
 59 61  1  0  0  0
 59 62  1  0  0  0
 60129  1  0  0  0
 60130  1  0  0  0
 60131  1  0  0  0
 61132  1  0  0  0
 61133  1  0  0  0
 61134  1  0  0  0
 62135  1  0  0  0
 62136  1  0  0  0
 62137  1  0  0  0
 63 65  1  0  0  0
 63138  1  0  0  0
 63139  1  0  0  0
 63140  1  0  0  0
 64141  1  0  0  0
 65142  1  0  0  0
 68 79  1  0  0  0
 71 72  2  0  0  0
 71 73  1  0  0  0
 71143  1  0  0  0
 72 74  1  0  0  0
 72144  1  0  0  0
 73 75  2  0  0  0
 73 77  1  0  0  0
 74 79  1  0  0  0
 74 82  2  0  0  0
 75 78  1  0  0  0
 75 82  1  0  0  0
 76 78  1  0  0  0
 76145  1  0  0  0
 76146  1  0  0  0
 76147  1  0  0  0
 77 80  1  0  0  0
 77148  1  0  0  0
 77149  1  0  0  0
 78150  1  0  0  0
 78151  1  0  0  0
 79152  1  0  0  0
 79153  1  0  0  0
 80 81  1  0  0  0
 80154  1  0  0  0
 80155  1  0  0  0
 81 83  1  0  0  0
 81156  1  0  0  0
 81157  1  0  0  0
 83158  1  0  0  0
M  ISO  4   1 100  68 101  79 101  83 100
M  END
> <chiral flag>
0

> <version>
0

> <s_m_source_file>
/data/baiqing/PycharmProjects/Reinvent-master-3.2/result/LINK_invent/BTK/process_docking_weight1_custom_sum_contain_oxygen_bond_distance_aromatic_linkinvent_7_9_3/rearranged_h_0040.sdf

> <i_m_source_file_index>
71

> <r_mmod_Potential_Energy-OPLS-2005>
-82.8032302856445

> <r_mmod_Stretch_Energy-OPLS-2005>
69.7588195800781

> <r_mmod_Bend_Energy-OPLS-2005>
145.606857299805

> <r_mmod_Torsional_Energy-OPLS-2005>
201.773788452148

> <r_mmod_Improper_Torsional_Energy-OPLS-2005>
7.17661237716675

> <r_mmod_Van_der_Waal_Energy-OPLS-2005>
160.610290527344

> <r_mmod_Electrostatic_Energy-OPLS-2005>
-499.771789550781

> <r_mmod_Solvation_Energy-OPLS-2005>
-218.217437744141

> <b_mmod_Minimization_Converged-OPLS-2005>
0

> <r_mmod_RMS_Derivative-OPLS-2005>
2.52821707725525

$$$$
71
                    3D
 Structure written by MMmdl.
162170  0  0  1  0            999 V2000
  -30.7442  -14.3777   20.6329 C   0  0  0  0  0  0
  -30.4219  -12.2739   19.3960 C   0  0  0  0  0  0
  -29.4905  -12.5111   18.1927 C   0  0  0  0  0  0
  -28.0106  -12.3798   18.6076 C   0  0  0  0  0  0
  -27.6699  -13.2025   19.8809 C   0  0  2  0  0  0
  -28.7096  -12.9320   20.9924 C   0  0  0  0  0  0
  -25.2599  -13.8149   20.5632 C   0  0  0  0  0  0
  -24.1864  -13.0423   20.9167 C   0  0  0  0  0  0
  -24.6421  -11.6895   20.8735 C   0  0  0  0  0  0
  -23.9076  -10.4274   21.0408 C   0  0  0  0  0  0
  -24.3633   -9.4180   21.9178 C   0  0  0  0  0  0
  -23.6295   -8.2222   22.0744 C   0  0  0  0  0  0
  -22.4269   -8.0269   21.3548 C   0  0  0  0  0  0
  -21.9921   -9.0241   20.4641 C   0  0  0  0  0  0
  -22.7254  -10.2117   20.3046 C   0  0  0  0  0  0
  -21.6849   -6.0731   22.5272 C   0  0  0  0  0  0
  -21.4023   -6.5641   23.8209 C   0  0  0  0  0  0
  -21.3652   -5.6790   24.9171 C   0  0  0  0  0  0
  -21.6039   -4.3050   24.7221 C   0  0  0  0  0  0
  -21.8823   -3.8143   23.4344 C   0  0  0  0  0  0
  -21.9196   -4.6959   22.3405 C   0  0  0  0  0  0
  -22.7874  -13.5208   21.1826 C   0  0  0  0  0  0
  -22.1643   -4.2147   21.0975 F   0  0  0  0  0  0
  -21.5627   -3.4527   25.7733 F   0  0  0  0  0  0
  -30.0489  -13.2270   20.4506 N   0  0  0  0  0  0
  -26.3066  -12.9326   20.3370 N   0  0  0  0  0  0
  -25.9357  -11.6494   20.5800 N   0  0  0  0  0  0
  -22.0527  -12.8208   22.0407 N   0  0  0  0  0  0
  -25.4300  -15.1860   20.3981 N   0  0  0  0  0  0
  -31.8229  -14.6187   20.0837 O   0  0  0  0  0  0
  -21.6630   -6.8867   21.4233 O   0  0  0  0  0  0
  -22.3536  -14.5479   20.6636 O   0  0  0  0  0  0
  -24.6118  -31.8715   23.2158 C   0  0  0  0  0  0
  -25.9030  -32.4843   23.8421 C   0  0  1  0  0  0
  -27.2283  -27.4599   20.0622 C   0  0  0  0  0  0
  -25.5902  -33.8642   24.2354 N   0  0  0  0  0  0
  -23.3962  -30.4993   21.5578 C   0  0  2  0  0  0
  -24.8356  -28.9706   20.1180 C   0  0  0  0  0  0
  -22.7387  -29.4679   22.5023 C   0  0  0  0  0  0
  -18.0278  -28.1382   22.8499 C   0  0  0  0  0  0
  -24.1482  -36.7318   23.2640 C   0  0  0  0  0  0
  -25.9240  -30.8378   21.3690 C   0  0  0  0  0  0
  -25.9964  -29.4736   20.7178 C   0  0  0  0  0  0
  -27.1887  -28.7186   20.7021 C   0  0  0  0  0  0
  -26.0406  -26.9662   19.4688 C   0  0  0  0  0  0
  -24.8504  -27.7109   19.5015 C   0  0  0  0  0  0
  -23.6004  -29.8386   20.1697 C   0  0  0  0  0  0
  -25.4108  -36.3130   24.0346 C   0  0  1  0  0  0
  -20.5861  -28.3659   23.1338 C   0  0  2  0  0  0
  -20.6764  -26.9398   22.5428 C   0  0  0  0  0  0
  -19.5746  -26.6392   21.5217 C   0  0  0  0  0  0
  -18.1923  -26.7938   22.1618 C   0  0  0  0  0  0
  -19.1522  -28.8837   23.2918 C   0  0  0  0  0  0
  -18.9446  -30.1450   23.8926 C   0  0  0  0  0  0
  -17.6447  -30.6581   24.0576 C   0  0  0  0  0  0
  -25.9034  -34.9493   23.5144 C   0  0  0  0  0  0
  -16.5343  -29.9087   23.6329 C   0  0  0  0  0  0
  -16.7268  -28.6506   23.0343 C   0  0  0  0  0  0
  -26.4482  -31.6616   25.0732 C   0  0  0  0  0  0
  -25.3766  -31.3698   26.1492 C   0  0  0  0  0  0
  -27.0308  -30.3072   24.6079 C   0  0  0  0  0  0
  -27.6075  -32.4335   25.7465 C   0  0  0  0  0  0
  -27.5592  -37.1810   24.8470 C   0  0  0  0  0  0
  -21.4118  -29.3032   22.3743 N   0  0  0  0  0  0
  -26.4302  -37.3809   23.9413 N   0  0  0  0  0  0
  -24.6627  -31.0834   22.1061 N   0  0  0  0  0  0
  -23.4173  -28.8221   23.3043 O   0  0  0  0  0  0
  -28.4239  -26.7700   20.0396 O   0  0  0  0  0  0
  -26.5592  -34.8937   22.4704 O   0  0  0  0  0  0
  -23.5319  -32.1470   23.7561 O   0  0  0  0  0  0
  -28.8778  -23.2250   19.8262 C   0  0  0  0  0  0
  -30.0062  -23.1656   20.6915 C   0  0  0  0  0  0
  -28.8754  -22.0091   19.1929 C   0  0  0  0  0  0
  -30.5215  -24.2266   21.6206 C   0  0  0  0  0  0
  -27.9580  -21.4538   18.1471 C   0  0  0  0  0  0
  -27.9121  -24.3728   19.6778 C   0  0  0  0  0  0
  -30.4172  -19.0427   20.6678 C   0  0  0  0  0  0
  -30.2763  -17.5430   20.3699 C   0  0  0  0  0  0
  -30.3546  -19.9235   19.4042 C   0  0  0  0  0  0
  -30.5617  -16.6675   21.6063 C   0  0  0  0  0  0
  -28.5680  -25.6655   19.1407 C   0  0  0  0  0  0
  -30.6390  -22.0071   20.6101 N   0  0  0  0  0  0
  -29.9335  -21.2842   19.7119 N   0  0  0  0  0  0
  -30.1323  -15.2879   21.4007 N   0  0  0  0  0  0
  -31.4655  -12.3716   19.0906 H   0  0  0  0  0  0
  -30.3118  -11.2499   19.7578 H   0  0  0  0  0  0
  -29.7214  -11.8003   17.3989 H   0  0  0  0  0  0
  -29.6680  -13.5044   17.7777 H   0  0  0  0  0  0
  -27.8091  -11.3222   18.7857 H   0  0  0  0  0  0
  -27.3602  -12.6731   17.7824 H   0  0  0  0  0  0
  -27.7332  -14.2588   19.6166 H   0  0  0  0  0  0
  -28.6735  -11.8803   21.2814 H   0  0  0  0  0  0
  -28.4709  -13.4851   21.9022 H   0  0  0  0  0  0
  -25.2792   -9.5633   22.4743 H   0  0  0  0  0  0
  -23.9998   -7.4614   22.7468 H   0  0  0  0  0  0
  -21.0845   -8.8746   19.8969 H   0  0  0  0  0  0
  -22.3704  -10.9642   19.6137 H   0  0  0  0  0  0
  -21.2016   -7.6149   23.9707 H   0  0  0  0  0  0
  -21.1470   -6.0524   25.9071 H   0  0  0  0  0  0
  -22.0623   -2.7603   23.2841 H   0  0  0  0  0  0
  -22.4148  -11.9888   22.4814 H   0  0  0  0  0  0
  -21.1122  -13.1184   22.2586 H   0  0  0  0  0  0
  -24.6617  -15.8393   20.5015 H   0  0  0  0  0  0
  -26.2849  -15.6226   20.0753 H   0  0  0  0  0  0
  -26.7095  -32.5555   23.1173 H   0  0  0  0  0  0
  -25.0067  -33.9820   25.0512 H   0  0  0  0  0  0
  -22.6844  -31.3172   21.4260 H   0  0  0  0  0  0
  -23.3752  -35.9642   23.3316 H   0  0  0  0  0  0
  -24.3582  -36.8915   22.2053 H   0  0  0  0  0  0
  -23.7221  -37.6524   23.6641 H   0  0  0  0  0  0
  -26.0359  -31.6036   20.5998 H   0  0  0  0  0  0
  -26.8134  -30.8902   21.9842 H   0  0  0  0  0  0
  -28.0843  -29.1069   21.1687 H   0  0  0  0  0  0
  -25.9994  -26.0149   18.9665 H   0  0  0  0  0  0
  -23.9572  -27.3168   19.0364 H   0  0  0  0  0  0
  -23.7064  -30.6190   19.4143 H   0  0  0  0  0  0
  -22.7222  -29.2615   19.8727 H   0  0  0  0  0  0
  -25.1283  -36.2003   25.0843 H   0  0  0  0  0  0
  -20.9964  -28.3219   24.1453 H   0  0  0  0  0  0
  -20.5665  -26.2261   23.3609 H   0  0  0  0  0  0
  -21.6634  -26.7441   22.1214 H   0  0  0  0  0  0
  -19.6899  -25.6303   21.1244 H   0  0  0  0  0  0
  -19.6706  -27.3210   20.6754 H   0  0  0  0  0  0
  -17.4202  -26.6719   21.4008 H   0  0  0  0  0  0
  -18.0305  -26.0065   22.8993 H   0  0  0  0  0  0
  -19.7924  -30.7263   24.2297 H   0  0  0  0  0  0
  -17.5002  -31.6267   24.5163 H   0  0  0  0  0  0
  -15.5344  -30.2986   23.7639 H   0  0  0  0  0  0
  -15.8676  -28.0834   22.7029 H   0  0  0  0  0  0
  -24.5910  -30.7089   25.7815 H   0  0  0  0  0  0
  -24.8986  -32.2840   26.5019 H   0  0  0  0  0  0
  -25.8121  -30.8794   27.0203 H   0  0  0  0  0  0
  -26.2824  -29.6817   24.1193 H   0  0  0  0  0  0
  -27.4172  -29.7327   25.4507 H   0  0  0  0  0  0
  -27.8625  -30.4422   23.9158 H   0  0  0  0  0  0
  -27.2713  -33.3612   26.2108 H   0  0  0  0  0  0
  -28.3823  -32.6942   25.0241 H   0  0  0  0  0  0
  -28.0821  -31.8429   26.5309 H   0  0  0  0  0  0
  -28.2622  -38.0096   24.7517 H   0  0  0  0  0  0
  -28.1075  -36.2632   24.6290 H   0  0  0  0  0  0
  -27.2316  -37.1455   25.8876 H   0  0  0  0  0  0
  -20.9271  -29.8743   21.6965 H   0  0  0  0  0  0
  -26.0200  -38.2891   24.1417 H   0  0  0  0  0  0
  -31.1048  -24.9694   21.0757 H   0  0  0  0  0  0
  -31.1591  -23.8088   22.4000 H   0  0  0  0  0  0
  -29.7008  -24.7467   22.1139 H   0  0  0  0  0  0
  -27.1265  -22.1242   17.9395 H   0  0  0  0  0  0
  -27.5314  -20.5009   18.4631 H   0  0  0  0  0  0
  -28.4937  -21.2916   17.2113 H   0  0  0  0  0  0
  -27.4330  -24.5786   20.6353 H   0  0  0  0  0  0
  -27.0937  -24.0970   19.0142 H   0  0  0  0  0  0
  -31.3522  -19.2419   21.1932 H   0  0  0  0  0  0
  -29.6171  -19.3277   21.3522 H   0  0  0  0  0  0
  -30.9440  -17.2620   19.5548 H   0  0  0  0  0  0
  -29.2605  -17.3573   20.0150 H   0  0  0  0  0  0
  -29.6666  -19.4878   18.6802 H   0  0  0  0  0  0
  -31.3289  -19.9640   18.9152 H   0  0  0  0  0  0
  -30.0197  -17.0554   22.4699 H   0  0  0  0  0  0
  -31.6224  -16.6996   21.8627 H   0  0  0  0  0  0
  -28.1872  -25.9121   18.1475 H   0  0  0  0  0  0
  -29.6378  -25.5157   18.9951 H   0  0  0  0  0  0
  -29.2589  -15.0096   21.8233 H   0  0  0  0  0  0
  1 25  1  0  0  0
  1 30  2  0  0  0
  1 84  1  0  0  0
  2  3  1  0  0  0
  2 25  1  0  0  0
  2 85  1  0  0  0
  2 86  1  0  0  0
  3  4  1  0  0  0
  3 87  1  0  0  0
  3 88  1  0  0  0
  4  5  1  0  0  0
  4 89  1  0  0  0
  4 90  1  0  0  0
  5  6  1  0  0  0
  5 26  1  0  0  0
  5 91  1  0  0  0
  6 25  1  0  0  0
  6 92  1  0  0  0
  6 93  1  0  0  0
  7  8  2  0  0  0
  7 26  1  0  0  0
  7 29  1  0  0  0
  8  9  1  0  0  0
  8 22  1  0  0  0
  9 10  1  0  0  0
  9 27  2  0  0  0
 10 11  2  0  0  0
 10 15  1  0  0  0
 11 12  1  0  0  0
 11 94  1  0  0  0
 12 13  2  0  0  0
 12 95  1  0  0  0
 13 14  1  0  0  0
 13 31  1  0  0  0
 14 15  2  0  0  0
 14 96  1  0  0  0
 15 97  1  0  0  0
 16 17  2  0  0  0
 16 21  1  0  0  0
 16 31  1  0  0  0
 17 18  1  0  0  0
 17 98  1  0  0  0
 18 19  2  0  0  0
 18 99  1  0  0  0
 19 20  1  0  0  0
 19 24  1  0  0  0
 20 21  2  0  0  0
 20100  1  0  0  0
 21 23  1  0  0  0
 22 28  1  0  0  0
 22 32  2  0  0  0
 26 27  1  0  0  0
 28101  1  0  0  0
 28102  1  0  0  0
 29103  1  0  0  0
 29104  1  0  0  0
 33 34  1  0  0  0
 33 66  1  0  0  0
 33 70  2  0  0  0
 34 36  1  0  0  0
 34 59  1  0  0  0
 34105  1  0  0  0
 35 44  2  0  0  0
 35 45  1  0  0  0
 35 68  1  0  0  0
 36 56  1  0  0  0
 36106  1  0  0  0
 37 39  1  0  0  0
 37 47  1  0  0  0
 37 66  1  0  0  0
 37107  1  0  0  0
 38 43  2  0  0  0
 38 46  1  0  0  0
 38 47  1  0  0  0
 39 64  1  0  0  0
 39 67  2  0  0  0
 40 52  1  0  0  0
 40 53  2  0  0  0
 40 58  1  0  0  0
 41108  1  0  0  0
 41109  1  0  0  0
 41110  1  0  0  0
 41 48  1  0  0  0
 42 43  1  0  0  0
 42 66  1  0  0  0
 42111  1  0  0  0
 42112  1  0  0  0
 43 44  1  0  0  0
 44113  1  0  0  0
 45 46  2  0  0  0
 45114  1  0  0  0
 46115  1  0  0  0
 47116  1  0  0  0
 47117  1  0  0  0
 48 56  1  0  0  0
 48 65  1  0  0  0
 48118  1  0  0  0
 49 50  1  0  0  0
 49 53  1  0  0  0
 49 64  1  0  0  0
 49119  1  0  0  0
 50 51  1  0  0  0
 50120  1  0  0  0
 50121  1  0  0  0
 51 52  1  0  0  0
 51122  1  0  0  0
 51123  1  0  0  0
 52124  1  0  0  0
 52125  1  0  0  0
 53 54  1  0  0  0
 54 55  2  0  0  0
 54126  1  0  0  0
 55 57  1  0  0  0
 55127  1  0  0  0
 56 69  2  0  0  0
 57 58  2  0  0  0
 57128  1  0  0  0
 58129  1  0  0  0
 59 60  1  0  0  0
 59 61  1  0  0  0
 59 62  1  0  0  0
 60130  1  0  0  0
 60131  1  0  0  0
 60132  1  0  0  0
 61133  1  0  0  0
 61134  1  0  0  0
 61135  1  0  0  0
 62136  1  0  0  0
 62137  1  0  0  0
 62138  1  0  0  0
 63 65  1  0  0  0
 63139  1  0  0  0
 63140  1  0  0  0
 63141  1  0  0  0
 64142  1  0  0  0
 65143  1  0  0  0
 68 81  1  0  0  0
 71 72  1  0  0  0
 71 73  2  0  0  0
 71 76  1  0  0  0
 72 74  1  0  0  0
 72 82  2  0  0  0
 73 75  1  0  0  0
 73 83  1  0  0  0
 74144  1  0  0  0
 74145  1  0  0  0
 74146  1  0  0  0
 75147  1  0  0  0
 75148  1  0  0  0
 75149  1  0  0  0
 76 81  1  0  0  0
 76150  1  0  0  0
 76151  1  0  0  0
 77 78  1  0  0  0
 77 79  1  0  0  0
 77152  1  0  0  0
 77153  1  0  0  0
 78 80  1  0  0  0
 78154  1  0  0  0
 78155  1  0  0  0
 79 83  1  0  0  0
 79156  1  0  0  0
 79157  1  0  0  0
 80 84  1  0  0  0
 80158  1  0  0  0
 80159  1  0  0  0
 81160  1  0  0  0
 81161  1  0  0  0
 82 83  1  0  0  0
 84162  1  0  0  0
M  ISO  4   1 100  68 101  81 101  84 100
M  END
> <chiral flag>
0

> <version>
0

> <s_m_source_file>
/data/baiqing/PycharmProjects/Reinvent-master-3.2/result/LINK_invent/BTK/process_docking_weight1_custom_sum_contain_oxygen_bond_distance_aromatic_linkinvent_7_9_3/rearranged_h_0040.sdf

> <i_m_source_file_index>
72

> <r_mmod_Potential_Energy-OPLS-2005>
-159.683288574219

> <r_mmod_Stretch_Energy-OPLS-2005>
30.9061546325684

> <r_mmod_Bend_Energy-OPLS-2005>
90.440673828125

> <r_mmod_Torsional_Energy-OPLS-2005>
210.773178100586

> <r_mmod_Improper_Torsional_Energy-OPLS-2005>
2.29499626159668

> <r_mmod_Van_der_Waal_Energy-OPLS-2005>
134.755081176758

> <r_mmod_Electrostatic_Energy-OPLS-2005>
-417.448791503906

> <r_mmod_Solvation_Energy-OPLS-2005>
-219.753143310547

> <b_mmod_Minimization_Converged-OPLS-2005>
0

> <r_mmod_RMS_Derivative-OPLS-2005>
2.51169943809509

$$$$
72
                    3D
 Structure written by MMmdl.
167175  0  0  1  0            999 V2000
  -30.7340  -14.3784   20.6199 C   0  0  0  0  0  0
  -30.4216  -12.2726   19.3961 C   0  0  0  0  0  0
  -29.4840  -12.5174   18.1973 C   0  0  0  0  0  0
  -28.0035  -12.3989   18.6064 C   0  0  0  0  0  0
  -27.6698  -13.2023   19.8917 C   0  0  2  0  0  0
  -28.7113  -12.9266   21.0010 C   0  0  0  0  0  0
  -25.2599  -13.8159   20.5689 C   0  0  0  0  0  0
  -24.1835  -13.0433   20.9211 C   0  0  0  0  0  0
  -24.6392  -11.6896   20.8758 C   0  0  0  0  0  0
  -23.9065  -10.4275   21.0444 C   0  0  0  0  0  0
  -24.3615   -9.4169   21.9205 C   0  0  0  0  0  0
  -23.6280   -8.2208   22.0746 C   0  0  0  0  0  0
  -22.4262   -8.0259   21.3533 C   0  0  0  0  0  0
  -21.9931   -9.0250   20.4640 C   0  0  0  0  0  0
  -22.7260  -10.2120   20.3084 C   0  0  0  0  0  0
  -21.6842   -6.0726   22.5286 C   0  0  0  0  0  0
  -21.3999   -6.5641   23.8210 C   0  0  0  0  0  0
  -21.3644   -5.6792   24.9176 C   0  0  0  0  0  0
  -21.6038   -4.3053   24.7246 C   0  0  0  0  0  0
  -21.8820   -3.8135   23.4374 C   0  0  0  0  0  0
  -21.9198   -4.6955   22.3432 C   0  0  0  0  0  0
  -22.7861  -13.5237   21.1856 C   0  0  0  0  0  0
  -22.1679   -4.2141   21.1017 F   0  0  0  0  0  0
  -21.5620   -3.4541   25.7758 F   0  0  0  0  0  0
  -30.0506  -13.2183   20.4591 N   0  0  0  0  0  0
  -26.3055  -12.9322   20.3446 N   0  0  0  0  0  0
  -25.9309  -11.6481   20.5784 N   0  0  0  0  0  0
  -22.0482  -12.8220   22.0407 N   0  0  0  0  0  0
  -25.4285  -15.1859   20.4056 N   0  0  0  0  0  0
  -31.8189  -14.6079   20.0753 O   0  0  0  0  0  0
  -21.6609   -6.8863   21.4240 O   0  0  0  0  0  0
  -22.3558  -14.5535   20.6701 O   0  0  0  0  0  0
  -24.6095  -31.8722   23.2159 C   0  0  0  0  0  0
  -25.9007  -32.4856   23.8429 C   0  0  1  0  0  0
  -27.2392  -27.4838   20.0906 C   0  0  0  0  0  0
  -25.5881  -33.8649   24.2368 N   0  0  0  0  0  0
  -23.3960  -30.4942   21.5564 C   0  0  2  0  0  0
  -24.8451  -28.9654   20.1191 C   0  0  0  0  0  0
  -22.7390  -29.4648   22.5027 C   0  0  0  0  0  0
  -18.0261  -28.1368   22.8493 C   0  0  0  0  0  0
  -24.1473  -36.7311   23.2636 C   0  0  0  0  0  0
  -25.9187  -30.8518   21.3639 C   0  0  0  0  0  0
  -26.0002  -29.4876   20.7167 C   0  0  0  0  0  0
  -27.2003  -28.7499   20.7086 C   0  0  0  0  0  0
  -26.0762  -26.9665   19.4852 C   0  0  0  0  0  0
  -24.8733  -27.6991   19.5065 C   0  0  0  0  0  0
  -23.6044  -29.8285   20.1699 C   0  0  0  0  0  0
  -25.4097  -36.3124   24.0346 C   0  0  1  0  0  0
  -20.5855  -28.3640   23.1348 C   0  0  2  0  0  0
  -20.6766  -26.9381   22.5440 C   0  0  0  0  0  0
  -19.5756  -26.6382   21.5223 C   0  0  0  0  0  0
  -18.1926  -26.7919   22.1619 C   0  0  0  0  0  0
  -19.1512  -28.8819   23.2925 C   0  0  0  0  0  0
  -18.9438  -30.1425   23.8948 C   0  0  0  0  0  0
  -17.6443  -30.6590   24.0548 C   0  0  0  0  0  0
  -25.9021  -34.9491   23.5156 C   0  0  0  0  0  0
  -16.5331  -29.9091   23.6315 C   0  0  0  0  0  0
  -16.7253  -28.6496   23.0356 C   0  0  0  0  0  0
  -26.4464  -31.6613   25.0728 C   0  0  0  0  0  0
  -25.3744  -31.3693   26.1485 C   0  0  0  0  0  0
  -27.0283  -30.3067   24.6057 C   0  0  0  0  0  0
  -27.6073  -32.4304   25.7470 C   0  0  0  0  0  0
  -27.5584  -37.1809   24.8466 C   0  0  0  0  0  0
  -21.4125  -29.3008   22.3759 N   0  0  0  0  0  0
  -26.4292  -37.3805   23.9418 N   0  0  0  0  0  0
  -24.6594  -31.0849   22.1057 N   0  0  0  0  0  0
  -23.4167  -28.8192   23.3050 O   0  0  0  0  0  0
  -28.4041  -26.7635   20.0636 O   0  0  0  0  0  0
  -26.5575  -34.8942   22.4712 O   0  0  0  0  0  0
  -23.5303  -32.1453   23.7592 O   0  0  0  0  0  0
  -26.6623  -24.5550   21.6489 C   0  0  0  0  0  0
  -28.7397  -23.5636   20.9186 C   0  0  0  0  0  0
  -28.0164  -24.7057   21.2954 C   0  0  0  0  0  0
  -26.0721  -23.2785   21.5581 C   0  0  0  0  0  0
  -26.8826  -22.1910   21.1584 C   0  0  0  0  0  0
  -24.5914  -23.1117   21.8646 C   0  0  0  0  0  0
  -28.6805  -26.0677   21.2765 C   0  0  0  0  0  0
  -26.3534  -20.7734   20.9782 C   0  0  0  0  0  0
  -26.2417  -20.3938   19.4860 C   0  0  0  0  0  0
  -26.1182  -18.8846   19.1823 C   0  0  0  0  0  0
  -27.4636  -18.1859   18.8867 C   0  0  0  0  0  0
  -28.2054  -17.7088   20.1451 C   0  0  0  0  0  0
  -29.6554  -17.3060   19.8663 C   0  0  0  0  0  0
  -30.3605  -16.7605   21.1258 C   0  0  0  0  0  0
  -28.1940  -22.3331   20.8687 N   0  0  0  0  0  0
  -30.0807  -15.3366   21.2898 N   0  0  0  0  0  0
  -31.4593  -12.3859   19.0790 H   0  0  0  0  0  0
  -30.3304  -11.2481   19.7579 H   0  0  0  0  0  0
  -29.6989  -11.8138   17.3921 H   0  0  0  0  0  0
  -29.6696  -13.5108   17.7871 H   0  0  0  0  0  0
  -27.7681  -11.3439   18.7528 H   0  0  0  0  0  0
  -27.3670  -12.7347   17.7859 H   0  0  0  0  0  0
  -27.7323  -14.2587   19.6325 H   0  0  0  0  0  0
  -28.6671  -11.8775   21.2992 H   0  0  0  0  0  0
  -28.4828  -13.4911   21.9058 H   0  0  0  0  0  0
  -25.2761   -9.5607   22.4777 H   0  0  0  0  0  0
  -23.9978   -7.4597   22.7459 H   0  0  0  0  0  0
  -21.0855   -8.8817   19.8945 H   0  0  0  0  0  0
  -22.3768  -10.9686   19.6195 H   0  0  0  0  0  0
  -21.1971   -7.6149   23.9720 H   0  0  0  0  0  0
  -21.1471   -6.0516   25.9080 H   0  0  0  0  0  0
  -22.0611   -2.7598   23.2896 H   0  0  0  0  0  0
  -22.4094  -11.9917   22.4863 H   0  0  0  0  0  0
  -21.1057  -13.1189   22.2501 H   0  0  0  0  0  0
  -24.6640  -15.8412   20.5231 H   0  0  0  0  0  0
  -26.2789  -15.6181   20.0632 H   0  0  0  0  0  0
  -26.7081  -32.5594   23.1208 H   0  0  0  0  0  0
  -25.0040  -33.9814   25.0517 H   0  0  0  0  0  0
  -22.6827  -31.3103   21.4216 H   0  0  0  0  0  0
  -23.3738  -35.9639   23.3320 H   0  0  0  0  0  0
  -24.3570  -36.8893   22.2044 H   0  0  0  0  0  0
  -23.7223  -37.6528   23.6630 H   0  0  0  0  0  0
  -26.0213  -31.6182   20.5934 H   0  0  0  0  0  0
  -26.8097  -30.9111   21.9759 H   0  0  0  0  0  0
  -28.0931  -29.1487   21.1709 H   0  0  0  0  0  0
  -26.1013  -25.9948   19.0134 H   0  0  0  0  0  0
  -23.9830  -27.2884   19.0508 H   0  0  0  0  0  0
  -23.7132  -30.6072   19.4131 H   0  0  0  0  0  0
  -22.7302  -29.2480   19.8714 H   0  0  0  0  0  0
  -25.1266  -36.2005   25.0839 H   0  0  0  0  0  0
  -20.9931  -28.3205   24.1472 H   0  0  0  0  0  0
  -20.5689  -26.2224   23.3605 H   0  0  0  0  0  0
  -21.6635  -26.7456   22.1214 H   0  0  0  0  0  0
  -19.6920  -25.6307   21.1230 H   0  0  0  0  0  0
  -19.6712  -27.3214   20.6772 H   0  0  0  0  0  0
  -17.4196  -26.6664   21.4016 H   0  0  0  0  0  0
  -18.0314  -26.0060   22.9013 H   0  0  0  0  0  0
  -19.7924  -30.7213   24.2347 H   0  0  0  0  0  0
  -17.5014  -31.6279   24.5136 H   0  0  0  0  0  0
  -15.5345  -30.3008   23.7633 H   0  0  0  0  0  0
  -15.8641  -28.0830   22.7068 H   0  0  0  0  0  0
  -24.5885  -30.7097   25.7797 H   0  0  0  0  0  0
  -24.8969  -32.2832   26.5031 H   0  0  0  0  0  0
  -25.8093  -30.8772   27.0192 H   0  0  0  0  0  0
  -26.2817  -29.6844   24.1112 H   0  0  0  0  0  0
  -27.4073  -29.7303   25.4505 H   0  0  0  0  0  0
  -27.8643  -30.4404   23.9182 H   0  0  0  0  0  0
  -27.2726  -33.3564   26.2170 H   0  0  0  0  0  0
  -28.3816  -32.6934   25.0242 H   0  0  0  0  0  0
  -28.0822  -31.8347   26.5278 H   0  0  0  0  0  0
  -28.2609  -38.0101   24.7515 H   0  0  0  0  0  0
  -28.1072  -36.2635   24.6284 H   0  0  0  0  0  0
  -27.2304  -37.1455   25.8872 H   0  0  0  0  0  0
  -20.9296  -29.8702   21.6965 H   0  0  0  0  0  0
  -26.0185  -38.2882   24.1450 H   0  0  0  0  0  0
  -26.0734  -25.4149   21.9389 H   0  0  0  0  0  0
  -29.7758  -23.6336   20.6240 H   0  0  0  0  0  0
  -24.0909  -24.0764   21.9662 H   0  0  0  0  0  0
  -24.4516  -22.5619   22.7945 H   0  0  0  0  0  0
  -24.0916  -22.5658   21.0636 H   0  0  0  0  0  0
  -29.7611  -25.9466   21.3677 H   0  0  0  0  0  0
  -28.3629  -26.6379   22.1515 H   0  0  0  0  0  0
  -25.3914  -20.6311   21.4709 H   0  0  0  0  0  0
  -27.0347  -20.1136   21.5067 H   0  0  0  0  0  0
  -27.0996  -20.7869   18.9379 H   0  0  0  0  0  0
  -25.3808  -20.9159   19.0701 H   0  0  0  0  0  0
  -25.4948  -18.7841   18.2923 H   0  0  0  0  0  0
  -25.5691  -18.3695   19.9706 H   0  0  0  0  0  0
  -28.1000  -18.8404   18.2846 H   0  0  0  0  0  0
  -27.2792  -17.3115   18.2607 H   0  0  0  0  0  0
  -27.6626  -16.8819   20.6000 H   0  0  0  0  0  0
  -28.2332  -18.4960   20.8907 H   0  0  0  0  0  0
  -30.1912  -18.1822   19.5022 H   0  0  0  0  0  0
  -29.6934  -16.5808   19.0509 H   0  0  0  0  0  0
  -31.4355  -16.9325   21.0521 H   0  0  0  0  0  0
  -30.0332  -17.3025   22.0128 H   0  0  0  0  0  0
  -29.2276  -15.0738   21.7610 H   0  0  0  0  0  0
  1 25  1  0  0  0
  1 30  2  0  0  0
  1 86  1  0  0  0
  2  3  1  0  0  0
  2 25  1  0  0  0
  2 87  1  0  0  0
  2 88  1  0  0  0
  3  4  1  0  0  0
  3 89  1  0  0  0
  3 90  1  0  0  0
  4  5  1  0  0  0
  4 91  1  0  0  0
  4 92  1  0  0  0
  5  6  1  0  0  0
  5 26  1  0  0  0
  5 93  1  0  0  0
  6 25  1  0  0  0
  6 94  1  0  0  0
  6 95  1  0  0  0
  7  8  2  0  0  0
  7 26  1  0  0  0
  7 29  1  0  0  0
  8  9  1  0  0  0
  8 22  1  0  0  0
  9 10  1  0  0  0
  9 27  2  0  0  0
 10 11  2  0  0  0
 10 15  1  0  0  0
 11 12  1  0  0  0
 11 96  1  0  0  0
 12 13  2  0  0  0
 12 97  1  0  0  0
 13 14  1  0  0  0
 13 31  1  0  0  0
 14 15  2  0  0  0
 14 98  1  0  0  0
 15 99  1  0  0  0
 16 17  2  0  0  0
 16 21  1  0  0  0
 16 31  1  0  0  0
 17 18  1  0  0  0
 17100  1  0  0  0
 18 19  2  0  0  0
 18101  1  0  0  0
 19 20  1  0  0  0
 19 24  1  0  0  0
 20 21  2  0  0  0
 20102  1  0  0  0
 21 23  1  0  0  0
 22 28  1  0  0  0
 22 32  2  0  0  0
 26 27  1  0  0  0
 28103  1  0  0  0
 28104  1  0  0  0
 29105  1  0  0  0
 29106  1  0  0  0
 33 34  1  0  0  0
 33 66  1  0  0  0
 33 70  2  0  0  0
 34 36  1  0  0  0
 34 59  1  0  0  0
 34107  1  0  0  0
 35 44  2  0  0  0
 35 45  1  0  0  0
 35 68  1  0  0  0
 36 56  1  0  0  0
 36108  1  0  0  0
 37 39  1  0  0  0
 37 47  1  0  0  0
 37 66  1  0  0  0
 37109  1  0  0  0
 38 43  2  0  0  0
 38 46  1  0  0  0
 38 47  1  0  0  0
 39 64  1  0  0  0
 39 67  2  0  0  0
 40 52  1  0  0  0
 40 53  2  0  0  0
 40 58  1  0  0  0
 41110  1  0  0  0
 41111  1  0  0  0
 41112  1  0  0  0
 41 48  1  0  0  0
 42 43  1  0  0  0
 42 66  1  0  0  0
 42113  1  0  0  0
 42114  1  0  0  0
 43 44  1  0  0  0
 44115  1  0  0  0
 45 46  2  0  0  0
 45116  1  0  0  0
 46117  1  0  0  0
 47118  1  0  0  0
 47119  1  0  0  0
 48 56  1  0  0  0
 48 65  1  0  0  0
 48120  1  0  0  0
 49 50  1  0  0  0
 49 53  1  0  0  0
 49 64  1  0  0  0
 49121  1  0  0  0
 50 51  1  0  0  0
 50122  1  0  0  0
 50123  1  0  0  0
 51 52  1  0  0  0
 51124  1  0  0  0
 51125  1  0  0  0
 52126  1  0  0  0
 52127  1  0  0  0
 53 54  1  0  0  0
 54 55  2  0  0  0
 54128  1  0  0  0
 55 57  1  0  0  0
 55129  1  0  0  0
 56 69  2  0  0  0
 57 58  2  0  0  0
 57130  1  0  0  0
 58131  1  0  0  0
 59 60  1  0  0  0
 59 61  1  0  0  0
 59 62  1  0  0  0
 60132  1  0  0  0
 60133  1  0  0  0
 60134  1  0  0  0
 61135  1  0  0  0
 61136  1  0  0  0
 61137  1  0  0  0
 62138  1  0  0  0
 62139  1  0  0  0
 62140  1  0  0  0
 63 65  1  0  0  0
 63141  1  0  0  0
 63142  1  0  0  0
 63143  1  0  0  0
 64144  1  0  0  0
 65145  1  0  0  0
 68 77  1  0  0  0
 71 73  2  0  0  0
 71 74  1  0  0  0
 71146  1  0  0  0
 72 73  1  0  0  0
 72 85  2  0  0  0
 72147  1  0  0  0
 73 77  1  0  0  0
 74 75  2  0  0  0
 74 76  1  0  0  0
 75 78  1  0  0  0
 75 85  1  0  0  0
 76148  1  0  0  0
 76149  1  0  0  0
 76150  1  0  0  0
 77151  1  0  0  0
 77152  1  0  0  0
 78 79  1  0  0  0
 78153  1  0  0  0
 78154  1  0  0  0
 79 80  1  0  0  0
 79155  1  0  0  0
 79156  1  0  0  0
 80 81  1  0  0  0
 80157  1  0  0  0
 80158  1  0  0  0
 81 82  1  0  0  0
 81159  1  0  0  0
 81160  1  0  0  0
 82 83  1  0  0  0
 82161  1  0  0  0
 82162  1  0  0  0
 83 84  1  0  0  0
 83163  1  0  0  0
 83164  1  0  0  0
 84 86  1  0  0  0
 84165  1  0  0  0
 84166  1  0  0  0
 86167  1  0  0  0
M  ISO  4   1 100  68 101  77 101  86 100
M  END
> <chiral flag>
0

> <version>
0

> <s_m_source_file>
/data/baiqing/PycharmProjects/Reinvent-master-3.2/result/LINK_invent/BTK/process_docking_weight1_custom_sum_contain_oxygen_bond_distance_aromatic_linkinvent_7_9_3/rearranged_h_0040.sdf

> <i_m_source_file_index>
73

> <r_mmod_Potential_Energy-OPLS-2005>
-191.80029296875

> <r_mmod_Stretch_Energy-OPLS-2005>
31.01589012146

> <r_mmod_Bend_Energy-OPLS-2005>
87.1338043212891

> <r_mmod_Torsional_Energy-OPLS-2005>
247.547286987305

> <r_mmod_Improper_Torsional_Energy-OPLS-2005>
4.07925081253052

> <r_mmod_Van_der_Waal_Energy-OPLS-2005>
146.608245849609

> <r_mmod_Electrostatic_Energy-OPLS-2005>
-503.764434814453

> <r_mmod_Solvation_Energy-OPLS-2005>
-211.294174194336

> <b_mmod_Minimization_Converged-OPLS-2005>
0

> <r_mmod_RMS_Derivative-OPLS-2005>
3.4226176738739

$$$$
73
                    3D
 Structure written by MMmdl.
159167  0  0  1  0            999 V2000
  -30.7163  -14.4540   20.5286 C   0  0  0  0  0  0
  -30.4132  -12.2803   19.4320 C   0  0  0  0  0  0
  -29.4955  -12.4903   18.2118 C   0  0  0  0  0  0
  -28.0138  -12.3637   18.6179 C   0  0  0  0  0  0
  -27.6600  -13.2104   19.8722 C   0  0  2  0  0  0
  -28.7034  -13.0072   20.9965 C   0  0  0  0  0  0
  -25.2589  -13.8180   20.5699 C   0  0  0  0  0  0
  -24.1844  -13.0454   20.9183 C   0  0  0  0  0  0
  -24.6403  -11.6917   20.8729 C   0  0  0  0  0  0
  -23.9076  -10.4294   21.0397 C   0  0  0  0  0  0
  -24.3621   -9.4212   21.9182 C   0  0  0  0  0  0
  -23.6298   -8.2254   22.0757 C   0  0  0  0  0  0
  -22.4279   -8.0285   21.3555 C   0  0  0  0  0  0
  -21.9913   -9.0265   20.4656 C   0  0  0  0  0  0
  -22.7247  -10.2142   20.3049 C   0  0  0  0  0  0
  -21.6850   -6.0737   22.5289 C   0  0  0  0  0  0
  -21.4019   -6.5634   23.8227 C   0  0  0  0  0  0
  -21.3651   -5.6782   24.9185 C   0  0  0  0  0  0
  -21.6038   -4.3045   24.7224 C   0  0  0  0  0  0
  -21.8817   -3.8140   23.4347 C   0  0  0  0  0  0
  -21.9192   -4.6964   22.3404 C   0  0  0  0  0  0
  -22.7853  -13.5243   21.1818 C   0  0  0  0  0  0
  -22.1657   -4.2148   21.0982 F   0  0  0  0  0  0
  -21.5629   -3.4525   25.7736 F   0  0  0  0  0  0
  -30.0364  -13.2825   20.4390 N   0  0  0  0  0  0
  -26.3024  -12.9359   20.3366 N   0  0  0  0  0  0
  -25.9328  -11.6510   20.5762 N   0  0  0  0  0  0
  -22.0470  -12.8283   22.0375 N   0  0  0  0  0  0
  -25.4282  -15.1915   20.4117 N   0  0  0  0  0  0
  -31.8622  -14.6010   20.0965 O   0  0  0  0  0  0
  -21.6636   -6.8890   21.4257 O   0  0  0  0  0  0
  -22.3543  -14.5547   20.6657 O   0  0  0  0  0  0
  -24.6153  -31.8692   23.2133 C   0  0  0  0  0  0
  -25.9050  -32.4829   23.8416 C   0  0  1  0  0  0
  -27.2215  -27.4368   20.0839 C   0  0  0  0  0  0
  -25.5916  -33.8636   24.2340 N   0  0  0  0  0  0
  -23.4007  -30.4976   21.5545 C   0  0  2  0  0  0
  -24.8434  -28.9730   20.1081 C   0  0  0  0  0  0
  -22.7409  -29.4670   22.4994 C   0  0  0  0  0  0
  -18.0271  -28.1377   22.8498 C   0  0  0  0  0  0
  -24.1485  -36.7314   23.2636 C   0  0  0  0  0  0
  -25.9320  -30.8369   21.3659 C   0  0  0  0  0  0
  -26.0065  -29.4753   20.7054 C   0  0  0  0  0  0
  -27.2004  -28.7164   20.6873 C   0  0  0  0  0  0
  -26.0398  -26.9614   19.4657 C   0  0  0  0  0  0
  -24.8558  -27.7161   19.4846 C   0  0  0  0  0  0
  -23.6058  -29.8384   20.1656 C   0  0  0  0  0  0
  -25.4105  -36.3115   24.0336 C   0  0  1  0  0  0
  -20.5855  -28.3653   23.1326 C   0  0  2  0  0  0
  -20.6753  -26.9392   22.5416 C   0  0  0  0  0  0
  -19.5730  -26.6385   21.5215 C   0  0  0  0  0  0
  -18.1912  -26.7926   22.1626 C   0  0  0  0  0  0
  -19.1519  -28.8836   23.2908 C   0  0  0  0  0  0
  -18.9445  -30.1448   23.8909 C   0  0  0  0  0  0
  -17.6443  -30.6583   24.0566 C   0  0  0  0  0  0
  -25.9035  -34.9487   23.5131 C   0  0  0  0  0  0
  -16.5333  -29.9085   23.6330 C   0  0  0  0  0  0
  -16.7258  -28.6504   23.0349 C   0  0  0  0  0  0
  -26.4479  -31.6612   25.0746 C   0  0  0  0  0  0
  -25.3745  -31.3723   26.1490 C   0  0  0  0  0  0
  -27.0304  -30.3058   24.6120 C   0  0  0  0  0  0
  -27.6052  -32.4335   25.7504 C   0  0  0  0  0  0
  -27.5582  -37.1813   24.8465 C   0  0  0  0  0  0
  -21.4134  -29.3032   22.3743 N   0  0  0  0  0  0
  -26.4290  -37.3798   23.9409 N   0  0  0  0  0  0
  -24.6678  -31.0810   22.1028 N   0  0  0  0  0  0
  -23.4198  -28.8198   23.3011 O   0  0  0  0  0  0
  -28.3726  -26.6714   20.1229 O   0  0  0  0  0  0
  -26.5582  -34.8932   22.4688 O   0  0  0  0  0  0
  -23.5352  -32.1444   23.7537 O   0  0  0  0  0  0
  -28.0760  -20.4492   22.0252 C   0  0  0  0  0  0
  -27.8616  -22.8693   22.2128 C   0  0  0  0  0  0
  -29.4948  -21.9106   20.6824 C   0  0  0  0  0  0
  -27.4631  -21.5776   22.6018 C   0  0  0  0  0  0
  -29.1102  -20.6037   21.0747 C   0  0  0  0  0  0
  -28.8722  -23.0507   21.2446 C   0  0  0  0  0  0
  -26.3850  -21.4042   23.6526 C   0  0  0  0  0  0
  -29.8400  -19.3948   20.4824 C   0  0  0  0  0  0
  -29.2863  -24.4734   20.8574 C   0  0  0  0  0  0
  -29.4503  -17.9980   21.0389 C   0  0  0  0  0  0
  -30.4205  -16.8974   20.5689 C   0  0  0  0  0  0
  -28.1682  -25.2459   20.1295 C   0  0  0  0  0  0
  -29.9965  -15.5263   20.8984 N   0  0  0  0  0  0
  -31.4614  -12.3522   19.1342 H   0  0  0  0  0  0
  -30.2875  -11.2750   19.8392 H   0  0  0  0  0  0
  -29.7337  -11.7668   17.4305 H   0  0  0  0  0  0
  -29.6774  -13.4767   17.7818 H   0  0  0  0  0  0
  -27.8172  -11.3093   18.8149 H   0  0  0  0  0  0
  -27.3677  -12.6380   17.7832 H   0  0  0  0  0  0
  -27.6988  -14.2548   19.5637 H   0  0  0  0  0  0
  -28.6709  -11.9823   21.3659 H   0  0  0  0  0  0
  -28.4778  -13.6421   21.8556 H   0  0  0  0  0  0
  -25.2756   -9.5687   22.4770 H   0  0  0  0  0  0
  -23.9990   -7.4645   22.7490 H   0  0  0  0  0  0
  -21.0838   -8.8794   19.8981 H   0  0  0  0  0  0
  -22.3696  -10.9690   19.6162 H   0  0  0  0  0  0
  -21.2010   -7.6143   23.9727 H   0  0  0  0  0  0
  -21.1481   -6.0517   25.9098 H   0  0  0  0  0  0
  -22.0603   -2.7599   23.2851 H   0  0  0  0  0  0
  -22.4038  -11.9951   22.4806 H   0  0  0  0  0  0
  -21.1105  -13.1365   22.2552 H   0  0  0  0  0  0
  -24.6581  -15.8421   20.5225 H   0  0  0  0  0  0
  -26.2813  -15.6404   20.1020 H   0  0  0  0  0  0
  -26.7124  -32.5539   23.1179 H   0  0  0  0  0  0
  -25.0098  -33.9804   25.0510 H   0  0  0  0  0  0
  -22.6887  -31.3158   21.4229 H   0  0  0  0  0  0
  -23.3747  -35.9651   23.3304 H   0  0  0  0  0  0
  -24.3576  -36.8921   22.2049 H   0  0  0  0  0  0
  -23.7242  -37.6527   23.6641 H   0  0  0  0  0  0
  -26.0475  -31.6086   20.6032 H   0  0  0  0  0  0
  -26.8196  -30.8837   21.9851 H   0  0  0  0  0  0
  -28.0976  -29.0994   21.1541 H   0  0  0  0  0  0
  -26.0108  -26.0045   18.9657 H   0  0  0  0  0  0
  -23.9623  -27.3324   19.0123 H   0  0  0  0  0  0
  -23.7105  -30.6184   19.4115 H   0  0  0  0  0  0
  -22.7291  -29.2592   19.8679 H   0  0  0  0  0  0
  -25.1284  -36.1976   25.0830 H   0  0  0  0  0  0
  -20.9956  -28.3204   24.1442 H   0  0  0  0  0  0
  -20.5650  -26.2259   23.3594 H   0  0  0  0  0  0
  -21.6625  -26.7431   22.1210 H   0  0  0  0  0  0
  -19.6879  -25.6305   21.1229 H   0  0  0  0  0  0
  -19.6669  -27.3210   20.6758 H   0  0  0  0  0  0
  -17.4180  -26.6689   21.4023 H   0  0  0  0  0  0
  -18.0305  -26.0062   22.9014 H   0  0  0  0  0  0
  -19.7918  -30.7270   24.2274 H   0  0  0  0  0  0
  -17.4994  -31.6266   24.5160 H   0  0  0  0  0  0
  -15.5334  -30.2980   23.7654 H   0  0  0  0  0  0
  -15.8659  -28.0828   22.7045 H   0  0  0  0  0  0
  -24.5911  -30.7071   25.7833 H   0  0  0  0  0  0
  -24.8941  -32.2885   26.4943 H   0  0  0  0  0  0
  -25.8100  -30.8892   27.0245 H   0  0  0  0  0  0
  -26.2852  -29.6824   24.1159 H   0  0  0  0  0  0
  -27.4060  -29.7286   25.4580 H   0  0  0  0  0  0
  -27.8695  -30.4376   23.9280 H   0  0  0  0  0  0
  -27.2663  -33.3621   26.2105 H   0  0  0  0  0  0
  -28.3844  -32.6915   25.0322 H   0  0  0  0  0  0
  -28.0730  -31.8445   26.5397 H   0  0  0  0  0  0
  -28.2606  -38.0108   24.7519 H   0  0  0  0  0  0
  -28.1072  -36.2643   24.6276 H   0  0  0  0  0  0
  -27.2302  -37.1453   25.8870 H   0  0  0  0  0  0
  -20.9286  -29.8776   21.6989 H   0  0  0  0  0  0
  -26.0178  -38.2877   24.1417 H   0  0  0  0  0  0
  -27.7510  -19.4674   22.3379 H   0  0  0  0  0  0
  -27.3903  -23.7305   22.6658 H   0  0  0  0  0  0
  -30.2844  -22.0369   19.9525 H   0  0  0  0  0  0
  -25.3944  -21.4683   23.2007 H   0  0  0  0  0  0
  -26.4686  -22.1771   24.4178 H   0  0  0  0  0  0
  -26.4728  -20.4381   24.1502 H   0  0  0  0  0  0
  -30.9047  -19.5571   20.6497 H   0  0  0  0  0  0
  -29.7012  -19.4064   19.4002 H   0  0  0  0  0  0
  -30.1918  -24.4615   20.2492 H   0  0  0  0  0  0
  -29.5429  -25.0011   21.7769 H   0  0  0  0  0  0
  -28.4289  -17.7589   20.7405 H   0  0  0  0  0  0
  -29.4687  -18.0143   22.1292 H   0  0  0  0  0  0
  -31.4100  -17.0835   20.9921 H   0  0  0  0  0  0
  -30.5342  -16.9657   19.4854 H   0  0  0  0  0  0
  -27.2380  -25.0204   20.6540 H   0  0  0  0  0  0
  -28.0571  -24.8739   19.1099 H   0  0  0  0  0  0
  -29.0540  -15.3713   21.2222 H   0  0  0  0  0  0
  1 25  1  0  0  0
  1 30  2  0  0  0
  1 83  1  0  0  0
  2  3  1  0  0  0
  2 25  1  0  0  0
  2 84  1  0  0  0
  2 85  1  0  0  0
  3  4  1  0  0  0
  3 86  1  0  0  0
  3 87  1  0  0  0
  4  5  1  0  0  0
  4 88  1  0  0  0
  4 89  1  0  0  0
  5  6  1  0  0  0
  5 26  1  0  0  0
  5 90  1  0  0  0
  6 25  1  0  0  0
  6 91  1  0  0  0
  6 92  1  0  0  0
  7  8  2  0  0  0
  7 26  1  0  0  0
  7 29  1  0  0  0
  8  9  1  0  0  0
  8 22  1  0  0  0
  9 10  1  0  0  0
  9 27  2  0  0  0
 10 11  2  0  0  0
 10 15  1  0  0  0
 11 12  1  0  0  0
 11 93  1  0  0  0
 12 13  2  0  0  0
 12 94  1  0  0  0
 13 14  1  0  0  0
 13 31  1  0  0  0
 14 15  2  0  0  0
 14 95  1  0  0  0
 15 96  1  0  0  0
 16 17  2  0  0  0
 16 21  1  0  0  0
 16 31  1  0  0  0
 17 18  1  0  0  0
 17 97  1  0  0  0
 18 19  2  0  0  0
 18 98  1  0  0  0
 19 20  1  0  0  0
 19 24  1  0  0  0
 20 21  2  0  0  0
 20 99  1  0  0  0
 21 23  1  0  0  0
 22 28  1  0  0  0
 22 32  2  0  0  0
 26 27  1  0  0  0
 28100  1  0  0  0
 28101  1  0  0  0
 29102  1  0  0  0
 29103  1  0  0  0
 33 34  1  0  0  0
 33 66  1  0  0  0
 33 70  2  0  0  0
 34 36  1  0  0  0
 34 59  1  0  0  0
 34104  1  0  0  0
 35 44  2  0  0  0
 35 45  1  0  0  0
 35 68  1  0  0  0
 36 56  1  0  0  0
 36105  1  0  0  0
 37 39  1  0  0  0
 37 47  1  0  0  0
 37 66  1  0  0  0
 37106  1  0  0  0
 38 43  2  0  0  0
 38 46  1  0  0  0
 38 47  1  0  0  0
 39 64  1  0  0  0
 39 67  2  0  0  0
 40 52  1  0  0  0
 40 53  2  0  0  0
 40 58  1  0  0  0
 41107  1  0  0  0
 41108  1  0  0  0
 41109  1  0  0  0
 41 48  1  0  0  0
 42 43  1  0  0  0
 42 66  1  0  0  0
 42110  1  0  0  0
 42111  1  0  0  0
 43 44  1  0  0  0
 44112  1  0  0  0
 45 46  2  0  0  0
 45113  1  0  0  0
 46114  1  0  0  0
 47115  1  0  0  0
 47116  1  0  0  0
 48 56  1  0  0  0
 48 65  1  0  0  0
 48117  1  0  0  0
 49 50  1  0  0  0
 49 53  1  0  0  0
 49 64  1  0  0  0
 49118  1  0  0  0
 50 51  1  0  0  0
 50119  1  0  0  0
 50120  1  0  0  0
 51 52  1  0  0  0
 51121  1  0  0  0
 51122  1  0  0  0
 52123  1  0  0  0
 52124  1  0  0  0
 53 54  1  0  0  0
 54 55  2  0  0  0
 54125  1  0  0  0
 55 57  1  0  0  0
 55126  1  0  0  0
 56 69  2  0  0  0
 57 58  2  0  0  0
 57127  1  0  0  0
 58128  1  0  0  0
 59 60  1  0  0  0
 59 61  1  0  0  0
 59 62  1  0  0  0
 60129  1  0  0  0
 60130  1  0  0  0
 60131  1  0  0  0
 61132  1  0  0  0
 61133  1  0  0  0
 61134  1  0  0  0
 62135  1  0  0  0
 62136  1  0  0  0
 62137  1  0  0  0
 63 65  1  0  0  0
 63138  1  0  0  0
 63139  1  0  0  0
 63140  1  0  0  0
 64141  1  0  0  0
 65142  1  0  0  0
 68 82  1  0  0  0
 71 74  2  0  0  0
 71 75  1  0  0  0
 71143  1  0  0  0
 72 74  1  0  0  0
 72 76  2  0  0  0
 72144  1  0  0  0
 73 75  2  0  0  0
 73 76  1  0  0  0
 73145  1  0  0  0
 74 77  1  0  0  0
 75 78  1  0  0  0
 76 79  1  0  0  0
 77146  1  0  0  0
 77147  1  0  0  0
 77148  1  0  0  0
 78 80  1  0  0  0
 78149  1  0  0  0
 78150  1  0  0  0
 79 82  1  0  0  0
 79151  1  0  0  0
 79152  1  0  0  0
 80 81  1  0  0  0
 80153  1  0  0  0
 80154  1  0  0  0
 81 83  1  0  0  0
 81155  1  0  0  0
 81156  1  0  0  0
 82157  1  0  0  0
 82158  1  0  0  0
 83159  1  0  0  0
M  ISO  4   1 100  68 101  82 101  83 100
M  END
> <chiral flag>
0

> <version>
0

> <s_m_source_file>
/data/baiqing/PycharmProjects/Reinvent-master-3.2/result/LINK_invent/BTK/process_docking_weight1_custom_sum_contain_oxygen_bond_distance_aromatic_linkinvent_7_9_3/rearranged_h_0040.sdf

> <i_m_source_file_index>
74

> <r_mmod_Potential_Energy-OPLS-2005>
-65.2860260009766

> <r_mmod_Stretch_Energy-OPLS-2005>
35.761775970459

> <r_mmod_Bend_Energy-OPLS-2005>
88.7745361328125

> <r_mmod_Torsional_Energy-OPLS-2005>
204.434020996094

> <r_mmod_Improper_Torsional_Energy-OPLS-2005>
5.81970834732056

> <r_mmod_Van_der_Waal_Energy-OPLS-2005>
159.903015136719

> <r_mmod_Electrostatic_Energy-OPLS-2005>
-371.256530761719

> <r_mmod_Solvation_Energy-OPLS-2005>
-203.957672119141

> <b_mmod_Minimization_Converged-OPLS-2005>
0

> <r_mmod_RMS_Derivative-OPLS-2005>
2.23805689811707

$$$$
74
                    3D
 Structure written by MMmdl.
156164  0  0  1  0            999 V2000
  -30.6219  -14.7211   20.4495 C   0  0  0  0  0  0
  -30.4241  -12.4260   19.4879 C   0  0  0  0  0  0
  -29.5032  -12.4789   18.2503 C   0  0  0  0  0  0
  -28.0304  -12.3034   18.6619 C   0  0  0  0  0  0
  -27.6364  -13.2197   19.8518 C   0  0  2  0  0  0
  -28.6802  -13.1696   20.9900 C   0  0  0  0  0  0
  -25.2473  -13.8190   20.5686 C   0  0  0  0  0  0
  -24.1740  -13.0452   20.9205 C   0  0  0  0  0  0
  -24.6304  -11.6927   20.8711 C   0  0  0  0  0  0
  -23.8963  -10.4291   21.0376 C   0  0  0  0  0  0
  -24.3528   -9.4229   21.9173 C   0  0  0  0  0  0
  -23.6243   -8.2240   22.0754 C   0  0  0  0  0  0
  -22.4239   -8.0237   21.3540 C   0  0  0  0  0  0
  -21.9841   -9.0188   20.4644 C   0  0  0  0  0  0
  -22.7123  -10.2105   20.3048 C   0  0  0  0  0  0
  -21.6861   -6.0681   22.5271 C   0  0  0  0  0  0
  -21.4005   -6.5614   23.8191 C   0  0  0  0  0  0
  -21.3659   -5.6794   24.9158 C   0  0  0  0  0  0
  -21.6064   -4.3053   24.7240 C   0  0  0  0  0  0
  -21.8801   -3.8112   23.4374 C   0  0  0  0  0  0
  -21.9184   -4.6912   22.3407 C   0  0  0  0  0  0
  -22.7771  -13.5236   21.1911 C   0  0  0  0  0  0
  -22.1650   -4.2082   21.0994 F   0  0  0  0  0  0
  -21.5643   -3.4553   25.7764 F   0  0  0  0  0  0
  -29.9825  -13.5030   20.4005 N   0  0  0  0  0  0
  -26.2883  -12.9363   20.3288 N   0  0  0  0  0  0
  -25.9241  -11.6526   20.5757 N   0  0  0  0  0  0
  -22.0439  -12.8186   22.0456 N   0  0  0  0  0  0
  -25.4238  -15.1894   20.4099 N   0  0  0  0  0  0
  -31.8115  -14.8069   20.1388 O   0  0  0  0  0  0
  -21.6662   -6.8807   21.4224 O   0  0  0  0  0  0
  -22.3429  -14.5550   20.6801 O   0  0  0  0  0  0
  -24.6307  -31.8569   23.1896 C   0  0  0  0  0  0
  -25.9112  -32.4784   23.8287 C   0  0  1  0  0  0
  -27.2392  -27.2556   20.1086 C   0  0  0  0  0  0
  -25.5937  -33.8590   24.2223 N   0  0  0  0  0  0
  -23.4322  -30.4729   21.5264 C   0  0  2  0  0  0
  -24.8853  -28.9136   20.1019 C   0  0  0  0  0  0
  -22.7548  -29.4588   22.4822 C   0  0  0  0  0  0
  -18.0331  -28.1355   22.8503 C   0  0  0  0  0  0
  -24.1502  -36.7272   23.2648 C   0  0  0  0  0  0
  -25.9792  -30.7576   21.3765 C   0  0  0  0  0  0
  -26.0497  -29.3752   20.7255 C   0  0  0  0  0  0
  -27.2229  -28.5544   20.7299 C   0  0  0  0  0  0
  -26.0444  -26.8527   19.4746 C   0  0  0  0  0  0
  -24.8888  -27.6592   19.4700 C   0  0  0  0  0  0
  -23.6568  -29.8009   20.1443 C   0  0  0  0  0  0
  -25.4121  -36.3083   24.0349 C   0  0  1  0  0  0
  -20.5938  -28.3676   23.1249 C   0  0  2  0  0  0
  -20.6807  -26.9385   22.5375 C   0  0  0  0  0  0
  -19.5766  -26.6335   21.5213 C   0  0  0  0  0  0
  -18.1947  -26.7902   22.1616 C   0  0  0  0  0  0
  -19.1597  -28.8828   23.2875 C   0  0  0  0  0  0
  -18.9528  -30.1426   23.8894 C   0  0  0  0  0  0
  -17.6532  -30.6564   24.0568 C   0  0  0  0  0  0
  -25.9080  -34.9478   23.5094 C   0  0  0  0  0  0
  -16.5431  -29.9057   23.6326 C   0  0  0  0  0  0
  -16.7324  -28.6462   23.0372 C   0  0  0  0  0  0
  -26.4464  -31.6639   25.0690 C   0  0  0  0  0  0
  -25.3663  -31.3780   26.1410 C   0  0  0  0  0  0
  -27.0377  -30.3127   24.6090 C   0  0  0  0  0  0
  -27.6029  -32.4403   25.7443 C   0  0  0  0  0  0
  -27.5613  -37.1770   24.8454 C   0  0  0  0  0  0
  -21.4247  -29.3079   22.3661 N   0  0  0  0  0  0
  -26.4273  -37.3800   23.9483 N   0  0  0  0  0  0
  -24.6999  -31.0496   22.0867 N   0  0  0  0  0  0
  -23.4270  -28.8119   23.2922 O   0  0  0  0  0  0
  -28.3449  -26.3789   20.1914 O   0  0  0  0  0  0
  -26.5633  -34.8973   22.4651 O   0  0  0  0  0  0
  -23.5436  -32.1389   23.7126 O   0  0  0  0  0  0
  -29.5484  -22.7541   20.1764 C   0  0  0  0  0  0
  -28.5250  -23.6706   19.6860 C   0  0  0  0  0  0
  -29.1366  -21.4287   19.9736 C   0  0  0  0  0  0
  -25.8152  -20.2485   19.6446 C   0  0  0  0  0  0
  -28.5561  -25.2160   19.2703 C   0  0  0  0  0  0
  -29.9296  -20.0531   20.1165 C   0  0  0  0  0  0
  -29.3313  -18.5871   20.4960 C   0  0  0  0  0  0
  -27.0244  -20.5931   18.7597 C   0  0  0  0  0  0
  -30.3360  -17.3146   20.3966 C   0  0  0  0  0  0
  -27.5182  -22.9101   19.2572 N   0  0  0  0  0  0
  -27.8927  -21.5921   19.3659 N   0  0  0  0  0  0
  -29.8714  -15.8737   20.6180 N   0  0  0  0  0  0
  -31.4687  -12.5267   19.1942 H   0  0  0  0  0  0
  -30.3481  -11.4559   19.9843 H   0  0  0  0  0  0
  -29.7874  -11.7081   17.5361 H   0  0  0  0  0  0
  -29.6255  -13.4341   17.7370 H   0  0  0  0  0  0
  -27.8917  -11.2561   18.9383 H   0  0  0  0  0  0
  -27.3713  -12.4810   17.8122 H   0  0  0  0  0  0
  -27.6288  -14.2333   19.4536 H   0  0  0  0  0  0
  -28.7087  -12.1791   21.4486 H   0  0  0  0  0  0
  -28.4174  -13.8670   21.7863 H   0  0  0  0  0  0
  -25.2658   -9.5773   22.4751 H   0  0  0  0  0  0
  -23.9985   -7.4666   22.7481 H   0  0  0  0  0  0
  -21.0781   -8.8637   19.8951 H   0  0  0  0  0  0
  -22.3501  -10.9620   19.6152 H   0  0  0  0  0  0
  -21.1978   -7.6122   23.9652 H   0  0  0  0  0  0
  -21.1516   -6.0549   25.9060 H   0  0  0  0  0  0
  -22.0568   -2.7568   23.2910 H   0  0  0  0  0  0
  -22.4082  -11.9813   22.4749 H   0  0  0  0  0  0
  -21.1075  -13.1192   22.2773 H   0  0  0  0  0  0
  -24.6679  -15.8552   20.5239 H   0  0  0  0  0  0
  -26.2775  -15.6198   20.0798 H   0  0  0  0  0  0
  -26.7185  -32.5409   23.1032 H   0  0  0  0  0  0
  -25.0296  -33.9744   25.0505 H   0  0  0  0  0  0
  -22.7284  -31.2942   21.3665 H   0  0  0  0  0  0
  -23.3847  -35.9524   23.3179 H   0  0  0  0  0  0
  -24.3632  -36.8981   22.2099 H   0  0  0  0  0  0
  -23.7141  -37.6386   23.6745 H   0  0  0  0  0  0
  -26.1167  -31.5058   20.5945 H   0  0  0  0  0  0
  -26.8607  -30.8151   22.0031 H   0  0  0  0  0  0
  -28.1110  -28.8939   21.2404 H   0  0  0  0  0  0
  -25.9692  -25.8815   19.0059 H   0  0  0  0  0  0
  -23.9964  -27.2895   18.9826 H   0  0  0  0  0  0
  -23.7904  -30.5737   19.3865 H   0  0  0  0  0  0
  -22.7785  -29.2322   19.8307 H   0  0  0  0  0  0
  -25.1258  -36.1945   25.0821 H   0  0  0  0  0  0
  -21.0053  -28.3250   24.1363 H   0  0  0  0  0  0
  -20.5735  -26.2301   23.3587 H   0  0  0  0  0  0
  -21.6656  -26.7399   22.1149 H   0  0  0  0  0  0
  -19.6930  -25.6233   21.1260 H   0  0  0  0  0  0
  -19.6690  -27.3156   20.6756 H   0  0  0  0  0  0
  -17.4215  -26.6744   21.3997 H   0  0  0  0  0  0
  -18.0298  -25.9982   22.8942 H   0  0  0  0  0  0
  -19.8014  -30.7268   24.2234 H   0  0  0  0  0  0
  -17.5092  -31.6266   24.5139 H   0  0  0  0  0  0
  -15.5445  -30.3018   23.7592 H   0  0  0  0  0  0
  -15.8702  -28.0809   22.7088 H   0  0  0  0  0  0
  -24.5886  -30.7058   25.7728 H   0  0  0  0  0  0
  -24.8790  -32.2927   26.4800 H   0  0  0  0  0  0
  -25.7950  -30.9009   27.0228 H   0  0  0  0  0  0
  -26.2966  -29.6859   24.1118 H   0  0  0  0  0  0
  -27.4227  -29.7368   25.4513 H   0  0  0  0  0  0
  -27.8718  -30.4551   23.9222 H   0  0  0  0  0  0
  -27.2701  -33.3809   26.1841 H   0  0  0  0  0  0
  -28.3906  -32.6790   25.0280 H   0  0  0  0  0  0
  -28.0610  -31.8632   26.5472 H   0  0  0  0  0  0
  -28.2482  -38.0226   24.7754 H   0  0  0  0  0  0
  -28.1260  -36.2781   24.5945 H   0  0  0  0  0  0
  -27.2371  -37.0949   25.8845 H   0  0  0  0  0  0
  -20.9442  -29.8972   21.7015 H   0  0  0  0  0  0
  -26.0148  -38.2851   24.1605 H   0  0  0  0  0  0
  -30.5336  -23.0514   20.5141 H   0  0  0  0  0  0
  -25.2452  -19.4142   19.2304 H   0  0  0  0  0  0
  -25.1397  -21.1026   19.7247 H   0  0  0  0  0  0
  -26.1228  -19.9784   20.6545 H   0  0  0  0  0  0
  -27.9547  -25.3551   18.3730 H   0  0  0  0  0  0
  -29.5629  -25.3962   18.8931 H   0  0  0  0  0  0
  -30.7113  -20.2338   20.8546 H   0  0  0  0  0  0
  -30.4848  -19.9185   19.1864 H   0  0  0  0  0  0
  -28.4783  -18.3602   19.8629 H   0  0  0  0  0  0
  -28.9269  -18.6449   21.5085 H   0  0  0  0  0  0
  -26.6846  -20.9576   17.7879 H   0  0  0  0  0  0
  -27.6051  -19.7057   18.5206 H   0  0  0  0  0  0
  -31.1832  -17.4852   21.0644 H   0  0  0  0  0  0
  -30.7690  -17.3392   19.3935 H   0  0  0  0  0  0
  -28.8882  -15.7295   20.7961 H   0  0  0  0  0  0
  1 25  1  0  0  0
  1 30  2  0  0  0
  1 82  1  0  0  0
  2  3  1  0  0  0
  2 25  1  0  0  0
  2 83  1  0  0  0
  2 84  1  0  0  0
  3  4  1  0  0  0
  3 85  1  0  0  0
  3 86  1  0  0  0
  4  5  1  0  0  0
  4 87  1  0  0  0
  4 88  1  0  0  0
  5  6  1  0  0  0
  5 26  1  0  0  0
  5 89  1  0  0  0
  6 25  1  0  0  0
  6 90  1  0  0  0
  6 91  1  0  0  0
  7  8  2  0  0  0
  7 26  1  0  0  0
  7 29  1  0  0  0
  8  9  1  0  0  0
  8 22  1  0  0  0
  9 10  1  0  0  0
  9 27  2  0  0  0
 10 11  2  0  0  0
 10 15  1  0  0  0
 11 12  1  0  0  0
 11 92  1  0  0  0
 12 13  2  0  0  0
 12 93  1  0  0  0
 13 14  1  0  0  0
 13 31  1  0  0  0
 14 15  2  0  0  0
 14 94  1  0  0  0
 15 95  1  0  0  0
 16 17  2  0  0  0
 16 21  1  0  0  0
 16 31  1  0  0  0
 17 18  1  0  0  0
 17 96  1  0  0  0
 18 19  2  0  0  0
 18 97  1  0  0  0
 19 20  1  0  0  0
 19 24  1  0  0  0
 20 21  2  0  0  0
 20 98  1  0  0  0
 21 23  1  0  0  0
 22 28  1  0  0  0
 22 32  2  0  0  0
 26 27  1  0  0  0
 28 99  1  0  0  0
 28100  1  0  0  0
 29101  1  0  0  0
 29102  1  0  0  0
 33 34  1  0  0  0
 33 66  1  0  0  0
 33 70  2  0  0  0
 34 36  1  0  0  0
 34 59  1  0  0  0
 34103  1  0  0  0
 35 44  2  0  0  0
 35 45  1  0  0  0
 35 68  1  0  0  0
 36 56  1  0  0  0
 36104  1  0  0  0
 37 39  1  0  0  0
 37 47  1  0  0  0
 37 66  1  0  0  0
 37105  1  0  0  0
 38 43  2  0  0  0
 38 46  1  0  0  0
 38 47  1  0  0  0
 39 64  1  0  0  0
 39 67  2  0  0  0
 40 52  1  0  0  0
 40 53  2  0  0  0
 40 58  1  0  0  0
 41106  1  0  0  0
 41107  1  0  0  0
 41108  1  0  0  0
 41 48  1  0  0  0
 42 43  1  0  0  0
 42 66  1  0  0  0
 42109  1  0  0  0
 42110  1  0  0  0
 43 44  1  0  0  0
 44111  1  0  0  0
 45 46  2  0  0  0
 45112  1  0  0  0
 46113  1  0  0  0
 47114  1  0  0  0
 47115  1  0  0  0
 48 56  1  0  0  0
 48 65  1  0  0  0
 48116  1  0  0  0
 49 50  1  0  0  0
 49 53  1  0  0  0
 49 64  1  0  0  0
 49117  1  0  0  0
 50 51  1  0  0  0
 50118  1  0  0  0
 50119  1  0  0  0
 51 52  1  0  0  0
 51120  1  0  0  0
 51121  1  0  0  0
 52122  1  0  0  0
 52123  1  0  0  0
 53 54  1  0  0  0
 54 55  2  0  0  0
 54124  1  0  0  0
 55 57  1  0  0  0
 55125  1  0  0  0
 56 69  2  0  0  0
 57 58  2  0  0  0
 57126  1  0  0  0
 58127  1  0  0  0
 59 60  1  0  0  0
 59 61  1  0  0  0
 59 62  1  0  0  0
 60128  1  0  0  0
 60129  1  0  0  0
 60130  1  0  0  0
 61131  1  0  0  0
 61132  1  0  0  0
 61133  1  0  0  0
 62134  1  0  0  0
 62135  1  0  0  0
 62136  1  0  0  0
 63 65  1  0  0  0
 63137  1  0  0  0
 63138  1  0  0  0
 63139  1  0  0  0
 64140  1  0  0  0
 65141  1  0  0  0
 68 75  1  0  0  0
 71 72  1  0  0  0
 71 73  2  0  0  0
 71142  1  0  0  0
 72 75  1  0  0  0
 72 80  2  0  0  0
 73 76  1  0  0  0
 73 81  1  0  0  0
 74 78  1  0  0  0
 74143  1  0  0  0
 74144  1  0  0  0
 74145  1  0  0  0
 75146  1  0  0  0
 75147  1  0  0  0
 76 77  1  0  0  0
 76148  1  0  0  0
 76149  1  0  0  0
 77 79  1  0  0  0
 77150  1  0  0  0
 77151  1  0  0  0
 78 81  1  0  0  0
 78152  1  0  0  0
 78153  1  0  0  0
 79 82  1  0  0  0
 79154  1  0  0  0
 79155  1  0  0  0
 80 81  1  0  0  0
 82156  1  0  0  0
M  ISO  4   1 100  68 101  75 101  82 100
M  END
> <chiral flag>
0

> <version>
0

> <s_m_source_file>
/data/baiqing/PycharmProjects/Reinvent-master-3.2/result/LINK_invent/BTK/process_docking_weight1_custom_sum_contain_oxygen_bond_distance_aromatic_linkinvent_7_9_3/rearranged_h_0040.sdf

> <i_m_source_file_index>
75

> <r_mmod_Potential_Energy-OPLS-2005>
168.008804321289

> <r_mmod_Stretch_Energy-OPLS-2005>
123.963874816895

> <r_mmod_Bend_Energy-OPLS-2005>
192.395645141602

> <r_mmod_Torsional_Energy-OPLS-2005>
232.587677001953

> <r_mmod_Improper_Torsional_Energy-OPLS-2005>
8.69578742980957

> <r_mmod_Van_der_Waal_Energy-OPLS-2005>
113.234550476074

> <r_mmod_Electrostatic_Energy-OPLS-2005>
-364.042846679688

> <r_mmod_Solvation_Energy-OPLS-2005>
-222.921966552734

> <b_mmod_Minimization_Converged-OPLS-2005>
0

> <r_mmod_RMS_Derivative-OPLS-2005>
5.66668701171875

$$$$
75
                    3D
 Structure written by MMmdl.
192201  0  0  1  0            999 V2000
  -30.7583  -14.3784   20.6881 C   0  0  0  0  0  0
  -30.4172  -12.3114   19.3872 C   0  0  0  0  0  0
  -29.4761  -12.5444   18.1895 C   0  0  0  0  0  0
  -28.0009  -12.3810   18.6068 C   0  0  0  0  0  0
  -27.6642  -13.1929   19.8847 C   0  0  2  0  0  0
  -28.7098  -12.9148   20.9915 C   0  0  0  0  0  0
  -25.2567  -13.8054   20.5653 C   0  0  0  0  0  0
  -24.1853  -13.0351   20.9174 C   0  0  0  0  0  0
  -24.6397  -11.6824   20.8694 C   0  0  0  0  0  0
  -23.9044  -10.4246   21.0372 C   0  0  0  0  0  0
  -24.3583   -9.4183   21.9170 C   0  0  0  0  0  0
  -23.6246   -8.2230   22.0746 C   0  0  0  0  0  0
  -22.4212   -8.0271   21.3552 C   0  0  0  0  0  0
  -21.9853   -9.0253   20.4647 C   0  0  0  0  0  0
  -22.7191  -10.2116   20.3051 C   0  0  0  0  0  0
  -21.6828   -6.0746   22.5297 C   0  0  0  0  0  0
  -21.4035   -6.5656   23.8238 C   0  0  0  0  0  0
  -21.3663   -5.6813   24.9215 C   0  0  0  0  0  0
  -21.6042   -4.3082   24.7250 C   0  0  0  0  0  0
  -21.8821   -3.8159   23.4376 C   0  0  0  0  0  0
  -21.9175   -4.6970   22.3426 C   0  0  0  0  0  0
  -22.7864  -13.5123   21.1890 C   0  0  0  0  0  0
  -22.1617   -4.2153   21.1000 F   0  0  0  0  0  0
  -21.5634   -3.4557   25.7764 F   0  0  0  0  0  0
  -30.0400  -13.2453   20.4598 N   0  0  0  0  0  0
  -26.3037  -12.9247   20.3413 N   0  0  0  0  0  0
  -25.9323  -11.6408   20.5737 N   0  0  0  0  0  0
  -22.0515  -12.8126   22.0469 N   0  0  0  0  0  0
  -25.4274  -15.1774   20.3957 N   0  0  0  0  0  0
  -31.7948  -14.6432   20.0777 O   0  0  0  0  0  0
  -21.6606   -6.8855   21.4242 O   0  0  0  0  0  0
  -22.3535  -14.5425   20.6727 O   0  0  0  0  0  0
  -24.6112  -31.8708   23.2137 C   0  0  0  0  0  0
  -25.9043  -32.4822   23.8387 C   0  0  1  0  0  0
  -27.2460  -27.4811   20.0624 C   0  0  0  0  0  0
  -25.5940  -33.8613   24.2334 N   0  0  0  0  0  0
  -23.3960  -30.4987   21.5521 C   0  0  2  0  0  0
  -24.8408  -28.9664   20.1171 C   0  0  0  0  0  0
  -22.7375  -29.4704   22.5014 C   0  0  0  0  0  0
  -18.0256  -28.1359   22.8467 C   0  0  0  0  0  0
  -24.1502  -36.7307   23.2635 C   0  0  0  0  0  0
  -25.9199  -30.8528   21.3549 C   0  0  0  0  0  0
  -25.9999  -29.4908   20.6992 C   0  0  0  0  0  0
  -27.2033  -28.7537   20.6727 C   0  0  0  0  0  0
  -26.0651  -26.9717   19.4670 C   0  0  0  0  0  0
  -24.8651  -27.7017   19.5068 C   0  0  0  0  0  0
  -23.6024  -29.8308   20.1659 C   0  0  0  0  0  0
  -25.4121  -36.3102   24.0333 C   0  0  1  0  0  0
  -20.5847  -28.3661   23.1314 C   0  0  2  0  0  0
  -20.6762  -26.9397   22.5420 C   0  0  0  0  0  0
  -19.5753  -26.6379   21.5200 C   0  0  0  0  0  0
  -18.1915  -26.7908   22.1586 C   0  0  0  0  0  0
  -19.1500  -28.8817   23.2884 C   0  0  0  0  0  0
  -18.9451  -30.1423   23.8897 C   0  0  0  0  0  0
  -17.6460  -30.6572   24.0569 C   0  0  0  0  0  0
  -25.9062  -34.9471   23.5133 C   0  0  0  0  0  0
  -16.5348  -29.9095   23.6301 C   0  0  0  0  0  0
  -16.7246  -28.6502   23.0324 C   0  0  0  0  0  0
  -26.4498  -31.6566   25.0674 C   0  0  0  0  0  0
  -25.3804  -31.3659   26.1446 C   0  0  0  0  0  0
  -27.0296  -30.3007   24.5994 C   0  0  0  0  0  0
  -27.6066  -32.4286   25.7434 C   0  0  0  0  0  0
  -27.5579  -37.1811   24.8457 C   0  0  0  0  0  0
  -21.4099  -29.3050   22.3730 N   0  0  0  0  0  0
  -26.4300  -37.3790   23.9407 N   0  0  0  0  0  0
  -24.6608  -31.0876   22.0993 N   0  0  0  0  0  0
  -23.4153  -28.8237   23.3044 O   0  0  0  0  0  0
  -28.4404  -26.7956   20.0646 O   0  0  0  0  0  0
  -26.5592  -34.8921   22.4677 O   0  0  0  0  0  0
  -23.5330  -32.1425   23.7599 O   0  0  0  0  0  0
  -30.0222  -24.9324   21.6739 C   0  0  0  0  0  0
  -27.2541  -20.4146   20.4174 C   0  0  0  0  0  0
  -30.9959  -24.1087   22.2621 C   0  0  0  0  0  0
  -27.8990  -19.3861   21.0583 C   0  0  0  0  0  0
  -31.4913  -23.0064   21.5206 C   0  0  0  0  0  0
  -29.5663  -24.6406   20.3807 C   0  0  0  0  0  0
  -28.0376  -19.8741   22.3987 C   0  0  0  0  0  0
  -31.0151  -22.8347   20.1943 C   0  0  0  0  0  0
  -31.4613  -24.4249   23.6700 C   0  0  0  0  0  0
  -31.4950  -21.7272   19.2701 C   0  0  0  0  0  0
  -23.4564  -22.8565   24.0840 C   0  0  0  0  0  0
  -28.2280  -18.0543   20.4087 C   0  0  0  0  0  0
  -32.4776  -22.0114   22.1422 C   0  0  0  0  0  0
  -28.5758  -19.2289   23.6494 C   0  0  0  0  0  0
  -28.3872  -25.3971   19.7962 C   0  0  0  0  0  0
  -24.8228  -22.9074   23.3866 C   0  0  0  0  0  0
  -29.5097  -17.3063   20.8412 C   0  0  0  0  0  0
  -31.8192  -20.6590   22.4879 C   0  0  0  0  0  0
  -30.1004  -19.3497   23.8974 C   0  0  0  0  0  0
  -30.7695  -20.7189   23.6157 C   0  0  0  0  0  0
  -24.7855  -22.4963   21.8994 C   0  0  0  0  0  0
  -26.1681  -22.5935   21.2131 C   0  0  0  0  0  0
  -29.2589  -16.0624   21.7308 C   0  0  0  0  0  0
  -30.0731  -23.6292   19.6466 N   0  0  0  0  0  0
  -27.4921  -21.0715   22.5464 N   0  0  0  0  0  0
  -26.9580  -21.3805   21.3533 N   0  0  0  0  0  0
  -30.4029  -15.1435   21.7307 N   0  0  0  0  0  0
  -31.4543  -12.4188   19.0699 H   0  0  0  0  0  0
  -30.3392  -11.2863   19.7473 H   0  0  0  0  0  0
  -29.7210  -11.8580   17.3773 H   0  0  0  0  0  0
  -29.6334  -13.5485   17.7972 H   0  0  0  0  0  0
  -27.8083  -11.3210   18.7748 H   0  0  0  0  0  0
  -27.3420  -12.6849   17.7912 H   0  0  0  0  0  0
  -27.7220  -14.2456   19.6110 H   0  0  0  0  0  0
  -28.6867  -11.8562   21.2585 H   0  0  0  0  0  0
  -28.4716  -13.4365   21.9154 H   0  0  0  0  0  0
  -25.2760   -9.5639   22.4743 H   0  0  0  0  0  0
  -23.9964   -7.4600   22.7453 H   0  0  0  0  0  0
  -21.0806   -8.8771   19.8909 H   0  0  0  0  0  0
  -22.3688  -10.9665   19.6135 H   0  0  0  0  0  0
  -21.2044   -7.6174   23.9750 H   0  0  0  0  0  0
  -21.1455   -6.0551   25.9108 H   0  0  0  0  0  0
  -22.0571   -2.7617   23.2883 H   0  0  0  0  0  0
  -22.4036  -11.9739   22.4887 H   0  0  0  0  0  0
  -21.1160  -13.1231   22.2676 H   0  0  0  0  0  0
  -24.6558  -15.8257   20.4933 H   0  0  0  0  0  0
  -26.2674  -15.6076   20.0339 H   0  0  0  0  0  0
  -26.7110  -32.5550   23.1143 H   0  0  0  0  0  0
  -25.0113  -33.9786   25.0497 H   0  0  0  0  0  0
  -22.6831  -31.3141   21.4150 H   0  0  0  0  0  0
  -23.3756  -35.9652   23.3301 H   0  0  0  0  0  0
  -24.3587  -36.8913   22.2048 H   0  0  0  0  0  0
  -23.7272  -37.6527   23.6630 H   0  0  0  0  0  0
  -26.0308  -31.6283   20.5949 H   0  0  0  0  0  0
  -26.8070  -30.9036   21.9720 H   0  0  0  0  0  0
  -28.1012  -29.1701   21.1071 H   0  0  0  0  0  0
  -26.0553  -26.0247   18.9477 H   0  0  0  0  0  0
  -23.9728  -27.2990   19.0481 H   0  0  0  0  0  0
  -23.7078  -30.6039   19.4033 H   0  0  0  0  0  0
  -22.7245  -29.2534   19.8735 H   0  0  0  0  0  0
  -25.1322  -36.1942   25.0828 H   0  0  0  0  0  0
  -20.9926  -28.3234   24.1445 H   0  0  0  0  0  0
  -20.5652  -26.2279   23.3612 H   0  0  0  0  0  0
  -21.6649  -26.7451   22.1244 H   0  0  0  0  0  0
  -19.6952  -25.6300   21.1218 H   0  0  0  0  0  0
  -19.6702  -27.3192   20.6733 H   0  0  0  0  0  0
  -17.4203  -26.6612   21.3977 H   0  0  0  0  0  0
  -18.0327  -26.0048   22.8974 H   0  0  0  0  0  0
  -19.7941  -30.7208   24.2286 H   0  0  0  0  0  0
  -17.5037  -31.6258   24.5177 H   0  0  0  0  0  0
  -15.5359  -30.3028   23.7648 H   0  0  0  0  0  0
  -15.8612  -28.0863   22.7053 H   0  0  0  0  0  0
  -24.5993  -30.6976   25.7808 H   0  0  0  0  0  0
  -24.8997  -32.2819   26.4892 H   0  0  0  0  0  0
  -25.8233  -30.8841   27.0173 H   0  0  0  0  0  0
  -26.2787  -29.6750   24.1151 H   0  0  0  0  0  0
  -27.4193  -29.7251   25.4400 H   0  0  0  0  0  0
  -27.8571  -30.4305   23.9011 H   0  0  0  0  0  0
  -27.2657  -33.3562   26.2030 H   0  0  0  0  0  0
  -28.3865  -32.6879   25.0266 H   0  0  0  0  0  0
  -28.0713  -31.8382   26.5331 H   0  0  0  0  0  0
  -28.2624  -38.0086   24.7517 H   0  0  0  0  0  0
  -28.1056  -36.2630   24.6282 H   0  0  0  0  0  0
  -27.2286  -37.1470   25.8855 H   0  0  0  0  0  0
  -20.9241  -29.8776   21.6955 H   0  0  0  0  0  0
  -26.0173  -38.2864   24.1421 H   0  0  0  0  0  0
  -29.5846  -25.7566   22.2209 H   0  0  0  0  0  0
  -26.9275  -20.5111   19.3889 H   0  0  0  0  0  0
  -30.8023  -25.1528   24.1403 H   0  0  0  0  0  0
  -32.4648  -24.8516   23.6464 H   0  0  0  0  0  0
  -31.4706  -23.5359   24.2984 H   0  0  0  0  0  0
  -30.8218  -20.8726   19.3331 H   0  0  0  0  0  0
  -32.5012  -21.3830   19.5009 H   0  0  0  0  0  0
  -31.5173  -22.0772   18.2371 H   0  0  0  0  0  0
  -23.5396  -23.2115   25.1123 H   0  0  0  0  0  0
  -23.0600  -21.8421   24.1221 H   0  0  0  0  0  0
  -22.7224  -23.4882   23.5816 H   0  0  0  0  0  0
  -28.3123  -18.2254   19.3360 H   0  0  0  0  0  0
  -27.3732  -17.3828   20.4860 H   0  0  0  0  0  0
  -32.9663  -22.4150   23.0284 H   0  0  0  0  0  0
  -33.3057  -21.8441   21.4568 H   0  0  0  0  0  0
  -28.0622  -19.6682   24.5077 H   0  0  0  0  0  0
  -28.2689  -18.1857   23.6709 H   0  0  0  0  0  0
  -27.5081  -24.9627   20.2704 H   0  0  0  0  0  0
  -28.3166  -25.2242   18.7221 H   0  0  0  0  0  0
  -25.5164  -22.2690   23.9357 H   0  0  0  0  0  0
  -25.2234  -23.9185   23.4704 H   0  0  0  0  0  0
  -30.2670  -17.9750   21.2521 H   0  0  0  0  0  0
  -29.9510  -16.9355   19.9146 H   0  0  0  0  0  0
  -32.6061  -19.9643   22.7787 H   0  0  0  0  0  0
  -31.3628  -20.2336   21.5952 H   0  0  0  0  0  0
  -30.6180  -18.5686   23.3435 H   0  0  0  0  0  0
  -30.2804  -19.0886   24.9396 H   0  0  0  0  0  0
  -30.0214  -21.4775   23.3898 H   0  0  0  0  0  0
  -31.2603  -21.0577   24.5304 H   0  0  0  0  0  0
  -24.0890  -23.1518   21.3719 H   0  0  0  0  0  0
  -24.3864  -21.4841   21.7949 H   0  0  0  0  0  0
  -26.7312  -23.4267   21.6344 H   0  0  0  0  0  0
  -26.0491  -22.8047   20.1478 H   0  0  0  0  0  0
  -28.3597  -15.5466   21.4053 H   0  0  0  0  0  0
  -29.0582  -16.3534   22.7615 H   0  0  0  0  0  0
  -31.2193  -15.6047   22.1083 H   0  0  0  0  0  0
  1 25  1  0  0  0
  1 30  2  0  0  0
  1 97  1  0  0  0
  2  3  1  0  0  0
  2 25  1  0  0  0
  2 98  1  0  0  0
  2 99  1  0  0  0
  3  4  1  0  0  0
  3100  1  0  0  0
  3101  1  0  0  0
  4  5  1  0  0  0
  4102  1  0  0  0
  4103  1  0  0  0
  5  6  1  0  0  0
  5 26  1  0  0  0
  5104  1  0  0  0
  6 25  1  0  0  0
  6105  1  0  0  0
  6106  1  0  0  0
  7  8  2  0  0  0
  7 26  1  0  0  0
  7 29  1  0  0  0
  8  9  1  0  0  0
  8 22  1  0  0  0
  9 10  1  0  0  0
  9 27  2  0  0  0
 10 11  2  0  0  0
 10 15  1  0  0  0
 11 12  1  0  0  0
 11107  1  0  0  0
 12 13  2  0  0  0
 12108  1  0  0  0
 13 14  1  0  0  0
 13 31  1  0  0  0
 14 15  2  0  0  0
 14109  1  0  0  0
 15110  1  0  0  0
 16 17  2  0  0  0
 16 21  1  0  0  0
 16 31  1  0  0  0
 17 18  1  0  0  0
 17111  1  0  0  0
 18 19  2  0  0  0
 18112  1  0  0  0
 19 20  1  0  0  0
 19 24  1  0  0  0
 20 21  2  0  0  0
 20113  1  0  0  0
 21 23  1  0  0  0
 22 28  1  0  0  0
 22 32  2  0  0  0
 26 27  1  0  0  0
 28114  1  0  0  0
 28115  1  0  0  0
 29116  1  0  0  0
 29117  1  0  0  0
 33 34  1  0  0  0
 33 66  1  0  0  0
 33 70  2  0  0  0
 34 36  1  0  0  0
 34 59  1  0  0  0
 34118  1  0  0  0
 35 44  2  0  0  0
 35 45  1  0  0  0
 35 68  1  0  0  0
 36 56  1  0  0  0
 36119  1  0  0  0
 37 39  1  0  0  0
 37 47  1  0  0  0
 37 66  1  0  0  0
 37120  1  0  0  0
 38 43  2  0  0  0
 38 46  1  0  0  0
 38 47  1  0  0  0
 39 64  1  0  0  0
 39 67  2  0  0  0
 40 52  1  0  0  0
 40 53  2  0  0  0
 40 58  1  0  0  0
 41121  1  0  0  0
 41122  1  0  0  0
 41123  1  0  0  0
 41 48  1  0  0  0
 42 43  1  0  0  0
 42 66  1  0  0  0
 42124  1  0  0  0
 42125  1  0  0  0
 43 44  1  0  0  0
 44126  1  0  0  0
 45 46  2  0  0  0
 45127  1  0  0  0
 46128  1  0  0  0
 47129  1  0  0  0
 47130  1  0  0  0
 48 56  1  0  0  0
 48 65  1  0  0  0
 48131  1  0  0  0
 49 50  1  0  0  0
 49 53  1  0  0  0
 49 64  1  0  0  0
 49132  1  0  0  0
 50 51  1  0  0  0
 50133  1  0  0  0
 50134  1  0  0  0
 51 52  1  0  0  0
 51135  1  0  0  0
 51136  1  0  0  0
 52137  1  0  0  0
 52138  1  0  0  0
 53 54  1  0  0  0
 54 55  2  0  0  0
 54139  1  0  0  0
 55 57  1  0  0  0
 55140  1  0  0  0
 56 69  2  0  0  0
 57 58  2  0  0  0
 57141  1  0  0  0
 58142  1  0  0  0
 59 60  1  0  0  0
 59 61  1  0  0  0
 59 62  1  0  0  0
 60143  1  0  0  0
 60144  1  0  0  0
 60145  1  0  0  0
 61146  1  0  0  0
 61147  1  0  0  0
 61148  1  0  0  0
 62149  1  0  0  0
 62150  1  0  0  0
 62151  1  0  0  0
 63 65  1  0  0  0
 63152  1  0  0  0
 63153  1  0  0  0
 63154  1  0  0  0
 64155  1  0  0  0
 65156  1  0  0  0
 68 85  1  0  0  0
 71 73  2  0  0  0
 71 76  1  0  0  0
 71157  1  0  0  0
 72 74  2  0  0  0
 72 96  1  0  0  0
 72158  1  0  0  0
 73 75  1  0  0  0
 73 79  1  0  0  0
 74 77  1  0  0  0
 74 82  1  0  0  0
 75 78  2  0  0  0
 75 83  1  0  0  0
 76 85  1  0  0  0
 76 94  2  0  0  0
 77 84  1  0  0  0
 77 95  2  0  0  0
 78 80  1  0  0  0
 78 94  1  0  0  0
 79159  1  0  0  0
 79160  1  0  0  0
 79161  1  0  0  0
 80162  1  0  0  0
 80163  1  0  0  0
 80164  1  0  0  0
 81 86  1  0  0  0
 81165  1  0  0  0
 81166  1  0  0  0
 81167  1  0  0  0
 82 87  1  0  0  0
 82168  1  0  0  0
 82169  1  0  0  0
 83 88  1  0  0  0
 83170  1  0  0  0
 83171  1  0  0  0
 84 89  1  0  0  0
 84172  1  0  0  0
 84173  1  0  0  0
 85174  1  0  0  0
 85175  1  0  0  0
 86 91  1  0  0  0
 86176  1  0  0  0
 86177  1  0  0  0
 87 93  1  0  0  0
 87178  1  0  0  0
 87179  1  0  0  0
 88 90  1  0  0  0
 88180  1  0  0  0
 88181  1  0  0  0
 89 90  1  0  0  0
 89182  1  0  0  0
 89183  1  0  0  0
 90184  1  0  0  0
 90185  1  0  0  0
 91 92  1  0  0  0
 91186  1  0  0  0
 91187  1  0  0  0
 92 96  1  0  0  0
 92188  1  0  0  0
 92189  1  0  0  0
 93 97  1  0  0  0
 93190  1  0  0  0
 93191  1  0  0  0
 95 96  1  0  0  0
 97192  1  0  0  0
M  ISO  4   1 100  68 101  85 101  97 100
M  END
> <chiral flag>
0

> <version>
0

> <s_m_source_file>
/data/baiqing/PycharmProjects/Reinvent-master-3.2/result/LINK_invent/BTK/process_docking_weight1_custom_sum_contain_oxygen_bond_distance_aromatic_linkinvent_7_9_3/rearranged_h_0040.sdf

> <i_m_source_file_index>
76

> <r_mmod_Potential_Energy-OPLS-2005>
-123.792984008789

> <r_mmod_Stretch_Energy-OPLS-2005>
36.3943290710449

> <r_mmod_Bend_Energy-OPLS-2005>
130.230484008789

> <r_mmod_Torsional_Energy-OPLS-2005>
295.313873291016

> <r_mmod_Improper_Torsional_Energy-OPLS-2005>
8.9097900390625

> <r_mmod_Van_der_Waal_Energy-OPLS-2005>
129.296829223633

> <r_mmod_Electrostatic_Energy-OPLS-2005>
-505.326354980469

> <r_mmod_Solvation_Energy-OPLS-2005>
-226.988662719727

> <b_mmod_Minimization_Converged-OPLS-2005>
0

> <r_mmod_RMS_Derivative-OPLS-2005>
5.60123205184937

$$$$
76
                    3D
 Structure written by MMmdl.
162170  0  0  1  0            999 V2000
  -30.7803  -14.3374   20.7085 C   0  0  0  0  0  0
  -30.4140  -12.2848   19.3892 C   0  0  0  0  0  0
  -29.4796  -12.5282   18.1903 C   0  0  0  0  0  0
  -28.0065  -12.3771   18.6093 C   0  0  0  0  0  0
  -27.6661  -13.1996   19.8785 C   0  0  2  0  0  0
  -28.7010  -12.9377   20.9941 C   0  0  0  0  0  0
  -25.2603  -13.8150   20.5661 C   0  0  0  0  0  0
  -24.1850  -13.0438   20.9154 C   0  0  0  0  0  0
  -24.6391  -11.6901   20.8721 C   0  0  0  0  0  0
  -23.9056  -10.4286   21.0401 C   0  0  0  0  0  0
  -24.3611   -9.4202   21.9176 C   0  0  0  0  0  0
  -23.6286   -8.2241   22.0754 C   0  0  0  0  0  0
  -22.4267   -8.0275   21.3548 C   0  0  0  0  0  0
  -21.9901   -9.0247   20.4646 C   0  0  0  0  0  0
  -22.7232  -10.2125   20.3048 C   0  0  0  0  0  0
  -21.6853   -6.0733   22.5283 C   0  0  0  0  0  0
  -21.4014   -6.5640   23.8214 C   0  0  0  0  0  0
  -21.3657   -5.6795   24.9180 C   0  0  0  0  0  0
  -21.6046   -4.3059   24.7233 C   0  0  0  0  0  0
  -21.8817   -3.8150   23.4355 C   0  0  0  0  0  0
  -21.9191   -4.6961   22.3409 C   0  0  0  0  0  0
  -22.7874  -13.5239   21.1833 C   0  0  0  0  0  0
  -22.1663   -4.2149   21.0985 F   0  0  0  0  0  0
  -21.5625   -3.4538   25.7745 F   0  0  0  0  0  0
  -30.0478  -13.2219   20.4617 N   0  0  0  0  0  0
  -26.3042  -12.9315   20.3357 N   0  0  0  0  0  0
  -25.9310  -11.6477   20.5737 N   0  0  0  0  0  0
  -22.0521  -12.8229   22.0392 N   0  0  0  0  0  0
  -25.4343  -15.1866   20.4086 N   0  0  0  0  0  0
  -31.7854  -14.6497   20.0613 O   0  0  0  0  0  0
  -21.6637   -6.8873   21.4247 O   0  0  0  0  0  0
  -22.3552  -14.5554   20.6692 O   0  0  0  0  0  0
  -24.6102  -31.8714   23.2153 C   0  0  0  0  0  0
  -25.9013  -32.4838   23.8426 C   0  0  1  0  0  0
  -27.2349  -27.4735   20.0930 C   0  0  0  0  0  0
  -25.5886  -33.8637   24.2364 N   0  0  0  0  0  0
  -23.3966  -30.4925   21.5547 C   0  0  2  0  0  0
  -24.8472  -28.9699   20.1139 C   0  0  0  0  0  0
  -22.7389  -29.4658   22.5023 C   0  0  0  0  0  0
  -18.0263  -28.1359   22.8501 C   0  0  0  0  0  0
  -24.1493  -36.7314   23.2635 C   0  0  0  0  0  0
  -25.9219  -30.8496   21.3662 C   0  0  0  0  0  0
  -26.0041  -29.4874   20.7122 C   0  0  0  0  0  0
  -27.2027  -28.7423   20.7074 C   0  0  0  0  0  0
  -26.0686  -26.9726   19.4720 C   0  0  0  0  0  0
  -24.8704  -27.7080   19.4945 C   0  0  0  0  0  0
  -23.6029  -29.8252   20.1683 C   0  0  0  0  0  0
  -25.4111  -36.3121   24.0345 C   0  0  1  0  0  0
  -20.5854  -28.3647   23.1336 C   0  0  2  0  0  0
  -20.6759  -26.9387   22.5418 C   0  0  0  0  0  0
  -19.5736  -26.6375   21.5211 C   0  0  0  0  0  0
  -18.1911  -26.7914   22.1619 C   0  0  0  0  0  0
  -19.1512  -28.8824   23.2914 C   0  0  0  0  0  0
  -18.9444  -30.1434   23.8919 C   0  0  0  0  0  0
  -17.6445  -30.6581   24.0560 C   0  0  0  0  0  0
  -25.9029  -34.9478   23.5157 C   0  0  0  0  0  0
  -16.5334  -29.9078   23.6326 C   0  0  0  0  0  0
  -16.7255  -28.6485   23.0365 C   0  0  0  0  0  0
  -26.4462  -31.6605   25.0736 C   0  0  0  0  0  0
  -25.3735  -31.3659   26.1483 C   0  0  0  0  0  0
  -27.0313  -30.3064   24.6081 C   0  0  0  0  0  0
  -27.6069  -32.4302   25.7478 C   0  0  0  0  0  0
  -27.5592  -37.1802   24.8465 C   0  0  0  0  0  0
  -21.4122  -29.3021   22.3761 N   0  0  0  0  0  0
  -26.4308  -37.3795   23.9407 N   0  0  0  0  0  0
  -24.6603  -31.0840   22.1040 N   0  0  0  0  0  0
  -23.4187  -28.8214   23.3053 O   0  0  0  0  0  0
  -28.3870  -26.7233   20.1129 O   0  0  0  0  0  0
  -26.5574  -34.8916   22.4709 O   0  0  0  0  0  0
  -23.5297  -32.1470   23.7536 O   0  0  0  0  0  0
  -28.8485  -24.2745   19.9166 C   0  0  0  0  0  0
  -28.2670  -23.2241   20.5722 C   0  0  0  0  0  0
  -28.2792  -25.4178   20.5309 C   0  0  0  0  0  0
  -27.1578  -23.0690   23.9160 C   0  0  0  0  0  0
  -28.3917  -21.7611   20.3038 C   0  0  0  0  0  0
  -29.1319  -20.9760   21.3971 C   0  0  0  0  0  0
  -29.5943  -19.6119   20.8754 C   0  0  0  0  0  0
  -30.0527  -18.6401   21.9697 C   0  0  0  0  0  0
  -30.8453  -17.4762   21.3551 C   0  0  0  0  0  0
  -26.5679  -23.0931   22.5010 C   0  0  0  0  0  0
  -31.0281  -16.2588   22.2840 C   0  0  0  0  0  0
  -27.4900  -25.1093   21.5527 N   0  0  0  0  0  0
  -27.4491  -23.7606   21.5560 N   0  0  0  0  0  0
  -30.3707  -15.0634   21.7575 N   0  0  0  0  0  0
  -31.4571  -12.3882   19.0832 H   0  0  0  0  0  0
  -30.3140  -11.2593   19.7477 H   0  0  0  0  0  0
  -29.7113  -11.8293   17.3855 H   0  0  0  0  0  0
  -29.6489  -13.5281   17.7879 H   0  0  0  0  0  0
  -27.8198  -11.3182   18.7932 H   0  0  0  0  0  0
  -27.3495  -12.6626   17.7870 H   0  0  0  0  0  0
  -27.7264  -14.2534   19.6063 H   0  0  0  0  0  0
  -28.6570  -11.8953   21.3113 H   0  0  0  0  0  0
  -28.4419  -13.5174   21.8798 H   0  0  0  0  0  0
  -25.2757   -9.5688   22.4744 H   0  0  0  0  0  0
  -24.0004   -7.4637   22.7473 H   0  0  0  0  0  0
  -21.0836   -8.8763   19.8951 H   0  0  0  0  0  0
  -22.3689  -10.9663   19.6154 H   0  0  0  0  0  0
  -21.2008   -7.6145   23.9723 H   0  0  0  0  0  0
  -21.1480   -6.0520   25.9080 H   0  0  0  0  0  0
  -22.0598   -2.7608   23.2855 H   0  0  0  0  0  0
  -22.4128  -11.9870   22.4766 H   0  0  0  0  0  0
  -21.1147  -13.1257   22.2621 H   0  0  0  0  0  0
  -24.6733  -15.8469   20.5209 H   0  0  0  0  0  0
  -26.2995  -15.6254   20.1188 H   0  0  0  0  0  0
  -26.7089  -32.5568   23.1203 H   0  0  0  0  0  0
  -25.0069  -33.9807   25.0524 H   0  0  0  0  0  0
  -22.6832  -31.3075   21.4167 H   0  0  0  0  0  0
  -23.3756  -35.9644   23.3307 H   0  0  0  0  0  0
  -24.3585  -36.8912   22.2046 H   0  0  0  0  0  0
  -23.7241  -37.6520   23.6644 H   0  0  0  0  0  0
  -26.0286  -31.6190   20.5998 H   0  0  0  0  0  0
  -26.8106  -30.9048   21.9832 H   0  0  0  0  0  0
  -28.0955  -29.1281   21.1805 H   0  0  0  0  0  0
  -26.0844  -26.0032   18.9934 H   0  0  0  0  0  0
  -23.9816  -27.3008   19.0320 H   0  0  0  0  0  0
  -23.6975  -30.5989   19.4057 H   0  0  0  0  0  0
  -22.7313  -29.2339   19.8818 H   0  0  0  0  0  0
  -25.1282  -36.2003   25.0837 H   0  0  0  0  0  0
  -20.9941  -28.3209   24.1460 H   0  0  0  0  0  0
  -20.5672  -26.2236   23.3585 H   0  0  0  0  0  0
  -21.6625  -26.7439   22.1199 H   0  0  0  0  0  0
  -19.6889  -25.6296   21.1219 H   0  0  0  0  0  0
  -19.6678  -27.3197   20.6753 H   0  0  0  0  0  0
  -17.4176  -26.6672   21.4026 H   0  0  0  0  0  0
  -18.0304  -26.0050   22.9009 H   0  0  0  0  0  0
  -19.7929  -30.7236   24.2295 H   0  0  0  0  0  0
  -17.5013  -31.6272   24.5145 H   0  0  0  0  0  0
  -15.5337  -30.2983   23.7659 H   0  0  0  0  0  0
  -15.8653  -28.0809   22.7080 H   0  0  0  0  0  0
  -24.5954  -30.6960   25.7810 H   0  0  0  0  0  0
  -24.8844  -32.2773   26.4935 H   0  0  0  0  0  0
  -25.8093  -30.8843   27.0247 H   0  0  0  0  0  0
  -26.2866  -29.6784   24.1182 H   0  0  0  0  0  0
  -27.4181  -29.7327   25.4510 H   0  0  0  0  0  0
  -27.8646  -30.4409   23.9179 H   0  0  0  0  0  0
  -27.2753  -33.3623   26.2063 H   0  0  0  0  0  0
  -28.3870  -32.6808   25.0279 H   0  0  0  0  0  0
  -28.0752  -31.8404   26.5370 H   0  0  0  0  0  0
  -28.2602  -38.0112   24.7552 H   0  0  0  0  0  0
  -28.1101  -36.2640   24.6267 H   0  0  0  0  0  0
  -27.2295  -37.1429   25.8865 H   0  0  0  0  0  0
  -20.9276  -29.8743   21.6992 H   0  0  0  0  0  0
  -26.0205  -38.2878   24.1414 H   0  0  0  0  0  0
  -29.5224  -24.2341   19.0719 H   0  0  0  0  0  0
  -26.4640  -22.6014   24.6153 H   0  0  0  0  0  0
  -27.3655  -24.0795   24.2686 H   0  0  0  0  0  0
  -28.0904  -22.5067   23.9483 H   0  0  0  0  0  0
  -28.9095  -21.6330   19.3529 H   0  0  0  0  0  0
  -27.4013  -21.3309   20.1503 H   0  0  0  0  0  0
  -28.4914  -20.8563   22.2709 H   0  0  0  0  0  0
  -30.0092  -21.5379   21.7232 H   0  0  0  0  0  0
  -30.4074  -19.7743   20.1666 H   0  0  0  0  0  0
  -28.7875  -19.1415   20.3102 H   0  0  0  0  0  0
  -29.1758  -18.2661   22.5017 H   0  0  0  0  0  0
  -30.6690  -19.1541   22.7102 H   0  0  0  0  0  0
  -31.8300  -17.8477   21.0671 H   0  0  0  0  0  0
  -30.3717  -17.1749   20.4197 H   0  0  0  0  0  0
  -25.6052  -23.6081   22.5055 H   0  0  0  0  0  0
  -26.3641  -22.0798   22.1565 H   0  0  0  0  0  0
  -30.6347  -16.4632   23.2806 H   0  0  0  0  0  0
  -32.0916  -16.0497   22.4202 H   0  0  0  0  0  0
  -29.5533  -14.7290   22.2474 H   0  0  0  0  0  0
  1 25  1  0  0  0
  1 30  2  0  0  0
  1 84  1  0  0  0
  2  3  1  0  0  0
  2 25  1  0  0  0
  2 85  1  0  0  0
  2 86  1  0  0  0
  3  4  1  0  0  0
  3 87  1  0  0  0
  3 88  1  0  0  0
  4  5  1  0  0  0
  4 89  1  0  0  0
  4 90  1  0  0  0
  5  6  1  0  0  0
  5 26  1  0  0  0
  5 91  1  0  0  0
  6 25  1  0  0  0
  6 92  1  0  0  0
  6 93  1  0  0  0
  7  8  2  0  0  0
  7 26  1  0  0  0
  7 29  1  0  0  0
  8  9  1  0  0  0
  8 22  1  0  0  0
  9 10  1  0  0  0
  9 27  2  0  0  0
 10 11  2  0  0  0
 10 15  1  0  0  0
 11 12  1  0  0  0
 11 94  1  0  0  0
 12 13  2  0  0  0
 12 95  1  0  0  0
 13 14  1  0  0  0
 13 31  1  0  0  0
 14 15  2  0  0  0
 14 96  1  0  0  0
 15 97  1  0  0  0
 16 17  2  0  0  0
 16 21  1  0  0  0
 16 31  1  0  0  0
 17 18  1  0  0  0
 17 98  1  0  0  0
 18 19  2  0  0  0
 18 99  1  0  0  0
 19 20  1  0  0  0
 19 24  1  0  0  0
 20 21  2  0  0  0
 20100  1  0  0  0
 21 23  1  0  0  0
 22 28  1  0  0  0
 22 32  2  0  0  0
 26 27  1  0  0  0
 28101  1  0  0  0
 28102  1  0  0  0
 29103  1  0  0  0
 29104  1  0  0  0
 33 34  1  0  0  0
 33 66  1  0  0  0
 33 70  2  0  0  0
 34 36  1  0  0  0
 34 59  1  0  0  0
 34105  1  0  0  0
 35 44  2  0  0  0
 35 45  1  0  0  0
 35 68  1  0  0  0
 36 56  1  0  0  0
 36106  1  0  0  0
 37 39  1  0  0  0
 37 47  1  0  0  0
 37 66  1  0  0  0
 37107  1  0  0  0
 38 43  2  0  0  0
 38 46  1  0  0  0
 38 47  1  0  0  0
 39 64  1  0  0  0
 39 67  2  0  0  0
 40 52  1  0  0  0
 40 53  2  0  0  0
 40 58  1  0  0  0
 41108  1  0  0  0
 41109  1  0  0  0
 41110  1  0  0  0
 41 48  1  0  0  0
 42 43  1  0  0  0
 42 66  1  0  0  0
 42111  1  0  0  0
 42112  1  0  0  0
 43 44  1  0  0  0
 44113  1  0  0  0
 45 46  2  0  0  0
 45114  1  0  0  0
 46115  1  0  0  0
 47116  1  0  0  0
 47117  1  0  0  0
 48 56  1  0  0  0
 48 65  1  0  0  0
 48118  1  0  0  0
 49 50  1  0  0  0
 49 53  1  0  0  0
 49 64  1  0  0  0
 49119  1  0  0  0
 50 51  1  0  0  0
 50120  1  0  0  0
 50121  1  0  0  0
 51 52  1  0  0  0
 51122  1  0  0  0
 51123  1  0  0  0
 52124  1  0  0  0
 52125  1  0  0  0
 53 54  1  0  0  0
 54 55  2  0  0  0
 54126  1  0  0  0
 55 57  1  0  0  0
 55127  1  0  0  0
 56 69  2  0  0  0
 57 58  2  0  0  0
 57128  1  0  0  0
 58129  1  0  0  0
 59 60  1  0  0  0
 59 61  1  0  0  0
 59 62  1  0  0  0
 60130  1  0  0  0
 60131  1  0  0  0
 60132  1  0  0  0
 61133  1  0  0  0
 61134  1  0  0  0
 61135  1  0  0  0
 62136  1  0  0  0
 62137  1  0  0  0
 62138  1  0  0  0
 63 65  1  0  0  0
 63139  1  0  0  0
 63140  1  0  0  0
 63141  1  0  0  0
 64142  1  0  0  0
 65143  1  0  0  0
 68 73  1  0  0  0
 71 72  2  0  0  0
 71 73  1  0  0  0
 71144  1  0  0  0
 72 75  1  0  0  0
 72 83  1  0  0  0
 73 82  2  0  0  0
 74 80  1  0  0  0
 74145  1  0  0  0
 74146  1  0  0  0
 74147  1  0  0  0
 75 76  1  0  0  0
 75148  1  0  0  0
 75149  1  0  0  0
 76 77  1  0  0  0
 76150  1  0  0  0
 76151  1  0  0  0
 77 78  1  0  0  0
 77152  1  0  0  0
 77153  1  0  0  0
 78 79  1  0  0  0
 78154  1  0  0  0
 78155  1  0  0  0
 79 81  1  0  0  0
 79156  1  0  0  0
 79157  1  0  0  0
 80 83  1  0  0  0
 80158  1  0  0  0
 80159  1  0  0  0
 81 84  1  0  0  0
 81160  1  0  0  0
 81161  1  0  0  0
 82 83  1  0  0  0
 84162  1  0  0  0
M  ISO  4   1 100  68 101  73 101  84 100
M  END
> <chiral flag>
0

> <version>
0

> <s_m_source_file>
/data/baiqing/PycharmProjects/Reinvent-master-3.2/result/LINK_invent/BTK/process_docking_weight1_custom_sum_contain_oxygen_bond_distance_aromatic_linkinvent_7_9_3/rearranged_h_0040.sdf

> <i_m_source_file_index>
77

> <r_mmod_Potential_Energy-OPLS-2005>
-91.1530303955078

> <r_mmod_Stretch_Energy-OPLS-2005>
29.6089096069336

> <r_mmod_Bend_Energy-OPLS-2005>
84.7839965820312

> <r_mmod_Torsional_Energy-OPLS-2005>
231.360198974609

> <r_mmod_Improper_Torsional_Energy-OPLS-2005>
2.22473311424255

> <r_mmod_Van_der_Waal_Energy-OPLS-2005>
132.875762939453

> <r_mmod_Electrostatic_Energy-OPLS-2005>
-369.9296875

> <r_mmod_Solvation_Energy-OPLS-2005>
-209.499404907227

> <b_mmod_Minimization_Converged-OPLS-2005>
0

> <r_mmod_RMS_Derivative-OPLS-2005>
2.07193517684937

$$$$
77
                    3D
 Structure written by MMmdl.
165173  0  0  1  0            999 V2000
  -30.7714  -14.3792   20.6590 C   0  0  0  0  0  0
  -30.4121  -12.2859   19.4065 C   0  0  0  0  0  0
  -29.4913  -12.5277   18.1971 C   0  0  0  0  0  0
  -28.0104  -12.3962   18.6021 C   0  0  0  0  0  0
  -27.6656  -13.2120   19.8780 C   0  0  2  0  0  0
  -28.7045  -12.9626   20.9962 C   0  0  0  0  0  0
  -25.2606  -13.8172   20.5677 C   0  0  0  0  0  0
  -24.1845  -13.0453   20.9156 C   0  0  0  0  0  0
  -24.6394  -11.6918   20.8701 C   0  0  0  0  0  0
  -23.9056  -10.4303   21.0373 C   0  0  0  0  0  0
  -24.3607   -9.4225   21.9159 C   0  0  0  0  0  0
  -23.6291   -8.2254   22.0735 C   0  0  0  0  0  0
  -22.4270   -8.0281   21.3531 C   0  0  0  0  0  0
  -21.9900   -9.0245   20.4629 C   0  0  0  0  0  0
  -22.7219  -10.2133   20.3033 C   0  0  0  0  0  0
  -21.6855   -6.0733   22.5271 C   0  0  0  0  0  0
  -21.4023   -6.5632   23.8208 C   0  0  0  0  0  0
  -21.3662   -5.6783   24.9172 C   0  0  0  0  0  0
  -21.6046   -4.3045   24.7213 C   0  0  0  0  0  0
  -21.8826   -3.8136   23.4332 C   0  0  0  0  0  0
  -21.9195   -4.6960   22.3391 C   0  0  0  0  0  0
  -22.7860  -13.5242   21.1819 C   0  0  0  0  0  0
  -22.1658   -4.2144   21.0964 F   0  0  0  0  0  0
  -21.5631   -3.4528   25.7731 F   0  0  0  0  0  0
  -30.0476  -13.2463   20.4577 N   0  0  0  0  0  0
  -26.3047  -12.9352   20.3369 N   0  0  0  0  0  0
  -25.9325  -11.6505   20.5726 N   0  0  0  0  0  0
  -22.0483  -12.8252   22.0376 N   0  0  0  0  0  0
  -25.4355  -15.1885   20.4111 N   0  0  0  0  0  0
  -31.8025  -14.6402   20.0318 O   0  0  0  0  0  0
  -21.6625   -6.8882   21.4239 O   0  0  0  0  0  0
  -22.3549  -14.5532   20.6645 O   0  0  0  0  0  0
  -24.6104  -31.8694   23.2124 C   0  0  0  0  0  0
  -25.9008  -32.4821   23.8396 C   0  0  1  0  0  0
  -27.2317  -27.4699   20.0889 C   0  0  0  0  0  0
  -25.5888  -33.8627   24.2318 N   0  0  0  0  0  0
  -23.3953  -30.4937   21.5518 C   0  0  2  0  0  0
  -24.8415  -28.9679   20.1093 C   0  0  0  0  0  0
  -22.7377  -29.4666   22.5000 C   0  0  0  0  0  0
  -18.0263  -28.1364   22.8502 C   0  0  0  0  0  0
  -24.1478  -36.7327   23.2634 C   0  0  0  0  0  0
  -25.9203  -30.8468   21.3588 C   0  0  0  0  0  0
  -25.9991  -29.4869   20.7018 C   0  0  0  0  0  0
  -27.1991  -28.7465   20.6882 C   0  0  0  0  0  0
  -26.0614  -26.9641   19.4778 C   0  0  0  0  0  0
  -24.8669  -27.7048   19.4913 C   0  0  0  0  0  0
  -23.5995  -29.8261   20.1658 C   0  0  0  0  0  0
  -25.4103  -36.3125   24.0335 C   0  0  1  0  0  0
  -20.5848  -28.3649   23.1334 C   0  0  2  0  0  0
  -20.6770  -26.9392   22.5416 C   0  0  0  0  0  0
  -19.5751  -26.6381   21.5212 C   0  0  0  0  0  0
  -18.1923  -26.7915   22.1615 C   0  0  0  0  0  0
  -19.1508  -28.8826   23.2914 C   0  0  0  0  0  0
  -18.9445  -30.1439   23.8917 C   0  0  0  0  0  0
  -17.6446  -30.6582   24.0576 C   0  0  0  0  0  0
  -25.9027  -34.9484   23.5124 C   0  0  0  0  0  0
  -16.5339  -29.9083   23.6324 C   0  0  0  0  0  0
  -16.7253  -28.6494   23.0357 C   0  0  0  0  0  0
  -26.4454  -31.6595   25.0703 C   0  0  0  0  0  0
  -25.3742  -31.3724   26.1470 C   0  0  0  0  0  0
  -27.0245  -30.3030   24.6045 C   0  0  0  0  0  0
  -27.6031  -32.4309   25.7472 C   0  0  0  0  0  0
  -27.5574  -37.1817   24.8464 C   0  0  0  0  0  0
  -21.4113  -29.3027   22.3750 N   0  0  0  0  0  0
  -26.4292  -37.3809   23.9413 N   0  0  0  0  0  0
  -24.6602  -31.0825   22.0997 N   0  0  0  0  0  0
  -23.4169  -28.8204   23.3031 O   0  0  0  0  0  0
  -28.3849  -26.7230   20.1615 O   0  0  0  0  0  0
  -26.5596  -34.8942   22.4681 O   0  0  0  0  0  0
  -23.5311  -32.1422   23.7559 O   0  0  0  0  0  0
  -27.6253  -22.9467   23.2702 C   0  0  0  0  0  0
  -27.0802  -23.8473   22.3126 C   0  0  0  0  0  0
  -26.7693  -21.8778   23.2738 C   0  0  0  0  0  0
  -24.6060  -21.3905   21.9910 C   0  0  0  0  0  0
  -27.5233  -25.2451   21.9611 C   0  0  0  0  0  0
  -26.7701  -20.6445   24.1279 C   0  0  0  0  0  0
  -27.0579  -19.3175   23.4000 C   0  0  0  0  0  0
  -28.4362  -19.2451   22.7205 C   0  0  0  0  0  0
  -28.8424  -17.7999   22.3792 C   0  0  0  0  0  0
  -30.2351  -17.7044   21.7296 C   0  0  0  0  0  0
  -30.9923  -16.4123   22.0817 C   0  0  0  0  0  0
  -28.2106  -25.3584   20.5752 C   0  0  0  0  0  0
  -25.9863  -23.3555   21.7492 N   0  0  0  0  0  0
  -25.7839  -22.1601   22.3456 N   0  0  0  0  0  0
  -30.3141  -15.2008   21.6117 N   0  0  0  0  0  0
  -31.4608  -12.3623   19.1134 H   0  0  0  0  0  0
  -30.2846  -11.2678   19.7755 H   0  0  0  0  0  0
  -29.7252  -11.8233   17.3979 H   0  0  0  0  0  0
  -29.6767  -13.5240   17.7937 H   0  0  0  0  0  0
  -27.8003  -11.3384   18.7618 H   0  0  0  0  0  0
  -27.3714  -12.7097   17.7757 H   0  0  0  0  0  0
  -27.7170  -14.2663   19.6049 H   0  0  0  0  0  0
  -28.6626  -11.9226   21.3230 H   0  0  0  0  0  0
  -28.4563  -13.5485   21.8820 H   0  0  0  0  0  0
  -25.2760   -9.5706   22.4726 H   0  0  0  0  0  0
  -24.0002   -7.4648   22.7454 H   0  0  0  0  0  0
  -21.0827   -8.8742   19.8942 H   0  0  0  0  0  0
  -22.3657  -10.9650   19.6128 H   0  0  0  0  0  0
  -21.2014   -7.6142   23.9721 H   0  0  0  0  0  0
  -21.1483   -6.0503   25.9078 H   0  0  0  0  0  0
  -22.0605   -2.7598   23.2815 H   0  0  0  0  0  0
  -22.4082  -11.9931   22.4812 H   0  0  0  0  0  0
  -21.1089  -13.1279   22.2528 H   0  0  0  0  0  0
  -24.6805  -15.8525   20.5391 H   0  0  0  0  0  0
  -26.3024  -15.6244   20.1212 H   0  0  0  0  0  0
  -26.7069  -32.5547   23.1170 H   0  0  0  0  0  0
  -25.0078  -33.9798   25.0487 H   0  0  0  0  0  0
  -22.6805  -31.3092   21.4160 H   0  0  0  0  0  0
  -23.3735  -35.9661   23.3316 H   0  0  0  0  0  0
  -24.3566  -36.8913   22.2040 H   0  0  0  0  0  0
  -23.7234  -37.6546   23.6624 H   0  0  0  0  0  0
  -26.0250  -31.6155   20.5913 H   0  0  0  0  0  0
  -26.8132  -30.9020   21.9706 H   0  0  0  0  0  0
  -28.0865  -29.1401   21.1630 H   0  0  0  0  0  0
  -26.0591  -25.9975   18.9955 H   0  0  0  0  0  0
  -23.9787  -27.2995   19.0281 H   0  0  0  0  0  0
  -23.6998  -30.6011   19.4048 H   0  0  0  0  0  0
  -22.7266  -29.2381   19.8757 H   0  0  0  0  0  0
  -25.1278  -36.2002   25.0828 H   0  0  0  0  0  0
  -20.9938  -28.3218   24.1461 H   0  0  0  0  0  0
  -20.5676  -26.2262   23.3599 H   0  0  0  0  0  0
  -21.6645  -26.7454   22.1210 H   0  0  0  0  0  0
  -19.6914  -25.6301   21.1227 H   0  0  0  0  0  0
  -19.6691  -27.3218   20.6766 H   0  0  0  0  0  0
  -17.4197  -26.6674   21.4014 H   0  0  0  0  0  0
  -18.0324  -26.0041   22.8996 H   0  0  0  0  0  0
  -19.7923  -30.7251   24.2277 H   0  0  0  0  0  0
  -17.5011  -31.6269   24.5175 H   0  0  0  0  0  0
  -15.5344  -30.3005   23.7641 H   0  0  0  0  0  0
  -15.8649  -28.0827   22.7061 H   0  0  0  0  0  0
  -24.5920  -30.7040   25.7861 H   0  0  0  0  0  0
  -24.8929  -32.2885   26.4893 H   0  0  0  0  0  0
  -25.8120  -30.8942   27.0236 H   0  0  0  0  0  0
  -26.2756  -29.6849   24.1071 H   0  0  0  0  0  0
  -27.3987  -29.7212   25.4484 H   0  0  0  0  0  0
  -27.8616  -30.4347   23.9186 H   0  0  0  0  0  0
  -27.2624  -33.3594   26.2078 H   0  0  0  0  0  0
  -28.3831  -32.6894   25.0292 H   0  0  0  0  0  0
  -28.0698  -31.8409   26.5368 H   0  0  0  0  0  0
  -28.2624  -38.0089   24.7504 H   0  0  0  0  0  0
  -28.1034  -36.2620   24.6297 H   0  0  0  0  0  0
  -27.2291  -37.1498   25.8869 H   0  0  0  0  0  0
  -20.9241  -29.8748   21.6992 H   0  0  0  0  0  0
  -26.0181  -38.2884   24.1418 H   0  0  0  0  0  0
  -28.4922  -23.0837   23.9019 H   0  0  0  0  0  0
  -24.0920  -21.0543   22.8939 H   0  0  0  0  0  0
  -24.8925  -20.5224   21.3985 H   0  0  0  0  0  0
  -23.9161  -21.9984   21.4046 H   0  0  0  0  0  0
  -28.1934  -25.6341   22.7275 H   0  0  0  0  0  0
  -26.6438  -25.8874   22.0107 H   0  0  0  0  0  0
  -25.8025  -20.5662   24.6269 H   0  0  0  0  0  0
  -27.4938  -20.7661   24.9345 H   0  0  0  0  0  0
  -26.2798  -19.1070   22.6668 H   0  0  0  0  0  0
  -26.9871  -18.5230   24.1446 H   0  0  0  0  0  0
  -29.1856  -19.6722   23.3890 H   0  0  0  0  0  0
  -28.4419  -19.8610   21.8192 H   0  0  0  0  0  0
  -28.1022  -17.3413   21.7210 H   0  0  0  0  0  0
  -28.8309  -17.2169   23.3024 H   0  0  0  0  0  0
  -30.8518  -18.5409   22.0621 H   0  0  0  0  0  0
  -30.1477  -17.8199   20.6478 H   0  0  0  0  0  0
  -31.1023  -16.3395   23.1637 H   0  0  0  0  0  0
  -32.0095  -16.4783   21.6910 H   0  0  0  0  0  0
  -27.6669  -24.7955   19.8158 H   0  0  0  0  0  0
  -29.1949  -24.8931   20.6277 H   0  0  0  0  0  0
  -29.4705  -14.9231   22.0910 H   0  0  0  0  0  0
  1 25  1  0  0  0
  1 30  2  0  0  0
  1 85  1  0  0  0
  2  3  1  0  0  0
  2 25  1  0  0  0
  2 86  1  0  0  0
  2 87  1  0  0  0
  3  4  1  0  0  0
  3 88  1  0  0  0
  3 89  1  0  0  0
  4  5  1  0  0  0
  4 90  1  0  0  0
  4 91  1  0  0  0
  5  6  1  0  0  0
  5 26  1  0  0  0
  5 92  1  0  0  0
  6 25  1  0  0  0
  6 93  1  0  0  0
  6 94  1  0  0  0
  7  8  2  0  0  0
  7 26  1  0  0  0
  7 29  1  0  0  0
  8  9  1  0  0  0
  8 22  1  0  0  0
  9 10  1  0  0  0
  9 27  2  0  0  0
 10 11  2  0  0  0
 10 15  1  0  0  0
 11 12  1  0  0  0
 11 95  1  0  0  0
 12 13  2  0  0  0
 12 96  1  0  0  0
 13 14  1  0  0  0
 13 31  1  0  0  0
 14 15  2  0  0  0
 14 97  1  0  0  0
 15 98  1  0  0  0
 16 17  2  0  0  0
 16 21  1  0  0  0
 16 31  1  0  0  0
 17 18  1  0  0  0
 17 99  1  0  0  0
 18 19  2  0  0  0
 18100  1  0  0  0
 19 20  1  0  0  0
 19 24  1  0  0  0
 20 21  2  0  0  0
 20101  1  0  0  0
 21 23  1  0  0  0
 22 28  1  0  0  0
 22 32  2  0  0  0
 26 27  1  0  0  0
 28102  1  0  0  0
 28103  1  0  0  0
 29104  1  0  0  0
 29105  1  0  0  0
 33 34  1  0  0  0
 33 66  1  0  0  0
 33 70  2  0  0  0
 34 36  1  0  0  0
 34 59  1  0  0  0
 34106  1  0  0  0
 35 44  2  0  0  0
 35 45  1  0  0  0
 35 68  1  0  0  0
 36 56  1  0  0  0
 36107  1  0  0  0
 37 39  1  0  0  0
 37 47  1  0  0  0
 37 66  1  0  0  0
 37108  1  0  0  0
 38 43  2  0  0  0
 38 46  1  0  0  0
 38 47  1  0  0  0
 39 64  1  0  0  0
 39 67  2  0  0  0
 40 52  1  0  0  0
 40 53  2  0  0  0
 40 58  1  0  0  0
 41109  1  0  0  0
 41110  1  0  0  0
 41111  1  0  0  0
 41 48  1  0  0  0
 42 43  1  0  0  0
 42 66  1  0  0  0
 42112  1  0  0  0
 42113  1  0  0  0
 43 44  1  0  0  0
 44114  1  0  0  0
 45 46  2  0  0  0
 45115  1  0  0  0
 46116  1  0  0  0
 47117  1  0  0  0
 47118  1  0  0  0
 48 56  1  0  0  0
 48 65  1  0  0  0
 48119  1  0  0  0
 49 50  1  0  0  0
 49 53  1  0  0  0
 49 64  1  0  0  0
 49120  1  0  0  0
 50 51  1  0  0  0
 50121  1  0  0  0
 50122  1  0  0  0
 51 52  1  0  0  0
 51123  1  0  0  0
 51124  1  0  0  0
 52125  1  0  0  0
 52126  1  0  0  0
 53 54  1  0  0  0
 54 55  2  0  0  0
 54127  1  0  0  0
 55 57  1  0  0  0
 55128  1  0  0  0
 56 69  2  0  0  0
 57 58  2  0  0  0
 57129  1  0  0  0
 58130  1  0  0  0
 59 60  1  0  0  0
 59 61  1  0  0  0
 59 62  1  0  0  0
 60131  1  0  0  0
 60132  1  0  0  0
 60133  1  0  0  0
 61134  1  0  0  0
 61135  1  0  0  0
 61136  1  0  0  0
 62137  1  0  0  0
 62138  1  0  0  0
 62139  1  0  0  0
 63 65  1  0  0  0
 63140  1  0  0  0
 63141  1  0  0  0
 63142  1  0  0  0
 64143  1  0  0  0
 65144  1  0  0  0
 68 82  1  0  0  0
 71 72  1  0  0  0
 71 73  2  0  0  0
 71145  1  0  0  0
 72 75  1  0  0  0
 72 83  2  0  0  0
 73 76  1  0  0  0
 73 84  1  0  0  0
 74 84  1  0  0  0
 74146  1  0  0  0
 74147  1  0  0  0
 74148  1  0  0  0
 75 82  1  0  0  0
 75149  1  0  0  0
 75150  1  0  0  0
 76 77  1  0  0  0
 76151  1  0  0  0
 76152  1  0  0  0
 77 78  1  0  0  0
 77153  1  0  0  0
 77154  1  0  0  0
 78 79  1  0  0  0
 78155  1  0  0  0
 78156  1  0  0  0
 79 80  1  0  0  0
 79157  1  0  0  0
 79158  1  0  0  0
 80 81  1  0  0  0
 80159  1  0  0  0
 80160  1  0  0  0
 81 85  1  0  0  0
 81161  1  0  0  0
 81162  1  0  0  0
 82163  1  0  0  0
 82164  1  0  0  0
 83 84  1  0  0  0
 85165  1  0  0  0
M  ISO  4   1 100  68 101  82 101  85 100
M  END
> <chiral flag>
0

> <version>
0

> <s_m_source_file>
/data/baiqing/PycharmProjects/Reinvent-master-3.2/result/LINK_invent/BTK/process_docking_weight1_custom_sum_contain_oxygen_bond_distance_aromatic_linkinvent_7_9_3/rearranged_h_0040.sdf

> <i_m_source_file_index>
78

> <r_mmod_Potential_Energy-OPLS-2005>
-134.948913574219

> <r_mmod_Stretch_Energy-OPLS-2005>
31.750545501709

> <r_mmod_Bend_Energy-OPLS-2005>
90.5978622436523

> <r_mmod_Torsional_Energy-OPLS-2005>
209.215026855469

> <r_mmod_Improper_Torsional_Energy-OPLS-2005>
2.11812019348145

> <r_mmod_Van_der_Waal_Energy-OPLS-2005>
127.988342285156

> <r_mmod_Electrostatic_Energy-OPLS-2005>
-391.554443359375

> <r_mmod_Solvation_Energy-OPLS-2005>
-214.152557373047

> <b_mmod_Minimization_Converged-OPLS-2005>
0

> <r_mmod_RMS_Derivative-OPLS-2005>
2.81135940551758

$$$$
78
                    3D
 Structure written by MMmdl.
157165  0  0  1  0            999 V2000
  -30.6721  -14.4966   20.5211 C   0  0  0  0  0  0
  -30.4143  -12.3030   19.4412 C   0  0  0  0  0  0
  -29.4970  -12.4967   18.2156 C   0  0  0  0  0  0
  -28.0172  -12.3564   18.6225 C   0  0  0  0  0  0
  -27.6556  -13.2059   19.8700 C   0  0  2  0  0  0
  -28.6920  -13.0125   21.0009 C   0  0  0  0  0  0
  -25.2565  -13.8161   20.5661 C   0  0  0  0  0  0
  -24.1814  -13.0430   20.9159 C   0  0  0  0  0  0
  -24.6358  -11.6900   20.8705 C   0  0  0  0  0  0
  -23.9025  -10.4292   21.0393 C   0  0  0  0  0  0
  -24.3594   -9.4220   21.9175 C   0  0  0  0  0  0
  -23.6285   -8.2244   22.0741 C   0  0  0  0  0  0
  -22.4269   -8.0275   21.3537 C   0  0  0  0  0  0
  -21.9891   -9.0231   20.4632 C   0  0  0  0  0  0
  -22.7198  -10.2125   20.3042 C   0  0  0  0  0  0
  -21.6857   -6.0734   22.5277 C   0  0  0  0  0  0
  -21.4014   -6.5635   23.8210 C   0  0  0  0  0  0
  -21.3661   -5.6790   24.9172 C   0  0  0  0  0  0
  -21.6046   -4.3049   24.7230 C   0  0  0  0  0  0
  -21.8821   -3.8147   23.4347 C   0  0  0  0  0  0
  -21.9191   -4.6959   22.3406 C   0  0  0  0  0  0
  -22.7844  -13.5235   21.1842 C   0  0  0  0  0  0
  -22.1669   -4.2143   21.0988 F   0  0  0  0  0  0
  -21.5625   -3.4538   25.7748 F   0  0  0  0  0  0
  -30.0239  -13.3037   20.4497 N   0  0  0  0  0  0
  -26.2977  -12.9312   20.3319 N   0  0  0  0  0  0
  -25.9278  -11.6474   20.5719 N   0  0  0  0  0  0
  -22.0491  -12.8215   22.0397 N   0  0  0  0  0  0
  -25.4345  -15.1877   20.4088 N   0  0  0  0  0  0
  -31.8237  -14.6556   20.1055 O   0  0  0  0  0  0
  -21.6642   -6.8866   21.4235 O   0  0  0  0  0  0
  -22.3525  -14.5542   20.6699 O   0  0  0  0  0  0
  -24.6167  -31.8662   23.2068 C   0  0  0  0  0  0
  -25.9043  -32.4814   23.8383 C   0  0  1  0  0  0
  -27.2253  -27.4122   20.1001 C   0  0  0  0  0  0
  -25.5899  -33.8616   24.2321 N   0  0  0  0  0  0
  -23.4076  -30.4894   21.5455 C   0  0  2  0  0  0
  -24.8527  -28.9526   20.1124 C   0  0  0  0  0  0
  -22.7424  -29.4658   22.4946 C   0  0  0  0  0  0
  -18.0282  -28.1385   22.8474 C   0  0  0  0  0  0
  -24.1490  -36.7328   23.2639 C   0  0  0  0  0  0
  -25.9378  -30.8239   21.3633 C   0  0  0  0  0  0
  -26.0132  -29.4560   20.7129 C   0  0  0  0  0  0
  -27.2053  -28.6931   20.7028 C   0  0  0  0  0  0
  -26.0507  -26.9323   19.4831 C   0  0  0  0  0  0
  -24.8664  -27.6906   19.4947 C   0  0  0  0  0  0
  -23.6174  -29.8227   20.1604 C   0  0  0  0  0  0
  -25.4112  -36.3126   24.0345 C   0  0  1  0  0  0
  -20.5877  -28.3692   23.1306 C   0  0  2  0  0  0
  -20.6773  -26.9420   22.5410 C   0  0  0  0  0  0
  -19.5751  -26.6391   21.5204 C   0  0  0  0  0  0
  -18.1932  -26.7929   22.1614 C   0  0  0  0  0  0
  -19.1529  -28.8845   23.2888 C   0  0  0  0  0  0
  -18.9448  -30.1455   23.8904 C   0  0  0  0  0  0
  -17.6444  -30.6583   24.0573 C   0  0  0  0  0  0
  -25.9037  -34.9484   23.5137 C   0  0  0  0  0  0
  -16.5345  -29.9082   23.6320 C   0  0  0  0  0  0
  -16.7268  -28.6511   23.0313 C   0  0  0  0  0  0
  -26.4450  -31.6594   25.0717 C   0  0  0  0  0  0
  -25.3711  -31.3688   26.1462 C   0  0  0  0  0  0
  -27.0277  -30.3040   24.6092 C   0  0  0  0  0  0
  -27.6043  -32.4296   25.7467 C   0  0  0  0  0  0
  -27.5590  -37.1819   24.8463 C   0  0  0  0  0  0
  -21.4147  -29.3058   22.3700 N   0  0  0  0  0  0
  -26.4305  -37.3804   23.9404 N   0  0  0  0  0  0
  -24.6725  -31.0747   22.0976 N   0  0  0  0  0  0
  -23.4183  -28.8203   23.3003 O   0  0  0  0  0  0
  -28.3801  -26.6565   20.0930 O   0  0  0  0  0  0
  -26.5588  -34.8932   22.4692 O   0  0  0  0  0  0
  -23.5348  -32.1418   23.7444 O   0  0  0  0  0  0
  -30.8445  -20.9051   21.4721 C   0  0  0  0  0  0
  -29.8025  -20.7536   20.5277 C   0  0  0  0  0  0
  -30.7415  -23.2028   21.2605 C   0  0  0  0  0  0
  -29.6784  -23.0812   20.3242 C   0  0  0  0  0  0
  -31.3653  -24.5389   21.6320 C   0  0  0  0  0  0
  -29.4412  -19.3739   19.9482 C   0  0  0  0  0  0
  -29.0990  -24.3189   19.6125 C   0  0  0  0  0  0
  -29.4629  -18.1169   20.8836 C   0  0  0  0  0  0
  -30.1074  -16.8874   20.1790 C   0  0  0  0  0  0
  -28.2633  -25.2738   20.5033 C   0  0  0  0  0  0
  -31.3036  -22.1207   21.8479 N   0  0  0  0  0  0
  -29.2034  -21.8496   19.9702 N   0  0  0  0  0  0
  -29.8944  -15.5650   20.8059 N   0  0  0  0  0  0
  -31.4622  -12.3879   19.1479 H   0  0  0  0  0  0
  -30.3012  -11.2963   19.8447 H   0  0  0  0  0  0
  -29.7432  -11.7717   17.4380 H   0  0  0  0  0  0
  -29.6697  -13.4812   17.7773 H   0  0  0  0  0  0
  -27.8253  -11.3012   18.8231 H   0  0  0  0  0  0
  -27.3702  -12.6253   17.7878 H   0  0  0  0  0  0
  -27.6912  -14.2489   19.5535 H   0  0  0  0  0  0
  -28.6621  -11.9860   21.3698 H   0  0  0  0  0  0
  -28.4580  -13.6466   21.8576 H   0  0  0  0  0  0
  -25.2737   -9.5706   22.4740 H   0  0  0  0  0  0
  -24.0008   -7.4631   22.7442 H   0  0  0  0  0  0
  -21.0831   -8.8717   19.8927 H   0  0  0  0  0  0
  -22.3638  -10.9649   19.6141 H   0  0  0  0  0  0
  -21.2016   -7.6145   23.9710 H   0  0  0  0  0  0
  -21.1480   -6.0527   25.9076 H   0  0  0  0  0  0
  -22.0604   -2.7604   23.2855 H   0  0  0  0  0  0
  -22.4130  -11.9898   22.4805 H   0  0  0  0  0  0
  -21.1090  -13.1205   22.2571 H   0  0  0  0  0  0
  -24.6724  -15.8495   20.5123 H   0  0  0  0  0  0
  -26.2914  -15.6198   20.0869 H   0  0  0  0  0  0
  -26.7128  -32.5516   23.1158 H   0  0  0  0  0  0
  -25.0073  -33.9780   25.0481 H   0  0  0  0  0  0
  -22.6980  -31.3073   21.4036 H   0  0  0  0  0  0
  -23.3750  -35.9660   23.3308 H   0  0  0  0  0  0
  -24.3588  -36.8922   22.2051 H   0  0  0  0  0  0
  -23.7241  -37.6543   23.6632 H   0  0  0  0  0  0
  -26.0492  -31.5832   20.5891 H   0  0  0  0  0  0
  -26.8282  -30.8815   21.9784 H   0  0  0  0  0  0
  -28.1017  -29.0718   21.1741 H   0  0  0  0  0  0
  -26.0456  -25.9736   18.9846 H   0  0  0  0  0  0
  -23.9777  -27.2992   19.0208 H   0  0  0  0  0  0
  -23.7317  -30.5968   19.4004 H   0  0  0  0  0  0
  -22.7400  -29.2451   19.8642 H   0  0  0  0  0  0
  -25.1281  -36.2012   25.0839 H   0  0  0  0  0  0
  -20.9971  -28.3250   24.1428 H   0  0  0  0  0  0
  -20.5685  -26.2284   23.3589 H   0  0  0  0  0  0
  -21.6643  -26.7462   22.1199 H   0  0  0  0  0  0
  -19.6922  -25.6302   21.1230 H   0  0  0  0  0  0
  -19.6705  -27.3199   20.6733 H   0  0  0  0  0  0
  -17.4203  -26.6662   21.4020 H   0  0  0  0  0  0
  -18.0350  -26.0071   22.9017 H   0  0  0  0  0  0
  -19.7919  -30.7267   24.2272 H   0  0  0  0  0  0
  -17.5001  -31.6266   24.5175 H   0  0  0  0  0  0
  -15.5343  -30.2984   23.7652 H   0  0  0  0  0  0
  -15.8664  -28.0861   22.6977 H   0  0  0  0  0  0
  -24.5903  -30.7006   25.7795 H   0  0  0  0  0  0
  -24.8864  -32.2829   26.4915 H   0  0  0  0  0  0
  -25.8068  -30.8863   27.0224 H   0  0  0  0  0  0
  -26.2825  -29.6810   24.1130 H   0  0  0  0  0  0
  -27.4030  -29.7267   25.4550 H   0  0  0  0  0  0
  -27.8663  -30.4354   23.9250 H   0  0  0  0  0  0
  -27.2700  -33.3603   26.2064 H   0  0  0  0  0  0
  -28.3841  -32.6838   25.0276 H   0  0  0  0  0  0
  -28.0721  -31.8398   26.5354 H   0  0  0  0  0  0
  -28.2615  -38.0109   24.7520 H   0  0  0  0  0  0
  -28.1087  -36.2647   24.6293 H   0  0  0  0  0  0
  -27.2313  -37.1485   25.8867 H   0  0  0  0  0  0
  -20.9290  -29.8808   21.6953 H   0  0  0  0  0  0
  -26.0208  -38.2898   24.1363 H   0  0  0  0  0  0
  -31.3620  -20.0547   21.8899 H   0  0  0  0  0  0
  -31.5096  -25.1675   20.7537 H   0  0  0  0  0  0
  -32.3464  -24.3977   22.0848 H   0  0  0  0  0  0
  -30.7468  -25.0789   22.3480 H   0  0  0  0  0  0
  -30.1532  -19.2139   19.1377 H   0  0  0  0  0  0
  -28.4669  -19.4302   19.4604 H   0  0  0  0  0  0
  -28.4915  -24.0037   18.7634 H   0  0  0  0  0  0
  -29.9278  -24.8712   19.1709 H   0  0  0  0  0  0
  -28.4414  -17.8927   21.1942 H   0  0  0  0  0  0
  -30.0091  -18.3101   21.8056 H   0  0  0  0  0  0
  -29.7082  -16.8104   19.1659 H   0  0  0  0  0  0
  -31.1744  -17.0839   20.0626 H   0  0  0  0  0  0
  -28.6282  -25.2330   21.5276 H   0  0  0  0  0  0
  -27.2391  -24.9036   20.5644 H   0  0  0  0  0  0
  -28.9704  -15.3615   21.1578 H   0  0  0  0  0  0
  1 25  1  0  0  0
  1 30  2  0  0  0
  1 83  1  0  0  0
  2  3  1  0  0  0
  2 25  1  0  0  0
  2 84  1  0  0  0
  2 85  1  0  0  0
  3  4  1  0  0  0
  3 86  1  0  0  0
  3 87  1  0  0  0
  4  5  1  0  0  0
  4 88  1  0  0  0
  4 89  1  0  0  0
  5  6  1  0  0  0
  5 26  1  0  0  0
  5 90  1  0  0  0
  6 25  1  0  0  0
  6 91  1  0  0  0
  6 92  1  0  0  0
  7  8  2  0  0  0
  7 26  1  0  0  0
  7 29  1  0  0  0
  8  9  1  0  0  0
  8 22  1  0  0  0
  9 10  1  0  0  0
  9 27  2  0  0  0
 10 11  2  0  0  0
 10 15  1  0  0  0
 11 12  1  0  0  0
 11 93  1  0  0  0
 12 13  2  0  0  0
 12 94  1  0  0  0
 13 14  1  0  0  0
 13 31  1  0  0  0
 14 15  2  0  0  0
 14 95  1  0  0  0
 15 96  1  0  0  0
 16 17  2  0  0  0
 16 21  1  0  0  0
 16 31  1  0  0  0
 17 18  1  0  0  0
 17 97  1  0  0  0
 18 19  2  0  0  0
 18 98  1  0  0  0
 19 20  1  0  0  0
 19 24  1  0  0  0
 20 21  2  0  0  0
 20 99  1  0  0  0
 21 23  1  0  0  0
 22 28  1  0  0  0
 22 32  2  0  0  0
 26 27  1  0  0  0
 28100  1  0  0  0
 28101  1  0  0  0
 29102  1  0  0  0
 29103  1  0  0  0
 33 34  1  0  0  0
 33 66  1  0  0  0
 33 70  2  0  0  0
 34 36  1  0  0  0
 34 59  1  0  0  0
 34104  1  0  0  0
 35 44  2  0  0  0
 35 45  1  0  0  0
 35 68  1  0  0  0
 36 56  1  0  0  0
 36105  1  0  0  0
 37 39  1  0  0  0
 37 47  1  0  0  0
 37 66  1  0  0  0
 37106  1  0  0  0
 38 43  2  0  0  0
 38 46  1  0  0  0
 38 47  1  0  0  0
 39 64  1  0  0  0
 39 67  2  0  0  0
 40 52  1  0  0  0
 40 53  2  0  0  0
 40 58  1  0  0  0
 41107  1  0  0  0
 41108  1  0  0  0
 41109  1  0  0  0
 41 48  1  0  0  0
 42 43  1  0  0  0
 42 66  1  0  0  0
 42110  1  0  0  0
 42111  1  0  0  0
 43 44  1  0  0  0
 44112  1  0  0  0
 45 46  2  0  0  0
 45113  1  0  0  0
 46114  1  0  0  0
 47115  1  0  0  0
 47116  1  0  0  0
 48 56  1  0  0  0
 48 65  1  0  0  0
 48117  1  0  0  0
 49 50  1  0  0  0
 49 53  1  0  0  0
 49 64  1  0  0  0
 49118  1  0  0  0
 50 51  1  0  0  0
 50119  1  0  0  0
 50120  1  0  0  0
 51 52  1  0  0  0
 51121  1  0  0  0
 51122  1  0  0  0
 52123  1  0  0  0
 52124  1  0  0  0
 53 54  1  0  0  0
 54 55  2  0  0  0
 54125  1  0  0  0
 55 57  1  0  0  0
 55126  1  0  0  0
 56 69  2  0  0  0
 57 58  2  0  0  0
 57127  1  0  0  0
 58128  1  0  0  0
 59 60  1  0  0  0
 59 61  1  0  0  0
 59 62  1  0  0  0
 60129  1  0  0  0
 60130  1  0  0  0
 60131  1  0  0  0
 61132  1  0  0  0
 61133  1  0  0  0
 61134  1  0  0  0
 62135  1  0  0  0
 62136  1  0  0  0
 62137  1  0  0  0
 63 65  1  0  0  0
 63138  1  0  0  0
 63139  1  0  0  0
 63140  1  0  0  0
 64141  1  0  0  0
 65142  1  0  0  0
 68 80  1  0  0  0
 71 72  2  0  0  0
 71 81  1  0  0  0
 71143  1  0  0  0
 72 76  1  0  0  0
 72 82  1  0  0  0
 73 74  1  0  0  0
 73 75  1  0  0  0
 73 81  2  0  0  0
 74 77  1  0  0  0
 74 82  2  0  0  0
 75144  1  0  0  0
 75145  1  0  0  0
 75146  1  0  0  0
 76 78  1  0  0  0
 76147  1  0  0  0
 76148  1  0  0  0
 77 80  1  0  0  0
 77149  1  0  0  0
 77150  1  0  0  0
 78 79  1  0  0  0
 78151  1  0  0  0
 78152  1  0  0  0
 79 83  1  0  0  0
 79153  1  0  0  0
 79154  1  0  0  0
 80155  1  0  0  0
 80156  1  0  0  0
 83157  1  0  0  0
M  ISO  4   1 100  68 101  80 101  83 100
M  END
> <chiral flag>
0

> <version>
0

> <s_m_source_file>
/data/baiqing/PycharmProjects/Reinvent-master-3.2/result/LINK_invent/BTK/process_docking_weight1_custom_sum_contain_oxygen_bond_distance_aromatic_linkinvent_7_9_3/rearranged_h_0040.sdf

> <i_m_source_file_index>
79

> <r_mmod_Potential_Energy-OPLS-2005>
7.4360671043396

> <r_mmod_Stretch_Energy-OPLS-2005>
44.3633766174316

> <r_mmod_Bend_Energy-OPLS-2005>
102.485862731934

> <r_mmod_Torsional_Energy-OPLS-2005>
238.941909790039

> <r_mmod_Improper_Torsional_Energy-OPLS-2005>
9.12321090698242

> <r_mmod_Van_der_Waal_Energy-OPLS-2005>
159.050430297852

> <r_mmod_Electrostatic_Energy-OPLS-2005>
-337.923156738281

> <r_mmod_Solvation_Energy-OPLS-2005>
-225.718780517578

> <b_mmod_Minimization_Converged-OPLS-2005>
0

> <r_mmod_RMS_Derivative-OPLS-2005>
2.03187298774719

$$$$
79
                    3D
 Structure written by MMmdl.
185194  0  0  1  0            999 V2000
  -30.8328  -14.3043   20.7692 C   0  0  0  0  0  0
  -30.4052  -12.3099   19.3720 C   0  0  0  0  0  0
  -29.4657  -12.5336   18.1772 C   0  0  0  0  0  0
  -28.0002  -12.3718   18.6091 C   0  0  0  0  0  0
  -27.6668  -13.1984   19.8754 C   0  0  2  0  0  0
  -28.7064  -12.9661   20.9924 C   0  0  0  0  0  0
  -25.2648  -13.8152   20.5676 C   0  0  0  0  0  0
  -24.1865  -13.0441   20.9109 C   0  0  0  0  0  0
  -24.6391  -11.6908   20.8686 C   0  0  0  0  0  0
  -23.9047  -10.4293   21.0374 C   0  0  0  0  0  0
  -24.3599   -9.4219   21.9166 C   0  0  0  0  0  0
  -23.6268   -8.2264   22.0771 C   0  0  0  0  0  0
  -22.4268   -8.0267   21.3550 C   0  0  0  0  0  0
  -21.9869   -9.0242   20.4676 C   0  0  0  0  0  0
  -22.7196  -10.2119   20.3062 C   0  0  0  0  0  0
  -21.6862   -6.0692   22.5262 C   0  0  0  0  0  0
  -21.4036   -6.5620   23.8181 C   0  0  0  0  0  0
  -21.3663   -5.6786   24.9152 C   0  0  0  0  0  0
  -21.6051   -4.3050   24.7222 C   0  0  0  0  0  0
  -21.8832   -3.8114   23.4355 C   0  0  0  0  0  0
  -21.9211   -4.6920   22.3394 C   0  0  0  0  0  0
  -22.7914  -13.5277   21.1762 C   0  0  0  0  0  0
  -22.1674   -4.2091   21.0974 F   0  0  0  0  0  0
  -21.5614   -3.4546   25.7742 F   0  0  0  0  0  0
  -30.0489  -13.2403   20.4561 N   0  0  0  0  0  0
  -26.3073  -12.9309   20.3392 N   0  0  0  0  0  0
  -25.9328  -11.6480   20.5759 N   0  0  0  0  0  0
  -22.0564  -12.8278   22.0340 N   0  0  0  0  0  0
  -25.4403  -15.1847   20.4107 N   0  0  0  0  0  0
  -31.7567  -14.6692   20.0351 O   0  0  0  0  0  0
  -21.6673   -6.8836   21.4223 O   0  0  0  0  0  0
  -22.3623  -14.5589   20.6613 O   0  0  0  0  0  0
  -24.6111  -31.8765   23.2109 C   0  0  0  0  0  0
  -25.9038  -32.4855   23.8400 C   0  0  1  0  0  0
  -27.2346  -27.4711   20.0810 C   0  0  0  0  0  0
  -25.5888  -33.8651   24.2335 N   0  0  0  0  0  0
  -23.3959  -30.5029   21.5504 C   0  0  2  0  0  0
  -24.8398  -28.9768   20.1234 C   0  0  0  0  0  0
  -22.7371  -29.4725   22.4963 C   0  0  0  0  0  0
  -18.0323  -28.1350   22.8406 C   0  0  0  0  0  0
  -24.1466  -36.7325   23.2638 C   0  0  0  0  0  0
  -25.9230  -30.8571   21.3567 C   0  0  0  0  0  0
  -26.0019  -29.4939   20.7053 C   0  0  0  0  0  0
  -27.2026  -28.7491   20.6796 C   0  0  0  0  0  0
  -26.0315  -26.9470   19.5583 C   0  0  0  0  0  0
  -24.8461  -27.6983   19.5532 C   0  0  0  0  0  0
  -23.6050  -29.8467   20.1602 C   0  0  0  0  0  0
  -25.4079  -36.3121   24.0338 C   0  0  1  0  0  0
  -20.5896  -28.3626   23.1320 C   0  0  2  0  0  0
  -20.6820  -26.9366   22.5386 C   0  0  0  0  0  0
  -19.5806  -26.6426   21.5131 C   0  0  0  0  0  0
  -18.1989  -26.7931   22.1535 C   0  0  0  0  0  0
  -19.1541  -28.8798   23.2922 C   0  0  0  0  0  0
  -18.9407  -30.1387   23.8939 C   0  0  0  0  0  0
  -17.6386  -30.6490   24.0582 C   0  0  0  0  0  0
  -25.9015  -34.9498   23.5136 C   0  0  0  0  0  0
  -16.5326  -29.8962   23.6243 C   0  0  0  0  0  0
  -16.7282  -28.6428   23.0166 C   0  0  0  0  0  0
  -26.4494  -31.6631   25.0719 C   0  0  0  0  0  0
  -25.3775  -31.3738   26.1460 C   0  0  0  0  0  0
  -27.0266  -30.3059   24.6095 C   0  0  0  0  0  0
  -27.6081  -32.4330   25.7494 C   0  0  0  0  0  0
  -27.5569  -37.1802   24.8466 C   0  0  0  0  0  0
  -21.4117  -29.3019   22.3693 N   0  0  0  0  0  0
  -26.4283  -37.3791   23.9421 N   0  0  0  0  0  0
  -24.6612  -31.0925   22.0976 N   0  0  0  0  0  0
  -23.4163  -28.8327   23.3048 O   0  0  0  0  0  0
  -28.4395  -26.7970   20.0260 O   0  0  0  0  0  0
  -26.5576  -34.8938   22.4710 O   0  0  0  0  0  0
  -23.5317  -32.1525   23.7522 O   0  0  0  0  0  0
  -25.2622  -23.2556   17.5959 C   0  0  0  0  0  0
  -26.2076  -22.4320   18.2815 C   0  0  0  0  0  0
  -26.0155  -24.3380   17.1920 C   0  0  0  0  0  0
  -28.5106  -17.3929   22.9217 C   0  0  0  0  0  0
  -29.6928  -18.5710   21.0525 C   0  0  0  0  0  0
  -27.1782  -18.0418   22.5040 C   0  0  0  0  0  0
  -28.3620  -19.1737   20.5837 C   0  0  0  0  0  0
  -29.4571  -17.2055   21.7181 C   0  0  1  0  0  0
  -27.3815  -19.3788   21.7566 C   0  0  1  0  0  0
  -25.6620  -25.5441   16.3694 C   0  0  0  0  0  0
  -23.0638  -23.7574   16.3666 C   0  0  0  0  0  0
  -23.0621  -23.1810   18.8051 C   0  0  0  0  0  0
  -26.0169  -21.1113   18.9755 C   0  0  0  0  0  0
  -30.7259  -14.9834   22.1537 C   0  0  0  0  0  0
  -30.7816  -16.5292   22.1243 C   0  0  0  0  0  0
  -26.0236  -19.9519   21.2934 C   0  0  0  0  0  0
  -26.1147  -21.2747   20.5083 C   0  0  0  0  0  0
  -28.2942  -25.1852   18.0888 C   0  0  0  0  0  0
  -28.4518  -25.4237   19.6202 C   0  0  0  0  0  0
  -23.7762  -22.9520   17.4590 C   0  0  0  0  0  0
  -27.3998  -22.9880   18.3560 N   0  0  0  0  0  0
  -27.2471  -24.2085   17.8214 N   0  0  0  0  0  0
  -31.4424  -12.4154   19.0502 H   0  0  0  0  0  0
  -30.3117  -11.2850   19.7329 H   0  0  0  0  0  0
  -29.6963  -11.8254   17.3799 H   0  0  0  0  0  0
  -29.6227  -13.5300   17.7612 H   0  0  0  0  0  0
  -27.8214  -11.3123   18.7985 H   0  0  0  0  0  0
  -27.3357  -12.6534   17.7917 H   0  0  0  0  0  0
  -27.7225  -14.2497   19.5937 H   0  0  0  0  0  0
  -28.6728  -11.9389   21.3563 H   0  0  0  0  0  0
  -28.4204  -13.5922   21.8312 H   0  0  0  0  0  0
  -25.2737   -9.5701   22.4748 H   0  0  0  0  0  0
  -23.9969   -7.4682   22.7521 H   0  0  0  0  0  0
  -21.0778   -8.8749   19.9010 H   0  0  0  0  0  0
  -22.3613  -10.9652   19.6190 H   0  0  0  0  0  0
  -21.2049   -7.6134   23.9649 H   0  0  0  0  0  0
  -21.1476   -6.0533   25.9040 H   0  0  0  0  0  0
  -22.0616   -2.7572   23.2880 H   0  0  0  0  0  0
  -22.4178  -11.9912   22.4676 H   0  0  0  0  0  0
  -21.1226  -13.1373   22.2616 H   0  0  0  0  0  0
  -24.6871  -15.8494   20.5418 H   0  0  0  0  0  0
  -26.3137  -15.6217   20.1446 H   0  0  0  0  0  0
  -26.7121  -32.5602   23.1172 H   0  0  0  0  0  0
  -24.9988  -33.9817   25.0428 H   0  0  0  0  0  0
  -22.6831  -31.3197   21.4088 H   0  0  0  0  0  0
  -23.3707  -35.9674   23.3320 H   0  0  0  0  0  0
  -24.3576  -36.8946   22.2058 H   0  0  0  0  0  0
  -23.7234  -37.6545   23.6634 H   0  0  0  0  0  0
  -26.0209  -31.6290   20.5908 H   0  0  0  0  0  0
  -26.8105  -30.9172   21.9759 H   0  0  0  0  0  0
  -28.1057  -29.1531   21.1162 H   0  0  0  0  0  0
  -25.9698  -25.9523   19.1641 H   0  0  0  0  0  0
  -23.9443  -27.2807   19.1255 H   0  0  0  0  0  0
  -23.7203  -30.6271   19.4046 H   0  0  0  0  0  0
  -22.7345  -29.2675   19.8513 H   0  0  0  0  0  0
  -25.1240  -36.2012   25.0829 H   0  0  0  0  0  0
  -21.0044  -28.3221   24.1429 H   0  0  0  0  0  0
  -20.5750  -26.2195   23.3554 H   0  0  0  0  0  0
  -21.6715  -26.7433   22.1178 H   0  0  0  0  0  0
  -19.6963  -25.6394   21.1022 H   0  0  0  0  0  0
  -19.6701  -27.3334   20.6735 H   0  0  0  0  0  0
  -17.4265  -26.6689   21.3929 H   0  0  0  0  0  0
  -18.0416  -26.0038   22.8907 H   0  0  0  0  0  0
  -19.7865  -30.7264   24.2281 H   0  0  0  0  0  0
  -17.4838  -31.6134   24.5219 H   0  0  0  0  0  0
  -15.5311  -30.2802   23.7430 H   0  0  0  0  0  0
  -15.8719  -28.0817   22.6682 H   0  0  0  0  0  0
  -24.5950  -30.7104   25.7794 H   0  0  0  0  0  0
  -24.8936  -32.2882   26.4901 H   0  0  0  0  0  0
  -25.8146  -30.8912   27.0217 H   0  0  0  0  0  0
  -26.2789  -29.6873   24.1133 H   0  0  0  0  0  0
  -27.3988  -29.7293   25.4583 H   0  0  0  0  0  0
  -27.8648  -30.4315   23.9234 H   0  0  0  0  0  0
  -27.2712  -33.3614   26.2119 H   0  0  0  0  0  0
  -28.3891  -32.6948   25.0344 H   0  0  0  0  0  0
  -28.0729  -31.8416   26.5397 H   0  0  0  0  0  0
  -28.2576  -38.0091   24.7493 H   0  0  0  0  0  0
  -28.1063  -36.2643   24.6274 H   0  0  0  0  0  0
  -27.2315  -37.1484   25.8873 H   0  0  0  0  0  0
  -20.9248  -29.8650   21.6862 H   0  0  0  0  0  0
  -26.0182  -38.2881   24.1415 H   0  0  0  0  0  0
  -28.3146  -16.4348   23.4017 H   0  0  0  0  0  0
  -28.9910  -18.0213   23.6742 H   0  0  0  0  0  0
  -30.1834  -19.2541   21.7486 H   0  0  0  0  0  0
  -30.3633  -18.4694   20.1962 H   0  0  0  0  0  0
  -26.5566  -18.1958   23.3879 H   0  0  0  0  0  0
  -26.6317  -17.3511   21.8612 H   0  0  0  0  0  0
  -27.8991  -18.5160   19.8462 H   0  0  0  0  0  0
  -28.5672  -20.1192   20.0803 H   0  0  0  0  0  0
  -28.9620  -16.5689   20.9824 H   0  0  0  0  0  0
  -27.8249  -20.0933   22.4548 H   0  0  0  0  0  0
  -25.0140  -26.2273   16.9171 H   0  0  0  0  0  0
  -25.1458  -25.2553   15.4549 H   0  0  0  0  0  0
  -26.5420  -26.0966   16.0440 H   0  0  0  0  0  0
  -23.0670  -24.8225   16.5944 H   0  0  0  0  0  0
  -22.0197  -23.4497   16.2852 H   0  0  0  0  0  0
  -23.5246  -23.6080   15.3906 H   0  0  0  0  0  0
  -23.4896  -22.5639   19.5950 H   0  0  0  0  0  0
  -22.0004  -22.9346   18.7423 H   0  0  0  0  0  0
  -23.1407  -24.2200   19.1315 H   0  0  0  0  0  0
  -26.7647  -20.4042   18.6164 H   0  0  0  0  0  0
  -25.0565  -20.6705   18.7103 H   0  0  0  0  0  0
  -29.8870  -14.6559   22.7555 H   0  0  0  0  0  0
  -31.5973  -14.6344   22.7059 H   0  0  0  0  0  0
  -31.0931  -16.8984   23.1030 H   0  0  0  0  0  0
  -31.5748  -16.8418   21.4459 H   0  0  0  0  0  0
  -25.4103  -20.1313   22.1786 H   0  0  0  0  0  0
  -25.4769  -19.2109   20.7080 H   0  0  0  0  0  0
  -25.3192  -21.9444   20.8344 H   0  0  0  0  0  0
  -27.0409  -21.7881   20.7711 H   0  0  0  0  0  0
  -29.2279  -24.8178   17.6614 H   0  0  0  0  0  0
  -28.0633  -26.1203   17.5850 H   0  0  0  0  0  0
  -29.3945  -24.9843   19.9426 H   0  0  0  0  0  0
  -27.7029  -24.8876   20.2065 H   0  0  0  0  0  0
  -23.6490  -21.9009   17.1962 H   0  0  0  0  0  0
  1 25  1  0  0  0
  1 30  2  0  0  0
  1 84  1  0  0  0
  2  3  1  0  0  0
  2 25  1  0  0  0
  2 93  1  0  0  0
  2 94  1  0  0  0
  3  4  1  0  0  0
  3 95  1  0  0  0
  3 96  1  0  0  0
  4  5  1  0  0  0
  4 97  1  0  0  0
  4 98  1  0  0  0
  5  6  1  0  0  0
  5 26  1  0  0  0
  5 99  1  0  0  0
  6 25  1  0  0  0
  6100  1  0  0  0
  6101  1  0  0  0
  7  8  2  0  0  0
  7 26  1  0  0  0
  7 29  1  0  0  0
  8  9  1  0  0  0
  8 22  1  0  0  0
  9 10  1  0  0  0
  9 27  2  0  0  0
 10 11  2  0  0  0
 10 15  1  0  0  0
 11 12  1  0  0  0
 11102  1  0  0  0
 12 13  2  0  0  0
 12103  1  0  0  0
 13 14  1  0  0  0
 13 31  1  0  0  0
 14 15  2  0  0  0
 14104  1  0  0  0
 15105  1  0  0  0
 16 17  2  0  0  0
 16 21  1  0  0  0
 16 31  1  0  0  0
 17 18  1  0  0  0
 17106  1  0  0  0
 18 19  2  0  0  0
 18107  1  0  0  0
 19 20  1  0  0  0
 19 24  1  0  0  0
 20 21  2  0  0  0
 20108  1  0  0  0
 21 23  1  0  0  0
 22 28  1  0  0  0
 22 32  2  0  0  0
 26 27  1  0  0  0
 28109  1  0  0  0
 28110  1  0  0  0
 29111  1  0  0  0
 29112  1  0  0  0
 33 34  1  0  0  0
 33 66  1  0  0  0
 33 70  2  0  0  0
 34 36  1  0  0  0
 34 59  1  0  0  0
 34113  1  0  0  0
 35 44  2  0  0  0
 35 45  1  0  0  0
 35 68  1  0  0  0
 36 56  1  0  0  0
 36114  1  0  0  0
 37 39  1  0  0  0
 37 47  1  0  0  0
 37 66  1  0  0  0
 37115  1  0  0  0
 38 43  2  0  0  0
 38 46  1  0  0  0
 38 47  1  0  0  0
 39 64  1  0  0  0
 39 67  2  0  0  0
 40 52  1  0  0  0
 40 53  2  0  0  0
 40 58  1  0  0  0
 41116  1  0  0  0
 41117  1  0  0  0
 41118  1  0  0  0
 41 48  1  0  0  0
 42 43  1  0  0  0
 42 66  1  0  0  0
 42119  1  0  0  0
 42120  1  0  0  0
 43 44  1  0  0  0
 44121  1  0  0  0
 45 46  2  0  0  0
 45122  1  0  0  0
 46123  1  0  0  0
 47124  1  0  0  0
 47125  1  0  0  0
 48 56  1  0  0  0
 48 65  1  0  0  0
 48126  1  0  0  0
 49 50  1  0  0  0
 49 53  1  0  0  0
 49 64  1  0  0  0
 49127  1  0  0  0
 50 51  1  0  0  0
 50128  1  0  0  0
 50129  1  0  0  0
 51 52  1  0  0  0
 51130  1  0  0  0
 51131  1  0  0  0
 52132  1  0  0  0
 52133  1  0  0  0
 53 54  1  0  0  0
 54 55  2  0  0  0
 54134  1  0  0  0
 55 57  1  0  0  0
 55135  1  0  0  0
 56 69  2  0  0  0
 57 58  2  0  0  0
 57136  1  0  0  0
 58137  1  0  0  0
 59 60  1  0  0  0
 59 61  1  0  0  0
 59 62  1  0  0  0
 60138  1  0  0  0
 60139  1  0  0  0
 60140  1  0  0  0
 61141  1  0  0  0
 61142  1  0  0  0
 61143  1  0  0  0
 62144  1  0  0  0
 62145  1  0  0  0
 62146  1  0  0  0
 63 65  1  0  0  0
 63147  1  0  0  0
 63148  1  0  0  0
 63149  1  0  0  0
 64150  1  0  0  0
 65151  1  0  0  0
 68 89  1  0  0  0
 71 72  1  0  0  0
 71 73  2  0  0  0
 71 90  1  0  0  0
 72 83  1  0  0  0
 72 91  2  0  0  0
 73 80  1  0  0  0
 73 92  1  0  0  0
 74 76  1  0  0  0
 74 78  1  0  0  0
 74152  1  0  0  0
 74153  1  0  0  0
 75 77  1  0  0  0
 75 78  1  0  0  0
 75154  1  0  0  0
 75155  1  0  0  0
 76 79  1  0  0  0
 76156  1  0  0  0
 76157  1  0  0  0
 77 79  1  0  0  0
 77158  1  0  0  0
 77159  1  0  0  0
 78 85  1  0  0  0
 78160  1  0  0  0
 79 86  1  0  0  0
 79161  1  0  0  0
 80162  1  0  0  0
 80163  1  0  0  0
 80164  1  0  0  0
 81165  1  0  0  0
 81166  1  0  0  0
 81167  1  0  0  0
 81 90  1  0  0  0
 82 90  1  0  0  0
 82168  1  0  0  0
 82169  1  0  0  0
 82170  1  0  0  0
 83 87  1  0  0  0
 83171  1  0  0  0
 83172  1  0  0  0
 84 85  1  0  0  0
 84173  1  0  0  0
 84174  1  0  0  0
 85175  1  0  0  0
 85176  1  0  0  0
 86 87  1  0  0  0
 86177  1  0  0  0
 86178  1  0  0  0
 87179  1  0  0  0
 87180  1  0  0  0
 88 89  1  0  0  0
 88 92  1  0  0  0
 88181  1  0  0  0
 88182  1  0  0  0
 89183  1  0  0  0
 89184  1  0  0  0
 90185  1  0  0  0
 91 92  1  0  0  0
M  ISO  4   1 100  68 101  84 100  89 101
M  END
> <chiral flag>
0

> <version>
0

> <s_m_source_file>
/data/baiqing/PycharmProjects/Reinvent-master-3.2/result/LINK_invent/BTK/process_docking_weight1_custom_sum_contain_oxygen_bond_distance_aromatic_linkinvent_7_9_3/rearranged_h_0040.sdf

> <i_m_source_file_index>
80

> <r_mmod_Potential_Energy-OPLS-2005>
-25.853494644165

> <r_mmod_Stretch_Energy-OPLS-2005>
35.2019996643066

> <r_mmod_Bend_Energy-OPLS-2005>
111.422798156738

> <r_mmod_Torsional_Energy-OPLS-2005>
228.456512451172

> <r_mmod_Improper_Torsional_Energy-OPLS-2005>
3.84423851966858

> <r_mmod_Van_der_Waal_Energy-OPLS-2005>
128.802886962891

> <r_mmod_Electrostatic_Energy-OPLS-2005>
-361.918395996094

> <r_mmod_Solvation_Energy-OPLS-2005>
-182.285095214844

> <b_mmod_Minimization_Converged-OPLS-2005>
0

> <r_mmod_RMS_Derivative-OPLS-2005>
4.60263967514038

$$$$
80
                    3D
 Structure written by MMmdl.
158166  0  0  1  0            999 V2000
  -30.6892  -14.5783   20.4662 C   0  0  0  0  0  0
  -30.4176  -12.3613   19.4049 C   0  0  0  0  0  0
  -29.5003  -12.5463   18.1814 C   0  0  0  0  0  0
  -28.0203  -12.4035   18.5911 C   0  0  0  0  0  0
  -27.6559  -13.2335   19.8549 C   0  0  2  0  0  0
  -28.7154  -13.0870   20.9666 C   0  0  0  0  0  0
  -25.2588  -13.8227   20.5727 C   0  0  0  0  0  0
  -24.1906  -13.0471   20.9169 C   0  0  0  0  0  0
  -24.6458  -11.6935   20.8601 C   0  0  0  0  0  0
  -23.9184  -10.4327   21.0305 C   0  0  0  0  0  0
  -24.3773   -9.4255   21.9042 C   0  0  0  0  0  0
  -23.6461   -8.2257   22.0686 C   0  0  0  0  0  0
  -22.4391   -8.0322   21.3583 C   0  0  0  0  0  0
  -21.9966   -9.0323   20.4723 C   0  0  0  0  0  0
  -22.7283  -10.2165   20.3045 C   0  0  0  0  0  0
  -21.6908   -6.0761   22.5284 C   0  0  0  0  0  0
  -21.4125   -6.5702   23.8228 C   0  0  0  0  0  0
  -21.3666   -5.6834   24.9154 C   0  0  0  0  0  0
  -21.6051   -4.3103   24.7217 C   0  0  0  0  0  0
  -21.8780   -3.8161   23.4337 C   0  0  0  0  0  0
  -21.9267   -4.6975   22.3410 C   0  0  0  0  0  0
  -22.7943  -13.5251   21.1942 C   0  0  0  0  0  0
  -22.1739   -4.2204   21.0972 F   0  0  0  0  0  0
  -21.5640   -3.4566   25.7688 F   0  0  0  0  0  0
  -30.0287  -13.3871   20.3895 N   0  0  0  0  0  0
  -26.3050  -12.9422   20.3311 N   0  0  0  0  0  0
  -25.9380  -11.6540   20.5610 N   0  0  0  0  0  0
  -22.0567  -12.8054   22.0282 N   0  0  0  0  0  0
  -25.4213  -15.1989   20.4268 N   0  0  0  0  0  0
  -31.8705  -14.6894   20.1315 O   0  0  0  0  0  0
  -21.6751   -6.8908   21.4251 O   0  0  0  0  0  0
  -22.3691  -14.5608   20.6866 O   0  0  0  0  0  0
  -24.6160  -31.8758   23.2140 C   0  0  0  0  0  0
  -25.9054  -32.4869   23.8471 C   0  0  1  0  0  0
  -27.2291  -27.4343   20.0981 C   0  0  0  0  0  0
  -25.5912  -33.8655   24.2380 N   0  0  0  0  0  0
  -23.4052  -30.4969   21.5538 C   0  0  2  0  0  0
  -24.8529  -28.9685   20.1126 C   0  0  0  0  0  0
  -22.7440  -29.4679   22.5004 C   0  0  0  0  0  0
  -18.0268  -28.1392   22.8486 C   0  0  0  0  0  0
  -24.1477  -36.7329   23.2641 C   0  0  0  0  0  0
  -25.9342  -30.8330   21.3744 C   0  0  0  0  0  0
  -26.0102  -29.4699   20.7173 C   0  0  0  0  0  0
  -27.2026  -28.7117   20.7065 C   0  0  0  0  0  0
  -26.0574  -26.9545   19.4746 C   0  0  0  0  0  0
  -24.8712  -27.7124   19.4847 C   0  0  0  0  0  0
  -23.6157  -29.8400   20.1635 C   0  0  0  0  0  0
  -25.4099  -36.3139   24.0333 C   0  0  1  0  0  0
  -20.5867  -28.3660   23.1324 C   0  0  2  0  0  0
  -20.6754  -26.9407   22.5399 C   0  0  0  0  0  0
  -19.5732  -26.6400   21.5205 C   0  0  0  0  0  0
  -18.1917  -26.7934   22.1622 C   0  0  0  0  0  0
  -19.1523  -28.8845   23.2895 C   0  0  0  0  0  0
  -18.9433  -30.1448   23.8915 C   0  0  0  0  0  0
  -17.6434  -30.6587   24.0568 C   0  0  0  0  0  0
  -25.9034  -34.9503   23.5158 C   0  0  0  0  0  0
  -16.5326  -29.9091   23.6322 C   0  0  0  0  0  0
  -16.7245  -28.6507   23.0335 C   0  0  0  0  0  0
  -26.4461  -31.6645   25.0797 C   0  0  0  0  0  0
  -25.3707  -31.3726   26.1516 C   0  0  0  0  0  0
  -27.0318  -30.3090   24.6197 C   0  0  0  0  0  0
  -27.6058  -32.4358   25.7532 C   0  0  0  0  0  0
  -27.5575  -37.1849   24.8462 C   0  0  0  0  0  0
  -21.4170  -29.3036   22.3747 N   0  0  0  0  0  0
  -26.4285  -37.3810   23.9418 N   0  0  0  0  0  0
  -24.6690  -31.0873   22.1043 N   0  0  0  0  0  0
  -23.4220  -28.8208   23.3012 O   0  0  0  0  0  0
  -28.3902  -26.6947   20.0715 O   0  0  0  0  0  0
  -26.5568  -34.8930   22.4700 O   0  0  0  0  0  0
  -23.5362  -32.1472   23.7543 O   0  0  0  0  0  0
  -28.2809  -17.5395   19.1770 C   0  0  0  0  0  0
  -29.6212  -19.4602   19.7639 C   0  0  0  0  0  0
  -29.4215  -18.0496   19.8248 C   0  0  0  0  0  0
  -27.3711  -18.4261   18.5757 C   0  0  0  0  0  0
  -28.6641  -20.2885   19.1144 C   0  0  0  0  0  0
  -26.1198  -17.9048   17.8975 C   0  0  0  0  0  0
  -30.4007  -17.0920   20.5331 C   0  0  0  0  0  0
  -28.8510  -21.7987   18.8655 C   0  0  0  0  0  0
  -28.5437  -22.7882   20.0228 C   0  0  0  0  0  0
  -28.2844  -24.2416   19.5114 C   0  0  0  0  0  0
  -28.3127  -25.3529   20.5977 C   0  0  0  0  0  0
  -27.5432  -19.7638   18.5663 N   0  0  0  0  0  0
  -29.9442  -15.6828   20.7137 N   0  0  0  0  0  0
  -31.4636  -12.4465   19.1047 H   0  0  0  0  0  0
  -30.2874  -11.3636   19.8184 H   0  0  0  0  0  0
  -29.7265  -11.8118   17.4124 H   0  0  0  0  0  0
  -29.6826  -13.5295   17.7327 H   0  0  0  0  0  0
  -27.8130  -11.3464   18.7639 H   0  0  0  0  0  0
  -27.3801  -12.7123   17.7646 H   0  0  0  0  0  0
  -27.6581  -14.2762   19.5375 H   0  0  0  0  0  0
  -28.7180  -12.0785   21.3834 H   0  0  0  0  0  0
  -28.4908  -13.7448   21.8031 H   0  0  0  0  0  0
  -25.2965   -9.5758   22.4561 H   0  0  0  0  0  0
  -24.0317   -7.4663   22.7358 H   0  0  0  0  0  0
  -21.0833   -8.8901   19.9123 H   0  0  0  0  0  0
  -22.3718  -10.9701   19.6209 H   0  0  0  0  0  0
  -21.2148   -7.6260   23.9720 H   0  0  0  0  0  0
  -21.1559   -6.0589   25.9086 H   0  0  0  0  0  0
  -22.0534   -2.7641   23.2783 H   0  0  0  0  0  0
  -22.4234  -11.9749   22.4685 H   0  0  0  0  0  0
  -21.1100  -13.0896   22.2454 H   0  0  0  0  0  0
  -24.6292  -15.8249   20.5264 H   0  0  0  0  0  0
  -26.2846  -15.6613   20.1695 H   0  0  0  0  0  0
  -26.7137  -32.5586   23.1271 H   0  0  0  0  0  0
  -25.0180  -33.9831   25.0596 H   0  0  0  0  0  0
  -22.6890  -31.3106   21.4237 H   0  0  0  0  0  0
  -23.3748  -35.9664   23.3340 H   0  0  0  0  0  0
  -24.3582  -36.8910   22.2062 H   0  0  0  0  0  0
  -23.7211  -37.6532   23.6624 H   0  0  0  0  0  0
  -26.0624  -31.6054   20.6155 H   0  0  0  0  0  0
  -26.8153  -30.8782   21.9990 H   0  0  0  0  0  0
  -28.0942  -29.0928   21.1777 H   0  0  0  0  0  0
  -26.0598  -26.0070   18.9596 H   0  0  0  0  0  0
  -23.9878  -27.3305   18.9917 H   0  0  0  0  0  0
  -23.7347  -30.6276   19.4166 H   0  0  0  0  0  0
  -22.7350  -29.2728   19.8576 H   0  0  0  0  0  0
  -25.1282  -36.2056   25.0820 H   0  0  0  0  0  0
  -20.9921  -28.3216   24.1463 H   0  0  0  0  0  0
  -20.5688  -26.2274   23.3575 H   0  0  0  0  0  0
  -21.6625  -26.7474   22.1192 H   0  0  0  0  0  0
  -19.6904  -25.6318   21.1248 H   0  0  0  0  0  0
  -19.6687  -27.3203   20.6738 H   0  0  0  0  0  0
  -17.4186  -26.6671   21.4020 H   0  0  0  0  0  0
  -18.0311  -26.0055   22.9006 H   0  0  0  0  0  0
  -19.7894  -30.7265   24.2303 H   0  0  0  0  0  0
  -17.4970  -31.6259   24.5195 H   0  0  0  0  0  0
  -15.5326  -30.3002   23.7621 H   0  0  0  0  0  0
  -15.8634  -28.0841   22.7037 H   0  0  0  0  0  0
  -24.5881  -30.7066   25.7826 H   0  0  0  0  0  0
  -24.8867  -32.2867   26.4984 H   0  0  0  0  0  0
  -25.8026  -30.8883   27.0284 H   0  0  0  0  0  0
  -26.2873  -29.6826   24.1244 H   0  0  0  0  0  0
  -27.4081  -29.7342   25.4684 H   0  0  0  0  0  0
  -27.8715  -30.4430   23.9358 H   0  0  0  0  0  0
  -27.2721  -33.3675   26.2105 H   0  0  0  0  0  0
  -28.3846  -32.6901   25.0324 H   0  0  0  0  0  0
  -28.0744  -31.8491   26.5450 H   0  0  0  0  0  0
  -28.2617  -38.0123   24.7510 H   0  0  0  0  0  0
  -28.1044  -36.2677   24.6294 H   0  0  0  0  0  0
  -27.2302  -37.1483   25.8855 H   0  0  0  0  0  0
  -20.9316  -29.8799   21.7013 H   0  0  0  0  0  0
  -26.0212  -38.2907   24.1366 H   0  0  0  0  0  0
  -28.1074  -16.4733   19.1267 H   0  0  0  0  0  0
  -30.5180  -19.9024   20.1737 H   0  0  0  0  0  0
  -26.3640  -17.4849   16.9217 H   0  0  0  0  0  0
  -25.4062  -18.7170   17.7497 H   0  0  0  0  0  0
  -25.6419  -17.1418   18.5133 H   0  0  0  0  0  0
  -30.6403  -17.4923   21.5184 H   0  0  0  0  0  0
  -31.3300  -17.1356   19.9604 H   0  0  0  0  0  0
  -28.2011  -22.0605   18.0281 H   0  0  0  0  0  0
  -29.8600  -21.9736   18.5019 H   0  0  0  0  0  0
  -29.3865  -22.7766   20.7142 H   0  0  0  0  0  0
  -27.6833  -22.4484   20.5990 H   0  0  0  0  0  0
  -27.3229  -24.2612   19.0005 H   0  0  0  0  0  0
  -29.0262  -24.4918   18.7497 H   0  0  0  0  0  0
  -29.2096  -25.2159   21.2027 H   0  0  0  0  0  0
  -27.4734  -25.2501   21.2888 H   0  0  0  0  0  0
  -28.9870  -15.5461   21.0044 H   0  0  0  0  0  0
  1 25  1  0  0  0
  1 30  2  0  0  0
  1 83  1  0  0  0
  2  3  1  0  0  0
  2 25  1  0  0  0
  2 84  1  0  0  0
  2 85  1  0  0  0
  3  4  1  0  0  0
  3 86  1  0  0  0
  3 87  1  0  0  0
  4  5  1  0  0  0
  4 88  1  0  0  0
  4 89  1  0  0  0
  5  6  1  0  0  0
  5 26  1  0  0  0
  5 90  1  0  0  0
  6 25  1  0  0  0
  6 91  1  0  0  0
  6 92  1  0  0  0
  7  8  2  0  0  0
  7 26  1  0  0  0
  7 29  1  0  0  0
  8  9  1  0  0  0
  8 22  1  0  0  0
  9 10  1  0  0  0
  9 27  2  0  0  0
 10 11  2  0  0  0
 10 15  1  0  0  0
 11 12  1  0  0  0
 11 93  1  0  0  0
 12 13  2  0  0  0
 12 94  1  0  0  0
 13 14  1  0  0  0
 13 31  1  0  0  0
 14 15  2  0  0  0
 14 95  1  0  0  0
 15 96  1  0  0  0
 16 17  2  0  0  0
 16 21  1  0  0  0
 16 31  1  0  0  0
 17 18  1  0  0  0
 17 97  1  0  0  0
 18 19  2  0  0  0
 18 98  1  0  0  0
 19 20  1  0  0  0
 19 24  1  0  0  0
 20 21  2  0  0  0
 20 99  1  0  0  0
 21 23  1  0  0  0
 22 28  1  0  0  0
 22 32  2  0  0  0
 26 27  1  0  0  0
 28100  1  0  0  0
 28101  1  0  0  0
 29102  1  0  0  0
 29103  1  0  0  0
 33 34  1  0  0  0
 33 66  1  0  0  0
 33 70  2  0  0  0
 34 36  1  0  0  0
 34 59  1  0  0  0
 34104  1  0  0  0
 35 44  2  0  0  0
 35 45  1  0  0  0
 35 68  1  0  0  0
 36 56  1  0  0  0
 36105  1  0  0  0
 37 39  1  0  0  0
 37 47  1  0  0  0
 37 66  1  0  0  0
 37106  1  0  0  0
 38 43  2  0  0  0
 38 46  1  0  0  0
 38 47  1  0  0  0
 39 64  1  0  0  0
 39 67  2  0  0  0
 40 52  1  0  0  0
 40 53  2  0  0  0
 40 58  1  0  0  0
 41107  1  0  0  0
 41108  1  0  0  0
 41109  1  0  0  0
 41 48  1  0  0  0
 42 43  1  0  0  0
 42 66  1  0  0  0
 42110  1  0  0  0
 42111  1  0  0  0
 43 44  1  0  0  0
 44112  1  0  0  0
 45 46  2  0  0  0
 45113  1  0  0  0
 46114  1  0  0  0
 47115  1  0  0  0
 47116  1  0  0  0
 48 56  1  0  0  0
 48 65  1  0  0  0
 48117  1  0  0  0
 49 50  1  0  0  0
 49 53  1  0  0  0
 49 64  1  0  0  0
 49118  1  0  0  0
 50 51  1  0  0  0
 50119  1  0  0  0
 50120  1  0  0  0
 51 52  1  0  0  0
 51121  1  0  0  0
 51122  1  0  0  0
 52123  1  0  0  0
 52124  1  0  0  0
 53 54  1  0  0  0
 54 55  2  0  0  0
 54125  1  0  0  0
 55 57  1  0  0  0
 55126  1  0  0  0
 56 69  2  0  0  0
 57 58  2  0  0  0
 57127  1  0  0  0
 58128  1  0  0  0
 59 60  1  0  0  0
 59 61  1  0  0  0
 59 62  1  0  0  0
 60129  1  0  0  0
 60130  1  0  0  0
 60131  1  0  0  0
 61132  1  0  0  0
 61133  1  0  0  0
 61134  1  0  0  0
 62135  1  0  0  0
 62136  1  0  0  0
 62137  1  0  0  0
 63 65  1  0  0  0
 63138  1  0  0  0
 63139  1  0  0  0
 63140  1  0  0  0
 64141  1  0  0  0
 65142  1  0  0  0
 68 81  1  0  0  0
 71 73  2  0  0  0
 71 74  1  0  0  0
 71143  1  0  0  0
 72 73  1  0  0  0
 72 75  2  0  0  0
 72144  1  0  0  0
 73 77  1  0  0  0
 74 76  1  0  0  0
 74 82  2  0  0  0
 75 78  1  0  0  0
 75 82  1  0  0  0
 76145  1  0  0  0
 76146  1  0  0  0
 76147  1  0  0  0
 77 83  1  0  0  0
 77148  1  0  0  0
 77149  1  0  0  0
 78 79  1  0  0  0
 78150  1  0  0  0
 78151  1  0  0  0
 79 80  1  0  0  0
 79152  1  0  0  0
 79153  1  0  0  0
 80 81  1  0  0  0
 80154  1  0  0  0
 80155  1  0  0  0
 81156  1  0  0  0
 81157  1  0  0  0
 83158  1  0  0  0
M  ISO  4   1 100  68 101  81 101  83 100
M  END
> <chiral flag>
0

> <version>
0

> <s_m_source_file>
/data/baiqing/PycharmProjects/Reinvent-master-3.2/result/LINK_invent/BTK/process_docking_weight1_custom_sum_contain_oxygen_bond_distance_aromatic_linkinvent_7_9_3/rearranged_h_0040.sdf

> <i_m_source_file_index>
81

> <r_mmod_Potential_Energy-OPLS-2005>
-304.047821044922

> <r_mmod_Stretch_Energy-OPLS-2005>
43.3520774841309

> <r_mmod_Bend_Energy-OPLS-2005>
102.29711151123

> <r_mmod_Torsional_Energy-OPLS-2005>
215.493743896484

> <r_mmod_Improper_Torsional_Energy-OPLS-2005>
4.81514024734497

> <r_mmod_Van_der_Waal_Energy-OPLS-2005>
145.350311279297

> <r_mmod_Electrostatic_Energy-OPLS-2005>
-624.655456542969

> <r_mmod_Solvation_Energy-OPLS-2005>
-216.843185424805

> <b_mmod_Minimization_Converged-OPLS-2005>
0

> <r_mmod_RMS_Derivative-OPLS-2005>
10.1116743087769

$$$$
81
                    3D
 Structure written by MMmdl.
172180  0  0  1  0            999 V2000
  -30.5716  -14.7560   20.4439 C   0  0  0  0  0  0
  -30.4521  -12.4597   19.4484 C   0  0  0  0  0  0
  -29.5148  -12.4971   18.2192 C   0  0  0  0  0  0
  -28.0387  -12.3178   18.6340 C   0  0  0  0  0  0
  -27.6432  -13.2163   19.8358 C   0  0  2  0  0  0
  -28.6941  -13.1364   20.9639 C   0  0  0  0  0  0
  -25.2539  -13.8150   20.5629 C   0  0  0  0  0  0
  -24.1817  -13.0418   20.9165 C   0  0  0  0  0  0
  -24.6389  -11.6899   20.8720 C   0  0  0  0  0  0
  -23.9051  -10.4285   21.0389 C   0  0  0  0  0  0
  -24.3613   -9.4211   21.9170 C   0  0  0  0  0  0
  -23.6292   -8.2249   22.0755 C   0  0  0  0  0  0
  -22.4268   -8.0282   21.3551 C   0  0  0  0  0  0
  -21.9899   -9.0244   20.4640 C   0  0  0  0  0  0
  -22.7228  -10.2123   20.3039 C   0  0  0  0  0  0
  -21.6859   -6.0729   22.5285 C   0  0  0  0  0  0
  -21.4017   -6.5630   23.8215 C   0  0  0  0  0  0
  -21.3659   -5.6783   24.9178 C   0  0  0  0  0  0
  -21.6041   -4.3045   24.7228 C   0  0  0  0  0  0
  -21.8824   -3.8138   23.4349 C   0  0  0  0  0  0
  -21.9191   -4.6955   22.3410 C   0  0  0  0  0  0
  -22.7843  -13.5216   21.1855 C   0  0  0  0  0  0
  -22.1659   -4.2140   21.0990 F   0  0  0  0  0  0
  -21.5628   -3.4538   25.7742 F   0  0  0  0  0  0
  -29.9909  -13.5104   20.3779 N   0  0  0  0  0  0
  -26.2941  -12.9326   20.3178 N   0  0  0  0  0  0
  -25.9307  -11.6483   20.5682 N   0  0  0  0  0  0
  -22.0487  -12.8204   22.0405 N   0  0  0  0  0  0
  -25.4195  -15.1888   20.4049 N   0  0  0  0  0  0
  -31.7772  -14.9024   20.2233 O   0  0  0  0  0  0
  -21.6646   -6.8878   21.4246 O   0  0  0  0  0  0
  -22.3525  -14.5524   20.6711 O   0  0  0  0  0  0
  -24.6323  -31.8560   23.1977 C   0  0  0  0  0  0
  -25.9141  -32.4746   23.8342 C   0  0  1  0  0  0
  -27.2277  -27.2652   20.1238 C   0  0  0  0  0  0
  -25.5939  -33.8561   24.2239 N   0  0  0  0  0  0
  -23.4294  -30.4778   21.5395 C   0  0  2  0  0  0
  -24.8783  -28.9185   20.1150 C   0  0  0  0  0  0
  -22.7511  -29.4610   22.4896 C   0  0  0  0  0  0
  -18.0307  -28.1394   22.8443 C   0  0  0  0  0  0
  -24.1496  -36.7282   23.2650 C   0  0  0  0  0  0
  -25.9758  -30.7673   21.3800 C   0  0  0  0  0  0
  -26.0505  -29.3889   20.7221 C   0  0  0  0  0  0
  -27.2301  -28.5743   20.7138 C   0  0  0  0  0  0
  -26.0349  -26.8636   19.4885 C   0  0  0  0  0  0
  -24.8748  -27.6621   19.4902 C   0  0  0  0  0  0
  -23.6469  -29.8046   20.1596 C   0  0  0  0  0  0
  -25.4122  -36.3078   24.0331 C   0  0  1  0  0  0
  -20.5907  -28.3716   23.1245 C   0  0  2  0  0  0
  -20.6794  -26.9429   22.5408 C   0  0  0  0  0  0
  -19.5776  -26.6372   21.5209 C   0  0  0  0  0  0
  -18.1948  -26.7922   22.1598 C   0  0  0  0  0  0
  -19.1551  -28.8868   23.2826 C   0  0  0  0  0  0
  -18.9483  -30.1459   23.8854 C   0  0  0  0  0  0
  -17.6495  -30.6588   24.0556 C   0  0  0  0  0  0
  -25.9089  -34.9452   23.5105 C   0  0  0  0  0  0
  -16.5380  -29.9083   23.6339 C   0  0  0  0  0  0
  -16.7291  -28.6510   23.0331 C   0  0  0  0  0  0
  -26.4482  -31.6583   25.0744 C   0  0  0  0  0  0
  -25.3637  -31.3742   26.1423 C   0  0  0  0  0  0
  -27.0365  -30.3006   24.6258 C   0  0  0  0  0  0
  -27.6051  -32.4326   25.7483 C   0  0  0  0  0  0
  -27.5566  -37.1795   24.8467 C   0  0  0  0  0  0
  -21.4226  -29.3065   22.3630 N   0  0  0  0  0  0
  -26.4278  -37.3787   23.9423 N   0  0  0  0  0  0
  -24.6972  -31.0512   22.0951 N   0  0  0  0  0  0
  -23.4195  -28.8175   23.3015 O   0  0  0  0  0  0
  -28.3218  -26.3675   20.1206 O   0  0  0  0  0  0
  -26.5694  -34.8930   22.4692 O   0  0  0  0  0  0
  -23.5451  -32.1398   23.7258 O   0  0  0  0  0  0
  -28.7409  -20.3652   22.1543 C   0  0  0  0  0  0
  -28.2072  -21.3240   22.9657 C   0  0  0  0  0  0
  -28.7407  -22.3051   21.0067 C   0  0  0  0  0  0
  -27.4769  -17.7357   29.6919 C   0  0  0  0  0  0
  -27.5733  -21.2486   24.3189 C   0  0  0  0  0  0
  -28.8364  -23.5994   20.0951 C   0  0  0  0  0  0
  -26.8734  -18.6226   28.5986 C   0  0  0  0  0  0
  -28.1535  -20.1434   25.2163 C   0  0  0  0  0  0
  -27.8970  -19.0088   27.5179 C   0  0  0  0  0  0
  -27.2785  -19.9366   26.4626 C   0  0  0  0  0  0
  -30.1106  -18.5201   19.9113 C   0  0  0  0  0  0
  -29.4464  -20.0302   19.7736 C   0  0  0  0  0  0
  -29.7277  -17.3144   20.9238 C   0  0  0  0  0  0
  -28.0987  -24.9641   20.6263 C   0  0  0  0  0  0
  -29.0306  -20.9306   20.9364 N   0  0  0  0  0  0
  -28.2620  -22.4809   22.2479 N   0  3  0  0  0  0
  -29.6957  -15.8252   20.5447 N   0  0  0  0  0  0
  -31.4861  -12.6179   19.1377 H   0  0  0  0  0  0
  -30.4254  -11.4804   19.9295 H   0  0  0  0  0  0
  -29.7995  -11.7261   17.5019 H   0  0  0  0  0  0
  -29.6317  -13.4501   17.7010 H   0  0  0  0  0  0
  -27.8929  -11.2681   18.8937 H   0  0  0  0  0  0
  -27.3842  -12.5109   17.7835 H   0  0  0  0  0  0
  -27.6351  -14.2361   19.4527 H   0  0  0  0  0  0
  -28.7363  -12.1273   21.3773 H   0  0  0  0  0  0
  -28.4266  -13.7952   21.7918 H   0  0  0  0  0  0
  -25.2766   -9.5692   22.4728 H   0  0  0  0  0  0
  -24.0002   -7.4643   22.7484 H   0  0  0  0  0  0
  -21.0827   -8.8748   19.8952 H   0  0  0  0  0  0
  -22.3680  -10.9648   19.6134 H   0  0  0  0  0  0
  -21.2019   -7.6139   23.9716 H   0  0  0  0  0  0
  -21.1468   -6.0516   25.9078 H   0  0  0  0  0  0
  -22.0603   -2.7600   23.2858 H   0  0  0  0  0  0
  -22.4097  -11.9853   22.4781 H   0  0  0  0  0  0
  -21.1096  -13.1218   22.2606 H   0  0  0  0  0  0
  -24.6423  -15.8314   20.5146 H   0  0  0  0  0  0
  -26.2485  -15.6368   20.0382 H   0  0  0  0  0  0
  -26.7225  -32.5376   23.1090 H   0  0  0  0  0  0
  -25.0029  -33.9701   25.0340 H   0  0  0  0  0  0
  -22.7274  -31.3016   21.3874 H   0  0  0  0  0  0
  -23.3768  -35.9609   23.3319 H   0  0  0  0  0  0
  -24.3582  -36.8911   22.2069 H   0  0  0  0  0  0
  -23.7237  -37.6473   23.6681 H   0  0  0  0  0  0
  -26.1262  -31.5289   20.6136 H   0  0  0  0  0  0
  -26.8505  -30.8111   22.0166 H   0  0  0  0  0  0
  -28.1292  -28.9300   21.1970 H   0  0  0  0  0  0
  -25.9911  -25.9072   18.9888 H   0  0  0  0  0  0
  -23.9784  -27.2964   19.0092 H   0  0  0  0  0  0
  -23.7745  -30.5786   19.4026 H   0  0  0  0  0  0
  -22.7633  -29.2388   19.8530 H   0  0  0  0  0  0
  -25.1302  -36.1925   25.0816 H   0  0  0  0  0  0
  -20.9981  -28.3300   24.1381 H   0  0  0  0  0  0
  -20.5691  -26.2319   23.3604 H   0  0  0  0  0  0
  -21.6651  -26.7443   22.1183 H   0  0  0  0  0  0
  -19.6953  -25.6274   21.1240 H   0  0  0  0  0  0
  -19.6717  -27.3175   20.6718 H   0  0  0  0  0  0
  -17.4206  -26.6659   21.4000 H   0  0  0  0  0  0
  -18.0332  -26.0076   22.9008 H   0  0  0  0  0  0
  -19.7980  -30.7263   24.2166 H   0  0  0  0  0  0
  -17.5080  -31.6258   24.5189 H   0  0  0  0  0  0
  -15.5382  -30.2996   23.7695 H   0  0  0  0  0  0
  -15.8675  -28.0847   22.7049 H   0  0  0  0  0  0
  -24.5841  -30.7082   25.7695 H   0  0  0  0  0  0
  -24.8778  -32.2906   26.4793 H   0  0  0  0  0  0
  -25.7858  -30.8916   27.0231 H   0  0  0  0  0  0
  -26.2971  -29.6695   24.1314 H   0  0  0  0  0  0
  -27.4126  -29.7328   25.4779 H   0  0  0  0  0  0
  -27.8793  -30.4324   23.9485 H   0  0  0  0  0  0
  -27.2716  -33.3667   26.1988 H   0  0  0  0  0  0
  -28.3829  -32.6817   25.0265 H   0  0  0  0  0  0
  -28.0729  -31.8490   26.5420 H   0  0  0  0  0  0
  -28.2584  -38.0092   24.7542 H   0  0  0  0  0  0
  -28.1055  -36.2626   24.6245 H   0  0  0  0  0  0
  -27.2306  -37.1406   25.8878 H   0  0  0  0  0  0
  -20.9425  -29.8797   21.6835 H   0  0  0  0  0  0
  -26.0162  -38.2861   24.1402 H   0  0  0  0  0  0
  -28.8641  -19.3168   22.3522 H   0  0  0  0  0  0
  -26.7060  -17.4175   30.3953 H   0  0  0  0  0  0
  -28.2461  -18.2687   30.2539 H   0  0  0  0  0  0
  -27.9273  -16.8378   29.2690 H   0  0  0  0  0  0
  -26.5086  -21.0687   24.1640 H   0  0  0  0  0  0
  -27.6560  -22.2152   24.8187 H   0  0  0  0  0  0
  -28.4560  -23.3229   19.1113 H   0  0  0  0  0  0
  -29.9023  -23.7944   19.9784 H   0  0  0  0  0  0
  -26.4480  -19.5192   29.0555 H   0  0  0  0  0  0
  -26.0388  -18.0985   28.1285 H   0  0  0  0  0  0
  -29.1776  -20.3993   25.4929 H   0  0  0  0  0  0
  -28.2065  -19.2020   24.6673 H   0  0  0  0  0  0
  -28.2792  -18.1044   27.0393 H   0  0  0  0  0  0
  -28.7563  -19.5004   27.9783 H   0  0  0  0  0  0
  -26.3143  -19.5324   26.1468 H   0  0  0  0  0  0
  -27.0658  -20.9030   26.9267 H   0  0  0  0  0  0
  -31.1788  -18.6852   20.0586 H   0  0  0  0  0  0
  -30.0529  -18.0940   18.9098 H   0  0  0  0  0  0
  -28.5396  -19.9236   19.1767 H   0  0  0  0  0  0
  -30.1168  -20.6303   19.1576 H   0  0  0  0  0  0
  -28.7007  -17.4916   21.2406 H   0  0  0  0  0  0
  -30.3262  -17.4108   21.8318 H   0  0  0  0  0  0
  -28.3649  -25.0633   21.6782 H   0  0  0  0  0  0
  -27.0300  -24.7513   20.6439 H   0  0  0  0  0  0
  -27.9566  -23.3774   22.6061 H   0  0  0  0  0  0
  -28.7493  -15.4759   20.5339 H   0  0  0  0  0  0
  1 25  1  0  0  0
  1 30  2  0  0  0
  1 87  1  0  0  0
  2  3  1  0  0  0
  2 25  1  0  0  0
  2 88  1  0  0  0
  2 89  1  0  0  0
  3  4  1  0  0  0
  3 90  1  0  0  0
  3 91  1  0  0  0
  4  5  1  0  0  0
  4 92  1  0  0  0
  4 93  1  0  0  0
  5  6  1  0  0  0
  5 26  1  0  0  0
  5 94  1  0  0  0
  6 25  1  0  0  0
  6 95  1  0  0  0
  6 96  1  0  0  0
  7  8  2  0  0  0
  7 26  1  0  0  0
  7 29  1  0  0  0
  8  9  1  0  0  0
  8 22  1  0  0  0
  9 10  1  0  0  0
  9 27  2  0  0  0
 10 11  2  0  0  0
 10 15  1  0  0  0
 11 12  1  0  0  0
 11 97  1  0  0  0
 12 13  2  0  0  0
 12 98  1  0  0  0
 13 14  1  0  0  0
 13 31  1  0  0  0
 14 15  2  0  0  0
 14 99  1  0  0  0
 15100  1  0  0  0
 16 17  2  0  0  0
 16 21  1  0  0  0
 16 31  1  0  0  0
 17 18  1  0  0  0
 17101  1  0  0  0
 18 19  2  0  0  0
 18102  1  0  0  0
 19 20  1  0  0  0
 19 24  1  0  0  0
 20 21  2  0  0  0
 20103  1  0  0  0
 21 23  1  0  0  0
 22 28  1  0  0  0
 22 32  2  0  0  0
 26 27  1  0  0  0
 28104  1  0  0  0
 28105  1  0  0  0
 29106  1  0  0  0
 29107  1  0  0  0
 33 34  1  0  0  0
 33 66  1  0  0  0
 33 70  2  0  0  0
 34 36  1  0  0  0
 34 59  1  0  0  0
 34108  1  0  0  0
 35 44  2  0  0  0
 35 45  1  0  0  0
 35 68  1  0  0  0
 36 56  1  0  0  0
 36109  1  0  0  0
 37 39  1  0  0  0
 37 47  1  0  0  0
 37 66  1  0  0  0
 37110  1  0  0  0
 38 43  2  0  0  0
 38 46  1  0  0  0
 38 47  1  0  0  0
 39 64  1  0  0  0
 39 67  2  0  0  0
 40 52  1  0  0  0
 40 53  2  0  0  0
 40 58  1  0  0  0
 41111  1  0  0  0
 41112  1  0  0  0
 41113  1  0  0  0
 41 48  1  0  0  0
 42 43  1  0  0  0
 42 66  1  0  0  0
 42114  1  0  0  0
 42115  1  0  0  0
 43 44  1  0  0  0
 44116  1  0  0  0
 45 46  2  0  0  0
 45117  1  0  0  0
 46118  1  0  0  0
 47119  1  0  0  0
 47120  1  0  0  0
 48 56  1  0  0  0
 48 65  1  0  0  0
 48121  1  0  0  0
 49 50  1  0  0  0
 49 53  1  0  0  0
 49 64  1  0  0  0
 49122  1  0  0  0
 50 51  1  0  0  0
 50123  1  0  0  0
 50124  1  0  0  0
 51 52  1  0  0  0
 51125  1  0  0  0
 51126  1  0  0  0
 52127  1  0  0  0
 52128  1  0  0  0
 53 54  1  0  0  0
 54 55  2  0  0  0
 54129  1  0  0  0
 55 57  1  0  0  0
 55130  1  0  0  0
 56 69  2  0  0  0
 57 58  2  0  0  0
 57131  1  0  0  0
 58132  1  0  0  0
 59 60  1  0  0  0
 59 61  1  0  0  0
 59 62  1  0  0  0
 60133  1  0  0  0
 60134  1  0  0  0
 60135  1  0  0  0
 61136  1  0  0  0
 61137  1  0  0  0
 61138  1  0  0  0
 62139  1  0  0  0
 62140  1  0  0  0
 62141  1  0  0  0
 63 65  1  0  0  0
 63142  1  0  0  0
 63143  1  0  0  0
 63144  1  0  0  0
 64145  1  0  0  0
 65146  1  0  0  0
 68 84  1  0  0  0
 71 72  2  0  0  0
 71 85  1  0  0  0
 71147  1  0  0  0
 72 75  1  0  0  0
 72 86  1  0  0  0
 73 76  1  0  0  0
 73 85  1  0  0  0
 73 86  2  0  0  0
 74 77  1  0  0  0
 74148  1  0  0  0
 74149  1  0  0  0
 74150  1  0  0  0
 75 78  1  0  0  0
 75151  1  0  0  0
 75152  1  0  0  0
 76 84  1  0  0  0
 76153  1  0  0  0
 76154  1  0  0  0
 77 79  1  0  0  0
 77155  1  0  0  0
 77156  1  0  0  0
 78 80  1  0  0  0
 78157  1  0  0  0
 78158  1  0  0  0
 79 80  1  0  0  0
 79159  1  0  0  0
 79160  1  0  0  0
 80161  1  0  0  0
 80162  1  0  0  0
 81 82  1  0  0  0
 81 83  1  0  0  0
 81163  1  0  0  0
 81164  1  0  0  0
 82 85  1  0  0  0
 82165  1  0  0  0
 82166  1  0  0  0
 83 87  1  0  0  0
 83167  1  0  0  0
 83168  1  0  0  0
 84169  1  0  0  0
 84170  1  0  0  0
 86171  1  0  0  0
 87172  1  0  0  0
M  CHG  1  86   1
M  ISO  4   1 100  68 101  84 101  87 100
M  END
> <chiral flag>
0

> <version>
0

> <s_m_source_file>
/data/baiqing/PycharmProjects/Reinvent-master-3.2/result/LINK_invent/BTK/process_docking_weight1_custom_sum_contain_oxygen_bond_distance_aromatic_linkinvent_7_9_3/rearranged_h_0040.sdf

> <i_m_source_file_index>
82

> <r_mmod_Potential_Energy-OPLS-2005>
254.857025146484

> <r_mmod_Stretch_Energy-OPLS-2005>
141.799224853516

> <r_mmod_Bend_Energy-OPLS-2005>
253.877975463867

> <r_mmod_Torsional_Energy-OPLS-2005>
258.316192626953

> <r_mmod_Improper_Torsional_Energy-OPLS-2005>
6.14858341217041

> <r_mmod_Van_der_Waal_Energy-OPLS-2005>
112.237953186035

> <r_mmod_Electrostatic_Energy-OPLS-2005>
-185.036010742188

> <r_mmod_Solvation_Energy-OPLS-2005>
-422.244720458984

> <b_mmod_Minimization_Converged-OPLS-2005>
0

> <r_mmod_RMS_Derivative-OPLS-2005>
3.20820093154907

$$$$
82
                    3D
 Structure written by MMmdl.
172180  0  0  1  0            999 V2000
  -30.8785  -14.2164   20.7945 C   0  0  0  0  0  0
  -30.4000  -12.2842   19.3567 C   0  0  0  0  0  0
  -29.4606  -12.5391   18.1711 C   0  0  0  0  0  0
  -27.9960  -12.3777   18.6067 C   0  0  0  0  0  0
  -27.6632  -13.2041   19.8742 C   0  0  2  0  0  0
  -28.7037  -12.9657   20.9906 C   0  0  0  0  0  0
  -25.2593  -13.8169   20.5680 C   0  0  0  0  0  0
  -24.1832  -13.0446   20.9159 C   0  0  0  0  0  0
  -24.6379  -11.6912   20.8723 C   0  0  0  0  0  0
  -23.9049  -10.4296   21.0390 C   0  0  0  0  0  0
  -24.3606   -9.4216   21.9174 C   0  0  0  0  0  0
  -23.6283   -8.2250   22.0753 C   0  0  0  0  0  0
  -22.4264   -8.0280   21.3547 C   0  0  0  0  0  0
  -21.9895   -9.0252   20.4646 C   0  0  0  0  0  0
  -22.7220  -10.2132   20.3047 C   0  0  0  0  0  0
  -21.6851   -6.0735   22.5278 C   0  0  0  0  0  0
  -21.4007   -6.5646   23.8209 C   0  0  0  0  0  0
  -21.3656   -5.6797   24.9170 C   0  0  0  0  0  0
  -21.6040   -4.3059   24.7221 C   0  0  0  0  0  0
  -21.8817   -3.8148   23.4341 C   0  0  0  0  0  0
  -21.9195   -4.6966   22.3400 C   0  0  0  0  0  0
  -22.7856  -13.5243   21.1839 C   0  0  0  0  0  0
  -22.1662   -4.2151   21.0978 F   0  0  0  0  0  0
  -21.5628   -3.4539   25.7731 F   0  0  0  0  0  0
  -30.0548  -13.2017   20.4492 N   0  0  0  0  0  0
  -26.3033  -12.9337   20.3386 N   0  0  0  0  0  0
  -25.9309  -11.6495   20.5766 N   0  0  0  0  0  0
  -22.0508  -12.8229   22.0403 N   0  0  0  0  0  0
  -25.4340  -15.1879   20.4087 N   0  0  0  0  0  0
  -31.7661  -14.6514   20.0554 O   0  0  0  0  0  0
  -21.6635   -6.8873   21.4239 O   0  0  0  0  0  0
  -22.3542  -14.5563   20.6719 O   0  0  0  0  0  0
  -24.6090  -31.8712   23.2137 C   0  0  0  0  0  0
  -25.9008  -32.4838   23.8412 C   0  0  1  0  0  0
  -27.2391  -27.4911   20.0694 C   0  0  0  0  0  0
  -25.5890  -33.8639   24.2347 N   0  0  0  0  0  0
  -23.3944  -30.4932   21.5532 C   0  0  2  0  0  0
  -24.8416  -28.9608   20.1192 C   0  0  0  0  0  0
  -22.7376  -29.4662   22.5019 C   0  0  0  0  0  0
  -18.0258  -28.1373   22.8498 C   0  0  0  0  0  0
  -24.1474  -36.7315   23.2634 C   0  0  0  0  0  0
  -25.9175  -30.8471   21.3623 C   0  0  0  0  0  0
  -25.9969  -29.4827   20.7162 C   0  0  0  0  0  0
  -27.1983  -28.7472   20.7035 C   0  0  0  0  0  0
  -26.0693  -26.9592   19.4889 C   0  0  0  0  0  0
  -24.8679  -27.6922   19.5111 C   0  0  0  0  0  0
  -23.6009  -29.8221   20.1685 C   0  0  0  0  0  0
  -25.4095  -36.3126   24.0347 C   0  0  1  0  0  0
  -20.5844  -28.3642   23.1344 C   0  0  2  0  0  0
  -20.6751  -26.9388   22.5425 C   0  0  0  0  0  0
  -19.5732  -26.6380   21.5218 C   0  0  0  0  0  0
  -18.1908  -26.7923   22.1621 C   0  0  0  0  0  0
  -19.1508  -28.8826   23.2916 C   0  0  0  0  0  0
  -18.9443  -30.1440   23.8910 C   0  0  0  0  0  0
  -17.6447  -30.6583   24.0565 C   0  0  0  0  0  0
  -25.9029  -34.9492   23.5138 C   0  0  0  0  0  0
  -16.5334  -29.9086   23.6332 C   0  0  0  0  0  0
  -16.7248  -28.6506   23.0346 C   0  0  0  0  0  0
  -26.4464  -31.6606   25.0720 C   0  0  0  0  0  0
  -25.3755  -31.3707   26.1490 C   0  0  0  0  0  0
  -27.0272  -30.3047   24.6068 C   0  0  0  0  0  0
  -27.6060  -32.4308   25.7474 C   0  0  0  0  0  0
  -27.5589  -37.1787   24.8452 C   0  0  0  0  0  0
  -21.4110  -29.3017   22.3759 N   0  0  0  0  0  0
  -26.4271  -37.3822   23.9442 N   0  0  0  0  0  0
  -24.6581  -31.0837   22.1025 N   0  0  0  0  0  0
  -23.4174  -28.8212   23.3048 O   0  0  0  0  0  0
  -28.4111  -26.7910   20.0171 O   0  0  0  0  0  0
  -26.5583  -34.8939   22.4695 O   0  0  0  0  0  0
  -23.5294  -32.1451   23.7557 O   0  0  0  0  0  0
  -30.1610  -24.7350   17.7589 C   0  0  0  0  0  0
  -31.1848  -25.8838   19.6520 C   0  0  0  0  0  0
  -30.1539  -25.7859   18.6977 C   0  0  0  0  0  0
  -31.1391  -23.7242   17.8372 C   0  0  0  0  0  0
  -32.1653  -24.8775   19.7403 C   0  0  0  0  0  0
  -32.1064  -23.7680   18.8681 C   0  0  0  0  0  0
  -31.1016  -22.5722   16.8491 C   0  0  0  0  0  0
  -33.2322  -24.9623   20.8156 C   0  0  0  0  0  0
  -29.0148  -26.7802   18.7277 C   0  0  0  0  0  0
  -33.0606  -18.3110   21.5298 C   0  0  0  0  0  0
  -32.1358  -17.2834   22.1903 C   0  0  0  0  0  0
  -32.2847  -19.5658   21.1326 C   0  0  0  0  0  0
  -32.8700  -15.9822   22.5242 C   0  0  0  0  0  0
  -33.1084  -20.5661   20.3127 C   0  0  0  0  0  0
  -31.9410  -14.8515   23.0027 C   0  0  0  0  0  0
  -32.2285  -21.7546   19.9357 C   0  0  0  0  0  0
  -30.8363  -14.4765   22.1098 N   0  0  0  0  0  0
  -32.9094  -22.6853   19.1041 O   0  0  0  0  0  0
  -31.4402  -12.3852   19.0407 H   0  0  0  0  0  0
  -30.2978  -11.2561   19.7069 H   0  0  0  0  0  0
  -29.6857  -11.8503   17.3560 H   0  0  0  0  0  0
  -29.6216  -13.5446   17.7796 H   0  0  0  0  0  0
  -27.8171  -11.3182   18.7937 H   0  0  0  0  0  0
  -27.3287  -12.6588   17.7911 H   0  0  0  0  0  0
  -27.7188  -14.2552   19.5919 H   0  0  0  0  0  0
  -28.6417  -11.9411   21.3602 H   0  0  0  0  0  0
  -28.4688  -13.6105   21.8385 H   0  0  0  0  0  0
  -25.2753   -9.5698   22.4743 H   0  0  0  0  0  0
  -23.9995   -7.4642   22.7473 H   0  0  0  0  0  0
  -21.0828   -8.8759   19.8951 H   0  0  0  0  0  0
  -22.3674  -10.9662   19.6148 H   0  0  0  0  0  0
  -21.1994   -7.6156   23.9706 H   0  0  0  0  0  0
  -21.1474   -6.0532   25.9071 H   0  0  0  0  0  0
  -22.0598   -2.7611   23.2839 H   0  0  0  0  0  0
  -22.4126  -11.9873   22.4756 H   0  0  0  0  0  0
  -21.1133  -13.1251   22.2645 H   0  0  0  0  0  0
  -24.6753  -15.8517   20.5205 H   0  0  0  0  0  0
  -26.3012  -15.6233   20.1185 H   0  0  0  0  0  0
  -26.7074  -32.5567   23.1174 H   0  0  0  0  0  0
  -25.0062  -33.9810   25.0502 H   0  0  0  0  0  0
  -22.6809  -31.3085   21.4154 H   0  0  0  0  0  0
  -23.3771  -35.9606   23.3242 H   0  0  0  0  0  0
  -24.3592  -36.8982   22.2059 H   0  0  0  0  0  0
  -23.7164  -37.6480   23.6674 H   0  0  0  0  0  0
  -26.0218  -31.6106   20.5902 H   0  0  0  0  0  0
  -26.8087  -30.9043   21.9752 H   0  0  0  0  0  0
  -28.0946  -29.1476   21.1570 H   0  0  0  0  0  0
  -26.0932  -25.9880   19.0143 H   0  0  0  0  0  0
  -23.9782  -27.2820   19.0533 H   0  0  0  0  0  0
  -23.7039  -30.5952   19.4064 H   0  0  0  0  0  0
  -22.7271  -29.2366   19.8762 H   0  0  0  0  0  0
  -25.1262  -36.1979   25.0836 H   0  0  0  0  0  0
  -20.9935  -28.3188   24.1464 H   0  0  0  0  0  0
  -20.5660  -26.2244   23.3602 H   0  0  0  0  0  0
  -21.6618  -26.7442   22.1201 H   0  0  0  0  0  0
  -19.6891  -25.6297   21.1232 H   0  0  0  0  0  0
  -19.6686  -27.3207   20.6764 H   0  0  0  0  0  0
  -17.4189  -26.6688   21.4008 H   0  0  0  0  0  0
  -18.0296  -26.0051   22.9000 H   0  0  0  0  0  0
  -19.7923  -30.7255   24.2271 H   0  0  0  0  0  0
  -17.5007  -31.6268   24.5156 H   0  0  0  0  0  0
  -15.5336  -30.2995   23.7660 H   0  0  0  0  0  0
  -15.8644  -28.0843   22.7042 H   0  0  0  0  0  0
  -24.5890  -30.7098   25.7828 H   0  0  0  0  0  0
  -24.8996  -32.2867   26.5004 H   0  0  0  0  0  0
  -25.8119  -30.8816   27.0207 H   0  0  0  0  0  0
  -26.2784  -29.6809   24.1171 H   0  0  0  0  0  0
  -27.4097  -29.7284   25.4500 H   0  0  0  0  0  0
  -27.8604  -30.4360   23.9160 H   0  0  0  0  0  0
  -27.2708  -33.3619   26.2060 H   0  0  0  0  0  0
  -28.3878  -32.6844   25.0299 H   0  0  0  0  0  0
  -28.0717  -31.8417   26.5384 H   0  0  0  0  0  0
  -28.2552  -38.0141   24.7615 H   0  0  0  0  0  0
  -28.1143  -36.2689   24.6127 H   0  0  0  0  0  0
  -27.2338  -37.1244   25.8857 H   0  0  0  0  0  0
  -20.9259  -29.8743   21.6993 H   0  0  0  0  0  0
  -26.0165  -38.2882   24.1530 H   0  0  0  0  0  0
  -29.3835  -24.6745   17.0094 H   0  0  0  0  0  0
  -31.1857  -26.7065   20.3539 H   0  0  0  0  0  0
  -30.7046  -22.8975   15.8870 H   0  0  0  0  0  0
  -30.4680  -21.7681   17.2227 H   0  0  0  0  0  0
  -32.1001  -22.1703   16.6755 H   0  0  0  0  0  0
  -33.4343  -25.9994   21.0845 H   0  0  0  0  0  0
  -34.1679  -24.5206   20.4715 H   0  0  0  0  0  0
  -32.9114  -24.4324   21.7123 H   0  0  0  0  0  0
  -28.2891  -26.5277   17.9526 H   0  0  0  0  0  0
  -29.4014  -27.7733   18.4936 H   0  0  0  0  0  0
  -33.5153  -17.8705   20.6407 H   0  0  0  0  0  0
  -33.8776  -18.5727   22.2041 H   0  0  0  0  0  0
  -31.3065  -17.0757   21.5134 H   0  0  0  0  0  0
  -31.6937  -17.6992   23.0968 H   0  0  0  0  0  0
  -31.8987  -20.0521   22.0300 H   0  0  0  0  0  0
  -31.4111  -19.2716   20.5484 H   0  0  0  0  0  0
  -33.6098  -16.1819   23.3010 H   0  0  0  0  0  0
  -33.4477  -15.6454   21.6631 H   0  0  0  0  0  0
  -33.4882  -20.0871   19.4095 H   0  0  0  0  0  0
  -33.9738  -20.9059   20.8825 H   0  0  0  0  0  0
  -31.5078  -15.1304   23.9640 H   0  0  0  0  0  0
  -32.5368  -13.9574   23.1931 H   0  0  0  0  0  0
  -31.8822  -22.2462   20.8478 H   0  0  0  0  0  0
  -31.3367  -21.3881   19.4245 H   0  0  0  0  0  0
  -30.0464  -14.0544   22.5766 H   0  0  0  0  0  0
  1 25  1  0  0  0
  1 30  2  0  0  0
  1 87  1  0  0  0
  2  3  1  0  0  0
  2 25  1  0  0  0
  2 89  1  0  0  0
  2 90  1  0  0  0
  3  4  1  0  0  0
  3 91  1  0  0  0
  3 92  1  0  0  0
  4  5  1  0  0  0
  4 93  1  0  0  0
  4 94  1  0  0  0
  5  6  1  0  0  0
  5 26  1  0  0  0
  5 95  1  0  0  0
  6 25  1  0  0  0
  6 96  1  0  0  0
  6 97  1  0  0  0
  7  8  2  0  0  0
  7 26  1  0  0  0
  7 29  1  0  0  0
  8  9  1  0  0  0
  8 22  1  0  0  0
  9 10  1  0  0  0
  9 27  2  0  0  0
 10 11  2  0  0  0
 10 15  1  0  0  0
 11 12  1  0  0  0
 11 98  1  0  0  0
 12 13  2  0  0  0
 12 99  1  0  0  0
 13 14  1  0  0  0
 13 31  1  0  0  0
 14 15  2  0  0  0
 14100  1  0  0  0
 15101  1  0  0  0
 16 17  2  0  0  0
 16 21  1  0  0  0
 16 31  1  0  0  0
 17 18  1  0  0  0
 17102  1  0  0  0
 18 19  2  0  0  0
 18103  1  0  0  0
 19 20  1  0  0  0
 19 24  1  0  0  0
 20 21  2  0  0  0
 20104  1  0  0  0
 21 23  1  0  0  0
 22 28  1  0  0  0
 22 32  2  0  0  0
 26 27  1  0  0  0
 28105  1  0  0  0
 28106  1  0  0  0
 29107  1  0  0  0
 29108  1  0  0  0
 33 34  1  0  0  0
 33 66  1  0  0  0
 33 70  2  0  0  0
 34 36  1  0  0  0
 34 59  1  0  0  0
 34109  1  0  0  0
 35 44  2  0  0  0
 35 45  1  0  0  0
 35 68  1  0  0  0
 36 56  1  0  0  0
 36110  1  0  0  0
 37 39  1  0  0  0
 37 47  1  0  0  0
 37 66  1  0  0  0
 37111  1  0  0  0
 38 43  2  0  0  0
 38 46  1  0  0  0
 38 47  1  0  0  0
 39 64  1  0  0  0
 39 67  2  0  0  0
 40 52  1  0  0  0
 40 53  2  0  0  0
 40 58  1  0  0  0
 41112  1  0  0  0
 41113  1  0  0  0
 41114  1  0  0  0
 41 48  1  0  0  0
 42 43  1  0  0  0
 42 66  1  0  0  0
 42115  1  0  0  0
 42116  1  0  0  0
 43 44  1  0  0  0
 44117  1  0  0  0
 45 46  2  0  0  0
 45118  1  0  0  0
 46119  1  0  0  0
 47120  1  0  0  0
 47121  1  0  0  0
 48 56  1  0  0  0
 48 65  1  0  0  0
 48122  1  0  0  0
 49 50  1  0  0  0
 49 53  1  0  0  0
 49 64  1  0  0  0
 49123  1  0  0  0
 50 51  1  0  0  0
 50124  1  0  0  0
 50125  1  0  0  0
 51 52  1  0  0  0
 51126  1  0  0  0
 51127  1  0  0  0
 52128  1  0  0  0
 52129  1  0  0  0
 53 54  1  0  0  0
 54 55  2  0  0  0
 54130  1  0  0  0
 55 57  1  0  0  0
 55131  1  0  0  0
 56 69  2  0  0  0
 57 58  2  0  0  0
 57132  1  0  0  0
 58133  1  0  0  0
 59 60  1  0  0  0
 59 61  1  0  0  0
 59 62  1  0  0  0
 60134  1  0  0  0
 60135  1  0  0  0
 60136  1  0  0  0
 61137  1  0  0  0
 61138  1  0  0  0
 61139  1  0  0  0
 62140  1  0  0  0
 62141  1  0  0  0
 62142  1  0  0  0
 63 65  1  0  0  0
 63143  1  0  0  0
 63144  1  0  0  0
 63145  1  0  0  0
 64146  1  0  0  0
 65147  1  0  0  0
 68 79  1  0  0  0
 71 73  2  0  0  0
 71 74  1  0  0  0
 71148  1  0  0  0
 72 73  1  0  0  0
 72 75  2  0  0  0
 72149  1  0  0  0
 73 79  1  0  0  0
 74 76  2  0  0  0
 74 77  1  0  0  0
 75 76  1  0  0  0
 75 78  1  0  0  0
 76 88  1  0  0  0
 77150  1  0  0  0
 77151  1  0  0  0
 77152  1  0  0  0
 78153  1  0  0  0
 78154  1  0  0  0
 78155  1  0  0  0
 79156  1  0  0  0
 79157  1  0  0  0
 80 81  1  0  0  0
 80 82  1  0  0  0
 80158  1  0  0  0
 80159  1  0  0  0
 81 83  1  0  0  0
 81160  1  0  0  0
 81161  1  0  0  0
 82 84  1  0  0  0
 82162  1  0  0  0
 82163  1  0  0  0
 83 85  1  0  0  0
 83164  1  0  0  0
 83165  1  0  0  0
 84 86  1  0  0  0
 84166  1  0  0  0
 84167  1  0  0  0
 85 87  1  0  0  0
 85168  1  0  0  0
 85169  1  0  0  0
 86 88  1  0  0  0
 86170  1  0  0  0
 86171  1  0  0  0
 87172  1  0  0  0
M  ISO  4   1 100  68 101  79 101  87 100
M  END
> <chiral flag>
0

> <version>
0

> <s_m_source_file>
/data/baiqing/PycharmProjects/Reinvent-master-3.2/result/LINK_invent/BTK/process_docking_weight1_custom_sum_contain_oxygen_bond_distance_aromatic_linkinvent_7_9_3/rearranged_h_0040.sdf

> <i_m_source_file_index>
83

> <r_mmod_Potential_Energy-OPLS-2005>
-20.67799949646

> <r_mmod_Stretch_Energy-OPLS-2005>
29.7169189453125

> <r_mmod_Bend_Energy-OPLS-2005>
87.6211013793945

> <r_mmod_Torsional_Energy-OPLS-2005>
282.770874023438

> <r_mmod_Improper_Torsional_Energy-OPLS-2005>
8.72604370117188

> <r_mmod_Van_der_Waal_Energy-OPLS-2005>
152.297515869141

> <r_mmod_Electrostatic_Energy-OPLS-2005>
-390.034973144531

> <r_mmod_Solvation_Energy-OPLS-2005>
-203.395431518555

> <b_mmod_Minimization_Converged-OPLS-2005>
0

> <r_mmod_RMS_Derivative-OPLS-2005>
1.01443386077881

$$$$
83
                    3D
 Structure written by MMmdl.
157166  0  0  1  0            999 V2000
  -30.6372  -14.6277   20.4713 C   0  0  0  0  0  0
  -30.4266  -12.3743   19.4483 C   0  0  0  0  0  0
  -29.5034  -12.4853   18.2168 C   0  0  0  0  0  0
  -28.0254  -12.3384   18.6324 C   0  0  0  0  0  0
  -27.6499  -13.2201   19.8551 C   0  0  2  0  0  0
  -28.6956  -13.0948   20.9839 C   0  0  0  0  0  0
  -25.2584  -13.8140   20.5708 C   0  0  0  0  0  0
  -24.1876  -13.0415   20.9257 C   0  0  0  0  0  0
  -24.6443  -11.6878   20.8818 C   0  0  0  0  0  0
  -23.9096  -10.4263   21.0451 C   0  0  0  0  0  0
  -24.3616   -9.4157   21.9230 C   0  0  0  0  0  0
  -23.6274   -8.2204   22.0771 C   0  0  0  0  0  0
  -22.4263   -8.0271   21.3554 C   0  0  0  0  0  0
  -21.9919   -9.0263   20.4668 C   0  0  0  0  0  0
  -22.7266  -10.2130   20.3089 C   0  0  0  0  0  0
  -21.6845   -6.0711   22.5279 C   0  0  0  0  0  0
  -21.4017   -6.5620   23.8212 C   0  0  0  0  0  0
  -21.3648   -5.6784   24.9185 C   0  0  0  0  0  0
  -21.6044   -4.3050   24.7254 C   0  0  0  0  0  0
  -21.8817   -3.8122   23.4385 C   0  0  0  0  0  0
  -21.9189   -4.6932   22.3425 C   0  0  0  0  0  0
  -22.7899  -13.5226   21.1854 C   0  0  0  0  0  0
  -22.1647   -4.2104   21.1005 F   0  0  0  0  0  0
  -21.5628   -3.4540   25.7773 F   0  0  0  0  0  0
  -29.9978  -13.4202   20.4000 N   0  0  0  0  0  0
  -26.3000  -12.9331   20.3304 N   0  0  0  0  0  0
  -25.9363  -11.6495   20.5801 N   0  0  0  0  0  0
  -22.0490  -12.8248   22.0380 N   0  0  0  0  0  0
  -25.4276  -15.1829   20.3936 N   0  0  0  0  0  0
  -31.8238  -14.7315   20.1581 O   0  0  0  0  0  0
  -21.6624   -6.8864   21.4245 O   0  0  0  0  0  0
  -22.3629  -14.5552   20.6696 O   0  0  0  0  0  0
  -24.6249  -31.8643   23.2043 C   0  0  0  0  0  0
  -25.9093  -32.4807   23.8361 C   0  0  1  0  0  0
  -27.2273  -27.3385   20.1143 C   0  0  0  0  0  0
  -25.5903  -33.8604   24.2306 N   0  0  0  0  0  0
  -23.4170  -30.4928   21.5457 C   0  0  2  0  0  0
  -24.8610  -28.9426   20.1190 C   0  0  0  0  0  0
  -22.7443  -29.4718   22.4950 C   0  0  0  0  0  0
  -18.0298  -28.1406   22.8394 C   0  0  0  0  0  0
  -24.1479  -36.7304   23.2640 C   0  0  0  0  0  0
  -25.9556  -30.8055   21.3679 C   0  0  0  0  0  0
  -26.0287  -29.4299   20.7144 C   0  0  0  0  0  0
  -27.2121  -28.6383   20.7001 C   0  0  0  0  0  0
  -26.0338  -26.9021   19.4903 C   0  0  0  0  0  0
  -24.8639  -27.6839   19.5002 C   0  0  0  0  0  0
  -23.6304  -29.8220   20.1629 C   0  0  0  0  0  0
  -25.4098  -36.3105   24.0356 C   0  0  1  0  0  0
  -20.5875  -28.3750   23.1291 C   0  0  2  0  0  0
  -20.6774  -26.9496   22.5374 C   0  0  0  0  0  0
  -19.5775  -26.6448   21.5157 C   0  0  0  0  0  0
  -18.1953  -26.7974   22.1501 C   0  0  0  0  0  0
  -19.1510  -28.8861   23.2888 C   0  0  0  0  0  0
  -18.9371  -30.1385   23.9041 C   0  0  0  0  0  0
  -17.6352  -30.6510   24.0674 C   0  0  0  0  0  0
  -25.9041  -34.9467   23.5142 C   0  0  0  0  0  0
  -16.5302  -29.9045   23.6248 C   0  0  0  0  0  0
  -16.7274  -28.6518   23.0202 C   0  0  0  0  0  0
  -26.4487  -31.6588   25.0699 C   0  0  0  0  0  0
  -25.3739  -31.3698   26.1443 C   0  0  0  0  0  0
  -27.0324  -30.3018   24.6104 C   0  0  0  0  0  0
  -27.6071  -32.4309   25.7462 C   0  0  0  0  0  0
  -27.5585  -37.1814   24.8474 C   0  0  0  0  0  0
  -21.4142  -29.3173   22.3720 N   0  0  0  0  0  0
  -26.4286  -37.3798   23.9432 N   0  0  0  0  0  0
  -24.6852  -31.0702   22.0968 N   0  0  0  0  0  0
  -23.4197  -28.8220   23.2980 O   0  0  0  0  0  0
  -28.3835  -26.5484   20.1601 O   0  0  0  0  0  0
  -26.5613  -34.8932   22.4701 O   0  0  0  0  0  0
  -23.5420  -32.1432   23.7370 O   0  0  0  0  0  0
  -29.5513  -21.6679   20.9475 C   0  0  0  0  0  0
  -28.5135  -22.6044   20.9351 C   0  0  0  0  0  0
  -27.6122  -20.5403   20.9338 C   0  0  0  0  0  0
  -27.3002  -18.2008   21.1222 C   0  0  0  0  0  0
  -29.5200  -19.1448   21.0568 C   0  0  0  0  0  0
  -26.7430  -19.4629   21.0029 C   0  0  0  0  0  0
  -28.7149  -17.9990   21.1567 C   0  0  0  0  0  0
  -25.2383  -19.6537   21.0138 C   0  0  0  0  0  0
  -28.6184  -24.1449   21.1160 C   0  0  0  0  0  0
  -29.2454  -16.5507   21.4619 C   0  0  0  0  0  0
  -28.3761  -25.0957   19.8837 C   0  0  0  0  0  0
  -28.9233  -20.4136   20.9623 N   0  0  0  0  0  0
  -27.3299  -21.8479   20.8866 N   0  3  0  0  0  0
  -29.8673  -15.7556   20.3675 N   0  0  0  0  0  0
  -31.4700  -12.4793   19.1483 H   0  0  0  0  0  0
  -30.3467  -11.3845   19.9009 H   0  0  0  0  0  0
  -29.7581  -11.7227   17.4812 H   0  0  0  0  0  0
  -29.6587  -13.4474   17.7263 H   0  0  0  0  0  0
  -27.8578  -11.2892   18.8774 H   0  0  0  0  0  0
  -27.3704  -12.5596   17.7884 H   0  0  0  0  0  0
  -27.6664  -14.2517   19.5012 H   0  0  0  0  0  0
  -28.7063  -12.0860   21.3988 H   0  0  0  0  0  0
  -28.4661  -13.7572   21.8167 H   0  0  0  0  0  0
  -25.2756   -9.5583   22.4823 H   0  0  0  0  0  0
  -23.9947   -7.4582   22.7488 H   0  0  0  0  0  0
  -21.0840   -8.8823   19.8985 H   0  0  0  0  0  0
  -22.3767  -10.9690   19.6202 H   0  0  0  0  0  0
  -21.2016   -7.6127   23.9722 H   0  0  0  0  0  0
  -21.1462   -6.0510   25.9089 H   0  0  0  0  0  0
  -22.0609   -2.7580   23.2919 H   0  0  0  0  0  0
  -22.4068  -11.9922   22.4796 H   0  0  0  0  0  0
  -21.1118  -13.1324   22.2553 H   0  0  0  0  0  0
  -24.5859  -15.7391   20.2979 H   0  0  0  0  0  0
  -26.1796  -15.4983   19.7947 H   0  0  0  0  0  0
  -26.7151  -32.5496   23.1121 H   0  0  0  0  0  0
  -25.0034  -33.9749   25.0440 H   0  0  0  0  0  0
  -22.7162  -31.3190   21.3984 H   0  0  0  0  0  0
  -23.3749  -35.9633   23.3296 H   0  0  0  0  0  0
  -24.3587  -36.8923   22.2058 H   0  0  0  0  0  0
  -23.7224  -37.6503   23.6652 H   0  0  0  0  0  0
  -26.0759  -31.5642   20.5928 H   0  0  0  0  0  0
  -26.8404  -30.8662   21.9902 H   0  0  0  0  0  0
  -28.1109  -29.0158   21.1670 H   0  0  0  0  0  0
  -25.9576  -25.9575   18.9756 H   0  0  0  0  0  0
  -23.9681  -27.3109   19.0223 H   0  0  0  0  0  0
  -23.7539  -30.5950   19.4039 H   0  0  0  0  0  0
  -22.7505  -29.2539   19.8543 H   0  0  0  0  0  0
  -25.1279  -36.1980   25.0859 H   0  0  0  0  0  0
  -21.0010  -28.3335   24.1387 H   0  0  0  0  0  0
  -20.5816  -26.2346   23.3555 H   0  0  0  0  0  0
  -21.6579  -26.7596   22.1009 H   0  0  0  0  0  0
  -19.6983  -25.6368   21.1167 H   0  0  0  0  0  0
  -19.6755  -27.3258   20.6680 H   0  0  0  0  0  0
  -17.4280  -26.6733   21.3831 H   0  0  0  0  0  0
  -18.0386  -26.0069   22.8875 H   0  0  0  0  0  0
  -19.7779  -30.7153   24.2673 H   0  0  0  0  0  0
  -17.4838  -31.6095   24.5447 H   0  0  0  0  0  0
  -15.5302  -30.2951   23.7499 H   0  0  0  0  0  0
  -15.8679  -28.0893   22.6777 H   0  0  0  0  0  0
  -24.5938  -30.7024   25.7771 H   0  0  0  0  0  0
  -24.8883  -32.2834   26.4869 H   0  0  0  0  0  0
  -25.8079  -30.8884   27.0214 H   0  0  0  0  0  0
  -26.2857  -29.6779   24.1169 H   0  0  0  0  0  0
  -27.4092  -29.7280   25.4582 H   0  0  0  0  0  0
  -27.8703  -30.4333   23.9254 H   0  0  0  0  0  0
  -27.2704  -33.3629   26.2022 H   0  0  0  0  0  0
  -28.3861  -32.6845   25.0258 H   0  0  0  0  0  0
  -28.0737  -31.8423   26.5379 H   0  0  0  0  0  0
  -28.2613  -38.0096   24.7530 H   0  0  0  0  0  0
  -28.1062  -36.2645   24.6279 H   0  0  0  0  0  0
  -27.2314  -37.1446   25.8874 H   0  0  0  0  0  0
  -20.9322  -29.8929   21.6933 H   0  0  0  0  0  0
  -26.0177  -38.2889   24.1393 H   0  0  0  0  0  0
  -30.6284  -21.8081   21.0017 H   0  0  0  0  0  0
  -26.6314  -17.3520   21.2380 H   0  0  0  0  0  0
  -30.6058  -19.1201   21.1182 H   0  0  0  0  0  0
  -24.9479  -20.6276   20.6174 H   0  0  0  0  0  0
  -24.8529  -19.5767   22.0313 H   0  0  0  0  0  0
  -24.7443  -18.8924   20.4088 H   0  0  0  0  0  0
  -29.5851  -24.3942   21.5557 H   0  0  0  0  0  0
  -27.8989  -24.4349   21.8805 H   0  0  0  0  0  0
  -28.3936  -15.9742   21.8277 H   0  0  0  0  0  0
  -29.9306  -16.6005   22.3085 H   0  0  0  0  0  0
  -27.4938  -24.7433   19.3642 H   0  0  0  0  0  0
  -29.1876  -24.9110   19.1781 H   0  0  0  0  0  0
  -26.3917  -22.2343   20.8867 H   0  0  0  0  0  0
  -30.2961  -16.3820   19.7010 H   0  0  0  0  0  0
  1 25  1  0  0  0
  1 30  2  0  0  0
  1 84  1  0  0  0
  2  3  1  0  0  0
  2 25  1  0  0  0
  2 85  1  0  0  0
  2 86  1  0  0  0
  3  4  1  0  0  0
  3 87  1  0  0  0
  3 88  1  0  0  0
  4  5  1  0  0  0
  4 89  1  0  0  0
  4 90  1  0  0  0
  5  6  1  0  0  0
  5 26  1  0  0  0
  5 91  1  0  0  0
  6 25  1  0  0  0
  6 92  1  0  0  0
  6 93  1  0  0  0
  7  8  2  0  0  0
  7 26  1  0  0  0
  7 29  1  0  0  0
  8  9  1  0  0  0
  8 22  1  0  0  0
  9 10  1  0  0  0
  9 27  2  0  0  0
 10 11  2  0  0  0
 10 15  1  0  0  0
 11 12  1  0  0  0
 11 94  1  0  0  0
 12 13  2  0  0  0
 12 95  1  0  0  0
 13 14  1  0  0  0
 13 31  1  0  0  0
 14 15  2  0  0  0
 14 96  1  0  0  0
 15 97  1  0  0  0
 16 17  2  0  0  0
 16 21  1  0  0  0
 16 31  1  0  0  0
 17 18  1  0  0  0
 17 98  1  0  0  0
 18 19  2  0  0  0
 18 99  1  0  0  0
 19 20  1  0  0  0
 19 24  1  0  0  0
 20 21  2  0  0  0
 20100  1  0  0  0
 21 23  1  0  0  0
 22 28  1  0  0  0
 22 32  2  0  0  0
 26 27  1  0  0  0
 28101  1  0  0  0
 28102  1  0  0  0
 29103  1  0  0  0
 29104  1  0  0  0
 33 34  1  0  0  0
 33 66  1  0  0  0
 33 70  2  0  0  0
 34 36  1  0  0  0
 34 59  1  0  0  0
 34105  1  0  0  0
 35 44  2  0  0  0
 35 45  1  0  0  0
 35 68  1  0  0  0
 36 56  1  0  0  0
 36106  1  0  0  0
 37 39  1  0  0  0
 37 47  1  0  0  0
 37 66  1  0  0  0
 37107  1  0  0  0
 38 43  2  0  0  0
 38 46  1  0  0  0
 38 47  1  0  0  0
 39 64  1  0  0  0
 39 67  2  0  0  0
 40 52  1  0  0  0
 40 53  2  0  0  0
 40 58  1  0  0  0
 41108  1  0  0  0
 41109  1  0  0  0
 41110  1  0  0  0
 41 48  1  0  0  0
 42 43  1  0  0  0
 42 66  1  0  0  0
 42111  1  0  0  0
 42112  1  0  0  0
 43 44  1  0  0  0
 44113  1  0  0  0
 45 46  2  0  0  0
 45114  1  0  0  0
 46115  1  0  0  0
 47116  1  0  0  0
 47117  1  0  0  0
 48 56  1  0  0  0
 48 65  1  0  0  0
 48118  1  0  0  0
 49 50  1  0  0  0
 49 53  1  0  0  0
 49 64  1  0  0  0
 49119  1  0  0  0
 50 51  1  0  0  0
 50120  1  0  0  0
 50121  1  0  0  0
 51 52  1  0  0  0
 51122  1  0  0  0
 51123  1  0  0  0
 52124  1  0  0  0
 52125  1  0  0  0
 53 54  1  0  0  0
 54 55  2  0  0  0
 54126  1  0  0  0
 55 57  1  0  0  0
 55127  1  0  0  0
 56 69  2  0  0  0
 57 58  2  0  0  0
 57128  1  0  0  0
 58129  1  0  0  0
 59 60  1  0  0  0
 59 61  1  0  0  0
 59 62  1  0  0  0
 60130  1  0  0  0
 60131  1  0  0  0
 60132  1  0  0  0
 61133  1  0  0  0
 61134  1  0  0  0
 61135  1  0  0  0
 62136  1  0  0  0
 62137  1  0  0  0
 62138  1  0  0  0
 63 65  1  0  0  0
 63139  1  0  0  0
 63140  1  0  0  0
 63141  1  0  0  0
 64142  1  0  0  0
 65143  1  0  0  0
 68 81  1  0  0  0
 71 72  2  0  0  0
 71 82  1  0  0  0
 71144  1  0  0  0
 72 79  1  0  0  0
 72 83  1  0  0  0
 73 76  1  0  0  0
 73 82  1  0  0  0
 73 83  2  0  0  0
 74 76  2  0  0  0
 74 77  1  0  0  0
 74145  1  0  0  0
 75 77  2  0  0  0
 75 82  1  0  0  0
 75146  1  0  0  0
 76 78  1  0  0  0
 77 80  1  0  0  0
 78147  1  0  0  0
 78148  1  0  0  0
 78149  1  0  0  0
 79 81  1  0  0  0
 79150  1  0  0  0
 79151  1  0  0  0
 80 84  1  0  0  0
 80152  1  0  0  0
 80153  1  0  0  0
 81154  1  0  0  0
 81155  1  0  0  0
 83156  1  0  0  0
 84157  1  0  0  0
M  CHG  1  83   1
M  ISO  4   1 100  68 101  81 101  84 100
M  END
> <chiral flag>
0

> <version>
0

> <s_m_source_file>
/data/baiqing/PycharmProjects/Reinvent-master-3.2/result/LINK_invent/BTK/process_docking_weight1_custom_sum_contain_oxygen_bond_distance_aromatic_linkinvent_7_9_3/rearranged_h_0040.sdf

> <i_m_source_file_index>
84

> <r_mmod_Potential_Energy-OPLS-2005>
40.6369857788086

> <r_mmod_Stretch_Energy-OPLS-2005>
70.4918899536133

> <r_mmod_Bend_Energy-OPLS-2005>
169.024887084961

> <r_mmod_Torsional_Energy-OPLS-2005>
274.343414306641

> <r_mmod_Improper_Torsional_Energy-OPLS-2005>
25.9504737854004

> <r_mmod_Van_der_Waal_Energy-OPLS-2005>
139.205184936523

> <r_mmod_Electrostatic_Energy-OPLS-2005>
-275.033721923828

> <r_mmod_Solvation_Energy-OPLS-2005>
-406.239685058594

> <b_mmod_Minimization_Converged-OPLS-2005>
0

> <r_mmod_RMS_Derivative-OPLS-2005>
5.02355480194092

$$$$
84
                    3D
 Structure written by MMmdl.
153161  0  0  1  0            999 V2000
  -30.5119  -14.9570   20.3548 C   0  0  0  0  0  0
  -30.4503  -12.5703   19.5120 C   0  0  0  0  0  0
  -29.5333  -12.4981   18.2659 C   0  0  0  0  0  0
  -28.0576  -12.3073   18.6726 C   0  0  0  0  0  0
  -27.6290  -13.2381   19.8371 C   0  0  2  0  0  0
  -28.6735  -13.2746   20.9704 C   0  0  0  0  0  0
  -25.2482  -13.8179   20.5724 C   0  0  0  0  0  0
  -24.1783  -13.0421   20.9227 C   0  0  0  0  0  0
  -24.6385  -11.6902   20.8757 C   0  0  0  0  0  0
  -23.9064  -10.4283   21.0413 C   0  0  0  0  0  0
  -24.3618   -9.4198   21.9188 C   0  0  0  0  0  0
  -23.6292   -8.2235   22.0755 C   0  0  0  0  0  0
  -22.4274   -8.0277   21.3546 C   0  0  0  0  0  0
  -21.9910   -9.0250   20.4647 C   0  0  0  0  0  0
  -22.7239  -10.2128   20.3058 C   0  0  0  0  0  0
  -21.6851   -6.0733   22.5280 C   0  0  0  0  0  0
  -21.4013   -6.5638   23.8213 C   0  0  0  0  0  0
  -21.3659   -5.6792   24.9175 C   0  0  0  0  0  0
  -21.6044   -4.3054   24.7226 C   0  0  0  0  0  0
  -21.8820   -3.8146   23.4348 C   0  0  0  0  0  0
  -21.9193   -4.6961   22.3403 C   0  0  0  0  0  0
  -22.7806  -13.5206   21.1881 C   0  0  0  0  0  0
  -22.1662   -4.2147   21.0980 F   0  0  0  0  0  0
  -21.5629   -3.4538   25.7739 F   0  0  0  0  0  0
  -29.9608  -13.6739   20.3858 N   0  0  0  0  0  0
  -26.2890  -12.9381   20.3257 N   0  0  0  0  0  0
  -25.9315  -11.6526   20.5750 N   0  0  0  0  0  0
  -22.0452  -12.8197   22.0435 N   0  0  0  0  0  0
  -25.4166  -15.1912   20.4170 N   0  0  0  0  0  0
  -31.7331  -15.0116   20.1610 O   0  0  0  0  0  0
  -21.6637   -6.8875   21.4241 O   0  0  0  0  0  0
  -22.3495  -14.5512   20.6725 O   0  0  0  0  0  0
  -24.6428  -31.8442   23.1884 C   0  0  0  0  0  0
  -25.9201  -32.4696   23.8272 C   0  0  1  0  0  0
  -27.2205  -27.1424   20.1520 C   0  0  0  0  0  0
  -25.5950  -33.8502   24.2189 N   0  0  0  0  0  0
  -23.4463  -30.4633   21.5338 C   0  0  2  0  0  0
  -24.8968  -28.8910   20.1098 C   0  0  0  0  0  0
  -22.7565  -29.4546   22.4861 C   0  0  0  0  0  0
  -18.0304  -28.1395   22.8477 C   0  0  0  0  0  0
  -24.1491  -36.7257   23.2643 C   0  0  0  0  0  0
  -26.0017  -30.7202   21.3863 C   0  0  0  0  0  0
  -26.0736  -29.3320   20.7279 C   0  0  0  0  0  0
  -27.2362  -28.4741   20.7313 C   0  0  0  0  0  0
  -26.0173  -26.8016   19.4941 C   0  0  0  0  0  0
  -24.8813  -27.6391   19.4772 C   0  0  0  0  0  0
  -23.6726  -29.7919   20.1531 C   0  0  0  0  0  0
  -25.4124  -36.3033   24.0315 C   0  0  1  0  0  0
  -20.5916  -28.3720   23.1236 C   0  0  2  0  0  0
  -20.6788  -26.9424   22.5404 C   0  0  0  0  0  0
  -19.5762  -26.6381   21.5212 C   0  0  0  0  0  0
  -18.1944  -26.7933   22.1623 C   0  0  0  0  0  0
  -19.1560  -28.8876   23.2849 C   0  0  0  0  0  0
  -18.9477  -30.1472   23.8873 C   0  0  0  0  0  0
  -17.6474  -30.6591   24.0559 C   0  0  0  0  0  0
  -25.9073  -34.9408   23.5062 C   0  0  0  0  0  0
  -16.5365  -29.9083   23.6336 C   0  0  0  0  0  0
  -16.7289  -28.6503   23.0356 C   0  0  0  0  0  0
  -26.4525  -31.6565   25.0714 C   0  0  0  0  0  0
  -25.3709  -31.3753   26.1409 C   0  0  0  0  0  0
  -27.0394  -30.2962   24.6296 C   0  0  0  0  0  0
  -27.6052  -32.4334   25.7502 C   0  0  0  0  0  0
  -27.5576  -37.1785   24.8466 C   0  0  0  0  0  0
  -21.4258  -29.3047   22.3610 N   0  0  0  0  0  0
  -26.4288  -37.3745   23.9407 N   0  0  0  0  0  0
  -24.7167  -31.0303   22.0914 N   0  0  0  0  0  0
  -23.4209  -28.8097   23.3013 O   0  0  0  0  0  0
  -28.2759  -26.1617   20.2304 O   0  0  0  0  0  0
  -26.5660  -34.8905   22.4642 O   0  0  0  0  0  0
  -23.5548  -32.1316   23.7107 O   0  0  0  0  0  0
  -30.8247  -20.6186   21.0805 C   0  0  0  0  0  0
  -31.2846  -18.1992   21.1128 C   0  0  0  0  0  0
  -31.6718  -19.5300   21.3752 C   0  0  0  0  0  0
  -29.5572  -20.4016   20.5189 C   0  0  0  0  0  0
  -30.0290  -17.9184   20.5483 C   0  0  0  0  0  0
  -29.1946  -16.4149   18.7080 C   0  0  0  0  0  0
  -28.6100  -21.7063   20.1815 C   0  0  0  0  0  0
  -29.0058  -23.3313   20.4165 C   0  0  0  0  0  0
  -28.0011  -24.6382   20.0618 C   0  0  0  0  0  0
  -29.5998  -16.3593   20.1967 C   0  0  1  0  0  0
  -29.1923  -19.0466   20.2813 N   0  0  0  0  0  0
  -32.8899  -19.7692   21.9165 F   0  0  0  0  0  0
  -31.4852  -12.7249   19.2027 H   0  0  0  0  0  0
  -30.4407  -11.6230   20.0535 H   0  0  0  0  0  0
  -29.8466  -11.6775   17.6193 H   0  0  0  0  0  0
  -29.6449  -13.4033   17.6702 H   0  0  0  0  0  0
  -27.9381  -11.2666   18.9760 H   0  0  0  0  0  0
  -27.4035  -12.4485   17.8114 H   0  0  0  0  0  0
  -27.5738  -14.2358   19.4128 H   0  0  0  0  0  0
  -28.7532  -12.3027   21.4597 H   0  0  0  0  0  0
  -28.3741  -13.9832   21.7440 H   0  0  0  0  0  0
  -25.2762   -9.5674   22.4764 H   0  0  0  0  0  0
  -24.0001   -7.4624   22.7472 H   0  0  0  0  0  0
  -21.0843   -8.8769   19.8952 H   0  0  0  0  0  0
  -22.3699  -10.9669   19.6170 H   0  0  0  0  0  0
  -21.2004   -7.6147   23.9715 H   0  0  0  0  0  0
  -21.1481   -6.0522   25.9078 H   0  0  0  0  0  0
  -22.0600   -2.7608   23.2848 H   0  0  0  0  0  0
  -22.4073  -11.9863   22.4826 H   0  0  0  0  0  0
  -21.1069  -13.1220   22.2641 H   0  0  0  0  0  0
  -24.6487  -15.8432   20.5344 H   0  0  0  0  0  0
  -26.2658  -15.6364   20.0944 H   0  0  0  0  0  0
  -26.7268  -32.5305   23.1002 H   0  0  0  0  0  0
  -25.0071  -33.9617   25.0319 H   0  0  0  0  0  0
  -22.7485  -31.2890   21.3793 H   0  0  0  0  0  0
  -23.3758  -35.9585   23.3293 H   0  0  0  0  0  0
  -24.3576  -36.8902   22.2060 H   0  0  0  0  0  0
  -23.7243  -37.6448   23.6688 H   0  0  0  0  0  0
  -26.1566  -31.4752   20.6143 H   0  0  0  0  0  0
  -26.8723  -30.7703   22.0288 H   0  0  0  0  0  0
  -28.1319  -28.8064   21.2371 H   0  0  0  0  0  0
  -25.9199  -25.8444   19.0047 H   0  0  0  0  0  0
  -23.9831  -27.2962   18.9821 H   0  0  0  0  0  0
  -23.8079  -30.5661   19.3969 H   0  0  0  0  0  0
  -22.7877  -29.2329   19.8434 H   0  0  0  0  0  0
  -25.1313  -36.1861   25.0807 H   0  0  0  0  0  0
  -21.0007  -28.3309   24.1358 H   0  0  0  0  0  0
  -20.5680  -26.2333   23.3623 H   0  0  0  0  0  0
  -21.6654  -26.7429   22.1203 H   0  0  0  0  0  0
  -19.6923  -25.6285   21.1257 H   0  0  0  0  0  0
  -19.6698  -27.3177   20.6731 H   0  0  0  0  0  0
  -17.4212  -26.6675   21.4029 H   0  0  0  0  0  0
  -18.0345  -26.0081   22.9027 H   0  0  0  0  0  0
  -19.7953  -30.7295   24.2231 H   0  0  0  0  0  0
  -17.5026  -31.6269   24.5165 H   0  0  0  0  0  0
  -15.5363  -30.2977   23.7674 H   0  0  0  0  0  0
  -15.8689  -28.0813   22.7084 H   0  0  0  0  0  0
  -24.5893  -30.7097   25.7728 H   0  0  0  0  0  0
  -24.8893  -32.2934   26.4782 H   0  0  0  0  0  0
  -25.7991  -30.8959   27.0221 H   0  0  0  0  0  0
  -26.3013  -29.6681   24.1295 H   0  0  0  0  0  0
  -27.3999  -29.7266   25.4872 H   0  0  0  0  0  0
  -27.8923  -30.4201   23.9620 H   0  0  0  0  0  0
  -27.2641  -33.3652   26.2027 H   0  0  0  0  0  0
  -28.3891  -32.6868   25.0353 H   0  0  0  0  0  0
  -28.0689  -31.8496   26.5464 H   0  0  0  0  0  0
  -28.2586  -38.0089   24.7511 H   0  0  0  0  0  0
  -28.1079  -36.2617   24.6295 H   0  0  0  0  0  0
  -27.2292  -37.1435   25.8868 H   0  0  0  0  0  0
  -20.9468  -29.8758   21.6787 H   0  0  0  0  0  0
  -26.0154  -38.2814   24.1408 H   0  0  0  0  0  0
  -31.1629  -21.6228   21.2896 H   0  0  0  0  0  0
  -31.9723  -17.3980   21.3406 H   0  0  0  0  0  0
  -28.3211  -17.0508   18.5651 H   0  0  0  0  0  0
  -28.9556  -15.4453   18.2822 H   0  0  0  0  0  0
  -30.0044  -16.8303   18.1076 H   0  0  0  0  0  0
  -27.6787  -21.5308   20.7198 H   0  0  0  0  0  0
  -28.3422  -21.6005   19.1303 H   0  0  0  0  0  0
  -29.9352  -23.5013   19.8733 H   0  0  0  0  0  0
  -29.2776  -23.4303   21.4673 H   0  0  0  0  0  0
  -27.0798  -24.4479   20.6137 H   0  0  0  0  0  0
  -27.7323  -24.5124   19.0129 H   0  0  0  0  0  0
  -28.7014  -16.1760   20.7851 H   0  0  0  0  0  0
  1 25  1  0  0  0
  1 30  2  0  0  0
  1 80  1  0  0  0
  2  3  1  0  0  0
  2 25  1  0  0  0
  2 83  1  0  0  0
  2 84  1  0  0  0
  3  4  1  0  0  0
  3 85  1  0  0  0
  3 86  1  0  0  0
  4  5  1  0  0  0
  4 87  1  0  0  0
  4 88  1  0  0  0
  5  6  1  0  0  0
  5 26  1  0  0  0
  5 89  1  0  0  0
  6 25  1  0  0  0
  6 90  1  0  0  0
  6 91  1  0  0  0
  7  8  2  0  0  0
  7 26  1  0  0  0
  7 29  1  0  0  0
  8  9  1  0  0  0
  8 22  1  0  0  0
  9 10  1  0  0  0
  9 27  2  0  0  0
 10 11  2  0  0  0
 10 15  1  0  0  0
 11 12  1  0  0  0
 11 92  1  0  0  0
 12 13  2  0  0  0
 12 93  1  0  0  0
 13 14  1  0  0  0
 13 31  1  0  0  0
 14 15  2  0  0  0
 14 94  1  0  0  0
 15 95  1  0  0  0
 16 17  2  0  0  0
 16 21  1  0  0  0
 16 31  1  0  0  0
 17 18  1  0  0  0
 17 96  1  0  0  0
 18 19  2  0  0  0
 18 97  1  0  0  0
 19 20  1  0  0  0
 19 24  1  0  0  0
 20 21  2  0  0  0
 20 98  1  0  0  0
 21 23  1  0  0  0
 22 28  1  0  0  0
 22 32  2  0  0  0
 26 27  1  0  0  0
 28 99  1  0  0  0
 28100  1  0  0  0
 29101  1  0  0  0
 29102  1  0  0  0
 33 34  1  0  0  0
 33 66  1  0  0  0
 33 70  2  0  0  0
 34 36  1  0  0  0
 34 59  1  0  0  0
 34103  1  0  0  0
 35 44  2  0  0  0
 35 45  1  0  0  0
 35 68  1  0  0  0
 36 56  1  0  0  0
 36104  1  0  0  0
 37 39  1  0  0  0
 37 47  1  0  0  0
 37 66  1  0  0  0
 37105  1  0  0  0
 38 43  2  0  0  0
 38 46  1  0  0  0
 38 47  1  0  0  0
 39 64  1  0  0  0
 39 67  2  0  0  0
 40 52  1  0  0  0
 40 53  2  0  0  0
 40 58  1  0  0  0
 41106  1  0  0  0
 41107  1  0  0  0
 41108  1  0  0  0
 41 48  1  0  0  0
 42 43  1  0  0  0
 42 66  1  0  0  0
 42109  1  0  0  0
 42110  1  0  0  0
 43 44  1  0  0  0
 44111  1  0  0  0
 45 46  2  0  0  0
 45112  1  0  0  0
 46113  1  0  0  0
 47114  1  0  0  0
 47115  1  0  0  0
 48 56  1  0  0  0
 48 65  1  0  0  0
 48116  1  0  0  0
 49 50  1  0  0  0
 49 53  1  0  0  0
 49 64  1  0  0  0
 49117  1  0  0  0
 50 51  1  0  0  0
 50118  1  0  0  0
 50119  1  0  0  0
 51 52  1  0  0  0
 51120  1  0  0  0
 51121  1  0  0  0
 52122  1  0  0  0
 52123  1  0  0  0
 53 54  1  0  0  0
 54 55  2  0  0  0
 54124  1  0  0  0
 55 57  1  0  0  0
 55125  1  0  0  0
 56 69  2  0  0  0
 57 58  2  0  0  0
 57126  1  0  0  0
 58127  1  0  0  0
 59 60  1  0  0  0
 59 61  1  0  0  0
 59 62  1  0  0  0
 60128  1  0  0  0
 60129  1  0  0  0
 60130  1  0  0  0
 61131  1  0  0  0
 61132  1  0  0  0
 61133  1  0  0  0
 62134  1  0  0  0
 62135  1  0  0  0
 62136  1  0  0  0
 63 65  1  0  0  0
 63137  1  0  0  0
 63138  1  0  0  0
 63139  1  0  0  0
 64140  1  0  0  0
 65141  1  0  0  0
 68 79  1  0  0  0
 71 73  2  0  0  0
 71 74  1  0  0  0
 71142  1  0  0  0
 72 73  1  0  0  0
 72 75  2  0  0  0
 72143  1  0  0  0
 73 82  1  0  0  0
 74 77  1  0  0  0
 74 81  2  0  0  0
 75 80  1  0  0  0
 75 81  1  0  0  0
 76144  1  0  0  0
 76145  1  0  0  0
 76146  1  0  0  0
 76 80  1  0  0  0
 77 78  1  0  0  0
 77147  1  0  0  0
 77148  1  0  0  0
 78 79  1  0  0  0
 78149  1  0  0  0
 78150  1  0  0  0
 79151  1  0  0  0
 79152  1  0  0  0
 80153  1  0  0  0
M  ISO  4   1 100  68 101  79 101  80 100
M  END
> <chiral flag>
0

> <version>
0

> <s_m_source_file>
/data/baiqing/PycharmProjects/Reinvent-master-3.2/result/LINK_invent/BTK/process_docking_weight1_custom_sum_contain_oxygen_bond_distance_aromatic_linkinvent_7_9_3/rearranged_h_0040.sdf

> <i_m_source_file_index>
85

> <r_mmod_Potential_Energy-OPLS-2005>
364.203216552734

> <r_mmod_Stretch_Energy-OPLS-2005>
264.908721923828

> <r_mmod_Bend_Energy-OPLS-2005>
252.455718994141

> <r_mmod_Torsional_Energy-OPLS-2005>
192.39143371582

> <r_mmod_Improper_Torsional_Energy-OPLS-2005>
8.25023746490479

> <r_mmod_Van_der_Waal_Energy-OPLS-2005>
128.973419189453

> <r_mmod_Electrostatic_Energy-OPLS-2005>
-474.642578125

> <r_mmod_Solvation_Energy-OPLS-2005>
-202.787109375

> <b_mmod_Minimization_Converged-OPLS-2005>
0

> <r_mmod_RMS_Derivative-OPLS-2005>
0.201021134853363

$$$$
85
                    3D
 Structure written by MMmdl.
161169  0  0  1  0            999 V2000
  -30.6227  -14.5642   20.5588 C   0  0  0  0  0  0
  -30.4370  -12.3604   19.4224 C   0  0  0  0  0  0
  -29.5007  -12.5104   18.2029 C   0  0  0  0  0  0
  -28.0218  -12.3488   18.6140 C   0  0  0  0  0  0
  -27.6545  -13.1981   19.8605 C   0  0  2  0  0  0
  -28.6960  -12.9970   20.9819 C   0  0  0  0  0  0
  -25.2588  -13.8125   20.5624 C   0  0  0  0  0  0
  -24.1832  -13.0412   20.9143 C   0  0  0  0  0  0
  -24.6371  -11.6881   20.8690 C   0  0  0  0  0  0
  -23.9039  -10.4275   21.0388 C   0  0  0  0  0  0
  -24.3601   -9.4206   21.9174 C   0  0  0  0  0  0
  -23.6281   -8.2242   22.0762 C   0  0  0  0  0  0
  -22.4265   -8.0265   21.3552 C   0  0  0  0  0  0
  -21.9892   -9.0233   20.4654 C   0  0  0  0  0  0
  -22.7210  -10.2115   20.3048 C   0  0  0  0  0  0
  -21.6851   -6.0720   22.5276 C   0  0  0  0  0  0
  -21.4019   -6.5633   23.8204 C   0  0  0  0  0  0
  -21.3659   -5.6790   24.9169 C   0  0  0  0  0  0
  -21.6042   -4.3053   24.7224 C   0  0  0  0  0  0
  -21.8821   -3.8137   23.4351 C   0  0  0  0  0  0
  -21.9196   -4.6950   22.3401 C   0  0  0  0  0  0
  -22.7867  -13.5242   21.1806 C   0  0  0  0  0  0
  -22.1662   -4.2131   21.0980 F   0  0  0  0  0  0
  -21.5629   -3.4543   25.7744 F   0  0  0  0  0  0
  -30.0131  -13.3498   20.4275 N   0  0  0  0  0  0
  -26.2982  -12.9260   20.3262 N   0  0  0  0  0  0
  -25.9288  -11.6435   20.5699 N   0  0  0  0  0  0
  -22.0513  -12.8237   22.0373 N   0  0  0  0  0  0
  -25.4337  -15.1833   20.4043 N   0  0  0  0  0  0
  -31.7761  -14.7735   20.1728 O   0  0  0  0  0  0
  -21.6635   -6.8860   21.4238 O   0  0  0  0  0  0
  -22.3561  -14.5542   20.6650 O   0  0  0  0  0  0
  -24.6163  -31.8657   23.2110 C   0  0  0  0  0  0
  -25.9033  -32.4815   23.8414 C   0  0  1  0  0  0
  -27.2239  -27.3684   20.1035 C   0  0  0  0  0  0
  -25.5889  -33.8617   24.2335 N   0  0  0  0  0  0
  -23.4105  -30.4871   21.5523 C   0  0  2  0  0  0
  -24.8552  -28.9532   20.1141 C   0  0  0  0  0  0
  -22.7438  -29.4620   22.4989 C   0  0  0  0  0  0
  -18.0290  -28.1336   22.8512 C   0  0  0  0  0  0
  -24.1484  -36.7297   23.2644 C   0  0  0  0  0  0
  -25.9442  -30.8077   21.3784 C   0  0  0  0  0  0
  -26.0185  -29.4398   20.7197 C   0  0  0  0  0  0
  -27.2010  -28.6535   20.7132 C   0  0  0  0  0  0
  -26.0405  -26.9293   19.4618 C   0  0  0  0  0  0
  -24.8629  -27.7001   19.4832 C   0  0  0  0  0  0
  -23.6217  -29.8267   20.1659 C   0  0  0  0  0  0
  -25.4109  -36.3112   24.0347 C   0  0  1  0  0  0
  -20.5879  -28.3631   23.1315 C   0  0  2  0  0  0
  -20.6761  -26.9362   22.5417 C   0  0  0  0  0  0
  -19.5734  -26.6351   21.5217 C   0  0  0  0  0  0
  -18.1917  -26.7886   22.1630 C   0  0  0  0  0  0
  -19.1540  -28.8803   23.2909 C   0  0  0  0  0  0
  -18.9462  -30.1410   23.8914 C   0  0  0  0  0  0
  -17.6460  -30.6553   24.0539 C   0  0  0  0  0  0
  -25.9035  -34.9472   23.5141 C   0  0  0  0  0  0
  -16.5355  -29.9040   23.6319 C   0  0  0  0  0  0
  -16.7276  -28.6447   23.0372 C   0  0  0  0  0  0
  -26.4459  -31.6612   25.0750 C   0  0  0  0  0  0
  -25.3717  -31.3706   26.1493 C   0  0  0  0  0  0
  -27.0291  -30.3052   24.6138 C   0  0  0  0  0  0
  -27.6053  -32.4332   25.7488 C   0  0  0  0  0  0
  -27.5587  -37.1794   24.8468 C   0  0  0  0  0  0
  -21.4162  -29.3007   22.3716 N   0  0  0  0  0  0
  -26.4303  -37.3789   23.9415 N   0  0  0  0  0  0
  -24.6755  -31.0682   22.1059 N   0  0  0  0  0  0
  -23.4173  -28.8160   23.3056 O   0  0  0  0  0  0
  -28.3841  -26.5939   20.1569 O   0  0  0  0  0  0
  -26.5600  -34.8921   22.4705 O   0  0  0  0  0  0
  -23.5334  -32.1477   23.7443 O   0  0  0  0  0  0
  -30.0393  -22.4472   23.0320 C   0  0  0  0  0  0
  -30.4585  -20.2913   24.0152 C   0  0  0  0  0  0
  -30.4196  -21.6834   24.1453 C   0  0  0  0  0  0
  -29.6583  -21.8115   21.8247 C   0  0  0  0  0  0
  -29.7338  -20.3697   21.7937 C   0  0  0  0  0  0
  -30.7604  -22.3481   25.4670 C   0  0  0  0  0  0
  -29.1464  -22.7068   20.6571 C   0  0  0  0  0  0
  -29.2079  -19.4672   20.6516 C   0  0  0  0  0  0
  -29.0564  -24.2671   20.9291 C   0  0  0  0  0  0
  -29.9149  -18.0857   20.3074 C   0  0  0  0  0  0
  -30.0753  -16.9697   21.4057 C   0  0  0  0  0  0
  -28.3609  -25.1621   19.8525 C   0  0  0  0  0  0
  -30.1222  -19.6615   22.8765 N   0  0  0  0  0  0
  -29.8113  -15.5593   21.0040 N   0  0  0  0  0  0
  -31.4777  -12.4953   19.1228 H   0  0  0  0  0  0
  -30.3695  -11.3517   19.8341 H   0  0  0  0  0  0
  -29.7568  -11.7764   17.4375 H   0  0  0  0  0  0
  -29.6464  -13.4905   17.7455 H   0  0  0  0  0  0
  -27.8468  -11.2915   18.8198 H   0  0  0  0  0  0
  -27.3706  -12.6066   17.7781 H   0  0  0  0  0  0
  -27.6899  -14.2409   19.5457 H   0  0  0  0  0  0
  -28.7018  -11.9568   21.3119 H   0  0  0  0  0  0
  -28.4399  -13.5835   21.8656 H   0  0  0  0  0  0
  -25.2757   -9.5677   22.4736 H   0  0  0  0  0  0
  -23.9984   -7.4642   22.7490 H   0  0  0  0  0  0
  -21.0822   -8.8741   19.8966 H   0  0  0  0  0  0
  -22.3666  -10.9642   19.6144 H   0  0  0  0  0  0
  -21.2018   -7.6142   23.9698 H   0  0  0  0  0  0
  -21.1477   -6.0526   25.9066 H   0  0  0  0  0  0
  -22.0603   -2.7601   23.2856 H   0  0  0  0  0  0
  -22.4150  -11.9905   22.4747 H   0  0  0  0  0  0
  -21.1136  -13.1265   22.2578 H   0  0  0  0  0  0
  -24.6689  -15.8400   20.5142 H   0  0  0  0  0  0
  -26.2831  -15.6213   20.0704 H   0  0  0  0  0  0
  -26.7085  -32.5509   23.1163 H   0  0  0  0  0  0
  -25.0034  -33.9776   25.0478 H   0  0  0  0  0  0
  -22.7024  -31.3057   21.4124 H   0  0  0  0  0  0
  -23.3764  -35.9611   23.3319 H   0  0  0  0  0  0
  -24.3583  -36.8887   22.2055 H   0  0  0  0  0  0
  -23.7213  -37.6496   23.6654 H   0  0  0  0  0  0
  -26.0677  -31.5760   20.6135 H   0  0  0  0  0  0
  -26.8240  -30.8567   22.0073 H   0  0  0  0  0  0
  -28.0931  -29.0175   21.2016 H   0  0  0  0  0  0
  -25.9912  -25.9962   18.9234 H   0  0  0  0  0  0
  -23.9654  -27.3333   19.0029 H   0  0  0  0  0  0
  -23.7293  -30.6017   19.4044 H   0  0  0  0  0  0
  -22.7461  -29.2433   19.8767 H   0  0  0  0  0  0
  -25.1282  -36.1996   25.0840 H   0  0  0  0  0  0
  -20.9984  -28.3169   24.1430 H   0  0  0  0  0  0
  -20.5654  -26.2234   23.3599 H   0  0  0  0  0  0
  -21.6625  -26.7376   22.1211 H   0  0  0  0  0  0
  -19.6888  -25.6276   21.1212 H   0  0  0  0  0  0
  -19.6659  -27.3176   20.6761 H   0  0  0  0  0  0
  -17.4193  -26.6690   21.4009 H   0  0  0  0  0  0
  -18.0292  -25.9995   22.8994 H   0  0  0  0  0  0
  -19.7938  -30.7215   24.2295 H   0  0  0  0  0  0
  -17.5013  -31.6247   24.5112 H   0  0  0  0  0  0
  -15.5352  -30.2930   23.7623 H   0  0  0  0  0  0
  -15.8688  -28.0730   22.7115 H   0  0  0  0  0  0
  -24.5899  -30.7048   25.7808 H   0  0  0  0  0  0
  -24.8882  -32.2842   26.4957 H   0  0  0  0  0  0
  -25.8037  -30.8853   27.0250 H   0  0  0  0  0  0
  -26.2830  -29.6819   24.1187 H   0  0  0  0  0  0
  -27.4062  -29.7280   25.4590 H   0  0  0  0  0  0
  -27.8674  -30.4380   23.9296 H   0  0  0  0  0  0
  -27.2717  -33.3651   26.2076 H   0  0  0  0  0  0
  -28.3841  -32.6863   25.0276 H   0  0  0  0  0  0
  -28.0769  -31.8457   26.5378 H   0  0  0  0  0  0
  -28.2604  -38.0089   24.7537 H   0  0  0  0  0  0
  -28.1083  -36.2623   24.6287 H   0  0  0  0  0  0
  -27.2309  -37.1443   25.8869 H   0  0  0  0  0  0
  -20.9342  -29.8757   21.6948 H   0  0  0  0  0  0
  -26.0201  -38.2867   24.1415 H   0  0  0  0  0  0
  -30.0208  -23.5202   23.1438 H   0  0  0  0  0  0
  -30.7461  -19.6648   24.8468 H   0  0  0  0  0  0
  -30.3463  -23.3562   25.5214 H   0  0  0  0  0  0
  -31.8400  -22.4215   25.5925 H   0  0  0  0  0  0
  -30.3577  -21.7736   26.3031 H   0  0  0  0  0  0
  -28.1577  -22.3430   20.3816 H   0  0  0  0  0  0
  -29.7865  -22.5286   19.7912 H   0  0  0  0  0  0
  -29.2116  -20.0670   19.7416 H   0  0  0  0  0  0
  -28.1554  -19.2738   20.8583 H   0  0  0  0  0  0
  -30.0594  -24.6571   21.1073 H   0  0  0  0  0  0
  -28.4895  -24.4321   21.8460 H   0  0  0  0  0  0
  -30.9018  -18.3004   19.8986 H   0  0  0  0  0  0
  -29.3512  -17.6551   19.4786 H   0  0  0  0  0  0
  -29.3619  -17.1716   22.2058 H   0  0  0  0  0  0
  -31.0616  -17.0378   21.8670 H   0  0  0  0  0  0
  -27.3615  -24.7513   19.7460 H   0  0  0  0  0  0
  -28.8487  -25.0241   18.8871 H   0  0  0  0  0  0
  -28.8751  -15.2418   21.2070 H   0  0  0  0  0  0
  1 25  1  0  0  0
  1 30  2  0  0  0
  1 84  1  0  0  0
  2  3  1  0  0  0
  2 25  1  0  0  0
  2 85  1  0  0  0
  2 86  1  0  0  0
  3  4  1  0  0  0
  3 87  1  0  0  0
  3 88  1  0  0  0
  4  5  1  0  0  0
  4 89  1  0  0  0
  4 90  1  0  0  0
  5  6  1  0  0  0
  5 26  1  0  0  0
  5 91  1  0  0  0
  6 25  1  0  0  0
  6 92  1  0  0  0
  6 93  1  0  0  0
  7  8  2  0  0  0
  7 26  1  0  0  0
  7 29  1  0  0  0
  8  9  1  0  0  0
  8 22  1  0  0  0
  9 10  1  0  0  0
  9 27  2  0  0  0
 10 11  2  0  0  0
 10 15  1  0  0  0
 11 12  1  0  0  0
 11 94  1  0  0  0
 12 13  2  0  0  0
 12 95  1  0  0  0
 13 14  1  0  0  0
 13 31  1  0  0  0
 14 15  2  0  0  0
 14 96  1  0  0  0
 15 97  1  0  0  0
 16 17  2  0  0  0
 16 21  1  0  0  0
 16 31  1  0  0  0
 17 18  1  0  0  0
 17 98  1  0  0  0
 18 19  2  0  0  0
 18 99  1  0  0  0
 19 20  1  0  0  0
 19 24  1  0  0  0
 20 21  2  0  0  0
 20100  1  0  0  0
 21 23  1  0  0  0
 22 28  1  0  0  0
 22 32  2  0  0  0
 26 27  1  0  0  0
 28101  1  0  0  0
 28102  1  0  0  0
 29103  1  0  0  0
 29104  1  0  0  0
 33 34  1  0  0  0
 33 66  1  0  0  0
 33 70  2  0  0  0
 34 36  1  0  0  0
 34 59  1  0  0  0
 34105  1  0  0  0
 35 44  2  0  0  0
 35 45  1  0  0  0
 35 68  1  0  0  0
 36 56  1  0  0  0
 36106  1  0  0  0
 37 39  1  0  0  0
 37 47  1  0  0  0
 37 66  1  0  0  0
 37107  1  0  0  0
 38 43  2  0  0  0
 38 46  1  0  0  0
 38 47  1  0  0  0
 39 64  1  0  0  0
 39 67  2  0  0  0
 40 52  1  0  0  0
 40 53  2  0  0  0
 40 58  1  0  0  0
 41108  1  0  0  0
 41109  1  0  0  0
 41110  1  0  0  0
 41 48  1  0  0  0
 42 43  1  0  0  0
 42 66  1  0  0  0
 42111  1  0  0  0
 42112  1  0  0  0
 43 44  1  0  0  0
 44113  1  0  0  0
 45 46  2  0  0  0
 45114  1  0  0  0
 46115  1  0  0  0
 47116  1  0  0  0
 47117  1  0  0  0
 48 56  1  0  0  0
 48 65  1  0  0  0
 48118  1  0  0  0
 49 50  1  0  0  0
 49 53  1  0  0  0
 49 64  1  0  0  0
 49119  1  0  0  0
 50 51  1  0  0  0
 50120  1  0  0  0
 50121  1  0  0  0
 51 52  1  0  0  0
 51122  1  0  0  0
 51123  1  0  0  0
 52124  1  0  0  0
 52125  1  0  0  0
 53 54  1  0  0  0
 54 55  2  0  0  0
 54126  1  0  0  0
 55 57  1  0  0  0
 55127  1  0  0  0
 56 69  2  0  0  0
 57 58  2  0  0  0
 57128  1  0  0  0
 58129  1  0  0  0
 59 60  1  0  0  0
 59 61  1  0  0  0
 59 62  1  0  0  0
 60130  1  0  0  0
 60131  1  0  0  0
 60132  1  0  0  0
 61133  1  0  0  0
 61134  1  0  0  0
 61135  1  0  0  0
 62136  1  0  0  0
 62137  1  0  0  0
 62138  1  0  0  0
 63 65  1  0  0  0
 63139  1  0  0  0
 63140  1  0  0  0
 63141  1  0  0  0
 64142  1  0  0  0
 65143  1  0  0  0
 68 82  1  0  0  0
 71 73  2  0  0  0
 71 74  1  0  0  0
 71144  1  0  0  0
 72 73  1  0  0  0
 72 83  2  0  0  0
 72145  1  0  0  0
 73 76  1  0  0  0
 74 75  2  0  0  0
 74 77  1  0  0  0
 75 78  1  0  0  0
 75 83  1  0  0  0
 76146  1  0  0  0
 76147  1  0  0  0
 76148  1  0  0  0
 77 79  1  0  0  0
 77149  1  0  0  0
 77150  1  0  0  0
 78 80  1  0  0  0
 78151  1  0  0  0
 78152  1  0  0  0
 79 82  1  0  0  0
 79153  1  0  0  0
 79154  1  0  0  0
 80 81  1  0  0  0
 80155  1  0  0  0
 80156  1  0  0  0
 81 84  1  0  0  0
 81157  1  0  0  0
 81158  1  0  0  0
 82159  1  0  0  0
 82160  1  0  0  0
 84161  1  0  0  0
M  ISO  4   1 100  68 101  82 101  84 100
M  END
> <chiral flag>
0

> <version>
0

> <s_m_source_file>
/data/baiqing/PycharmProjects/Reinvent-master-3.2/result/LINK_invent/BTK/process_docking_weight1_custom_sum_contain_oxygen_bond_distance_aromatic_linkinvent_7_9_3/rearranged_h_0040.sdf

> <i_m_source_file_index>
86

> <r_mmod_Potential_Energy-OPLS-2005>
-147.794921875

> <r_mmod_Stretch_Energy-OPLS-2005>
61.5090866088867

> <r_mmod_Bend_Energy-OPLS-2005>
140.371002197266

> <r_mmod_Torsional_Energy-OPLS-2005>
206.326766967773

> <r_mmod_Improper_Torsional_Energy-OPLS-2005>
4.22486734390259

> <r_mmod_Van_der_Waal_Energy-OPLS-2005>
155.80126953125

> <r_mmod_Electrostatic_Energy-OPLS-2005>
-522.002624511719

> <r_mmod_Solvation_Energy-OPLS-2005>
-223.252868652344

> <b_mmod_Minimization_Converged-OPLS-2005>
0

> <r_mmod_RMS_Derivative-OPLS-2005>
2.37175250053406

$$$$
86
                    3D
 Structure written by MMmdl.
161169  0  0  1  0            999 V2000
  -30.6235  -14.7024   20.4926 C   0  0  0  0  0  0
  -30.4367  -12.4444   19.4431 C   0  0  0  0  0  0
  -29.4991  -12.5024   18.2179 C   0  0  0  0  0  0
  -28.0279  -12.3286   18.6437 C   0  0  0  0  0  0
  -27.6431  -13.2243   19.8506 C   0  0  2  0  0  0
  -28.6926  -13.1388   20.9770 C   0  0  0  0  0  0
  -25.2524  -13.8167   20.5675 C   0  0  0  0  0  0
  -24.1802  -13.0429   20.9186 C   0  0  0  0  0  0
  -24.6392  -11.6914   20.8758 C   0  0  0  0  0  0
  -23.9068  -10.4285   21.0411 C   0  0  0  0  0  0
  -24.3602   -9.4200   21.9199 C   0  0  0  0  0  0
  -23.6264   -8.2251   22.0777 C   0  0  0  0  0  0
  -22.4252   -8.0291   21.3562 C   0  0  0  0  0  0
  -21.9897   -9.0265   20.4672 C   0  0  0  0  0  0
  -22.7240  -10.2137   20.3078 C   0  0  0  0  0  0
  -21.6856   -6.0729   22.5258 C   0  0  0  0  0  0
  -21.4031   -6.5632   23.8192 C   0  0  0  0  0  0
  -21.3647   -5.6789   24.9150 C   0  0  0  0  0  0
  -21.6034   -4.3050   24.7208 C   0  0  0  0  0  0
  -21.8820   -3.8139   23.4333 C   0  0  0  0  0  0
  -21.9190   -4.6955   22.3385 C   0  0  0  0  0  0
  -22.7827  -13.5239   21.1808 C   0  0  0  0  0  0
  -22.1665   -4.2137   21.0970 F   0  0  0  0  0  0
  -21.5607   -3.4543   25.7728 F   0  0  0  0  0  0
  -29.9893  -13.4914   20.3836 N   0  0  0  0  0  0
  -26.2949  -12.9370   20.3294 N   0  0  0  0  0  0
  -25.9319  -11.6518   20.5771 N   0  0  0  0  0  0
  -22.0458  -12.8268   22.0374 N   0  0  0  0  0  0
  -25.4213  -15.1878   20.4092 N   0  0  0  0  0  0
  -31.8306  -14.7930   20.2700 O   0  0  0  0  0  0
  -21.6643   -6.8878   21.4229 O   0  0  0  0  0  0
  -22.3540  -14.5546   20.6627 O   0  0  0  0  0  0
  -24.6301  -31.8553   23.2016 C   0  0  0  0  0  0
  -25.9125  -32.4782   23.8361 C   0  0  1  0  0  0
  -27.2313  -27.2799   20.1160 C   0  0  0  0  0  0
  -25.5915  -33.8577   24.2290 N   0  0  0  0  0  0
  -23.4279  -30.4750   21.5455 C   0  0  2  0  0  0
  -24.8770  -28.9275   20.1124 C   0  0  0  0  0  0
  -22.7489  -29.4567   22.4936 C   0  0  0  0  0  0
  -18.0262  -28.1406   22.8491 C   0  0  0  0  0  0
  -24.1453  -36.7252   23.2628 C   0  0  0  0  0  0
  -25.9725  -30.7734   21.3777 C   0  0  0  0  0  0
  -26.0485  -29.3966   20.7222 C   0  0  0  0  0  0
  -27.2278  -28.5847   20.7116 C   0  0  0  0  0  0
  -26.0334  -26.8813   19.4769 C   0  0  0  0  0  0
  -24.8747  -27.6786   19.4767 C   0  0  0  0  0  0
  -23.6466  -29.8092   20.1616 C   0  0  0  0  0  0
  -25.4087  -36.3078   24.0334 C   0  0  1  0  0  0
  -20.5865  -28.3684   23.1272 C   0  0  2  0  0  0
  -20.6732  -26.9401   22.5401 C   0  0  0  0  0  0
  -19.5724  -26.6396   21.5187 C   0  0  0  0  0  0
  -18.1912  -26.7952   22.1621 C   0  0  0  0  0  0
  -19.1517  -28.8866   23.2885 C   0  0  0  0  0  0
  -18.9453  -30.1460   23.8923 C   0  0  0  0  0  0
  -17.6462  -30.6618   24.0552 C   0  0  0  0  0  0
  -25.9044  -34.9451   23.5116 C   0  0  0  0  0  0
  -16.5345  -29.9129   23.6326 C   0  0  0  0  0  0
  -16.7250  -28.6526   23.0381 C   0  0  0  0  0  0
  -26.4506  -31.6616   25.0750 C   0  0  0  0  0  0
  -25.3760  -31.3757   26.1498 C   0  0  0  0  0  0
  -27.0319  -30.3034   24.6200 C   0  0  0  0  0  0
  -27.6066  -32.4336   25.7542 C   0  0  0  0  0  0
  -27.5560  -37.1781   24.8480 C   0  0  0  0  0  0
  -21.4191  -29.3026   22.3682 N   0  0  0  0  0  0
  -26.4254  -37.3781   23.9438 N   0  0  0  0  0  0
  -24.6965  -31.0509   22.0998 N   0  0  0  0  0  0
  -23.4185  -28.8090   23.3024 O   0  0  0  0  0  0
  -28.3318  -26.3906   20.1708 O   0  0  0  0  0  0
  -26.5598  -34.8920   22.4672 O   0  0  0  0  0  0
  -23.5438  -32.1347   23.7309 O   0  0  0  0  0  0
  -29.3469  -19.6705   20.6998 C   0  0  0  0  0  0
  -30.2830  -18.5714   20.5942 C   0  0  0  0  0  0
  -31.5293  -18.9067   19.9997 C   0  0  0  0  0  0
  -29.6648  -21.0062   20.2497 C   0  0  0  0  0  0
  -31.7828  -20.2542   19.6088 C   0  0  0  0  0  0
  -32.6001  -17.8342   19.8395 C   0  0  0  0  0  0
  -33.2639  -20.5124   17.5497 C   0  0  0  0  0  0
  -30.0821  -17.1628   21.3186 C   0  0  0  0  0  0
  -28.6549  -22.2302   20.2026 C   0  0  0  0  0  0
  -33.1318  -20.7187   19.0659 C   0  0  0  0  0  0
  -29.1447  -23.7666   20.3423 C   0  0  0  0  0  0
  -28.0697  -24.9205   20.0106 C   0  0  0  0  0  0
  -30.8689  -21.2466   19.6989 N   0  0  0  0  0  0
  -29.8274  -15.8153   20.6650 N   0  0  0  0  0  0
  -31.4737  -12.5850   19.1376 H   0  0  0  0  0  0
  -30.3955  -11.4631   19.9192 H   0  0  0  0  0  0
  -29.7666  -11.7272   17.4968 H   0  0  0  0  0  0
  -29.6201  -13.4554   17.7026 H   0  0  0  0  0  0
  -27.8842  -11.2780   18.9013 H   0  0  0  0  0  0
  -27.3650  -12.5281   17.8009 H   0  0  0  0  0  0
  -27.6435  -14.2498   19.4784 H   0  0  0  0  0  0
  -28.7259  -12.1355   21.4006 H   0  0  0  0  0  0
  -28.4384  -13.8080   21.8012 H   0  0  0  0  0  0
  -25.2751   -9.5658   22.4771 H   0  0  0  0  0  0
  -23.9941   -7.4649   22.7519 H   0  0  0  0  0  0
  -21.0816   -8.8788   19.8998 H   0  0  0  0  0  0
  -22.3687  -10.9665   19.6177 H   0  0  0  0  0  0
  -21.2062   -7.6149   23.9686 H   0  0  0  0  0  0
  -21.1459   -6.0533   25.9048 H   0  0  0  0  0  0
  -22.0616   -2.7606   23.2838 H   0  0  0  0  0  0
  -22.4082  -11.9929   22.4742 H   0  0  0  0  0  0
  -21.1093  -13.1334   22.2587 H   0  0  0  0  0  0
  -24.6511  -15.8389   20.5234 H   0  0  0  0  0  0
  -26.2578  -15.6275   20.0491 H   0  0  0  0  0  0
  -26.7191  -32.5458   23.1110 H   0  0  0  0  0  0
  -25.0088  -33.9734   25.0457 H   0  0  0  0  0  0
  -22.7245  -31.2972   21.3988 H   0  0  0  0  0  0
  -23.3739  -35.9558   23.3313 H   0  0  0  0  0  0
  -24.3493  -36.8845   22.2024 H   0  0  0  0  0  0
  -23.7189  -37.6445   23.6648 H   0  0  0  0  0  0
  -26.0981  -31.5311   20.6043 H   0  0  0  0  0  0
  -26.8554  -30.8323   22.0034 H   0  0  0  0  0  0
  -28.1246  -28.9353   21.2018 H   0  0  0  0  0  0
  -25.9597  -25.9299   18.9738 H   0  0  0  0  0  0
  -23.9832  -27.3176   18.9836 H   0  0  0  0  0  0
  -23.7723  -30.5869   19.4079 H   0  0  0  0  0  0
  -22.7706  -29.2374   19.8539 H   0  0  0  0  0  0
  -25.1265  -36.1895   25.0821 H   0  0  0  0  0  0
  -20.9949  -28.3248   24.1397 H   0  0  0  0  0  0
  -20.5563  -26.2301   23.3600 H   0  0  0  0  0  0
  -21.6616  -26.7403   22.1239 H   0  0  0  0  0  0
  -19.6869  -25.6301   21.1238 H   0  0  0  0  0  0
  -19.6681  -27.3189   20.6704 H   0  0  0  0  0  0
  -17.4158  -26.6650   21.4055 H   0  0  0  0  0  0
  -18.0361  -26.0106   22.9040 H   0  0  0  0  0  0
  -19.7923  -30.7243   24.2351 H   0  0  0  0  0  0
  -17.5023  -31.6309   24.5128 H   0  0  0  0  0  0
  -15.5354  -30.3050   23.7651 H   0  0  0  0  0  0
  -15.8630  -28.0842   22.7151 H   0  0  0  0  0  0
  -24.5957  -30.7058   25.7873 H   0  0  0  0  0  0
  -24.8928  -32.2919   26.4910 H   0  0  0  0  0  0
  -25.8124  -30.8988   27.0288 H   0  0  0  0  0  0
  -26.2902  -29.6860   24.1121 H   0  0  0  0  0  0
  -27.3888  -29.7223   25.4710 H   0  0  0  0  0  0
  -27.8837  -30.4299   23.9509 H   0  0  0  0  0  0
  -27.2694  -33.3643   26.2112 H   0  0  0  0  0  0
  -28.3920  -32.6872   25.0421 H   0  0  0  0  0  0
  -28.0694  -31.8459   26.5479 H   0  0  0  0  0  0
  -28.2605  -38.0056   24.7525 H   0  0  0  0  0  0
  -28.1044  -36.2595   24.6331 H   0  0  0  0  0  0
  -27.2285  -37.1461   25.8886 H   0  0  0  0  0  0
  -20.9373  -29.8769   21.6917 H   0  0  0  0  0  0
  -26.0130  -38.2835   24.1508 H   0  0  0  0  0  0
  -28.3788  -19.4944   21.1496 H   0  0  0  0  0  0
  -32.9235  -17.4554   20.8105 H   0  0  0  0  0  0
  -33.4892  -18.1597   19.3061 H   0  0  0  0  0  0
  -32.1997  -17.0107   19.2534 H   0  0  0  0  0  0
  -34.2021  -20.9296   17.1806 H   0  0  0  0  0  0
  -32.4476  -21.0055   17.0233 H   0  0  0  0  0  0
  -33.2361  -19.4558   17.2805 H   0  0  0  0  0  0
  -30.9174  -17.0295   22.0062 H   0  0  0  0  0  0
  -29.2338  -17.3000   21.9893 H   0  0  0  0  0  0
  -27.9039  -22.0500   20.9711 H   0  0  0  0  0  0
  -28.1224  -22.1390   19.2541 H   0  0  0  0  0  0
  -33.9518  -20.2352   19.5980 H   0  0  0  0  0  0
  -33.2586  -21.7804   19.2923 H   0  0  0  0  0  0
  -29.9904  -23.9073   19.6693 H   0  0  0  0  0  0
  -29.5371  -23.9219   21.3479 H   0  0  0  0  0  0
  -27.1832  -24.6815   20.5991 H   0  0  0  0  0  0
  -27.7914  -24.7598   18.9700 H   0  0  0  0  0  0
  -28.8475  -15.5880   20.6309 H   0  0  0  0  0  0
  1 25  1  0  0  0
  1 30  2  0  0  0
  1 84  1  0  0  0
  2  3  1  0  0  0
  2 25  1  0  0  0
  2 85  1  0  0  0
  2 86  1  0  0  0
  3  4  1  0  0  0
  3 87  1  0  0  0
  3 88  1  0  0  0
  4  5  1  0  0  0
  4 89  1  0  0  0
  4 90  1  0  0  0
  5  6  1  0  0  0
  5 26  1  0  0  0
  5 91  1  0  0  0
  6 25  1  0  0  0
  6 92  1  0  0  0
  6 93  1  0  0  0
  7  8  2  0  0  0
  7 26  1  0  0  0
  7 29  1  0  0  0
  8  9  1  0  0  0
  8 22  1  0  0  0
  9 10  1  0  0  0
  9 27  2  0  0  0
 10 11  2  0  0  0
 10 15  1  0  0  0
 11 12  1  0  0  0
 11 94  1  0  0  0
 12 13  2  0  0  0
 12 95  1  0  0  0
 13 14  1  0  0  0
 13 31  1  0  0  0
 14 15  2  0  0  0
 14 96  1  0  0  0
 15 97  1  0  0  0
 16 17  2  0  0  0
 16 21  1  0  0  0
 16 31  1  0  0  0
 17 18  1  0  0  0
 17 98  1  0  0  0
 18 19  2  0  0  0
 18 99  1  0  0  0
 19 20  1  0  0  0
 19 24  1  0  0  0
 20 21  2  0  0  0
 20100  1  0  0  0
 21 23  1  0  0  0
 22 28  1  0  0  0
 22 32  2  0  0  0
 26 27  1  0  0  0
 28101  1  0  0  0
 28102  1  0  0  0
 29103  1  0  0  0
 29104  1  0  0  0
 33 34  1  0  0  0
 33 66  1  0  0  0
 33 70  2  0  0  0
 34 36  1  0  0  0
 34 59  1  0  0  0
 34105  1  0  0  0
 35 44  2  0  0  0
 35 45  1  0  0  0
 35 68  1  0  0  0
 36 56  1  0  0  0
 36106  1  0  0  0
 37 39  1  0  0  0
 37 47  1  0  0  0
 37 66  1  0  0  0
 37107  1  0  0  0
 38 43  2  0  0  0
 38 46  1  0  0  0
 38 47  1  0  0  0
 39 64  1  0  0  0
 39 67  2  0  0  0
 40 52  1  0  0  0
 40 53  2  0  0  0
 40 58  1  0  0  0
 41108  1  0  0  0
 41109  1  0  0  0
 41110  1  0  0  0
 41 48  1  0  0  0
 42 43  1  0  0  0
 42 66  1  0  0  0
 42111  1  0  0  0
 42112  1  0  0  0
 43 44  1  0  0  0
 44113  1  0  0  0
 45 46  2  0  0  0
 45114  1  0  0  0
 46115  1  0  0  0
 47116  1  0  0  0
 47117  1  0  0  0
 48 56  1  0  0  0
 48 65  1  0  0  0
 48118  1  0  0  0
 49 50  1  0  0  0
 49 53  1  0  0  0
 49 64  1  0  0  0
 49119  1  0  0  0
 50 51  1  0  0  0
 50120  1  0  0  0
 50121  1  0  0  0
 51 52  1  0  0  0
 51122  1  0  0  0
 51123  1  0  0  0
 52124  1  0  0  0
 52125  1  0  0  0
 53 54  1  0  0  0
 54 55  2  0  0  0
 54126  1  0  0  0
 55 57  1  0  0  0
 55127  1  0  0  0
 56 69  2  0  0  0
 57 58  2  0  0  0
 57128  1  0  0  0
 58129  1  0  0  0
 59 60  1  0  0  0
 59 61  1  0  0  0
 59 62  1  0  0  0
 60130  1  0  0  0
 60131  1  0  0  0
 60132  1  0  0  0
 61133  1  0  0  0
 61134  1  0  0  0
 61135  1  0  0  0
 62136  1  0  0  0
 62137  1  0  0  0
 62138  1  0  0  0
 63 65  1  0  0  0
 63139  1  0  0  0
 63140  1  0  0  0
 63141  1  0  0  0
 64142  1  0  0  0
 65143  1  0  0  0
 68 82  1  0  0  0
 71 72  2  0  0  0
 71 74  1  0  0  0
 71144  1  0  0  0
 72 73  1  0  0  0
 72 78  1  0  0  0
 73 75  2  0  0  0
 73 76  1  0  0  0
 74 79  1  0  0  0
 74 83  2  0  0  0
 75 80  1  0  0  0
 75 83  1  0  0  0
 76145  1  0  0  0
 76146  1  0  0  0
 76147  1  0  0  0
 77 80  1  0  0  0
 77148  1  0  0  0
 77149  1  0  0  0
 77150  1  0  0  0
 78 84  1  0  0  0
 78151  1  0  0  0
 78152  1  0  0  0
 79 81  1  0  0  0
 79153  1  0  0  0
 79154  1  0  0  0
 80155  1  0  0  0
 80156  1  0  0  0
 81 82  1  0  0  0
 81157  1  0  0  0
 81158  1  0  0  0
 82159  1  0  0  0
 82160  1  0  0  0
 84161  1  0  0  0
M  ISO  4   1 100  68 101  82 101  84 100
M  END
> <chiral flag>
0

> <version>
0

> <s_m_source_file>
/data/baiqing/PycharmProjects/Reinvent-master-3.2/result/LINK_invent/BTK/process_docking_weight1_custom_sum_contain_oxygen_bond_distance_aromatic_linkinvent_7_9_3/rearranged_h_0040.sdf

> <i_m_source_file_index>
87

> <r_mmod_Potential_Energy-OPLS-2005>
-145.663635253906

> <r_mmod_Stretch_Energy-OPLS-2005>
109.600288391113

> <r_mmod_Bend_Energy-OPLS-2005>
171.748733520508

> <r_mmod_Torsional_Energy-OPLS-2005>
217.773544311523

> <r_mmod_Improper_Torsional_Energy-OPLS-2005>
7.10015201568604

> <r_mmod_Van_der_Waal_Energy-OPLS-2005>
145.895721435547

> <r_mmod_Electrostatic_Energy-OPLS-2005>
-648.495666503906

> <r_mmod_Solvation_Energy-OPLS-2005>
-224.604919433594

> <b_mmod_Minimization_Converged-OPLS-2005>
0

> <r_mmod_RMS_Derivative-OPLS-2005>
3.16172671318054

$$$$
87
                    3D
 Structure written by MMmdl.
181189  0  0  1  0            999 V2000
  -30.8840  -14.2236   20.7730 C   0  0  0  0  0  0
  -30.4164  -12.2762   19.3535 C   0  0  0  0  0  0
  -29.4737  -12.5495   18.1749 C   0  0  0  0  0  0
  -28.0091  -12.3898   18.6143 C   0  0  0  0  0  0
  -27.6805  -13.2061   19.8904 C   0  0  2  0  0  0
  -28.7282  -12.9573   21.0021 C   0  0  0  0  0  0
  -25.2684  -13.8158   20.5715 C   0  0  0  0  0  0
  -24.1923  -13.0453   20.9166 C   0  0  0  0  0  0
  -24.6468  -11.6904   20.8743 C   0  0  0  0  0  0
  -23.9117  -10.4296   21.0405 C   0  0  0  0  0  0
  -24.3647   -9.4205   21.9193 C   0  0  0  0  0  0
  -23.6309   -8.2249   22.0763 C   0  0  0  0  0  0
  -22.4289   -8.0292   21.3554 C   0  0  0  0  0  0
  -21.9933   -9.0279   20.4655 C   0  0  0  0  0  0
  -22.7279  -10.2150   20.3067 C   0  0  0  0  0  0
  -21.6861   -6.0745   22.5275 C   0  0  0  0  0  0
  -21.4016   -6.5643   23.8206 C   0  0  0  0  0  0
  -21.3662   -5.6798   24.9169 C   0  0  0  0  0  0
  -21.6043   -4.3059   24.7220 C   0  0  0  0  0  0
  -21.8824   -3.8152   23.4343 C   0  0  0  0  0  0
  -21.9195   -4.6968   22.3395 C   0  0  0  0  0  0
  -22.7932  -13.5240   21.1820 C   0  0  0  0  0  0
  -22.1665   -4.2156   21.0981 F   0  0  0  0  0  0
  -21.5631   -3.4541   25.7734 F   0  0  0  0  0  0
  -30.0821  -13.1827   20.4576 N   0  0  0  0  0  0
  -26.3164  -12.9351   20.3481 N   0  0  0  0  0  0
  -25.9411  -11.6501   20.5824 N   0  0  0  0  0  0
  -22.0557  -12.8249   22.0349 N   0  0  0  0  0  0
  -25.4398  -15.1884   20.4097 N   0  0  0  0  0  0
  -31.7317  -14.7030   20.0132 O   0  0  0  0  0  0
  -21.6649   -6.8894   21.4239 O   0  0  0  0  0  0
  -22.3625  -14.5563   20.6664 O   0  0  0  0  0  0
  -24.6151  -31.8721   23.2113 C   0  0  0  0  0  0
  -25.9066  -32.4839   23.8417 C   0  0  1  0  0  0
  -27.2601  -27.4873   20.0907 C   0  0  0  0  0  0
  -25.5919  -33.8639   24.2339 N   0  0  0  0  0  0
  -23.4006  -30.4914   21.5506 C   0  0  2  0  0  0
  -24.8530  -28.9599   20.1161 C   0  0  0  0  0  0
  -22.7388  -29.4727   22.5061 C   0  0  0  0  0  0
  -18.0300  -28.1346   22.8478 C   0  0  0  0  0  0
  -24.1518  -36.7350   23.2624 C   0  0  0  0  0  0
  -25.9213  -30.8556   21.3544 C   0  0  0  0  0  0
  -26.0053  -29.4893   20.7096 C   0  0  0  0  0  0
  -27.2111  -28.7616   20.6988 C   0  0  0  0  0  0
  -26.0999  -26.9676   19.4799 C   0  0  0  0  0  0
  -24.8923  -27.6957   19.4967 C   0  0  0  0  0  0
  -23.6068  -29.8117   20.1676 C   0  0  0  0  0  0
  -25.4121  -36.3138   24.0341 C   0  0  1  0  0  0
  -20.5911  -28.3637   23.1371 C   0  0  2  0  0  0
  -20.6807  -26.9371   22.5444 C   0  0  0  0  0  0
  -19.5827  -26.6525   21.5131 C   0  0  0  0  0  0
  -18.1934  -26.7998   22.1396 C   0  0  0  0  0  0
  -19.1548  -28.8754   23.2972 C   0  0  0  0  0  0
  -18.9473  -30.1317   23.9037 C   0  0  0  0  0  0
  -17.6482  -30.6508   24.0611 C   0  0  0  0  0  0
  -25.9053  -34.9495   23.5136 C   0  0  0  0  0  0
  -16.5370  -29.9078   23.6289 C   0  0  0  0  0  0
  -16.7292  -28.6485   23.0347 C   0  0  0  0  0  0
  -26.4489  -31.6561   25.0701 C   0  0  0  0  0  0
  -25.3766  -31.3643   26.1440 C   0  0  0  0  0  0
  -27.0246  -30.2992   24.5986 C   0  0  0  0  0  0
  -27.6087  -32.4243   25.7459 C   0  0  0  0  0  0
  -27.5594  -37.1838   24.8439 C   0  0  0  0  0  0
  -21.4127  -29.3038   22.3744 N   0  0  0  0  0  0
  -26.4320  -37.3795   23.9375 N   0  0  0  0  0  0
  -24.6636  -31.0874   22.0969 N   0  0  0  0  0  0
  -23.4177  -28.8330   23.3152 O   0  0  0  0  0  0
  -28.4162  -26.7463   20.0503 O   0  0  0  0  0  0
  -26.5588  -34.8972   22.4681 O   0  0  0  0  0  0
  -23.5364  -32.1457   23.7551 O   0  0  0  0  0  0
  -25.5044  -23.6621   21.4872 C   0  0  0  0  0  0
  -24.8944  -24.0624   22.6869 C   0  0  0  0  0  0
  -25.6695  -24.8705   23.5430 C   0  0  0  0  0  0
  -27.4370  -24.7153   22.0916 C   0  0  0  0  0  0
  -25.1358  -25.4563   24.8389 C   0  0  0  0  0  0
  -23.4586  -23.6594   22.9860 C   0  0  0  0  0  0
  -28.8782  -25.0757   21.7765 C   0  0  0  0  0  0
  -23.2782  -22.6778   24.1670 C   0  0  0  0  0  0
  -29.9965  -16.9326   23.5683 C   0  0  0  0  0  0
  -29.4918  -18.3761   23.6511 C   0  0  0  0  0  0
  -31.3538  -16.8097   22.8614 C   0  0  0  0  0  0
  -23.9823  -21.3057   24.0506 C   0  0  0  0  0  0
  -28.0346  -18.4355   24.1327 C   0  0  0  0  0  0
  -31.8427  -15.3576   22.7773 C   0  0  0  0  0  0
  -25.4787  -21.2958   24.4205 C   0  0  0  0  0  0
  -27.5060  -19.8773   24.2124 C   0  0  0  0  0  0
  -29.0610  -26.5336   21.3118 C   0  0  0  0  0  0
  -26.7754  -23.9844   21.2004 N   0  0  0  0  0  0
  -26.9484  -25.1578   23.2482 N   0  0  0  0  0  0
  -30.8839  -14.5034   22.0802 N   0  0  0  0  0  0
  -26.0411  -19.9270   24.4073 N   0  3  0  0  0  0
  -31.4558  -12.3793   19.0349 H   0  0  0  0  0  0
  -30.3131  -11.2440   19.6893 H   0  0  0  0  0  0
  -29.6938  -11.8678   17.3514 H   0  0  0  0  0  0
  -29.6427  -13.5582   17.7934 H   0  0  0  0  0  0
  -27.8290  -11.3295   18.7941 H   0  0  0  0  0  0
  -27.3412  -12.6813   17.8028 H   0  0  0  0  0  0
  -27.7418  -14.2612   19.6236 H   0  0  0  0  0  0
  -28.6629  -11.9347   21.3764 H   0  0  0  0  0  0
  -28.5092  -13.6068   21.8513 H   0  0  0  0  0  0
  -25.2796   -9.5665   22.4760 H   0  0  0  0  0  0
  -24.0011   -7.4641   22.7482 H   0  0  0  0  0  0
  -21.0865   -8.8821   19.8957 H   0  0  0  0  0  0
  -22.3759  -10.9703   19.6173 H   0  0  0  0  0  0
  -21.2009   -7.6155   23.9713 H   0  0  0  0  0  0
  -21.1479   -6.0529   25.9077 H   0  0  0  0  0  0
  -22.0599   -2.7615   23.2845 H   0  0  0  0  0  0
  -22.4166  -11.9902   22.4741 H   0  0  0  0  0  0
  -21.1169  -13.1276   22.2535 H   0  0  0  0  0  0
  -24.6708  -15.8417   20.5073 H   0  0  0  0  0  0
  -26.2989  -15.6259   20.1011 H   0  0  0  0  0  0
  -26.7164  -32.5629   23.1238 H   0  0  0  0  0  0
  -25.0100  -33.9783   25.0505 H   0  0  0  0  0  0
  -22.6943  -31.3111   21.4071 H   0  0  0  0  0  0
  -23.3783  -35.9679   23.3285 H   0  0  0  0  0  0
  -24.3612  -36.8956   22.2036 H   0  0  0  0  0  0
  -23.7318  -37.6587   23.6619 H   0  0  0  0  0  0
  -26.0212  -31.6246   20.5865 H   0  0  0  0  0  0
  -26.8106  -30.9138   21.9703 H   0  0  0  0  0  0
  -28.0976  -29.1874   21.1457 H   0  0  0  0  0  0
  -26.1350  -26.0007   18.9977 H   0  0  0  0  0  0
  -24.0084  -27.2896   19.0249 H   0  0  0  0  0  0
  -23.7058  -30.5785   19.3979 H   0  0  0  0  0  0
  -22.7352  -29.2173   19.8851 H   0  0  0  0  0  0
  -25.1317  -36.2003   25.0838 H   0  0  0  0  0  0
  -21.0011  -28.3214   24.1499 H   0  0  0  0  0  0
  -20.5530  -26.2218   23.3583 H   0  0  0  0  0  0
  -21.6721  -26.7365   22.1335 H   0  0  0  0  0  0
  -19.7057  -25.6551   21.0873 H   0  0  0  0  0  0
  -19.6816  -27.3554   20.6842 H   0  0  0  0  0  0
  -17.4352  -26.7108   21.3596 H   0  0  0  0  0  0
  -18.0072  -25.9943   22.8520 H   0  0  0  0  0  0
  -19.7955  -30.7040   24.2548 H   0  0  0  0  0  0
  -17.5050  -31.6168   24.5240 H   0  0  0  0  0  0
  -15.5373  -30.3018   23.7542 H   0  0  0  0  0  0
  -15.8671  -28.0858   22.7051 H   0  0  0  0  0  0
  -24.5985  -30.6922   25.7778 H   0  0  0  0  0  0
  -24.8929  -32.2794   26.4867 H   0  0  0  0  0  0
  -25.8186  -30.8858   27.0190 H   0  0  0  0  0  0
  -26.2733  -29.6845   24.0998 H   0  0  0  0  0  0
  -27.3961  -29.7127   25.4402 H   0  0  0  0  0  0
  -27.8609  -30.4302   23.9109 H   0  0  0  0  0  0
  -27.2712  -33.3536   26.2057 H   0  0  0  0  0  0
  -28.3890  -32.6800   25.0274 H   0  0  0  0  0  0
  -28.0735  -31.8322   26.5358 H   0  0  0  0  0  0
  -28.2624  -38.0122   24.7489 H   0  0  0  0  0  0
  -28.1109  -36.2681   24.6283 H   0  0  0  0  0  0
  -27.2293  -37.1466   25.8831 H   0  0  0  0  0  0
  -20.9293  -29.8600   21.6810 H   0  0  0  0  0  0
  -26.0250  -38.2904   24.1296 H   0  0  0  0  0  0
  -24.9776  -23.0654   20.7567 H   0  0  0  0  0  0
  -25.2308  -24.7365   25.6515 H   0  0  0  0  0  0
  -24.0847  -25.7261   24.7465 H   0  0  0  0  0  0
  -25.6743  -26.3635   25.1217 H   0  0  0  0  0  0
  -23.0223  -23.2332   22.0827 H   0  0  0  0  0  0
  -22.8834  -24.5656   23.1746 H   0  0  0  0  0  0
  -29.2667  -24.4000   21.0134 H   0  0  0  0  0  0
  -29.4740  -24.8831   22.6691 H   0  0  0  0  0  0
  -22.2075  -22.4890   24.2571 H   0  0  0  0  0  0
  -23.5519  -23.1527   25.1086 H   0  0  0  0  0  0
  -29.2597  -16.3337   23.0329 H   0  0  0  0  0  0
  -30.0614  -16.5117   24.5735 H   0  0  0  0  0  0
  -29.5671  -18.8420   22.6665 H   0  0  0  0  0  0
  -30.1353  -18.9551   24.3156 H   0  0  0  0  0  0
  -32.1000  -17.4036   23.3905 H   0  0  0  0  0  0
  -31.2875  -17.2300   21.8562 H   0  0  0  0  0  0
  -23.8350  -20.8987   23.0503 H   0  0  0  0  0  0
  -23.4767  -20.6192   24.7309 H   0  0  0  0  0  0
  -27.9520  -17.9569   25.1091 H   0  0  0  0  0  0
  -27.4192  -17.8471   23.4497 H   0  0  0  0  0  0
  -31.9834  -14.9603   23.7833 H   0  0  0  0  0  0
  -32.8235  -15.3174   22.2998 H   0  0  0  0  0  0
  -25.6267  -21.7293   25.4095 H   0  0  0  0  0  0
  -26.0374  -21.9175   23.7239 H   0  0  0  0  0  0
  -27.7477  -20.3933   23.2827 H   0  0  0  0  0  0
  -28.0112  -20.4171   25.0153 H   0  0  0  0  0  0
  -28.7112  -27.2053   22.0996 H   0  0  0  0  0  0
  -30.1258  -26.7344   21.1968 H   0  0  0  0  0  0
  -30.2304  -13.9828   22.6472 H   0  0  0  0  0  0
  -25.6163  -19.4135   23.6531 H   0  0  0  0  0  0
  -25.7990  -19.4649   25.2695 H   0  0  0  0  0  0
  1 25  1  0  0  0
  1 30  2  0  0  0
  1 90  1  0  0  0
  2  3  1  0  0  0
  2 25  1  0  0  0
  2 92  1  0  0  0
  2 93  1  0  0  0
  3  4  1  0  0  0
  3 94  1  0  0  0
  3 95  1  0  0  0
  4  5  1  0  0  0
  4 96  1  0  0  0
  4 97  1  0  0  0
  5  6  1  0  0  0
  5 26  1  0  0  0
  5 98  1  0  0  0
  6 25  1  0  0  0
  6 99  1  0  0  0
  6100  1  0  0  0
  7  8  2  0  0  0
  7 26  1  0  0  0
  7 29  1  0  0  0
  8  9  1  0  0  0
  8 22  1  0  0  0
  9 10  1  0  0  0
  9 27  2  0  0  0
 10 11  2  0  0  0
 10 15  1  0  0  0
 11 12  1  0  0  0
 11101  1  0  0  0
 12 13  2  0  0  0
 12102  1  0  0  0
 13 14  1  0  0  0
 13 31  1  0  0  0
 14 15  2  0  0  0
 14103  1  0  0  0
 15104  1  0  0  0
 16 17  2  0  0  0
 16 21  1  0  0  0
 16 31  1  0  0  0
 17 18  1  0  0  0
 17105  1  0  0  0
 18 19  2  0  0  0
 18106  1  0  0  0
 19 20  1  0  0  0
 19 24  1  0  0  0
 20 21  2  0  0  0
 20107  1  0  0  0
 21 23  1  0  0  0
 22 28  1  0  0  0
 22 32  2  0  0  0
 26 27  1  0  0  0
 28108  1  0  0  0
 28109  1  0  0  0
 29110  1  0  0  0
 29111  1  0  0  0
 33 34  1  0  0  0
 33 66  1  0  0  0
 33 70  2  0  0  0
 34 36  1  0  0  0
 34 59  1  0  0  0
 34112  1  0  0  0
 35 44  2  0  0  0
 35 45  1  0  0  0
 35 68  1  0  0  0
 36 56  1  0  0  0
 36113  1  0  0  0
 37 39  1  0  0  0
 37 47  1  0  0  0
 37 66  1  0  0  0
 37114  1  0  0  0
 38 43  2  0  0  0
 38 46  1  0  0  0
 38 47  1  0  0  0
 39 64  1  0  0  0
 39 67  2  0  0  0
 40 52  1  0  0  0
 40 53  2  0  0  0
 40 58  1  0  0  0
 41115  1  0  0  0
 41116  1  0  0  0
 41117  1  0  0  0
 41 48  1  0  0  0
 42 43  1  0  0  0
 42 66  1  0  0  0
 42118  1  0  0  0
 42119  1  0  0  0
 43 44  1  0  0  0
 44120  1  0  0  0
 45 46  2  0  0  0
 45121  1  0  0  0
 46122  1  0  0  0
 47123  1  0  0  0
 47124  1  0  0  0
 48 56  1  0  0  0
 48 65  1  0  0  0
 48125  1  0  0  0
 49 50  1  0  0  0
 49 53  1  0  0  0
 49 64  1  0  0  0
 49126  1  0  0  0
 50 51  1  0  0  0
 50127  1  0  0  0
 50128  1  0  0  0
 51 52  1  0  0  0
 51129  1  0  0  0
 51130  1  0  0  0
 52131  1  0  0  0
 52132  1  0  0  0
 53 54  1  0  0  0
 54 55  2  0  0  0
 54133  1  0  0  0
 55 57  1  0  0  0
 55134  1  0  0  0
 56 69  2  0  0  0
 57 58  2  0  0  0
 57135  1  0  0  0
 58136  1  0  0  0
 59 60  1  0  0  0
 59 61  1  0  0  0
 59 62  1  0  0  0
 60137  1  0  0  0
 60138  1  0  0  0
 60139  1  0  0  0
 61140  1  0  0  0
 61141  1  0  0  0
 61142  1  0  0  0
 62143  1  0  0  0
 62144  1  0  0  0
 62145  1  0  0  0
 63 65  1  0  0  0
 63146  1  0  0  0
 63147  1  0  0  0
 63148  1  0  0  0
 64149  1  0  0  0
 65150  1  0  0  0
 68 87  1  0  0  0
 71 72  2  0  0  0
 71 88  1  0  0  0
 71151  1  0  0  0
 72 73  1  0  0  0
 72 76  1  0  0  0
 73 75  1  0  0  0
 73 89  2  0  0  0
 74 77  1  0  0  0
 74 88  2  0  0  0
 74 89  1  0  0  0
 75152  1  0  0  0
 75153  1  0  0  0
 75154  1  0  0  0
 76 78  1  0  0  0
 76155  1  0  0  0
 76156  1  0  0  0
 77 87  1  0  0  0
 77157  1  0  0  0
 77158  1  0  0  0
 78 82  1  0  0  0
 78159  1  0  0  0
 78160  1  0  0  0
 79 80  1  0  0  0
 79 81  1  0  0  0
 79161  1  0  0  0
 79162  1  0  0  0
 80 83  1  0  0  0
 80163  1  0  0  0
 80164  1  0  0  0
 81 84  1  0  0  0
 81165  1  0  0  0
 81166  1  0  0  0
 82 85  1  0  0  0
 82167  1  0  0  0
 82168  1  0  0  0
 83 86  1  0  0  0
 83169  1  0  0  0
 83170  1  0  0  0
 84 90  1  0  0  0
 84171  1  0  0  0
 84172  1  0  0  0
 85 91  1  0  0  0
 85173  1  0  0  0
 85174  1  0  0  0
 86 91  1  0  0  0
 86175  1  0  0  0
 86176  1  0  0  0
 87177  1  0  0  0
 87178  1  0  0  0
 90179  1  0  0  0
 91180  1  0  0  0
 91181  1  0  0  0
M  CHG  1  91   1
M  ISO  4   1 100  68 101  87 101  90 100
M  END
> <chiral flag>
0

> <version>
0

> <s_m_source_file>
/data/baiqing/PycharmProjects/Reinvent-master-3.2/result/LINK_invent/BTK/process_docking_weight1_custom_sum_contain_oxygen_bond_distance_aromatic_linkinvent_7_9_3/rearranged_h_0040.sdf

> <i_m_source_file_index>
88

> <r_mmod_Potential_Energy-OPLS-2005>
-623.548706054688

> <r_mmod_Stretch_Energy-OPLS-2005>
31.6005458831787

> <r_mmod_Bend_Energy-OPLS-2005>
94.078010559082

> <r_mmod_Torsional_Energy-OPLS-2005>
214.214004516602

> <r_mmod_Improper_Torsional_Energy-OPLS-2005>
6.3911657333374

> <r_mmod_Van_der_Waal_Energy-OPLS-2005>
134.981552124023

> <r_mmod_Electrostatic_Energy-OPLS-2005>
-643.783142089844

> <r_mmod_Solvation_Energy-OPLS-2005>
-472.339874267578

> <b_mmod_Minimization_Converged-OPLS-2005>
0

> <r_mmod_RMS_Derivative-OPLS-2005>
4.30240726470947

$$$$
88
                    3D
 Structure written by MMmdl.
186195  0  0  1  0            999 V2000
  -29.9563  -15.7036   20.5251 C   0  0  0  0  0  0
  -30.3794  -13.1604   19.6288 C   0  0  0  0  0  0
  -29.5590  -12.7166   18.3727 C   0  0  0  0  0  0
  -28.1180  -12.3333   18.7485 C   0  0  0  0  0  0
  -27.5588  -13.3003   19.8145 C   0  0  2  0  0  0
  -28.5072  -13.5637   20.9882 C   0  0  0  0  0  0
  -25.2138  -13.8230   20.5702 C   0  0  0  0  0  0
  -24.1575  -13.0377   20.9242 C   0  0  0  0  0  0
  -24.6290  -11.6894   20.8705 C   0  0  0  0  0  0
  -23.9052  -10.4251   21.0391 C   0  0  0  0  0  0
  -24.3622   -9.4163   21.9157 C   0  0  0  0  0  0
  -23.6294   -8.2199   22.0731 C   0  0  0  0  0  0
  -22.4272   -8.0243   21.3529 C   0  0  0  0  0  0
  -21.9908   -9.0211   20.4630 C   0  0  0  0  0  0
  -22.7237  -10.2086   20.3034 C   0  0  0  0  0  0
  -21.6859   -6.0706   22.5272 C   0  0  0  0  0  0
  -21.4022   -6.5619   23.8197 C   0  0  0  0  0  0
  -21.3660   -5.6777   24.9162 C   0  0  0  0  0  0
  -21.6048   -4.3038   24.7225 C   0  0  0  0  0  0
  -21.8819   -3.8124   23.4348 C   0  0  0  0  0  0
  -21.9191   -4.6934   22.3401 C   0  0  0  0  0  0
  -22.7623  -13.5113   21.1963 C   0  0  0  0  0  0
  -22.1656   -4.2113   21.0977 F   0  0  0  0  0  0
  -21.5640   -3.4532   25.7744 F   0  0  0  0  0  0
  -29.6543  -14.2686   20.4229 N   0  0  0  0  0  0
  -26.2450  -12.9508   20.2961 N   0  0  0  0  0  0
  -25.9176  -11.6608   20.5505 N   0  0  0  0  0  0
  -22.0375  -12.8053   22.0553 N   0  0  0  0  0  0
  -25.3777  -15.1986   20.4262 N   0  0  0  0  0  0
  -31.1985  -15.7618   20.3367 O   0  0  0  0  0  0
  -21.6632   -6.8847   21.4235 O   0  0  0  0  0  0
  -22.3277  -14.5421   20.6832 O   0  0  0  0  0  0
  -24.6817  -31.6949   23.2968 C   0  0  0  0  0  0
  -25.9343  -32.3995   23.8758 C   0  0  1  0  0  0
  -27.6638  -27.1706   19.6255 C   0  0  0  0  0  0
  -25.5857  -33.8007   24.1948 N   0  0  0  0  0  0
  -23.3421  -30.1038   21.6876 C   0  0  2  0  0  0
  -25.1628  -28.2419   19.7005 C   0  0  0  0  0  0
  -22.4874  -29.4955   22.7513 C   0  0  0  0  0  0
  -17.9512  -28.1265   22.8391 C   0  0  0  0  0  0
  -24.1565  -36.7016   23.2594 C   0  0  0  0  0  0
  -26.4022  -29.9525   22.0435 C   0  0  0  0  0  0
  -26.5383  -28.7652   20.5925 C   0  0  0  0  0  0
  -27.6704  -28.0992   20.6192 C   0  0  0  0  0  0
  -26.5258  -26.5452   19.0325 C   0  0  0  0  0  0
  -25.2381  -27.0631   19.0638 C   0  0  0  0  0  0
  -23.4253  -28.8754   20.1743 C   0  0  0  0  0  0
  -25.4174  -36.2623   24.0183 C   0  0  1  0  0  0
  -20.4569  -28.3187   23.1809 C   0  0  2  0  0  0
  -20.5915  -26.9108   22.5598 C   0  0  0  0  0  0
  -19.5186  -26.6285   21.5160 C   0  0  0  0  0  0
  -18.1306  -26.7826   22.1443 C   0  0  0  0  0  0
  -19.0594  -28.8594   23.3093 C   0  0  0  0  0  0
  -18.8796  -30.1262   23.9096 C   0  0  0  0  0  0
  -17.5879  -30.6583   24.0617 C   0  0  0  0  0  0
  -25.9086  -34.8946   23.4895 C   0  0  0  0  0  0
  -16.4777  -29.9175   23.6144 C   0  0  0  0  0  0
  -16.6605  -28.6592   23.0105 C   0  0  0  0  0  0
  -26.4615  -31.6800   25.1777 C   0  0  0  0  0  0
  -25.3484  -31.4563   26.2284 C   0  0  0  0  0  0
  -27.1186  -30.3095   24.9381 C   0  0  0  0  0  0
  -27.5868  -32.5295   25.7947 C   0  0  0  0  0  0
  -27.5523  -37.1620   24.8438 C   0  0  0  0  0  0
  -21.2407  -29.2574   22.4216 N   0  0  0  0  0  0
  -26.4294  -37.3376   23.9332 N   0  0  0  0  0  0
  -24.8128  -30.5978   22.4942 N   0  0  0  0  0  0
  -23.0121  -29.0426   23.7681 O   0  0  0  0  0  0
  -28.5795  -27.6070   18.7494 O   0  0  0  0  0  0
  -26.5715  -34.8383   22.4518 O   0  0  0  0  0  0
  -23.5689  -32.1467   23.6129 O   0  0  0  0  0  0
  -24.6653  -30.8700   18.8194 C   0  0  0  0  0  0
  -25.0965  -30.5080   20.1456 C   0  0  0  0  0  0
  -26.8428  -30.9701   18.8201 C   0  0  0  0  0  0
  -28.2134  -30.3150   18.5558 C   0  0  0  0  0  0
  -27.8801  -28.8865   16.4588 C   0  0  0  0  0  0
  -26.0775  -30.9397   16.5416 C   0  0  0  0  0  0
  -26.5237  -29.5590   15.9336 C   0  0  2  0  0  0
  -28.0425  -28.8369   17.9954 C   0  0  2  0  0  0
  -22.6741  -24.4705   15.0164 C   0  0  0  0  0  0
  -24.8312  -28.1555   21.9491 C   0  0  0  0  0  0
  -28.8381  -17.2852   20.5870 C   0  0  0  0  0  0
  -25.2547  -28.6793   15.9890 C   0  0  0  0  0  0
  -23.8994  -25.2961   14.5952 C   0  0  0  0  0  0
  -25.5810  -26.2229   22.0261 C   0  0  0  0  0  0
  -28.5622  -19.1726   21.2222 C   0  0  0  0  0  0
  -25.2786  -27.3841   15.1784 C   0  0  0  0  0  0
  -23.9429  -26.6417   15.3205 C   0  0  0  0  0  0
  -26.3504  -24.5211   21.2421 C   0  0  0  0  0  0
  -27.6039  -20.9056   20.8611 C   0  0  0  0  0  0
  -26.9893  -22.6569   21.6429 C   0  0  0  0  0  0
  -25.8148  -30.9646   18.0074 N   0  0  0  0  0  0
  -26.2458  -31.3446   19.9546 N   0  3  0  0  0  0
  -31.3626  -13.5075   19.3070 H   0  0  0  0  0  0
  -30.5754  -12.2967   20.2672 H   0  0  0  0  0  0
  -30.0477  -11.8847   17.8644 H   0  0  0  0  0  0
  -29.5393  -13.5387   17.6578 H   0  0  0  0  0  0
  -28.1260  -11.3157   19.1431 H   0  0  0  0  0  0
  -27.4806  -12.3237   17.8634 H   0  0  0  0  0  0
  -27.4423  -14.2451   19.2839 H   0  0  0  0  0  0
  -28.7762  -12.6496   21.5169 H   0  0  0  0  0  0
  -28.0255  -14.2139   21.7199 H   0  0  0  0  0  0
  -25.2781   -9.5626   22.4707 H   0  0  0  0  0  0
  -23.9998   -7.4590   22.7452 H   0  0  0  0  0  0
  -21.0828   -8.8730   19.8951 H   0  0  0  0  0  0
  -22.3700  -10.9607   19.6124 H   0  0  0  0  0  0
  -21.2023   -7.6127   23.9687 H   0  0  0  0  0  0
  -21.1489   -6.0513   25.9061 H   0  0  0  0  0  0
  -22.0609   -2.7586   23.2858 H   0  0  0  0  0  0
  -22.4104  -11.9731   22.4874 H   0  0  0  0  0  0
  -21.0984  -13.0983   22.2847 H   0  0  0  0  0  0
  -24.6073  -15.8467   20.5507 H   0  0  0  0  0  0
  -26.2150  -15.6449   20.0754 H   0  0  0  0  0  0
  -26.7238  -32.4023   23.1267 H   0  0  0  0  0  0
  -24.9925  -33.9279   24.9990 H   0  0  0  0  0  0
  -22.8124  -31.0094   21.3631 H   0  0  0  0  0  0
  -23.3684  -35.9488   23.3199 H   0  0  0  0  0  0
  -24.3725  -36.8759   22.2044 H   0  0  0  0  0  0
  -23.7462  -37.6223   23.6718 H   0  0  0  0  0  0
  -27.1984  -30.7005   22.0192 H   0  0  0  0  0  0
  -26.8313  -29.2982   22.7923 H   0  0  0  0  0  0
  -28.5572  -28.5085   21.0748 H   0  0  0  0  0  0
  -26.7176  -25.7617   18.3149 H   0  0  0  0  0  0
  -24.3994  -26.5957   18.5643 H   0  0  0  0  0  0
  -22.8446  -29.2370   19.3253 H   0  0  0  0  0  0
  -22.7902  -28.0036   20.3602 H   0  0  0  0  0  0
  -25.1380  -36.1371   25.0660 H   0  0  0  0  0  0
  -20.7920  -28.2447   24.2199 H   0  0  0  0  0  0
  -20.4801  -26.1763   23.3536 H   0  0  0  0  0  0
  -21.5873  -26.7389   22.1539 H   0  0  0  0  0  0
  -19.6397  -25.6265   21.1016 H   0  0  0  0  0  0
  -19.6311  -27.3242   20.6866 H   0  0  0  0  0  0
  -17.3671  -26.6638   21.3727 H   0  0  0  0  0  0
  -17.9690  -25.9919   22.8790 H   0  0  0  0  0  0
  -19.7330  -30.6909   24.2565 H   0  0  0  0  0  0
  -17.4458  -31.6268   24.5264 H   0  0  0  0  0  0
  -15.4788  -30.3190   23.7366 H   0  0  0  0  0  0
  -15.7947  -28.1068   22.6675 H   0  0  0  0  0  0
  -24.5746  -30.7662   25.8905 H   0  0  0  0  0  0
  -24.8495  -32.3911   26.4859 H   0  0  0  0  0  0
  -25.7466  -31.0481   27.1573 H   0  0  0  0  0  0
  -26.3931  -29.5182   24.7446 H   0  0  0  0  0  0
  -27.6312  -29.9755   25.8403 H   0  0  0  0  0  0
  -27.9221  -30.3576   24.2052 H   0  0  0  0  0  0
  -27.2241  -33.4910   26.1501 H   0  0  0  0  0  0
  -28.3660  -32.7330   25.0607 H   0  0  0  0  0  0
  -28.0437  -32.0399   26.6548 H   0  0  0  0  0  0
  -28.2422  -37.9993   24.7375 H   0  0  0  0  0  0
  -28.1108  -36.2475   24.6394 H   0  0  0  0  0  0
  -27.2186  -37.1384   25.8818 H   0  0  0  0  0  0
  -20.9026  -29.5776   21.5260 H   0  0  0  0  0  0
  -26.0029  -38.2389   24.1263 H   0  0  0  0  0  0
  -23.7437  -30.7031   18.2760 H   0  0  0  0  0  0
  -28.8007  -30.3434   19.4689 H   0  0  0  0  0  0
  -28.7342  -30.9490   17.8438 H   0  0  0  0  0  0
  -28.7329  -29.4265   16.0469 H   0  0  0  0  0  0
  -27.9746  -27.8773   16.0678 H   0  0  0  0  0  0
  -25.1906  -31.3304   16.0384 H   0  0  0  0  0  0
  -26.8431  -31.6878   16.3224 H   0  0  0  0  0  0
  -26.7074  -29.7468   14.8737 H   0  0  0  0  0  0
  -26.9848  -28.7066   18.0921 H   0  0  0  0  0  0
  -22.6509  -23.5016   14.5112 H   0  0  0  0  0  0
  -21.7376  -24.9879   14.7920 H   0  0  0  0  0  0
  -22.6865  -24.2707   16.0919 H   0  0  0  0  0  0
  -23.8673  -27.6588   22.0090 H   0  0  0  0  0  0
  -25.0261  -28.3258   23.0126 H   0  0  0  0  0  0
  -28.8151  -17.4559   19.5124 H   0  0  0  0  0  0
  -27.8630  -16.8362   20.7874 H   0  0  0  0  0  0
  -24.4097  -29.2752   15.6356 H   0  0  0  0  0  0
  -24.9976  -28.4680   17.0170 H   0  0  0  0  0  0
  -23.8937  -25.4519   13.5153 H   0  0  0  0  0  0
  -24.8019  -24.7294   14.8210 H   0  0  0  0  0  0
  -24.7218  -25.7467   22.5137 H   0  0  0  0  0  0
  -26.2815  -26.3549   22.8540 H   0  0  0  0  0  0
  -29.5899  -19.5229   21.2719 H   0  0  0  0  0  0
  -28.3153  -19.0135   22.2754 H   0  0  0  0  0  0
  -26.0969  -26.7482   15.5159 H   0  0  0  0  0  0
  -25.4707  -27.6209   14.1335 H   0  0  0  0  0  0
  -23.7419  -26.4856   16.3787 H   0  0  0  0  0  0
  -23.1318  -27.2692   14.9544 H   0  0  0  0  0  0
  -27.3112  -24.9169   20.9268 H   0  0  0  0  0  0
  -25.7908  -24.3648   20.3165 H   0  0  0  0  0  0
  -26.6766  -20.5546   20.4060 H   0  0  0  0  0  0
  -28.1607  -21.2533   19.9919 H   0  0  0  0  0  0
  -27.8001  -22.8862   22.3303 H   0  0  0  0  0  0
  -26.1913  -22.3140   22.3025 H   0  0  0  0  0  0
  -26.8255  -31.5747   20.7470 H   0  0  0  0  0  0
  1 25  1  0  0  0
  1 30  2  0  0  0
  1 81  1  0  0  0
  2  3  1  0  0  0
  2 25  1  0  0  0
  2 93  1  0  0  0
  2 94  1  0  0  0
  3  4  1  0  0  0
  3 95  1  0  0  0
  3 96  1  0  0  0
  4  5  1  0  0  0
  4 97  1  0  0  0
  4 98  1  0  0  0
  5  6  1  0  0  0
  5 26  1  0  0  0
  5 99  1  0  0  0
  6 25  1  0  0  0
  6100  1  0  0  0
  6101  1  0  0  0
  7  8  2  0  0  0
  7 26  1  0  0  0
  7 29  1  0  0  0
  8  9  1  0  0  0
  8 22  1  0  0  0
  9 10  1  0  0  0
  9 27  2  0  0  0
 10 11  2  0  0  0
 10 15  1  0  0  0
 11 12  1  0  0  0
 11102  1  0  0  0
 12 13  2  0  0  0
 12103  1  0  0  0
 13 14  1  0  0  0
 13 31  1  0  0  0
 14 15  2  0  0  0
 14104  1  0  0  0
 15105  1  0  0  0
 16 17  2  0  0  0
 16 21  1  0  0  0
 16 31  1  0  0  0
 17 18  1  0  0  0
 17106  1  0  0  0
 18 19  2  0  0  0
 18107  1  0  0  0
 19 20  1  0  0  0
 19 24  1  0  0  0
 20 21  2  0  0  0
 20108  1  0  0  0
 21 23  1  0  0  0
 22 28  1  0  0  0
 22 32  2  0  0  0
 26 27  1  0  0  0
 28109  1  0  0  0
 28110  1  0  0  0
 29111  1  0  0  0
 29112  1  0  0  0
 33 34  1  0  0  0
 33 66  1  0  0  0
 33 70  2  0  0  0
 34 36  1  0  0  0
 34 59  1  0  0  0
 34113  1  0  0  0
 35 44  2  0  0  0
 35 45  1  0  0  0
 35 68  1  0  0  0
 36 56  1  0  0  0
 36114  1  0  0  0
 37 39  1  0  0  0
 37 47  1  0  0  0
 37 66  1  0  0  0
 37115  1  0  0  0
 38 43  2  0  0  0
 38 46  1  0  0  0
 38 47  1  0  0  0
 39 64  1  0  0  0
 39 67  2  0  0  0
 40 52  1  0  0  0
 40 53  2  0  0  0
 40 58  1  0  0  0
 41116  1  0  0  0
 41117  1  0  0  0
 41118  1  0  0  0
 41 48  1  0  0  0
 42 43  1  0  0  0
 42 66  1  0  0  0
 42119  1  0  0  0
 42120  1  0  0  0
 43 44  1  0  0  0
 44121  1  0  0  0
 45 46  2  0  0  0
 45122  1  0  0  0
 46123  1  0  0  0
 47124  1  0  0  0
 47125  1  0  0  0
 48 56  1  0  0  0
 48 65  1  0  0  0
 48126  1  0  0  0
 49 50  1  0  0  0
 49 53  1  0  0  0
 49 64  1  0  0  0
 49127  1  0  0  0
 50 51  1  0  0  0
 50128  1  0  0  0
 50129  1  0  0  0
 51 52  1  0  0  0
 51130  1  0  0  0
 51131  1  0  0  0
 52132  1  0  0  0
 52133  1  0  0  0
 53 54  1  0  0  0
 54 55  2  0  0  0
 54134  1  0  0  0
 55 57  1  0  0  0
 55135  1  0  0  0
 56 69  2  0  0  0
 57 58  2  0  0  0
 57136  1  0  0  0
 58137  1  0  0  0
 59 60  1  0  0  0
 59 61  1  0  0  0
 59 62  1  0  0  0
 60138  1  0  0  0
 60139  1  0  0  0
 60140  1  0  0  0
 61141  1  0  0  0
 61142  1  0  0  0
 61143  1  0  0  0
 62144  1  0  0  0
 62145  1  0  0  0
 62146  1  0  0  0
 63 65  1  0  0  0
 63147  1  0  0  0
 63148  1  0  0  0
 63149  1  0  0  0
 64150  1  0  0  0
 65151  1  0  0  0
 68 78  1  0  0  0
 71 72  2  0  0  0
 71 91  1  0  0  0
 71152  1  0  0  0
 72 80  1  0  0  0
 72 92  1  0  0  0
 73 74  1  0  0  0
 73 91  1  0  0  0
 73 92  2  0  0  0
 74 78  1  0  0  0
 74153  1  0  0  0
 74154  1  0  0  0
 75 77  1  0  0  0
 75 78  1  0  0  0
 75155  1  0  0  0
 75156  1  0  0  0
 76 77  1  0  0  0
 76 91  1  0  0  0
 76157  1  0  0  0
 76158  1  0  0  0
 77 82  1  0  0  0
 77159  1  0  0  0
 78160  1  0  0  0
 79 83  1  0  0  0
 79161  1  0  0  0
 79162  1  0  0  0
 79163  1  0  0  0
 80 84  1  0  0  0
 80164  1  0  0  0
 80165  1  0  0  0
 81 85  1  0  0  0
 81166  1  0  0  0
 81167  1  0  0  0
 82 86  1  0  0  0
 82168  1  0  0  0
 82169  1  0  0  0
 83 87  1  0  0  0
 83170  1  0  0  0
 83171  1  0  0  0
 84 88  1  0  0  0
 84172  1  0  0  0
 84173  1  0  0  0
 85 89  1  0  0  0
 85174  1  0  0  0
 85175  1  0  0  0
 86 87  1  0  0  0
 86176  1  0  0  0
 86177  1  0  0  0
 87178  1  0  0  0
 87179  1  0  0  0
 88 90  1  0  0  0
 88180  1  0  0  0
 88181  1  0  0  0
 89 90  1  0  0  0
 89182  1  0  0  0
 89183  1  0  0  0
 90184  1  0  0  0
 90185  1  0  0  0
 92186  1  0  0  0
M  CHG  1  92   1
M  ISO  4   1 100  68 101  78 101  81 100
M  END
> <chiral flag>
0

> <version>
0

> <s_m_source_file>
/data/baiqing/PycharmProjects/Reinvent-master-3.2/result/LINK_invent/BTK/process_docking_weight1_custom_sum_contain_oxygen_bond_distance_aromatic_linkinvent_7_9_3/rearranged_h_0040.sdf

> <i_m_source_file_index>
89

> <r_mmod_Potential_Energy-OPLS-2005>
11012.220703125

> <r_mmod_Stretch_Energy-OPLS-2005>
5852.6845703125

> <r_mmod_Bend_Energy-OPLS-2005>
1212.77307128906

> <r_mmod_Torsional_Energy-OPLS-2005>
612.130432128906

> <r_mmod_Improper_Torsional_Energy-OPLS-2005>
49.8220672607422

> <r_mmod_Van_der_Waal_Energy-OPLS-2005>
2060.23876953125

> <r_mmod_Electrostatic_Energy-OPLS-2005>
-168.609298706055

> <r_mmod_Solvation_Energy-OPLS-2005>
-349.017547607422

> <b_mmod_Minimization_Converged-OPLS-2005>
0

> <r_mmod_RMS_Derivative-OPLS-2005>
10.8901643753052

$$$$
89
                    3D
 Structure written by MMmdl.
160168  0  0  1  0            999 V2000
  -30.6683  -14.5188   20.5320 C   0  0  0  0  0  0
  -30.4267  -12.3261   19.4209 C   0  0  0  0  0  0
  -29.4953  -12.5117   18.2033 C   0  0  0  0  0  0
  -28.0161  -12.3603   18.6183 C   0  0  0  0  0  0
  -27.6572  -13.2089   19.8685 C   0  0  2  0  0  0
  -28.7030  -13.0058   20.9894 C   0  0  0  0  0  0
  -25.2575  -13.8176   20.5659 C   0  0  0  0  0  0
  -24.1835  -13.0447   20.9168 C   0  0  0  0  0  0
  -24.6407  -11.6912   20.8733 C   0  0  0  0  0  0
  -23.9076  -10.4293   21.0417 C   0  0  0  0  0  0
  -24.3624   -9.4209   21.9193 C   0  0  0  0  0  0
  -23.6292   -8.2247   22.0765 C   0  0  0  0  0  0
  -22.4269   -8.0299   21.3559 C   0  0  0  0  0  0
  -21.9914   -9.0267   20.4657 C   0  0  0  0  0  0
  -22.7254  -10.2141   20.3065 C   0  0  0  0  0  0
  -21.6844   -6.0748   22.5277 C   0  0  0  0  0  0
  -21.4005   -6.5635   23.8221 C   0  0  0  0  0  0
  -21.3661   -5.6788   24.9176 C   0  0  0  0  0  0
  -21.6049   -4.3051   24.7222 C   0  0  0  0  0  0
  -21.8814   -3.8154   23.4333 C   0  0  0  0  0  0
  -21.9185   -4.6972   22.3402 C   0  0  0  0  0  0
  -22.7856  -13.5224   21.1847 C   0  0  0  0  0  0
  -22.1654   -4.2157   21.0975 F   0  0  0  0  0  0
  -21.5640   -3.4544   25.7738 F   0  0  0  0  0  0
  -30.0266  -13.3221   20.4277 N   0  0  0  0  0  0
  -26.3005  -12.9331   20.3336 N   0  0  0  0  0  0
  -25.9321  -11.6489   20.5752 N   0  0  0  0  0  0
  -22.0493  -12.8222   22.0417 N   0  0  0  0  0  0
  -25.4290  -15.1889   20.4042 N   0  0  0  0  0  0
  -31.8187  -14.6995   20.1233 O   0  0  0  0  0  0
  -21.6632   -6.8898   21.4247 O   0  0  0  0  0  0
  -22.3532  -14.5533   20.6709 O   0  0  0  0  0  0
  -24.6190  -31.8646   23.2103 C   0  0  0  0  0  0
  -25.9076  -32.4793   23.8411 C   0  0  1  0  0  0
  -27.2333  -27.4000   20.0702 C   0  0  0  0  0  0
  -25.5940  -33.8597   24.2318 N   0  0  0  0  0  0
  -23.4076  -30.4902   21.5504 C   0  0  2  0  0  0
  -24.8531  -28.9561   20.1127 C   0  0  0  0  0  0
  -22.7439  -29.4632   22.4981 C   0  0  0  0  0  0
  -18.0262  -28.1332   22.8484 C   0  0  0  0  0  0
  -24.1493  -36.7307   23.2640 C   0  0  0  0  0  0
  -25.9432  -30.8092   21.3796 C   0  0  0  0  0  0
  -26.0149  -29.4437   20.7215 C   0  0  0  0  0  0
  -27.2019  -28.6685   20.7071 C   0  0  0  0  0  0
  -26.0485  -26.9478   19.4496 C   0  0  0  0  0  0
  -24.8660  -27.7052   19.4785 C   0  0  0  0  0  0
  -23.6183  -29.8259   20.1642 C   0  0  0  0  0  0
  -25.4120  -36.3088   24.0320 C   0  0  1  0  0  0
  -20.5850  -28.3642   23.1281 C   0  0  2  0  0  0
  -20.6773  -26.9369   22.5393 C   0  0  0  0  0  0
  -19.5750  -26.6334   21.5198 C   0  0  0  0  0  0
  -18.1911  -26.7875   22.1602 C   0  0  0  0  0  0
  -19.1511  -28.8811   23.2872 C   0  0  0  0  0  0
  -18.9456  -30.1421   23.8884 C   0  0  0  0  0  0
  -17.6460  -30.6555   24.0549 C   0  0  0  0  0  0
  -25.9058  -34.9451   23.5108 C   0  0  0  0  0  0
  -16.5348  -29.9039   23.6346 C   0  0  0  0  0  0
  -16.7254  -28.6450   23.0368 C   0  0  0  0  0  0
  -26.4500  -31.6603   25.0766 C   0  0  0  0  0  0
  -25.3755  -31.3682   26.1513 C   0  0  0  0  0  0
  -27.0395  -30.3052   24.6188 C   0  0  0  0  0  0
  -27.6028  -32.4396   25.7538 C   0  0  0  0  0  0
  -27.5567  -37.1806   24.8457 C   0  0  0  0  0  0
  -21.4152  -29.3030   22.3733 N   0  0  0  0  0  0
  -26.4291  -37.3781   23.9401 N   0  0  0  0  0  0
  -24.6735  -31.0714   22.1028 N   0  0  0  0  0  0
  -23.4198  -28.8157   23.3027 O   0  0  0  0  0  0
  -28.3996  -26.6458   20.0927 O   0  0  0  0  0  0
  -26.5588  -34.8895   22.4654 O   0  0  0  0  0  0
  -23.5367  -32.1436   23.7458 O   0  0  0  0  0  0
  -29.2435  -23.1089   19.6435 C   0  0  0  0  0  0
  -28.7603  -21.7668   19.6115 C   0  0  0  0  0  0
  -28.2933  -24.1475   19.3948 C   0  0  0  0  0  0
  -26.6404  -22.5549   19.2348 C   0  0  0  0  0  0
  -30.7184  -23.4299   19.8558 C   0  0  0  0  0  0
  -25.1865  -22.2417   18.9524 C   0  0  0  0  0  0
  -29.6251  -20.4849   19.6090 C   0  0  0  0  0  0
  -28.6569  -25.6303   19.0861 C   0  0  0  0  0  0
  -29.3373  -19.4600   20.7560 C   0  0  0  0  0  0
  -29.2563  -17.9425   20.3604 C   0  0  0  0  0  0
  -30.2640  -16.9835   21.0645 C   0  0  0  0  0  0
  -27.4554  -21.5260   19.4014 N   0  0  0  0  0  0
  -26.9974  -23.8297   19.2138 N   0  0  0  0  0  0
  -29.9006  -15.5504   20.9507 N   0  0  0  0  0  0
  -31.4719  -12.4299   19.1245 H   0  0  0  0  0  0
  -30.3328  -11.3178   19.8272 H   0  0  0  0  0  0
  -29.7455  -11.7929   17.4212 H   0  0  0  0  0  0
  -29.6496  -13.4995   17.7665 H   0  0  0  0  0  0
  -27.8355  -11.3053   18.8241 H   0  0  0  0  0  0
  -27.3605  -12.6205   17.7863 H   0  0  0  0  0  0
  -27.6909  -14.2544   19.5577 H   0  0  0  0  0  0
  -28.6917  -11.9712   21.3351 H   0  0  0  0  0  0
  -28.4708  -13.6102   21.8692 H   0  0  0  0  0  0
  -25.2777   -9.5658   22.4765 H   0  0  0  0  0  0
  -23.9999   -7.4635   22.7483 H   0  0  0  0  0  0
  -21.0854   -8.8797   19.8956 H   0  0  0  0  0  0
  -22.3746  -10.9682   19.6165 H   0  0  0  0  0  0
  -21.1987   -7.6137   23.9720 H   0  0  0  0  0  0
  -21.1492   -6.0521   25.9087 H   0  0  0  0  0  0
  -22.0592   -2.7615   23.2833 H   0  0  0  0  0  0
  -22.4094  -11.9869   22.4788 H   0  0  0  0  0  0
  -21.1121  -13.1256   22.2644 H   0  0  0  0  0  0
  -24.6599  -15.8414   20.5098 H   0  0  0  0  0  0
  -26.2795  -15.6302   20.0776 H   0  0  0  0  0  0
  -26.7126  -32.5470   23.1144 H   0  0  0  0  0  0
  -25.0225  -33.9802   25.0547 H   0  0  0  0  0  0
  -22.6946  -31.3046   21.4085 H   0  0  0  0  0  0
  -23.3741  -35.9654   23.3310 H   0  0  0  0  0  0
  -24.3572  -36.8938   22.2055 H   0  0  0  0  0  0
  -23.7276  -37.6513   23.6684 H   0  0  0  0  0  0
  -26.0731  -31.5727   20.6132 H   0  0  0  0  0  0
  -26.8254  -30.8533   22.0072 H   0  0  0  0  0  0
  -28.1015  -29.0409   21.1787 H   0  0  0  0  0  0
  -26.0019  -26.0062   18.9324 H   0  0  0  0  0  0
  -23.9762  -27.3256   18.9954 H   0  0  0  0  0  0
  -23.7236  -30.6026   19.4065 H   0  0  0  0  0  0
  -22.7427  -29.2442   19.8692 H   0  0  0  0  0  0
  -25.1287  -36.1943   25.0808 H   0  0  0  0  0  0
  -20.9923  -28.3196   24.1405 H   0  0  0  0  0  0
  -20.5682  -26.2236   23.3593 H   0  0  0  0  0  0
  -21.6641  -26.7401   22.1173 H   0  0  0  0  0  0
  -19.6935  -25.6240   21.1238 H   0  0  0  0  0  0
  -19.6693  -27.3144   20.6733 H   0  0  0  0  0  0
  -17.4194  -26.6634   21.3987 H   0  0  0  0  0  0
  -18.0300  -25.9969   22.8953 H   0  0  0  0  0  0
  -19.7942  -30.7235   24.2219 H   0  0  0  0  0  0
  -17.5019  -31.6239   24.5143 H   0  0  0  0  0  0
  -15.5358  -30.2943   23.7684 H   0  0  0  0  0  0
  -15.8641  -28.0780   22.7092 H   0  0  0  0  0  0
  -24.5953  -30.6995   25.7862 H   0  0  0  0  0  0
  -24.8926  -32.2824   26.4982 H   0  0  0  0  0  0
  -25.8133  -30.8861   27.0268 H   0  0  0  0  0  0
  -26.2973  -29.6744   24.1292 H   0  0  0  0  0  0
  -27.4222  -29.7356   25.4673 H   0  0  0  0  0  0
  -27.8755  -30.4381   23.9317 H   0  0  0  0  0  0
  -27.2598  -33.3710   26.2059 H   0  0  0  0  0  0
  -28.3860  -32.6968   25.0395 H   0  0  0  0  0  0
  -28.0666  -31.8581   26.5525 H   0  0  0  0  0  0
  -28.2565  -38.0118   24.7536 H   0  0  0  0  0  0
  -28.1088  -36.2656   24.6266 H   0  0  0  0  0  0
  -27.2274  -37.1415   25.8851 H   0  0  0  0  0  0
  -20.9332  -29.8817   21.6989 H   0  0  0  0  0  0
  -26.0160  -38.2844   24.1417 H   0  0  0  0  0  0
  -31.2294  -22.6666   20.4427 H   0  0  0  0  0  0
  -30.8375  -24.3631   20.4087 H   0  0  0  0  0  0
  -31.2393  -23.5335   18.9021 H   0  0  0  0  0  0
  -24.9255  -21.2362   19.2856 H   0  0  0  0  0  0
  -25.0026  -22.2998   17.8796 H   0  0  0  0  0  0
  -24.5257  -22.9502   19.4521 H   0  0  0  0  0  0
  -30.6874  -20.7202   19.5926 H   0  0  0  0  0  0
  -29.4408  -20.0044   18.6471 H   0  0  0  0  0  0
  -28.1854  -25.9164   18.1435 H   0  0  0  0  0  0
  -29.7207  -25.6867   18.8640 H   0  0  0  0  0  0
  -28.3684  -19.7145   21.1880 H   0  0  0  0  0  0
  -30.0451  -19.6189   21.5697 H   0  0  0  0  0  0
  -29.3350  -17.8201   19.2805 H   0  0  0  0  0  0
  -28.2491  -17.6033   20.6072 H   0  0  0  0  0  0
  -30.2937  -17.2141   22.1296 H   0  0  0  0  0  0
  -31.2691  -17.1673   20.6814 H   0  0  0  0  0  0
  -28.9607  -15.2993   21.2219 H   0  0  0  0  0  0
  1 25  1  0  0  0
  1 30  2  0  0  0
  1 84  1  0  0  0
  2  3  1  0  0  0
  2 25  1  0  0  0
  2 85  1  0  0  0
  2 86  1  0  0  0
  3  4  1  0  0  0
  3 87  1  0  0  0
  3 88  1  0  0  0
  4  5  1  0  0  0
  4 89  1  0  0  0
  4 90  1  0  0  0
  5  6  1  0  0  0
  5 26  1  0  0  0
  5 91  1  0  0  0
  6 25  1  0  0  0
  6 92  1  0  0  0
  6 93  1  0  0  0
  7  8  2  0  0  0
  7 26  1  0  0  0
  7 29  1  0  0  0
  8  9  1  0  0  0
  8 22  1  0  0  0
  9 10  1  0  0  0
  9 27  2  0  0  0
 10 11  2  0  0  0
 10 15  1  0  0  0
 11 12  1  0  0  0
 11 94  1  0  0  0
 12 13  2  0  0  0
 12 95  1  0  0  0
 13 14  1  0  0  0
 13 31  1  0  0  0
 14 15  2  0  0  0
 14 96  1  0  0  0
 15 97  1  0  0  0
 16 17  2  0  0  0
 16 21  1  0  0  0
 16 31  1  0  0  0
 17 18  1  0  0  0
 17 98  1  0  0  0
 18 19  2  0  0  0
 18 99  1  0  0  0
 19 20  1  0  0  0
 19 24  1  0  0  0
 20 21  2  0  0  0
 20100  1  0  0  0
 21 23  1  0  0  0
 22 28  1  0  0  0
 22 32  2  0  0  0
 26 27  1  0  0  0
 28101  1  0  0  0
 28102  1  0  0  0
 29103  1  0  0  0
 29104  1  0  0  0
 33 34  1  0  0  0
 33 66  1  0  0  0
 33 70  2  0  0  0
 34 36  1  0  0  0
 34 59  1  0  0  0
 34105  1  0  0  0
 35 44  2  0  0  0
 35 45  1  0  0  0
 35 68  1  0  0  0
 36 56  1  0  0  0
 36106  1  0  0  0
 37 39  1  0  0  0
 37 47  1  0  0  0
 37 66  1  0  0  0
 37107  1  0  0  0
 38 43  2  0  0  0
 38 46  1  0  0  0
 38 47  1  0  0  0
 39 64  1  0  0  0
 39 67  2  0  0  0
 40 52  1  0  0  0
 40 53  2  0  0  0
 40 58  1  0  0  0
 41108  1  0  0  0
 41109  1  0  0  0
 41110  1  0  0  0
 41 48  1  0  0  0
 42 43  1  0  0  0
 42 66  1  0  0  0
 42111  1  0  0  0
 42112  1  0  0  0
 43 44  1  0  0  0
 44113  1  0  0  0
 45 46  2  0  0  0
 45114  1  0  0  0
 46115  1  0  0  0
 47116  1  0  0  0
 47117  1  0  0  0
 48 56  1  0  0  0
 48 65  1  0  0  0
 48118  1  0  0  0
 49 50  1  0  0  0
 49 53  1  0  0  0
 49 64  1  0  0  0
 49119  1  0  0  0
 50 51  1  0  0  0
 50120  1  0  0  0
 50121  1  0  0  0
 51 52  1  0  0  0
 51122  1  0  0  0
 51123  1  0  0  0
 52124  1  0  0  0
 52125  1  0  0  0
 53 54  1  0  0  0
 54 55  2  0  0  0
 54126  1  0  0  0
 55 57  1  0  0  0
 55127  1  0  0  0
 56 69  2  0  0  0
 57 58  2  0  0  0
 57128  1  0  0  0
 58129  1  0  0  0
 59 60  1  0  0  0
 59 61  1  0  0  0
 59 62  1  0  0  0
 60130  1  0  0  0
 60131  1  0  0  0
 60132  1  0  0  0
 61133  1  0  0  0
 61134  1  0  0  0
 61135  1  0  0  0
 62136  1  0  0  0
 62137  1  0  0  0
 62138  1  0  0  0
 63 65  1  0  0  0
 63139  1  0  0  0
 63140  1  0  0  0
 63141  1  0  0  0
 64142  1  0  0  0
 65143  1  0  0  0
 68 78  1  0  0  0
 71 72  2  0  0  0
 71 73  1  0  0  0
 71 75  1  0  0  0
 72 77  1  0  0  0
 72 82  1  0  0  0
 73 78  1  0  0  0
 73 83  2  0  0  0
 74 76  1  0  0  0
 74 82  2  0  0  0
 74 83  1  0  0  0
 75144  1  0  0  0
 75145  1  0  0  0
 75146  1  0  0  0
 76147  1  0  0  0
 76148  1  0  0  0
 76149  1  0  0  0
 77 79  1  0  0  0
 77150  1  0  0  0
 77151  1  0  0  0
 78152  1  0  0  0
 78153  1  0  0  0
 79 80  1  0  0  0
 79154  1  0  0  0
 79155  1  0  0  0
 80 81  1  0  0  0
 80156  1  0  0  0
 80157  1  0  0  0
 81 84  1  0  0  0
 81158  1  0  0  0
 81159  1  0  0  0
 84160  1  0  0  0
M  ISO  4   1 100  68 101  78 101  84 100
M  END
> <chiral flag>
0

> <version>
0

> <s_m_source_file>
/data/baiqing/PycharmProjects/Reinvent-master-3.2/result/LINK_invent/BTK/process_docking_weight1_custom_sum_contain_oxygen_bond_distance_aromatic_linkinvent_7_9_3/rearranged_h_0040.sdf

> <i_m_source_file_index>
90

> <r_mmod_Potential_Energy-OPLS-2005>
-394.926452636719

> <r_mmod_Stretch_Energy-OPLS-2005>
48.8462600708008

> <r_mmod_Bend_Energy-OPLS-2005>
122.409980773926

> <r_mmod_Torsional_Energy-OPLS-2005>
219.797027587891

> <r_mmod_Improper_Torsional_Energy-OPLS-2005>
5.59154462814331

> <r_mmod_Van_der_Waal_Energy-OPLS-2005>
160.963638305664

> <r_mmod_Electrostatic_Energy-OPLS-2005>
-745.461242675781

> <r_mmod_Solvation_Energy-OPLS-2005>
-226.961334228516

> <b_mmod_Minimization_Converged-OPLS-2005>
0

> <r_mmod_RMS_Derivative-OPLS-2005>
3.24148535728455

$$$$
90
                    3D
 Structure written by MMmdl.
168176  0  0  1  0            999 V2000
  -30.7211  -14.5070   20.5887 C   0  0  0  0  0  0
  -30.4179  -12.3403   19.4293 C   0  0  0  0  0  0
  -29.4912  -12.5173   18.2097 C   0  0  0  0  0  0
  -28.0139  -12.3722   18.6228 C   0  0  0  0  0  0
  -27.6565  -13.2207   19.8721 C   0  0  2  0  0  0
  -28.7005  -13.0350   20.9967 C   0  0  0  0  0  0
  -25.2550  -13.8189   20.5696 C   0  0  0  0  0  0
  -24.1815  -13.0444   20.9180 C   0  0  0  0  0  0
  -24.6387  -11.6915   20.8722 C   0  0  0  0  0  0
  -23.9060  -10.4294   21.0387 C   0  0  0  0  0  0
  -24.3611   -9.4212   21.9167 C   0  0  0  0  0  0
  -23.6295   -8.2242   22.0740 C   0  0  0  0  0  0
  -22.4274   -8.0272   21.3536 C   0  0  0  0  0  0
  -21.9906   -9.0242   20.4638 C   0  0  0  0  0  0
  -22.7229  -10.2129   20.3044 C   0  0  0  0  0  0
  -21.6860   -6.0731   22.5273 C   0  0  0  0  0  0
  -21.4014   -6.5631   23.8205 C   0  0  0  0  0  0
  -21.3660   -5.6792   24.9168 C   0  0  0  0  0  0
  -21.6051   -4.3058   24.7222 C   0  0  0  0  0  0
  -21.8818   -3.8146   23.4347 C   0  0  0  0  0  0
  -21.9190   -4.6961   22.3399 C   0  0  0  0  0  0
  -22.7835  -13.5221   21.1855 C   0  0  0  0  0  0
  -22.1663   -4.2142   21.0983 F   0  0  0  0  0  0
  -21.5632   -3.4545   25.7741 F   0  0  0  0  0  0
  -30.0283  -13.3408   20.4388 N   0  0  0  0  0  0
  -26.3001  -12.9378   20.3362 N   0  0  0  0  0  0
  -25.9319  -11.6534   20.5763 N   0  0  0  0  0  0
  -22.0500  -12.8190   22.0421 N   0  0  0  0  0  0
  -25.4271  -15.1907   20.4129 N   0  0  0  0  0  0
  -31.8422  -14.6693   20.1009 O   0  0  0  0  0  0
  -21.6641   -6.8867   21.4236 O   0  0  0  0  0  0
  -22.3503  -14.5529   20.6722 O   0  0  0  0  0  0
  -24.6188  -31.8651   23.2069 C   0  0  0  0  0  0
  -25.9067  -32.4796   23.8388 C   0  0  1  0  0  0
  -27.2357  -27.3924   20.1119 C   0  0  0  0  0  0
  -25.5910  -33.8599   24.2307 N   0  0  0  0  0  0
  -23.4072  -30.4887   21.5467 C   0  0  2  0  0  0
  -24.8559  -28.9494   20.1122 C   0  0  0  0  0  0
  -22.7408  -29.4665   22.4970 C   0  0  0  0  0  0
  -18.0266  -28.1386   22.8488 C   0  0  0  0  0  0
  -24.1483  -36.7305   23.2634 C   0  0  0  0  0  0
  -25.9406  -30.8181   21.3665 C   0  0  0  0  0  0
  -26.0182  -29.4505   20.7123 C   0  0  0  0  0  0
  -27.2091  -28.6816   20.7055 C   0  0  0  0  0  0
  -26.0546  -26.9224   19.4911 C   0  0  0  0  0  0
  -24.8726  -27.6868   19.4969 C   0  0  0  0  0  0
  -23.6171  -29.8186   20.1626 C   0  0  0  0  0  0
  -25.4105  -36.3089   24.0325 C   0  0  1  0  0  0
  -20.5856  -28.3684   23.1311 C   0  0  2  0  0  0
  -20.6763  -26.9413   22.5430 C   0  0  0  0  0  0
  -19.5753  -26.6387   21.5213 C   0  0  0  0  0  0
  -18.1913  -26.7938   22.1590 C   0  0  0  0  0  0
  -19.1515  -28.8849   23.2900 C   0  0  0  0  0  0
  -18.9448  -30.1449   23.8929 C   0  0  0  0  0  0
  -17.6453  -30.6593   24.0573 C   0  0  0  0  0  0
  -25.9040  -34.9459   23.5110 C   0  0  0  0  0  0
  -16.5342  -29.9094   23.6347 C   0  0  0  0  0  0
  -16.7259  -28.6511   23.0372 C   0  0  0  0  0  0
  -26.4488  -31.6601   25.0742 C   0  0  0  0  0  0
  -25.3758  -31.3724   26.1502 C   0  0  0  0  0  0
  -27.0301  -30.3021   24.6174 C   0  0  0  0  0  0
  -27.6100  -32.4312   25.7461 C   0  0  0  0  0  0
  -27.5590  -37.1778   24.8437 C   0  0  0  0  0  0
  -21.4130  -29.3048   22.3699 N   0  0  0  0  0  0
  -26.4278  -37.3795   23.9434 N   0  0  0  0  0  0
  -24.6745  -31.0719   22.0981 N   0  0  0  0  0  0
  -23.4158  -28.8213   23.3039 O   0  0  0  0  0  0
  -28.3929  -26.6257   20.1678 O   0  0  0  0  0  0
  -26.5601  -34.8918   22.4672 O   0  0  0  0  0  0
  -23.5374  -32.1423   23.7439 O   0  0  0  0  0  0
  -30.0344  -21.9828   21.3906 C   0  0  0  0  0  0
  -30.0799  -20.7660   20.7460 C   0  0  0  0  0  0
  -29.5516  -21.0918   19.4584 C   0  0  0  0  0  0
  -26.7178  -16.5148   16.0153 C   0  0  0  0  0  0
  -30.6837  -19.4471   21.2686 C   0  0  0  0  0  0
  -29.4093  -20.1909   18.2635 C   0  0  0  0  0  0
  -26.7245  -17.5771   17.1196 C   0  0  0  0  0  0
  -29.9670  -18.0943   20.9355 C   0  0  0  0  0  0
  -28.0745  -19.4304   18.2537 C   0  0  0  0  0  0
  -28.0784  -18.2885   17.2270 C   0  0  0  0  0  0
  -29.4551  -24.4146   20.7271 C   0  0  0  0  0  0
  -30.6742  -16.8476   21.5606 C   0  0  0  0  0  0
  -28.2783  -25.1806   20.0446 C   0  0  0  0  0  0
  -29.2041  -22.3747   19.3484 N   0  0  0  0  0  0
  -29.5143  -22.9456   20.5352 N   0  0  0  0  0  0
  -30.0897  -15.5249   21.2195 N   0  0  0  0  0  0
  -31.4614  -12.4355   19.1265 H   0  0  0  0  0  0
  -30.3215  -11.3358   19.8442 H   0  0  0  0  0  0
  -29.7363  -11.7843   17.4402 H   0  0  0  0  0  0
  -29.6525  -13.4988   17.7609 H   0  0  0  0  0  0
  -27.8288  -11.3164   18.8254 H   0  0  0  0  0  0
  -27.3630  -12.6403   17.7893 H   0  0  0  0  0  0
  -27.6893  -14.2646   19.5599 H   0  0  0  0  0  0
  -28.6851  -12.0077   21.3633 H   0  0  0  0  0  0
  -28.4552  -13.6571   21.8584 H   0  0  0  0  0  0
  -25.2755   -9.5699   22.4738 H   0  0  0  0  0  0
  -24.0016   -7.4636   22.7454 H   0  0  0  0  0  0
  -21.0838   -8.8751   19.8944 H   0  0  0  0  0  0
  -22.3672  -10.9660   19.6151 H   0  0  0  0  0  0
  -21.2002   -7.6137   23.9702 H   0  0  0  0  0  0
  -21.1489   -6.0526   25.9072 H   0  0  0  0  0  0
  -22.0597   -2.7608   23.2852 H   0  0  0  0  0  0
  -22.4144  -11.9856   22.4795 H   0  0  0  0  0  0
  -21.1113  -13.1179   22.2642 H   0  0  0  0  0  0
  -24.6621  -15.8485   20.5156 H   0  0  0  0  0  0
  -26.2847  -15.6270   20.1006 H   0  0  0  0  0  0
  -26.7140  -32.5488   23.1152 H   0  0  0  0  0  0
  -25.0089  -33.9757   25.0470 H   0  0  0  0  0  0
  -22.6994  -31.3076   21.4031 H   0  0  0  0  0  0
  -23.3764  -35.9609   23.3232 H   0  0  0  0  0  0
  -24.3598  -36.9000   22.2062 H   0  0  0  0  0  0
  -23.7202  -37.6472   23.6717 H   0  0  0  0  0  0
  -26.0609  -31.5833   20.5982 H   0  0  0  0  0  0
  -26.8249  -30.8680   21.9912 H   0  0  0  0  0  0
  -28.1035  -29.0607   21.1809 H   0  0  0  0  0  0
  -26.0262  -25.9598   19.0030 H   0  0  0  0  0  0
  -23.9799  -27.2967   19.0276 H   0  0  0  0  0  0
  -23.7226  -30.5920   19.4005 H   0  0  0  0  0  0
  -22.7416  -29.2363   19.8697 H   0  0  0  0  0  0
  -25.1272  -36.1929   25.0815 H   0  0  0  0  0  0
  -20.9953  -28.3267   24.1428 H   0  0  0  0  0  0
  -20.5652  -26.2287   23.3621 H   0  0  0  0  0  0
  -21.6642  -26.7442   22.1236 H   0  0  0  0  0  0
  -19.6921  -25.6296   21.1251 H   0  0  0  0  0  0
  -19.6720  -27.3197   20.6743 H   0  0  0  0  0  0
  -17.4199  -26.6720   21.3972 H   0  0  0  0  0  0
  -18.0301  -26.0058   22.8962 H   0  0  0  0  0  0
  -19.7924  -30.7258   24.2315 H   0  0  0  0  0  0
  -17.5004  -31.6284   24.5158 H   0  0  0  0  0  0
  -15.5344  -30.3007   23.7663 H   0  0  0  0  0  0
  -15.8646  -28.0827   22.7107 H   0  0  0  0  0  0
  -24.5947  -30.7035   25.7868 H   0  0  0  0  0  0
  -24.8933  -32.2872   26.4963 H   0  0  0  0  0  0
  -25.8132  -30.8916   27.0257 H   0  0  0  0  0  0
  -26.2842  -29.6760   24.1264 H   0  0  0  0  0  0
  -27.4060  -29.7301   25.4666 H   0  0  0  0  0  0
  -27.8688  -30.4298   23.9322 H   0  0  0  0  0  0
  -27.2804  -33.3660   26.2007 H   0  0  0  0  0  0
  -28.3919  -32.6779   25.0264 H   0  0  0  0  0  0
  -28.0752  -31.8436   26.5387 H   0  0  0  0  0  0
  -28.2545  -38.0134   24.7585 H   0  0  0  0  0  0
  -28.1147  -36.2682   24.6121 H   0  0  0  0  0  0
  -27.2336  -37.1251   25.8837 H   0  0  0  0  0  0
  -20.9292  -29.8754   21.6903 H   0  0  0  0  0  0
  -26.0142  -38.2845   24.1526 H   0  0  0  0  0  0
  -30.3831  -22.2556   22.3781 H   0  0  0  0  0  0
  -25.7449  -16.0275   15.9491 H   0  0  0  0  0  0
  -27.4647  -15.7424   16.2016 H   0  0  0  0  0  0
  -26.9314  -16.9591   15.0417 H   0  0  0  0  0  0
  -30.7903  -19.5046   22.3524 H   0  0  0  0  0  0
  -31.7077  -19.3668   20.9012 H   0  0  0  0  0  0
  -30.2461  -19.4936   18.2398 H   0  0  0  0  0  0
  -29.4959  -20.7707   17.3441 H   0  0  0  0  0  0
  -26.4708  -17.1144   18.0748 H   0  0  0  0  0  0
  -25.9438  -18.3097   16.9124 H   0  0  0  0  0  0
  -29.9329  -17.9515   19.8571 H   0  0  0  0  0  0
  -28.9335  -18.1375   21.2787 H   0  0  0  0  0  0
  -27.2626  -20.1295   18.0516 H   0  0  0  0  0  0
  -27.8741  -19.0168   19.2429 H   0  0  0  0  0  0
  -28.3575  -18.6866   16.2501 H   0  0  0  0  0  0
  -28.8487  -17.5623   17.4932 H   0  0  0  0  0  0
  -29.4286  -24.6099   21.7995 H   0  0  0  0  0  0
  -30.4001  -24.8240   20.3696 H   0  0  0  0  0  0
  -30.6566  -16.9396   22.6481 H   0  0  0  0  0  0
  -31.7310  -16.8733   21.2867 H   0  0  0  0  0  0
  -27.3513  -24.8243   20.4974 H   0  0  0  0  0  0
  -28.2383  -24.9332   18.9837 H   0  0  0  0  0  0
  -29.1598  -15.3292   21.5618 H   0  0  0  0  0  0
  1 25  1  0  0  0
  1 30  2  0  0  0
  1 86  1  0  0  0
  2  3  1  0  0  0
  2 25  1  0  0  0
  2 87  1  0  0  0
  2 88  1  0  0  0
  3  4  1  0  0  0
  3 89  1  0  0  0
  3 90  1  0  0  0
  4  5  1  0  0  0
  4 91  1  0  0  0
  4 92  1  0  0  0
  5  6  1  0  0  0
  5 26  1  0  0  0
  5 93  1  0  0  0
  6 25  1  0  0  0
  6 94  1  0  0  0
  6 95  1  0  0  0
  7  8  2  0  0  0
  7 26  1  0  0  0
  7 29  1  0  0  0
  8  9  1  0  0  0
  8 22  1  0  0  0
  9 10  1  0  0  0
  9 27  2  0  0  0
 10 11  2  0  0  0
 10 15  1  0  0  0
 11 12  1  0  0  0
 11 96  1  0  0  0
 12 13  2  0  0  0
 12 97  1  0  0  0
 13 14  1  0  0  0
 13 31  1  0  0  0
 14 15  2  0  0  0
 14 98  1  0  0  0
 15 99  1  0  0  0
 16 17  2  0  0  0
 16 21  1  0  0  0
 16 31  1  0  0  0
 17 18  1  0  0  0
 17100  1  0  0  0
 18 19  2  0  0  0
 18101  1  0  0  0
 19 20  1  0  0  0
 19 24  1  0  0  0
 20 21  2  0  0  0
 20102  1  0  0  0
 21 23  1  0  0  0
 22 28  1  0  0  0
 22 32  2  0  0  0
 26 27  1  0  0  0
 28103  1  0  0  0
 28104  1  0  0  0
 29105  1  0  0  0
 29106  1  0  0  0
 33 34  1  0  0  0
 33 66  1  0  0  0
 33 70  2  0  0  0
 34 36  1  0  0  0
 34 59  1  0  0  0
 34107  1  0  0  0
 35 44  2  0  0  0
 35 45  1  0  0  0
 35 68  1  0  0  0
 36 56  1  0  0  0
 36108  1  0  0  0
 37 39  1  0  0  0
 37 47  1  0  0  0
 37 66  1  0  0  0
 37109  1  0  0  0
 38 43  2  0  0  0
 38 46  1  0  0  0
 38 47  1  0  0  0
 39 64  1  0  0  0
 39 67  2  0  0  0
 40 52  1  0  0  0
 40 53  2  0  0  0
 40 58  1  0  0  0
 41110  1  0  0  0
 41111  1  0  0  0
 41112  1  0  0  0
 41 48  1  0  0  0
 42 43  1  0  0  0
 42 66  1  0  0  0
 42113  1  0  0  0
 42114  1  0  0  0
 43 44  1  0  0  0
 44115  1  0  0  0
 45 46  2  0  0  0
 45116  1  0  0  0
 46117  1  0  0  0
 47118  1  0  0  0
 47119  1  0  0  0
 48 56  1  0  0  0
 48 65  1  0  0  0
 48120  1  0  0  0
 49 50  1  0  0  0
 49 53  1  0  0  0
 49 64  1  0  0  0
 49121  1  0  0  0
 50 51  1  0  0  0
 50122  1  0  0  0
 50123  1  0  0  0
 51 52  1  0  0  0
 51124  1  0  0  0
 51125  1  0  0  0
 52126  1  0  0  0
 52127  1  0  0  0
 53 54  1  0  0  0
 54 55  2  0  0  0
 54128  1  0  0  0
 55 57  1  0  0  0
 55129  1  0  0  0
 56 69  2  0  0  0
 57 58  2  0  0  0
 57130  1  0  0  0
 58131  1  0  0  0
 59 60  1  0  0  0
 59 61  1  0  0  0
 59 62  1  0  0  0
 60132  1  0  0  0
 60133  1  0  0  0
 60134  1  0  0  0
 61135  1  0  0  0
 61136  1  0  0  0
 61137  1  0  0  0
 62138  1  0  0  0
 62139  1  0  0  0
 62140  1  0  0  0
 63 65  1  0  0  0
 63141  1  0  0  0
 63142  1  0  0  0
 63143  1  0  0  0
 64144  1  0  0  0
 65145  1  0  0  0
 68 83  1  0  0  0
 71 72  2  0  0  0
 71 85  1  0  0  0
 71146  1  0  0  0
 72 73  1  0  0  0
 72 75  1  0  0  0
 73 76  1  0  0  0
 73 84  2  0  0  0
 74 77  1  0  0  0
 74147  1  0  0  0
 74148  1  0  0  0
 74149  1  0  0  0
 75 78  1  0  0  0
 75150  1  0  0  0
 75151  1  0  0  0
 76 79  1  0  0  0
 76152  1  0  0  0
 76153  1  0  0  0
 77 80  1  0  0  0
 77154  1  0  0  0
 77155  1  0  0  0
 78 82  1  0  0  0
 78156  1  0  0  0
 78157  1  0  0  0
 79 80  1  0  0  0
 79158  1  0  0  0
 79159  1  0  0  0
 80160  1  0  0  0
 80161  1  0  0  0
 81 83  1  0  0  0
 81 85  1  0  0  0
 81162  1  0  0  0
 81163  1  0  0  0
 82 86  1  0  0  0
 82164  1  0  0  0
 82165  1  0  0  0
 83166  1  0  0  0
 83167  1  0  0  0
 84 85  1  0  0  0
 86168  1  0  0  0
M  ISO  4   1 100  68 101  83 101  86 100
M  END
> <chiral flag>
0

> <version>
0

> <s_m_source_file>
/data/baiqing/PycharmProjects/Reinvent-master-3.2/result/LINK_invent/BTK/process_docking_weight1_custom_sum_contain_oxygen_bond_distance_aromatic_linkinvent_7_9_3/rearranged_h_0040.sdf

> <i_m_source_file_index>
91

> <r_mmod_Potential_Energy-OPLS-2005>
-92.1438446044922

> <r_mmod_Stretch_Energy-OPLS-2005>
46.8012351989746

> <r_mmod_Bend_Energy-OPLS-2005>
109.059257507324

> <r_mmod_Torsional_Energy-OPLS-2005>
197.204940795898

> <r_mmod_Improper_Torsional_Energy-OPLS-2005>
3.49600958824158

> <r_mmod_Van_der_Waal_Energy-OPLS-2005>
115.448806762695

> <r_mmod_Electrostatic_Energy-OPLS-2005>
-367.651611328125

> <r_mmod_Solvation_Energy-OPLS-2005>
-216.407135009766

> <b_mmod_Minimization_Converged-OPLS-2005>
0

> <r_mmod_RMS_Derivative-OPLS-2005>
2.16299319267273

$$$$
91
                    3D
 Structure written by MMmdl.
147155  0  0  1  0            999 V2000
  -30.4105  -15.2802   20.3758 C   0  0  0  0  0  0
  -30.4478  -12.8077   19.5460 C   0  0  0  0  0  0
  -29.5472  -12.5884   18.3013 C   0  0  0  0  0  0
  -28.0935  -12.3067   18.7197 C   0  0  0  0  0  0
  -27.6172  -13.2782   19.8273 C   0  0  2  0  0  0
  -28.6449  -13.4440   20.9663 C   0  0  0  0  0  0
  -25.2413  -13.8256   20.5740 C   0  0  0  0  0  0
  -24.1757  -13.0442   20.9237 C   0  0  0  0  0  0
  -24.6414  -11.6937   20.8741 C   0  0  0  0  0  0
  -23.9100  -10.4300   21.0399 C   0  0  0  0  0  0
  -24.3637   -9.4213   21.9179 C   0  0  0  0  0  0
  -23.6303   -8.2252   22.0753 C   0  0  0  0  0  0
  -22.4284   -8.0290   21.3545 C   0  0  0  0  0  0
  -21.9926   -9.0265   20.4644 C   0  0  0  0  0  0
  -22.7268  -10.2140   20.3051 C   0  0  0  0  0  0
  -21.6859   -6.0738   22.5278 C   0  0  0  0  0  0
  -21.4018   -6.5636   23.8213 C   0  0  0  0  0  0
  -21.3663   -5.6789   24.9174 C   0  0  0  0  0  0
  -21.6045   -4.3052   24.7224 C   0  0  0  0  0  0
  -21.8819   -3.8145   23.4343 C   0  0  0  0  0  0
  -21.9195   -4.6965   22.3400 C   0  0  0  0  0  0
  -22.7773  -13.5198   21.1889 C   0  0  0  0  0  0
  -22.1663   -4.2149   21.0978 F   0  0  0  0  0  0
  -21.5629   -3.4534   25.7736 F   0  0  0  0  0  0
  -29.8912  -13.9492   20.3658 N   0  0  0  0  0  0
  -26.2845  -12.9537   20.3211 N   0  0  0  0  0  0
  -25.9352  -11.6635   20.5695 N   0  0  0  0  0  0
  -22.0430  -12.8183   22.0445 N   0  0  0  0  0  0
  -25.4062  -15.1993   20.4218 N   0  0  0  0  0  0
  -31.6161  -15.2910   20.0836 O   0  0  0  0  0  0
  -21.6645   -6.8885   21.4241 O   0  0  0  0  0  0
  -22.3455  -14.5504   20.6740 O   0  0  0  0  0  0
  -24.6638  -31.8224   23.1692 C   0  0  0  0  0  0
  -25.9318  -32.4583   23.8161 C   0  0  1  0  0  0
  -27.2220  -26.9159   20.1873 C   0  0  0  0  0  0
  -25.5980  -33.8395   24.2067 N   0  0  0  0  0  0
  -23.4803  -30.4325   21.5185 C   0  0  2  0  0  0
  -24.9361  -28.8191   20.1113 C   0  0  0  0  0  0
  -22.7680  -29.4427   22.4769 C   0  0  0  0  0  0
  -18.0326  -28.1407   22.8460 C   0  0  0  0  0  0
  -24.1497  -36.7208   23.2646 C   0  0  0  0  0  0
  -26.0490  -30.6249   21.4023 C   0  0  0  0  0  0
  -26.1190  -29.2129   20.7491 C   0  0  0  0  0  0
  -27.2550  -28.2816   20.7656 C   0  0  0  0  0  0
  -26.0123  -26.6834   19.4919 C   0  0  0  0  0  0
  -24.9091  -27.5750   19.4617 C   0  0  0  0  0  0
  -23.7219  -29.7473   20.1452 C   0  0  0  0  0  0
  -25.4135  -36.2962   24.0295 C   0  0  1  0  0  0
  -20.5950  -28.3754   23.1175 C   0  0  2  0  0  0
  -20.6800  -26.9429   22.5397 C   0  0  0  0  0  0
  -19.5775  -26.6377   21.5206 C   0  0  0  0  0  0
  -18.1958  -26.7943   22.1615 C   0  0  0  0  0  0
  -19.1590  -28.8901   23.2806 C   0  0  0  0  0  0
  -18.9499  -30.1487   23.8842 C   0  0  0  0  0  0
  -17.6498  -30.6597   24.0549 C   0  0  0  0  0  0
  -25.9099  -34.9345   23.5008 C   0  0  0  0  0  0
  -16.5385  -29.9082   23.6340 C   0  0  0  0  0  0
  -16.7310  -28.6505   23.0358 C   0  0  0  0  0  0
  -26.4569  -31.6525   25.0692 C   0  0  0  0  0  0
  -25.3686  -31.3771   26.1342 C   0  0  0  0  0  0
  -27.0478  -30.2894   24.6427 C   0  0  0  0  0  0
  -27.6052  -32.4343   25.7499 C   0  0  0  0  0  0
  -27.5568  -37.1761   24.8466 C   0  0  0  0  0  0
  -21.4344  -29.3043   22.3526 N   0  0  0  0  0  0
  -26.4281  -37.3695   23.9404 N   0  0  0  0  0  0
  -24.7523  -30.9869   22.0839 N   0  0  0  0  0  0
  -23.4220  -28.7989   23.3015 O   0  0  0  0  0  0
  -28.2041  -25.7882   20.2896 O   0  0  0  0  0  0
  -26.5715  -34.8886   22.4610 O   0  0  0  0  0  0
  -23.5703  -32.1199   23.6776 O   0  0  0  0  0  0
  -28.5582  -21.2226   19.6750 C   0  0  0  0  0  0
  -28.6514  -22.6215   20.2986 C   0  0  0  0  0  0
  -29.2884  -20.1490   20.3382 C   0  0  0  0  0  0
  -27.7699  -20.9791   18.4168 C   0  0  0  0  0  0
  -27.8849  -24.1924   19.9920 C   0  0  0  0  0  0
  -29.8745  -18.5079   20.0632 C   0  0  0  0  0  0
  -29.5975  -16.8248   20.6567 C   0  0  0  0  0  0
  -29.4284  -22.3192   21.3564 N   0  0  0  0  0  0
  -29.8111  -20.9200   21.3706 O   0  0  0  0  0  0
  -31.4691  -13.0079   19.2205 H   0  0  0  0  0  0
  -30.5088  -11.8966   20.1439 H   0  0  0  0  0  0
  -29.9310  -11.7676   17.6940 H   0  0  0  0  0  0
  -29.5797  -13.4787   17.6717 H   0  0  0  0  0  0
  -28.0504  -11.2816   19.0900 H   0  0  0  0  0  0
  -27.4295  -12.3511   17.8558 H   0  0  0  0  0  0
  -27.5380  -14.2486   19.3365 H   0  0  0  0  0  0
  -28.8016  -12.5054   21.5004 H   0  0  0  0  0  0
  -28.2798  -14.1617   21.7025 H   0  0  0  0  0  0
  -25.2781   -9.5688   22.4758 H   0  0  0  0  0  0
  -24.0010   -7.4642   22.7477 H   0  0  0  0  0  0
  -21.0857   -8.8793   19.8948 H   0  0  0  0  0  0
  -22.3730  -10.9678   19.6158 H   0  0  0  0  0  0
  -21.2012   -7.6144   23.9719 H   0  0  0  0  0  0
  -21.1485   -6.0515   25.9078 H   0  0  0  0  0  0
  -22.0594   -2.7605   23.2844 H   0  0  0  0  0  0
  -22.4052  -11.9851   22.4840 H   0  0  0  0  0  0
  -21.1041  -13.1197   22.2642 H   0  0  0  0  0  0
  -24.6391  -15.8516   20.5449 H   0  0  0  0  0  0
  -26.2591  -15.6453   20.1093 H   0  0  0  0  0  0
  -26.7385  -32.5127   23.0869 H   0  0  0  0  0  0
  -25.0060  -33.9463   25.0175 H   0  0  0  0  0  0
  -22.7935  -31.2636   21.3466 H   0  0  0  0  0  0
  -23.3763  -35.9536   23.3285 H   0  0  0  0  0  0
  -24.3562  -36.8884   22.2063 H   0  0  0  0  0  0
  -23.7257  -37.6389   23.6724 H   0  0  0  0  0  0
  -26.2264  -31.3631   20.6191 H   0  0  0  0  0  0
  -26.9098  -30.6873   22.0556 H   0  0  0  0  0  0
  -28.1457  -28.5790   21.3015 H   0  0  0  0  0  0
  -25.8747  -25.7367   18.9909 H   0  0  0  0  0  0
  -24.0113  -27.2668   18.9432 H   0  0  0  0  0  0
  -23.8771  -30.5160   19.3873 H   0  0  0  0  0  0
  -22.8326  -29.2001   19.8283 H   0  0  0  0  0  0
  -25.1330  -36.1759   25.0783 H   0  0  0  0  0  0
  -21.0032  -28.3376   24.1301 H   0  0  0  0  0  0
  -20.5682  -26.2371   23.3643 H   0  0  0  0  0  0
  -21.6664  -26.7407   22.1203 H   0  0  0  0  0  0
  -19.6935  -25.6274   21.1271 H   0  0  0  0  0  0
  -19.6722  -27.3156   20.6712 H   0  0  0  0  0  0
  -17.4227  -26.6681   21.4020 H   0  0  0  0  0  0
  -18.0347  -26.0093   22.9019 H   0  0  0  0  0  0
  -19.7979  -30.7307   24.2194 H   0  0  0  0  0  0
  -17.5051  -31.6272   24.5167 H   0  0  0  0  0  0
  -15.5380  -30.2968   23.7697 H   0  0  0  0  0  0
  -15.8708  -28.0807   22.7099 H   0  0  0  0  0  0
  -24.5892  -30.7103   25.7636 H   0  0  0  0  0  0
  -24.8847  -32.2968   26.4639 H   0  0  0  0  0  0
  -25.7902  -30.9018   27.0208 H   0  0  0  0  0  0
  -26.3151  -29.6556   24.1422 H   0  0  0  0  0  0
  -27.4000  -29.7272   25.5084 H   0  0  0  0  0  0
  -27.9091  -30.4074   23.9850 H   0  0  0  0  0  0
  -27.2621  -33.3701   26.1925 H   0  0  0  0  0  0
  -28.3938  -32.6815   25.0378 H   0  0  0  0  0  0
  -28.0638  -31.8575   26.5539 H   0  0  0  0  0  0
  -28.2566  -38.0074   24.7497 H   0  0  0  0  0  0
  -28.1088  -36.2596   24.6318 H   0  0  0  0  0  0
  -27.2280  -37.1422   25.8869 H   0  0  0  0  0  0
  -20.9604  -29.8745   21.6658 H   0  0  0  0  0  0
  -26.0134  -38.2757   24.1414 H   0  0  0  0  0  0
  -27.0396  -21.7674   18.2305 H   0  0  0  0  0  0
  -27.2143  -20.0414   18.4623 H   0  0  0  0  0  0
  -28.4139  -20.9258   17.5389 H   0  0  0  0  0  0
  -26.8851  -24.0796   20.4107 H   0  0  0  0  0  0
  -27.7052  -24.1989   18.9170 H   0  0  0  0  0  0
  -30.9505  -18.6105   20.2019 H   0  0  0  0  0  0
  -29.7925  -18.3892   18.9830 H   0  0  0  0  0  0
  -28.5533  -16.6114   20.4328 H   0  0  0  0  0  0
  -29.6210  -16.9091   21.7427 H   0  0  0  0  0  0
  1 25  1  0  0  0
  1 30  2  0  0  0
  1 77  1  0  0  0
  2  3  1  0  0  0
  2 25  1  0  0  0
  2 80  1  0  0  0
  2 81  1  0  0  0
  3  4  1  0  0  0
  3 82  1  0  0  0
  3 83  1  0  0  0
  4  5  1  0  0  0
  4 84  1  0  0  0
  4 85  1  0  0  0
  5  6  1  0  0  0
  5 26  1  0  0  0
  5 86  1  0  0  0
  6 25  1  0  0  0
  6 87  1  0  0  0
  6 88  1  0  0  0
  7  8  2  0  0  0
  7 26  1  0  0  0
  7 29  1  0  0  0
  8  9  1  0  0  0
  8 22  1  0  0  0
  9 10  1  0  0  0
  9 27  2  0  0  0
 10 11  2  0  0  0
 10 15  1  0  0  0
 11 12  1  0  0  0
 11 89  1  0  0  0
 12 13  2  0  0  0
 12 90  1  0  0  0
 13 14  1  0  0  0
 13 31  1  0  0  0
 14 15  2  0  0  0
 14 91  1  0  0  0
 15 92  1  0  0  0
 16 17  2  0  0  0
 16 21  1  0  0  0
 16 31  1  0  0  0
 17 18  1  0  0  0
 17 93  1  0  0  0
 18 19  2  0  0  0
 18 94  1  0  0  0
 19 20  1  0  0  0
 19 24  1  0  0  0
 20 21  2  0  0  0
 20 95  1  0  0  0
 21 23  1  0  0  0
 22 28  1  0  0  0
 22 32  2  0  0  0
 26 27  1  0  0  0
 28 96  1  0  0  0
 28 97  1  0  0  0
 29 98  1  0  0  0
 29 99  1  0  0  0
 33 34  1  0  0  0
 33 66  1  0  0  0
 33 70  2  0  0  0
 34 36  1  0  0  0
 34 59  1  0  0  0
 34100  1  0  0  0
 35 44  2  0  0  0
 35 45  1  0  0  0
 35 68  1  0  0  0
 36 56  1  0  0  0
 36101  1  0  0  0
 37 39  1  0  0  0
 37 47  1  0  0  0
 37 66  1  0  0  0
 37102  1  0  0  0
 38 43  2  0  0  0
 38 46  1  0  0  0
 38 47  1  0  0  0
 39 64  1  0  0  0
 39 67  2  0  0  0
 40 52  1  0  0  0
 40 53  2  0  0  0
 40 58  1  0  0  0
 41103  1  0  0  0
 41104  1  0  0  0
 41105  1  0  0  0
 41 48  1  0  0  0
 42 43  1  0  0  0
 42 66  1  0  0  0
 42106  1  0  0  0
 42107  1  0  0  0
 43 44  1  0  0  0
 44108  1  0  0  0
 45 46  2  0  0  0
 45109  1  0  0  0
 46110  1  0  0  0
 47111  1  0  0  0
 47112  1  0  0  0
 48 56  1  0  0  0
 48 65  1  0  0  0
 48113  1  0  0  0
 49 50  1  0  0  0
 49 53  1  0  0  0
 49 64  1  0  0  0
 49114  1  0  0  0
 50 51  1  0  0  0
 50115  1  0  0  0
 50116  1  0  0  0
 51 52  1  0  0  0
 51117  1  0  0  0
 51118  1  0  0  0
 52119  1  0  0  0
 52120  1  0  0  0
 53 54  1  0  0  0
 54 55  2  0  0  0
 54121  1  0  0  0
 55 57  1  0  0  0
 55122  1  0  0  0
 56 69  2  0  0  0
 57 58  2  0  0  0
 57123  1  0  0  0
 58124  1  0  0  0
 59 60  1  0  0  0
 59 61  1  0  0  0
 59 62  1  0  0  0
 60125  1  0  0  0
 60126  1  0  0  0
 60127  1  0  0  0
 61128  1  0  0  0
 61129  1  0  0  0
 61130  1  0  0  0
 62131  1  0  0  0
 62132  1  0  0  0
 62133  1  0  0  0
 63 65  1  0  0  0
 63134  1  0  0  0
 63135  1  0  0  0
 63136  1  0  0  0
 64137  1  0  0  0
 65138  1  0  0  0
 68 75  1  0  0  0
 71 72  1  0  0  0
 71 73  2  0  0  0
 71 74  1  0  0  0
 72 75  1  0  0  0
 72 78  2  0  0  0
 73 76  1  0  0  0
 73 79  1  0  0  0
 74139  1  0  0  0
 74140  1  0  0  0
 74141  1  0  0  0
 75142  1  0  0  0
 75143  1  0  0  0
 76 77  1  0  0  0
 76144  1  0  0  0
 76145  1  0  0  0
 77146  1  0  0  0
 77147  1  0  0  0
 78 79  1  0  0  0
M  ISO  4   1 100  68 101  75 101  77 100
M  END
> <chiral flag>
0

> <version>
0

> <s_m_source_file>
/data/baiqing/PycharmProjects/Reinvent-master-3.2/result/LINK_invent/BTK/process_docking_weight1_custom_sum_contain_oxygen_bond_distance_aromatic_linkinvent_7_9_3/rearranged_h_0040.sdf

> <i_m_source_file_index>
92

> <r_mmod_Potential_Energy-OPLS-2005>
1283.06506347656

> <r_mmod_Stretch_Energy-OPLS-2005>
603.788146972656

> <r_mmod_Bend_Energy-OPLS-2005>
453.13916015625

> <r_mmod_Torsional_Energy-OPLS-2005>
184.900634765625

> <r_mmod_Improper_Torsional_Energy-OPLS-2005>
3.58849716186523

> <r_mmod_Van_der_Waal_Energy-OPLS-2005>
105.869728088379

> <r_mmod_Electrostatic_Energy-OPLS-2005>
-318.717010498047

> <r_mmod_Solvation_Energy-OPLS-2005>
-225.95378112793

> <b_mmod_Minimization_Converged-OPLS-2005>
0

> <r_mmod_RMS_Derivative-OPLS-2005>
0.979373753070831

$$$$
92
                    3D
 Structure written by MMmdl.
171179  0  0  1  0            999 V2000
  -30.8284  -14.2722   20.7660 C   0  0  0  0  0  0
  -30.4097  -12.2857   19.3675 C   0  0  0  0  0  0
  -29.4714  -12.5416   18.1774 C   0  0  0  0  0  0
  -28.0019  -12.3830   18.6040 C   0  0  0  0  0  0
  -27.6661  -13.2024   19.8762 C   0  0  2  0  0  0
  -28.7035  -12.9443   20.9907 C   0  0  0  0  0  0
  -25.2607  -13.8158   20.5664 C   0  0  0  0  0  0
  -24.1845  -13.0441   20.9156 C   0  0  0  0  0  0
  -24.6392  -11.6907   20.8715 C   0  0  0  0  0  0
  -23.9055  -10.4292   21.0391 C   0  0  0  0  0  0
  -24.3607   -9.4210   21.9176 C   0  0  0  0  0  0
  -23.6283   -8.2246   22.0753 C   0  0  0  0  0  0
  -22.4268   -8.0277   21.3542 C   0  0  0  0  0  0
  -21.9900   -9.0248   20.4646 C   0  0  0  0  0  0
  -22.7224  -10.2126   20.3048 C   0  0  0  0  0  0
  -21.6850   -6.0730   22.5278 C   0  0  0  0  0  0
  -21.4012   -6.5635   23.8209 C   0  0  0  0  0  0
  -21.3661   -5.6792   24.9174 C   0  0  0  0  0  0
  -21.6046   -4.3054   24.7228 C   0  0  0  0  0  0
  -21.8819   -3.8142   23.4349 C   0  0  0  0  0  0
  -21.9191   -4.6957   22.3404 C   0  0  0  0  0  0
  -22.7868  -13.5240   21.1831 C   0  0  0  0  0  0
  -22.1660   -4.2143   21.0981 F   0  0  0  0  0  0
  -21.5631   -3.4540   25.7742 F   0  0  0  0  0  0
  -30.0564  -13.2020   20.4592 N   0  0  0  0  0  0
  -26.3047  -12.9325   20.3362 N   0  0  0  0  0  0
  -25.9315  -11.6487   20.5735 N   0  0  0  0  0  0
  -22.0513  -12.8233   22.0391 N   0  0  0  0  0  0
  -25.4353  -15.1873   20.4087 N   0  0  0  0  0  0
  -31.7482  -14.6851   20.0520 O   0  0  0  0  0  0
  -21.6637   -6.8872   21.4239 O   0  0  0  0  0  0
  -22.3556  -14.5549   20.6687 O   0  0  0  0  0  0
  -24.6086  -31.8716   23.2131 C   0  0  0  0  0  0
  -25.9002  -32.4850   23.8410 C   0  0  1  0  0  0
  -27.2419  -27.4816   20.0921 C   0  0  0  0  0  0
  -25.5866  -33.8645   24.2348 N   0  0  0  0  0  0
  -23.3966  -30.4931   21.5511 C   0  0  2  0  0  0
  -24.8466  -28.9614   20.1193 C   0  0  0  0  0  0
  -22.7386  -29.4661   22.4994 C   0  0  0  0  0  0
  -18.0267  -28.1369   22.8491 C   0  0  0  0  0  0
  -24.1482  -36.7331   23.2640 C   0  0  0  0  0  0
  -25.9190  -30.8497   21.3616 C   0  0  0  0  0  0
  -25.9998  -29.4830   20.7197 C   0  0  0  0  0  0
  -27.2011  -28.7456   20.7155 C   0  0  0  0  0  0
  -26.0801  -26.9633   19.4882 C   0  0  0  0  0  0
  -24.8770  -27.6948   19.5072 C   0  0  0  0  0  0
  -23.6053  -29.8226   20.1658 C   0  0  0  0  0  0
  -25.4105  -36.3143   24.0348 C   0  0  1  0  0  0
  -20.5853  -28.3654   23.1329 C   0  0  2  0  0  0
  -20.6763  -26.9394   22.5422 C   0  0  0  0  0  0
  -19.5746  -26.6380   21.5211 C   0  0  0  0  0  0
  -18.1918  -26.7914   22.1618 C   0  0  0  0  0  0
  -19.1515  -28.8826   23.2910 C   0  0  0  0  0  0
  -18.9447  -30.1427   23.8926 C   0  0  0  0  0  0
  -17.6454  -30.6582   24.0558 C   0  0  0  0  0  0
  -25.9028  -34.9499   23.5155 C   0  0  0  0  0  0
  -16.5345  -29.9092   23.6311 C   0  0  0  0  0  0
  -16.7259  -28.6502   23.0342 C   0  0  0  0  0  0
  -26.4452  -31.6605   25.0713 C   0  0  0  0  0  0
  -25.3727  -31.3709   26.1468 C   0  0  0  0  0  0
  -27.0252  -30.3041   24.6046 C   0  0  0  0  0  0
  -27.6031  -32.4313   25.7481 C   0  0  0  0  0  0
  -27.5586  -37.1826   24.8465 C   0  0  0  0  0  0
  -21.4117  -29.3024   22.3738 N   0  0  0  0  0  0
  -26.4302  -37.3818   23.9407 N   0  0  0  0  0  0
  -24.6588  -31.0850   22.1012 N   0  0  0  0  0  0
  -23.4174  -28.8199   23.3022 O   0  0  0  0  0  0
  -28.3992  -26.7542   20.0168 O   0  0  0  0  0  0
  -26.5596  -34.8947   22.4717 O   0  0  0  0  0  0
  -23.5290  -32.1439   23.7549 O   0  0  0  0  0  0
  -32.1555  -24.4607   23.3011 C   0  0  0  0  0  0
  -32.9436  -25.1688   22.3487 C   0  0  0  0  0  0
  -30.9718  -25.1462   23.3372 C   0  0  0  0  0  0
  -34.3453  -24.8771   21.8934 C   0  0  0  0  0  0
  -29.7411  -24.8955   24.1484 C   0  0  0  0  0  0
  -32.5098  -23.1889   24.0285 C   0  0  0  0  0  0
  -31.7473  -22.0236   23.3804 C   0  0  0  0  0  0
  -32.1641  -20.6262   23.8514 C   0  0  0  0  0  0
  -31.3313  -19.5560   23.1289 C   0  0  0  0  0  0
  -31.8110  -18.1212   23.3735 C   0  0  0  0  0  0
  -30.9628  -17.1057   22.5935 C   0  0  0  0  0  0
  -30.0019  -27.0141   21.8743 C   0  0  0  0  0  0
  -31.4948  -15.6733   22.7247 C   0  0  0  0  0  0
  -28.8463  -26.2057   21.2506 C   0  0  0  0  0  0
  -32.2741  -26.1696   21.7984 N   0  0  0  0  0  0
  -31.0483  -26.1291   22.3669 N   0  0  0  0  0  0
  -30.6460  -14.7238   22.0126 N   0  0  0  0  0  0
  -31.4511  -12.3921   19.0575 H   0  0  0  0  0  0
  -30.3078  -11.2558   19.7143 H   0  0  0  0  0  0
  -29.6993  -11.8525   17.3634 H   0  0  0  0  0  0
  -29.6364  -13.5464   17.7856 H   0  0  0  0  0  0
  -27.8168  -11.3233   18.7845 H   0  0  0  0  0  0
  -27.3406  -12.6722   17.7863 H   0  0  0  0  0  0
  -27.7266  -14.2564   19.6050 H   0  0  0  0  0  0
  -28.6481  -11.9085   21.3287 H   0  0  0  0  0  0
  -28.4516  -13.5538   21.8588 H   0  0  0  0  0  0
  -25.2751   -9.5690   22.4749 H   0  0  0  0  0  0
  -23.9994   -7.4641   22.7475 H   0  0  0  0  0  0
  -21.0829   -8.8760   19.8953 H   0  0  0  0  0  0
  -22.3677  -10.9664   19.6153 H   0  0  0  0  0  0
  -21.2002   -7.6144   23.9711 H   0  0  0  0  0  0
  -21.1486   -6.0523   25.9077 H   0  0  0  0  0  0
  -22.0597   -2.7606   23.2854 H   0  0  0  0  0  0
  -22.4120  -11.9885   22.4771 H   0  0  0  0  0  0
  -21.1137  -13.1266   22.2605 H   0  0  0  0  0  0
  -24.6765  -15.8512   20.5218 H   0  0  0  0  0  0
  -26.3020  -15.6231   20.1172 H   0  0  0  0  0  0
  -26.7079  -32.5606   23.1189 H   0  0  0  0  0  0
  -24.9990  -33.9809   25.0473 H   0  0  0  0  0  0
  -22.6835  -31.3080   21.4121 H   0  0  0  0  0  0
  -23.3751  -35.9659   23.3313 H   0  0  0  0  0  0
  -24.3575  -36.8927   22.2052 H   0  0  0  0  0  0
  -23.7220  -37.6536   23.6635 H   0  0  0  0  0  0
  -26.0217  -31.6136   20.5891 H   0  0  0  0  0  0
  -26.8105  -30.9100   21.9743 H   0  0  0  0  0  0
  -28.0943  -29.1526   21.1676 H   0  0  0  0  0  0
  -26.1108  -25.9965   19.0054 H   0  0  0  0  0  0
  -23.9911  -27.2873   19.0405 H   0  0  0  0  0  0
  -23.7103  -30.5960   19.4035 H   0  0  0  0  0  0
  -22.7325  -29.2363   19.8730 H   0  0  0  0  0  0
  -25.1274  -36.2034   25.0840 H   0  0  0  0  0  0
  -20.9946  -28.3218   24.1450 H   0  0  0  0  0  0
  -20.5666  -26.2262   23.3603 H   0  0  0  0  0  0
  -21.6639  -26.7441   22.1221 H   0  0  0  0  0  0
  -19.6917  -25.6300   21.1222 H   0  0  0  0  0  0
  -19.6690  -27.3203   20.6750 H   0  0  0  0  0  0
  -17.4192  -26.6655   21.4018 H   0  0  0  0  0  0
  -18.0323  -26.0051   22.9010 H   0  0  0  0  0  0
  -19.7924  -30.7217   24.2331 H   0  0  0  0  0  0
  -17.5015  -31.6270   24.5147 H   0  0  0  0  0  0
  -15.5352  -30.3008   23.7612 H   0  0  0  0  0  0
  -15.8655  -28.0832   22.7049 H   0  0  0  0  0  0
  -24.5872  -30.7090   25.7798 H   0  0  0  0  0  0
  -24.8962  -32.2880   26.4946 H   0  0  0  0  0  0
  -25.8084  -30.8841   27.0202 H   0  0  0  0  0  0
  -26.2774  -29.6866   24.1055 H   0  0  0  0  0  0
  -27.3964  -29.7213   25.4484 H   0  0  0  0  0  0
  -27.8647  -30.4354   23.9213 H   0  0  0  0  0  0
  -27.2627  -33.3583   26.2108 H   0  0  0  0  0  0
  -28.3827  -32.6922   25.0311 H   0  0  0  0  0  0
  -28.0708  -31.8399   26.5360 H   0  0  0  0  0  0
  -28.2622  -38.0106   24.7513 H   0  0  0  0  0  0
  -28.1061  -36.2644   24.6291 H   0  0  0  0  0  0
  -27.2305  -37.1489   25.8868 H   0  0  0  0  0  0
  -20.9268  -29.8760   21.6977 H   0  0  0  0  0  0
  -26.0203  -38.2900   24.1404 H   0  0  0  0  0  0
  -34.5172  -23.8033   21.8168 H   0  0  0  0  0  0
  -35.0768  -25.2808   22.5929 H   0  0  0  0  0  0
  -34.5511  -25.3078   20.9134 H   0  0  0  0  0  0
  -29.9891  -24.4017   25.0873 H   0  0  0  0  0  0
  -29.0447  -24.2534   23.6096 H   0  0  0  0  0  0
  -29.2286  -25.8255   24.3935 H   0  0  0  0  0  0
  -32.2598  -23.2521   25.0883 H   0  0  0  0  0  0
  -33.5822  -22.9969   23.9848 H   0  0  0  0  0  0
  -31.8957  -22.0720   22.3000 H   0  0  0  0  0  0
  -30.6764  -22.1563   23.5429 H   0  0  0  0  0  0
  -32.0350  -20.5364   24.9311 H   0  0  0  0  0  0
  -33.2250  -20.4752   23.6460 H   0  0  0  0  0  0
  -31.3571  -19.7499   22.0553 H   0  0  0  0  0  0
  -30.2864  -19.6488   23.4302 H   0  0  0  0  0  0
  -31.7758  -17.8926   24.4398 H   0  0  0  0  0  0
  -32.8549  -18.0321   23.0697 H   0  0  0  0  0  0
  -30.9409  -17.3847   21.5386 H   0  0  0  0  0  0
  -29.9308  -17.1503   22.9460 H   0  0  0  0  0  0
  -29.6435  -27.6401   22.6922 H   0  0  0  0  0  0
  -30.4313  -27.6847   21.1287 H   0  0  0  0  0  0
  -31.5237  -15.3822   23.7753 H   0  0  0  0  0  0
  -32.5236  -15.6143   22.3639 H   0  0  0  0  0  0
  -28.0312  -26.0836   21.9665 H   0  0  0  0  0  0
  -29.1822  -25.1946   21.0161 H   0  0  0  0  0  0
  -29.9159  -14.2715   22.5441 H   0  0  0  0  0  0
  1 25  1  0  0  0
  1 30  2  0  0  0
  1 87  1  0  0  0
  2  3  1  0  0  0
  2 25  1  0  0  0
  2 88  1  0  0  0
  2 89  1  0  0  0
  3  4  1  0  0  0
  3 90  1  0  0  0
  3 91  1  0  0  0
  4  5  1  0  0  0
  4 92  1  0  0  0
  4 93  1  0  0  0
  5  6  1  0  0  0
  5 26  1  0  0  0
  5 94  1  0  0  0
  6 25  1  0  0  0
  6 95  1  0  0  0
  6 96  1  0  0  0
  7  8  2  0  0  0
  7 26  1  0  0  0
  7 29  1  0  0  0
  8  9  1  0  0  0
  8 22  1  0  0  0
  9 10  1  0  0  0
  9 27  2  0  0  0
 10 11  2  0  0  0
 10 15  1  0  0  0
 11 12  1  0  0  0
 11 97  1  0  0  0
 12 13  2  0  0  0
 12 98  1  0  0  0
 13 14  1  0  0  0
 13 31  1  0  0  0
 14 15  2  0  0  0
 14 99  1  0  0  0
 15100  1  0  0  0
 16 17  2  0  0  0
 16 21  1  0  0  0
 16 31  1  0  0  0
 17 18  1  0  0  0
 17101  1  0  0  0
 18 19  2  0  0  0
 18102  1  0  0  0
 19 20  1  0  0  0
 19 24  1  0  0  0
 20 21  2  0  0  0
 20103  1  0  0  0
 21 23  1  0  0  0
 22 28  1  0  0  0
 22 32  2  0  0  0
 26 27  1  0  0  0
 28104  1  0  0  0
 28105  1  0  0  0
 29106  1  0  0  0
 29107  1  0  0  0
 33 34  1  0  0  0
 33 66  1  0  0  0
 33 70  2  0  0  0
 34 36  1  0  0  0
 34 59  1  0  0  0
 34108  1  0  0  0
 35 44  2  0  0  0
 35 45  1  0  0  0
 35 68  1  0  0  0
 36 56  1  0  0  0
 36109  1  0  0  0
 37 39  1  0  0  0
 37 47  1  0  0  0
 37 66  1  0  0  0
 37110  1  0  0  0
 38 43  2  0  0  0
 38 46  1  0  0  0
 38 47  1  0  0  0
 39 64  1  0  0  0
 39 67  2  0  0  0
 40 52  1  0  0  0
 40 53  2  0  0  0
 40 58  1  0  0  0
 41111  1  0  0  0
 41112  1  0  0  0
 41113  1  0  0  0
 41 48  1  0  0  0
 42 43  1  0  0  0
 42 66  1  0  0  0
 42114  1  0  0  0
 42115  1  0  0  0
 43 44  1  0  0  0
 44116  1  0  0  0
 45 46  2  0  0  0
 45117  1  0  0  0
 46118  1  0  0  0
 47119  1  0  0  0
 47120  1  0  0  0
 48 56  1  0  0  0
 48 65  1  0  0  0
 48121  1  0  0  0
 49 50  1  0  0  0
 49 53  1  0  0  0
 49 64  1  0  0  0
 49122  1  0  0  0
 50 51  1  0  0  0
 50123  1  0  0  0
 50124  1  0  0  0
 51 52  1  0  0  0
 51125  1  0  0  0
 51126  1  0  0  0
 52127  1  0  0  0
 52128  1  0  0  0
 53 54  1  0  0  0
 54 55  2  0  0  0
 54129  1  0  0  0
 55 57  1  0  0  0
 55130  1  0  0  0
 56 69  2  0  0  0
 57 58  2  0  0  0
 57131  1  0  0  0
 58132  1  0  0  0
 59 60  1  0  0  0
 59 61  1  0  0  0
 59 62  1  0  0  0
 60133  1  0  0  0
 60134  1  0  0  0
 60135  1  0  0  0
 61136  1  0  0  0
 61137  1  0  0  0
 61138  1  0  0  0
 62139  1  0  0  0
 62140  1  0  0  0
 62141  1  0  0  0
 63 65  1  0  0  0
 63142  1  0  0  0
 63143  1  0  0  0
 63144  1  0  0  0
 64145  1  0  0  0
 65146  1  0  0  0
 68 84  1  0  0  0
 71 72  1  0  0  0
 71 73  2  0  0  0
 71 76  1  0  0  0
 72 74  1  0  0  0
 72 85  2  0  0  0
 73 75  1  0  0  0
 73 86  1  0  0  0
 74147  1  0  0  0
 74148  1  0  0  0
 74149  1  0  0  0
 75150  1  0  0  0
 75151  1  0  0  0
 75152  1  0  0  0
 76 77  1  0  0  0
 76153  1  0  0  0
 76154  1  0  0  0
 77 78  1  0  0  0
 77155  1  0  0  0
 77156  1  0  0  0
 78 79  1  0  0  0
 78157  1  0  0  0
 78158  1  0  0  0
 79 80  1  0  0  0
 79159  1  0  0  0
 79160  1  0  0  0
 80 81  1  0  0  0
 80161  1  0  0  0
 80162  1  0  0  0
 81 83  1  0  0  0
 81163  1  0  0  0
 81164  1  0  0  0
 82 84  1  0  0  0
 82 86  1  0  0  0
 82165  1  0  0  0
 82166  1  0  0  0
 83 87  1  0  0  0
 83167  1  0  0  0
 83168  1  0  0  0
 84169  1  0  0  0
 84170  1  0  0  0
 85 86  1  0  0  0
 87171  1  0  0  0
M  ISO  4   1 100  68 101  84 101  87 100
M  END
> <chiral flag>
0

> <version>
0

> <s_m_source_file>
/data/baiqing/PycharmProjects/Reinvent-master-3.2/result/LINK_invent/BTK/process_docking_weight1_custom_sum_contain_oxygen_bond_distance_aromatic_linkinvent_7_9_3/rearranged_h_0040.sdf

> <i_m_source_file_index>
93

> <r_mmod_Potential_Energy-OPLS-2005>
-134.107833862305

> <r_mmod_Stretch_Energy-OPLS-2005>
28.8436660766602

> <r_mmod_Bend_Energy-OPLS-2005>
85.5450286865234

> <r_mmod_Torsional_Energy-OPLS-2005>
237.888122558594

> <r_mmod_Improper_Torsional_Energy-OPLS-2005>
4.64030981063843

> <r_mmod_Van_der_Waal_Energy-OPLS-2005>
121.115196228027

> <r_mmod_Electrostatic_Energy-OPLS-2005>
-402.048675537109

> <r_mmod_Solvation_Energy-OPLS-2005>
-218.095932006836

> <b_mmod_Minimization_Converged-OPLS-2005>
0

> <r_mmod_RMS_Derivative-OPLS-2005>
1.06322026252747

$$$$
93
                    3D
 Structure written by MMmdl.
162170  0  0  1  0            999 V2000
  -30.6815  -14.4424   20.4977 C   0  0  0  0  0  0
  -30.4182  -12.2636   19.4219 C   0  0  0  0  0  0
  -29.4886  -12.4621   18.2068 C   0  0  0  0  0  0
  -28.0091  -12.3376   18.6227 C   0  0  0  0  0  0
  -27.6568  -13.1876   19.8730 C   0  0  2  0  0  0
  -28.7020  -12.9847   20.9966 C   0  0  0  0  0  0
  -25.2589  -13.8112   20.5692 C   0  0  0  0  0  0
  -24.1824  -13.0420   20.9193 C   0  0  0  0  0  0
  -24.6357  -11.6875   20.8778 C   0  0  0  0  0  0
  -23.9025  -10.4284   21.0437 C   0  0  0  0  0  0
  -24.3588   -9.4199   21.9199 C   0  0  0  0  0  0
  -23.6278   -8.2233   22.0754 C   0  0  0  0  0  0
  -22.4260   -8.0279   21.3543 C   0  0  0  0  0  0
  -21.9895   -9.0254   20.4644 C   0  0  0  0  0  0
  -22.7212  -10.2134   20.3067 C   0  0  0  0  0  0
  -21.6843   -6.0728   22.5276 C   0  0  0  0  0  0
  -21.4010   -6.5632   23.8208 C   0  0  0  0  0  0
  -21.3662   -5.6785   24.9169 C   0  0  0  0  0  0
  -21.6039   -4.3049   24.7223 C   0  0  0  0  0  0
  -21.8821   -3.8140   23.4346 C   0  0  0  0  0  0
  -21.9194   -4.6956   22.3402 C   0  0  0  0  0  0
  -22.7856  -13.5243   21.1849 C   0  0  0  0  0  0
  -22.1658   -4.2136   21.0981 F   0  0  0  0  0  0
  -21.5635   -3.4541   25.7742 F   0  0  0  0  0  0
  -30.0297  -13.2570   20.4277 N   0  0  0  0  0  0
  -26.2997  -12.9240   20.3391 N   0  0  0  0  0  0
  -25.9275  -11.6415   20.5811 N   0  0  0  0  0  0
  -22.0505  -12.8244   22.0410 N   0  0  0  0  0  0
  -25.4337  -15.1835   20.4071 N   0  0  0  0  0  0
  -31.8596  -14.5964   20.1749 O   0  0  0  0  0  0
  -21.6626   -6.8872   21.4238 O   0  0  0  0  0  0
  -22.3561  -14.5564   20.6706 O   0  0  0  0  0  0
  -24.6088  -31.8722   23.2105 C   0  0  0  0  0  0
  -25.8990  -32.4851   23.8387 C   0  0  1  0  0  0
  -27.2454  -27.4821   20.0949 C   0  0  0  0  0  0
  -25.5863  -33.8644   24.2318 N   0  0  0  0  0  0
  -23.3969  -30.4932   21.5493 C   0  0  2  0  0  0
  -24.8458  -28.9571   20.1238 C   0  0  0  0  0  0
  -22.7392  -29.4675   22.4996 C   0  0  0  0  0  0
  -18.0260  -28.1407   22.8502 C   0  0  0  0  0  0
  -24.1480  -36.7322   23.2639 C   0  0  0  0  0  0
  -25.9177  -30.8522   21.3571 C   0  0  0  0  0  0
  -26.0007  -29.4835   20.7181 C   0  0  0  0  0  0
  -27.2049  -28.7515   20.7048 C   0  0  0  0  0  0
  -26.0796  -26.9507   19.5107 C   0  0  0  0  0  0
  -24.8767  -27.6853   19.5236 C   0  0  0  0  0  0
  -23.6063  -29.8219   20.1645 C   0  0  0  0  0  0
  -25.4104  -36.3136   24.0343 C   0  0  1  0  0  0
  -20.5855  -28.3676   23.1343 C   0  0  2  0  0  0
  -20.6761  -26.9413   22.5443 C   0  0  0  0  0  0
  -19.5735  -26.6402   21.5241 C   0  0  0  0  0  0
  -18.1907  -26.7951   22.1637 C   0  0  0  0  0  0
  -19.1514  -28.8848   23.2921 C   0  0  0  0  0  0
  -18.9452  -30.1453   23.8928 C   0  0  0  0  0  0
  -17.6463  -30.6604   24.0573 C   0  0  0  0  0  0
  -25.9026  -34.9498   23.5133 C   0  0  0  0  0  0
  -16.5346  -29.9129   23.6324 C   0  0  0  0  0  0
  -16.7258  -28.6551   23.0339 C   0  0  0  0  0  0
  -26.4442  -31.6636   25.0707 C   0  0  0  0  0  0
  -25.3707  -31.3754   26.1459 C   0  0  0  0  0  0
  -27.0262  -30.3093   24.6036 C   0  0  0  0  0  0
  -27.6028  -32.4362   25.7455 C   0  0  0  0  0  0
  -27.5580  -37.1809   24.8467 C   0  0  0  0  0  0
  -21.4125  -29.3038   22.3735 N   0  0  0  0  0  0
  -26.4293  -37.3819   23.9418 N   0  0  0  0  0  0
  -24.6582  -31.0875   22.0975 N   0  0  0  0  0  0
  -23.4192  -28.8217   23.3009 O   0  0  0  0  0  0
  -28.4347  -26.8143   19.9870 O   0  0  0  0  0  0
  -26.5600  -34.8949   22.4702 O   0  0  0  0  0  0
  -23.5293  -32.1440   23.7523 O   0  0  0  0  0  0
  -29.0064  -21.1672   20.9165 C   0  0  0  0  0  0
  -29.5387  -20.1718   21.6899 C   0  0  0  0  0  0
  -30.7913  -20.7024   22.1133 C   0  0  0  0  0  0
  -31.7172  -20.4565   24.4381 C   0  0  0  0  0  0
  -28.9828  -18.8049   22.0009 C   0  0  0  0  0  0
  -31.8407  -20.0483   22.9672 C   0  0  0  0  0  0
  -29.5205  -17.7763   20.9972 C   0  0  0  0  0  0
  -28.6597  -24.3850   20.5635 C   0  0  0  0  0  0
  -29.8596  -23.4648   20.1723 C   0  0  0  0  0  0
  -29.2870  -16.3055   21.3838 C   0  0  0  0  0  0
  -28.7406  -25.8747   21.0227 C   0  0  0  0  0  0
  -30.9994  -21.9267   21.6556 N   0  0  0  0  0  0
  -29.9110  -22.2086   20.9076 N   0  0  0  0  0  0
  -29.8660  -15.4869   20.3286 N   0  0  0  0  0  0
  -31.4599  -12.3655   19.1135 H   0  0  0  0  0  0
  -30.3164  -11.2559   19.8289 H   0  0  0  0  0  0
  -29.7194  -11.7245   17.4379 H   0  0  0  0  0  0
  -29.6629  -13.4403   17.7570 H   0  0  0  0  0  0
  -27.8182  -11.2850   18.8317 H   0  0  0  0  0  0
  -27.3569  -12.6039   17.7908 H   0  0  0  0  0  0
  -27.6906  -14.2291   19.5593 H   0  0  0  0  0  0
  -28.6676  -11.9652   21.3851 H   0  0  0  0  0  0
  -28.4876  -13.6355   21.8463 H   0  0  0  0  0  0
  -25.2736   -9.5676   22.4759 H   0  0  0  0  0  0
  -23.9990   -7.4621   22.7465 H   0  0  0  0  0  0
  -21.0826   -8.8763   19.8951 H   0  0  0  0  0  0
  -22.3671  -10.9673   19.6177 H   0  0  0  0  0  0
  -21.1998   -7.6137   23.9708 H   0  0  0  0  0  0
  -21.1479   -6.0514   25.9064 H   0  0  0  0  0  0
  -22.0603   -2.7606   23.2849 H   0  0  0  0  0  0
  -22.4129  -11.9901   22.4798 H   0  0  0  0  0  0
  -21.1133  -13.1281   22.2622 H   0  0  0  0  0  0
  -24.6703  -15.8417   20.5165 H   0  0  0  0  0  0
  -26.2888  -15.6176   20.0840 H   0  0  0  0  0  0
  -26.7067  -32.5603   23.1172 H   0  0  0  0  0  0
  -24.9995  -33.9809   25.0448 H   0  0  0  0  0  0
  -22.6834  -31.3071   21.4092 H   0  0  0  0  0  0
  -23.3745  -35.9655   23.3331 H   0  0  0  0  0  0
  -24.3563  -36.8908   22.2048 H   0  0  0  0  0  0
  -23.7236  -37.6530   23.6636 H   0  0  0  0  0  0
  -26.0199  -31.6137   20.5824 H   0  0  0  0  0  0
  -26.8075  -30.9142   21.9710 H   0  0  0  0  0  0
  -28.1060  -29.1621   21.1405 H   0  0  0  0  0  0
  -26.1108  -25.9839   19.0272 H   0  0  0  0  0  0
  -23.9900  -27.2726   19.0630 H   0  0  0  0  0  0
  -23.7181  -30.5938   19.4016 H   0  0  0  0  0  0
  -22.7313  -29.2423   19.8654 H   0  0  0  0  0  0
  -25.1283  -36.2004   25.0839 H   0  0  0  0  0  0
  -20.9956  -28.3241   24.1456 H   0  0  0  0  0  0
  -20.5700  -26.2261   23.3620 H   0  0  0  0  0  0
  -21.6624  -26.7477   22.1199 H   0  0  0  0  0  0
  -19.6879  -25.6323   21.1244 H   0  0  0  0  0  0
  -19.6681  -27.3221   20.6785 H   0  0  0  0  0  0
  -17.4184  -26.6718   21.4029 H   0  0  0  0  0  0
  -18.0283  -26.0095   22.9031 H   0  0  0  0  0  0
  -19.7929  -30.7257   24.2328 H   0  0  0  0  0  0
  -17.5024  -31.6291   24.5173 H   0  0  0  0  0  0
  -15.5350  -30.3056   23.7633 H   0  0  0  0  0  0
  -15.8653  -28.0890   22.7047 H   0  0  0  0  0  0
  -24.5867  -30.7119   25.7786 H   0  0  0  0  0  0
  -24.8907  -32.2927   26.4893 H   0  0  0  0  0  0
  -25.8047  -30.8916   27.0220 H   0  0  0  0  0  0
  -26.2783  -29.6885   24.1076 H   0  0  0  0  0  0
  -27.4049  -29.7308   25.4468 H   0  0  0  0  0  0
  -27.8624  -30.4449   23.9166 H   0  0  0  0  0  0
  -27.2643  -33.3661   26.2047 H   0  0  0  0  0  0
  -28.3812  -32.6931   25.0251 H   0  0  0  0  0  0
  -28.0726  -31.8470   26.5345 H   0  0  0  0  0  0
  -28.2607  -38.0090   24.7516 H   0  0  0  0  0  0
  -28.1058  -36.2622   24.6301 H   0  0  0  0  0  0
  -27.2295  -37.1498   25.8867 H   0  0  0  0  0  0
  -20.9268  -29.8802   21.7001 H   0  0  0  0  0  0
  -26.0183  -38.2893   24.1440 H   0  0  0  0  0  0
  -28.0781  -21.2180   20.3609 H   0  0  0  0  0  0
  -30.7367  -20.1910   24.8334 H   0  0  0  0  0  0
  -31.8517  -21.5320   24.5568 H   0  0  0  0  0  0
  -32.4685  -19.9570   25.0489 H   0  0  0  0  0  0
  -27.8916  -18.8043   21.9795 H   0  0  0  0  0  0
  -29.2606  -18.5040   23.0123 H   0  0  0  0  0  0
  -32.8373  -20.3004   22.6018 H   0  0  0  0  0  0
  -31.7650  -18.9640   22.8853 H   0  0  0  0  0  0
  -30.5967  -17.9274   20.8814 H   0  0  0  0  0  0
  -29.0845  -17.9797   20.0161 H   0  0  0  0  0  0
  -29.0317  -24.2323   21.5787 H   0  0  0  0  0  0
  -28.9942  -24.8244   19.6276 H   0  0  0  0  0  0
  -30.8075  -23.9933   20.3128 H   0  0  0  0  0  0
  -29.8410  -23.1809   19.1126 H   0  0  0  0  0  0
  -29.7328  -16.0743   22.3543 H   0  0  0  0  0  0
  -28.2193  -16.0954   21.4579 H   0  0  0  0  0  0
  -29.7562  -26.1145   21.3543 H   0  0  0  0  0  0
  -28.0932  -26.0457   21.8893 H   0  0  0  0  0  0
  -30.2165  -16.0725   19.5854 H   0  0  0  0  0  0
  1 25  1  0  0  0
  1 30  2  0  0  0
  1 84  1  0  0  0
  2  3  1  0  0  0
  2 25  1  0  0  0
  2 85  1  0  0  0
  2 86  1  0  0  0
  3  4  1  0  0  0
  3 87  1  0  0  0
  3 88  1  0  0  0
  4  5  1  0  0  0
  4 89  1  0  0  0
  4 90  1  0  0  0
  5  6  1  0  0  0
  5 26  1  0  0  0
  5 91  1  0  0  0
  6 25  1  0  0  0
  6 92  1  0  0  0
  6 93  1  0  0  0
  7  8  2  0  0  0
  7 26  1  0  0  0
  7 29  1  0  0  0
  8  9  1  0  0  0
  8 22  1  0  0  0
  9 10  1  0  0  0
  9 27  2  0  0  0
 10 11  2  0  0  0
 10 15  1  0  0  0
 11 12  1  0  0  0
 11 94  1  0  0  0
 12 13  2  0  0  0
 12 95  1  0  0  0
 13 14  1  0  0  0
 13 31  1  0  0  0
 14 15  2  0  0  0
 14 96  1  0  0  0
 15 97  1  0  0  0
 16 17  2  0  0  0
 16 21  1  0  0  0
 16 31  1  0  0  0
 17 18  1  0  0  0
 17 98  1  0  0  0
 18 19  2  0  0  0
 18 99  1  0  0  0
 19 20  1  0  0  0
 19 24  1  0  0  0
 20 21  2  0  0  0
 20100  1  0  0  0
 21 23  1  0  0  0
 22 28  1  0  0  0
 22 32  2  0  0  0
 26 27  1  0  0  0
 28101  1  0  0  0
 28102  1  0  0  0
 29103  1  0  0  0
 29104  1  0  0  0
 33 34  1  0  0  0
 33 66  1  0  0  0
 33 70  2  0  0  0
 34 36  1  0  0  0
 34 59  1  0  0  0
 34105  1  0  0  0
 35 44  2  0  0  0
 35 45  1  0  0  0
 35 68  1  0  0  0
 36 56  1  0  0  0
 36106  1  0  0  0
 37 39  1  0  0  0
 37 47  1  0  0  0
 37 66  1  0  0  0
 37107  1  0  0  0
 38 43  2  0  0  0
 38 46  1  0  0  0
 38 47  1  0  0  0
 39 64  1  0  0  0
 39 67  2  0  0  0
 40 52  1  0  0  0
 40 53  2  0  0  0
 40 58  1  0  0  0
 41108  1  0  0  0
 41109  1  0  0  0
 41110  1  0  0  0
 41 48  1  0  0  0
 42 43  1  0  0  0
 42 66  1  0  0  0
 42111  1  0  0  0
 42112  1  0  0  0
 43 44  1  0  0  0
 44113  1  0  0  0
 45 46  2  0  0  0
 45114  1  0  0  0
 46115  1  0  0  0
 47116  1  0  0  0
 47117  1  0  0  0
 48 56  1  0  0  0
 48 65  1  0  0  0
 48118  1  0  0  0
 49 50  1  0  0  0
 49 53  1  0  0  0
 49 64  1  0  0  0
 49119  1  0  0  0
 50 51  1  0  0  0
 50120  1  0  0  0
 50121  1  0  0  0
 51 52  1  0  0  0
 51122  1  0  0  0
 51123  1  0  0  0
 52124  1  0  0  0
 52125  1  0  0  0
 53 54  1  0  0  0
 54 55  2  0  0  0
 54126  1  0  0  0
 55 57  1  0  0  0
 55127  1  0  0  0
 56 69  2  0  0  0
 57 58  2  0  0  0
 57128  1  0  0  0
 58129  1  0  0  0
 59 60  1  0  0  0
 59 61  1  0  0  0
 59 62  1  0  0  0
 60130  1  0  0  0
 60131  1  0  0  0
 60132  1  0  0  0
 61133  1  0  0  0
 61134  1  0  0  0
 61135  1  0  0  0
 62136  1  0  0  0
 62137  1  0  0  0
 62138  1  0  0  0
 63 65  1  0  0  0
 63139  1  0  0  0
 63140  1  0  0  0
 63141  1  0  0  0
 64142  1  0  0  0
 65143  1  0  0  0
 68 81  1  0  0  0
 71 72  2  0  0  0
 71 83  1  0  0  0
 71144  1  0  0  0
 72 73  1  0  0  0
 72 75  1  0  0  0
 73 76  1  0  0  0
 73 82  2  0  0  0
 74 76  1  0  0  0
 74145  1  0  0  0
 74146  1  0  0  0
 74147  1  0  0  0
 75 77  1  0  0  0
 75148  1  0  0  0
 75149  1  0  0  0
 76150  1  0  0  0
 76151  1  0  0  0
 77 80  1  0  0  0
 77152  1  0  0  0
 77153  1  0  0  0
 78 79  1  0  0  0
 78 81  1  0  0  0
 78154  1  0  0  0
 78155  1  0  0  0
 79 83  1  0  0  0
 79156  1  0  0  0
 79157  1  0  0  0
 80 84  1  0  0  0
 80158  1  0  0  0
 80159  1  0  0  0
 81160  1  0  0  0
 81161  1  0  0  0
 82 83  1  0  0  0
 84162  1  0  0  0
M  ISO  4   1 100  68 101  81 101  84 100
M  END
> <chiral flag>
0

> <version>
0

> <s_m_source_file>
/data/baiqing/PycharmProjects/Reinvent-master-3.2/result/LINK_invent/BTK/process_docking_weight1_custom_sum_contain_oxygen_bond_distance_aromatic_linkinvent_7_9_3/rearranged_h_0040.sdf

> <i_m_source_file_index>
94

> <r_mmod_Potential_Energy-OPLS-2005>
205.2060546875

> <r_mmod_Stretch_Energy-OPLS-2005>
30.5432605743408

> <r_mmod_Bend_Energy-OPLS-2005>
323.100250244141

> <r_mmod_Torsional_Energy-OPLS-2005>
304.976135253906

> <r_mmod_Improper_Torsional_Energy-OPLS-2005>
25.3126926422119

> <r_mmod_Van_der_Waal_Energy-OPLS-2005>
138.503997802734

> <r_mmod_Electrostatic_Energy-OPLS-2005>
-418.048492431641

> <r_mmod_Solvation_Energy-OPLS-2005>
-213.774444580078

> <b_mmod_Minimization_Converged-OPLS-2005>
0

> <r_mmod_RMS_Derivative-OPLS-2005>
2.92534828186035

$$$$
94
                    3D
 Structure written by MMmdl.
161169  0  0  1  0            999 V2000
  -30.6667  -14.5399   20.5221 C   0  0  0  0  0  0
  -30.4291  -12.3315   19.4477 C   0  0  0  0  0  0
  -29.5054  -12.5026   18.2224 C   0  0  0  0  0  0
  -28.0252  -12.3584   18.6281 C   0  0  0  0  0  0
  -27.6600  -13.2114   19.8729 C   0  0  2  0  0  0
  -28.7017  -13.0270   21.0020 C   0  0  0  0  0  0
  -25.2584  -13.8167   20.5686 C   0  0  0  0  0  0
  -24.1839  -13.0435   20.9181 C   0  0  0  0  0  0
  -24.6398  -11.6902   20.8736 C   0  0  0  0  0  0
  -23.9060  -10.4291   21.0398 C   0  0  0  0  0  0
  -24.3611   -9.4206   21.9176 C   0  0  0  0  0  0
  -23.6289   -8.2243   22.0748 C   0  0  0  0  0  0
  -22.4270   -8.0280   21.3541 C   0  0  0  0  0  0
  -21.9908   -9.0251   20.4642 C   0  0  0  0  0  0
  -22.7233  -10.2128   20.3049 C   0  0  0  0  0  0
  -21.6854   -6.0734   22.5275 C   0  0  0  0  0  0
  -21.4019   -6.5634   23.8208 C   0  0  0  0  0  0
  -21.3664   -5.6785   24.9170 C   0  0  0  0  0  0
  -21.6043   -4.3049   24.7217 C   0  0  0  0  0  0
  -21.8815   -3.8143   23.4339 C   0  0  0  0  0  0
  -21.9192   -4.6965   22.3396 C   0  0  0  0  0  0
  -22.7860  -13.5232   21.1835 C   0  0  0  0  0  0
  -22.1659   -4.2150   21.0973 F   0  0  0  0  0  0
  -21.5630   -3.4529   25.7733 F   0  0  0  0  0  0
  -30.0305  -13.3355   20.4491 N   0  0  0  0  0  0
  -26.3021  -12.9342   20.3355 N   0  0  0  0  0  0
  -25.9329  -11.6496   20.5769 N   0  0  0  0  0  0
  -22.0493  -12.8242   22.0397 N   0  0  0  0  0  0
  -25.4291  -15.1889   20.4100 N   0  0  0  0  0  0
  -31.8076  -14.7126   20.0866 O   0  0  0  0  0  0
  -21.6635   -6.8880   21.4237 O   0  0  0  0  0  0
  -22.3545  -14.5533   20.6668 O   0  0  0  0  0  0
  -24.6194  -31.8649   23.2067 C   0  0  0  0  0  0
  -25.9069  -32.4806   23.8376 C   0  0  1  0  0  0
  -27.2298  -27.3801   20.1039 C   0  0  0  0  0  0
  -25.5904  -33.8605   24.2305 N   0  0  0  0  0  0
  -23.4096  -30.4888   21.5487 C   0  0  2  0  0  0
  -24.8549  -28.9505   20.1124 C   0  0  0  0  0  0
  -22.7436  -29.4650   22.4971 C   0  0  0  0  0  0
  -18.0281  -28.1384   22.8497 C   0  0  0  0  0  0
  -24.1484  -36.7304   23.2638 C   0  0  0  0  0  0
  -25.9443  -30.8136   21.3685 C   0  0  0  0  0  0
  -26.0191  -29.4452   20.7127 C   0  0  0  0  0  0
  -27.2071  -28.6687   20.7032 C   0  0  0  0  0  0
  -26.0442  -26.9227   19.4812 C   0  0  0  0  0  0
  -24.8654  -27.6913   19.4921 C   0  0  0  0  0  0
  -23.6199  -29.8231   20.1632 C   0  0  0  0  0  0
  -25.4109  -36.3102   24.0334 C   0  0  1  0  0  0
  -20.5875  -28.3681   23.1306 C   0  0  2  0  0  0
  -20.6772  -26.9414   22.5417 C   0  0  0  0  0  0
  -19.5748  -26.6389   21.5219 C   0  0  0  0  0  0
  -18.1927  -26.7928   22.1632 C   0  0  0  0  0  0
  -19.1531  -28.8849   23.2898 C   0  0  0  0  0  0
  -18.9456  -30.1453   23.8910 C   0  0  0  0  0  0
  -17.6458  -30.6590   24.0568 C   0  0  0  0  0  0
  -25.9042  -34.9468   23.5121 C   0  0  0  0  0  0
  -16.5350  -29.9092   23.6325 C   0  0  0  0  0  0
  -16.7270  -28.6508   23.0351 C   0  0  0  0  0  0
  -26.4477  -31.6597   25.0722 C   0  0  0  0  0  0
  -25.3725  -31.3722   26.1458 C   0  0  0  0  0  0
  -27.0309  -30.3029   24.6129 C   0  0  0  0  0  0
  -27.6046  -32.4324   25.7486 C   0  0  0  0  0  0
  -27.5580  -37.1807   24.8468 C   0  0  0  0  0  0
  -21.4159  -29.3038   22.3704 N   0  0  0  0  0  0
  -26.4294  -37.3789   23.9409 N   0  0  0  0  0  0
  -24.6764  -31.0710   22.0990 N   0  0  0  0  0  0
  -23.4189  -28.8195   23.3032 O   0  0  0  0  0  0
  -28.3828  -26.6006   20.1547 O   0  0  0  0  0  0
  -26.5612  -34.8927   22.4687 O   0  0  0  0  0  0
  -23.5375  -32.1423   23.7432 O   0  0  0  0  0  0
  -29.9882  -20.2542   19.0500 C   0  0  0  0  0  0
  -30.0737  -22.6416   18.6501 C   0  0  0  0  0  0
  -30.2886  -21.3275   18.1926 C   0  0  0  0  0  0
  -29.4897  -20.5189   20.3366 C   0  0  0  0  0  0
  -29.5761  -22.8548   19.9496 C   0  0  0  0  0  0
  -29.7235  -20.6578   15.8185 C   0  0  0  0  0  0
  -30.8282  -21.0655   16.8001 C   0  0  0  0  0  0
  -29.0706  -19.3563   21.2626 C   0  0  0  0  0  0
  -29.4379  -24.3072   20.4746 C   0  0  0  0  0  0
  -30.0245  -18.1180   21.4494 C   0  0  0  0  0  0
  -29.9929  -16.9875   20.3674 C   0  0  0  0  0  0
  -28.2842  -25.1722   19.8694 C   0  0  0  0  0  0
  -29.2862  -21.8016   20.7739 N   0  0  0  0  0  0
  -29.8880  -15.5908   20.8757 N   0  0  0  0  0  0
  -31.4746  -12.4325   19.1508 H   0  0  0  0  0  0
  -30.3342  -11.3286   19.8648 H   0  0  0  0  0  0
  -29.7553  -11.7672   17.4563 H   0  0  0  0  0  0
  -29.6700  -13.4822   17.7709 H   0  0  0  0  0  0
  -27.8431  -11.3040   18.8372 H   0  0  0  0  0  0
  -27.3776  -12.6166   17.7896 H   0  0  0  0  0  0
  -27.6917  -14.2538   19.5554 H   0  0  0  0  0  0
  -28.6864  -12.0013   21.3734 H   0  0  0  0  0  0
  -28.4602  -13.6541   21.8612 H   0  0  0  0  0  0
  -25.2757   -9.5682   22.4745 H   0  0  0  0  0  0
  -23.9994   -7.4637   22.7465 H   0  0  0  0  0  0
  -21.0838   -8.8765   19.8954 H   0  0  0  0  0  0
  -22.3691  -10.9660   19.6154 H   0  0  0  0  0  0
  -21.2012   -7.6141   23.9717 H   0  0  0  0  0  0
  -21.1495   -6.0512   25.9073 H   0  0  0  0  0  0
  -22.0596   -2.7609   23.2831 H   0  0  0  0  0  0
  -22.4105  -11.9916   22.4808 H   0  0  0  0  0  0
  -21.1105  -13.1268   22.2576 H   0  0  0  0  0  0
  -24.6589  -15.8407   20.5150 H   0  0  0  0  0  0
  -26.2775  -15.6311   20.0793 H   0  0  0  0  0  0
  -26.7136  -32.5500   23.1132 H   0  0  0  0  0  0
  -25.0039  -33.9762   25.0440 H   0  0  0  0  0  0
  -22.7008  -31.3074   21.4087 H   0  0  0  0  0  0
  -23.3746  -35.9638   23.3315 H   0  0  0  0  0  0
  -24.3575  -36.8905   22.2049 H   0  0  0  0  0  0
  -23.7238  -37.6513   23.6646 H   0  0  0  0  0  0
  -26.0654  -31.5785   20.6002 H   0  0  0  0  0  0
  -26.8294  -30.8643   21.9912 H   0  0  0  0  0  0
  -28.1025  -29.0445   21.1787 H   0  0  0  0  0  0
  -26.0018  -25.9656   18.9829 H   0  0  0  0  0  0
  -23.9721  -27.3063   19.0190 H   0  0  0  0  0  0
  -23.7323  -30.5988   19.4047 H   0  0  0  0  0  0
  -22.7419  -29.2468   19.8659 H   0  0  0  0  0  0
  -25.1286  -36.1964   25.0828 H   0  0  0  0  0  0
  -20.9971  -28.3252   24.1425 H   0  0  0  0  0  0
  -20.5686  -26.2291   23.3609 H   0  0  0  0  0  0
  -21.6640  -26.7457   22.1202 H   0  0  0  0  0  0
  -19.6910  -25.6303   21.1243 H   0  0  0  0  0  0
  -19.6682  -27.3204   20.6752 H   0  0  0  0  0  0
  -17.4197  -26.6679   21.4034 H   0  0  0  0  0  0
  -18.0329  -26.0068   22.9027 H   0  0  0  0  0  0
  -19.7933  -30.7264   24.2285 H   0  0  0  0  0  0
  -17.5016  -31.6270   24.5167 H   0  0  0  0  0  0
  -15.5353  -30.3002   23.7638 H   0  0  0  0  0  0
  -15.8669  -28.0832   22.7057 H   0  0  0  0  0  0
  -24.5897  -30.7073   25.7792 H   0  0  0  0  0  0
  -24.8917  -32.2883   26.4897 H   0  0  0  0  0  0
  -25.8057  -30.8893   27.0225 H   0  0  0  0  0  0
  -26.2864  -29.6798   24.1157 H   0  0  0  0  0  0
  -27.4035  -29.7263   25.4606 H   0  0  0  0  0  0
  -27.8721  -30.4338   23.9317 H   0  0  0  0  0  0
  -27.2661  -33.3620   26.2077 H   0  0  0  0  0  0
  -28.3844  -32.6894   25.0304 H   0  0  0  0  0  0
  -28.0726  -31.8441   26.5389 H   0  0  0  0  0  0
  -28.2605  -38.0096   24.7508 H   0  0  0  0  0  0
  -28.1065  -36.2627   24.6300 H   0  0  0  0  0  0
  -27.2298  -37.1465   25.8871 H   0  0  0  0  0  0
  -20.9330  -29.8752   21.6913 H   0  0  0  0  0  0
  -26.0181  -38.2869   24.1405 H   0  0  0  0  0  0
  -30.1263  -19.2375   18.7112 H   0  0  0  0  0  0
  -30.3065  -23.4854   18.0142 H   0  0  0  0  0  0
  -30.1342  -20.4785   14.8249 H   0  0  0  0  0  0
  -28.9680  -21.4386   15.7309 H   0  0  0  0  0  0
  -29.2247  -19.7441   16.1432 H   0  0  0  0  0  0
  -31.5838  -20.2805   16.8557 H   0  0  0  0  0  0
  -31.3405  -21.9551   16.4323 H   0  0  0  0  0  0
  -28.0885  -19.0089   20.9422 H   0  0  0  0  0  0
  -28.9069  -19.7888   22.2507 H   0  0  0  0  0  0
  -30.3845  -24.8093   20.2737 H   0  0  0  0  0  0
  -29.3430  -24.2894   21.5605 H   0  0  0  0  0  0
  -29.7390  -17.6585   22.3962 H   0  0  0  0  0  0
  -31.0477  -18.4626   21.6051 H   0  0  0  0  0  0
  -30.8621  -17.0926   19.7147 H   0  0  0  0  0  0
  -29.1300  -17.1410   19.7186 H   0  0  0  0  0  0
  -27.3482  -24.7562   20.2437 H   0  0  0  0  0  0
  -28.2776  -25.0536   18.7854 H   0  0  0  0  0  0
  -28.9890  -15.3321   21.2558 H   0  0  0  0  0  0
  1 25  1  0  0  0
  1 30  2  0  0  0
  1 84  1  0  0  0
  2  3  1  0  0  0
  2 25  1  0  0  0
  2 85  1  0  0  0
  2 86  1  0  0  0
  3  4  1  0  0  0
  3 87  1  0  0  0
  3 88  1  0  0  0
  4  5  1  0  0  0
  4 89  1  0  0  0
  4 90  1  0  0  0
  5  6  1  0  0  0
  5 26  1  0  0  0
  5 91  1  0  0  0
  6 25  1  0  0  0
  6 92  1  0  0  0
  6 93  1  0  0  0
  7  8  2  0  0  0
  7 26  1  0  0  0
  7 29  1  0  0  0
  8  9  1  0  0  0
  8 22  1  0  0  0
  9 10  1  0  0  0
  9 27  2  0  0  0
 10 11  2  0  0  0
 10 15  1  0  0  0
 11 12  1  0  0  0
 11 94  1  0  0  0
 12 13  2  0  0  0
 12 95  1  0  0  0
 13 14  1  0  0  0
 13 31  1  0  0  0
 14 15  2  0  0  0
 14 96  1  0  0  0
 15 97  1  0  0  0
 16 17  2  0  0  0
 16 21  1  0  0  0
 16 31  1  0  0  0
 17 18  1  0  0  0
 17 98  1  0  0  0
 18 19  2  0  0  0
 18 99  1  0  0  0
 19 20  1  0  0  0
 19 24  1  0  0  0
 20 21  2  0  0  0
 20100  1  0  0  0
 21 23  1  0  0  0
 22 28  1  0  0  0
 22 32  2  0  0  0
 26 27  1  0  0  0
 28101  1  0  0  0
 28102  1  0  0  0
 29103  1  0  0  0
 29104  1  0  0  0
 33 34  1  0  0  0
 33 66  1  0  0  0
 33 70  2  0  0  0
 34 36  1  0  0  0
 34 59  1  0  0  0
 34105  1  0  0  0
 35 44  2  0  0  0
 35 45  1  0  0  0
 35 68  1  0  0  0
 36 56  1  0  0  0
 36106  1  0  0  0
 37 39  1  0  0  0
 37 47  1  0  0  0
 37 66  1  0  0  0
 37107  1  0  0  0
 38 43  2  0  0  0
 38 46  1  0  0  0
 38 47  1  0  0  0
 39 64  1  0  0  0
 39 67  2  0  0  0
 40 52  1  0  0  0
 40 53  2  0  0  0
 40 58  1  0  0  0
 41108  1  0  0  0
 41109  1  0  0  0
 41110  1  0  0  0
 41 48  1  0  0  0
 42 43  1  0  0  0
 42 66  1  0  0  0
 42111  1  0  0  0
 42112  1  0  0  0
 43 44  1  0  0  0
 44113  1  0  0  0
 45 46  2  0  0  0
 45114  1  0  0  0
 46115  1  0  0  0
 47116  1  0  0  0
 47117  1  0  0  0
 48 56  1  0  0  0
 48 65  1  0  0  0
 48118  1  0  0  0
 49 50  1  0  0  0
 49 53  1  0  0  0
 49 64  1  0  0  0
 49119  1  0  0  0
 50 51  1  0  0  0
 50120  1  0  0  0
 50121  1  0  0  0
 51 52  1  0  0  0
 51122  1  0  0  0
 51123  1  0  0  0
 52124  1  0  0  0
 52125  1  0  0  0
 53 54  1  0  0  0
 54 55  2  0  0  0
 54126  1  0  0  0
 55 57  1  0  0  0
 55127  1  0  0  0
 56 69  2  0  0  0
 57 58  2  0  0  0
 57128  1  0  0  0
 58129  1  0  0  0
 59 60  1  0  0  0
 59 61  1  0  0  0
 59 62  1  0  0  0
 60130  1  0  0  0
 60131  1  0  0  0
 60132  1  0  0  0
 61133  1  0  0  0
 61134  1  0  0  0
 61135  1  0  0  0
 62136  1  0  0  0
 62137  1  0  0  0
 62138  1  0  0  0
 63 65  1  0  0  0
 63139  1  0  0  0
 63140  1  0  0  0
 63141  1  0  0  0
 64142  1  0  0  0
 65143  1  0  0  0
 68 82  1  0  0  0
 71 73  2  0  0  0
 71 74  1  0  0  0
 71144  1  0  0  0
 72 73  1  0  0  0
 72 75  2  0  0  0
 72145  1  0  0  0
 73 77  1  0  0  0
 74 78  1  0  0  0
 74 83  2  0  0  0
 75 79  1  0  0  0
 75 83  1  0  0  0
 76 77  1  0  0  0
 76146  1  0  0  0
 76147  1  0  0  0
 76148  1  0  0  0
 77149  1  0  0  0
 77150  1  0  0  0
 78 80  1  0  0  0
 78151  1  0  0  0
 78152  1  0  0  0
 79 82  1  0  0  0
 79153  1  0  0  0
 79154  1  0  0  0
 80 81  1  0  0  0
 80155  1  0  0  0
 80156  1  0  0  0
 81 84  1  0  0  0
 81157  1  0  0  0
 81158  1  0  0  0
 82159  1  0  0  0
 82160  1  0  0  0
 84161  1  0  0  0
M  ISO  4   1 100  68 101  82 101  84 100
M  END
> <chiral flag>
0

> <version>
0

> <s_m_source_file>
/data/baiqing/PycharmProjects/Reinvent-master-3.2/result/LINK_invent/BTK/process_docking_weight1_custom_sum_contain_oxygen_bond_distance_aromatic_linkinvent_7_9_3/rearranged_h_0040.sdf

> <i_m_source_file_index>
95

> <r_mmod_Potential_Energy-OPLS-2005>
-187.921813964844

> <r_mmod_Stretch_Energy-OPLS-2005>
52.1688804626465

> <r_mmod_Bend_Energy-OPLS-2005>
112.403251647949

> <r_mmod_Torsional_Energy-OPLS-2005>
218.376937866211

> <r_mmod_Improper_Torsional_Energy-OPLS-2005>
7.09347534179688

> <r_mmod_Van_der_Waal_Energy-OPLS-2005>
147.609924316406

> <r_mmod_Electrostatic_Energy-OPLS-2005>
-526.832580566406

> <r_mmod_Solvation_Energy-OPLS-2005>
-222.870407104492

> <b_mmod_Minimization_Converged-OPLS-2005>
0

> <r_mmod_RMS_Derivative-OPLS-2005>
0.990270912647247

$$$$
95
                    3D
 Structure written by MMmdl.
159167  0  0  1  0            999 V2000
  -30.6876  -14.5498   20.5595 C   0  0  0  0  0  0
  -30.4276  -12.3565   19.4321 C   0  0  0  0  0  0
  -29.4968  -12.5055   18.2111 C   0  0  0  0  0  0
  -28.0208  -12.3522   18.6277 C   0  0  0  0  0  0
  -27.6553  -13.2144   19.8658 C   0  0  2  0  0  0
  -28.7002  -13.0450   20.9906 C   0  0  0  0  0  0
  -25.2569  -13.8173   20.5693 C   0  0  0  0  0  0
  -24.1828  -13.0441   20.9186 C   0  0  0  0  0  0
  -24.6394  -11.6910   20.8736 C   0  0  0  0  0  0
  -23.9063  -10.4294   21.0405 C   0  0  0  0  0  0
  -24.3614   -9.4212   21.9185 C   0  0  0  0  0  0
  -23.6291   -8.2245   22.0755 C   0  0  0  0  0  0
  -22.4273   -8.0282   21.3544 C   0  0  0  0  0  0
  -21.9909   -9.0255   20.4646 C   0  0  0  0  0  0
  -22.7235  -10.2136   20.3055 C   0  0  0  0  0  0
  -21.6854   -6.0736   22.5280 C   0  0  0  0  0  0
  -21.4013   -6.5639   23.8212 C   0  0  0  0  0  0
  -21.3659   -5.6791   24.9174 C   0  0  0  0  0  0
  -21.6045   -4.3056   24.7225 C   0  0  0  0  0  0
  -21.8819   -3.8148   23.4346 C   0  0  0  0  0  0
  -21.9192   -4.6964   22.3403 C   0  0  0  0  0  0
  -22.7852  -13.5238   21.1850 C   0  0  0  0  0  0
  -22.1661   -4.2150   21.0980 F   0  0  0  0  0  0
  -21.5631   -3.4540   25.7738 F   0  0  0  0  0  0
  -30.0199  -13.3664   20.4246 N   0  0  0  0  0  0
  -26.3001  -12.9355   20.3339 N   0  0  0  0  0  0
  -25.9323  -11.6510   20.5759 N   0  0  0  0  0  0
  -22.0489  -12.8226   22.0400 N   0  0  0  0  0  0
  -25.4292  -15.1894   20.4122 N   0  0  0  0  0  0
  -31.8376  -14.7046   20.1413 O   0  0  0  0  0  0
  -21.6639   -6.8878   21.4240 O   0  0  0  0  0  0
  -22.3537  -14.5546   20.6703 O   0  0  0  0  0  0
  -24.6231  -31.8646   23.2084 C   0  0  0  0  0  0
  -25.9100  -32.4802   23.8390 C   0  0  1  0  0  0
  -27.2185  -27.3594   20.0949 C   0  0  0  0  0  0
  -25.5935  -33.8602   24.2315 N   0  0  0  0  0  0
  -23.4127  -30.4932   21.5515 C   0  0  2  0  0  0
  -24.8546  -28.9610   20.1110 C   0  0  0  0  0  0
  -22.7456  -29.4653   22.4957 C   0  0  0  0  0  0
  -18.0287  -28.1381   22.8489 C   0  0  0  0  0  0
  -24.1491  -36.7301   23.2637 C   0  0  0  0  0  0
  -25.9528  -30.8062   21.3754 C   0  0  0  0  0  0
  -26.0245  -29.4390   20.7145 C   0  0  0  0  0  0
  -27.2081  -28.6482   20.7031 C   0  0  0  0  0  0
  -26.0202  -26.9321   19.4680 C   0  0  0  0  0  0
  -24.8521  -27.7095   19.4831 C   0  0  0  0  0  0
  -23.6228  -29.8375   20.1636 C   0  0  0  0  0  0
  -25.4111  -36.3095   24.0332 C   0  0  1  0  0  0
  -20.5884  -28.3681   23.1290 C   0  0  2  0  0  0
  -20.6773  -26.9406   22.5411 C   0  0  0  0  0  0
  -19.5750  -26.6381   21.5214 C   0  0  0  0  0  0
  -18.1928  -26.7925   22.1622 C   0  0  0  0  0  0
  -19.1537  -28.8848   23.2888 C   0  0  0  0  0  0
  -18.9462  -30.1453   23.8900 C   0  0  0  0  0  0
  -17.6461  -30.6583   24.0570 C   0  0  0  0  0  0
  -25.9048  -34.9463   23.5118 C   0  0  0  0  0  0
  -16.5357  -29.9083   23.6330 C   0  0  0  0  0  0
  -16.7273  -28.6503   23.0343 C   0  0  0  0  0  0
  -26.4491  -31.6598   25.0746 C   0  0  0  0  0  0
  -25.3731  -31.3737   26.1484 C   0  0  0  0  0  0
  -27.0318  -30.3020   24.6174 C   0  0  0  0  0  0
  -27.6064  -32.4321   25.7499 C   0  0  0  0  0  0
  -27.5586  -37.1799   24.8461 C   0  0  0  0  0  0
  -21.4176  -29.3049   22.3697 N   0  0  0  0  0  0
  -26.4291  -37.3785   23.9415 N   0  0  0  0  0  0
  -24.6817  -31.0697   22.1018 N   0  0  0  0  0  0
  -23.4203  -28.8174   23.3005 O   0  0  0  0  0  0
  -28.3490  -26.5330   20.1379 O   0  0  0  0  0  0
  -26.5606  -34.8922   22.4678 O   0  0  0  0  0  0
  -23.5407  -32.1433   23.7434 O   0  0  0  0  0  0
  -29.0863  -20.8905   18.0922 C   0  0  0  0  0  0
  -28.9321  -21.9514   17.1721 C   0  0  0  0  0  0
  -29.2774  -21.4423   19.3353 C   0  0  0  0  0  0
  -28.7157  -21.8900   15.6880 C   0  0  0  0  0  0
  -29.5683  -20.7673   20.6754 C   0  0  0  0  0  0
  -29.2581  -19.2266   20.8891 C   0  0  0  0  0  0
  -30.3571  -18.1515   20.5422 C   0  0  0  0  0  0
  -29.2749  -24.0467   19.9911 C   0  0  0  0  0  0
  -30.5114  -16.9151   21.5062 C   0  0  0  0  0  0
  -28.1678  -25.1407   19.7144 C   0  0  0  0  0  0
  -29.0097  -23.1124   17.7882 N   0  0  0  0  0  0
  -29.1701  -22.8450   19.1137 N   0  0  0  0  0  0
  -29.9845  -15.5936   21.0678 N   0  0  0  0  0  0
  -29.0471  -19.2228   17.6444 Cl  0  0  0  0  0  0
  -31.4697  -12.4675   19.1275 H   0  0  0  0  0  0
  -30.3476  -11.3554   19.8589 H   0  0  0  0  0  0
  -29.7495  -11.7642   17.4521 H   0  0  0  0  0  0
  -29.6485  -13.4820   17.7482 H   0  0  0  0  0  0
  -27.8490  -11.2978   18.8478 H   0  0  0  0  0  0
  -27.3655  -12.5971   17.7913 H   0  0  0  0  0  0
  -27.6831  -14.2547   19.5404 H   0  0  0  0  0  0
  -28.6970  -12.0200   21.3637 H   0  0  0  0  0  0
  -28.4541  -13.6716   21.8490 H   0  0  0  0  0  0
  -25.2761   -9.5690   22.4758 H   0  0  0  0  0  0
  -24.0003   -7.4638   22.7475 H   0  0  0  0  0  0
  -21.0843   -8.8773   19.8950 H   0  0  0  0  0  0
  -22.3696  -10.9674   19.6163 H   0  0  0  0  0  0
  -21.2002   -7.6146   23.9716 H   0  0  0  0  0  0
  -21.1484   -6.0522   25.9077 H   0  0  0  0  0  0
  -22.0598   -2.7611   23.2846 H   0  0  0  0  0  0
  -22.4097  -11.9881   22.4783 H   0  0  0  0  0  0
  -21.1106  -13.1254   22.2602 H   0  0  0  0  0  0
  -24.6657  -15.8468   20.5281 H   0  0  0  0  0  0
  -26.2835  -15.6293   20.0937 H   0  0  0  0  0  0
  -26.7171  -32.5480   23.1143 H   0  0  0  0  0  0
  -25.0103  -33.9754   25.0475 H   0  0  0  0  0  0
  -22.7053  -31.3139   21.4162 H   0  0  0  0  0  0
  -23.3753  -35.9638   23.3300 H   0  0  0  0  0  0
  -24.3591  -36.8912   22.2054 H   0  0  0  0  0  0
  -23.7240  -37.6504   23.6651 H   0  0  0  0  0  0
  -26.0826  -31.5723   20.6093 H   0  0  0  0  0  0
  -26.8347  -30.8502   22.0029 H   0  0  0  0  0  0
  -28.1058  -29.0117   21.1838 H   0  0  0  0  0  0
  -25.9401  -25.9843   18.9580 H   0  0  0  0  0  0
  -23.9553  -27.3377   19.0062 H   0  0  0  0  0  0
  -23.7401  -30.6198   19.4124 H   0  0  0  0  0  0
  -22.7418  -29.2691   19.8595 H   0  0  0  0  0  0
  -25.1281  -36.1958   25.0822 H   0  0  0  0  0  0
  -20.9986  -28.3253   24.1405 H   0  0  0  0  0  0
  -20.5677  -26.2288   23.3603 H   0  0  0  0  0  0
  -21.6639  -26.7431   22.1202 H   0  0  0  0  0  0
  -19.6909  -25.6295   21.1233 H   0  0  0  0  0  0
  -19.6690  -27.3205   20.6755 H   0  0  0  0  0  0
  -17.4198  -26.6692   21.4021 H   0  0  0  0  0  0
  -18.0320  -26.0059   22.9007 H   0  0  0  0  0  0
  -19.7941  -30.7273   24.2260 H   0  0  0  0  0  0
  -17.5017  -31.6260   24.5181 H   0  0  0  0  0  0
  -15.5359  -30.2988   23.7645 H   0  0  0  0  0  0
  -15.8673  -28.0830   22.7040 H   0  0  0  0  0  0
  -24.5881  -30.7116   25.7816 H   0  0  0  0  0  0
  -24.8959  -32.2914   26.4938 H   0  0  0  0  0  0
  -25.8052  -30.8885   27.0245 H   0  0  0  0  0  0
  -26.2886  -29.6786   24.1194 H   0  0  0  0  0  0
  -27.4021  -29.7255   25.4663 H   0  0  0  0  0  0
  -27.8753  -30.4310   23.9387 H   0  0  0  0  0  0
  -27.2693  -33.3627   26.2079 H   0  0  0  0  0  0
  -28.3867  -32.6874   25.0315 H   0  0  0  0  0  0
  -28.0745  -31.8448   26.5408 H   0  0  0  0  0  0
  -28.2582  -38.0116   24.7527 H   0  0  0  0  0  0
  -28.1095  -36.2642   24.6252 H   0  0  0  0  0  0
  -27.2309  -37.1415   25.8865 H   0  0  0  0  0  0
  -20.9342  -29.8796   21.6935 H   0  0  0  0  0  0
  -26.0174  -38.2857   24.1429 H   0  0  0  0  0  0
  -27.8499  -21.2733   15.4481 H   0  0  0  0  0  0
  -29.5795  -21.4536   15.1870 H   0  0  0  0  0  0
  -28.5463  -22.8776   15.2587 H   0  0  0  0  0  0
  -28.9883  -21.3069   21.4245 H   0  0  0  0  0  0
  -30.6064  -20.9601   20.9459 H   0  0  0  0  0  0
  -28.3041  -18.9606   20.4327 H   0  0  0  0  0  0
  -29.0751  -19.1274   21.9593 H   0  0  0  0  0  0
  -31.3152  -18.6729   20.5560 H   0  0  0  0  0  0
  -30.2568  -17.7973   19.5188 H   0  0  0  0  0  0
  -29.2445  -23.7330   21.0344 H   0  0  0  0  0  0
  -30.2603  -24.4829   19.8267 H   0  0  0  0  0  0
  -30.0694  -17.1431   22.4765 H   0  0  0  0  0  0
  -31.5748  -16.7897   21.7201 H   0  0  0  0  0  0
  -27.2573  -24.7406   20.1632 H   0  0  0  0  0  0
  -27.9879  -25.2025   18.6415 H   0  0  0  0  0  0
  -29.0277  -15.3897   21.3176 H   0  0  0  0  0  0
  1 25  1  0  0  0
  1 30  2  0  0  0
  1 83  1  0  0  0
  2  3  1  0  0  0
  2 25  1  0  0  0
  2 85  1  0  0  0
  2 86  1  0  0  0
  3  4  1  0  0  0
  3 87  1  0  0  0
  3 88  1  0  0  0
  4  5  1  0  0  0
  4 89  1  0  0  0
  4 90  1  0  0  0
  5  6  1  0  0  0
  5 26  1  0  0  0
  5 91  1  0  0  0
  6 25  1  0  0  0
  6 92  1  0  0  0
  6 93  1  0  0  0
  7  8  2  0  0  0
  7 26  1  0  0  0
  7 29  1  0  0  0
  8  9  1  0  0  0
  8 22  1  0  0  0
  9 10  1  0  0  0
  9 27  2  0  0  0
 10 11  2  0  0  0
 10 15  1  0  0  0
 11 12  1  0  0  0
 11 94  1  0  0  0
 12 13  2  0  0  0
 12 95  1  0  0  0
 13 14  1  0  0  0
 13 31  1  0  0  0
 14 15  2  0  0  0
 14 96  1  0  0  0
 15 97  1  0  0  0
 16 17  2  0  0  0
 16 21  1  0  0  0
 16 31  1  0  0  0
 17 18  1  0  0  0
 17 98  1  0  0  0
 18 19  2  0  0  0
 18 99  1  0  0  0
 19 20  1  0  0  0
 19 24  1  0  0  0
 20 21  2  0  0  0
 20100  1  0  0  0
 21 23  1  0  0  0
 22 28  1  0  0  0
 22 32  2  0  0  0
 26 27  1  0  0  0
 28101  1  0  0  0
 28102  1  0  0  0
 29103  1  0  0  0
 29104  1  0  0  0
 33 34  1  0  0  0
 33 66  1  0  0  0
 33 70  2  0  0  0
 34 36  1  0  0  0
 34 59  1  0  0  0
 34105  1  0  0  0
 35 44  2  0  0  0
 35 45  1  0  0  0
 35 68  1  0  0  0
 36 56  1  0  0  0
 36106  1  0  0  0
 37 39  1  0  0  0
 37 47  1  0  0  0
 37 66  1  0  0  0
 37107  1  0  0  0
 38 43  2  0  0  0
 38 46  1  0  0  0
 38 47  1  0  0  0
 39 64  1  0  0  0
 39 67  2  0  0  0
 40 52  1  0  0  0
 40 53  2  0  0  0
 40 58  1  0  0  0
 41108  1  0  0  0
 41109  1  0  0  0
 41110  1  0  0  0
 41 48  1  0  0  0
 42 43  1  0  0  0
 42 66  1  0  0  0
 42111  1  0  0  0
 42112  1  0  0  0
 43 44  1  0  0  0
 44113  1  0  0  0
 45 46  2  0  0  0
 45114  1  0  0  0
 46115  1  0  0  0
 47116  1  0  0  0
 47117  1  0  0  0
 48 56  1  0  0  0
 48 65  1  0  0  0
 48118  1  0  0  0
 49 50  1  0  0  0
 49 53  1  0  0  0
 49 64  1  0  0  0
 49119  1  0  0  0
 50 51  1  0  0  0
 50120  1  0  0  0
 50121  1  0  0  0
 51 52  1  0  0  0
 51122  1  0  0  0
 51123  1  0  0  0
 52124  1  0  0  0
 52125  1  0  0  0
 53 54  1  0  0  0
 54 55  2  0  0  0
 54126  1  0  0  0
 55 57  1  0  0  0
 55127  1  0  0  0
 56 69  2  0  0  0
 57 58  2  0  0  0
 57128  1  0  0  0
 58129  1  0  0  0
 59 60  1  0  0  0
 59 61  1  0  0  0
 59 62  1  0  0  0
 60130  1  0  0  0
 60131  1  0  0  0
 60132  1  0  0  0
 61133  1  0  0  0
 61134  1  0  0  0
 61135  1  0  0  0
 62136  1  0  0  0
 62137  1  0  0  0
 62138  1  0  0  0
 63 65  1  0  0  0
 63139  1  0  0  0
 63140  1  0  0  0
 63141  1  0  0  0
 64142  1  0  0  0
 65143  1  0  0  0
 68 80  1  0  0  0
 71 72  1  0  0  0
 71 73  2  0  0  0
 71 84  1  0  0  0
 72 74  1  0  0  0
 72 81  2  0  0  0
 73 75  1  0  0  0
 73 82  1  0  0  0
 74144  1  0  0  0
 74145  1  0  0  0
 74146  1  0  0  0
 75 76  1  0  0  0
 75147  1  0  0  0
 75148  1  0  0  0
 76 77  1  0  0  0
 76149  1  0  0  0
 76150  1  0  0  0
 77 79  1  0  0  0
 77151  1  0  0  0
 77152  1  0  0  0
 78 80  1  0  0  0
 78 82  1  0  0  0
 78153  1  0  0  0
 78154  1  0  0  0
 79 83  1  0  0  0
 79155  1  0  0  0
 79156  1  0  0  0
 80157  1  0  0  0
 80158  1  0  0  0
 81 82  1  0  0  0
 83159  1  0  0  0
M  ISO  4   1 100  68 101  80 101  83 100
M  END
> <chiral flag>
0

> <version>
0

> <s_m_source_file>
/data/baiqing/PycharmProjects/Reinvent-master-3.2/result/LINK_invent/BTK/process_docking_weight1_custom_sum_contain_oxygen_bond_distance_aromatic_linkinvent_7_9_3/rearranged_h_0040.sdf

> <i_m_source_file_index>
96

> <r_mmod_Potential_Energy-OPLS-2005>
17.0432281494141

> <r_mmod_Stretch_Energy-OPLS-2005>
62.5666885375977

> <r_mmod_Bend_Energy-OPLS-2005>
144.842742919922

> <r_mmod_Torsional_Energy-OPLS-2005>
227.465087890625

> <r_mmod_Improper_Torsional_Energy-OPLS-2005>
2.98949980735779

> <r_mmod_Van_der_Waal_Energy-OPLS-2005>
135.734222412109

> <r_mmod_Electrostatic_Energy-OPLS-2005>
-368.564544677734

> <r_mmod_Solvation_Energy-OPLS-2005>
-217.853134155273

> <b_mmod_Minimization_Converged-OPLS-2005>
0

> <r_mmod_RMS_Derivative-OPLS-2005>
0.762358367443085

$$$$
