1
                    3D
 Structure written by MMmdl.
149157  0  0  1  0            999 V2000
  -30.5094  -15.0614   20.4539 C   0  0  0  0  0  0
  -30.4529  -12.6774   19.5021 C   0  0  0  0  0  0
  -29.5288  -12.5709   18.2622 C   0  0  0  0  0  0
  -28.0600  -12.3414   18.6702 C   0  0  0  0  0  0
  -27.6334  -13.2535   19.8481 C   0  0  2  0  0  0
  -28.6834  -13.2383   20.9778 C   0  0  0  0  0  0
  -25.2441  -13.8220   20.5677 C   0  0  0  0  0  0
  -24.1780  -13.0440   20.9246 C   0  0  0  0  0  0
  -24.6422  -11.6930   20.8787 C   0  0  0  0  0  0
  -23.9099  -10.4297   21.0417 C   0  0  0  0  0  0
  -24.3636   -9.4209   21.9191 C   0  0  0  0  0  0
  -23.6306   -8.2248   22.0747 C   0  0  0  0  0  0
  -22.4286   -8.0283   21.3537 C   0  0  0  0  0  0
  -21.9931   -9.0268   20.4639 C   0  0  0  0  0  0
  -22.7275  -10.2142   20.3057 C   0  0  0  0  0  0
  -21.6860   -6.0721   22.5265 C   0  0  0  0  0  0
  -21.4017   -6.5629   23.8192 C   0  0  0  0  0  0
  -21.3667   -5.6784   24.9162 C   0  0  0  0  0  0
  -21.6053   -4.3047   24.7212 C   0  0  0  0  0  0
  -21.8825   -3.8131   23.4333 C   0  0  0  0  0  0
  -21.9201   -4.6948   22.3387 C   0  0  0  0  0  0
  -22.7797  -13.5197   21.1892 C   0  0  0  0  0  0
  -22.1673   -4.2137   21.0964 F   0  0  0  0  0  0
  -21.5643   -3.4534   25.7726 F   0  0  0  0  0  0
  -29.9318  -13.7689   20.3954 N   0  0  0  0  0  0
  -26.2899  -12.9474   20.3283 N   0  0  0  0  0  0
  -25.9361  -11.6603   20.5780 N   0  0  0  0  0  0
  -22.0444  -12.8182   22.0441 N   0  0  0  0  0  0
  -25.4054  -15.1938   20.3992 N   0  0  0  0  0  0
  -31.6892  -15.1081   20.0780 O   0  0  0  0  0  0
  -21.6655   -6.8874   21.4224 O   0  0  0  0  0  0
  -22.3474  -14.5500   20.6725 O   0  0  0  0  0  0
  -24.6505  -31.8361   23.1818 C   0  0  0  0  0  0
  -25.9251  -32.4652   23.8221 C   0  0  1  0  0  0
  -27.2232  -27.0665   20.1482 C   0  0  0  0  0  0
  -25.5975  -33.8460   24.2140 N   0  0  0  0  0  0
  -23.4578  -30.4556   21.5272 C   0  0  2  0  0  0
  -24.9114  -28.8724   20.1071 C   0  0  0  0  0  0
  -22.7610  -29.4514   22.4802 C   0  0  0  0  0  0
  -18.0315  -28.1413   22.8459 C   0  0  0  0  0  0
  -24.1488  -36.7248   23.2642 C   0  0  0  0  0  0
  -26.0197  -30.6870   21.3923 C   0  0  0  0  0  0
  -26.0911  -29.2910   20.7354 C   0  0  0  0  0  0
  -27.2438  -28.4044   20.7424 C   0  0  0  0  0  0
  -26.0152  -26.7766   19.4709 C   0  0  0  0  0  0
  -24.8916  -27.6310   19.4575 C   0  0  0  0  0  0
  -23.6900  -29.7818   20.1485 C   0  0  0  0  0  0
  -25.4118  -36.3004   24.0308 C   0  0  1  0  0  0
  -20.5935  -28.3741   23.1203 C   0  0  2  0  0  0
  -20.6792  -26.9430   22.5395 C   0  0  0  0  0  0
  -19.5767  -26.6379   21.5204 C   0  0  0  0  0  0
  -18.1950  -26.7944   22.1615 C   0  0  0  0  0  0
  -19.1577  -28.8892   23.2824 C   0  0  0  0  0  0
  -18.9492  -30.1485   23.8857 C   0  0  0  0  0  0
  -17.6487  -30.6597   24.0560 C   0  0  0  0  0  0
  -25.9072  -34.9386   23.5029 C   0  0  0  0  0  0
  -16.5376  -29.9091   23.6342 C   0  0  0  0  0  0
  -16.7299  -28.6517   23.0341 C   0  0  0  0  0  0
  -26.4539  -31.6553   25.0697 C   0  0  0  0  0  0
  -25.3710  -31.3784   26.1386 C   0  0  0  0  0  0
  -27.0420  -30.2936   24.6342 C   0  0  0  0  0  0
  -27.6045  -32.4337   25.7507 C   0  0  0  0  0  0
  -27.5569  -37.1779   24.8464 C   0  0  0  0  0  0
  -21.4291  -29.3056   22.3572 N   0  0  0  0  0  0
  -26.4273  -37.3728   23.9414 N   0  0  0  0  0  0
  -24.7301  -31.0158   22.0885 N   0  0  0  0  0  0
  -23.4220  -28.8046   23.2963 O   0  0  0  0  0  0
  -28.2440  -26.0195   20.2219 O   0  0  0  0  0  0
  -26.5648  -34.8905   22.4603 O   0  0  0  0  0  0
  -23.5607  -32.1264   23.7005 O   0  0  0  0  0  0
  -30.1354  -22.7415   19.9130 C   0  0  0  0  0  0
  -28.7557  -23.0641   20.1623 C   0  0  0  0  0  0
  -28.7721  -16.2799   21.7597 C   0  0  0  0  0  0
  -27.8838  -24.4929   19.9720 C   0  0  0  0  0  0
  -29.1041  -19.2390   20.6806 C   0  0  0  0  0  0
  -30.0361  -17.8437   20.2412 C   0  0  0  0  0  0
  -30.4334  -21.4377   20.0189 N   0  0  0  0  0  0
  -28.2426  -21.8181   20.4141 N   0  0  0  0  0  0
  -29.2566  -20.8025   20.3006 N   0  0  0  0  0  0
  -29.7686  -16.3014   20.6859 N   0  0  0  0  0  0
  -31.4774  -12.8663   19.1780 H   0  0  0  0  0  0
  -30.5006  -11.7248   20.0319 H   0  0  0  0  0  0
  -29.8646  -11.7655   17.6070 H   0  0  0  0  0  0
  -29.6039  -13.4894   17.6783 H   0  0  0  0  0  0
  -27.9577  -11.2955   18.9606 H   0  0  0  0  0  0
  -27.3977  -12.4880   17.8162 H   0  0  0  0  0  0
  -27.6021  -14.2665   19.4459 H   0  0  0  0  0  0
  -28.8206  -12.2223   21.3521 H   0  0  0  0  0  0
  -28.3456  -13.7886   21.8486 H   0  0  0  0  0  0
  -25.2781   -9.5690   22.4768 H   0  0  0  0  0  0
  -24.0024   -7.4636   22.7454 H   0  0  0  0  0  0
  -21.0869   -8.8788   19.8940 H   0  0  0  0  0  0
  -22.3741  -10.9679   19.6160 H   0  0  0  0  0  0
  -21.1998   -7.6133   23.9694 H   0  0  0  0  0  0
  -21.1496   -6.0508   25.9063 H   0  0  0  0  0  0
  -22.0598   -2.7591   23.2828 H   0  0  0  0  0  0
  -22.4068  -11.9866   22.4865 H   0  0  0  0  0  0
  -21.1037  -13.1171   22.2601 H   0  0  0  0  0  0
  -24.6354  -15.8448   20.5027 H   0  0  0  0  0  0
  -26.2491  -15.6305   20.0506 H   0  0  0  0  0  0
  -26.7315  -32.5234   23.0943 H   0  0  0  0  0  0
  -25.0138  -33.9548   25.0299 H   0  0  0  0  0  0
  -22.7635  -31.2830   21.3665 H   0  0  0  0  0  0
  -23.3746  -35.9584   23.3280 H   0  0  0  0  0  0
  -24.3569  -36.8907   22.2060 H   0  0  0  0  0  0
  -23.7248  -37.6439   23.6695 H   0  0  0  0  0  0
  -26.1779  -31.4343   20.6138 H   0  0  0  0  0  0
  -26.8893  -30.7438   22.0351 H   0  0  0  0  0  0
  -28.1326  -28.7170   21.2727 H   0  0  0  0  0  0
  -25.8917  -25.8349   18.9584 H   0  0  0  0  0  0
  -23.9973  -27.3070   18.9433 H   0  0  0  0  0  0
  -23.8288  -30.5530   19.3904 H   0  0  0  0  0  0
  -22.8046  -29.2256   19.8364 H   0  0  0  0  0  0
  -25.1307  -36.1814   25.0797 H   0  0  0  0  0  0
  -21.0018  -28.3339   24.1326 H   0  0  0  0  0  0
  -20.5666  -26.2349   23.3623 H   0  0  0  0  0  0
  -21.6657  -26.7407   22.1203 H   0  0  0  0  0  0
  -19.6921  -25.6277   21.1261 H   0  0  0  0  0  0
  -19.6725  -27.3162   20.6716 H   0  0  0  0  0  0
  -17.4211  -26.6671   21.4029 H   0  0  0  0  0  0
  -18.0366  -26.0114   22.9042 H   0  0  0  0  0  0
  -19.7970  -30.7314   24.2199 H   0  0  0  0  0  0
  -17.5045  -31.6273   24.5173 H   0  0  0  0  0  0
  -15.5374  -30.2977   23.7703 H   0  0  0  0  0  0
  -15.8698  -28.0838   22.7051 H   0  0  0  0  0  0
  -24.5883  -30.7129   25.7724 H   0  0  0  0  0  0
  -24.8907  -32.2987   26.4725 H   0  0  0  0  0  0
  -25.7979  -30.9021   27.0219 H   0  0  0  0  0  0
  -26.3061  -29.6641   24.1324 H   0  0  0  0  0  0
  -27.3973  -29.7265   25.4957 H   0  0  0  0  0  0
  -27.8991  -30.4149   23.9717 H   0  0  0  0  0  0
  -27.2605  -33.3662   26.2000 H   0  0  0  0  0  0
  -28.3915  -32.6858   25.0387 H   0  0  0  0  0  0
  -28.0641  -31.8517   26.5506 H   0  0  0  0  0  0
  -28.2562  -38.0096   24.7494 H   0  0  0  0  0  0
  -28.1085  -36.2616   24.6296 H   0  0  0  0  0  0
  -27.2287  -37.1434   25.8867 H   0  0  0  0  0  0
  -20.9504  -29.8808   21.6790 H   0  0  0  0  0  0
  -26.0132  -38.2791   24.1424 H   0  0  0  0  0  0
  -30.9090  -23.4408   19.6267 H   0  0  0  0  0  0
  -29.1123  -15.6653   22.5938 H   0  0  0  0  0  0
  -27.8177  -15.9066   21.3959 H   0  0  0  0  0  0
  -28.5757  -17.2483   22.2058 H   0  0  0  0  0  0
  -26.9541  -24.3441   20.5216 H   0  0  0  0  0  0
  -27.5837  -24.4777   18.9241 H   0  0  0  0  0  0
  -29.1132  -19.2627   21.7691 H   0  0  0  0  0  0
  -28.0728  -18.9973   20.4243 H   0  0  0  0  0  0
  -31.0634  -18.0573   20.5377 H   0  0  0  0  0  0
  -30.0649  -17.8251   19.1515 H   0  0  0  0  0  0
  1 25  1  0  0  0
  1 30  2  0  0  0
  1 80  1  0  0  0
  2  3  1  0  0  0
  2 25  1  0  0  0
  2 81  1  0  0  0
  2 82  1  0  0  0
  3  4  1  0  0  0
  3 83  1  0  0  0
  3 84  1  0  0  0
  4  5  1  0  0  0
  4 85  1  0  0  0
  4 86  1  0  0  0
  5  6  1  0  0  0
  5 26  1  0  0  0
  5 87  1  0  0  0
  6 25  1  0  0  0
  6 88  1  0  0  0
  6 89  1  0  0  0
  7  8  2  0  0  0
  7 26  1  0  0  0
  7 29  1  0  0  0
  8  9  1  0  0  0
  8 22  1  0  0  0
  9 10  1  0  0  0
  9 27  2  0  0  0
 10 11  2  0  0  0
 10 15  1  0  0  0
 11 12  1  0  0  0
 11 90  1  0  0  0
 12 13  2  0  0  0
 12 91  1  0  0  0
 13 14  1  0  0  0
 13 31  1  0  0  0
 14 15  2  0  0  0
 14 92  1  0  0  0
 15 93  1  0  0  0
 16 17  2  0  0  0
 16 21  1  0  0  0
 16 31  1  0  0  0
 17 18  1  0  0  0
 17 94  1  0  0  0
 18 19  2  0  0  0
 18 95  1  0  0  0
 19 20  1  0  0  0
 19 24  1  0  0  0
 20 21  2  0  0  0
 20 96  1  0  0  0
 21 23  1  0  0  0
 22 28  1  0  0  0
 22 32  2  0  0  0
 26 27  1  0  0  0
 28 97  1  0  0  0
 28 98  1  0  0  0
 29 99  1  0  0  0
 29100  1  0  0  0
 33 34  1  0  0  0
 33 66  1  0  0  0
 33 70  2  0  0  0
 34 36  1  0  0  0
 34 59  1  0  0  0
 34101  1  0  0  0
 35 44  2  0  0  0
 35 45  1  0  0  0
 35 68  1  0  0  0
 36 56  1  0  0  0
 36102  1  0  0  0
 37 39  1  0  0  0
 37 47  1  0  0  0
 37 66  1  0  0  0
 37103  1  0  0  0
 38 43  2  0  0  0
 38 46  1  0  0  0
 38 47  1  0  0  0
 39 64  1  0  0  0
 39 67  2  0  0  0
 40 52  1  0  0  0
 40 53  2  0  0  0
 40 58  1  0  0  0
 41104  1  0  0  0
 41105  1  0  0  0
 41106  1  0  0  0
 41 48  1  0  0  0
 42 43  1  0  0  0
 42 66  1  0  0  0
 42107  1  0  0  0
 42108  1  0  0  0
 43 44  1  0  0  0
 44109  1  0  0  0
 45 46  2  0  0  0
 45110  1  0  0  0
 46111  1  0  0  0
 47112  1  0  0  0
 47113  1  0  0  0
 48 56  1  0  0  0
 48 65  1  0  0  0
 48114  1  0  0  0
 49 50  1  0  0  0
 49 53  1  0  0  0
 49 64  1  0  0  0
 49115  1  0  0  0
 50 51  1  0  0  0
 50116  1  0  0  0
 50117  1  0  0  0
 51 52  1  0  0  0
 51118  1  0  0  0
 51119  1  0  0  0
 52120  1  0  0  0
 52121  1  0  0  0
 53 54  1  0  0  0
 54 55  2  0  0  0
 54122  1  0  0  0
 55 57  1  0  0  0
 55123  1  0  0  0
 56 69  2  0  0  0
 57 58  2  0  0  0
 57124  1  0  0  0
 58125  1  0  0  0
 59 60  1  0  0  0
 59 61  1  0  0  0
 59 62  1  0  0  0
 60126  1  0  0  0
 60127  1  0  0  0
 60128  1  0  0  0
 61129  1  0  0  0
 61130  1  0  0  0
 61131  1  0  0  0
 62132  1  0  0  0
 62133  1  0  0  0
 62134  1  0  0  0
 63 65  1  0  0  0
 63135  1  0  0  0
 63136  1  0  0  0
 63137  1  0  0  0
 64138  1  0  0  0
 65139  1  0  0  0
 68 74  1  0  0  0
 71 72  1  0  0  0
 71 77  2  0  0  0
 71140  1  0  0  0
 72 74  1  0  0  0
 72 78  2  0  0  0
 73 80  1  0  0  0
 73141  1  0  0  0
 73142  1  0  0  0
 73143  1  0  0  0
 74144  1  0  0  0
 74145  1  0  0  0
 75 76  1  0  0  0
 75 79  1  0  0  0
 75146  1  0  0  0
 75147  1  0  0  0
 76 80  1  0  0  0
 76148  1  0  0  0
 76149  1  0  0  0
 77 79  1  0  0  0
 78 79  1  0  0  0
M  ISO  4   1 100  68 101  74 101  80 100
M  END
> <chiral flag>
0

> <version>
0

> <s_m_source_file>
/data/baiqing/PycharmProjects/Reinvent-master-3.2/result/LINK_invent/BTK/process_docking_weight1_custom_sum_contain_oxygen_bond_distance_aromatic_linkinvent_7_9_3/rearranged_h_0056.sdf

> <i_m_source_file_index>
1

> <r_mmod_Potential_Energy-OPLS-2005>
870.052673339844

> <r_mmod_Stretch_Energy-OPLS-2005>
362.888427734375

> <r_mmod_Bend_Energy-OPLS-2005>
335.871948242188

> <r_mmod_Torsional_Energy-OPLS-2005>
274.96826171875

> <r_mmod_Improper_Torsional_Energy-OPLS-2005>
7.63601922988892

> <r_mmod_Van_der_Waal_Energy-OPLS-2005>
125.169883728027

> <r_mmod_Electrostatic_Energy-OPLS-2005>
-274.070892333984

> <r_mmod_Solvation_Energy-OPLS-2005>
-224.479888916016

> <b_mmod_Minimization_Converged-OPLS-2005>
0

> <r_mmod_RMS_Derivative-OPLS-2005>
1.67101573944092

$$$$
2
                    3D
 Structure written by MMmdl.
159167  0  0  1  0            999 V2000
  -30.6297  -14.7822   20.3969 C   0  0  0  0  0  0
  -30.4200  -12.4794   19.4627 C   0  0  0  0  0  0
  -29.4919  -12.4927   18.2271 C   0  0  0  0  0  0
  -28.0308  -12.3009   18.6681 C   0  0  0  0  0  0
  -27.6268  -13.2378   19.8356 C   0  0  2  0  0  0
  -28.6814  -13.2376   20.9631 C   0  0  0  0  0  0
  -25.2449  -13.8175   20.5731 C   0  0  0  0  0  0
  -24.1713  -13.0427   20.9235 C   0  0  0  0  0  0
  -24.6328  -11.6929   20.8740 C   0  0  0  0  0  0
  -23.9026  -10.4304   21.0398 C   0  0  0  0  0  0
  -24.3614   -9.4230   21.9175 C   0  0  0  0  0  0
  -23.6307   -8.2253   22.0740 C   0  0  0  0  0  0
  -22.4294   -8.0271   21.3521 C   0  0  0  0  0  0
  -21.9911   -9.0248   20.4624 C   0  0  0  0  0  0
  -22.7209  -10.2144   20.3043 C   0  0  0  0  0  0
  -21.6850   -6.0724   22.5283 C   0  0  0  0  0  0
  -21.4000   -6.5641   23.8207 C   0  0  0  0  0  0
  -21.3677   -5.6813   24.9190 C   0  0  0  0  0  0
  -21.6060   -4.3072   24.7253 C   0  0  0  0  0  0
  -21.8807   -3.8138   23.4376 C   0  0  0  0  0  0
  -21.9191   -4.6952   22.3417 C   0  0  0  0  0  0
  -22.7763  -13.5218   21.1956 C   0  0  0  0  0  0
  -22.1652   -4.2124   21.0999 F   0  0  0  0  0  0
  -21.5677   -3.4569   25.7770 F   0  0  0  0  0  0
  -29.9682  -13.5766   20.3453 N   0  0  0  0  0  0
  -26.2869  -12.9393   20.3295 N   0  0  0  0  0  0
  -25.9269  -11.6541   20.5782 N   0  0  0  0  0  0
  -22.0444  -12.8144   22.0518 N   0  0  0  0  0  0
  -25.4240  -15.1839   20.4197 N   0  0  0  0  0  0
  -31.8608  -14.7850   20.3011 O   0  0  0  0  0  0
  -21.6657   -6.8863   21.4224 O   0  0  0  0  0  0
  -22.3411  -14.5526   20.6831 O   0  0  0  0  0  0
  -24.6212  -31.8546   23.1942 C   0  0  0  0  0  0
  -25.9065  -32.4743   23.8290 C   0  0  1  0  0  0
  -27.2394  -27.2804   20.1604 C   0  0  0  0  0  0
  -25.5866  -33.8548   24.2219 N   0  0  0  0  0  0
  -23.4155  -30.4740   21.5336 C   0  0  2  0  0  0
  -24.8709  -28.9045   20.1097 C   0  0  0  0  0  0
  -22.7389  -29.4646   22.4921 C   0  0  0  0  0  0
  -18.0305  -28.1358   22.8463 C   0  0  0  0  0  0
  -24.1480  -36.7289   23.2645 C   0  0  0  0  0  0
  -25.9542  -30.7753   21.3697 C   0  0  0  0  0  0
  -26.0280  -29.3919   20.7279 C   0  0  0  0  0  0
  -27.2008  -28.5820   20.7549 C   0  0  0  0  0  0
  -26.0659  -26.8391   19.5156 C   0  0  0  0  0  0
  -24.8916  -27.6322   19.5013 C   0  0  0  0  0  0
  -23.6300  -29.7797   20.1571 C   0  0  0  0  0  0
  -25.4113  -36.3069   24.0317 C   0  0  1  0  0  0
  -20.5889  -28.3693   23.1287 C   0  0  2  0  0  0
  -20.6776  -26.9365   22.5535 C   0  0  0  0  0  0
  -19.5833  -26.6304   21.5266 C   0  0  0  0  0  0
  -18.1986  -26.7870   22.1634 C   0  0  0  0  0  0
  -19.1526  -28.8831   23.2872 C   0  0  0  0  0  0
  -18.9469  -30.1433   23.8880 C   0  0  0  0  0  0
  -17.6480  -30.6576   24.0550 C   0  0  0  0  0  0
  -25.9043  -34.9439   23.5084 C   0  0  0  0  0  0
  -16.5361  -29.9071   23.6305 C   0  0  0  0  0  0
  -16.7279  -28.6490   23.0312 C   0  0  0  0  0  0
  -26.4483  -31.6557   25.0665 C   0  0  0  0  0  0
  -25.3711  -31.3680   26.1391 C   0  0  0  0  0  0
  -27.0342  -30.2981   24.6131 C   0  0  0  0  0  0
  -27.6038  -32.4309   25.7417 C   0  0  0  0  0  0
  -27.5583  -37.1771   24.8473 C   0  0  0  0  0  0
  -21.4121  -29.2997   22.3581 N   0  0  0  0  0  0
  -26.4308  -37.3754   23.9398 N   0  0  0  0  0  0
  -24.6814  -31.0559   22.0887 N   0  0  0  0  0  0
  -23.4076  -28.8288   23.3116 O   0  0  0  0  0  0
  -28.3839  -26.4739   20.3098 O   0  0  0  0  0  0
  -26.5661  -34.8917   22.4670 O   0  0  0  0  0  0
  -23.5382  -32.1372   23.7271 O   0  0  0  0  0  0
  -29.9105  -19.8811   20.6011 C   0  0  0  0  0  0
  -29.2141  -20.9647   19.9197 C   0  0  0  0  0  0
  -29.3624  -18.6494   20.2276 C   0  0  0  0  0  0
  -30.3359  -16.2991   18.5776 C   0  0  0  0  0  0
  -29.4822  -22.5275   19.8211 C   0  0  0  0  0  0
  -29.5959  -17.1670   20.7886 C   0  0  0  0  0  0
  -28.4013  -23.6762   20.1859 C   0  0  0  0  0  0
  -27.3421  -18.2473   18.6761 C   0  0  0  0  0  0
  -28.7060  -25.1749   19.6486 C   0  0  0  0  0  0
  -25.9257  -18.4743   19.2314 C   0  0  0  0  0  0
  -28.3260  -20.4049   19.1197 N   0  0  0  0  0  0
  -28.3549  -19.0515   19.3453 N   0  0  0  0  0  0
  -29.9525  -15.9289   19.9490 N   0  0  0  0  0  0
  -25.9143  -18.2204   20.5394 F   0  0  0  0  0  0
  -25.0983  -17.6232   18.6279 F   0  0  0  0  0  0
  -25.4707  -19.7130   19.0245 F   0  0  0  0  0  0
  -30.3651  -11.5212   19.9844 H   0  0  0  0  0  0
  -31.4589  -12.6019   19.1595 H   0  0  0  0  0  0
  -29.7802  -11.7124   17.5240 H   0  0  0  0  0  0
  -29.5878  -13.4324   17.6874 H   0  0  0  0  0  0
  -27.9335  -11.2612   18.9850 H   0  0  0  0  0  0
  -27.3509  -12.4262   17.8231 H   0  0  0  0  0  0
  -27.5945  -14.2445   19.4128 H   0  0  0  0  0  0
  -28.4195  -13.9636   21.7355 H   0  0  0  0  0  0
  -28.7278  -12.2633   21.4511 H   0  0  0  0  0  0
  -25.2755   -9.5790   22.4763 H   0  0  0  0  0  0
  -24.0042   -7.4664   22.7475 H   0  0  0  0  0  0
  -21.0847   -8.8759   19.8926 H   0  0  0  0  0  0
  -22.3626  -10.9696   19.6195 H   0  0  0  0  0  0
  -21.1928   -7.6149   23.9698 H   0  0  0  0  0  0
  -21.1543   -6.0558   25.9096 H   0  0  0  0  0  0
  -22.0551   -2.7599   23.2897 H   0  0  0  0  0  0
  -22.4091  -11.9736   22.4729 H   0  0  0  0  0  0
  -21.1080  -13.1105   22.2864 H   0  0  0  0  0  0
  -24.6703  -15.8555   20.5032 H   0  0  0  0  0  0
  -26.3006  -15.5972   20.1454 H   0  0  0  0  0  0
  -26.7106  -32.5433   23.1005 H   0  0  0  0  0  0
  -24.9926  -33.9685   25.0312 H   0  0  0  0  0  0
  -22.7094  -31.2945   21.3788 H   0  0  0  0  0  0
  -23.3747  -35.9617   23.3314 H   0  0  0  0  0  0
  -24.3567  -36.8922   22.2062 H   0  0  0  0  0  0
  -23.7228  -37.6480   23.6684 H   0  0  0  0  0  0
  -26.0779  -31.5275   20.5895 H   0  0  0  0  0  0
  -26.8377  -30.8431   21.9925 H   0  0  0  0  0  0
  -28.0733  -28.9304   21.2874 H   0  0  0  0  0  0
  -26.0397  -25.8520   19.0769 H   0  0  0  0  0  0
  -23.9977  -27.2377   19.0372 H   0  0  0  0  0  0
  -23.7165  -30.5382   19.3789 H   0  0  0  0  0  0
  -22.7556  -29.1864   19.8840 H   0  0  0  0  0  0
  -25.1291  -36.1917   25.0814 H   0  0  0  0  0  0
  -21.0002  -28.3357   24.1411 H   0  0  0  0  0  0
  -20.5492  -26.2373   23.3804 H   0  0  0  0  0  0
  -21.6696  -26.7276   22.1491 H   0  0  0  0  0  0
  -19.7005  -25.6189   21.1394 H   0  0  0  0  0  0
  -19.6828  -27.3070   20.6758 H   0  0  0  0  0  0
  -17.4241  -26.6449   21.4096 H   0  0  0  0  0  0
  -18.0477  -26.0089   22.9128 H   0  0  0  0  0  0
  -19.7948  -30.7263   24.2202 H   0  0  0  0  0  0
  -17.5050  -31.6261   24.5147 H   0  0  0  0  0  0
  -15.5368  -30.3000   23.7609 H   0  0  0  0  0  0
  -15.8690  -28.0825   22.6987 H   0  0  0  0  0  0
  -24.5905  -30.7014   25.7710 H   0  0  0  0  0  0
  -24.8867  -32.2830   26.4803 H   0  0  0  0  0  0
  -25.8040  -30.8857   27.0163 H   0  0  0  0  0  0
  -26.2935  -29.6704   24.1162 H   0  0  0  0  0  0
  -27.4053  -29.7267   25.4655 H   0  0  0  0  0  0
  -27.8787  -30.4274   23.9352 H   0  0  0  0  0  0
  -27.2651  -33.3636   26.1934 H   0  0  0  0  0  0
  -28.3849  -32.6811   25.0225 H   0  0  0  0  0  0
  -28.0682  -31.8450   26.5353 H   0  0  0  0  0  0
  -28.2596  -38.0074   24.7503 H   0  0  0  0  0  0
  -28.1075  -36.2591   24.6314 H   0  0  0  0  0  0
  -27.2286  -37.1442   25.8876 H   0  0  0  0  0  0
  -20.9306  -29.8331   21.6468 H   0  0  0  0  0  0
  -26.0194  -38.2836   24.1383 H   0  0  0  0  0  0
  -30.7274  -20.0007   21.2993 H   0  0  0  0  0  0
  -31.2424  -16.9072   18.5742 H   0  0  0  0  0  0
  -29.5659  -16.8434   18.0443 H   0  0  0  0  0  0
  -30.5454  -15.4206   17.9652 H   0  0  0  0  0  0
  -29.7902  -22.7233   18.7918 H   0  0  0  0  0  0
  -30.3699  -22.7552   20.4090 H   0  0  0  0  0  0
  -30.3485  -17.2438   21.5759 H   0  0  0  0  0  0
  -28.6852  -16.9025   21.3262 H   0  0  0  0  0  0
  -27.4452  -23.3749   19.7622 H   0  0  0  0  0  0
  -28.2546  -23.6902   21.2653 H   0  0  0  0  0  0
  -27.3803  -18.4472   17.6046 H   0  0  0  0  0  0
  -27.5850  -17.1962   18.8021 H   0  0  0  0  0  0
  -28.4887  -25.2450   18.5846 H   0  0  0  0  0  0
  -29.7953  -25.2239   19.7128 H   0  0  0  0  0  0
  1 25  1  0  0  0
  1 30  2  0  0  0
  1 83  1  0  0  0
  2  3  1  0  0  0
  2 25  1  0  0  0
  2 87  1  0  0  0
  2 88  1  0  0  0
  3  4  1  0  0  0
  3 89  1  0  0  0
  3 90  1  0  0  0
  4  5  1  0  0  0
  4 91  1  0  0  0
  4 92  1  0  0  0
  5  6  1  0  0  0
  5 26  1  0  0  0
  5 93  1  0  0  0
  6 25  1  0  0  0
  6 94  1  0  0  0
  6 95  1  0  0  0
  7  8  2  0  0  0
  7 26  1  0  0  0
  7 29  1  0  0  0
  8  9  1  0  0  0
  8 22  1  0  0  0
  9 10  1  0  0  0
  9 27  2  0  0  0
 10 11  2  0  0  0
 10 15  1  0  0  0
 11 12  1  0  0  0
 11 96  1  0  0  0
 12 13  2  0  0  0
 12 97  1  0  0  0
 13 14  1  0  0  0
 13 31  1  0  0  0
 14 15  2  0  0  0
 14 98  1  0  0  0
 15 99  1  0  0  0
 16 17  2  0  0  0
 16 21  1  0  0  0
 16 31  1  0  0  0
 17 18  1  0  0  0
 17100  1  0  0  0
 18 19  2  0  0  0
 18101  1  0  0  0
 19 20  1  0  0  0
 19 24  1  0  0  0
 20 21  2  0  0  0
 20102  1  0  0  0
 21 23  1  0  0  0
 22 28  1  0  0  0
 22 32  2  0  0  0
 26 27  1  0  0  0
 28103  1  0  0  0
 28104  1  0  0  0
 29105  1  0  0  0
 29106  1  0  0  0
 33 34  1  0  0  0
 33 66  1  0  0  0
 33 70  2  0  0  0
 34 36  1  0  0  0
 34 59  1  0  0  0
 34107  1  0  0  0
 35 44  2  0  0  0
 35 45  1  0  0  0
 35 68  1  0  0  0
 36 56  1  0  0  0
 36108  1  0  0  0
 37 39  1  0  0  0
 37 47  1  0  0  0
 37 66  1  0  0  0
 37109  1  0  0  0
 38 43  2  0  0  0
 38 46  1  0  0  0
 38 47  1  0  0  0
 39 64  1  0  0  0
 39 67  2  0  0  0
 40 52  1  0  0  0
 40 53  2  0  0  0
 40 58  1  0  0  0
 41110  1  0  0  0
 41111  1  0  0  0
 41112  1  0  0  0
 41 48  1  0  0  0
 42 43  1  0  0  0
 42 66  1  0  0  0
 42113  1  0  0  0
 42114  1  0  0  0
 43 44  1  0  0  0
 44115  1  0  0  0
 45 46  2  0  0  0
 45116  1  0  0  0
 46117  1  0  0  0
 47118  1  0  0  0
 47119  1  0  0  0
 48 56  1  0  0  0
 48 65  1  0  0  0
 48120  1  0  0  0
 49 50  1  0  0  0
 49 53  1  0  0  0
 49 64  1  0  0  0
 49121  1  0  0  0
 50 51  1  0  0  0
 50122  1  0  0  0
 50123  1  0  0  0
 51 52  1  0  0  0
 51124  1  0  0  0
 51125  1  0  0  0
 52126  1  0  0  0
 52127  1  0  0  0
 53 54  1  0  0  0
 54 55  2  0  0  0
 54128  1  0  0  0
 55 57  1  0  0  0
 55129  1  0  0  0
 56 69  2  0  0  0
 57 58  2  0  0  0
 57130  1  0  0  0
 58131  1  0  0  0
 59 60  1  0  0  0
 59 61  1  0  0  0
 59 62  1  0  0  0
 60132  1  0  0  0
 60133  1  0  0  0
 60134  1  0  0  0
 61135  1  0  0  0
 61136  1  0  0  0
 61137  1  0  0  0
 62138  1  0  0  0
 62139  1  0  0  0
 62140  1  0  0  0
 63 65  1  0  0  0
 63141  1  0  0  0
 63142  1  0  0  0
 63143  1  0  0  0
 64144  1  0  0  0
 65145  1  0  0  0
 68 79  1  0  0  0
 71 72  1  0  0  0
 71 73  2  0  0  0
 71146  1  0  0  0
 72 75  1  0  0  0
 72 81  2  0  0  0
 73 76  1  0  0  0
 73 82  1  0  0  0
 74 83  1  0  0  0
 74147  1  0  0  0
 74148  1  0  0  0
 74149  1  0  0  0
 75 77  1  0  0  0
 75150  1  0  0  0
 75151  1  0  0  0
 76 83  1  0  0  0
 76152  1  0  0  0
 76153  1  0  0  0
 77 79  1  0  0  0
 77154  1  0  0  0
 77155  1  0  0  0
 78 80  1  0  0  0
 78 82  1  0  0  0
 78156  1  0  0  0
 78157  1  0  0  0
 79158  1  0  0  0
 79159  1  0  0  0
 80 84  1  0  0  0
 80 85  1  0  0  0
 80 86  1  0  0  0
 81 82  1  0  0  0
M  ISO  4   1 100  68 101  79 101  83 100
M  END
> <chiral flag>
0

> <version>
0

> <s_m_source_file>
/data/baiqing/PycharmProjects/Reinvent-master-3.2/result/LINK_invent/BTK/process_docking_weight1_custom_sum_contain_oxygen_bond_distance_aromatic_linkinvent_7_9_3/rearranged_h_0056.sdf

> <i_m_source_file_index>
2

> <r_mmod_Potential_Energy-OPLS-2005>
352.818786621094

> <r_mmod_Stretch_Energy-OPLS-2005>
122.542297363281

> <r_mmod_Bend_Energy-OPLS-2005>
225.882461547852

> <r_mmod_Torsional_Energy-OPLS-2005>
298.126220703125

> <r_mmod_Improper_Torsional_Energy-OPLS-2005>
25.9236431121826

> <r_mmod_Van_der_Waal_Energy-OPLS-2005>
105.145622253418

> <r_mmod_Electrostatic_Energy-OPLS-2005>
-322.605255126953

> <r_mmod_Solvation_Energy-OPLS-2005>
-205.129623413086

> <b_mmod_Minimization_Converged-OPLS-2005>
0

> <r_mmod_RMS_Derivative-OPLS-2005>
5.76042604446411

$$$$
3
                    3D
 Structure written by MMmdl.
158166  0  0  1  0            999 V2000
  -30.5079  -15.0167   20.4417 C   0  0  0  0  0  0
  -30.4580  -12.6329   19.5424 C   0  0  0  0  0  0
  -29.5448  -12.5378   18.2976 C   0  0  0  0  0  0
  -28.0775  -12.3079   18.7094 C   0  0  0  0  0  0
  -27.6338  -13.2544   19.8562 C   0  0  2  0  0  0
  -28.6710  -13.2946   21.0005 C   0  0  0  0  0  0
  -25.2415  -13.8204   20.5661 C   0  0  0  0  0  0
  -24.1747  -13.0403   20.9242 C   0  0  0  0  0  0
  -24.6384  -11.6912   20.8829 C   0  0  0  0  0  0
  -23.9076  -10.4265   21.0450 C   0  0  0  0  0  0
  -24.3609   -9.4183   21.9212 C   0  0  0  0  0  0
  -23.6277   -8.2239   22.0796 C   0  0  0  0  0  0
  -22.4254   -8.0282   21.3598 C   0  0  0  0  0  0
  -21.9898   -9.0240   20.4690 C   0  0  0  0  0  0
  -22.7256  -10.2105   20.3091 C   0  0  0  0  0  0
  -21.6826   -6.0732   22.5280 C   0  0  0  0  0  0
  -21.4007   -6.5638   23.8221 C   0  0  0  0  0  0
  -21.3674   -5.6786   24.9180 C   0  0  0  0  0  0
  -21.6052   -4.3049   24.7216 C   0  0  0  0  0  0
  -21.8812   -3.8144   23.4337 C   0  0  0  0  0  0
  -21.9182   -4.6967   22.3398 C   0  0  0  0  0  0
  -22.7764  -13.5194   21.1851 C   0  0  0  0  0  0
  -22.1639   -4.2156   21.0979 F   0  0  0  0  0  0
  -21.5623   -3.4536   25.7732 F   0  0  0  0  0  0
  -29.9440  -13.7359   20.4134 N   0  0  0  0  0  0
  -26.2897  -12.9450   20.3330 N   0  0  0  0  0  0
  -25.9332  -11.6579   20.5864 N   0  0  0  0  0  0
  -22.0355  -12.8220   22.0410 N   0  0  0  0  0  0
  -25.4001  -15.1900   20.3977 N   0  0  0  0  0  0
  -31.6924  -15.0991   20.0944 O   0  0  0  0  0  0
  -21.6639   -6.8865   21.4245 O   0  0  0  0  0  0
  -22.3498  -14.5511   20.6699 O   0  0  0  0  0  0
  -24.6479  -31.8398   23.1840 C   0  0  0  0  0  0
  -25.9221  -32.4665   23.8244 C   0  0  1  0  0  0
  -27.2255  -27.0817   20.1853 C   0  0  0  0  0  0
  -25.5975  -33.8477   24.2169 N   0  0  0  0  0  0
  -23.4553  -30.4541   21.5296 C   0  0  2  0  0  0
  -24.9092  -28.8630   20.1232 C   0  0  0  0  0  0
  -22.7598  -29.4500   22.4845 C   0  0  0  0  0  0
  -18.0302  -28.1389   22.8483 C   0  0  0  0  0  0
  -24.1491  -36.7225   23.2641 C   0  0  0  0  0  0
  -26.0151  -30.6995   21.3880 C   0  0  0  0  0  0
  -26.0892  -29.3016   20.7369 C   0  0  0  0  0  0
  -27.2480  -28.4300   20.7427 C   0  0  0  0  0  0
  -26.0180  -26.7516   19.5336 C   0  0  0  0  0  0
  -24.8903  -27.6052   19.5006 C   0  0  0  0  0  0
  -23.6885  -29.7739   20.1542 C   0  0  0  0  0  0
  -25.4139  -36.3014   24.0305 C   0  0  1  0  0  0
  -20.5913  -28.3703   23.1250 C   0  0  2  0  0  0
  -20.6781  -26.9403   22.5408 C   0  0  0  0  0  0
  -19.5766  -26.6378   21.5214 C   0  0  0  0  0  0
  -18.1947  -26.7931   22.1621 C   0  0  0  0  0  0
  -19.1561  -28.8871   23.2852 C   0  0  0  0  0  0
  -18.9464  -30.1468   23.8871 C   0  0  0  0  0  0
  -17.6459  -30.6583   24.0549 C   0  0  0  0  0  0
  -25.9093  -34.9391   23.5051 C   0  0  0  0  0  0
  -16.5350  -29.9067   23.6331 C   0  0  0  0  0  0
  -16.7286  -28.6481   23.0366 C   0  0  0  0  0  0
  -26.4548  -31.6544   25.0696 C   0  0  0  0  0  0
  -25.3713  -31.3714   26.1364 C   0  0  0  0  0  0
  -27.0408  -30.2945   24.6281 C   0  0  0  0  0  0
  -27.6090  -32.4312   25.7465 C   0  0  0  0  0  0
  -27.5585  -37.1767   24.8471 C   0  0  0  0  0  0
  -21.4282  -29.3018   22.3609 N   0  0  0  0  0  0
  -26.4291  -37.3743   23.9419 N   0  0  0  0  0  0
  -24.7262  -31.0185   22.0897 N   0  0  0  0  0  0
  -23.4220  -28.8044   23.3006 O   0  0  0  0  0  0
  -28.2931  -26.1016   20.1606 O   0  0  0  0  0  0
  -26.5670  -34.8882   22.4627 O   0  0  0  0  0  0
  -23.5572  -32.1260   23.7043 O   0  0  0  0  0  0
  -27.7560  -21.8218   18.2014 C   0  0  0  0  0  0
  -27.9507  -23.0798   18.7908 C   0  0  0  0  0  0
  -28.0425  -20.6103   18.8796 C   0  0  0  0  0  0
  -28.4116  -23.1726   20.1041 C   0  0  0  0  0  0
  -28.7268  -20.6166   20.1325 C   0  0  0  0  0  0
  -25.9062  -19.3464   18.3863 C   0  0  0  0  0  0
  -27.9034  -18.6861   21.7277 C   0  0  0  0  0  0
  -27.4416  -19.3666   18.2302 C   0  0  0  0  0  0
  -28.2454  -24.6697   20.8237 C   0  0  0  0  0  0
  -29.8942  -17.7501   20.2575 C   0  0  0  0  0  0
  -29.1129  -19.1536   20.9029 C   0  0  1  0  0  0
  -28.8235  -21.9314   20.7231 N   0  0  0  0  0  0
  -29.7184  -16.1983   20.6639 N   0  0  0  0  0  0
  -31.4887  -12.8023   19.2256 H   0  0  0  0  0  0
  -30.4766  -11.6930   20.0968 H   0  0  0  0  0  0
  -29.8932  -11.7380   17.6425 H   0  0  0  0  0  0
  -29.6162  -13.4651   17.7287 H   0  0  0  0  0  0
  -27.9876  -11.2744   19.0426 H   0  0  0  0  0  0
  -27.4174  -12.4114   17.8487 H   0  0  0  0  0  0
  -27.5945  -14.2560   19.4248 H   0  0  0  0  0  0
  -28.7787  -12.3131   21.4643 H   0  0  0  0  0  0
  -28.3554  -13.9705   21.7978 H   0  0  0  0  0  0
  -25.2744   -9.5642   22.4795 H   0  0  0  0  0  0
  -23.9987   -7.4613   22.7496 H   0  0  0  0  0  0
  -21.0836   -8.8729   19.8978 H   0  0  0  0  0  0
  -22.3706  -10.9625   19.6197 H   0  0  0  0  0  0
  -21.2003   -7.6145   23.9718 H   0  0  0  0  0  0
  -21.1526   -6.0528   25.9087 H   0  0  0  0  0  0
  -22.0600   -2.7614   23.2832 H   0  0  0  0  0  0
  -22.3950  -11.9954   22.4912 H   0  0  0  0  0  0
  -21.0997  -13.1309   22.2623 H   0  0  0  0  0  0
  -24.6071  -15.8190   20.4767 H   0  0  0  0  0  0
  -26.2055  -15.6218   19.9651 H   0  0  0  0  0  0
  -26.7280  -32.5233   23.0952 H   0  0  0  0  0  0
  -25.0144  -33.9592   25.0335 H   0  0  0  0  0  0
  -22.7571  -31.2776   21.3664 H   0  0  0  0  0  0
  -23.3785  -35.9520   23.3293 H   0  0  0  0  0  0
  -24.3572  -36.8884   22.2057 H   0  0  0  0  0  0
  -23.7200  -37.6399   23.6693 H   0  0  0  0  0  0
  -26.1692  -31.4524   20.6124 H   0  0  0  0  0  0
  -26.8835  -30.7533   22.0331 H   0  0  0  0  0  0
  -28.1540  -28.7714   21.2217 H   0  0  0  0  0  0
  -25.9350  -25.7910   19.0454 H   0  0  0  0  0  0
  -23.9899  -27.2734   18.9992 H   0  0  0  0  0  0
  -23.8222  -30.5398   19.3895 H   0  0  0  0  0  0
  -22.8029  -29.2152   19.8470 H   0  0  0  0  0  0
  -25.1327  -36.1840   25.0793 H   0  0  0  0  0  0
  -20.9993  -28.3264   24.1382 H   0  0  0  0  0  0
  -20.5678  -26.2293   23.3611 H   0  0  0  0  0  0
  -21.6646  -26.7411   22.1203 H   0  0  0  0  0  0
  -19.6931  -25.6291   21.1251 H   0  0  0  0  0  0
  -19.6721  -27.3172   20.6737 H   0  0  0  0  0  0
  -17.4219  -26.6678   21.4019 H   0  0  0  0  0  0
  -18.0340  -26.0059   22.9004 H   0  0  0  0  0  0
  -19.7931  -30.7306   24.2228 H   0  0  0  0  0  0
  -17.4998  -31.6265   24.5151 H   0  0  0  0  0  0
  -15.5350  -30.2964   23.7681 H   0  0  0  0  0  0
  -15.8677  -28.0797   22.7121 H   0  0  0  0  0  0
  -24.5922  -30.7040   25.7671 H   0  0  0  0  0  0
  -24.8843  -32.2859   26.4741 H   0  0  0  0  0  0
  -25.7959  -30.8912   27.0177 H   0  0  0  0  0  0
  -26.3002  -29.6643   24.1337 H   0  0  0  0  0  0
  -27.4084  -29.7273   25.4844 H   0  0  0  0  0  0
  -27.8886  -30.4210   23.9544 H   0  0  0  0  0  0
  -27.2740  -33.3665   26.1952 H   0  0  0  0  0  0
  -28.3929  -32.6790   25.0299 H   0  0  0  0  0  0
  -28.0707  -31.8475   26.5432 H   0  0  0  0  0  0
  -28.2591  -38.0078   24.7566 H   0  0  0  0  0  0
  -28.1084  -36.2616   24.6251 H   0  0  0  0  0  0
  -27.2286  -37.1357   25.8862 H   0  0  0  0  0  0
  -20.9500  -29.8683   21.6744 H   0  0  0  0  0  0
  -26.0153  -38.2799   24.1463 H   0  0  0  0  0  0
  -27.2799  -21.7886   17.2303 H   0  0  0  0  0  0
  -27.6392  -23.9743   18.2712 H   0  0  0  0  0  0
  -25.6108  -19.1061   19.4089 H   0  0  0  0  0  0
  -25.4659  -18.5960   17.7276 H   0  0  0  0  0  0
  -25.4389  -20.3018   18.1358 H   0  0  0  0  0  0
  -27.0940  -18.3488   21.0831 H   0  0  0  0  0  0
  -27.5269  -19.4937   22.3551 H   0  0  0  0  0  0
  -28.1611  -17.8553   22.3860 H   0  0  0  0  0  0
  -27.8362  -18.4364   18.6241 H   0  0  0  0  0  0
  -27.6824  -19.3774   17.1646 H   0  0  0  0  0  0
  -27.3357  -24.6151   21.4218 H   0  0  0  0  0  0
  -29.0468  -24.6974   21.5621 H   0  0  0  0  0  0
  -29.7402  -17.7588   19.1821 H   0  0  0  0  0  0
  -30.9634  -17.9382   20.3471 H   0  0  0  0  0  0
  -29.8345  -19.4952   21.6506 H   0  0  0  0  0  0
  -28.8040  -15.9744   21.0308 H   0  0  0  0  0  0
  1 25  1  0  0  0
  1 30  2  0  0  0
  1 83  1  0  0  0
  2  3  1  0  0  0
  2 25  1  0  0  0
  2 84  1  0  0  0
  2 85  1  0  0  0
  3  4  1  0  0  0
  3 86  1  0  0  0
  3 87  1  0  0  0
  4  5  1  0  0  0
  4 88  1  0  0  0
  4 89  1  0  0  0
  5  6  1  0  0  0
  5 26  1  0  0  0
  5 90  1  0  0  0
  6 25  1  0  0  0
  6 91  1  0  0  0
  6 92  1  0  0  0
  7  8  2  0  0  0
  7 26  1  0  0  0
  7 29  1  0  0  0
  8  9  1  0  0  0
  8 22  1  0  0  0
  9 10  1  0  0  0
  9 27  2  0  0  0
 10 11  2  0  0  0
 10 15  1  0  0  0
 11 12  1  0  0  0
 11 93  1  0  0  0
 12 13  2  0  0  0
 12 94  1  0  0  0
 13 14  1  0  0  0
 13 31  1  0  0  0
 14 15  2  0  0  0
 14 95  1  0  0  0
 15 96  1  0  0  0
 16 17  2  0  0  0
 16 21  1  0  0  0
 16 31  1  0  0  0
 17 18  1  0  0  0
 17 97  1  0  0  0
 18 19  2  0  0  0
 18 98  1  0  0  0
 19 20  1  0  0  0
 19 24  1  0  0  0
 20 21  2  0  0  0
 20 99  1  0  0  0
 21 23  1  0  0  0
 22 28  1  0  0  0
 22 32  2  0  0  0
 26 27  1  0  0  0
 28100  1  0  0  0
 28101  1  0  0  0
 29102  1  0  0  0
 29103  1  0  0  0
 33 34  1  0  0  0
 33 66  1  0  0  0
 33 70  2  0  0  0
 34 36  1  0  0  0
 34 59  1  0  0  0
 34104  1  0  0  0
 35 44  2  0  0  0
 35 45  1  0  0  0
 35 68  1  0  0  0
 36 56  1  0  0  0
 36105  1  0  0  0
 37 39  1  0  0  0
 37 47  1  0  0  0
 37 66  1  0  0  0
 37106  1  0  0  0
 38 43  2  0  0  0
 38 46  1  0  0  0
 38 47  1  0  0  0
 39 64  1  0  0  0
 39 67  2  0  0  0
 40 52  1  0  0  0
 40 53  2  0  0  0
 40 58  1  0  0  0
 41107  1  0  0  0
 41108  1  0  0  0
 41109  1  0  0  0
 41 48  1  0  0  0
 42 43  1  0  0  0
 42 66  1  0  0  0
 42110  1  0  0  0
 42111  1  0  0  0
 43 44  1  0  0  0
 44112  1  0  0  0
 45 46  2  0  0  0
 45113  1  0  0  0
 46114  1  0  0  0
 47115  1  0  0  0
 47116  1  0  0  0
 48 56  1  0  0  0
 48 65  1  0  0  0
 48117  1  0  0  0
 49 50  1  0  0  0
 49 53  1  0  0  0
 49 64  1  0  0  0
 49118  1  0  0  0
 50 51  1  0  0  0
 50119  1  0  0  0
 50120  1  0  0  0
 51 52  1  0  0  0
 51121  1  0  0  0
 51122  1  0  0  0
 52123  1  0  0  0
 52124  1  0  0  0
 53 54  1  0  0  0
 54 55  2  0  0  0
 54125  1  0  0  0
 55 57  1  0  0  0
 55126  1  0  0  0
 56 69  2  0  0  0
 57 58  2  0  0  0
 57127  1  0  0  0
 58128  1  0  0  0
 59 60  1  0  0  0
 59 61  1  0  0  0
 59 62  1  0  0  0
 60129  1  0  0  0
 60130  1  0  0  0
 60131  1  0  0  0
 61132  1  0  0  0
 61133  1  0  0  0
 61134  1  0  0  0
 62135  1  0  0  0
 62136  1  0  0  0
 62137  1  0  0  0
 63 65  1  0  0  0
 63138  1  0  0  0
 63139  1  0  0  0
 63140  1  0  0  0
 64141  1  0  0  0
 65142  1  0  0  0
 68 79  1  0  0  0
 71 72  2  0  0  0
 71 73  1  0  0  0
 71143  1  0  0  0
 72 74  1  0  0  0
 72144  1  0  0  0
 73 75  2  0  0  0
 73 78  1  0  0  0
 74 79  1  0  0  0
 74 82  2  0  0  0
 75 81  1  0  0  0
 75 82  1  0  0  0
 76 78  1  0  0  0
 76145  1  0  0  0
 76146  1  0  0  0
 76147  1  0  0  0
 77148  1  0  0  0
 77149  1  0  0  0
 77150  1  0  0  0
 77 81  1  0  0  0
 78151  1  0  0  0
 78152  1  0  0  0
 79153  1  0  0  0
 79154  1  0  0  0
 80 81  1  0  0  0
 80 83  1  0  0  0
 80155  1  0  0  0
 80156  1  0  0  0
 81157  1  0  0  0
 83158  1  0  0  0
M  ISO  4   1 100  68 101  79 101  83 100
M  END
> <chiral flag>
0

> <version>
0

> <s_m_source_file>
/data/baiqing/PycharmProjects/Reinvent-master-3.2/result/LINK_invent/BTK/process_docking_weight1_custom_sum_contain_oxygen_bond_distance_aromatic_linkinvent_7_9_3/rearranged_h_0056.sdf

> <i_m_source_file_index>
3

> <r_mmod_Potential_Energy-OPLS-2005>
556.190612792969

> <r_mmod_Stretch_Energy-OPLS-2005>
343.093658447266

> <r_mmod_Bend_Energy-OPLS-2005>
309.837768554688

> <r_mmod_Torsional_Energy-OPLS-2005>
260.142181396484

> <r_mmod_Improper_Torsional_Energy-OPLS-2005>
7.3759388923645

> <r_mmod_Van_der_Waal_Energy-OPLS-2005>
121.245346069336

> <r_mmod_Electrostatic_Energy-OPLS-2005>
-496.657043457031

> <r_mmod_Solvation_Energy-OPLS-2005>
-225.540405273438

> <b_mmod_Minimization_Converged-OPLS-2005>
0

> <r_mmod_RMS_Derivative-OPLS-2005>
5.51073169708252

$$$$
4
                    3D
 Structure written by MMmdl.
148156  0  0  1  0            999 V2000
  -30.3749  -15.3048   20.4476 C   0  0  0  0  0  0
  -30.4496  -12.8379   19.5571 C   0  0  0  0  0  0
  -29.5535  -12.6044   18.3111 C   0  0  0  0  0  0
  -28.0985  -12.3088   18.7160 C   0  0  0  0  0  0
  -27.6131  -13.2721   19.8257 C   0  0  2  0  0  0
  -28.6305  -13.4202   20.9718 C   0  0  0  0  0  0
  -25.2397  -13.8239   20.5740 C   0  0  0  0  0  0
  -24.1755  -13.0446   20.9242 C   0  0  0  0  0  0
  -24.6397  -11.6922   20.8733 C   0  0  0  0  0  0
  -23.9090  -10.4298   21.0390 C   0  0  0  0  0  0
  -24.3643   -9.4218   21.9177 C   0  0  0  0  0  0
  -23.6325   -8.2249   22.0749 C   0  0  0  0  0  0
  -22.4307   -8.0285   21.3531 C   0  0  0  0  0  0
  -21.9933   -9.0257   20.4641 C   0  0  0  0  0  0
  -22.7259  -10.2138   20.3050 C   0  0  0  0  0  0
  -21.6859   -6.0742   22.5276 C   0  0  0  0  0  0
  -21.4013   -6.5638   23.8214 C   0  0  0  0  0  0
  -21.3669   -5.6788   24.9178 C   0  0  0  0  0  0
  -21.6052   -4.3056   24.7220 C   0  0  0  0  0  0
  -21.8824   -3.8151   23.4341 C   0  0  0  0  0  0
  -21.9196   -4.6971   22.3399 C   0  0  0  0  0  0
  -22.7775  -13.5196   21.1887 C   0  0  0  0  0  0
  -22.1674   -4.2163   21.0978 F   0  0  0  0  0  0
  -21.5625   -3.4535   25.7730 F   0  0  0  0  0  0
  -29.8746  -13.9626   20.3926 N   0  0  0  0  0  0
  -26.2792  -12.9494   20.3137 N   0  0  0  0  0  0
  -25.9313  -11.6597   20.5644 N   0  0  0  0  0  0
  -22.0437  -12.8196   22.0469 N   0  0  0  0  0  0
  -25.4088  -15.1988   20.4209 N   0  0  0  0  0  0
  -31.5655  -15.3414   20.0838 O   0  0  0  0  0  0
  -21.6660   -6.8888   21.4238 O   0  0  0  0  0  0
  -22.3450  -14.5500   20.6737 O   0  0  0  0  0  0
  -24.6607  -31.8227   23.1693 C   0  0  0  0  0  0
  -25.9278  -32.4592   23.8158 C   0  0  1  0  0  0
  -27.2249  -26.9247   20.1970 C   0  0  0  0  0  0
  -25.5960  -33.8407   24.2072 N   0  0  0  0  0  0
  -23.4752  -30.4321   21.5172 C   0  0  2  0  0  0
  -24.9333  -28.8156   20.1062 C   0  0  0  0  0  0
  -22.7652  -29.4433   22.4769 C   0  0  0  0  0  0
  -18.0317  -28.1413   22.8450 C   0  0  0  0  0  0
  -24.1484  -36.7223   23.2650 C   0  0  0  0  0  0
  -26.0416  -30.6290   21.3972 C   0  0  0  0  0  0
  -26.1111  -29.2156   20.7481 C   0  0  0  0  0  0
  -27.2459  -28.2883   20.7747 C   0  0  0  0  0  0
  -26.0245  -26.6781   19.4914 C   0  0  0  0  0  0
  -24.9163  -27.5685   19.4565 C   0  0  0  0  0  0
  -23.7162  -29.7428   20.1431 C   0  0  0  0  0  0
  -25.4122  -36.2974   24.0301 C   0  0  1  0  0  0
  -20.5939  -28.3750   23.1193 C   0  0  2  0  0  0
  -20.6792  -26.9428   22.5416 C   0  0  0  0  0  0
  -19.5780  -26.6371   21.5222 C   0  0  0  0  0  0
  -18.1952  -26.7939   22.1616 C   0  0  0  0  0  0
  -19.1574  -28.8907   23.2807 C   0  0  0  0  0  0
  -18.9483  -30.1493   23.8856 C   0  0  0  0  0  0
  -17.6481  -30.6602   24.0549 C   0  0  0  0  0  0
  -25.9087  -34.9355   23.5012 C   0  0  0  0  0  0
  -16.5372  -29.9086   23.6346 C   0  0  0  0  0  0
  -16.7302  -28.6511   23.0364 C   0  0  0  0  0  0
  -26.4544  -31.6541   25.0681 C   0  0  0  0  0  0
  -25.3670  -31.3798   26.1340 C   0  0  0  0  0  0
  -27.0442  -30.2919   24.6395 C   0  0  0  0  0  0
  -27.6036  -32.4357   25.7486 C   0  0  0  0  0  0
  -27.5553  -37.1771   24.8466 C   0  0  0  0  0  0
  -21.4324  -29.3032   22.3535 N   0  0  0  0  0  0
  -26.4273  -37.3700   23.9403 N   0  0  0  0  0  0
  -24.7477  -30.9879   22.0832 N   0  0  0  0  0  0
  -23.4201  -28.7996   23.2998 O   0  0  0  0  0  0
  -28.2414  -25.8392   20.3480 O   0  0  0  0  0  0
  -26.5690  -34.8894   22.4607 O   0  0  0  0  0  0
  -23.5688  -32.1189   23.6807 O   0  0  0  0  0  0
  -30.1459  -20.4752   19.6679 C   0  0  0  0  0  0
  -28.6908  -19.6447   20.8965 C   0  0  0  0  0  0
  -29.0272  -20.9884   20.4282 C   0  0  0  0  0  0
  -28.4852  -22.6576   20.7821 C   0  0  0  0  0  0
  -28.3007  -24.2358   19.9201 C   0  0  0  0  0  0
  -29.5385  -16.7937   20.9504 C   0  0  1  0  0  0
  -29.6906  -16.8033   22.5004 C   0  0  0  0  0  0
  -30.4118  -19.1165   19.7034 N   0  0  0  0  0  0
  -29.5190  -18.4485   20.5096 N   0  0  0  0  0  0
  -30.9348  -17.1434   22.8453 F   0  0  0  0  0  0
  -29.4401  -15.6163   23.0516 F   0  0  0  0  0  0
  -28.8500  -17.6716   23.0680 F   0  0  0  0  0  0
  -31.4642  -13.0634   19.2271 H   0  0  0  0  0  0
  -30.5367  -11.9251   20.1487 H   0  0  0  0  0  0
  -29.9487  -11.7871   17.7054 H   0  0  0  0  0  0
  -29.5830  -13.4953   17.6836 H   0  0  0  0  0  0
  -28.0553  -11.2820   19.0781 H   0  0  0  0  0  0
  -27.4400  -12.3579   17.8481 H   0  0  0  0  0  0
  -27.5381  -14.2472   19.3424 H   0  0  0  0  0  0
  -28.7995  -12.4715   21.4818 H   0  0  0  0  0  0
  -28.2217  -14.1012   21.7160 H   0  0  0  0  0  0
  -25.2794   -9.5698   22.4747 H   0  0  0  0  0  0
  -24.0043   -7.4634   22.7456 H   0  0  0  0  0  0
  -21.0862   -8.8758   19.8949 H   0  0  0  0  0  0
  -22.3702  -10.9667   19.6168 H   0  0  0  0  0  0
  -21.2016   -7.6148   23.9724 H   0  0  0  0  0  0
  -21.1483   -6.0515   25.9076 H   0  0  0  0  0  0
  -22.0599   -2.7607   23.2832 H   0  0  0  0  0  0
  -22.4081  -11.9895   22.4900 H   0  0  0  0  0  0
  -21.1036  -13.1172   22.2641 H   0  0  0  0  0  0
  -24.6406  -15.8495   20.5451 H   0  0  0  0  0  0
  -26.2394  -15.6363   20.0458 H   0  0  0  0  0  0
  -26.7352  -32.5135   23.0877 H   0  0  0  0  0  0
  -25.0075  -33.9493   25.0206 H   0  0  0  0  0  0
  -22.7873  -31.2610   21.3448 H   0  0  0  0  0  0
  -23.3744  -35.9555   23.3308 H   0  0  0  0  0  0
  -24.3552  -36.8877   22.2062 H   0  0  0  0  0  0
  -23.7256  -37.6424   23.6714 H   0  0  0  0  0  0
  -26.2100  -31.3635   20.6082 H   0  0  0  0  0  0
  -26.9089  -30.6975   22.0439 H   0  0  0  0  0  0
  -28.1313  -28.5873   21.3193 H   0  0  0  0  0  0
  -25.9042  -25.7232   19.0021 H   0  0  0  0  0  0
  -24.0223  -27.2554   18.9354 H   0  0  0  0  0  0
  -23.8673  -30.5107   19.3831 H   0  0  0  0  0  0
  -22.8264  -29.1934   19.8293 H   0  0  0  0  0  0
  -25.1324  -36.1776   25.0791 H   0  0  0  0  0  0
  -21.0020  -28.3368   24.1323 H   0  0  0  0  0  0
  -20.5679  -26.2359   23.3651 H   0  0  0  0  0  0
  -21.6648  -26.7407   22.1218 H   0  0  0  0  0  0
  -19.6933  -25.6272   21.1287 H   0  0  0  0  0  0
  -19.6735  -27.3149   20.6730 H   0  0  0  0  0  0
  -17.4218  -26.6692   21.4014 H   0  0  0  0  0  0
  -18.0335  -26.0090   22.9027 H   0  0  0  0  0  0
  -19.7967  -30.7323   24.2180 H   0  0  0  0  0  0
  -17.5041  -31.6271   24.5173 H   0  0  0  0  0  0
  -15.5376  -30.2981   23.7707 H   0  0  0  0  0  0
  -15.8696  -28.0837   22.7092 H   0  0  0  0  0  0
  -24.5846  -30.7164   25.7646 H   0  0  0  0  0  0
  -24.8857  -32.3000   26.4658 H   0  0  0  0  0  0
  -25.7868  -30.9025   27.0198 H   0  0  0  0  0  0
  -26.3107  -29.6603   24.1380 H   0  0  0  0  0  0
  -27.3977  -29.7277   25.5034 H   0  0  0  0  0  0
  -27.9034  -30.4129   23.9798 H   0  0  0  0  0  0
  -27.2608  -33.3708   26.1933 H   0  0  0  0  0  0
  -28.3905  -32.6845   25.0354 H   0  0  0  0  0  0
  -28.0636  -31.8572   26.5514 H   0  0  0  0  0  0
  -28.2577  -38.0057   24.7463 H   0  0  0  0  0  0
  -28.1043  -36.2580   24.6351 H   0  0  0  0  0  0
  -27.2265  -37.1478   25.8870 H   0  0  0  0  0  0
  -20.9580  -29.8717   21.6672 H   0  0  0  0  0  0
  -26.0127  -38.2769   24.1395 H   0  0  0  0  0  0
  -30.8432  -21.0818   19.1064 H   0  0  0  0  0  0
  -27.8831  -19.4336   21.5842 H   0  0  0  0  0  0
  -29.0795  -22.9522   21.6449 H   0  0  0  0  0  0
  -27.4903  -22.5434   21.2145 H   0  0  0  0  0  0
  -27.5072  -24.0938   19.1858 H   0  0  0  0  0  0
  -29.2038  -24.2558   19.3097 H   0  0  0  0  0  0
  -28.5049  -16.4978   20.7692 H   0  0  0  0  0  0
  1 25  1  0  0  0
  1 30  2  0  0  0
  1 76  1  0  0  0
  2  3  1  0  0  0
  2 25  1  0  0  0
  2 83  1  0  0  0
  2 84  1  0  0  0
  3  4  1  0  0  0
  3 85  1  0  0  0
  3 86  1  0  0  0
  4  5  1  0  0  0
  4 87  1  0  0  0
  4 88  1  0  0  0
  5  6  1  0  0  0
  5 26  1  0  0  0
  5 89  1  0  0  0
  6 25  1  0  0  0
  6 90  1  0  0  0
  6 91  1  0  0  0
  7  8  2  0  0  0
  7 26  1  0  0  0
  7 29  1  0  0  0
  8  9  1  0  0  0
  8 22  1  0  0  0
  9 10  1  0  0  0
  9 27  2  0  0  0
 10 11  2  0  0  0
 10 15  1  0  0  0
 11 12  1  0  0  0
 11 92  1  0  0  0
 12 13  2  0  0  0
 12 93  1  0  0  0
 13 14  1  0  0  0
 13 31  1  0  0  0
 14 15  2  0  0  0
 14 94  1  0  0  0
 15 95  1  0  0  0
 16 17  2  0  0  0
 16 21  1  0  0  0
 16 31  1  0  0  0
 17 18  1  0  0  0
 17 96  1  0  0  0
 18 19  2  0  0  0
 18 97  1  0  0  0
 19 20  1  0  0  0
 19 24  1  0  0  0
 20 21  2  0  0  0
 20 98  1  0  0  0
 21 23  1  0  0  0
 22 28  1  0  0  0
 22 32  2  0  0  0
 26 27  1  0  0  0
 28 99  1  0  0  0
 28100  1  0  0  0
 29101  1  0  0  0
 29102  1  0  0  0
 33 34  1  0  0  0
 33 66  1  0  0  0
 33 70  2  0  0  0
 34 36  1  0  0  0
 34 59  1  0  0  0
 34103  1  0  0  0
 35 44  2  0  0  0
 35 45  1  0  0  0
 35 68  1  0  0  0
 36 56  1  0  0  0
 36104  1  0  0  0
 37 39  1  0  0  0
 37 47  1  0  0  0
 37 66  1  0  0  0
 37105  1  0  0  0
 38 43  2  0  0  0
 38 46  1  0  0  0
 38 47  1  0  0  0
 39 64  1  0  0  0
 39 67  2  0  0  0
 40 52  1  0  0  0
 40 53  2  0  0  0
 40 58  1  0  0  0
 41106  1  0  0  0
 41107  1  0  0  0
 41108  1  0  0  0
 41 48  1  0  0  0
 42 43  1  0  0  0
 42 66  1  0  0  0
 42109  1  0  0  0
 42110  1  0  0  0
 43 44  1  0  0  0
 44111  1  0  0  0
 45 46  2  0  0  0
 45112  1  0  0  0
 46113  1  0  0  0
 47114  1  0  0  0
 47115  1  0  0  0
 48 56  1  0  0  0
 48 65  1  0  0  0
 48116  1  0  0  0
 49 50  1  0  0  0
 49 53  1  0  0  0
 49 64  1  0  0  0
 49117  1  0  0  0
 50 51  1  0  0  0
 50118  1  0  0  0
 50119  1  0  0  0
 51 52  1  0  0  0
 51120  1  0  0  0
 51121  1  0  0  0
 52122  1  0  0  0
 52123  1  0  0  0
 53 54  1  0  0  0
 54 55  2  0  0  0
 54124  1  0  0  0
 55 57  1  0  0  0
 55125  1  0  0  0
 56 69  2  0  0  0
 57 58  2  0  0  0
 57126  1  0  0  0
 58127  1  0  0  0
 59 60  1  0  0  0
 59 61  1  0  0  0
 59 62  1  0  0  0
 60128  1  0  0  0
 60129  1  0  0  0
 60130  1  0  0  0
 61131  1  0  0  0
 61132  1  0  0  0
 61133  1  0  0  0
 62134  1  0  0  0
 62135  1  0  0  0
 62136  1  0  0  0
 63 65  1  0  0  0
 63137  1  0  0  0
 63138  1  0  0  0
 63139  1  0  0  0
 64140  1  0  0  0
 65141  1  0  0  0
 68 75  1  0  0  0
 71 73  1  0  0  0
 71 78  2  0  0  0
 71142  1  0  0  0
 72 73  2  0  0  0
 72 79  1  0  0  0
 72143  1  0  0  0
 73 74  1  0  0  0
 74 75  1  0  0  0
 74144  1  0  0  0
 74145  1  0  0  0
 75146  1  0  0  0
 75147  1  0  0  0
 76 77  1  0  0  0
 76 79  1  0  0  0
 76148  1  0  0  0
 77 80  1  0  0  0
 77 81  1  0  0  0
 77 82  1  0  0  0
 78 79  1  0  0  0
M  ISO  4   1 100  68 101  75 101  76 100
M  END
> <chiral flag>
0

> <version>
0

> <s_m_source_file>
/data/baiqing/PycharmProjects/Reinvent-master-3.2/result/LINK_invent/BTK/process_docking_weight1_custom_sum_contain_oxygen_bond_distance_aromatic_linkinvent_7_9_3/rearranged_h_0056.sdf

> <i_m_source_file_index>
4

> <r_mmod_Potential_Energy-OPLS-2005>
1491.91687011719

> <r_mmod_Stretch_Energy-OPLS-2005>
633.331604003906

> <r_mmod_Bend_Energy-OPLS-2005>
497.565612792969

> <r_mmod_Torsional_Energy-OPLS-2005>
190.925140380859

> <r_mmod_Improper_Torsional_Energy-OPLS-2005>
3.24720764160156

> <r_mmod_Van_der_Waal_Energy-OPLS-2005>
109.468223571777

> <r_mmod_Electrostatic_Energy-OPLS-2005>
-209.606079101562

> <r_mmod_Solvation_Energy-OPLS-2005>
-216.334869384766

> <b_mmod_Minimization_Converged-OPLS-2005>
0

> <r_mmod_RMS_Derivative-OPLS-2005>
3.34509038925171

$$$$
5
                    3D
 Structure written by MMmdl.
169177  0  0  1  0            999 V2000
  -30.6773  -14.6016   20.6050 C   0  0  0  0  0  0
  -30.4246  -12.4020   19.4485 C   0  0  0  0  0  0
  -29.4836  -12.5295   18.2262 C   0  0  0  0  0  0
  -28.0118  -12.3452   18.6523 C   0  0  0  0  0  0
  -27.6558  -13.2039   19.8982 C   0  0  2  0  0  0
  -28.7075  -12.9706   21.0039 C   0  0  0  0  0  0
  -25.2505  -13.8083   20.5809 C   0  0  0  0  0  0
  -24.1788  -13.0364   20.9190 C   0  0  0  0  0  0
  -24.6383  -11.6785   20.8804 C   0  0  0  0  0  0
  -23.9129  -10.4164   21.0511 C   0  0  0  0  0  0
  -24.3632   -9.4057   21.9296 C   0  0  0  0  0  0
  -23.6333   -8.2088   22.0794 C   0  0  0  0  0  0
  -22.4325   -8.0188   21.3567 C   0  0  0  0  0  0
  -21.9978   -9.0139   20.4668 C   0  0  0  0  0  0
  -22.7304  -10.2018   20.3153 C   0  0  0  0  0  0
  -21.6795   -6.0735   22.5245 C   0  0  0  0  0  0
  -21.3963   -6.5650   23.8160 C   0  0  0  0  0  0
  -21.3689   -5.6818   24.9148 C   0  0  0  0  0  0
  -21.6096   -4.3069   24.7203 C   0  0  0  0  0  0
  -21.8844   -3.8170   23.4312 C   0  0  0  0  0  0
  -21.9179   -4.6997   22.3378 C   0  0  0  0  0  0
  -22.7766  -13.5044   21.1932 C   0  0  0  0  0  0
  -22.1628   -4.2197   21.0947 F   0  0  0  0  0  0
  -21.5731   -3.4557   25.7711 F   0  0  0  0  0  0
  -30.0079  -13.3982   20.4728 N   0  0  0  0  0  0
  -26.2978  -12.9281   20.3565 N   0  0  0  0  0  0
  -25.9336  -11.6433   20.5931 N   0  0  0  0  0  0
  -22.0498  -12.7977   22.0485 N   0  0  0  0  0  0
  -25.4373  -15.1845   20.4440 N   0  0  0  0  0  0
  -31.7778  -14.6950   20.0471 O   0  0  0  0  0  0
  -21.6606   -6.8847   21.4211 O   0  0  0  0  0  0
  -22.3371  -14.5337   20.6755 O   0  0  0  0  0  0
  -24.6244  -31.8581   23.2080 C   0  0  0  0  0  0
  -25.9139  -32.4720   23.8348 C   0  0  1  0  0  0
  -27.2412  -27.3798   20.1125 C   0  0  0  0  0  0
  -25.6046  -33.8556   24.2249 N   0  0  0  0  0  0
  -23.4109  -30.4893   21.5425 C   0  0  2  0  0  0
  -24.8559  -28.9555   20.1063 C   0  0  0  0  0  0
  -22.7455  -29.4638   22.4917 C   0  0  0  0  0  0
  -18.0185  -28.1403   22.8307 C   0  0  0  0  0  0
  -24.1535  -36.7321   23.2618 C   0  0  0  0  0  0
  -25.9459  -30.8166   21.3564 C   0  0  0  0  0  0
  -26.0217  -29.4478   20.7067 C   0  0  0  0  0  0
  -27.2123  -28.6700   20.7054 C   0  0  0  0  0  0
  -26.0456  -26.9145   19.5112 C   0  0  0  0  0  0
  -24.8656  -27.6885   19.5033 C   0  0  0  0  0  0
  -23.6242  -29.8391   20.1527 C   0  0  0  0  0  0
  -25.4125  -36.3065   24.0291 C   0  0  1  0  0  0
  -20.5855  -28.3738   23.1254 C   0  0  2  0  0  0
  -20.6739  -26.9454   22.5428 C   0  0  0  0  0  0
  -19.5763  -26.6446   21.5128 C   0  0  0  0  0  0
  -18.1912  -26.7919   22.1500 C   0  0  0  0  0  0
  -19.1488  -28.8842   23.2774 C   0  0  0  0  0  0
  -18.9490  -30.1473   23.8801 C   0  0  0  0  0  0
  -17.6509  -30.6579   24.0570 C   0  0  0  0  0  0
  -25.9061  -34.9462   23.5058 C   0  0  0  0  0  0
  -16.5380  -29.9132   23.6312 C   0  0  0  0  0  0
  -16.7213  -28.6602   23.0207 C   0  0  0  0  0  0
  -26.4601  -31.6499   25.0696 C   0  0  0  0  0  0
  -25.3797  -31.3622   26.1396 C   0  0  0  0  0  0
  -27.0460  -30.2931   24.6096 C   0  0  0  0  0  0
  -27.6171  -32.4292   25.7484 C   0  0  0  0  0  0
  -27.5531  -37.1853   24.8448 C   0  0  0  0  0  0
  -21.4175  -29.3062   22.3640 N   0  0  0  0  0  0
  -26.4250  -37.3798   23.9425 N   0  0  0  0  0  0
  -24.6790  -31.0635   22.1005 N   0  0  0  0  0  0
  -23.4196  -28.8221   23.3008 O   0  0  0  0  0  0
  -28.3940  -26.5892   20.2139 O   0  0  0  0  0  0
  -26.5582  -34.8927   22.4604 O   0  0  0  0  0  0
  -23.5438  -32.1501   23.7379 O   0  0  0  0  0  0
  -30.3266  -22.3522   19.7459 C   0  0  0  0  0  0
  -29.0091  -21.9384   19.8811 C   0  0  0  0  0  0
  -29.1154  -24.1759   19.8318 C   0  0  0  0  0  0
  -31.5799  -21.5754   19.4239 C   0  0  0  0  0  0
  -29.2454  -15.7597   22.5416 C   0  0  0  0  0  0
  -31.4657  -16.6015   21.9445 C   0  0  0  0  0  0
  -26.8995  -23.2842   20.5923 C   0  0  0  0  0  0
  -27.5810  -19.6504   21.7210 C   0  0  0  0  0  0
  -28.3840  -20.5643   19.5103 C   0  0  0  0  0  0
  -28.6407  -25.5297   19.2516 C   0  0  0  0  0  0
  -29.4943  -17.0093   20.3419 C   0  0  0  0  0  0
  -29.5924  -18.5829   20.6220 C   0  0  0  0  0  0
  -30.1826  -15.9521   21.3350 C   0  0  0  0  0  0
  -30.3753  -23.7479   19.7292 N   0  0  0  0  0  0
  -28.2890  -23.1394   20.1530 N   0  0  0  0  0  0
  -28.3180  -19.3851   20.4519 N   0  3  1  0  0  0
  -31.4676  -12.4991   19.1271 H   0  0  0  0  0  0
  -30.3656  -11.3912   19.8594 H   0  0  0  0  0  0
  -29.7292  -11.7920   17.4590 H   0  0  0  0  0  0
  -29.6236  -13.5135   17.7731 H   0  0  0  0  0  0
  -27.8560  -11.2900   18.8848 H   0  0  0  0  0  0
  -27.3300  -12.5650   17.8336 H   0  0  0  0  0  0
  -27.6865  -14.2472   19.5853 H   0  0  0  0  0  0
  -28.7390  -11.9009   21.2233 H   0  0  0  0  0  0
  -28.4516  -13.3864   21.9693 H   0  0  0  0  0  0
  -25.2749   -9.5497   22.4904 H   0  0  0  0  0  0
  -24.0048   -7.4429   22.7448 H   0  0  0  0  0  0
  -21.0947   -8.8645   19.8895 H   0  0  0  0  0  0
  -22.3818  -10.9600   19.6287 H   0  0  0  0  0  0
  -21.1854   -7.6137   23.9635 H   0  0  0  0  0  0
  -21.1539   -6.0571   25.9015 H   0  0  0  0  0  0
  -22.0620   -2.7646   23.2791 H   0  0  0  0  0  0
  -22.4157  -11.9663   22.4939 H   0  0  0  0  0  0
  -21.1086  -13.0945   22.2697 H   0  0  0  0  0  0
  -24.7095  -15.8672   20.6142 H   0  0  0  0  0  0
  -26.3628  -15.5798   20.3618 H   0  0  0  0  0  0
  -26.7176  -32.5549   23.1057 H   0  0  0  0  0  0
  -25.0408  -33.9798   25.0539 H   0  0  0  0  0  0
  -22.7034  -31.3145   21.4288 H   0  0  0  0  0  0
  -23.3737  -35.9726   23.3284 H   0  0  0  0  0  0
  -24.3612  -36.8972   22.2048 H   0  0  0  0  0  0
  -23.7365  -37.6552   23.6670 H   0  0  0  0  0  0
  -26.0448  -31.5718   20.5734 H   0  0  0  0  0  0
  -26.8398  -30.8857   21.9604 H   0  0  0  0  0  0
  -28.1083  -29.0405   21.1869 H   0  0  0  0  0  0
  -25.9712  -25.9393   19.0688 H   0  0  0  0  0  0
  -23.9724  -27.2909   19.0496 H   0  0  0  0  0  0
  -23.7687  -30.6271   19.4152 H   0  0  0  0  0  0
  -22.7341  -29.2990   19.8178 H   0  0  0  0  0  0
  -25.1257  -36.1880   25.0751 H   0  0  0  0  0  0
  -20.9918  -28.3525   24.1384 H   0  0  0  0  0  0
  -20.5632  -26.2366   23.3678 H   0  0  0  0  0  0
  -21.6622  -26.7455   22.1235 H   0  0  0  0  0  0
  -19.7093  -25.6412   21.1121 H   0  0  0  0  0  0
  -19.6815  -27.3258   20.6715 H   0  0  0  0  0  0
  -17.4227  -26.6446   21.3927 H   0  0  0  0  0  0
  -18.0415  -26.0105   22.8950 H   0  0  0  0  0  0
  -19.8055  -30.7177   24.2196 H   0  0  0  0  0  0
  -17.5094  -31.6230   24.5260 H   0  0  0  0  0  0
  -15.5429  -30.3042   23.7758 H   0  0  0  0  0  0
  -15.8535  -28.1049   22.6947 H   0  0  0  0  0  0
  -24.5914  -30.7025   25.7701 H   0  0  0  0  0  0
  -24.9053  -32.2808   26.4903 H   0  0  0  0  0  0
  -25.8055  -30.8689   27.0128 H   0  0  0  0  0  0
  -26.2976  -29.6599   24.1265 H   0  0  0  0  0  0
  -27.4356  -29.7238   25.4562 H   0  0  0  0  0  0
  -27.8787  -30.4251   23.9143 H   0  0  0  0  0  0
  -27.2685  -33.3548   26.2113 H   0  0  0  0  0  0
  -28.3946  -32.6950   25.0283 H   0  0  0  0  0  0
  -28.0919  -31.8394   26.5362 H   0  0  0  0  0  0
  -28.2521  -38.0166   24.7386 H   0  0  0  0  0  0
  -28.0991  -36.2662   24.6303 H   0  0  0  0  0  0
  -27.2233  -37.1554   25.8846 H   0  0  0  0  0  0
  -20.9477  -29.8589   21.6631 H   0  0  0  0  0  0
  -26.0052  -38.2835   24.1482 H   0  0  0  0  0  0
  -31.4114  -20.8881   18.5982 H   0  0  0  0  0  0
  -31.9391  -20.9968   20.2811 H   0  0  0  0  0  0
  -32.4029  -22.2160   19.1079 H   0  0  0  0  0  0
  -29.6805  -15.1078   23.3032 H   0  0  0  0  0  0
  -28.2603  -15.4112   22.2498 H   0  0  0  0  0  0
  -29.0716  -16.7201   23.0380 H   0  0  0  0  0  0
  -32.1018  -17.0260   21.1666 H   0  0  0  0  0  0
  -32.0542  -15.8567   22.4913 H   0  0  0  0  0  0
  -31.2559  -17.4024   22.6560 H   0  0  0  0  0  0
  -26.6620  -24.3371   20.7698 H   0  0  0  0  0  0
  -26.2034  -22.8878   19.8614 H   0  0  0  0  0  0
  -26.7465  -22.7991   21.5594 H   0  0  0  0  0  0
  -26.5988  -20.0981   21.5648 H   0  0  0  0  0  0
  -28.1361  -20.3160   22.3801 H   0  0  0  0  0  0
  -27.4228  -18.7173   22.2735 H   0  0  0  0  0  0
  -28.8970  -20.2082   18.6113 H   0  0  0  0  0  0
  -27.3690  -20.7286   19.1344 H   0  0  0  0  0  0
  -27.8405  -25.3416   18.5440 H   0  0  0  0  0  0
  -29.4490  -25.8958   18.6284 H   0  0  0  0  0  0
  -29.8836  -16.8582   19.3340 H   0  0  0  0  0  0
  -28.4454  -16.7359   20.2567 H   0  0  0  0  0  0
  -30.3644  -18.9876   19.9561 H   0  0  0  0  0  0
  -29.9444  -18.7969   21.6336 H   0  0  0  0  0  0
  -27.6962  -18.7461   19.9681 H   0  0  0  0  0  0
  1 25  1  0  0  0
  1 30  2  0  0  0
  1 83  1  0  0  0
  2  3  1  0  0  0
  2 25  1  0  0  0
  2 87  1  0  0  0
  2 88  1  0  0  0
  3  4  1  0  0  0
  3 89  1  0  0  0
  3 90  1  0  0  0
  4  5  1  0  0  0
  4 91  1  0  0  0
  4 92  1  0  0  0
  5  6  1  0  0  0
  5 26  1  0  0  0
  5 93  1  0  0  0
  6 25  1  0  0  0
  6 94  1  0  0  0
  6 95  1  0  0  0
  7  8  2  0  0  0
  7 26  1  0  0  0
  7 29  1  0  0  0
  8  9  1  0  0  0
  8 22  1  0  0  0
  9 10  1  0  0  0
  9 27  2  0  0  0
 10 11  2  0  0  0
 10 15  1  0  0  0
 11 12  1  0  0  0
 11 96  1  0  0  0
 12 13  2  0  0  0
 12 97  1  0  0  0
 13 14  1  0  0  0
 13 31  1  0  0  0
 14 15  2  0  0  0
 14 98  1  0  0  0
 15 99  1  0  0  0
 16 17  2  0  0  0
 16 21  1  0  0  0
 16 31  1  0  0  0
 17 18  1  0  0  0
 17100  1  0  0  0
 18 19  2  0  0  0
 18101  1  0  0  0
 19 20  1  0  0  0
 19 24  1  0  0  0
 20 21  2  0  0  0
 20102  1  0  0  0
 21 23  1  0  0  0
 22 28  1  0  0  0
 22 32  2  0  0  0
 26 27  1  0  0  0
 28103  1  0  0  0
 28104  1  0  0  0
 29105  1  0  0  0
 29106  1  0  0  0
 33 34  1  0  0  0
 33 66  1  0  0  0
 33 70  2  0  0  0
 34 36  1  0  0  0
 34 59  1  0  0  0
 34107  1  0  0  0
 35 44  2  0  0  0
 35 45  1  0  0  0
 35 68  1  0  0  0
 36 56  1  0  0  0
 36108  1  0  0  0
 37 39  1  0  0  0
 37 47  1  0  0  0
 37 66  1  0  0  0
 37109  1  0  0  0
 38 43  2  0  0  0
 38 46  1  0  0  0
 38 47  1  0  0  0
 39 64  1  0  0  0
 39 67  2  0  0  0
 40 52  1  0  0  0
 40 53  2  0  0  0
 40 58  1  0  0  0
 41110  1  0  0  0
 41111  1  0  0  0
 41112  1  0  0  0
 41 48  1  0  0  0
 42 43  1  0  0  0
 42 66  1  0  0  0
 42113  1  0  0  0
 42114  1  0  0  0
 43 44  1  0  0  0
 44115  1  0  0  0
 45 46  2  0  0  0
 45116  1  0  0  0
 46117  1  0  0  0
 47118  1  0  0  0
 47119  1  0  0  0
 48 56  1  0  0  0
 48 65  1  0  0  0
 48120  1  0  0  0
 49 50  1  0  0  0
 49 53  1  0  0  0
 49 64  1  0  0  0
 49121  1  0  0  0
 50 51  1  0  0  0
 50122  1  0  0  0
 50123  1  0  0  0
 51 52  1  0  0  0
 51124  1  0  0  0
 51125  1  0  0  0
 52126  1  0  0  0
 52127  1  0  0  0
 53 54  1  0  0  0
 54 55  2  0  0  0
 54128  1  0  0  0
 55 57  1  0  0  0
 55129  1  0  0  0
 56 69  2  0  0  0
 57 58  2  0  0  0
 57130  1  0  0  0
 58131  1  0  0  0
 59 60  1  0  0  0
 59 61  1  0  0  0
 59 62  1  0  0  0
 60132  1  0  0  0
 60133  1  0  0  0
 60134  1  0  0  0
 61135  1  0  0  0
 61136  1  0  0  0
 61137  1  0  0  0
 62138  1  0  0  0
 62139  1  0  0  0
 62140  1  0  0  0
 63 65  1  0  0  0
 63141  1  0  0  0
 63142  1  0  0  0
 63143  1  0  0  0
 64144  1  0  0  0
 65145  1  0  0  0
 68 80  1  0  0  0
 71 72  2  0  0  0
 71 74  1  0  0  0
 71 84  1  0  0  0
 72 79  1  0  0  0
 72 85  1  0  0  0
 73 80  1  0  0  0
 73 84  2  0  0  0
 73 85  1  0  0  0
 74146  1  0  0  0
 74147  1  0  0  0
 74148  1  0  0  0
 75149  1  0  0  0
 75150  1  0  0  0
 75151  1  0  0  0
 75 83  1  0  0  0
 76 83  1  0  0  0
 76152  1  0  0  0
 76153  1  0  0  0
 76154  1  0  0  0
 77 85  1  0  0  0
 77155  1  0  0  0
 77156  1  0  0  0
 77157  1  0  0  0
 78158  1  0  0  0
 78159  1  0  0  0
 78160  1  0  0  0
 78 86  1  0  0  0
 79 86  1  0  0  0
 79161  1  0  0  0
 79162  1  0  0  0
 80163  1  0  0  0
 80164  1  0  0  0
 81 82  1  0  0  0
 81 83  1  0  0  0
 81165  1  0  0  0
 81166  1  0  0  0
 82 86  1  0  0  0
 82167  1  0  0  0
 82168  1  0  0  0
 86169  1  0  0  0
M  CHG  1  86   1
M  ISO  4   1 100  68 101  80 101  83 100
M  END
> <chiral flag>
0

> <version>
0

> <s_m_source_file>
/data/baiqing/PycharmProjects/Reinvent-master-3.2/result/LINK_invent/BTK/process_docking_weight1_custom_sum_contain_oxygen_bond_distance_aromatic_linkinvent_7_9_3/rearranged_h_0056.sdf

> <i_m_source_file_index>
5

> <r_mmod_Potential_Energy-OPLS-2005>
83.7013626098633

> <r_mmod_Stretch_Energy-OPLS-2005>
89.9521713256836

> <r_mmod_Bend_Energy-OPLS-2005>
201.9658203125

> <r_mmod_Torsional_Energy-OPLS-2005>
264.68603515625

> <r_mmod_Improper_Torsional_Energy-OPLS-2005>
7.90316677093506

> <r_mmod_Van_der_Waal_Energy-OPLS-2005>
124.456924438477

> <r_mmod_Electrostatic_Energy-OPLS-2005>
-182.135986328125

> <r_mmod_Solvation_Energy-OPLS-2005>
-454.632537841797

> <b_mmod_Minimization_Converged-OPLS-2005>
0

> <r_mmod_RMS_Derivative-OPLS-2005>
13.5237531661987

$$$$
6
                    3D
 Structure written by MMmdl.
161169  0  0  1  0            999 V2000
  -30.7155  -14.4604   20.6290 C   0  0  0  0  0  0
  -30.4251  -12.3203   19.4156 C   0  0  0  0  0  0
  -29.4911  -12.5215   18.2034 C   0  0  0  0  0  0
  -28.0127  -12.3778   18.6147 C   0  0  0  0  0  0
  -27.6625  -13.2057   19.8772 C   0  0  2  0  0  0
  -28.7015  -12.9629   20.9924 C   0  0  0  0  0  0
  -25.2577  -13.8168   20.5670 C   0  0  0  0  0  0
  -24.1826  -13.0443   20.9168 C   0  0  0  0  0  0
  -24.6378  -11.6903   20.8722 C   0  0  0  0  0  0
  -23.9047  -10.4285   21.0398 C   0  0  0  0  0  0
  -24.3600   -9.4205   21.9178 C   0  0  0  0  0  0
  -23.6272   -8.2248   22.0760 C   0  0  0  0  0  0
  -22.4261   -8.0276   21.3548 C   0  0  0  0  0  0
  -21.9892   -9.0249   20.4654 C   0  0  0  0  0  0
  -22.7219  -10.2126   20.3052 C   0  0  0  0  0  0
  -21.6855   -6.0729   22.5268 C   0  0  0  0  0  0
  -21.4013   -6.5638   23.8198 C   0  0  0  0  0  0
  -21.3659   -5.6796   24.9163 C   0  0  0  0  0  0
  -21.6048   -4.3060   24.7219 C   0  0  0  0  0  0
  -21.8817   -3.8150   23.4338 C   0  0  0  0  0  0
  -21.9185   -4.6960   22.3390 C   0  0  0  0  0  0
  -22.7843  -13.5232   21.1835 C   0  0  0  0  0  0
  -22.1652   -4.2144   21.0969 F   0  0  0  0  0  0
  -21.5633   -3.4539   25.7733 F   0  0  0  0  0  0
  -30.0392  -13.2851   20.4588 N   0  0  0  0  0  0
  -26.3014  -12.9333   20.3372 N   0  0  0  0  0  0
  -25.9303  -11.6493   20.5759 N   0  0  0  0  0  0
  -22.0491  -12.8221   22.0397 N   0  0  0  0  0  0
  -25.4336  -15.1876   20.4078 N   0  0  0  0  0  0
  -31.7676  -14.7183   20.0381 O   0  0  0  0  0  0
  -21.6637   -6.8864   21.4231 O   0  0  0  0  0  0
  -22.3513  -14.5529   20.6679 O   0  0  0  0  0  0
  -24.6128  -31.8693   23.2092 C   0  0  0  0  0  0
  -25.9015  -32.4830   23.8407 C   0  0  1  0  0  0
  -27.2430  -27.4299   20.1057 C   0  0  0  0  0  0
  -25.5874  -33.8623   24.2333 N   0  0  0  0  0  0
  -23.4029  -30.4888   21.5487 C   0  0  2  0  0  0
  -24.8567  -28.9487   20.1213 C   0  0  0  0  0  0
  -22.7395  -29.4647   22.4984 C   0  0  0  0  0  0
  -18.0274  -28.1367   22.8511 C   0  0  0  0  0  0
  -24.1474  -36.7317   23.2647 C   0  0  0  0  0  0
  -25.9318  -30.8267   21.3682 C   0  0  0  0  0  0
  -26.0144  -29.4562   20.7284 C   0  0  0  0  0  0
  -27.2113  -28.6996   20.7311 C   0  0  0  0  0  0
  -26.0750  -26.9380   19.4926 C   0  0  0  0  0  0
  -24.8811  -27.6852   19.5040 C   0  0  0  0  0  0
  -23.6171  -29.8159   20.1652 C   0  0  0  0  0  0
  -25.4092  -36.3123   24.0357 C   0  0  1  0  0  0
  -20.5864  -28.3642   23.1325 C   0  0  2  0  0  0
  -20.6753  -26.9379   22.5410 C   0  0  0  0  0  0
  -19.5734  -26.6378   21.5199 C   0  0  0  0  0  0
  -18.1920  -26.7920   22.1623 C   0  0  0  0  0  0
  -19.1525  -28.8818   23.2921 C   0  0  0  0  0  0
  -18.9450  -30.1435   23.8921 C   0  0  0  0  0  0
  -17.6449  -30.6579   24.0566 C   0  0  0  0  0  0
  -25.9022  -34.9482   23.5136 C   0  0  0  0  0  0
  -16.5339  -29.9083   23.6327 C   0  0  0  0  0  0
  -16.7261  -28.6491   23.0369 C   0  0  0  0  0  0
  -26.4450  -31.6608   25.0723 C   0  0  0  0  0  0
  -25.3732  -31.3711   26.1480 C   0  0  0  0  0  0
  -27.0279  -30.3051   24.6080 C   0  0  0  0  0  0
  -27.6024  -32.4315   25.7480 C   0  0  0  0  0  0
  -27.5576  -37.1815   24.8472 C   0  0  0  0  0  0
  -21.4127  -29.3033   22.3739 N   0  0  0  0  0  0
  -26.4274  -37.3808   23.9432 N   0  0  0  0  0  0
  -24.6668  -31.0767   22.1008 N   0  0  0  0  0  0
  -23.4163  -28.8195   23.3035 O   0  0  0  0  0  0
  -28.3785  -26.6517   20.0474 O   0  0  0  0  0  0
  -26.5582  -34.8924   22.4700 O   0  0  0  0  0  0
  -23.5318  -32.1465   23.7472 O   0  0  0  0  0  0
  -29.4605  -23.9123   19.9621 C   0  0  0  0  0  0
  -29.8794  -22.5606   19.9839 C   0  0  0  0  0  0
  -29.2581  -23.7877   22.3571 C   0  0  0  0  0  0
  -29.1530  -24.5558   21.1795 C   0  0  0  0  0  0
  -29.9752  -21.8790   21.2162 C   0  0  0  0  0  0
  -30.0955  -15.2933   22.8295 C   0  0  0  0  0  0
  -28.2632  -19.4862   21.4121 C   0  0  0  0  0  0
  -28.7655  -26.0406   21.2841 C   0  0  0  0  0  0
  -30.5537  -20.4511   21.3280 C   0  0  0  0  0  0
  -29.5892  -16.6922   20.8042 C   0  0  0  0  0  0
  -30.2547  -17.9880   21.3838 C   0  0  0  0  0  0
  -29.6471  -22.4901   22.3789 N   0  0  0  0  0  0
  -30.0818  -15.4067   21.3677 N   0  0  0  0  0  0
  -29.6640  -19.3035   20.9502 N   0  3  1  0  0  0
  -31.4668  -12.4310   19.1126 H   0  0  0  0  0  0
  -30.3375  -11.3026   19.7981 H   0  0  0  0  0  0
  -29.7263  -11.8015   17.4182 H   0  0  0  0  0  0
  -29.6570  -13.5091   17.7701 H   0  0  0  0  0  0
  -27.8191  -11.3206   18.8018 H   0  0  0  0  0  0
  -27.3603  -12.6654   17.7887 H   0  0  0  0  0  0
  -27.7142  -14.2584   19.5971 H   0  0  0  0  0  0
  -28.6802  -11.9206   21.3135 H   0  0  0  0  0  0
  -28.4279  -13.5359   21.8763 H   0  0  0  0  0  0
  -25.2747   -9.5682   22.4744 H   0  0  0  0  0  0
  -23.9981   -7.4645   22.7483 H   0  0  0  0  0  0
  -21.0823   -8.8757   19.8958 H   0  0  0  0  0  0
  -22.3670  -10.9658   19.6156 H   0  0  0  0  0  0
  -21.2011   -7.6146   23.9691 H   0  0  0  0  0  0
  -21.1485   -6.0533   25.9061 H   0  0  0  0  0  0
  -22.0599   -2.7610   23.2837 H   0  0  0  0  0  0
  -22.4108  -11.9869   22.4758 H   0  0  0  0  0  0
  -21.1120  -13.1262   22.2636 H   0  0  0  0  0  0
  -24.6743  -15.8506   20.5191 H   0  0  0  0  0  0
  -26.2894  -15.6168   20.0821 H   0  0  0  0  0  0
  -26.7086  -32.5561   23.1187 H   0  0  0  0  0  0
  -25.0038  -33.9802   25.0488 H   0  0  0  0  0  0
  -22.6904  -31.3047   21.4083 H   0  0  0  0  0  0
  -23.3731  -35.9655   23.3311 H   0  0  0  0  0  0
  -24.3577  -36.8904   22.2060 H   0  0  0  0  0  0
  -23.7204  -37.6520   23.6640 H   0  0  0  0  0  0
  -26.0361  -31.5807   20.5871 H   0  0  0  0  0  0
  -26.8209  -30.8947   21.9826 H   0  0  0  0  0  0
  -28.1026  -29.0881   21.2044 H   0  0  0  0  0  0
  -26.0948  -25.9687   19.0123 H   0  0  0  0  0  0
  -23.9937  -27.2866   19.0320 H   0  0  0  0  0  0
  -23.7269  -30.5899   19.4049 H   0  0  0  0  0  0
  -22.7424  -29.2349   19.8668 H   0  0  0  0  0  0
  -25.1259  -36.1995   25.0848 H   0  0  0  0  0  0
  -20.9978  -28.3188   24.1437 H   0  0  0  0  0  0
  -20.5613  -26.2246   23.3591 H   0  0  0  0  0  0
  -21.6632  -26.7392   22.1234 H   0  0  0  0  0  0
  -19.6866  -25.6288   21.1228 H   0  0  0  0  0  0
  -19.6678  -27.3189   20.6727 H   0  0  0  0  0  0
  -17.4185  -26.6681   21.4029 H   0  0  0  0  0  0
  -18.0335  -26.0033   22.8993 H   0  0  0  0  0  0
  -19.7911  -30.7277   24.2274 H   0  0  0  0  0  0
  -17.4988  -31.6267   24.5172 H   0  0  0  0  0  0
  -15.5337  -30.3000   23.7625 H   0  0  0  0  0  0
  -15.8661  -28.0820   22.7076 H   0  0  0  0  0  0
  -24.5916  -30.7031   25.7840 H   0  0  0  0  0  0
  -24.8919  -32.2876   26.4905 H   0  0  0  0  0  0
  -25.8112  -30.8919   27.0246 H   0  0  0  0  0  0
  -26.2825  -29.6827   24.1120 H   0  0  0  0  0  0
  -27.4041  -29.7257   25.4517 H   0  0  0  0  0  0
  -27.8664  -30.4372   23.9239 H   0  0  0  0  0  0
  -27.2644  -33.3608   26.2076 H   0  0  0  0  0  0
  -28.3839  -32.6871   25.0318 H   0  0  0  0  0  0
  -28.0695  -31.8431   26.5386 H   0  0  0  0  0  0
  -28.2607  -38.0105   24.7530 H   0  0  0  0  0  0
  -28.1049  -36.2636   24.6272 H   0  0  0  0  0  0
  -27.2314  -37.1444   25.8881 H   0  0  0  0  0  0
  -20.9240  -29.8783   21.7026 H   0  0  0  0  0  0
  -26.0163  -38.2883   24.1426 H   0  0  0  0  0  0
  -29.4063  -24.4450   19.0234 H   0  0  0  0  0  0
  -30.1628  -22.0699   19.0626 H   0  0  0  0  0  0
  -29.0462  -24.2344   23.3181 H   0  0  0  0  0  0
  -29.1501  -15.6275   23.2567 H   0  0  0  0  0  0
  -30.9016  -15.8919   23.2536 H   0  0  0  0  0  0
  -30.2576  -14.2659   23.1640 H   0  0  0  0  0  0
  -27.8232  -20.3999   21.0121 H   0  0  0  0  0  0
  -28.2084  -19.5318   22.5004 H   0  0  0  0  0  0
  -27.6105  -18.6830   21.0756 H   0  0  0  0  0  0
  -29.6236  -26.5888   21.6750 H   0  0  0  0  0  0
  -27.9782  -26.1341   22.0352 H   0  0  0  0  0  0
  -30.8792  -20.3106   22.3609 H   0  0  0  0  0  0
  -31.4613  -20.4069   20.7252 H   0  0  0  0  0  0
  -29.7138  -16.6861   19.7192 H   0  0  0  0  0  0
  -28.5133  -16.6980   20.9701 H   0  0  0  0  0  0
  -31.3109  -17.9721   21.1093 H   0  0  0  0  0  0
  -30.2260  -17.9667   22.4727 H   0  0  0  0  0  0
  -29.6357  -19.3136   19.9425 H   0  0  0  0  0  0
  1 25  1  0  0  0
  1 30  2  0  0  0
  1 83  1  0  0  0
  2  3  1  0  0  0
  2 25  1  0  0  0
  2 85  1  0  0  0
  2 86  1  0  0  0
  3  4  1  0  0  0
  3 87  1  0  0  0
  3 88  1  0  0  0
  4  5  1  0  0  0
  4 89  1  0  0  0
  4 90  1  0  0  0
  5  6  1  0  0  0
  5 26  1  0  0  0
  5 91  1  0  0  0
  6 25  1  0  0  0
  6 92  1  0  0  0
  6 93  1  0  0  0
  7  8  2  0  0  0
  7 26  1  0  0  0
  7 29  1  0  0  0
  8  9  1  0  0  0
  8 22  1  0  0  0
  9 10  1  0  0  0
  9 27  2  0  0  0
 10 11  2  0  0  0
 10 15  1  0  0  0
 11 12  1  0  0  0
 11 94  1  0  0  0
 12 13  2  0  0  0
 12 95  1  0  0  0
 13 14  1  0  0  0
 13 31  1  0  0  0
 14 15  2  0  0  0
 14 96  1  0  0  0
 15 97  1  0  0  0
 16 17  2  0  0  0
 16 21  1  0  0  0
 16 31  1  0  0  0
 17 18  1  0  0  0
 17 98  1  0  0  0
 18 19  2  0  0  0
 18 99  1  0  0  0
 19 20  1  0  0  0
 19 24  1  0  0  0
 20 21  2  0  0  0
 20100  1  0  0  0
 21 23  1  0  0  0
 22 28  1  0  0  0
 22 32  2  0  0  0
 26 27  1  0  0  0
 28101  1  0  0  0
 28102  1  0  0  0
 29103  1  0  0  0
 29104  1  0  0  0
 33 34  1  0  0  0
 33 66  1  0  0  0
 33 70  2  0  0  0
 34 36  1  0  0  0
 34 59  1  0  0  0
 34105  1  0  0  0
 35 44  2  0  0  0
 35 45  1  0  0  0
 35 68  1  0  0  0
 36 56  1  0  0  0
 36106  1  0  0  0
 37 39  1  0  0  0
 37 47  1  0  0  0
 37 66  1  0  0  0
 37107  1  0  0  0
 38 43  2  0  0  0
 38 46  1  0  0  0
 38 47  1  0  0  0
 39 64  1  0  0  0
 39 67  2  0  0  0
 40 52  1  0  0  0
 40 53  2  0  0  0
 40 58  1  0  0  0
 41108  1  0  0  0
 41109  1  0  0  0
 41110  1  0  0  0
 41 48  1  0  0  0
 42 43  1  0  0  0
 42 66  1  0  0  0
 42111  1  0  0  0
 42112  1  0  0  0
 43 44  1  0  0  0
 44113  1  0  0  0
 45 46  2  0  0  0
 45114  1  0  0  0
 46115  1  0  0  0
 47116  1  0  0  0
 47117  1  0  0  0
 48 56  1  0  0  0
 48 65  1  0  0  0
 48118  1  0  0  0
 49 50  1  0  0  0
 49 53  1  0  0  0
 49 64  1  0  0  0
 49119  1  0  0  0
 50 51  1  0  0  0
 50120  1  0  0  0
 50121  1  0  0  0
 51 52  1  0  0  0
 51122  1  0  0  0
 51123  1  0  0  0
 52124  1  0  0  0
 52125  1  0  0  0
 53 54  1  0  0  0
 54 55  2  0  0  0
 54126  1  0  0  0
 55 57  1  0  0  0
 55127  1  0  0  0
 56 69  2  0  0  0
 57 58  2  0  0  0
 57128  1  0  0  0
 58129  1  0  0  0
 59 60  1  0  0  0
 59 61  1  0  0  0
 59 62  1  0  0  0
 60130  1  0  0  0
 60131  1  0  0  0
 60132  1  0  0  0
 61133  1  0  0  0
 61134  1  0  0  0
 61135  1  0  0  0
 62136  1  0  0  0
 62137  1  0  0  0
 62138  1  0  0  0
 63 65  1  0  0  0
 63139  1  0  0  0
 63140  1  0  0  0
 63141  1  0  0  0
 64142  1  0  0  0
 65143  1  0  0  0
 68 78  1  0  0  0
 71 72  2  0  0  0
 71 74  1  0  0  0
 71144  1  0  0  0
 72 75  1  0  0  0
 72145  1  0  0  0
 73 74  2  0  0  0
 73 82  1  0  0  0
 73146  1  0  0  0
 74 78  1  0  0  0
 75 79  1  0  0  0
 75 82  2  0  0  0
 76 83  1  0  0  0
 76147  1  0  0  0
 76148  1  0  0  0
 76149  1  0  0  0
 77150  1  0  0  0
 77151  1  0  0  0
 77152  1  0  0  0
 77 84  1  0  0  0
 78153  1  0  0  0
 78154  1  0  0  0
 79 84  1  0  0  0
 79155  1  0  0  0
 79156  1  0  0  0
 80 81  1  0  0  0
 80 83  1  0  0  0
 80157  1  0  0  0
 80158  1  0  0  0
 81 84  1  0  0  0
 81159  1  0  0  0
 81160  1  0  0  0
 84161  1  0  0  0
M  CHG  1  84   1
M  ISO  4   1 100  68 101  78 101  83 100
M  END
> <chiral flag>
0

> <version>
0

> <s_m_source_file>
/data/baiqing/PycharmProjects/Reinvent-master-3.2/result/LINK_invent/BTK/process_docking_weight1_custom_sum_contain_oxygen_bond_distance_aromatic_linkinvent_7_9_3/rearranged_h_0056.sdf

> <i_m_source_file_index>
6

> <r_mmod_Potential_Energy-OPLS-2005>
-191.910873413086

> <r_mmod_Stretch_Energy-OPLS-2005>
44.759162902832

> <r_mmod_Bend_Energy-OPLS-2005>
101.866325378418

> <r_mmod_Torsional_Energy-OPLS-2005>
324.117736816406

> <r_mmod_Improper_Torsional_Energy-OPLS-2005>
3.99450707435608

> <r_mmod_Van_der_Waal_Energy-OPLS-2005>
151.248306274414

> <r_mmod_Electrostatic_Energy-OPLS-2005>
-385.975891113281

> <r_mmod_Solvation_Energy-OPLS-2005>
-442.893737792969

> <b_mmod_Minimization_Converged-OPLS-2005>
0

> <r_mmod_RMS_Derivative-OPLS-2005>
2.64452338218689

$$$$
7
                    3D
 Structure written by MMmdl.
156164  0  0  1  0            999 V2000
  -30.6419  -14.7199   20.5008 C   0  0  0  0  0  0
  -30.4292  -12.4472   19.4792 C   0  0  0  0  0  0
  -29.5118  -12.5140   18.2385 C   0  0  0  0  0  0
  -28.0351  -12.3402   18.6443 C   0  0  0  0  0  0
  -27.6434  -13.2308   19.8538 C   0  0  2  0  0  0
  -28.6832  -13.1329   20.9885 C   0  0  0  0  0  0
  -25.2519  -13.8195   20.5688 C   0  0  0  0  0  0
  -24.1799  -13.0444   20.9185 C   0  0  0  0  0  0
  -24.6390  -11.6918   20.8733 C   0  0  0  0  0  0
  -23.9060  -10.4295   21.0396 C   0  0  0  0  0  0
  -24.3612   -9.4214   21.9172 C   0  0  0  0  0  0
  -23.6294   -8.2247   22.0748 C   0  0  0  0  0  0
  -22.4277   -8.0274   21.3547 C   0  0  0  0  0  0
  -21.9909   -9.0239   20.4647 C   0  0  0  0  0  0
  -22.7231  -10.2128   20.3049 C   0  0  0  0  0  0
  -21.6849   -6.0741   22.5288 C   0  0  0  0  0  0
  -21.4006   -6.5639   23.8219 C   0  0  0  0  0  0
  -21.3666   -5.6793   24.9181 C   0  0  0  0  0  0
  -21.6050   -4.3055   24.7228 C   0  0  0  0  0  0
  -21.8817   -3.8151   23.4348 C   0  0  0  0  0  0
  -21.9188   -4.6969   22.3406 C   0  0  0  0  0  0
  -22.7826  -13.5229   21.1856 C   0  0  0  0  0  0
  -22.1658   -4.2157   21.0984 F   0  0  0  0  0  0
  -21.5633   -3.4540   25.7738 F   0  0  0  0  0  0
  -29.9888  -13.5037   20.4236 N   0  0  0  0  0  0
  -26.2938  -12.9401   20.3272 N   0  0  0  0  0  0
  -25.9317  -11.6546   20.5730 N   0  0  0  0  0  0
  -22.0465  -12.8221   22.0419 N   0  0  0  0  0  0
  -25.4241  -15.1916   20.4144 N   0  0  0  0  0  0
  -31.7989  -14.8014   20.0762 O   0  0  0  0  0  0
  -21.6640   -6.8877   21.4245 O   0  0  0  0  0  0
  -22.3511  -14.5532   20.6701 O   0  0  0  0  0  0
  -24.6307  -31.8566   23.2010 C   0  0  0  0  0  0
  -25.9135  -32.4763   23.8350 C   0  0  1  0  0  0
  -27.2121  -27.2706   20.1300 C   0  0  0  0  0  0
  -25.5932  -33.8564   24.2272 N   0  0  0  0  0  0
  -23.4256  -30.4804   21.5449 C   0  0  2  0  0  0
  -24.8718  -28.9326   20.1111 C   0  0  0  0  0  0
  -22.7495  -29.4602   22.4921 C   0  0  0  0  0  0
  -18.0286  -28.1385   22.8494 C   0  0  0  0  0  0
  -24.1489  -36.7278   23.2639 C   0  0  0  0  0  0
  -25.9718  -30.7722   21.3811 C   0  0  0  0  0  0
  -26.0436  -29.3959   20.7230 C   0  0  0  0  0  0
  -27.2191  -28.5780   20.7215 C   0  0  0  0  0  0
  -26.0241  -26.8856   19.4694 C   0  0  0  0  0  0
  -24.8663  -27.6848   19.4718 C   0  0  0  0  0  0
  -23.6420  -29.8180   20.1603 C   0  0  0  0  0  0
  -25.4119  -36.3074   24.0326 C   0  0  1  0  0  0
  -20.5890  -28.3689   23.1273 C   0  0  2  0  0  0
  -20.6772  -26.9404   22.5404 C   0  0  0  0  0  0
  -19.5739  -26.6386   21.5207 C   0  0  0  0  0  0
  -18.1923  -26.7929   22.1627 C   0  0  0  0  0  0
  -19.1541  -28.8856   23.2878 C   0  0  0  0  0  0
  -18.9459  -30.1462   23.8887 C   0  0  0  0  0  0
  -17.6461  -30.6587   24.0556 C   0  0  0  0  0  0
  -25.9057  -34.9442   23.5101 C   0  0  0  0  0  0
  -16.5350  -29.9086   23.6338 C   0  0  0  0  0  0
  -16.7273  -28.6499   23.0362 C   0  0  0  0  0  0
  -26.4508  -31.6581   25.0728 C   0  0  0  0  0  0
  -25.3739  -31.3718   26.1456 C   0  0  0  0  0  0
  -27.0361  -30.3002   24.6206 C   0  0  0  0  0  0
  -27.6060  -32.4336   25.7494 C   0  0  0  0  0  0
  -27.5578  -37.1799   24.8467 C   0  0  0  0  0  0
  -21.4200  -29.3040   22.3668 N   0  0  0  0  0  0
  -26.4291  -37.3772   23.9405 N   0  0  0  0  0  0
  -24.6947  -31.0541   22.0982 N   0  0  0  0  0  0
  -23.4202  -28.8138   23.3011 O   0  0  0  0  0  0
  -28.2952  -26.3632   20.1702 O   0  0  0  0  0  0
  -26.5620  -34.8913   22.4665 O   0  0  0  0  0  0
  -23.5459  -32.1382   23.7308 O   0  0  0  0  0  0
  -28.7740  -19.5622   20.0514 C   0  0  0  0  0  0
  -29.1921  -20.8617   20.5559 C   0  0  0  0  0  0
  -29.7740  -18.6248   20.3078 C   0  0  0  0  0  0
  -32.0504  -18.9675   21.4032 C   0  0  0  0  0  0
  -29.3693  -16.1514   22.0721 C   0  0  0  0  0  0
  -28.3955  -22.2251   20.6953 C   0  0  0  0  0  0
  -30.0128  -17.1293   19.8457 C   0  0  0  0  0  0
  -28.9466  -23.6730   20.2316 C   0  0  0  0  0  0
  -27.9927  -24.9390   20.5510 C   0  0  0  0  0  0
  -30.3808  -20.7019   21.1273 N   0  0  0  0  0  0
  -30.7378  -19.3899   20.9540 N   0  0  0  0  0  0
  -29.9162  -15.8900   20.7384 N   0  0  0  0  0  0
  -31.4718  -12.5586   19.1785 H   0  0  0  0  0  0
  -30.3677  -11.4649   19.9500 H   0  0  0  0  0  0
  -29.7977  -11.7471   17.5168 H   0  0  0  0  0  0
  -29.6428  -13.4724   17.7343 H   0  0  0  0  0  0
  -27.8849  -11.2890   18.8937 H   0  0  0  0  0  0
  -27.3828  -12.5469   17.7945 H   0  0  0  0  0  0
  -27.6467  -14.2600   19.4926 H   0  0  0  0  0  0
  -28.7160  -12.1194   21.3907 H   0  0  0  0  0  0
  -28.3933  -13.7665   21.8226 H   0  0  0  0  0  0
  -25.2757   -9.5699   22.4744 H   0  0  0  0  0  0
  -24.0010   -7.4646   22.7468 H   0  0  0  0  0  0
  -21.0844   -8.8752   19.8952 H   0  0  0  0  0  0
  -22.3680  -10.9660   19.6153 H   0  0  0  0  0  0
  -21.1992   -7.6146   23.9727 H   0  0  0  0  0  0
  -21.1493   -6.0521   25.9089 H   0  0  0  0  0  0
  -22.0592   -2.7612   23.2842 H   0  0  0  0  0  0
  -22.4072  -11.9891   22.4830 H   0  0  0  0  0  0
  -21.1074  -13.1249   22.2608 H   0  0  0  0  0  0
  -24.6638  -15.8502   20.5391 H   0  0  0  0  0  0
  -26.2865  -15.6333   20.1229 H   0  0  0  0  0  0
  -26.7188  -32.5409   23.1084 H   0  0  0  0  0  0
  -25.0104  -33.9713   25.0435 H   0  0  0  0  0  0
  -22.7215  -31.3026   21.4019 H   0  0  0  0  0  0
  -23.3754  -35.9605   23.3303 H   0  0  0  0  0  0
  -24.3580  -36.8897   22.2050 H   0  0  0  0  0  0
  -23.7234  -37.6479   23.6663 H   0  0  0  0  0  0
  -26.1121  -31.5341   20.6129 H   0  0  0  0  0  0
  -26.8484  -30.8180   22.0150 H   0  0  0  0  0  0
  -28.1140  -28.9268   21.2173 H   0  0  0  0  0  0
  -25.9668  -25.9468   18.9390 H   0  0  0  0  0  0
  -23.9742  -27.3310   18.9731 H   0  0  0  0  0  0
  -23.7622  -30.5959   19.4052 H   0  0  0  0  0  0
  -22.7589  -29.2511   19.8597 H   0  0  0  0  0  0
  -25.1303  -36.1921   25.0817 H   0  0  0  0  0  0
  -20.9992  -28.3254   24.1388 H   0  0  0  0  0  0
  -20.5670  -26.2290   23.3608 H   0  0  0  0  0  0
  -21.6641  -26.7429   22.1189 H   0  0  0  0  0  0
  -19.6900  -25.6297   21.1233 H   0  0  0  0  0  0
  -19.6674  -27.3199   20.6741 H   0  0  0  0  0  0
  -17.4201  -26.6694   21.4025 H   0  0  0  0  0  0
  -18.0305  -26.0071   22.9014 H   0  0  0  0  0  0
  -19.7934  -30.7290   24.2241 H   0  0  0  0  0  0
  -17.5011  -31.6269   24.5159 H   0  0  0  0  0  0
  -15.5349  -30.2977   23.7680 H   0  0  0  0  0  0
  -15.8670  -28.0814   22.7083 H   0  0  0  0  0  0
  -24.5911  -30.7070   25.7785 H   0  0  0  0  0  0
  -24.8939  -32.2882   26.4898 H   0  0  0  0  0  0
  -25.8072  -30.8885   27.0224 H   0  0  0  0  0  0
  -26.2943  -29.6742   24.1240 H   0  0  0  0  0  0
  -27.4053  -29.7272   25.4720 H   0  0  0  0  0  0
  -27.8814  -30.4276   23.9443 H   0  0  0  0  0  0
  -27.2659  -33.3637   26.2064 H   0  0  0  0  0  0
  -28.3872  -32.6904   25.0324 H   0  0  0  0  0  0
  -28.0736  -31.8478   26.5421 H   0  0  0  0  0  0
  -28.2609  -38.0088   24.7520 H   0  0  0  0  0  0
  -28.1073  -36.2623   24.6302 H   0  0  0  0  0  0
  -27.2299  -37.1453   25.8874 H   0  0  0  0  0  0
  -20.9379  -29.8758   21.6876 H   0  0  0  0  0  0
  -26.0171  -38.2844   24.1418 H   0  0  0  0  0  0
  -27.8418  -19.3481   19.5466 H   0  0  0  0  0  0
  -32.0161  -17.9325   21.7457 H   0  0  0  0  0  0
  -32.3981  -19.5953   22.2238 H   0  0  0  0  0  0
  -32.7586  -19.0417   20.5782 H   0  0  0  0  0  0
  -29.7594  -17.0796   22.4879 H   0  0  0  0  0  0
  -29.6277  -15.3706   22.7901 H   0  0  0  0  0  0
  -28.2829  -16.2342   22.0272 H   0  0  0  0  0  0
  -28.1298  -22.3244   21.7476 H   0  0  0  0  0  0
  -27.4360  -22.0894   20.1943 H   0  0  0  0  0  0
  -30.9944  -17.1096   19.3708 H   0  0  0  0  0  0
  -29.3264  -16.9357   19.0214 H   0  0  0  0  0  0
  -29.1420  -23.6435   19.1596 H   0  0  0  0  0  0
  -29.9125  -23.8431   20.7070 H   0  0  0  0  0  0
  -27.8621  -24.9611   21.6333 H   0  0  0  0  0  0
  -27.0135  -24.6448   20.1830 H   0  0  0  0  0  0
  1 25  1  0  0  0
  1 30  2  0  0  0
  1 82  1  0  0  0
  2  3  1  0  0  0
  2 25  1  0  0  0
  2 83  1  0  0  0
  2 84  1  0  0  0
  3  4  1  0  0  0
  3 85  1  0  0  0
  3 86  1  0  0  0
  4  5  1  0  0  0
  4 87  1  0  0  0
  4 88  1  0  0  0
  5  6  1  0  0  0
  5 26  1  0  0  0
  5 89  1  0  0  0
  6 25  1  0  0  0
  6 90  1  0  0  0
  6 91  1  0  0  0
  7  8  2  0  0  0
  7 26  1  0  0  0
  7 29  1  0  0  0
  8  9  1  0  0  0
  8 22  1  0  0  0
  9 10  1  0  0  0
  9 27  2  0  0  0
 10 11  2  0  0  0
 10 15  1  0  0  0
 11 12  1  0  0  0
 11 92  1  0  0  0
 12 13  2  0  0  0
 12 93  1  0  0  0
 13 14  1  0  0  0
 13 31  1  0  0  0
 14 15  2  0  0  0
 14 94  1  0  0  0
 15 95  1  0  0  0
 16 17  2  0  0  0
 16 21  1  0  0  0
 16 31  1  0  0  0
 17 18  1  0  0  0
 17 96  1  0  0  0
 18 19  2  0  0  0
 18 97  1  0  0  0
 19 20  1  0  0  0
 19 24  1  0  0  0
 20 21  2  0  0  0
 20 98  1  0  0  0
 21 23  1  0  0  0
 22 28  1  0  0  0
 22 32  2  0  0  0
 26 27  1  0  0  0
 28 99  1  0  0  0
 28100  1  0  0  0
 29101  1  0  0  0
 29102  1  0  0  0
 33 34  1  0  0  0
 33 66  1  0  0  0
 33 70  2  0  0  0
 34 36  1  0  0  0
 34 59  1  0  0  0
 34103  1  0  0  0
 35 44  2  0  0  0
 35 45  1  0  0  0
 35 68  1  0  0  0
 36 56  1  0  0  0
 36104  1  0  0  0
 37 39  1  0  0  0
 37 47  1  0  0  0
 37 66  1  0  0  0
 37105  1  0  0  0
 38 43  2  0  0  0
 38 46  1  0  0  0
 38 47  1  0  0  0
 39 64  1  0  0  0
 39 67  2  0  0  0
 40 52  1  0  0  0
 40 53  2  0  0  0
 40 58  1  0  0  0
 41106  1  0  0  0
 41107  1  0  0  0
 41108  1  0  0  0
 41 48  1  0  0  0
 42 43  1  0  0  0
 42 66  1  0  0  0
 42109  1  0  0  0
 42110  1  0  0  0
 43 44  1  0  0  0
 44111  1  0  0  0
 45 46  2  0  0  0
 45112  1  0  0  0
 46113  1  0  0  0
 47114  1  0  0  0
 47115  1  0  0  0
 48 56  1  0  0  0
 48 65  1  0  0  0
 48116  1  0  0  0
 49 50  1  0  0  0
 49 53  1  0  0  0
 49 64  1  0  0  0
 49117  1  0  0  0
 50 51  1  0  0  0
 50118  1  0  0  0
 50119  1  0  0  0
 51 52  1  0  0  0
 51120  1  0  0  0
 51121  1  0  0  0
 52122  1  0  0  0
 52123  1  0  0  0
 53 54  1  0  0  0
 54 55  2  0  0  0
 54124  1  0  0  0
 55 57  1  0  0  0
 55125  1  0  0  0
 56 69  2  0  0  0
 57 58  2  0  0  0
 57126  1  0  0  0
 58127  1  0  0  0
 59 60  1  0  0  0
 59 61  1  0  0  0
 59 62  1  0  0  0
 60128  1  0  0  0
 60129  1  0  0  0
 60130  1  0  0  0
 61131  1  0  0  0
 61132  1  0  0  0
 61133  1  0  0  0
 62134  1  0  0  0
 62135  1  0  0  0
 62136  1  0  0  0
 63 65  1  0  0  0
 63137  1  0  0  0
 63138  1  0  0  0
 63139  1  0  0  0
 64140  1  0  0  0
 65141  1  0  0  0
 68 79  1  0  0  0
 71 72  1  0  0  0
 71 73  2  0  0  0
 71142  1  0  0  0
 72 76  1  0  0  0
 72 80  2  0  0  0
 73 77  1  0  0  0
 73 81  1  0  0  0
 74 81  1  0  0  0
 74143  1  0  0  0
 74144  1  0  0  0
 74145  1  0  0  0
 75 82  1  0  0  0
 75146  1  0  0  0
 75147  1  0  0  0
 75148  1  0  0  0
 76 78  1  0  0  0
 76149  1  0  0  0
 76150  1  0  0  0
 77 82  1  0  0  0
 77151  1  0  0  0
 77152  1  0  0  0
 78 79  1  0  0  0
 78153  1  0  0  0
 78154  1  0  0  0
 79155  1  0  0  0
 79156  1  0  0  0
 80 81  1  0  0  0
M  ISO  4   1 100  68 101  79 101  82 100
M  END
> <chiral flag>
0

> <version>
0

> <s_m_source_file>
/data/baiqing/PycharmProjects/Reinvent-master-3.2/result/LINK_invent/BTK/process_docking_weight1_custom_sum_contain_oxygen_bond_distance_aromatic_linkinvent_7_9_3/rearranged_h_0056.sdf

> <i_m_source_file_index>
7

> <r_mmod_Potential_Energy-OPLS-2005>
186.572692871094

> <r_mmod_Stretch_Energy-OPLS-2005>
115.707443237305

> <r_mmod_Bend_Energy-OPLS-2005>
174.554550170898

> <r_mmod_Torsional_Energy-OPLS-2005>
273.201995849609

> <r_mmod_Improper_Torsional_Energy-OPLS-2005>
10.4864568710327

> <r_mmod_Van_der_Waal_Energy-OPLS-2005>
119.535453796387

> <r_mmod_Electrostatic_Energy-OPLS-2005>
-373.142883300781

> <r_mmod_Solvation_Energy-OPLS-2005>
-209.12060546875

> <b_mmod_Minimization_Converged-OPLS-2005>
0

> <r_mmod_RMS_Derivative-OPLS-2005>
1.39265441894531

$$$$
8
                    3D
 Structure written by MMmdl.
157165  0  0  1  0            999 V2000
  -30.5812  -15.0359   20.4165 C   0  0  0  0  0  0
  -30.4140  -12.6488   19.5332 C   0  0  0  0  0  0
  -29.5195  -12.5452   18.2781 C   0  0  0  0  0  0
  -28.0659  -12.3021   18.7064 C   0  0  0  0  0  0
  -27.6186  -13.2662   19.8352 C   0  0  2  0  0  0
  -28.6498  -13.3811   20.9809 C   0  0  0  0  0  0
  -25.2378  -13.8259   20.5712 C   0  0  0  0  0  0
  -24.1718  -13.0455   20.9238 C   0  0  0  0  0  0
  -24.6364  -11.6951   20.8776 C   0  0  0  0  0  0
  -23.9064  -10.4304   21.0436 C   0  0  0  0  0  0
  -24.3621   -9.4211   21.9204 C   0  0  0  0  0  0
  -23.6277   -8.2260   22.0765 C   0  0  0  0  0  0
  -22.4261   -8.0296   21.3563 C   0  0  0  0  0  0
  -21.9897   -9.0270   20.4670 C   0  0  0  0  0  0
  -22.7237  -10.2148   20.3073 C   0  0  0  0  0  0
  -21.6863   -6.0739   22.5291 C   0  0  0  0  0  0
  -21.4019   -6.5637   23.8227 C   0  0  0  0  0  0
  -21.3645   -5.6782   24.9176 C   0  0  0  0  0  0
  -21.6034   -4.3047   24.7225 C   0  0  0  0  0  0
  -21.8810   -3.8138   23.4342 C   0  0  0  0  0  0
  -21.9182   -4.6961   22.3399 C   0  0  0  0  0  0
  -22.7735  -13.5216   21.1874 C   0  0  0  0  0  0
  -22.1660   -4.2150   21.0978 F   0  0  0  0  0  0
  -21.5618   -3.4524   25.7733 F   0  0  0  0  0  0
  -29.9217  -13.7930   20.3760 N   0  0  0  0  0  0
  -26.2818  -12.9532   20.3243 N   0  0  0  0  0  0
  -25.9299  -11.6654   20.5745 N   0  0  0  0  0  0
  -22.0377  -12.8221   22.0445 N   0  0  0  0  0  0
  -25.4022  -15.1988   20.4111 N   0  0  0  0  0  0
  -31.7692  -14.9721   20.0655 O   0  0  0  0  0  0
  -21.6623   -6.8894   21.4256 O   0  0  0  0  0  0
  -22.3426  -14.5514   20.6687 O   0  0  0  0  0  0
  -24.6497  -31.8374   23.1822 C   0  0  0  0  0  0
  -25.9256  -32.4639   23.8231 C   0  0  1  0  0  0
  -27.1983  -27.0608   20.1586 C   0  0  0  0  0  0
  -25.5988  -33.8455   24.2144 N   0  0  0  0  0  0
  -23.4550  -30.4566   21.5275 C   0  0  2  0  0  0
  -24.9013  -28.8727   20.1027 C   0  0  0  0  0  0
  -22.7595  -29.4513   22.4813 C   0  0  0  0  0  0
  -18.0315  -28.1389   22.8458 C   0  0  0  0  0  0
  -24.1505  -36.7245   23.2639 C   0  0  0  0  0  0
  -26.0153  -30.6842   21.3942 C   0  0  0  0  0  0
  -26.0777  -29.2884   20.7371 C   0  0  0  0  0  0
  -27.2219  -28.3959   20.7538 C   0  0  0  0  0  0
  -26.0046  -26.7745   19.4614 C   0  0  0  0  0  0
  -24.8816  -27.6323   19.4484 C   0  0  0  0  0  0
  -23.6849  -29.7874   20.1454 C   0  0  0  0  0  0
  -25.4137  -36.2996   24.0296 C   0  0  1  0  0  0
  -20.5923  -28.3735   23.1211 C   0  0  2  0  0  0
  -20.6805  -26.9435   22.5396 C   0  0  0  0  0  0
  -19.5785  -26.6372   21.5204 C   0  0  0  0  0  0
  -18.1958  -26.7926   22.1602 C   0  0  0  0  0  0
  -19.1567  -28.8878   23.2825 C   0  0  0  0  0  0
  -18.9491  -30.1463   23.8865 C   0  0  0  0  0  0
  -17.6490  -30.6580   24.0557 C   0  0  0  0  0  0
  -25.9090  -34.9375   23.5022 C   0  0  0  0  0  0
  -16.5380  -29.9077   23.6326 C   0  0  0  0  0  0
  -16.7300  -28.6489   23.0355 C   0  0  0  0  0  0
  -26.4558  -31.6538   25.0702 C   0  0  0  0  0  0
  -25.3724  -31.3776   26.1392 C   0  0  0  0  0  0
  -27.0425  -30.2909   24.6341 C   0  0  0  0  0  0
  -27.6066  -32.4322   25.7504 C   0  0  0  0  0  0
  -27.5575  -37.1780   24.8459 C   0  0  0  0  0  0
  -21.4276  -29.3049   22.3576 N   0  0  0  0  0  0
  -26.4293  -37.3718   23.9392 N   0  0  0  0  0  0
  -24.7260  -31.0170   22.0884 N   0  0  0  0  0  0
  -23.4205  -28.8069   23.2997 O   0  0  0  0  0  0
  -28.2236  -26.0308   20.2744 O   0  0  0  0  0  0
  -26.5676  -34.8887   22.4600 O   0  0  0  0  0  0
  -23.5602  -32.1300   23.6991 O   0  0  0  0  0  0
  -29.5770  -21.5037   18.7223 C   0  0  0  0  0  0
  -30.0638  -20.2865   18.2056 C   0  0  0  0  0  0
  -28.9880  -21.5435   19.9938 C   0  0  0  0  0  0
  -29.3765  -19.0454   20.0436 C   0  0  0  0  0  0
  -30.7287  -20.2358   16.8436 C   0  0  0  0  0  0
  -27.8968  -17.4458   21.4906 C   0  0  0  0  0  0
  -31.0692  -16.9485   21.8130 C   0  0  0  0  0  0
  -28.6559  -23.0601   20.6459 C   0  0  0  0  0  0
  -28.0938  -24.4950   19.8680 C   0  0  0  0  0  0
  -29.0635  -17.4547   20.4894 C   0  0  2  0  0  0
  -29.9698  -19.1080   18.8592 N   0  0  0  0  0  0
  -28.8995  -20.2509   20.6244 N   0  0  0  0  0  0
  -30.0923  -16.3040   20.9180 N   0  0  0  0  0  0
  -31.4520  -12.7653   19.2218 H   0  0  0  0  0  0
  -30.3918  -11.7166   20.1031 H   0  0  0  0  0  0
  -29.8607  -11.7408   17.6264 H   0  0  0  0  0  0
  -29.5928  -13.4647   17.6922 H   0  0  0  0  0  0
  -28.0063  -11.2733   19.0658 H   0  0  0  0  0  0
  -27.3936  -12.3692   17.8510 H   0  0  0  0  0  0
  -27.5592  -14.2460   19.3642 H   0  0  0  0  0  0
  -28.7531  -12.4373   21.5164 H   0  0  0  0  0  0
  -28.3226  -14.1263   21.7077 H   0  0  0  0  0  0
  -25.2783   -9.5657   22.4774 H   0  0  0  0  0  0
  -23.9984   -7.4624   22.7456 H   0  0  0  0  0  0
  -21.0835   -8.8777   19.8965 H   0  0  0  0  0  0
  -22.3705  -10.9678   19.6158 H   0  0  0  0  0  0
  -21.2046   -7.6151   23.9724 H   0  0  0  0  0  0
  -21.1470   -6.0521   25.9085 H   0  0  0  0  0  0
  -22.0601   -2.7599   23.2836 H   0  0  0  0  0  0
  -22.3970  -11.9910   22.4912 H   0  0  0  0  0  0
  -21.1005  -13.1303   22.2642 H   0  0  0  0  0  0
  -24.6316  -15.8491   20.5158 H   0  0  0  0  0  0
  -26.2464  -15.6367   20.0670 H   0  0  0  0  0  0
  -26.7319  -32.5217   23.0948 H   0  0  0  0  0  0
  -25.0165  -33.9563   25.0310 H   0  0  0  0  0  0
  -22.7591  -31.2835   21.3703 H   0  0  0  0  0  0
  -23.3747  -35.9598   23.3282 H   0  0  0  0  0  0
  -24.3602  -36.8900   22.2060 H   0  0  0  0  0  0
  -23.7286  -37.6441   23.6703 H   0  0  0  0  0  0
  -26.1863  -31.4320   20.6184 H   0  0  0  0  0  0
  -26.8799  -30.7322   22.0443 H   0  0  0  0  0  0
  -28.1101  -28.7031   21.2877 H   0  0  0  0  0  0
  -25.8920  -25.8413   18.9322 H   0  0  0  0  0  0
  -23.9878  -27.3147   18.9281 H   0  0  0  0  0  0
  -23.8355  -30.5630   19.3934 H   0  0  0  0  0  0
  -22.7946  -29.2401   19.8291 H   0  0  0  0  0  0
  -25.1325  -36.1808   25.0788 H   0  0  0  0  0  0
  -21.0009  -28.3345   24.1337 H   0  0  0  0  0  0
  -20.5692  -26.2368   23.3626 H   0  0  0  0  0  0
  -21.6680  -26.7439   22.1213 H   0  0  0  0  0  0
  -19.6966  -25.6270   21.1269 H   0  0  0  0  0  0
  -19.6715  -27.3148   20.6703 H   0  0  0  0  0  0
  -17.4234  -26.6658   21.4000 H   0  0  0  0  0  0
  -18.0357  -26.0070   22.8996 H   0  0  0  0  0  0
  -19.7970  -30.7281   24.2226 H   0  0  0  0  0  0
  -17.5047  -31.6254   24.5166 H   0  0  0  0  0  0
  -15.5383  -30.2981   23.7651 H   0  0  0  0  0  0
  -15.8697  -28.0792   22.7108 H   0  0  0  0  0  0
  -24.5911  -30.7102   25.7738 H   0  0  0  0  0  0
  -24.8917  -32.2982   26.4707 H   0  0  0  0  0  0
  -25.8005  -30.9040   27.0229 H   0  0  0  0  0  0
  -26.3053  -29.6606   24.1350 H   0  0  0  0  0  0
  -27.4007  -29.7248   25.4946 H   0  0  0  0  0  0
  -27.8981  -30.4107   23.9691 H   0  0  0  0  0  0
  -27.2632  -33.3643   26.2003 H   0  0  0  0  0  0
  -28.3933  -32.6835   25.0379 H   0  0  0  0  0  0
  -28.0668  -31.8495   26.5492 H   0  0  0  0  0  0
  -28.2571  -38.0094   24.7478 H   0  0  0  0  0  0
  -28.1085  -36.2607   24.6303 H   0  0  0  0  0  0
  -27.2294  -37.1452   25.8867 H   0  0  0  0  0  0
  -20.9500  -29.8778   21.6754 H   0  0  0  0  0  0
  -26.0131  -38.2781   24.1381 H   0  0  0  0  0  0
  -29.6978  -22.4165   18.1533 H   0  0  0  0  0  0
  -31.3664  -21.1066   16.6932 H   0  0  0  0  0  0
  -29.9751  -20.2246   16.0542 H   0  0  0  0  0  0
  -31.3467  -19.3438   16.7326 H   0  0  0  0  0  0
  -27.0361  -17.9827   21.0923 H   0  0  0  0  0  0
  -28.1823  -17.9332   22.4230 H   0  0  0  0  0  0
  -27.5730  -16.4355   21.7300 H   0  0  0  0  0  0
  -30.6828  -17.8563   22.2782 H   0  0  0  0  0  0
  -31.9684  -17.2348   21.2674 H   0  0  0  0  0  0
  -31.3605  -16.2801   22.6261 H   0  0  0  0  0  0
  -29.6075  -23.3436   21.0962 H   0  0  0  0  0  0
  -27.9994  -22.8816   21.4971 H   0  0  0  0  0  0
  -27.0418  -24.2893   19.6825 H   0  0  0  0  0  0
  -28.5485  -24.4759   18.8773 H   0  0  0  0  0  0
  -28.6396  -17.0373   19.5763 H   0  0  0  0  0  0
  1 25  1  0  0  0
  1 30  2  0  0  0
  1 83  1  0  0  0
  2  3  1  0  0  0
  2 25  1  0  0  0
  2 84  1  0  0  0
  2 85  1  0  0  0
  3  4  1  0  0  0
  3 86  1  0  0  0
  3 87  1  0  0  0
  4  5  1  0  0  0
  4 88  1  0  0  0
  4 89  1  0  0  0
  5  6  1  0  0  0
  5 26  1  0  0  0
  5 90  1  0  0  0
  6 25  1  0  0  0
  6 91  1  0  0  0
  6 92  1  0  0  0
  7  8  2  0  0  0
  7 26  1  0  0  0
  7 29  1  0  0  0
  8  9  1  0  0  0
  8 22  1  0  0  0
  9 10  1  0  0  0
  9 27  2  0  0  0
 10 11  2  0  0  0
 10 15  1  0  0  0
 11 12  1  0  0  0
 11 93  1  0  0  0
 12 13  2  0  0  0
 12 94  1  0  0  0
 13 14  1  0  0  0
 13 31  1  0  0  0
 14 15  2  0  0  0
 14 95  1  0  0  0
 15 96  1  0  0  0
 16 17  2  0  0  0
 16 21  1  0  0  0
 16 31  1  0  0  0
 17 18  1  0  0  0
 17 97  1  0  0  0
 18 19  2  0  0  0
 18 98  1  0  0  0
 19 20  1  0  0  0
 19 24  1  0  0  0
 20 21  2  0  0  0
 20 99  1  0  0  0
 21 23  1  0  0  0
 22 28  1  0  0  0
 22 32  2  0  0  0
 26 27  1  0  0  0
 28100  1  0  0  0
 28101  1  0  0  0
 29102  1  0  0  0
 29103  1  0  0  0
 33 34  1  0  0  0
 33 66  1  0  0  0
 33 70  2  0  0  0
 34 36  1  0  0  0
 34 59  1  0  0  0
 34104  1  0  0  0
 35 44  2  0  0  0
 35 45  1  0  0  0
 35 68  1  0  0  0
 36 56  1  0  0  0
 36105  1  0  0  0
 37 39  1  0  0  0
 37 47  1  0  0  0
 37 66  1  0  0  0
 37106  1  0  0  0
 38 43  2  0  0  0
 38 46  1  0  0  0
 38 47  1  0  0  0
 39 64  1  0  0  0
 39 67  2  0  0  0
 40 52  1  0  0  0
 40 53  2  0  0  0
 40 58  1  0  0  0
 41107  1  0  0  0
 41108  1  0  0  0
 41109  1  0  0  0
 41 48  1  0  0  0
 42 43  1  0  0  0
 42 66  1  0  0  0
 42110  1  0  0  0
 42111  1  0  0  0
 43 44  1  0  0  0
 44112  1  0  0  0
 45 46  2  0  0  0
 45113  1  0  0  0
 46114  1  0  0  0
 47115  1  0  0  0
 47116  1  0  0  0
 48 56  1  0  0  0
 48 65  1  0  0  0
 48117  1  0  0  0
 49 50  1  0  0  0
 49 53  1  0  0  0
 49 64  1  0  0  0
 49118  1  0  0  0
 50 51  1  0  0  0
 50119  1  0  0  0
 50120  1  0  0  0
 51 52  1  0  0  0
 51121  1  0  0  0
 51122  1  0  0  0
 52123  1  0  0  0
 52124  1  0  0  0
 53 54  1  0  0  0
 54 55  2  0  0  0
 54125  1  0  0  0
 55 57  1  0  0  0
 55126  1  0  0  0
 56 69  2  0  0  0
 57 58  2  0  0  0
 57127  1  0  0  0
 58128  1  0  0  0
 59 60  1  0  0  0
 59 61  1  0  0  0
 59 62  1  0  0  0
 60129  1  0  0  0
 60130  1  0  0  0
 60131  1  0  0  0
 61132  1  0  0  0
 61133  1  0  0  0
 61134  1  0  0  0
 62135  1  0  0  0
 62136  1  0  0  0
 62137  1  0  0  0
 63 65  1  0  0  0
 63138  1  0  0  0
 63139  1  0  0  0
 63140  1  0  0  0
 64141  1  0  0  0
 65142  1  0  0  0
 68 79  1  0  0  0
 71 72  2  0  0  0
 71 73  1  0  0  0
 71143  1  0  0  0
 72 75  1  0  0  0
 72 81  1  0  0  0
 73 78  1  0  0  0
 73 82  2  0  0  0
 74 80  1  0  0  0
 74 81  2  0  0  0
 74 82  1  0  0  0
 75144  1  0  0  0
 75145  1  0  0  0
 75146  1  0  0  0
 76147  1  0  0  0
 76148  1  0  0  0
 76149  1  0  0  0
 76 80  1  0  0  0
 77 83  1  0  0  0
 77150  1  0  0  0
 77151  1  0  0  0
 77152  1  0  0  0
 78 79  1  0  0  0
 78153  1  0  0  0
 78154  1  0  0  0
 79155  1  0  0  0
 79156  1  0  0  0
 80 83  1  0  0  0
 80157  1  0  0  0
M  ISO  4   1 100  68 101  79 101  83 100
M  END
> <chiral flag>
0

> <version>
0

> <s_m_source_file>
/data/baiqing/PycharmProjects/Reinvent-master-3.2/result/LINK_invent/BTK/process_docking_weight1_custom_sum_contain_oxygen_bond_distance_aromatic_linkinvent_7_9_3/rearranged_h_0056.sdf

> <i_m_source_file_index>
8

> <r_mmod_Potential_Energy-OPLS-2005>
410.836273193359

> <r_mmod_Stretch_Energy-OPLS-2005>
345.717071533203

> <r_mmod_Bend_Energy-OPLS-2005>
367.308929443359

> <r_mmod_Torsional_Energy-OPLS-2005>
284.099731445312

> <r_mmod_Improper_Torsional_Energy-OPLS-2005>
6.48306083679199

> <r_mmod_Van_der_Waal_Energy-OPLS-2005>
137.142990112305

> <r_mmod_Electrostatic_Energy-OPLS-2005>
-762.961853027344

> <r_mmod_Solvation_Energy-OPLS-2005>
-229.691329956055

> <b_mmod_Minimization_Converged-OPLS-2005>
0

> <r_mmod_RMS_Derivative-OPLS-2005>
3.41278100013733

$$$$
9
                    3D
 Structure written by MMmdl.
154162  0  0  1  0            999 V2000
  -30.5486  -15.0518   20.4060 C   0  0  0  0  0  0
  -30.4602  -12.6515   19.5403 C   0  0  0  0  0  0
  -29.5599  -12.5041   18.2922 C   0  0  0  0  0  0
  -28.0951  -12.2630   18.7081 C   0  0  0  0  0  0
  -27.6346  -13.2373   19.8228 C   0  0  2  0  0  0
  -28.6683  -13.3138   20.9692 C   0  0  0  0  0  0
  -25.2551  -13.8138   20.5617 C   0  0  0  0  0  0
  -24.1840  -13.0389   20.9175 C   0  0  0  0  0  0
  -24.6417  -11.6885   20.8674 C   0  0  0  0  0  0
  -23.9081  -10.4268   21.0400 C   0  0  0  0  0  0
  -24.3630   -9.4176   21.9161 C   0  0  0  0  0  0
  -23.6291   -8.2219   22.0734 C   0  0  0  0  0  0
  -22.4270   -8.0273   21.3528 C   0  0  0  0  0  0
  -21.9921   -9.0245   20.4630 C   0  0  0  0  0  0
  -22.7259  -10.2122   20.3049 C   0  0  0  0  0  0
  -21.6848   -6.0768   22.5286 C   0  0  0  0  0  0
  -21.4003   -6.5657   23.8219 C   0  0  0  0  0  0
  -21.3656   -5.6803   24.9165 C   0  0  0  0  0  0
  -21.6055   -4.3058   24.7213 C   0  0  0  0  0  0
  -21.8804   -3.8171   23.4314 C   0  0  0  0  0  0
  -21.9176   -4.7007   22.3382 C   0  0  0  0  0  0
  -22.7897  -13.5233   21.1806 C   0  0  0  0  0  0
  -22.1655   -4.2202   21.0956 F   0  0  0  0  0  0
  -21.5620   -3.4537   25.7712 F   0  0  0  0  0  0
  -29.9350  -13.7812   20.3764 N   0  0  0  0  0  0
  -26.2926  -12.9323   20.3094 N   0  0  0  0  0  0
  -25.9330  -11.6478   20.5599 N   0  0  0  0  0  0
  -22.0525  -12.8242   22.0381 N   0  0  0  0  0  0
  -25.4272  -15.1829   20.4006 N   0  0  0  0  0  0
  -31.7353  -15.0620   20.0600 O   0  0  0  0  0  0
  -21.6610   -6.8896   21.4244 O   0  0  0  0  0  0
  -22.3604  -14.5538   20.6651 O   0  0  0  0  0  0
  -24.6461  -31.8313   23.1774 C   0  0  0  0  0  0
  -25.9203  -32.4625   23.8222 C   0  0  1  0  0  0
  -27.2578  -27.0762   20.1527 C   0  0  0  0  0  0
  -25.5942  -33.8454   24.2125 N   0  0  0  0  0  0
  -23.4592  -30.4394   21.5218 C   0  0  2  0  0  0
  -24.9187  -28.8477   20.1064 C   0  0  0  0  0  0
  -22.7601  -29.4459   22.4813 C   0  0  0  0  0  0
  -18.0286  -28.1392   22.8434 C   0  0  0  0  0  0
  -24.1494  -36.7219   23.2665 C   0  0  0  0  0  0
  -26.0178  -30.6770   21.3959 C   0  0  0  0  0  0
  -26.0904  -29.2840   20.7357 C   0  0  0  0  0  0
  -27.2479  -28.4099   20.7473 C   0  0  0  0  0  0
  -26.0554  -26.7417   19.4910 C   0  0  0  0  0  0
  -24.9154  -27.5883   19.4772 C   0  0  0  0  0  0
  -23.6907  -29.7537   20.1455 C   0  0  0  0  0  0
  -25.4143  -36.2999   24.0312 C   0  0  1  0  0  0
  -20.5913  -28.3699   23.1203 C   0  0  2  0  0  0
  -20.6759  -26.9392   22.5411 C   0  0  0  0  0  0
  -19.5752  -26.6346   21.5201 C   0  0  0  0  0  0
  -18.1917  -26.7910   22.1594 C   0  0  0  0  0  0
  -19.1548  -28.8867   23.2790 C   0  0  0  0  0  0
  -18.9469  -30.1460   23.8821 C   0  0  0  0  0  0
  -17.6472  -30.6576   24.0535 C   0  0  0  0  0  0
  -25.9088  -34.9375   23.5033 C   0  0  0  0  0  0
  -16.5355  -29.9049   23.6377 C   0  0  0  0  0  0
  -16.7265  -28.6486   23.0355 C   0  0  0  0  0  0
  -26.4509  -31.6564   25.0735 C   0  0  0  0  0  0
  -25.3666  -31.3784   26.1415 C   0  0  0  0  0  0
  -27.0435  -30.2960   24.6444 C   0  0  0  0  0  0
  -27.5994  -32.4408   25.7482 C   0  0  0  0  0  0
  -27.5582  -37.1773   24.8473 C   0  0  0  0  0  0
  -21.4266  -29.3009   22.3575 N   0  0  0  0  0  0
  -26.4293  -37.3728   23.9418 N   0  0  0  0  0  0
  -24.7275  -31.0084   22.0862 N   0  0  0  0  0  0
  -23.4199  -28.8032   23.3024 O   0  0  0  0  0  0
  -28.3446  -26.1094   20.2714 O   0  0  0  0  0  0
  -26.5691  -34.8885   22.4627 O   0  0  0  0  0  0
  -23.5569  -32.1267   23.6931 O   0  0  0  0  0  0
  -30.6523  -21.5141   19.7881 C   0  0  0  0  0  0
  -29.3284  -21.6723   20.1415 C   0  0  0  0  0  0
  -29.9584  -19.3089   19.9630 C   0  0  0  0  0  0
  -32.3370  -19.7381   19.2564 C   0  0  0  0  0  0
  -28.8874  -16.4772   21.6324 C   0  0  0  0  0  0
  -28.5058  -23.0808   20.5219 C   0  0  0  0  0  0
  -29.9755  -17.6425   19.6284 C   0  0  0  0  0  0
  -28.5165  -24.6181   19.7378 C   0  0  0  0  0  0
  -30.9899  -20.1628   19.6816 N   0  0  0  0  0  0
  -28.9588  -20.2620   20.2377 N   0  3  0  0  0  0
  -29.8361  -16.3127   20.5243 N   0  0  0  0  0  0
  -31.4907  -12.8222   19.2237 H   0  0  0  0  0  0
  -30.4906  -11.7274   20.1198 H   0  0  0  0  0  0
  -29.9155  -11.6741   17.6810 H   0  0  0  0  0  0
  -29.6360  -13.4049   17.6793 H   0  0  0  0  0  0
  -28.0433  -11.2416   19.0841 H   0  0  0  0  0  0
  -27.4359  -12.2949   17.8394 H   0  0  0  0  0  0
  -27.5798  -14.2199   19.3503 H   0  0  0  0  0  0
  -28.7809  -12.3448   21.4536 H   0  0  0  0  0  0
  -28.3205  -13.9649   21.7639 H   0  0  0  0  0  0
  -25.2793   -9.5627   22.4710 H   0  0  0  0  0  0
  -24.0009   -7.4617   22.7451 H   0  0  0  0  0  0
  -21.0853   -8.8756   19.8938 H   0  0  0  0  0  0
  -22.3723  -10.9653   19.6147 H   0  0  0  0  0  0
  -21.1998   -7.6175   23.9739 H   0  0  0  0  0  0
  -21.1497   -6.0526   25.9075 H   0  0  0  0  0  0
  -22.0586   -2.7649   23.2778 H   0  0  0  0  0  0
  -22.4187  -11.9989   22.4889 H   0  0  0  0  0  0
  -21.1113  -13.1260   22.2440 H   0  0  0  0  0  0
  -24.6617  -15.8379   20.5078 H   0  0  0  0  0  0
  -26.2662  -15.6120   20.0326 H   0  0  0  0  0  0
  -26.7250  -32.5184   23.0924 H   0  0  0  0  0  0
  -25.0123  -33.9601   25.0285 H   0  0  0  0  0  0
  -22.7681  -31.2689   21.3591 H   0  0  0  0  0  0
  -23.3782  -35.9511   23.3280 H   0  0  0  0  0  0
  -24.3587  -36.8915   22.2096 H   0  0  0  0  0  0
  -23.7209  -37.6388   23.6721 H   0  0  0  0  0  0
  -26.2005  -31.4257   20.6251 H   0  0  0  0  0  0
  -26.8757  -30.7151   22.0571 H   0  0  0  0  0  0
  -28.1279  -28.7354   21.2842 H   0  0  0  0  0  0
  -25.9770  -25.7764   19.0149 H   0  0  0  0  0  0
  -24.0203  -27.2398   18.9806 H   0  0  0  0  0  0
  -23.8198  -30.5244   19.3853 H   0  0  0  0  0  0
  -22.8057  -29.1892   19.8418 H   0  0  0  0  0  0
  -25.1315  -36.1817   25.0795 H   0  0  0  0  0  0
  -20.9969  -28.3268   24.1337 H   0  0  0  0  0  0
  -20.5616  -26.2315   23.3643 H   0  0  0  0  0  0
  -21.6617  -26.7349   22.1247 H   0  0  0  0  0  0
  -19.6912  -25.6239   21.1274 H   0  0  0  0  0  0
  -19.6716  -27.3100   20.6699 H   0  0  0  0  0  0
  -17.4210  -26.6638   21.3989 H   0  0  0  0  0  0
  -18.0298  -26.0065   22.9014 H   0  0  0  0  0  0
  -19.7955  -30.7268   24.2168 H   0  0  0  0  0  0
  -17.5034  -31.6262   24.5105 H   0  0  0  0  0  0
  -15.5356  -30.2917   23.7761 H   0  0  0  0  0  0
  -15.8667  -28.0779   22.7120 H   0  0  0  0  0  0
  -24.5768  -30.7248   25.7709 H   0  0  0  0  0  0
  -24.8975  -32.2988   26.4894 H   0  0  0  0  0  0
  -25.7915  -30.8886   27.0180 H   0  0  0  0  0  0
  -26.3106  -29.6659   24.1424 H   0  0  0  0  0  0
  -27.3960  -29.7322   25.5094 H   0  0  0  0  0  0
  -27.9010  -30.4221   23.9834 H   0  0  0  0  0  0
  -27.2528  -33.3704   26.1978 H   0  0  0  0  0  0
  -28.3762  -32.7029   25.0295 H   0  0  0  0  0  0
  -28.0684  -31.8663   26.5474 H   0  0  0  0  0  0
  -28.2563  -38.0115   24.7538 H   0  0  0  0  0  0
  -28.1100  -36.2644   24.6205 H   0  0  0  0  0  0
  -27.2306  -37.1267   25.8880 H   0  0  0  0  0  0
  -20.9480  -29.8758   21.6771 H   0  0  0  0  0  0
  -26.0142  -38.2778   24.1447 H   0  0  0  0  0  0
  -31.3890  -22.2880   19.6085 H   0  0  0  0  0  0
  -32.9021  -19.3777   20.1138 H   0  0  0  0  0  0
  -32.8628  -20.5950   18.8257 H   0  0  0  0  0  0
  -32.2861  -18.9761   18.4832 H   0  0  0  0  0  0
  -29.3038  -16.0723   22.5585 H   0  0  0  0  0  0
  -28.6418  -17.5256   21.8050 H   0  0  0  0  0  0
  -27.9418  -15.9675   21.4420 H   0  0  0  0  0  0
  -28.8105  -23.2917   21.5472 H   0  0  0  0  0  0
  -27.4590  -22.8013   20.6204 H   0  0  0  0  0  0
  -30.8695  -17.4703   19.0315 H   0  0  0  0  0  0
  -29.1748  -17.5526   18.8914 H   0  0  0  0  0  0
  -29.5448  -24.6641   19.3709 H   0  0  0  0  0  0
  -27.9301  -24.5246   18.8260 H   0  0  0  0  0  0
  -28.0144  -19.9720   20.4586 H   0  0  0  0  0  0
  1 25  1  0  0  0
  1 30  2  0  0  0
  1 81  1  0  0  0
  2  3  1  0  0  0
  2 25  1  0  0  0
  2 82  1  0  0  0
  2 83  1  0  0  0
  3  4  1  0  0  0
  3 84  1  0  0  0
  3 85  1  0  0  0
  4  5  1  0  0  0
  4 86  1  0  0  0
  4 87  1  0  0  0
  5  6  1  0  0  0
  5 26  1  0  0  0
  5 88  1  0  0  0
  6 25  1  0  0  0
  6 89  1  0  0  0
  6 90  1  0  0  0
  7  8  2  0  0  0
  7 26  1  0  0  0
  7 29  1  0  0  0
  8  9  1  0  0  0
  8 22  1  0  0  0
  9 10  1  0  0  0
  9 27  2  0  0  0
 10 11  2  0  0  0
 10 15  1  0  0  0
 11 12  1  0  0  0
 11 91  1  0  0  0
 12 13  2  0  0  0
 12 92  1  0  0  0
 13 14  1  0  0  0
 13 31  1  0  0  0
 14 15  2  0  0  0
 14 93  1  0  0  0
 15 94  1  0  0  0
 16 17  2  0  0  0
 16 21  1  0  0  0
 16 31  1  0  0  0
 17 18  1  0  0  0
 17 95  1  0  0  0
 18 19  2  0  0  0
 18 96  1  0  0  0
 19 20  1  0  0  0
 19 24  1  0  0  0
 20 21  2  0  0  0
 20 97  1  0  0  0
 21 23  1  0  0  0
 22 28  1  0  0  0
 22 32  2  0  0  0
 26 27  1  0  0  0
 28 98  1  0  0  0
 28 99  1  0  0  0
 29100  1  0  0  0
 29101  1  0  0  0
 33 34  1  0  0  0
 33 66  1  0  0  0
 33 70  2  0  0  0
 34 36  1  0  0  0
 34 59  1  0  0  0
 34102  1  0  0  0
 35 44  2  0  0  0
 35 45  1  0  0  0
 35 68  1  0  0  0
 36 56  1  0  0  0
 36103  1  0  0  0
 37 39  1  0  0  0
 37 47  1  0  0  0
 37 66  1  0  0  0
 37104  1  0  0  0
 38 43  2  0  0  0
 38 46  1  0  0  0
 38 47  1  0  0  0
 39 64  1  0  0  0
 39 67  2  0  0  0
 40 52  1  0  0  0
 40 53  2  0  0  0
 40 58  1  0  0  0
 41105  1  0  0  0
 41106  1  0  0  0
 41107  1  0  0  0
 41 48  1  0  0  0
 42 43  1  0  0  0
 42 66  1  0  0  0
 42108  1  0  0  0
 42109  1  0  0  0
 43 44  1  0  0  0
 44110  1  0  0  0
 45 46  2  0  0  0
 45111  1  0  0  0
 46112  1  0  0  0
 47113  1  0  0  0
 47114  1  0  0  0
 48 56  1  0  0  0
 48 65  1  0  0  0
 48115  1  0  0  0
 49 50  1  0  0  0
 49 53  1  0  0  0
 49 64  1  0  0  0
 49116  1  0  0  0
 50 51  1  0  0  0
 50117  1  0  0  0
 50118  1  0  0  0
 51 52  1  0  0  0
 51119  1  0  0  0
 51120  1  0  0  0
 52121  1  0  0  0
 52122  1  0  0  0
 53 54  1  0  0  0
 54 55  2  0  0  0
 54123  1  0  0  0
 55 57  1  0  0  0
 55124  1  0  0  0
 56 69  2  0  0  0
 57 58  2  0  0  0
 57125  1  0  0  0
 58126  1  0  0  0
 59 60  1  0  0  0
 59 61  1  0  0  0
 59 62  1  0  0  0
 60127  1  0  0  0
 60128  1  0  0  0
 60129  1  0  0  0
 61130  1  0  0  0
 61131  1  0  0  0
 61132  1  0  0  0
 62133  1  0  0  0
 62134  1  0  0  0
 62135  1  0  0  0
 63 65  1  0  0  0
 63136  1  0  0  0
 63137  1  0  0  0
 63138  1  0  0  0
 64139  1  0  0  0
 65140  1  0  0  0
 68 78  1  0  0  0
 71 72  2  0  0  0
 71 79  1  0  0  0
 71141  1  0  0  0
 72 76  1  0  0  0
 72 80  1  0  0  0
 73 77  1  0  0  0
 73 79  1  0  0  0
 73 80  2  0  0  0
 74 79  1  0  0  0
 74142  1  0  0  0
 74143  1  0  0  0
 74144  1  0  0  0
 75 81  1  0  0  0
 75145  1  0  0  0
 75146  1  0  0  0
 75147  1  0  0  0
 76 78  1  0  0  0
 76148  1  0  0  0
 76149  1  0  0  0
 77 81  1  0  0  0
 77150  1  0  0  0
 77151  1  0  0  0
 78152  1  0  0  0
 78153  1  0  0  0
 80154  1  0  0  0
M  CHG  1  80   1
M  ISO  4   1 100  68 101  78 101  81 100
M  END
> <chiral flag>
0

> <version>
0

> <s_m_source_file>
/data/baiqing/PycharmProjects/Reinvent-master-3.2/result/LINK_invent/BTK/process_docking_weight1_custom_sum_contain_oxygen_bond_distance_aromatic_linkinvent_7_9_3/rearranged_h_0056.sdf

> <i_m_source_file_index>
9

> <r_mmod_Potential_Energy-OPLS-2005>
799.14697265625

> <r_mmod_Stretch_Energy-OPLS-2005>
360.519165039062

> <r_mmod_Bend_Energy-OPLS-2005>
379.221130371094

> <r_mmod_Torsional_Energy-OPLS-2005>
263.486572265625

> <r_mmod_Improper_Torsional_Energy-OPLS-2005>
9.99170780181885

> <r_mmod_Van_der_Waal_Energy-OPLS-2005>
113.974182128906

> <r_mmod_Electrostatic_Energy-OPLS-2005>
-166.093856811523

> <r_mmod_Solvation_Energy-OPLS-2005>
-417.846496582031

> <b_mmod_Minimization_Converged-OPLS-2005>
0

> <r_mmod_RMS_Derivative-OPLS-2005>
6.44262266159058

$$$$
10
                    3D
 Structure written by MMmdl.
169177  0  0  1  0            999 V2000
  -30.7434  -14.4246   20.6267 C   0  0  0  0  0  0
  -30.4136  -12.2993   19.4163 C   0  0  0  0  0  0
  -29.4885  -12.5146   18.2032 C   0  0  0  0  0  0
  -28.0120  -12.3724   18.6177 C   0  0  0  0  0  0
  -27.6620  -13.2082   19.8773 C   0  0  2  0  0  0
  -28.7009  -12.9843   20.9990 C   0  0  0  0  0  0
  -25.2590  -13.8168   20.5682 C   0  0  0  0  0  0
  -24.1838  -13.0445   20.9174 C   0  0  0  0  0  0
  -24.6385  -11.6913   20.8730 C   0  0  0  0  0  0
  -23.9053  -10.4298   21.0402 C   0  0  0  0  0  0
  -24.3608   -9.4216   21.9184 C   0  0  0  0  0  0
  -23.6284   -8.2247   22.0757 C   0  0  0  0  0  0
  -22.4270   -8.0278   21.3545 C   0  0  0  0  0  0
  -21.9901   -9.0252   20.4647 C   0  0  0  0  0  0
  -22.7225  -10.2133   20.3055 C   0  0  0  0  0  0
  -21.6856   -6.0728   22.5277 C   0  0  0  0  0  0
  -21.4015   -6.5636   23.8209 C   0  0  0  0  0  0
  -21.3659   -5.6792   24.9172 C   0  0  0  0  0  0
  -21.6044   -4.3052   24.7227 C   0  0  0  0  0  0
  -21.8820   -3.8143   23.4350 C   0  0  0  0  0  0
  -21.9194   -4.6957   22.3404 C   0  0  0  0  0  0
  -22.7863  -13.5246   21.1840 C   0  0  0  0  0  0
  -22.1662   -4.2141   21.0981 F   0  0  0  0  0  0
  -21.5629   -3.4539   25.7741 F   0  0  0  0  0  0
  -30.0366  -13.2761   20.4508 N   0  0  0  0  0  0
  -26.3023  -12.9338   20.3371 N   0  0  0  0  0  0
  -25.9315  -11.6495   20.5767 N   0  0  0  0  0  0
  -22.0496  -12.8238   22.0386 N   0  0  0  0  0  0
  -25.4332  -15.1881   20.4081 N   0  0  0  0  0  0
  -31.8284  -14.6289   20.0758 O   0  0  0  0  0  0
  -21.6640   -6.8872   21.4236 O   0  0  0  0  0  0
  -22.3558  -14.5563   20.6698 O   0  0  0  0  0  0
  -24.6125  -31.8686   23.2115 C   0  0  0  0  0  0
  -25.9033  -32.4821   23.8396 C   0  0  1  0  0  0
  -27.2284  -27.4448   20.1055 C   0  0  0  0  0  0
  -25.5903  -33.8617   24.2341 N   0  0  0  0  0  0
  -23.3994  -30.4928   21.5501 C   0  0  2  0  0  0
  -24.8479  -28.9627   20.1121 C   0  0  0  0  0  0
  -22.7398  -29.4659   22.4985 C   0  0  0  0  0  0
  -18.0271  -28.1383   22.8485 C   0  0  0  0  0  0
  -24.1487  -36.7312   23.2638 C   0  0  0  0  0  0
  -25.9244  -30.8399   21.3611 C   0  0  0  0  0  0
  -26.0045  -29.4711   20.7192 C   0  0  0  0  0  0
  -27.1986  -28.7156   20.7239 C   0  0  0  0  0  0
  -26.0684  -26.9632   19.4673 C   0  0  0  0  0  0
  -24.8727  -27.7047   19.4854 C   0  0  0  0  0  0
  -23.6078  -29.8261   20.1637 C   0  0  0  0  0  0
  -25.4105  -36.3107   24.0341 C   0  0  1  0  0  0
  -20.5857  -28.3661   23.1322 C   0  0  2  0  0  0
  -20.6766  -26.9398   22.5419 C   0  0  0  0  0  0
  -19.5749  -26.6387   21.5212 C   0  0  0  0  0  0
  -18.1920  -26.7926   22.1623 C   0  0  0  0  0  0
  -19.1517  -28.8840   23.2897 C   0  0  0  0  0  0
  -18.9449  -30.1445   23.8909 C   0  0  0  0  0  0
  -17.6460  -30.6588   24.0567 C   0  0  0  0  0  0
  -25.9038  -34.9471   23.5136 C   0  0  0  0  0  0
  -16.5346  -29.9088   23.6330 C   0  0  0  0  0  0
  -16.7263  -28.6513   23.0345 C   0  0  0  0  0  0
  -26.4476  -31.6582   25.0701 C   0  0  0  0  0  0
  -25.3754  -31.3654   26.1451 C   0  0  0  0  0  0
  -27.0310  -30.3042   24.6025 C   0  0  0  0  0  0
  -27.6060  -32.4276   25.7471 C   0  0  0  0  0  0
  -27.5572  -37.1804   24.8466 C   0  0  0  0  0  0
  -21.4131  -29.3022   22.3724 N   0  0  0  0  0  0
  -26.4289  -37.3788   23.9411 N   0  0  0  0  0  0
  -24.6633  -31.0812   22.1002 N   0  0  0  0  0  0
  -23.4176  -28.8212   23.3030 O   0  0  0  0  0  0
  -28.3706  -26.6811   20.0677 O   0  0  0  0  0  0
  -26.5586  -34.8925   22.4690 O   0  0  0  0  0  0
  -23.5327  -32.1428   23.7535 O   0  0  0  0  0  0
  -28.6386  -23.3959   21.6894 C   0  0  0  0  0  0
  -27.8592  -22.2438   21.9100 C   0  0  0  0  0  0
  -27.9554  -24.6029   21.4309 C   0  0  0  0  0  0
  -25.9581  -23.4805   21.5741 C   0  0  0  0  0  0
  -24.4487  -23.5289   21.4883 C   0  0  0  0  0  0
  -29.9498  -17.5814   19.5570 C   0  0  0  0  0  0
  -31.4653  -18.9381   21.0284 C   0  0  0  0  0  0
  -27.4299  -19.7304   20.3618 C   0  0  0  0  0  0
  -28.4546  -20.8912   22.3248 C   0  0  0  0  0  0
  -28.6818  -25.9489   21.2662 C   0  0  0  0  0  0
  -30.8023  -16.6427   21.7811 C   0  0  0  0  0  0
  -29.0838  -18.5519   21.7767 C   0  0  0  0  0  0
  -30.3004  -17.9227   21.0233 C   0  0  0  0  0  0
  -26.5141  -22.3050   21.8386 N   0  0  0  0  0  0
  -26.6097  -24.6172   21.3878 N   0  0  0  0  0  0
  -30.1723  -15.3648   21.4026 N   0  0  0  0  0  0
  -28.6192  -19.8730   21.2418 N   0  3  1  0  0  0
  -31.4591  -12.3864   19.1148 H   0  0  0  0  0  0
  -30.3041  -11.2853   19.8043 H   0  0  0  0  0  0
  -29.7257  -11.7988   17.4150 H   0  0  0  0  0  0
  -29.6591  -13.5057   17.7797 H   0  0  0  0  0  0
  -27.8232  -11.3157   18.8108 H   0  0  0  0  0  0
  -27.3599  -12.6499   17.7893 H   0  0  0  0  0  0
  -27.7103  -14.2578   19.5854 H   0  0  0  0  0  0
  -28.6690  -11.9498   21.3437 H   0  0  0  0  0  0
  -28.4565  -13.5875   21.8743 H   0  0  0  0  0  0
  -25.2748   -9.5696   22.4763 H   0  0  0  0  0  0
  -23.9995   -7.4642   22.7483 H   0  0  0  0  0  0
  -21.0833   -8.8763   19.8955 H   0  0  0  0  0  0
  -22.3676  -10.9670   19.6168 H   0  0  0  0  0  0
  -21.2006   -7.6144   23.9710 H   0  0  0  0  0  0
  -21.1480   -6.0523   25.9076 H   0  0  0  0  0  0
  -22.0599   -2.7603   23.2854 H   0  0  0  0  0  0
  -22.4094  -11.9878   22.4752 H   0  0  0  0  0  0
  -21.1119  -13.1277   22.2600 H   0  0  0  0  0  0
  -24.6651  -15.8441   20.5002 H   0  0  0  0  0  0
  -26.2847  -15.6163   20.0690 H   0  0  0  0  0  0
  -26.7105  -32.5563   23.1168 H   0  0  0  0  0  0
  -25.0067  -33.9773   25.0496 H   0  0  0  0  0  0
  -22.6872  -31.3086   21.4124 H   0  0  0  0  0  0
  -23.3742  -35.9650   23.3307 H   0  0  0  0  0  0
  -24.3587  -36.8917   22.2050 H   0  0  0  0  0  0
  -23.7245  -37.6524   23.6647 H   0  0  0  0  0  0
  -26.0233  -31.6003   20.5854 H   0  0  0  0  0  0
  -26.8180  -30.9058   21.9691 H   0  0  0  0  0  0
  -28.0906  -29.1053   21.1941 H   0  0  0  0  0  0
  -26.0883  -25.9995   18.9779 H   0  0  0  0  0  0
  -23.9869  -27.3105   19.0063 H   0  0  0  0  0  0
  -23.7084  -30.6002   19.4022 H   0  0  0  0  0  0
  -22.7338  -29.2413   19.8730 H   0  0  0  0  0  0
  -25.1276  -36.1969   25.0830 H   0  0  0  0  0  0
  -20.9946  -28.3237   24.1446 H   0  0  0  0  0  0
  -20.5685  -26.2266   23.3607 H   0  0  0  0  0  0
  -21.6635  -26.7453   22.1201 H   0  0  0  0  0  0
  -19.6916  -25.6300   21.1241 H   0  0  0  0  0  0
  -19.6702  -27.3202   20.6746 H   0  0  0  0  0  0
  -17.4192  -26.6671   21.4024 H   0  0  0  0  0  0
  -18.0315  -26.0067   22.9020 H   0  0  0  0  0  0
  -19.7930  -30.7242   24.2293 H   0  0  0  0  0  0
  -17.5019  -31.6269   24.5158 H   0  0  0  0  0  0
  -15.5352  -30.2999   23.7654 H   0  0  0  0  0  0
  -15.8660  -28.0847   22.7048 H   0  0  0  0  0  0
  -24.5959  -30.6965   25.7782 H   0  0  0  0  0  0
  -24.8907  -32.2792   26.4899 H   0  0  0  0  0  0
  -25.8125  -30.8836   27.0206 H   0  0  0  0  0  0
  -26.2838  -29.6791   24.1127 H   0  0  0  0  0  0
  -27.4170  -29.7277   25.4440 H   0  0  0  0  0  0
  -27.8625  -30.4390   23.9102 H   0  0  0  0  0  0
  -27.2709  -33.3587   26.2053 H   0  0  0  0  0  0
  -28.3887  -32.6806   25.0304 H   0  0  0  0  0  0
  -28.0706  -31.8380   26.5385 H   0  0  0  0  0  0
  -28.2590  -38.0097   24.7516 H   0  0  0  0  0  0
  -28.1067  -36.2635   24.6295 H   0  0  0  0  0  0
  -27.2289  -37.1448   25.8865 H   0  0  0  0  0  0
  -20.9289  -29.8738   21.6946 H   0  0  0  0  0  0
  -26.0181  -38.2866   24.1416 H   0  0  0  0  0  0
  -29.7188  -23.3743   21.7639 H   0  0  0  0  0  0
  -24.0643  -22.6421   20.9848 H   0  0  0  0  0  0
  -24.1133  -24.4035   20.9303 H   0  0  0  0  0  0
  -24.0141  -23.5737   22.4869 H   0  0  0  0  0  0
  -30.7762  -17.0695   19.0629 H   0  0  0  0  0  0
  -29.7425  -18.4723   18.9652 H   0  0  0  0  0  0
  -29.0766  -16.9317   19.4873 H   0  0  0  0  0  0
  -32.3493  -18.5259   20.5389 H   0  0  0  0  0  0
  -31.7575  -19.2083   22.0442 H   0  0  0  0  0  0
  -31.2232  -19.8596   20.4993 H   0  0  0  0  0  0
  -27.2167  -20.6504   19.8170 H   0  0  0  0  0  0
  -26.5442  -19.4624   20.9389 H   0  0  0  0  0  0
  -27.5718  -18.9572   19.6085 H   0  0  0  0  0  0
  -27.8129  -20.4777   23.1042 H   0  0  0  0  0  0
  -29.4212  -21.0713   22.7971 H   0  0  0  0  0  0
  -29.7561  -25.7626   21.2625 H   0  0  0  0  0  0
  -28.4906  -26.5619   22.1481 H   0  0  0  0  0  0
  -30.6753  -16.7690   22.8572 H   0  0  0  0  0  0
  -31.8833  -16.5452   21.6584 H   0  0  0  0  0  0
  -29.3721  -18.6787   22.8220 H   0  0  0  0  0  0
  -28.2531  -17.8444   21.8090 H   0  0  0  0  0  0
  -29.2783  -15.1377   21.8119 H   0  0  0  0  0  0
  -29.3634  -20.2343   20.6656 H   0  0  0  0  0  0
  1 25  1  0  0  0
  1 30  2  0  0  0
  1 86  1  0  0  0
  2  3  1  0  0  0
  2 25  1  0  0  0
  2 88  1  0  0  0
  2 89  1  0  0  0
  3  4  1  0  0  0
  3 90  1  0  0  0
  3 91  1  0  0  0
  4  5  1  0  0  0
  4 92  1  0  0  0
  4 93  1  0  0  0
  5  6  1  0  0  0
  5 26  1  0  0  0
  5 94  1  0  0  0
  6 25  1  0  0  0
  6 95  1  0  0  0
  6 96  1  0  0  0
  7  8  2  0  0  0
  7 26  1  0  0  0
  7 29  1  0  0  0
  8  9  1  0  0  0
  8 22  1  0  0  0
  9 10  1  0  0  0
  9 27  2  0  0  0
 10 11  2  0  0  0
 10 15  1  0  0  0
 11 12  1  0  0  0
 11 97  1  0  0  0
 12 13  2  0  0  0
 12 98  1  0  0  0
 13 14  1  0  0  0
 13 31  1  0  0  0
 14 15  2  0  0  0
 14 99  1  0  0  0
 15100  1  0  0  0
 16 17  2  0  0  0
 16 21  1  0  0  0
 16 31  1  0  0  0
 17 18  1  0  0  0
 17101  1  0  0  0
 18 19  2  0  0  0
 18102  1  0  0  0
 19 20  1  0  0  0
 19 24  1  0  0  0
 20 21  2  0  0  0
 20103  1  0  0  0
 21 23  1  0  0  0
 22 28  1  0  0  0
 22 32  2  0  0  0
 26 27  1  0  0  0
 28104  1  0  0  0
 28105  1  0  0  0
 29106  1  0  0  0
 29107  1  0  0  0
 33 34  1  0  0  0
 33 66  1  0  0  0
 33 70  2  0  0  0
 34 36  1  0  0  0
 34 59  1  0  0  0
 34108  1  0  0  0
 35 44  2  0  0  0
 35 45  1  0  0  0
 35 68  1  0  0  0
 36 56  1  0  0  0
 36109  1  0  0  0
 37 39  1  0  0  0
 37 47  1  0  0  0
 37 66  1  0  0  0
 37110  1  0  0  0
 38 43  2  0  0  0
 38 46  1  0  0  0
 38 47  1  0  0  0
 39 64  1  0  0  0
 39 67  2  0  0  0
 40 52  1  0  0  0
 40 53  2  0  0  0
 40 58  1  0  0  0
 41111  1  0  0  0
 41112  1  0  0  0
 41113  1  0  0  0
 41 48  1  0  0  0
 42 43  1  0  0  0
 42 66  1  0  0  0
 42114  1  0  0  0
 42115  1  0  0  0
 43 44  1  0  0  0
 44116  1  0  0  0
 45 46  2  0  0  0
 45117  1  0  0  0
 46118  1  0  0  0
 47119  1  0  0  0
 47120  1  0  0  0
 48 56  1  0  0  0
 48 65  1  0  0  0
 48121  1  0  0  0
 49 50  1  0  0  0
 49 53  1  0  0  0
 49 64  1  0  0  0
 49122  1  0  0  0
 50 51  1  0  0  0
 50123  1  0  0  0
 50124  1  0  0  0
 51 52  1  0  0  0
 51125  1  0  0  0
 51126  1  0  0  0
 52127  1  0  0  0
 52128  1  0  0  0
 53 54  1  0  0  0
 54 55  2  0  0  0
 54129  1  0  0  0
 55 57  1  0  0  0
 55130  1  0  0  0
 56 69  2  0  0  0
 57 58  2  0  0  0
 57131  1  0  0  0
 58132  1  0  0  0
 59 60  1  0  0  0
 59 61  1  0  0  0
 59 62  1  0  0  0
 60133  1  0  0  0
 60134  1  0  0  0
 60135  1  0  0  0
 61136  1  0  0  0
 61137  1  0  0  0
 61138  1  0  0  0
 62139  1  0  0  0
 62140  1  0  0  0
 62141  1  0  0  0
 63 65  1  0  0  0
 63142  1  0  0  0
 63143  1  0  0  0
 63144  1  0  0  0
 64145  1  0  0  0
 65146  1  0  0  0
 68 80  1  0  0  0
 71 72  2  0  0  0
 71 73  1  0  0  0
 71147  1  0  0  0
 72 79  1  0  0  0
 72 84  1  0  0  0
 73 80  1  0  0  0
 73 85  2  0  0  0
 74 75  1  0  0  0
 74 84  2  0  0  0
 74 85  1  0  0  0
 75148  1  0  0  0
 75149  1  0  0  0
 75150  1  0  0  0
 76151  1  0  0  0
 76152  1  0  0  0
 76153  1  0  0  0
 76 83  1  0  0  0
 77 83  1  0  0  0
 77154  1  0  0  0
 77155  1  0  0  0
 77156  1  0  0  0
 78157  1  0  0  0
 78158  1  0  0  0
 78159  1  0  0  0
 78 87  1  0  0  0
 79 87  1  0  0  0
 79160  1  0  0  0
 79161  1  0  0  0
 80162  1  0  0  0
 80163  1  0  0  0
 81 83  1  0  0  0
 81 86  1  0  0  0
 81164  1  0  0  0
 81165  1  0  0  0
 82 83  1  0  0  0
 82 87  1  0  0  0
 82166  1  0  0  0
 82167  1  0  0  0
 86168  1  0  0  0
 87169  1  0  0  0
M  CHG  1  87   1
M  ISO  4   1 100  68 101  80 101  86 100
M  END
> <chiral flag>
0

> <version>
0

> <s_m_source_file>
/data/baiqing/PycharmProjects/Reinvent-master-3.2/result/LINK_invent/BTK/process_docking_weight1_custom_sum_contain_oxygen_bond_distance_aromatic_linkinvent_7_9_3/rearranged_h_0056.sdf

> <i_m_source_file_index>
10

> <r_mmod_Potential_Energy-OPLS-2005>
-654.220947265625

> <r_mmod_Stretch_Energy-OPLS-2005>
39.7850303649902

> <r_mmod_Bend_Energy-OPLS-2005>
108.64143371582

> <r_mmod_Torsional_Energy-OPLS-2005>
256.279113769531

> <r_mmod_Improper_Torsional_Energy-OPLS-2005>
2.34482002258301

> <r_mmod_Van_der_Waal_Energy-OPLS-2005>
162.273941040039

> <r_mmod_Electrostatic_Energy-OPLS-2005>
-764.434143066406

> <r_mmod_Solvation_Energy-OPLS-2005>
-468.286071777344

> <b_mmod_Minimization_Converged-OPLS-2005>
0

> <r_mmod_RMS_Derivative-OPLS-2005>
1.16650295257568

$$$$
11
                    3D
 Structure written by MMmdl.
155163  0  0  1  0            999 V2000
  -30.6418  -14.7599   20.5386 C   0  0  0  0  0  0
  -30.4267  -12.4835   19.4872 C   0  0  0  0  0  0
  -29.5027  -12.4943   18.2493 C   0  0  0  0  0  0
  -28.0264  -12.3407   18.6628 C   0  0  0  0  0  0
  -27.6393  -13.2383   19.8673 C   0  0  2  0  0  0
  -28.6848  -13.1641   21.0018 C   0  0  0  0  0  0
  -25.2438  -13.8277   20.5706 C   0  0  0  0  0  0
  -24.1751  -13.0463   20.9224 C   0  0  0  0  0  0
  -24.6361  -11.6942   20.8754 C   0  0  0  0  0  0
  -23.9064  -10.4282   21.0411 C   0  0  0  0  0  0
  -24.3602   -9.4200   21.9205 C   0  0  0  0  0  0
  -23.6270   -8.2227   22.0765 C   0  0  0  0  0  0
  -22.4277   -8.0254   21.3554 C   0  0  0  0  0  0
  -21.9904   -9.0224   20.4659 C   0  0  0  0  0  0
  -22.7230  -10.2109   20.3070 C   0  0  0  0  0  0
  -21.6842   -6.0705   22.5287 C   0  0  0  0  0  0
  -21.4000   -6.5603   23.8222 C   0  0  0  0  0  0
  -21.3670   -5.6773   24.9180 C   0  0  0  0  0  0
  -21.6067   -4.3039   24.7238 C   0  0  0  0  0  0
  -21.8824   -3.8125   23.4349 C   0  0  0  0  0  0
  -21.9185   -4.6927   22.3405 C   0  0  0  0  0  0
  -22.7776  -13.5209   21.1895 C   0  0  0  0  0  0
  -22.1654   -4.2113   21.0975 F   0  0  0  0  0  0
  -21.5607   -3.4524   25.7749 F   0  0  0  0  0  0
  -29.9804  -13.5463   20.4291 N   0  0  0  0  0  0
  -26.2886  -12.9462   20.3404 N   0  0  0  0  0  0
  -25.9305  -11.6599   20.5824 N   0  0  0  0  0  0
  -22.0427  -12.8142   22.0396 N   0  0  0  0  0  0
  -25.4075  -15.1972   20.4003 N   0  0  0  0  0  0
  -31.7800  -14.8469   20.0678 O   0  0  0  0  0  0
  -21.6621   -6.8853   21.4271 O   0  0  0  0  0  0
  -22.3438  -14.5548   20.6811 O   0  0  0  0  0  0
  -24.6380  -31.8526   23.1942 C   0  0  0  0  0  0
  -25.9191  -32.4752   23.8264 C   0  0  1  0  0  0
  -27.1894  -27.2197   20.1325 C   0  0  0  0  0  0
  -25.6005  -33.8566   24.2213 N   0  0  0  0  0  0
  -23.4296  -30.4724   21.5455 C   0  0  2  0  0  0
  -24.8701  -28.9101   20.1166 C   0  0  0  0  0  0
  -22.7494  -29.4561   22.4902 C   0  0  0  0  0  0
  -18.0337  -28.1358   22.8525 C   0  0  0  0  0  0
  -24.1489  -36.7234   23.2651 C   0  0  0  0  0  0
  -25.9795  -30.7473   21.3819 C   0  0  0  0  0  0
  -26.0493  -29.3701   20.7188 C   0  0  0  0  0  0
  -27.2200  -28.5395   20.7007 C   0  0  0  0  0  0
  -25.9817  -26.8199   19.5296 C   0  0  0  0  0  0
  -24.8403  -27.6432   19.5140 C   0  0  0  0  0  0
  -23.6469  -29.8070   20.1642 C   0  0  0  0  0  0
  -25.4109  -36.3024   24.0311 C   0  0  1  0  0  0
  -20.5942  -28.3663   23.1310 C   0  0  2  0  0  0
  -20.6811  -26.9373   22.5404 C   0  0  0  0  0  0
  -19.5776  -26.6322   21.5203 C   0  0  0  0  0  0
  -18.1990  -26.7871   22.1725 C   0  0  0  0  0  0
  -19.1601  -28.8819   23.2895 C   0  0  0  0  0  0
  -18.9553  -30.1403   23.8911 C   0  0  0  0  0  0
  -17.6570  -30.6560   24.0581 C   0  0  0  0  0  0
  -25.9046  -34.9430   23.5016 C   0  0  0  0  0  0
  -16.5460  -29.9120   23.6348 C   0  0  0  0  0  0
  -16.7352  -28.6497   23.0422 C   0  0  0  0  0  0
  -26.4520  -31.6662   25.0717 C   0  0  0  0  0  0
  -25.3736  -31.3920   26.1419 C   0  0  0  0  0  0
  -27.0421  -30.3106   24.6289 C   0  0  0  0  0  0
  -27.6018  -32.4393   25.7585 C   0  0  0  0  0  0
  -27.5541  -37.1774   24.8460 C   0  0  0  0  0  0
  -21.4197  -29.3057   22.3713 N   0  0  0  0  0  0
  -26.4298  -37.3701   23.9375 N   0  0  0  0  0  0
  -24.7014  -31.0455   22.0950 N   0  0  0  0  0  0
  -23.4190  -28.8093   23.2964 O   0  0  0  0  0  0
  -28.2558  -26.2877   20.1354 O   0  0  0  0  0  0
  -26.5549  -34.8924   22.4552 O   0  0  0  0  0  0
  -23.5531  -32.1340   23.7242 O   0  0  0  0  0  0
  -27.9705  -20.0647   21.1290 C   0  0  0  0  0  0
  -29.4248  -18.6216   20.5774 C   0  0  0  0  0  0
  -29.1180  -16.4292   23.4090 C   0  0  0  0  0  0
  -30.2051  -17.2607   20.3092 C   0  0  0  0  0  0
  -28.0586  -23.4354   20.1387 C   0  0  0  0  0  0
  -29.1930  -22.3157   20.5131 C   0  0  0  0  0  0
  -30.3198  -16.1121   22.5002 C   0  0  0  0  0  0
  -28.0533  -24.9403   20.8008 C   0  0  0  0  0  0
  -28.1813  -18.7312   21.1523 N   0  0  0  0  0  0
  -29.8958  -19.8412   20.1750 N   0  0  0  0  0  0
  -28.9402  -20.7932   20.5545 N   0  0  0  0  0  0
  -30.0233  -15.9155   21.0539 N   0  0  0  0  0  0
  -31.4645  -12.6066   19.1754 H   0  0  0  0  0  0
  -30.3811  -11.5084   19.9759 H   0  0  0  0  0  0
  -29.7769  -11.6760   17.5789 H   0  0  0  0  0  0
  -29.6429  -13.4179   17.6822 H   0  0  0  0  0  0
  -27.8616  -11.2936   18.9204 H   0  0  0  0  0  0
  -27.3736  -12.5294   17.8108 H   0  0  0  0  0  0
  -27.6413  -14.2631   19.4960 H   0  0  0  0  0  0
  -28.7281  -12.1536   21.4112 H   0  0  0  0  0  0
  -28.4092  -13.8150   21.8324 H   0  0  0  0  0  0
  -25.2754   -9.5618   22.4784 H   0  0  0  0  0  0
  -23.9985   -7.4599   22.7467 H   0  0  0  0  0  0
  -21.0825   -8.8710   19.8947 H   0  0  0  0  0  0
  -22.3701  -10.9619   19.6133 H   0  0  0  0  0  0
  -21.1991   -7.6116   23.9688 H   0  0  0  0  0  0
  -21.1501   -6.0522   25.9075 H   0  0  0  0  0  0
  -22.0601   -2.7578   23.2887 H   0  0  0  0  0  0
  -22.4057  -11.9843   22.4894 H   0  0  0  0  0  0
  -21.1065  -13.1182   22.2618 H   0  0  0  0  0  0
  -24.6196  -15.8359   20.4361 H   0  0  0  0  0  0
  -26.2443  -15.6348   20.0336 H   0  0  0  0  0  0
  -26.7193  -32.5387   23.0926 H   0  0  0  0  0  0
  -25.0318  -33.9641   25.0465 H   0  0  0  0  0  0
  -22.7269  -31.2971   21.4007 H   0  0  0  0  0  0
  -23.3761  -35.9554   23.3335 H   0  0  0  0  0  0
  -24.3569  -36.8824   22.2056 H   0  0  0  0  0  0
  -23.7239  -37.6444   23.6658 H   0  0  0  0  0  0
  -26.1317  -31.5048   20.6144 H   0  0  0  0  0  0
  -26.8583  -30.7904   22.0150 H   0  0  0  0  0  0
  -28.1323  -28.8859   21.1677 H   0  0  0  0  0  0
  -25.9136  -25.8362   19.0867 H   0  0  0  0  0  0
  -23.9219  -27.2792   19.0730 H   0  0  0  0  0  0
  -23.7741  -30.5922   19.4174 H   0  0  0  0  0  0
  -22.7580  -29.2566   19.8502 H   0  0  0  0  0  0
  -25.1329  -36.1796   25.0807 H   0  0  0  0  0  0
  -21.0047  -28.3226   24.1403 H   0  0  0  0  0  0
  -21.6707  -26.7368   22.1245 H   0  0  0  0  0  0
  -20.5679  -26.2319   23.3614 H   0  0  0  0  0  0
  -19.6946  -25.6193   21.1312 H   0  0  0  0  0  0
  -19.6733  -27.3096   20.6708 H   0  0  0  0  0  0
  -17.4162  -26.6408   21.4265 H   0  0  0  0  0  0
  -18.0593  -26.0130   22.9283 H   0  0  0  0  0  0
  -19.8087  -30.7150   24.2290 H   0  0  0  0  0  0
  -17.5231  -31.6238   24.5204 H   0  0  0  0  0  0
  -15.5433  -30.2981   23.7769 H   0  0  0  0  0  0
  -15.8735  -28.0805   22.7170 H   0  0  0  0  0  0
  -24.5831  -30.7342   25.7790 H   0  0  0  0  0  0
  -24.9035  -32.3167   26.4803 H   0  0  0  0  0  0
  -25.8052  -30.9111   27.0206 H   0  0  0  0  0  0
  -26.3009  -29.6789   24.1395 H   0  0  0  0  0  0
  -27.4207  -29.7477   25.4839 H   0  0  0  0  0  0
  -27.8832  -30.4442   23.9486 H   0  0  0  0  0  0
  -27.2557  -33.3625   26.2234 H   0  0  0  0  0  0
  -28.3899  -32.7037   25.0533 H   0  0  0  0  0  0
  -28.0582  -31.8476   26.5513 H   0  0  0  0  0  0
  -28.2593  -38.0041   24.7444 H   0  0  0  0  0  0
  -28.1016  -36.2574   24.6376 H   0  0  0  0  0  0
  -27.2261  -37.1487   25.8874 H   0  0  0  0  0  0
  -20.9297  -29.8786   21.7006 H   0  0  0  0  0  0
  -26.0171  -38.2802   24.1309 H   0  0  0  0  0  0
  -27.0936  -20.5130   21.5783 H   0  0  0  0  0  0
  -28.3110  -15.7014   23.3036 H   0  0  0  0  0  0
  -28.7251  -17.4315   23.2488 H   0  0  0  0  0  0
  -29.4356  -16.4095   24.4539 H   0  0  0  0  0  0
  -31.2662  -17.5049   20.4193 H   0  0  0  0  0  0
  -30.0810  -17.0497   19.2460 H   0  0  0  0  0  0
  -27.1214  -22.9832   20.4645 H   0  0  0  0  0  0
  -27.9357  -23.5140   19.0593 H   0  0  0  0  0  0
  -30.0534  -22.4827   19.8637 H   0  0  0  0  0  0
  -29.5471  -22.5505   21.5144 H   0  0  0  0  0  0
  -30.7843  -15.2205   22.9247 H   0  0  0  0  0  0
  -31.0741  -16.8977   22.6175 H   0  0  0  0  0  0
  -27.1128  -25.0269   21.3496 H   0  0  0  0  0  0
  -28.7813  -24.9079   21.6054 H   0  0  0  0  0  0
  1 25  1  0  0  0
  1 30  2  0  0  0
  1 82  1  0  0  0
  2  3  1  0  0  0
  2 25  1  0  0  0
  2 83  1  0  0  0
  2 84  1  0  0  0
  3  4  1  0  0  0
  3 85  1  0  0  0
  3 86  1  0  0  0
  4  5  1  0  0  0
  4 87  1  0  0  0
  4 88  1  0  0  0
  5  6  1  0  0  0
  5 26  1  0  0  0
  5 89  1  0  0  0
  6 25  1  0  0  0
  6 90  1  0  0  0
  6 91  1  0  0  0
  7  8  2  0  0  0
  7 26  1  0  0  0
  7 29  1  0  0  0
  8  9  1  0  0  0
  8 22  1  0  0  0
  9 10  1  0  0  0
  9 27  2  0  0  0
 10 11  2  0  0  0
 10 15  1  0  0  0
 11 12  1  0  0  0
 11 92  1  0  0  0
 12 13  2  0  0  0
 12 93  1  0  0  0
 13 14  1  0  0  0
 13 31  1  0  0  0
 14 15  2  0  0  0
 14 94  1  0  0  0
 15 95  1  0  0  0
 16 17  2  0  0  0
 16 21  1  0  0  0
 16 31  1  0  0  0
 17 18  1  0  0  0
 17 96  1  0  0  0
 18 19  2  0  0  0
 18 97  1  0  0  0
 19 20  1  0  0  0
 19 24  1  0  0  0
 20 21  2  0  0  0
 20 98  1  0  0  0
 21 23  1  0  0  0
 22 28  1  0  0  0
 22 32  2  0  0  0
 26 27  1  0  0  0
 28 99  1  0  0  0
 28100  1  0  0  0
 29101  1  0  0  0
 29102  1  0  0  0
 33 34  1  0  0  0
 33 66  1  0  0  0
 33 70  2  0  0  0
 34 36  1  0  0  0
 34 59  1  0  0  0
 34103  1  0  0  0
 35 44  2  0  0  0
 35 45  1  0  0  0
 35 68  1  0  0  0
 36 56  1  0  0  0
 36104  1  0  0  0
 37 39  1  0  0  0
 37 47  1  0  0  0
 37 66  1  0  0  0
 37105  1  0  0  0
 38 43  2  0  0  0
 38 46  1  0  0  0
 38 47  1  0  0  0
 39 64  1  0  0  0
 39 67  2  0  0  0
 40 52  1  0  0  0
 40 53  2  0  0  0
 40 58  1  0  0  0
 41106  1  0  0  0
 41107  1  0  0  0
 41108  1  0  0  0
 41 48  1  0  0  0
 42 43  1  0  0  0
 42 66  1  0  0  0
 42109  1  0  0  0
 42110  1  0  0  0
 43 44  1  0  0  0
 44111  1  0  0  0
 45 46  2  0  0  0
 45112  1  0  0  0
 46113  1  0  0  0
 47114  1  0  0  0
 47115  1  0  0  0
 48 56  1  0  0  0
 48 65  1  0  0  0
 48116  1  0  0  0
 49 50  1  0  0  0
 49 53  1  0  0  0
 49 64  1  0  0  0
 49117  1  0  0  0
 50 51  1  0  0  0
 50118  1  0  0  0
 50119  1  0  0  0
 51 52  1  0  0  0
 51120  1  0  0  0
 51121  1  0  0  0
 52122  1  0  0  0
 52123  1  0  0  0
 53 54  1  0  0  0
 54 55  2  0  0  0
 54124  1  0  0  0
 55 57  1  0  0  0
 55125  1  0  0  0
 56 69  2  0  0  0
 57 58  2  0  0  0
 57126  1  0  0  0
 58127  1  0  0  0
 59 60  1  0  0  0
 59 61  1  0  0  0
 59 62  1  0  0  0
 60128  1  0  0  0
 60129  1  0  0  0
 60130  1  0  0  0
 61131  1  0  0  0
 61132  1  0  0  0
 61133  1  0  0  0
 62134  1  0  0  0
 62135  1  0  0  0
 62136  1  0  0  0
 63 65  1  0  0  0
 63137  1  0  0  0
 63138  1  0  0  0
 63139  1  0  0  0
 64140  1  0  0  0
 65141  1  0  0  0
 68 78  1  0  0  0
 71 79  2  0  0  0
 71 81  1  0  0  0
 71142  1  0  0  0
 72 74  1  0  0  0
 72 79  1  0  0  0
 72 80  2  0  0  0
 73 77  1  0  0  0
 73143  1  0  0  0
 73144  1  0  0  0
 73145  1  0  0  0
 74 82  1  0  0  0
 74146  1  0  0  0
 74147  1  0  0  0
 75 76  1  0  0  0
 75 78  1  0  0  0
 75148  1  0  0  0
 75149  1  0  0  0
 76 81  1  0  0  0
 76150  1  0  0  0
 76151  1  0  0  0
 77 82  1  0  0  0
 77152  1  0  0  0
 77153  1  0  0  0
 78154  1  0  0  0
 78155  1  0  0  0
 80 81  1  0  0  0
M  ISO  4   1 100  68 101  78 101  82 100
M  END
> <chiral flag>
0

> <version>
0

> <s_m_source_file>
/data/baiqing/PycharmProjects/Reinvent-master-3.2/result/LINK_invent/BTK/process_docking_weight1_custom_sum_contain_oxygen_bond_distance_aromatic_linkinvent_7_9_3/rearranged_h_0056.sdf

> <i_m_source_file_index>
11

> <r_mmod_Potential_Energy-OPLS-2005>
345.880950927734

> <r_mmod_Stretch_Energy-OPLS-2005>
153.05207824707

> <r_mmod_Bend_Energy-OPLS-2005>
229.966751098633

> <r_mmod_Torsional_Energy-OPLS-2005>
313.691589355469

> <r_mmod_Improper_Torsional_Energy-OPLS-2005>
9.02645778656006

> <r_mmod_Van_der_Waal_Energy-OPLS-2005>
116.618347167969

> <r_mmod_Electrostatic_Energy-OPLS-2005>
-367.499755859375

> <r_mmod_Solvation_Energy-OPLS-2005>
-209.39680480957

> <b_mmod_Minimization_Converged-OPLS-2005>
0

> <r_mmod_RMS_Derivative-OPLS-2005>
7.71467876434326

$$$$
12
                    3D
 Structure written by MMmdl.
159167  0  0  1  0            999 V2000
  -30.6638  -14.4943   20.5780 C   0  0  0  0  0  0
  -30.4279  -12.3194   19.4244 C   0  0  0  0  0  0
  -29.4945  -12.4943   18.2067 C   0  0  0  0  0  0
  -28.0149  -12.3304   18.6142 C   0  0  0  0  0  0
  -27.6568  -13.1762   19.8646 C   0  0  2  0  0  0
  -28.6979  -12.9537   20.9866 C   0  0  0  0  0  0
  -25.2636  -13.8105   20.5688 C   0  0  0  0  0  0
  -24.1835  -13.0430   20.9146 C   0  0  0  0  0  0
  -24.6356  -11.6895   20.8755 C   0  0  0  0  0  0
  -23.9030  -10.4285   21.0421 C   0  0  0  0  0  0
  -24.3613   -9.4200   21.9195 C   0  0  0  0  0  0
  -23.6319   -8.2223   22.0751 C   0  0  0  0  0  0
  -22.4295   -8.0272   21.3543 C   0  0  0  0  0  0
  -21.9911   -9.0231   20.4644 C   0  0  0  0  0  0
  -22.7218  -10.2117   20.3054 C   0  0  0  0  0  0
  -21.6843   -6.0752   22.5305 C   0  0  0  0  0  0
  -21.3996   -6.5652   23.8242 C   0  0  0  0  0  0
  -21.3655   -5.6800   24.9205 C   0  0  0  0  0  0
  -21.6041   -4.3061   24.7240 C   0  0  0  0  0  0
  -21.8823   -3.8162   23.4352 C   0  0  0  0  0  0
  -21.9196   -4.6990   22.3419 C   0  0  0  0  0  0
  -22.7871  -13.5249   21.1853 C   0  0  0  0  0  0
  -22.1660   -4.2177   21.0994 F   0  0  0  0  0  0
  -21.5630   -3.4537   25.7731 F   0  0  0  0  0  0
  -30.0169  -13.2996   20.4460 N   0  0  0  0  0  0
  -26.3006  -12.9203   20.3342 N   0  0  0  0  0  0
  -25.9264  -11.6404   20.5776 N   0  0  0  0  0  0
  -22.0513  -12.8250   22.0415 N   0  0  0  0  0  0
  -25.4530  -15.1807   20.4195 N   0  0  0  0  0  0
  -31.8078  -14.6555   20.1396 O   0  0  0  0  0  0
  -21.6643   -6.8889   21.4263 O   0  0  0  0  0  0
  -22.3561  -14.5568   20.6722 O   0  0  0  0  0  0
  -24.6105  -31.8699   23.2116 C   0  0  0  0  0  0
  -25.9008  -32.4840   23.8405 C   0  0  1  0  0  0
  -27.2402  -27.4563   20.1028 C   0  0  0  0  0  0
  -25.5851  -33.8639   24.2324 N   0  0  0  0  0  0
  -23.3981  -30.4947   21.5508 C   0  0  2  0  0  0
  -24.8498  -28.9622   20.1186 C   0  0  0  0  0  0
  -22.7384  -29.4672   22.4981 C   0  0  0  0  0  0
  -18.0262  -28.1379   22.8492 C   0  0  0  0  0  0
  -24.1472  -36.7338   23.2641 C   0  0  0  0  0  0
  -25.9242  -30.8431   21.3639 C   0  0  0  0  0  0
  -26.0056  -29.4749   20.7219 C   0  0  0  0  0  0
  -27.2045  -28.7272   20.7229 C   0  0  0  0  0  0
  -26.0757  -26.9618   19.4830 C   0  0  0  0  0  0
  -24.8767  -27.7008   19.4986 C   0  0  0  0  0  0
  -23.6085  -29.8257   20.1661 C   0  0  0  0  0  0
  -25.4095  -36.3133   24.0336 C   0  0  1  0  0  0
  -20.5855  -28.3671   23.1315 C   0  0  2  0  0  0
  -20.6757  -26.9403   22.5424 C   0  0  0  0  0  0
  -19.5741  -26.6384   21.5210 C   0  0  0  0  0  0
  -18.1911  -26.7926   22.1615 C   0  0  0  0  0  0
  -19.1514  -28.8836   23.2902 C   0  0  0  0  0  0
  -18.9448  -30.1439   23.8917 C   0  0  0  0  0  0
  -17.6456  -30.6588   24.0563 C   0  0  0  0  0  0
  -25.9021  -34.9492   23.5134 C   0  0  0  0  0  0
  -16.5343  -29.9095   23.6322 C   0  0  0  0  0  0
  -16.7253  -28.6508   23.0346 C   0  0  0  0  0  0
  -26.4463  -31.6623   25.0721 C   0  0  0  0  0  0
  -25.3744  -31.3730   26.1482 C   0  0  0  0  0  0
  -27.0288  -30.3062   24.6077 C   0  0  0  0  0  0
  -27.6032  -32.4361   25.7477 C   0  0  0  0  0  0
  -27.5579  -37.1821   24.8463 C   0  0  0  0  0  0
  -21.4115  -29.3034   22.3715 N   0  0  0  0  0  0
  -26.4292  -37.3806   23.9407 N   0  0  0  0  0  0
  -24.6621  -31.0832   22.1006 N   0  0  0  0  0  0
  -23.4165  -28.8224   23.3026 O   0  0  0  0  0  0
  -28.3613  -26.6630   20.0340 O   0  0  0  0  0  0
  -26.5601  -34.8944   22.4705 O   0  0  0  0  0  0
  -23.5307  -32.1443   23.7527 O   0  0  0  0  0  0
  -30.5362  -16.8692   21.5654 C   0  0  0  0  0  0
  -29.9326  -15.7077   21.1473 C   0  0  0  0  0  0
  -31.0118  -22.5100   21.8619 C   0  0  0  0  0  0
  -28.9684  -20.1703   21.2927 C   0  0  0  0  0  0
  -29.9362  -25.2310   21.1540 C   0  0  0  0  0  0
  -29.5323  -19.1304   22.3008 C   0  0  0  0  0  0
  -28.7204  -21.5946   21.8830 C   0  0  0  0  0  0
  -29.0637  -24.0419   21.6448 C   0  0  0  0  0  0
  -29.2105  -26.5974   21.1737 C   0  0  0  0  0  0
  -28.5506  -15.9449   21.1834 N   0  0  0  0  0  0
  -28.3037  -17.1422   21.6142 N   0  0  0  0  0  0
  -29.4940  -17.7478   21.8209 N   0  0  0  0  0  0
  -29.6209  -22.6746   21.3747 N   0  3  1  0  0  0
  -31.4683  -12.4351   19.1185 H   0  0  0  0  0  0
  -30.3535  -11.3063   19.8209 H   0  0  0  0  0  0
  -29.7470  -11.7718   17.4300 H   0  0  0  0  0  0
  -29.6452  -13.4814   17.7664 H   0  0  0  0  0  0
  -27.8377  -11.2721   18.8162 H   0  0  0  0  0  0
  -27.3596  -12.5864   17.7793 H   0  0  0  0  0  0
  -27.6945  -14.2118   19.5355 H   0  0  0  0  0  0
  -28.6940  -11.9059   21.2917 H   0  0  0  0  0  0
  -28.4592  -13.5082   21.8946 H   0  0  0  0  0  0
  -25.2754   -9.5685   22.4781 H   0  0  0  0  0  0
  -24.0044   -7.4592   22.7435 H   0  0  0  0  0  0
  -21.0849   -8.8729   19.8936 H   0  0  0  0  0  0
  -22.3676  -10.9659   19.6159 H   0  0  0  0  0  0
  -21.1976   -7.6158   23.9755 H   0  0  0  0  0  0
  -21.1469   -6.0527   25.9111 H   0  0  0  0  0  0
  -22.0612   -2.7630   23.2843 H   0  0  0  0  0  0
  -22.4093  -11.9874   22.4749 H   0  0  0  0  0  0
  -21.1125  -13.1262   22.2617 H   0  0  0  0  0  0
  -24.7330  -15.8687   20.6115 H   0  0  0  0  0  0
  -26.3837  -15.5821   20.3545 H   0  0  0  0  0  0
  -26.7071  -32.5585   23.1173 H   0  0  0  0  0  0
  -24.9953  -33.9805   25.0438 H   0  0  0  0  0  0
  -22.6858  -31.3099   21.4111 H   0  0  0  0  0  0
  -23.3722  -35.9688   23.3334 H   0  0  0  0  0  0
  -24.3551  -36.8926   22.2051 H   0  0  0  0  0  0
  -23.7251  -37.6557   23.6643 H   0  0  0  0  0  0
  -26.0272  -31.6035   20.5885 H   0  0  0  0  0  0
  -26.8159  -30.9056   21.9758 H   0  0  0  0  0  0
  -28.0959  -29.1333   21.1808 H   0  0  0  0  0  0
  -26.0954  -25.9980   18.9942 H   0  0  0  0  0  0
  -23.9907  -27.3016   19.0249 H   0  0  0  0  0  0
  -23.7151  -30.5997   19.4054 H   0  0  0  0  0  0
  -22.7341  -29.2427   19.8701 H   0  0  0  0  0  0
  -25.1280  -36.1997   25.0830 H   0  0  0  0  0  0
  -20.9939  -28.3233   24.1438 H   0  0  0  0  0  0
  -20.5639  -26.2272   23.3611 H   0  0  0  0  0  0
  -21.6632  -26.7439   22.1223 H   0  0  0  0  0  0
  -19.6901  -25.6292   21.1229 H   0  0  0  0  0  0
  -19.6690  -27.3198   20.6740 H   0  0  0  0  0  0
  -17.4186  -26.6670   21.4009 H   0  0  0  0  0  0
  -18.0317  -26.0063   22.9010 H   0  0  0  0  0  0
  -19.7935  -30.7236   24.2291 H   0  0  0  0  0  0
  -17.5025  -31.6272   24.5164 H   0  0  0  0  0  0
  -15.5348  -30.3009   23.7646 H   0  0  0  0  0  0
  -15.8647  -28.0835   22.7057 H   0  0  0  0  0  0
  -24.5867  -30.7132   25.7824 H   0  0  0  0  0  0
  -24.9004  -32.2900   26.4995 H   0  0  0  0  0  0
  -25.8107  -30.8841   27.0199 H   0  0  0  0  0  0
  -26.2817  -29.6821   24.1149 H   0  0  0  0  0  0
  -27.4077  -29.7303   25.4533 H   0  0  0  0  0  0
  -27.8649  -30.4384   23.9204 H   0  0  0  0  0  0
  -27.2612  -33.3626   26.2104 H   0  0  0  0  0  0
  -28.3802  -32.6985   25.0287 H   0  0  0  0  0  0
  -28.0736  -31.8466   26.5352 H   0  0  0  0  0  0
  -28.2617  -38.0097   24.7480 H   0  0  0  0  0  0
  -28.1048  -36.2627   24.6317 H   0  0  0  0  0  0
  -27.2293  -37.1512   25.8866 H   0  0  0  0  0  0
  -20.9256  -29.8748   21.6947 H   0  0  0  0  0  0
  -26.0184  -38.2888   24.1398 H   0  0  0  0  0  0
  -31.5818  -17.1310   21.6595 H   0  0  0  0  0  0
  -31.3632  -21.4850   21.7416 H   0  0  0  0  0  0
  -31.0886  -22.7667   22.9188 H   0  0  0  0  0  0
  -31.7024  -23.1397   21.3037 H   0  0  0  0  0  0
  -28.0053  -19.8009   20.9364 H   0  0  0  0  0  0
  -29.5979  -20.2121   20.4045 H   0  0  0  0  0  0
  -30.3065  -25.0476   20.1449 H   0  0  0  0  0  0
  -30.8186  -25.3072   21.7901 H   0  0  0  0  0  0
  -28.9627  -19.1641   23.2306 H   0  0  0  0  0  0
  -30.5617  -19.3798   22.5590 H   0  0  0  0  0  0
  -28.7538  -21.5728   22.9722 H   0  0  0  0  0  0
  -27.6954  -21.8689   21.6338 H   0  0  0  0  0  0
  -28.0803  -24.1141   21.1785 H   0  0  0  0  0  0
  -28.8977  -24.1536   22.7173 H   0  0  0  0  0  0
  -29.9359  -27.4101   21.1139 H   0  0  0  0  0  0
  -28.6559  -26.7197   22.1075 H   0  0  0  0  0  0
  -29.6451  -22.5753   20.3705 H   0  0  0  0  0  0
  1 25  1  0  0  0
  1 30  2  0  0  0
  1 72  1  0  0  0
  2  3  1  0  0  0
  2 25  1  0  0  0
  2 84  1  0  0  0
  2 85  1  0  0  0
  3  4  1  0  0  0
  3 86  1  0  0  0
  3 87  1  0  0  0
  4  5  1  0  0  0
  4 88  1  0  0  0
  4 89  1  0  0  0
  5  6  1  0  0  0
  5 26  1  0  0  0
  5 90  1  0  0  0
  6 25  1  0  0  0
  6 91  1  0  0  0
  6 92  1  0  0  0
  7  8  2  0  0  0
  7 26  1  0  0  0
  7 29  1  0  0  0
  8  9  1  0  0  0
  8 22  1  0  0  0
  9 10  1  0  0  0
  9 27  2  0  0  0
 10 11  2  0  0  0
 10 15  1  0  0  0
 11 12  1  0  0  0
 11 93  1  0  0  0
 12 13  2  0  0  0
 12 94  1  0  0  0
 13 14  1  0  0  0
 13 31  1  0  0  0
 14 15  2  0  0  0
 14 95  1  0  0  0
 15 96  1  0  0  0
 16 17  2  0  0  0
 16 21  1  0  0  0
 16 31  1  0  0  0
 17 18  1  0  0  0
 17 97  1  0  0  0
 18 19  2  0  0  0
 18 98  1  0  0  0
 19 20  1  0  0  0
 19 24  1  0  0  0
 20 21  2  0  0  0
 20 99  1  0  0  0
 21 23  1  0  0  0
 22 28  1  0  0  0
 22 32  2  0  0  0
 26 27  1  0  0  0
 28100  1  0  0  0
 28101  1  0  0  0
 29102  1  0  0  0
 29103  1  0  0  0
 33 34  1  0  0  0
 33 66  1  0  0  0
 33 70  2  0  0  0
 34 36  1  0  0  0
 34 59  1  0  0  0
 34104  1  0  0  0
 35 44  2  0  0  0
 35 45  1  0  0  0
 35 68  1  0  0  0
 36 56  1  0  0  0
 36105  1  0  0  0
 37 39  1  0  0  0
 37 47  1  0  0  0
 37 66  1  0  0  0
 37106  1  0  0  0
 38 43  2  0  0  0
 38 46  1  0  0  0
 38 47  1  0  0  0
 39 64  1  0  0  0
 39 67  2  0  0  0
 40 52  1  0  0  0
 40 53  2  0  0  0
 40 58  1  0  0  0
 41107  1  0  0  0
 41108  1  0  0  0
 41109  1  0  0  0
 41 48  1  0  0  0
 42 43  1  0  0  0
 42 66  1  0  0  0
 42110  1  0  0  0
 42111  1  0  0  0
 43 44  1  0  0  0
 44112  1  0  0  0
 45 46  2  0  0  0
 45113  1  0  0  0
 46114  1  0  0  0
 47115  1  0  0  0
 47116  1  0  0  0
 48 56  1  0  0  0
 48 65  1  0  0  0
 48117  1  0  0  0
 49 50  1  0  0  0
 49 53  1  0  0  0
 49 64  1  0  0  0
 49118  1  0  0  0
 50 51  1  0  0  0
 50119  1  0  0  0
 50120  1  0  0  0
 51 52  1  0  0  0
 51121  1  0  0  0
 51122  1  0  0  0
 52123  1  0  0  0
 52124  1  0  0  0
 53 54  1  0  0  0
 54 55  2  0  0  0
 54125  1  0  0  0
 55 57  1  0  0  0
 55126  1  0  0  0
 56 69  2  0  0  0
 57 58  2  0  0  0
 57127  1  0  0  0
 58128  1  0  0  0
 59 60  1  0  0  0
 59 61  1  0  0  0
 59 62  1  0  0  0
 60129  1  0  0  0
 60130  1  0  0  0
 60131  1  0  0  0
 61132  1  0  0  0
 61133  1  0  0  0
 61134  1  0  0  0
 62135  1  0  0  0
 62136  1  0  0  0
 62137  1  0  0  0
 63 65  1  0  0  0
 63138  1  0  0  0
 63139  1  0  0  0
 63140  1  0  0  0
 64141  1  0  0  0
 65142  1  0  0  0
 68 79  1  0  0  0
 71 72  2  0  0  0
 71 82  1  0  0  0
 71143  1  0  0  0
 72 80  1  0  0  0
 73144  1  0  0  0
 73145  1  0  0  0
 73146  1  0  0  0
 73 83  1  0  0  0
 74 76  1  0  0  0
 74 77  1  0  0  0
 74147  1  0  0  0
 74148  1  0  0  0
 75 78  1  0  0  0
 75 79  1  0  0  0
 75149  1  0  0  0
 75150  1  0  0  0
 76 82  1  0  0  0
 76151  1  0  0  0
 76152  1  0  0  0
 77 83  1  0  0  0
 77153  1  0  0  0
 77154  1  0  0  0
 78 83  1  0  0  0
 78155  1  0  0  0
 78156  1  0  0  0
 79157  1  0  0  0
 79158  1  0  0  0
 80 81  2  0  0  0
 81 82  1  0  0  0
 83159  1  0  0  0
M  CHG  1  83   1
M  ISO  4   1 100  68 101  72 100  79 101
M  END
> <chiral flag>
0

> <version>
0

> <s_m_source_file>
/data/baiqing/PycharmProjects/Reinvent-master-3.2/result/LINK_invent/BTK/process_docking_weight1_custom_sum_contain_oxygen_bond_distance_aromatic_linkinvent_7_9_3/rearranged_h_0056.sdf

> <i_m_source_file_index>
12

> <r_mmod_Potential_Energy-OPLS-2005>
-79.1958465576172

> <r_mmod_Stretch_Energy-OPLS-2005>
39.0048980712891

> <r_mmod_Bend_Energy-OPLS-2005>
108.03833770752

> <r_mmod_Torsional_Energy-OPLS-2005>
231.79133605957

> <r_mmod_Improper_Torsional_Energy-OPLS-2005>
4.11968564987183

> <r_mmod_Van_der_Waal_Energy-OPLS-2005>
129.584197998047

> <r_mmod_Electrostatic_Energy-OPLS-2005>
-167.803695678711

> <r_mmod_Solvation_Energy-OPLS-2005>
-437.561096191406

> <b_mmod_Minimization_Converged-OPLS-2005>
0

> <r_mmod_RMS_Derivative-OPLS-2005>
3.0051703453064

$$$$
13
                    3D
 Structure written by MMmdl.
169177  0  0  1  0            999 V2000
  -30.6453  -14.7174   20.3472 C   0  0  0  0  0  0
  -30.4343  -12.3999   19.4618 C   0  0  0  0  0  0
  -29.5082  -12.3882   18.2267 C   0  0  0  0  0  0
  -28.0206  -12.3136   18.6363 C   0  0  0  0  0  0
  -27.6387  -13.2144   19.8471 C   0  0  2  0  0  0
  -28.7053  -13.1839   20.9596 C   0  0  0  0  0  0
  -25.2533  -13.8135   20.5717 C   0  0  0  0  0  0
  -24.1806  -13.0426   20.9170 C   0  0  0  0  0  0
  -24.6384  -11.6886   20.8751 C   0  0  0  0  0  0
  -23.9067  -10.4275   21.0410 C   0  0  0  0  0  0
  -24.3622   -9.4180   21.9180 C   0  0  0  0  0  0
  -23.6286   -8.2232   22.0778 C   0  0  0  0  0  0
  -22.4272   -8.0267   21.3551 C   0  0  0  0  0  0
  -21.9901   -9.0244   20.4666 C   0  0  0  0  0  0
  -22.7234  -10.2120   20.3056 C   0  0  0  0  0  0
  -21.6853   -6.0719   22.5253 C   0  0  0  0  0  0
  -21.4020   -6.5629   23.8186 C   0  0  0  0  0  0
  -21.3649   -5.6787   24.9150 C   0  0  0  0  0  0
  -21.6080   -4.3049   24.7216 C   0  0  0  0  0  0
  -21.8814   -3.8126   23.4334 C   0  0  0  0  0  0
  -21.9206   -4.6950   22.3377 C   0  0  0  0  0  0
  -22.7812  -13.5211   21.1778 C   0  0  0  0  0  0
  -22.1659   -4.2121   21.0960 F   0  0  0  0  0  0
  -21.5636   -3.4541   25.7728 F   0  0  0  0  0  0
  -29.9941  -13.5054   20.3315 N   0  0  0  0  0  0
  -26.2964  -12.9308   20.3380 N   0  0  0  0  0  0
  -25.9338  -11.6476   20.5869 N   0  0  0  0  0  0
  -22.0481  -12.8254   22.0359 N   0  0  0  0  0  0
  -25.4280  -15.1872   20.4112 N   0  0  0  0  0  0
  -31.8734  -14.7692   20.2677 O   0  0  0  0  0  0
  -21.6650   -6.8860   21.4214 O   0  0  0  0  0  0
  -22.3527  -14.5519   20.6584 O   0  0  0  0  0  0
  -24.6234  -31.8582   23.2025 C   0  0  0  0  0  0
  -25.9080  -32.4767   23.8356 C   0  0  1  0  0  0
  -27.2513  -27.3532   20.1108 C   0  0  0  0  0  0
  -25.5890  -33.8575   24.2278 N   0  0  0  0  0  0
  -23.4203  -30.4765   21.5425 C   0  0  2  0  0  0
  -24.8736  -28.9333   20.1138 C   0  0  0  0  0  0
  -22.7482  -29.4591   22.4935 C   0  0  0  0  0  0
  -18.0285  -28.1376   22.8500 C   0  0  0  0  0  0
  -24.1477  -36.7286   23.2642 C   0  0  0  0  0  0
  -25.9580  -30.7966   21.3753 C   0  0  0  0  0  0
  -26.0357  -29.4274   20.7164 C   0  0  0  0  0  0
  -27.2236  -28.6464   20.7080 C   0  0  0  0  0  0
  -26.0678  -26.9027   19.4798 C   0  0  0  0  0  0
  -24.8901  -27.6742   19.4884 C   0  0  0  0  0  0
  -23.6376  -29.8053   20.1605 C   0  0  0  0  0  0
  -25.4108  -36.3086   24.0329 C   0  0  1  0  0  0
  -20.5889  -28.3665   23.1304 C   0  0  2  0  0  0
  -20.6765  -26.9382   22.5424 C   0  0  0  0  0  0
  -19.5731  -26.6377   21.5235 C   0  0  0  0  0  0
  -18.1917  -26.7922   22.1644 C   0  0  0  0  0  0
  -19.1531  -28.8845   23.2902 C   0  0  0  0  0  0
  -18.9445  -30.1461   23.8899 C   0  0  0  0  0  0
  -17.6446  -30.6579   24.0566 C   0  0  0  0  0  0
  -25.9044  -34.9450   23.5114 C   0  0  0  0  0  0
  -16.5344  -29.9072   23.6331 C   0  0  0  0  0  0
  -16.7271  -28.6500   23.0345 C   0  0  0  0  0  0
  -26.4484  -31.6588   25.0725 C   0  0  0  0  0  0
  -25.3730  -31.3707   26.1457 C   0  0  0  0  0  0
  -27.0319  -30.3004   24.6184 C   0  0  0  0  0  0
  -27.6031  -32.4342   25.7498 C   0  0  0  0  0  0
  -27.5580  -37.1802   24.8467 C   0  0  0  0  0  0
  -21.4193  -29.3012   22.3694 N   0  0  0  0  0  0
  -26.4290  -37.3778   23.9410 N   0  0  0  0  0  0
  -24.6845  -31.0610   22.0960 N   0  0  0  0  0  0
  -23.4202  -28.8135   23.3019 O   0  0  0  0  0  0
  -28.4116  -26.5743   20.1744 O   0  0  0  0  0  0
  -26.5618  -34.8918   22.4681 O   0  0  0  0  0  0
  -23.5405  -32.1357   23.7365 O   0  0  0  0  0  0
  -29.4806  -20.4488   21.2501 C   0  0  0  0  0  0
  -30.1636  -19.9442   20.1161 C   0  0  0  0  0  0
  -30.1506  -22.1626   19.2521 C   0  0  0  0  0  0
  -29.5114  -22.6873   20.4251 C   0  0  0  0  0  0
  -29.7511  -22.6433   16.7970 C   0  0  0  0  0  0
  -32.1493  -18.3317   20.2296 C   0  0  0  0  0  0
  -30.7634  -24.8821   20.8761 C   0  0  0  0  0  0
  -28.7186  -24.3802   22.1906 C   0  0  0  0  0  0
  -29.5389  -15.9703   18.5898 C   0  0  0  0  0  0
  -30.5380  -23.0287   18.0556 C   0  0  0  0  0  0
  -29.8738  -17.2312   20.6457 C   0  0  0  0  0  0
  -28.4018  -25.1362   19.8614 C   0  0  0  0  0  0
  -30.6447  -18.4450   19.9268 C   0  0  1  0  0  0
  -29.3517  -24.2396   20.7824 C   0  0  0  0  0  0
  -29.1812  -21.7787   21.4008 N   0  0  0  0  0  0
  -30.4775  -20.8310   19.1220 N   0  0  0  0  0  0
  -29.9031  -15.8441   20.0099 N   0  0  0  0  0  0
  -31.4784  -12.5027   19.1598 H   0  0  0  0  0  0
  -30.3662  -11.4522   19.9994 H   0  0  0  0  0  0
  -29.7523  -11.5278   17.6051 H   0  0  0  0  0  0
  -29.6977  -13.2475   17.5905 H   0  0  0  0  0  0
  -27.8126  -11.2709   18.8797 H   0  0  0  0  0  0
  -27.3892  -12.5491   17.7794 H   0  0  0  0  0  0
  -27.5967  -14.2323   19.4789 H   0  0  0  0  0  0
  -28.7444  -12.2059   21.4416 H   0  0  0  0  0  0
  -28.4731  -13.9082   21.7405 H   0  0  0  0  0  0
  -25.2786   -9.5674   22.4738 H   0  0  0  0  0  0
  -23.9985   -7.4660   22.7530 H   0  0  0  0  0  0
  -21.0824   -8.8789   19.8988 H   0  0  0  0  0  0
  -22.3698  -10.9672   19.6173 H   0  0  0  0  0  0
  -21.1996   -7.6127   23.9666 H   0  0  0  0  0  0
  -21.1485   -6.0521   25.9054 H   0  0  0  0  0  0
  -22.0613   -2.7583   23.2842 H   0  0  0  0  0  0
  -22.4120  -11.9913   22.4732 H   0  0  0  0  0  0
  -21.1109  -13.1291   22.2600 H   0  0  0  0  0  0
  -24.6666  -15.8468   20.5303 H   0  0  0  0  0  0
  -26.2980  -15.6297   20.1424 H   0  0  0  0  0  0
  -26.7146  -32.5453   23.1109 H   0  0  0  0  0  0
  -25.0023  -33.9717   25.0413 H   0  0  0  0  0  0
  -22.7153  -31.2951   21.3925 H   0  0  0  0  0  0
  -23.3754  -35.9606   23.3315 H   0  0  0  0  0  0
  -24.3577  -36.8900   22.2062 H   0  0  0  0  0  0
  -23.7221  -37.6479   23.6666 H   0  0  0  0  0  0
  -26.0979  -31.5648   20.6134 H   0  0  0  0  0  0
  -26.8356  -30.8380   22.0103 H   0  0  0  0  0  0
  -28.1193  -29.0228   21.1837 H   0  0  0  0  0  0
  -26.0296  -25.9510   18.9718 H   0  0  0  0  0  0
  -24.0020  -27.2911   19.0055 H   0  0  0  0  0  0
  -23.7568  -30.5749   19.3969 H   0  0  0  0  0  0
  -22.7643  -29.2231   19.8605 H   0  0  0  0  0  0
  -25.1298  -36.1940   25.0825 H   0  0  0  0  0  0
  -20.9993  -28.3232   24.1424 H   0  0  0  0  0  0
  -20.5688  -26.2258   23.3614 H   0  0  0  0  0  0
  -21.6623  -26.7408   22.1195 H   0  0  0  0  0  0
  -19.6875  -25.6299   21.1237 H   0  0  0  0  0  0
  -19.6678  -27.3211   20.6790 H   0  0  0  0  0  0
  -17.4190  -26.6700   21.4042 H   0  0  0  0  0  0
  -18.0294  -26.0064   22.9035 H   0  0  0  0  0  0
  -19.7926  -30.7292   24.2256 H   0  0  0  0  0  0
  -17.4986  -31.6253   24.5156 H   0  0  0  0  0  0
  -15.5337  -30.2957   23.7658 H   0  0  0  0  0  0
  -15.8678  -28.0822   22.7029 H   0  0  0  0  0  0
  -24.5885  -30.7083   25.7790 H   0  0  0  0  0  0
  -24.8940  -32.2855   26.4950 H   0  0  0  0  0  0
  -25.8062  -30.8833   27.0196 H   0  0  0  0  0  0
  -26.2882  -29.6772   24.1194 H   0  0  0  0  0  0
  -27.3985  -29.7258   25.4705 H   0  0  0  0  0  0
  -27.8779  -30.4291   23.9426 H   0  0  0  0  0  0
  -27.2613  -33.3634   26.2073 H   0  0  0  0  0  0
  -28.3827  -32.6921   25.0320 H   0  0  0  0  0  0
  -28.0699  -31.8470   26.5412 H   0  0  0  0  0  0
  -28.2594  -38.0102   24.7507 H   0  0  0  0  0  0
  -28.1072  -36.2629   24.6296 H   0  0  0  0  0  0
  -27.2289  -37.1452   25.8866 H   0  0  0  0  0  0
  -20.9379  -29.8734   21.6902 H   0  0  0  0  0  0
  -26.0175  -38.2853   24.1409 H   0  0  0  0  0  0
  -29.1992  -19.7889   22.0573 H   0  0  0  0  0  0
  -28.6757  -22.6465   16.9803 H   0  0  0  0  0  0
  -30.0295  -21.6436   16.4664 H   0  0  0  0  0  0
  -29.9580  -23.3335   15.9803 H   0  0  0  0  0  0
  -32.7333  -19.0607   19.6646 H   0  0  0  0  0  0
  -32.5259  -17.3448   19.9637 H   0  0  0  0  0  0
  -32.3603  -18.4921   21.2876 H   0  0  0  0  0  0
  -31.5035  -24.1717   21.2523 H   0  0  0  0  0  0
  -30.7733  -25.7362   21.5548 H   0  0  0  0  0  0
  -31.1275  -25.2586   19.9206 H   0  0  0  0  0  0
  -29.3439  -23.9354   22.9643 H   0  0  0  0  0  0
  -27.7388  -23.9033   22.2346 H   0  0  0  0  0  0
  -28.5721  -25.4253   22.4634 H   0  0  0  0  0  0
  -28.9053  -16.8368   18.3988 H   0  0  0  0  0  0
  -28.9805  -15.1252   18.2095 H   0  0  0  0  0  0
  -30.4312  -16.0656   17.9683 H   0  0  0  0  0  0
  -31.6096  -22.9482   17.8718 H   0  0  0  0  0  0
  -30.3839  -24.0845   18.2477 H   0  0  0  0  0  0
  -28.8173  -17.4992   20.6892 H   0  0  0  0  0  0
  -30.1825  -17.1627   21.6895 H   0  0  0  0  0  0
  -27.4053  -24.7066   19.9376 H   0  0  0  0  0  0
  -28.6512  -25.0770   18.8063 H   0  0  0  0  0  0
  -30.5533  -18.3102   18.8510 H   0  0  0  0  0  0
  1 25  1  0  0  0
  1 30  2  0  0  0
  1 87  1  0  0  0
  2  3  1  0  0  0
  2 25  1  0  0  0
  2 88  1  0  0  0
  2 89  1  0  0  0
  3  4  1  0  0  0
  3 90  1  0  0  0
  3 91  1  0  0  0
  4  5  1  0  0  0
  4 92  1  0  0  0
  4 93  1  0  0  0
  5  6  1  0  0  0
  5 26  1  0  0  0
  5 94  1  0  0  0
  6 25  1  0  0  0
  6 95  1  0  0  0
  6 96  1  0  0  0
  7  8  2  0  0  0
  7 26  1  0  0  0
  7 29  1  0  0  0
  8  9  1  0  0  0
  8 22  1  0  0  0
  9 10  1  0  0  0
  9 27  2  0  0  0
 10 11  2  0  0  0
 10 15  1  0  0  0
 11 12  1  0  0  0
 11 97  1  0  0  0
 12 13  2  0  0  0
 12 98  1  0  0  0
 13 14  1  0  0  0
 13 31  1  0  0  0
 14 15  2  0  0  0
 14 99  1  0  0  0
 15100  1  0  0  0
 16 17  2  0  0  0
 16 21  1  0  0  0
 16 31  1  0  0  0
 17 18  1  0  0  0
 17101  1  0  0  0
 18 19  2  0  0  0
 18102  1  0  0  0
 19 20  1  0  0  0
 19 24  1  0  0  0
 20 21  2  0  0  0
 20103  1  0  0  0
 21 23  1  0  0  0
 22 28  1  0  0  0
 22 32  2  0  0  0
 26 27  1  0  0  0
 28104  1  0  0  0
 28105  1  0  0  0
 29106  1  0  0  0
 29107  1  0  0  0
 33 34  1  0  0  0
 33 66  1  0  0  0
 33 70  2  0  0  0
 34 36  1  0  0  0
 34 59  1  0  0  0
 34108  1  0  0  0
 35 44  2  0  0  0
 35 45  1  0  0  0
 35 68  1  0  0  0
 36 56  1  0  0  0
 36109  1  0  0  0
 37 39  1  0  0  0
 37 47  1  0  0  0
 37 66  1  0  0  0
 37110  1  0  0  0
 38 43  2  0  0  0
 38 46  1  0  0  0
 38 47  1  0  0  0
 39 64  1  0  0  0
 39 67  2  0  0  0
 40 52  1  0  0  0
 40 53  2  0  0  0
 40 58  1  0  0  0
 41111  1  0  0  0
 41112  1  0  0  0
 41113  1  0  0  0
 41 48  1  0  0  0
 42 43  1  0  0  0
 42 66  1  0  0  0
 42114  1  0  0  0
 42115  1  0  0  0
 43 44  1  0  0  0
 44116  1  0  0  0
 45 46  2  0  0  0
 45117  1  0  0  0
 46118  1  0  0  0
 47119  1  0  0  0
 47120  1  0  0  0
 48 56  1  0  0  0
 48 65  1  0  0  0
 48121  1  0  0  0
 49 50  1  0  0  0
 49 53  1  0  0  0
 49 64  1  0  0  0
 49122  1  0  0  0
 50 51  1  0  0  0
 50123  1  0  0  0
 50124  1  0  0  0
 51 52  1  0  0  0
 51125  1  0  0  0
 51126  1  0  0  0
 52127  1  0  0  0
 52128  1  0  0  0
 53 54  1  0  0  0
 54 55  2  0  0  0
 54129  1  0  0  0
 55 57  1  0  0  0
 55130  1  0  0  0
 56 69  2  0  0  0
 57 58  2  0  0  0
 57131  1  0  0  0
 58132  1  0  0  0
 59 60  1  0  0  0
 59 61  1  0  0  0
 59 62  1  0  0  0
 60133  1  0  0  0
 60134  1  0  0  0
 60135  1  0  0  0
 61136  1  0  0  0
 61137  1  0  0  0
 61138  1  0  0  0
 62139  1  0  0  0
 62140  1  0  0  0
 62141  1  0  0  0
 63 65  1  0  0  0
 63142  1  0  0  0
 63143  1  0  0  0
 63144  1  0  0  0
 64145  1  0  0  0
 65146  1  0  0  0
 68 82  1  0  0  0
 71 72  2  0  0  0
 71 85  1  0  0  0
 71147  1  0  0  0
 72 83  1  0  0  0
 72 86  1  0  0  0
 73 74  1  0  0  0
 73 80  1  0  0  0
 73 86  2  0  0  0
 74 84  1  0  0  0
 74 85  2  0  0  0
 75 80  1  0  0  0
 75148  1  0  0  0
 75149  1  0  0  0
 75150  1  0  0  0
 76151  1  0  0  0
 76152  1  0  0  0
 76153  1  0  0  0
 76 83  1  0  0  0
 77154  1  0  0  0
 77155  1  0  0  0
 77156  1  0  0  0
 77 84  1  0  0  0
 78 84  1  0  0  0
 78157  1  0  0  0
 78158  1  0  0  0
 78159  1  0  0  0
 79 87  1  0  0  0
 79160  1  0  0  0
 79161  1  0  0  0
 79162  1  0  0  0
 80163  1  0  0  0
 80164  1  0  0  0
 81 83  1  0  0  0
 81 87  1  0  0  0
 81165  1  0  0  0
 81166  1  0  0  0
 82 84  1  0  0  0
 82167  1  0  0  0
 82168  1  0  0  0
 83169  1  0  0  0
M  ISO  4   1 100  68 101  82 101  87 100
M  END
> <chiral flag>
0

> <version>
0

> <s_m_source_file>
/data/baiqing/PycharmProjects/Reinvent-master-3.2/result/LINK_invent/BTK/process_docking_weight1_custom_sum_contain_oxygen_bond_distance_aromatic_linkinvent_7_9_3/rearranged_h_0056.sdf

> <i_m_source_file_index>
13

> <r_mmod_Potential_Energy-OPLS-2005>
386.466796875

> <r_mmod_Stretch_Energy-OPLS-2005>
101.994117736816

> <r_mmod_Bend_Energy-OPLS-2005>
171.175338745117

> <r_mmod_Torsional_Energy-OPLS-2005>
323.608428955078

> <r_mmod_Improper_Torsional_Energy-OPLS-2005>
15.0418548583984

> <r_mmod_Van_der_Waal_Energy-OPLS-2005>
157.535430908203

> <r_mmod_Electrostatic_Energy-OPLS-2005>
-257.784912109375

> <r_mmod_Solvation_Energy-OPLS-2005>
-195.993057250977

> <b_mmod_Minimization_Converged-OPLS-2005>
0

> <r_mmod_RMS_Derivative-OPLS-2005>
4.67514038085938

$$$$
15
                    3D
 Structure written by MMmdl.
162170  0  0  1  0            999 V2000
  -30.6351  -14.7395   20.4844 C   0  0  0  0  0  0
  -30.4296  -12.4579   19.4638 C   0  0  0  0  0  0
  -29.5022  -12.4937   18.2339 C   0  0  0  0  0  0
  -28.0308  -12.3189   18.6556 C   0  0  0  0  0  0
  -27.6381  -13.2299   19.8488 C   0  0  2  0  0  0
  -28.6886  -13.1739   20.9794 C   0  0  0  0  0  0
  -25.2520  -13.8196   20.5788 C   0  0  0  0  0  0
  -24.1798  -13.0436   20.9234 C   0  0  0  0  0  0
  -24.6374  -11.6913   20.8757 C   0  0  0  0  0  0
  -23.9060  -10.4299   21.0398 C   0  0  0  0  0  0
  -24.3611   -9.4221   21.9178 C   0  0  0  0  0  0
  -23.6287   -8.2251   22.0747 C   0  0  0  0  0  0
  -22.4277   -8.0284   21.3528 C   0  0  0  0  0  0
  -21.9904   -9.0264   20.4641 C   0  0  0  0  0  0
  -22.7223  -10.2151   20.3054 C   0  0  0  0  0  0
  -21.6853   -6.0744   22.5271 C   0  0  0  0  0  0
  -21.4004   -6.5648   23.8206 C   0  0  0  0  0  0
  -21.3662   -5.6802   24.9170 C   0  0  0  0  0  0
  -21.6040   -4.3067   24.7216 C   0  0  0  0  0  0
  -21.8812   -3.8153   23.4342 C   0  0  0  0  0  0
  -21.9191   -4.6967   22.3393 C   0  0  0  0  0  0
  -22.7823  -13.5219   21.1885 C   0  0  0  0  0  0
  -22.1655   -4.2153   21.0971 F   0  0  0  0  0  0
  -21.5623   -3.4544   25.7733 F   0  0  0  0  0  0
  -29.9826  -13.5297   20.3819 N   0  0  0  0  0  0
  -26.2929  -12.9394   20.3313 N   0  0  0  0  0  0
  -25.9309  -11.6540   20.5772 N   0  0  0  0  0  0
  -22.0486  -12.8204   22.0450 N   0  0  0  0  0  0
  -25.4286  -15.1918   20.4308 N   0  0  0  0  0  0
  -31.8313  -14.8046   20.1961 O   0  0  0  0  0  0
  -21.6642   -6.8888   21.4234 O   0  0  0  0  0  0
  -22.3503  -14.5531   20.6761 O   0  0  0  0  0  0
  -24.6316  -31.8542   23.1992 C   0  0  0  0  0  0
  -25.9145  -32.4744   23.8326 C   0  0  1  0  0  0
  -27.2155  -27.2607   20.1187 C   0  0  0  0  0  0
  -25.5942  -33.8550   24.2246 N   0  0  0  0  0  0
  -23.4285  -30.4780   21.5425 C   0  0  2  0  0  0
  -24.8755  -28.9355   20.1048 C   0  0  0  0  0  0
  -22.7505  -29.4601   22.4914 C   0  0  0  0  0  0
  -18.0285  -28.1399   22.8483 C   0  0  0  0  0  0
  -24.1497  -36.7278   23.2644 C   0  0  0  0  0  0
  -25.9756  -30.7645   21.3849 C   0  0  0  0  0  0
  -26.0464  -29.3885   20.7246 C   0  0  0  0  0  0
  -27.2185  -28.5621   20.7271 C   0  0  0  0  0  0
  -26.0244  -26.8942   19.4459 C   0  0  0  0  0  0
  -24.8709  -27.6967   19.4528 C   0  0  0  0  0  0
  -23.6455  -29.8186   20.1572 C   0  0  0  0  0  0
  -25.4127  -36.3051   24.0321 C   0  0  1  0  0  0
  -20.5882  -28.3748   23.1286 C   0  0  2  0  0  0
  -20.6766  -26.9425   22.5560 C   0  0  0  0  0  0
  -19.5806  -26.6337   21.5311 C   0  0  0  0  0  0
  -18.1955  -26.7921   22.1653 C   0  0  0  0  0  0
  -19.1528  -28.8900   23.2847 C   0  0  0  0  0  0
  -18.9441  -30.1518   23.8816 C   0  0  0  0  0  0
  -17.6439  -30.6625   24.0502 C   0  0  0  0  0  0
  -25.9064  -34.9425   23.5081 C   0  0  0  0  0  0
  -16.5339  -29.9081   23.6313 C   0  0  0  0  0  0
  -16.7263  -28.6493   23.0352 C   0  0  0  0  0  0
  -26.4511  -31.6561   25.0720 C   0  0  0  0  0  0
  -25.3734  -31.3727   26.1442 C   0  0  0  0  0  0
  -27.0358  -30.2966   24.6230 C   0  0  0  0  0  0
  -27.6056  -32.4308   25.7494 C   0  0  0  0  0  0
  -27.5571  -37.1798   24.8469 C   0  0  0  0  0  0
  -21.4219  -29.3024   22.3624 N   0  0  0  0  0  0
  -26.4293  -37.3755   23.9398 N   0  0  0  0  0  0
  -24.6975  -31.0510   22.0973 N   0  0  0  0  0  0
  -23.4190  -28.8163   23.3044 O   0  0  0  0  0  0
  -28.2922  -26.3392   20.1990 O   0  0  0  0  0  0
  -26.5647  -34.8908   22.4655 O   0  0  0  0  0  0
  -23.5463  -32.1371   23.7277 O   0  0  0  0  0  0
  -28.9683  -19.6795   21.1223 C   0  0  0  0  0  0
  -29.9108  -20.3566   19.3260 C   0  0  0  0  0  0
  -29.7671  -18.6134   20.6652 C   0  0  0  0  0  0
  -29.5156  -17.1946   22.7397 C   0  0  0  0  0  0
  -31.7188  -17.3831   21.6566 C   0  0  0  0  0  0
  -27.0992  -21.9879   21.2906 C   0  0  0  0  0  0
  -27.4786  -22.0726   18.8340 C   0  0  0  0  0  0
  -28.8837  -23.5829   20.3545 C   0  0  0  0  0  0
  -27.9998  -24.8853   19.9307 C   0  0  0  0  0  0
  -30.2074  -17.2467   21.3609 C   0  0  0  0  0  0
  -28.1929  -22.1053   20.2033 C   0  0  0  0  0  0
  -30.3475  -19.0908   19.4844 N   0  0  0  0  0  0
  -29.0287  -20.8074   20.2439 N   0  0  0  0  0  0
  -29.8805  -15.8769   20.7461 N   0  0  0  0  0  0
  -31.4679  -12.5835   19.1506 H   0  0  0  0  0  0
  -30.3800  -11.4861   19.9572 H   0  0  0  0  0  0
  -29.7850  -11.7093   17.5303 H   0  0  0  0  0  0
  -29.6227  -13.4417   17.7072 H   0  0  0  0  0  0
  -27.8965  -11.2741   18.9374 H   0  0  0  0  0  0
  -27.3674  -12.4930   17.8077 H   0  0  0  0  0  0
  -27.6290  -14.2477   19.4568 H   0  0  0  0  0  0
  -28.7317  -12.1768   21.4187 H   0  0  0  0  0  0
  -28.4265  -13.8528   21.7916 H   0  0  0  0  0  0
  -25.2754   -9.5723   22.4748 H   0  0  0  0  0  0
  -24.0006   -7.4650   22.7481 H   0  0  0  0  0  0
  -21.0827   -8.8785   19.8949 H   0  0  0  0  0  0
  -22.3664  -10.9697   19.6179 H   0  0  0  0  0  0
  -21.1999   -7.6158   23.9701 H   0  0  0  0  0  0
  -21.1484   -6.0542   25.9074 H   0  0  0  0  0  0
  -22.0593   -2.7616   23.2838 H   0  0  0  0  0  0
  -22.4096  -11.9845   22.4795 H   0  0  0  0  0  0
  -21.1099  -13.1232   22.2683 H   0  0  0  0  0  0
  -24.6760  -15.8547   20.5857 H   0  0  0  0  0  0
  -26.2899  -15.6358   20.1386 H   0  0  0  0  0  0
  -26.7217  -32.5385   23.1070 H   0  0  0  0  0  0
  -25.0064  -33.9689   25.0371 H   0  0  0  0  0  0
  -22.7249  -31.2997   21.3993 H   0  0  0  0  0  0
  -23.3744  -35.9624   23.3317 H   0  0  0  0  0  0
  -24.3579  -36.8890   22.2051 H   0  0  0  0  0  0
  -23.7267  -37.6494   23.6665 H   0  0  0  0  0  0
  -26.1221  -31.5263   20.6186 H   0  0  0  0  0  0
  -26.8515  -30.8073   22.0190 H   0  0  0  0  0  0
  -28.1085  -28.8968   21.2409 H   0  0  0  0  0  0
  -25.9400  -25.9618   18.9101 H   0  0  0  0  0  0
  -23.9792  -27.3538   18.9451 H   0  0  0  0  0  0
  -23.7672  -30.5962   19.4023 H   0  0  0  0  0  0
  -22.7629  -29.2516   19.8548 H   0  0  0  0  0  0
  -25.1303  -36.1897   25.0813 H   0  0  0  0  0  0
  -20.9942  -28.3432   24.1435 H   0  0  0  0  0  0
  -20.5596  -26.2419   23.3835 H   0  0  0  0  0  0
  -21.6661  -26.7367   22.1447 H   0  0  0  0  0  0
  -19.7018  -25.6209   21.1445 H   0  0  0  0  0  0
  -19.6818  -27.3065   20.6799 H   0  0  0  0  0  0
  -17.4245  -26.6643   21.4039 H   0  0  0  0  0  0
  -18.0312  -26.0084   22.9064 H   0  0  0  0  0  0
  -19.7925  -30.7368   24.2134 H   0  0  0  0  0  0
  -17.4976  -31.6315   24.5065 H   0  0  0  0  0  0
  -15.5330  -30.2970   23.7632 H   0  0  0  0  0  0
  -15.8658  -28.0802   22.7114 H   0  0  0  0  0  0
  -24.5924  -30.7065   25.7773 H   0  0  0  0  0  0
  -24.8935  -32.2914   26.4820 H   0  0  0  0  0  0
  -25.8055  -30.8933   27.0238 H   0  0  0  0  0  0
  -26.2951  -29.6710   24.1254 H   0  0  0  0  0  0
  -27.4021  -29.7227   25.4748 H   0  0  0  0  0  0
  -27.8832  -30.4209   23.9492 H   0  0  0  0  0  0
  -27.2655  -33.3622   26.2030 H   0  0  0  0  0  0
  -28.3893  -32.6843   25.0345 H   0  0  0  0  0  0
  -28.0708  -31.8473   26.5449 H   0  0  0  0  0  0
  -28.2597  -38.0082   24.7476 H   0  0  0  0  0  0
  -28.1050  -36.2604   24.6338 H   0  0  0  0  0  0
  -27.2285  -37.1506   25.8874 H   0  0  0  0  0  0
  -20.9428  -29.8639   21.6720 H   0  0  0  0  0  0
  -26.0157  -38.2830   24.1389 H   0  0  0  0  0  0
  -28.3583  -19.7155   22.0147 H   0  0  0  0  0  0
  -30.1896  -20.9522   18.4683 H   0  0  0  0  0  0
  -29.7394  -18.0804   23.3352 H   0  0  0  0  0  0
  -29.8411  -16.3325   23.3222 H   0  0  0  0  0  0
  -28.4308  -17.1365   22.6394 H   0  0  0  0  0  0
  -31.9262  -18.2917   22.2252 H   0  0  0  0  0  0
  -32.3013  -17.4440   20.7362 H   0  0  0  0  0  0
  -32.1063  -16.5491   22.2410 H   0  0  0  0  0  0
  -26.3851  -22.8097   21.2623 H   0  0  0  0  0  0
  -27.5270  -21.9706   22.2931 H   0  0  0  0  0  0
  -26.5121  -21.0742   21.1701 H   0  0  0  0  0  0
  -26.7139  -22.8427   18.7384 H   0  0  0  0  0  0
  -26.9781  -21.1162   18.6742 H   0  0  0  0  0  0
  -28.1859  -22.2130   18.0130 H   0  0  0  0  0  0
  -29.1941  -23.7057   21.3931 H   0  0  0  0  0  0
  -29.8071  -23.6016   19.7745 H   0  0  0  0  0  0
  -27.0138  -24.6968   20.3481 H   0  0  0  0  0  0
  -27.8928  -24.8259   18.8472 H   0  0  0  0  0  0
  -28.8921  -15.6898   20.7366 H   0  0  0  0  0  0
  1 25  1  0  0  0
  1 30  2  0  0  0
  1 84  1  0  0  0
  2  3  1  0  0  0
  2 25  1  0  0  0
  2 85  1  0  0  0
  2 86  1  0  0  0
  3  4  1  0  0  0
  3 87  1  0  0  0
  3 88  1  0  0  0
  4  5  1  0  0  0
  4 89  1  0  0  0
  4 90  1  0  0  0
  5  6  1  0  0  0
  5 26  1  0  0  0
  5 91  1  0  0  0
  6 25  1  0  0  0
  6 92  1  0  0  0
  6 93  1  0  0  0
  7  8  2  0  0  0
  7 26  1  0  0  0
  7 29  1  0  0  0
  8  9  1  0  0  0
  8 22  1  0  0  0
  9 10  1  0  0  0
  9 27  2  0  0  0
 10 11  2  0  0  0
 10 15  1  0  0  0
 11 12  1  0  0  0
 11 94  1  0  0  0
 12 13  2  0  0  0
 12 95  1  0  0  0
 13 14  1  0  0  0
 13 31  1  0  0  0
 14 15  2  0  0  0
 14 96  1  0  0  0
 15 97  1  0  0  0
 16 17  2  0  0  0
 16 21  1  0  0  0
 16 31  1  0  0  0
 17 18  1  0  0  0
 17 98  1  0  0  0
 18 19  2  0  0  0
 18 99  1  0  0  0
 19 20  1  0  0  0
 19 24  1  0  0  0
 20 21  2  0  0  0
 20100  1  0  0  0
 21 23  1  0  0  0
 22 28  1  0  0  0
 22 32  2  0  0  0
 26 27  1  0  0  0
 28101  1  0  0  0
 28102  1  0  0  0
 29103  1  0  0  0
 29104  1  0  0  0
 33 34  1  0  0  0
 33 66  1  0  0  0
 33 70  2  0  0  0
 34 36  1  0  0  0
 34 59  1  0  0  0
 34105  1  0  0  0
 35 44  2  0  0  0
 35 45  1  0  0  0
 35 68  1  0  0  0
 36 56  1  0  0  0
 36106  1  0  0  0
 37 39  1  0  0  0
 37 47  1  0  0  0
 37 66  1  0  0  0
 37107  1  0  0  0
 38 43  2  0  0  0
 38 46  1  0  0  0
 38 47  1  0  0  0
 39 64  1  0  0  0
 39 67  2  0  0  0
 40 52  1  0  0  0
 40 53  2  0  0  0
 40 58  1  0  0  0
 41108  1  0  0  0
 41109  1  0  0  0
 41110  1  0  0  0
 41 48  1  0  0  0
 42 43  1  0  0  0
 42 66  1  0  0  0
 42111  1  0  0  0
 42112  1  0  0  0
 43 44  1  0  0  0
 44113  1  0  0  0
 45 46  2  0  0  0
 45114  1  0  0  0
 46115  1  0  0  0
 47116  1  0  0  0
 47117  1  0  0  0
 48 56  1  0  0  0
 48 65  1  0  0  0
 48118  1  0  0  0
 49 50  1  0  0  0
 49 53  1  0  0  0
 49 64  1  0  0  0
 49119  1  0  0  0
 50 51  1  0  0  0
 50120  1  0  0  0
 50121  1  0  0  0
 51 52  1  0  0  0
 51122  1  0  0  0
 51123  1  0  0  0
 52124  1  0  0  0
 52125  1  0  0  0
 53 54  1  0  0  0
 54 55  2  0  0  0
 54126  1  0  0  0
 55 57  1  0  0  0
 55127  1  0  0  0
 56 69  2  0  0  0
 57 58  2  0  0  0
 57128  1  0  0  0
 58129  1  0  0  0
 59 60  1  0  0  0
 59 61  1  0  0  0
 59 62  1  0  0  0
 60130  1  0  0  0
 60131  1  0  0  0
 60132  1  0  0  0
 61133  1  0  0  0
 61134  1  0  0  0
 61135  1  0  0  0
 62136  1  0  0  0
 62137  1  0  0  0
 62138  1  0  0  0
 63 65  1  0  0  0
 63139  1  0  0  0
 63140  1  0  0  0
 63141  1  0  0  0
 64142  1  0  0  0
 65143  1  0  0  0
 68 79  1  0  0  0
 71 73  2  0  0  0
 71 83  1  0  0  0
 71144  1  0  0  0
 72 82  2  0  0  0
 72 83  1  0  0  0
 72145  1  0  0  0
 73 80  1  0  0  0
 73 82  1  0  0  0
 74146  1  0  0  0
 74147  1  0  0  0
 74148  1  0  0  0
 74 80  1  0  0  0
 75 80  1  0  0  0
 75149  1  0  0  0
 75150  1  0  0  0
 75151  1  0  0  0
 76152  1  0  0  0
 76153  1  0  0  0
 76154  1  0  0  0
 76 81  1  0  0  0
 77 81  1  0  0  0
 77155  1  0  0  0
 77156  1  0  0  0
 77157  1  0  0  0
 78 79  1  0  0  0
 78 81  1  0  0  0
 78158  1  0  0  0
 78159  1  0  0  0
 79160  1  0  0  0
 79161  1  0  0  0
 80 84  1  0  0  0
 81 83  1  0  0  0
 84162  1  0  0  0
M  ISO  4   1 100  68 101  79 101  84 100
M  END
> <chiral flag>
0

> <version>
0

> <s_m_source_file>
/data/baiqing/PycharmProjects/Reinvent-master-3.2/result/LINK_invent/BTK/process_docking_weight1_custom_sum_contain_oxygen_bond_distance_aromatic_linkinvent_7_9_3/rearranged_h_0056.sdf

> <i_m_source_file_index>
14

> <r_mmod_Potential_Energy-OPLS-2005>
149.263885498047

> <r_mmod_Stretch_Energy-OPLS-2005>
133.744079589844

> <r_mmod_Bend_Energy-OPLS-2005>
204.717620849609

> <r_mmod_Torsional_Energy-OPLS-2005>
253.066467285156

> <r_mmod_Improper_Torsional_Energy-OPLS-2005>
5.91224956512451

> <r_mmod_Van_der_Waal_Energy-OPLS-2005>
134.581665039062

> <r_mmod_Electrostatic_Energy-OPLS-2005>
-449.937408447266

> <r_mmod_Solvation_Energy-OPLS-2005>
-222.135360717773

> <b_mmod_Minimization_Converged-OPLS-2005>
0

> <r_mmod_RMS_Derivative-OPLS-2005>
3.77351331710815

$$$$
16
                    3D
 Structure written by MMmdl.
158166  0  0  1  0            999 V2000
  -30.5015  -14.9944   20.4742 C   0  0  0  0  0  0
  -30.4662  -12.6368   19.4715 C   0  0  0  0  0  0
  -29.5210  -12.5621   18.2449 C   0  0  0  0  0  0
  -28.0559  -12.3202   18.6659 C   0  0  0  0  0  0
  -27.6413  -13.2166   19.8588 C   0  0  2  0  0  0
  -28.7107  -13.1547   20.9776 C   0  0  0  0  0  0
  -25.2425  -13.8073   20.5617 C   0  0  0  0  0  0
  -24.1756  -13.0339   20.9207 C   0  0  0  0  0  0
  -24.6381  -11.6838   20.8779 C   0  0  0  0  0  0
  -23.9057  -10.4237   21.0424 C   0  0  0  0  0  0
  -24.3606   -9.4161   21.9203 C   0  0  0  0  0  0
  -23.6274   -8.2205   22.0765 C   0  0  0  0  0  0
  -22.4259   -8.0255   21.3550 C   0  0  0  0  0  0
  -21.9898   -9.0227   20.4652 C   0  0  0  0  0  0
  -22.7231  -10.2099   20.3064 C   0  0  0  0  0  0
  -21.6839   -6.0717   22.5279 C   0  0  0  0  0  0
  -21.4004   -6.5627   23.8211 C   0  0  0  0  0  0
  -21.3659   -5.6785   24.9176 C   0  0  0  0  0  0
  -21.6047   -4.3049   24.7229 C   0  0  0  0  0  0
  -21.8820   -3.8136   23.4352 C   0  0  0  0  0  0
  -21.9188   -4.6948   22.3404 C   0  0  0  0  0  0
  -22.7783  -13.5149   21.1850 C   0  0  0  0  0  0
  -22.1657   -4.2135   21.0982 F   0  0  0  0  0  0
  -21.5637   -3.4533   25.7744 F   0  0  0  0  0  0
  -29.9558  -13.6947   20.4007 N   0  0  0  0  0  0
  -26.2933  -12.9296   20.3356 N   0  0  0  0  0  0
  -25.9328  -11.6459   20.5838 N   0  0  0  0  0  0
  -22.0423  -12.8176   22.0428 N   0  0  0  0  0  0
  -25.3843  -15.1780   20.3828 N   0  0  0  0  0  0
  -31.6773  -15.0623   20.0947 O   0  0  0  0  0  0
  -21.6625   -6.8856   21.4241 O   0  0  0  0  0  0
  -22.3478  -14.5451   20.6680 O   0  0  0  0  0  0
  -24.6432  -31.8445   23.1882 C   0  0  0  0  0  0
  -25.9206  -32.4700   23.8270 C   0  0  1  0  0  0
  -27.2300  -27.1436   20.1480 C   0  0  0  0  0  0
  -25.5952  -33.8504   24.2187 N   0  0  0  0  0  0
  -23.4471  -30.4634   21.5343 C   0  0  2  0  0  0
  -24.8986  -28.8887   20.1150 C   0  0  0  0  0  0
  -22.7567  -29.4550   22.4866 C   0  0  0  0  0  0
  -18.0311  -28.1396   22.8484 C   0  0  0  0  0  0
  -24.1494  -36.7255   23.2643 C   0  0  0  0  0  0
  -26.0032  -30.7200   21.3871 C   0  0  0  0  0  0
  -26.0766  -29.3308   20.7305 C   0  0  0  0  0  0
  -27.2424  -28.4759   20.7278 C   0  0  0  0  0  0
  -26.0231  -26.8032   19.4954 C   0  0  0  0  0  0
  -24.8844  -27.6371   19.4831 C   0  0  0  0  0  0
  -23.6744  -29.7902   20.1551 C   0  0  0  0  0  0
  -25.4126  -36.3032   24.0314 C   0  0  1  0  0  0
  -20.5922  -28.3723   23.1241 C   0  0  2  0  0  0
  -20.6795  -26.9428   22.5406 C   0  0  0  0  0  0
  -19.5764  -26.6383   21.5219 C   0  0  0  0  0  0
  -18.1948  -26.7937   22.1631 C   0  0  0  0  0  0
  -19.1566  -28.8878   23.2855 C   0  0  0  0  0  0
  -18.9482  -30.1477   23.8874 C   0  0  0  0  0  0
  -17.6476  -30.6592   24.0564 C   0  0  0  0  0  0
  -25.9075  -34.9408   23.5059 C   0  0  0  0  0  0
  -16.5368  -29.9084   23.6338 C   0  0  0  0  0  0
  -16.7294  -28.6504   23.0357 C   0  0  0  0  0  0
  -26.4523  -31.6568   25.0711 C   0  0  0  0  0  0
  -25.3706  -31.3755   26.1403 C   0  0  0  0  0  0
  -27.0394  -30.2967   24.6291 C   0  0  0  0  0  0
  -27.6053  -32.4336   25.7497 C   0  0  0  0  0  0
  -27.5577  -37.1784   24.8466 C   0  0  0  0  0  0
  -21.4260  -29.3048   22.3610 N   0  0  0  0  0  0
  -26.4288  -37.3745   23.9407 N   0  0  0  0  0  0
  -24.7177  -31.0300   22.0918 N   0  0  0  0  0  0
  -23.4211  -28.8105   23.3021 O   0  0  0  0  0  0
  -28.3036  -26.1770   20.1808 O   0  0  0  0  0  0
  -26.5662  -34.8905   22.4639 O   0  0  0  0  0  0
  -23.5549  -32.1316   23.7104 O   0  0  0  0  0  0
  -30.3822  -19.9258   19.3211 C   0  0  0  0  0  0
  -29.4759  -20.3501   20.2772 C   0  0  0  0  0  0
  -29.9301  -17.9859   20.4606 C   0  0  0  0  0  0
  -28.2232  -16.3153   20.9849 C   0  0  0  0  0  0
  -30.1950  -16.4923   22.4996 C   0  0  0  0  0  0
  -31.4862  -17.7669   18.5526 C   0  0  0  0  0  0
  -28.6830  -21.7607   20.5658 C   0  0  0  0  0  0
  -29.0997  -23.3404   20.1605 C   0  0  0  0  0  0
  -28.0400  -24.6456   20.3200 C   0  0  0  0  0  0
  -29.7601  -16.4285   21.0193 C   0  0  0  0  0  0
  -30.6200  -18.5435   19.4386 N   0  0  0  0  0  0
  -29.2673  -19.1101   20.9541 N   0  3  0  0  0  0
  -31.4822  -12.8425   19.1328 H   0  0  0  0  0  0
  -30.5284  -11.6686   19.9719 H   0  0  0  0  0  0
  -29.8503  -11.7792   17.5609 H   0  0  0  0  0  0
  -29.5841  -13.4989   17.6885 H   0  0  0  0  0  0
  -27.9572  -11.2708   18.9459 H   0  0  0  0  0  0
  -27.3865  -12.4751   17.8191 H   0  0  0  0  0  0
  -27.6154  -14.2208   19.4477 H   0  0  0  0  0  0
  -28.8439  -12.1168   21.2866 H   0  0  0  0  0  0
  -28.4372  -13.6382   21.9104 H   0  0  0  0  0  0
  -25.2749   -9.5636   22.4783 H   0  0  0  0  0  0
  -23.9976   -7.4597   22.7484 H   0  0  0  0  0  0
  -21.0830   -8.8745   19.8957 H   0  0  0  0  0  0
  -22.3695  -10.9642   19.6175 H   0  0  0  0  0  0
  -21.1989   -7.6135   23.9708 H   0  0  0  0  0  0
  -21.1486   -6.0518   25.9079 H   0  0  0  0  0  0
  -22.0601   -2.7597   23.2856 H   0  0  0  0  0  0
  -22.4019  -11.9847   22.4853 H   0  0  0  0  0  0
  -21.1044  -13.1226   22.2617 H   0  0  0  0  0  0
  -24.6015  -15.8142   20.4854 H   0  0  0  0  0  0
  -26.2241  -15.6316   20.0517 H   0  0  0  0  0  0
  -26.7272  -32.5310   23.0998 H   0  0  0  0  0  0
  -25.0076  -33.9618   25.0319 H   0  0  0  0  0  0
  -22.7498  -31.2893   21.3785 H   0  0  0  0  0  0
  -23.3760  -35.9583   23.3292 H   0  0  0  0  0  0
  -24.3577  -36.8900   22.2060 H   0  0  0  0  0  0
  -23.7245  -37.6445   23.6688 H   0  0  0  0  0  0
  -26.1577  -31.4743   20.6145 H   0  0  0  0  0  0
  -26.8734  -30.7711   22.0295 H   0  0  0  0  0  0
  -28.1417  -28.8146   21.2232 H   0  0  0  0  0  0
  -25.9261  -25.8600   18.9824 H   0  0  0  0  0  0
  -23.9878  -27.2946   18.9849 H   0  0  0  0  0  0
  -23.8104  -30.5633   19.3977 H   0  0  0  0  0  0
  -22.7896  -29.2306   19.8457 H   0  0  0  0  0  0
  -25.1316  -36.1856   25.0806 H   0  0  0  0  0  0
  -21.0020  -28.3313   24.1359 H   0  0  0  0  0  0
  -20.5701  -26.2335   23.3625 H   0  0  0  0  0  0
  -21.6660  -26.7439   22.1196 H   0  0  0  0  0  0
  -19.6925  -25.6287   21.1263 H   0  0  0  0  0  0
  -19.6699  -27.3183   20.6742 H   0  0  0  0  0  0
  -17.4219  -26.6694   21.4031 H   0  0  0  0  0  0
  -18.0339  -26.0078   22.9025 H   0  0  0  0  0  0
  -19.7956  -30.7311   24.2221 H   0  0  0  0  0  0
  -17.5026  -31.6269   24.5173 H   0  0  0  0  0  0
  -15.5366  -30.2977   23.7669 H   0  0  0  0  0  0
  -15.8700  -28.0817   22.7074 H   0  0  0  0  0  0
  -24.5887  -30.7106   25.7712 H   0  0  0  0  0  0
  -24.8894  -32.2938   26.4777 H   0  0  0  0  0  0
  -25.7981  -30.8951   27.0214 H   0  0  0  0  0  0
  -26.3013  -29.6685   24.1292 H   0  0  0  0  0  0
  -27.4004  -29.7267   25.4862 H   0  0  0  0  0  0
  -27.8918  -30.4204   23.9611 H   0  0  0  0  0  0
  -27.2643  -33.3654   26.2020 H   0  0  0  0  0  0
  -28.3889  -32.6871   25.0346 H   0  0  0  0  0  0
  -28.0694  -31.8502   26.5457 H   0  0  0  0  0  0
  -28.2586  -38.0089   24.7511 H   0  0  0  0  0  0
  -28.1079  -36.2615   24.6293 H   0  0  0  0  0  0
  -27.2290  -37.1432   25.8869 H   0  0  0  0  0  0
  -20.9472  -29.8747   21.6778 H   0  0  0  0  0  0
  -26.0152  -38.2812   24.1411 H   0  0  0  0  0  0
  -30.8479  -20.5044   18.5338 H   0  0  0  0  0  0
  -27.7348  -17.1557   21.4754 H   0  0  0  0  0  0
  -27.8105  -15.4781   21.5202 H   0  0  0  0  0  0
  -27.8699  -16.3188   19.9549 H   0  0  0  0  0  0
  -29.6165  -17.2191   23.0693 H   0  0  0  0  0  0
  -31.2445  -16.7777   22.5820 H   0  0  0  0  0  0
  -30.0780  -15.5317   23.0030 H   0  0  0  0  0  0
  -31.8278  -18.3951   17.7300 H   0  0  0  0  0  0
  -30.9304  -16.9224   18.1453 H   0  0  0  0  0  0
  -32.3521  -17.4155   19.1129 H   0  0  0  0  0  0
  -28.4898  -21.7762   21.6381 H   0  0  0  0  0  0
  -27.6952  -21.6127   20.1287 H   0  0  0  0  0  0
  -29.4176  -23.3276   19.1180 H   0  0  0  0  0  0
  -30.0000  -23.5816   20.7256 H   0  0  0  0  0  0
  -27.6032  -24.5466   21.3141 H   0  0  0  0  0  0
  -27.2267  -24.3906   19.6459 H   0  0  0  0  0  0
  -28.6337  -19.0390   21.7419 H   0  0  0  0  0  0
  1 25  1  0  0  0
  1 30  2  0  0  0
  1 80  1  0  0  0
  2  3  1  0  0  0
  2 25  1  0  0  0
  2 83  1  0  0  0
  2 84  1  0  0  0
  3  4  1  0  0  0
  3 85  1  0  0  0
  3 86  1  0  0  0
  4  5  1  0  0  0
  4 87  1  0  0  0
  4 88  1  0  0  0
  5  6  1  0  0  0
  5 26  1  0  0  0
  5 89  1  0  0  0
  6 25  1  0  0  0
  6 90  1  0  0  0
  6 91  1  0  0  0
  7  8  2  0  0  0
  7 26  1  0  0  0
  7 29  1  0  0  0
  8  9  1  0  0  0
  8 22  1  0  0  0
  9 10  1  0  0  0
  9 27  2  0  0  0
 10 11  2  0  0  0
 10 15  1  0  0  0
 11 12  1  0  0  0
 11 92  1  0  0  0
 12 13  2  0  0  0
 12 93  1  0  0  0
 13 14  1  0  0  0
 13 31  1  0  0  0
 14 15  2  0  0  0
 14 94  1  0  0  0
 15 95  1  0  0  0
 16 17  2  0  0  0
 16 21  1  0  0  0
 16 31  1  0  0  0
 17 18  1  0  0  0
 17 96  1  0  0  0
 18 19  2  0  0  0
 18 97  1  0  0  0
 19 20  1  0  0  0
 19 24  1  0  0  0
 20 21  2  0  0  0
 20 98  1  0  0  0
 21 23  1  0  0  0
 22 28  1  0  0  0
 22 32  2  0  0  0
 26 27  1  0  0  0
 28 99  1  0  0  0
 28100  1  0  0  0
 29101  1  0  0  0
 29102  1  0  0  0
 33 34  1  0  0  0
 33 66  1  0  0  0
 33 70  2  0  0  0
 34 36  1  0  0  0
 34 59  1  0  0  0
 34103  1  0  0  0
 35 44  2  0  0  0
 35 45  1  0  0  0
 35 68  1  0  0  0
 36 56  1  0  0  0
 36104  1  0  0  0
 37 39  1  0  0  0
 37 47  1  0  0  0
 37 66  1  0  0  0
 37105  1  0  0  0
 38 43  2  0  0  0
 38 46  1  0  0  0
 38 47  1  0  0  0
 39 64  1  0  0  0
 39 67  2  0  0  0
 40 52  1  0  0  0
 40 53  2  0  0  0
 40 58  1  0  0  0
 41106  1  0  0  0
 41107  1  0  0  0
 41108  1  0  0  0
 41 48  1  0  0  0
 42 43  1  0  0  0
 42 66  1  0  0  0
 42109  1  0  0  0
 42110  1  0  0  0
 43 44  1  0  0  0
 44111  1  0  0  0
 45 46  2  0  0  0
 45112  1  0  0  0
 46113  1  0  0  0
 47114  1  0  0  0
 47115  1  0  0  0
 48 56  1  0  0  0
 48 65  1  0  0  0
 48116  1  0  0  0
 49 50  1  0  0  0
 49 53  1  0  0  0
 49 64  1  0  0  0
 49117  1  0  0  0
 50 51  1  0  0  0
 50118  1  0  0  0
 50119  1  0  0  0
 51 52  1  0  0  0
 51120  1  0  0  0
 51121  1  0  0  0
 52122  1  0  0  0
 52123  1  0  0  0
 53 54  1  0  0  0
 54 55  2  0  0  0
 54124  1  0  0  0
 55 57  1  0  0  0
 55125  1  0  0  0
 56 69  2  0  0  0
 57 58  2  0  0  0
 57126  1  0  0  0
 58127  1  0  0  0
 59 60  1  0  0  0
 59 61  1  0  0  0
 59 62  1  0  0  0
 60128  1  0  0  0
 60129  1  0  0  0
 60130  1  0  0  0
 61131  1  0  0  0
 61132  1  0  0  0
 61133  1  0  0  0
 62134  1  0  0  0
 62135  1  0  0  0
 62136  1  0  0  0
 63 65  1  0  0  0
 63137  1  0  0  0
 63138  1  0  0  0
 63139  1  0  0  0
 64140  1  0  0  0
 65141  1  0  0  0
 68 79  1  0  0  0
 71 72  2  0  0  0
 71 81  1  0  0  0
 71142  1  0  0  0
 72 77  1  0  0  0
 72 82  1  0  0  0
 73 80  1  0  0  0
 73 81  1  0  0  0
 73 82  2  0  0  0
 74143  1  0  0  0
 74144  1  0  0  0
 74145  1  0  0  0
 74 80  1  0  0  0
 75 80  1  0  0  0
 75146  1  0  0  0
 75147  1  0  0  0
 75148  1  0  0  0
 76 81  1  0  0  0
 76149  1  0  0  0
 76150  1  0  0  0
 76151  1  0  0  0
 77 78  1  0  0  0
 77152  1  0  0  0
 77153  1  0  0  0
 78 79  1  0  0  0
 78154  1  0  0  0
 78155  1  0  0  0
 79156  1  0  0  0
 79157  1  0  0  0
 82158  1  0  0  0
M  CHG  1  82   1
M  ISO  4   1 100  68 101  79 101  80 100
M  END
> <chiral flag>
0

> <version>
0

> <s_m_source_file>
/data/baiqing/PycharmProjects/Reinvent-master-3.2/result/LINK_invent/BTK/process_docking_weight1_custom_sum_contain_oxygen_bond_distance_aromatic_linkinvent_7_9_3/rearranged_h_0056.sdf

> <i_m_source_file_index>
15

> <r_mmod_Potential_Energy-OPLS-2005>
569.646667480469

> <r_mmod_Stretch_Energy-OPLS-2005>
283.229675292969

> <r_mmod_Bend_Energy-OPLS-2005>
310.058685302734

> <r_mmod_Torsional_Energy-OPLS-2005>
211.636871337891

> <r_mmod_Improper_Torsional_Energy-OPLS-2005>
2.04478859901428

> <r_mmod_Van_der_Waal_Energy-OPLS-2005>
128.486633300781

> <r_mmod_Electrostatic_Energy-OPLS-2005>
-166.206756591797

> <r_mmod_Solvation_Energy-OPLS-2005>
-391.524688720703

> <b_mmod_Minimization_Converged-OPLS-2005>
0

> <r_mmod_RMS_Derivative-OPLS-2005>
0.794173777103424

$$$$
17
                    3D
 Structure written by MMmdl.
178186  0  0  1  0            999 V2000
  -30.7985  -14.4134   20.6968 C   0  0  0  0  0  0
  -30.4123  -12.3247   19.4250 C   0  0  0  0  0  0
  -29.5052  -12.5596   18.2053 C   0  0  0  0  0  0
  -28.0275  -12.3934   18.6004 C   0  0  0  0  0  0
  -27.6673  -13.2160   19.8670 C   0  0  2  0  0  0
  -28.6975  -13.0187   20.9985 C   0  0  0  0  0  0
  -25.2653  -13.8191   20.5679 C   0  0  0  0  0  0
  -24.1902  -13.0474   20.9130 C   0  0  0  0  0  0
  -24.6451  -11.6926   20.8656 C   0  0  0  0  0  0
  -23.9107  -10.4316   21.0353 C   0  0  0  0  0  0
  -24.3651   -9.4240   21.9139 C   0  0  0  0  0  0
  -23.6337   -8.2265   22.0706 C   0  0  0  0  0  0
  -22.4313   -8.0291   21.3529 C   0  0  0  0  0  0
  -21.9964   -9.0254   20.4613 C   0  0  0  0  0  0
  -22.7276  -10.2138   20.3013 C   0  0  0  0  0  0
  -21.6874   -6.0762   22.5284 C   0  0  0  0  0  0
  -21.4007   -6.5647   23.8227 C   0  0  0  0  0  0
  -21.3659   -5.6793   24.9173 C   0  0  0  0  0  0
  -21.6056   -4.3059   24.7217 C   0  0  0  0  0  0
  -21.8817   -3.8162   23.4339 C   0  0  0  0  0  0
  -21.9203   -4.6990   22.3399 C   0  0  0  0  0  0
  -22.7915  -13.5258   21.1790 C   0  0  0  0  0  0
  -22.1680   -4.2181   21.0976 F   0  0  0  0  0  0
  -21.5628   -3.4534   25.7727 F   0  0  0  0  0  0
  -30.0417  -13.2996   20.4689 N   0  0  0  0  0  0
  -26.3082  -12.9368   20.3299 N   0  0  0  0  0  0
  -25.9381  -11.6527   20.5678 N   0  0  0  0  0  0
  -22.0553  -12.8250   22.0336 N   0  0  0  0  0  0
  -25.4478  -15.1914   20.4126 N   0  0  0  0  0  0
  -31.7699  -14.6472   19.9632 O   0  0  0  0  0  0
  -21.6658   -6.8914   21.4252 O   0  0  0  0  0  0
  -22.3605  -14.5582   20.6655 O   0  0  0  0  0  0
  -24.6141  -31.8674   23.2173 C   0  0  0  0  0  0
  -25.9022  -32.4824   23.8486 C   0  0  1  0  0  0
  -27.2296  -27.4368   20.0941 C   0  0  0  0  0  0
  -25.5899  -33.8634   24.2394 N   0  0  0  0  0  0
  -23.4051  -30.4917   21.5553 C   0  0  2  0  0  0
  -24.8516  -28.9561   20.1229 C   0  0  0  0  0  0
  -22.7420  -29.4674   22.5040 C   0  0  0  0  0  0
  -18.0279  -28.1355   22.8444 C   0  0  0  0  0  0
  -24.1477  -36.7294   23.2653 C   0  0  0  0  0  0
  -25.9356  -30.8276   21.3747 C   0  0  0  0  0  0
  -26.0107  -29.4623   20.7250 C   0  0  0  0  0  0
  -27.2095  -28.7079   20.7119 C   0  0  0  0  0  0
  -26.0659  -26.9563   19.4692 C   0  0  0  0  0  0
  -24.8713  -27.6973   19.4976 C   0  0  0  0  0  0
  -23.6126  -29.8214   20.1729 C   0  0  0  0  0  0
  -25.4094  -36.3115   24.0363 C   0  0  1  0  0  0
  -20.5872  -28.3663   23.1335 C   0  0  2  0  0  0
  -20.6800  -26.9415   22.5402 C   0  0  0  0  0  0
  -19.5804  -26.6392   21.5173 C   0  0  0  0  0  0
  -18.1958  -26.7908   22.1555 C   0  0  0  0  0  0
  -19.1527  -28.8826   23.2883 C   0  0  0  0  0  0
  -18.9434  -30.1438   23.8888 C   0  0  0  0  0  0
  -17.6434  -30.6556   24.0547 C   0  0  0  0  0  0
  -25.9014  -34.9484   23.5171 C   0  0  0  0  0  0
  -16.5329  -29.9040   23.6328 C   0  0  0  0  0  0
  -16.7267  -28.6473   23.0310 C   0  0  0  0  0  0
  -26.4439  -31.6628   25.0818 C   0  0  0  0  0  0
  -25.3717  -31.3708   26.1595 C   0  0  0  0  0  0
  -27.0316  -30.3101   24.6174 C   0  0  0  0  0  0
  -27.6041  -32.4373   25.7513 C   0  0  0  0  0  0
  -27.5583  -37.1809   24.8473 C   0  0  0  0  0  0
  -21.4156  -29.3035   22.3754 N   0  0  0  0  0  0
  -26.4284  -37.3793   23.9425 N   0  0  0  0  0  0
  -24.6693  -31.0766   22.1062 N   0  0  0  0  0  0
  -23.4186  -28.8227   23.3099 O   0  0  0  0  0  0
  -28.3702  -26.6772   20.0105 O   0  0  0  0  0  0
  -26.5558  -34.8907   22.4713 O   0  0  0  0  0  0
  -23.5331  -32.1463   23.7531 O   0  0  0  0  0  0
  -28.3354  -16.4267   22.8254 C   0  0  0  0  0  0
  -27.5524  -17.4477   22.3713 C   0  0  0  0  0  0
  -29.3533  -16.2726   21.8394 C   0  0  0  0  0  0
  -28.0154  -19.7654   17.9433 C   0  0  0  0  0  0
  -30.6300  -14.5556   23.2466 C   0  0  0  0  0  0
  -31.8218  -16.3249   22.0341 C   0  0  0  0  0  0
  -28.9899  -23.7292   22.3472 C   0  0  0  0  0  0
  -26.7125  -24.4217   21.6163 C   0  0  0  0  0  0
  -30.3363  -21.4086   19.5908 C   0  0  0  0  0  0
  -28.4498  -23.7146   19.8686 C   0  0  0  0  0  0
  -27.5256  -18.9543   20.3196 C   0  0  0  0  0  0
  -27.9538  -22.2283   19.6854 C   0  0  0  0  0  0
  -28.7267  -25.9245   21.1734 C   0  0  0  0  0  0
  -28.5214  -19.7362   19.4068 C   0  0  2  0  0  0
  -30.5962  -15.3715   21.9262 C   0  0  0  0  0  0
  -28.2074  -24.4434   21.2293 C   0  0  0  0  0  0
  -29.1589  -17.1364   20.8320 N   0  0  0  0  0  0
  -28.0841  -17.8995   21.1821 N   0  0  0  0  0  0
  -28.9238  -21.0974   19.9387 N   0  3  1  0  0  0
  -31.4613  -12.3958   19.1288 H   0  0  0  0  0  0
  -30.2852  -11.3085   19.8045 H   0  0  0  0  0  0
  -29.7682  -11.8727   17.4014 H   0  0  0  0  0  0
  -29.6762  -13.5677   17.8176 H   0  0  0  0  0  0
  -27.8396  -11.3319   18.7683 H   0  0  0  0  0  0
  -27.3887  -12.6884   17.7673 H   0  0  0  0  0  0
  -27.7118  -14.2676   19.5798 H   0  0  0  0  0  0
  -28.6604  -12.0014   21.3870 H   0  0  0  0  0  0
  -28.4139  -13.6771   21.8161 H   0  0  0  0  0  0
  -25.2827   -9.5717   22.4688 H   0  0  0  0  0  0
  -24.0069   -7.4674   22.7420 H   0  0  0  0  0  0
  -21.0915   -8.8758   19.8924 H   0  0  0  0  0  0
  -22.3754  -10.9645   19.6091 H   0  0  0  0  0  0
  -21.1971   -7.6153   23.9738 H   0  0  0  0  0  0
  -21.1487   -6.0507   25.9085 H   0  0  0  0  0  0
  -22.0597   -2.7629   23.2816 H   0  0  0  0  0  0
  -22.4219  -11.9997   22.4872 H   0  0  0  0  0  0
  -21.1090  -13.1139   22.2342 H   0  0  0  0  0  0
  -24.7024  -15.8657   20.5378 H   0  0  0  0  0  0
  -26.3414  -15.6196   20.2023 H   0  0  0  0  0  0
  -26.7113  -32.5497   23.1279 H   0  0  0  0  0  0
  -25.0225  -33.9857   25.0659 H   0  0  0  0  0  0
  -22.6959  -31.3084   21.4159 H   0  0  0  0  0  0
  -23.3753  -35.9613   23.3322 H   0  0  0  0  0  0
  -24.3601  -36.8874   22.2072 H   0  0  0  0  0  0
  -23.7198  -37.6501   23.6630 H   0  0  0  0  0  0
  -26.0639  -31.5877   20.6041 H   0  0  0  0  0  0
  -26.8188  -30.8772   21.9978 H   0  0  0  0  0  0
  -28.1144  -29.1019   21.1555 H   0  0  0  0  0  0
  -26.0905  -26.0045   18.9585 H   0  0  0  0  0  0
  -23.9836  -27.3062   19.0213 H   0  0  0  0  0  0
  -23.7158  -30.5941   19.4085 H   0  0  0  0  0  0
  -22.7370  -29.2392   19.8830 H   0  0  0  0  0  0
  -25.1257  -36.2039   25.0859 H   0  0  0  0  0  0
  -20.9936  -28.3199   24.1468 H   0  0  0  0  0  0
  -20.5676  -26.2250   23.3555 H   0  0  0  0  0  0
  -21.6684  -26.7488   22.1213 H   0  0  0  0  0  0
  -19.7004  -25.6307   21.1213 H   0  0  0  0  0  0
  -19.6756  -27.3233   20.6730 H   0  0  0  0  0  0
  -17.4235  -26.6601   21.3950 H   0  0  0  0  0  0
  -18.0373  -26.0046   22.8944 H   0  0  0  0  0  0
  -19.7898  -30.7254   24.2261 H   0  0  0  0  0  0
  -17.4961  -31.6219   24.5152 H   0  0  0  0  0  0
  -15.5331  -30.2899   23.7657 H   0  0  0  0  0  0
  -15.8661  -28.0799   22.7011 H   0  0  0  0  0  0
  -24.5880  -30.7041   25.7979 H   0  0  0  0  0  0
  -24.8894  -32.2837   26.5118 H   0  0  0  0  0  0
  -25.8102  -30.8877   27.0340 H   0  0  0  0  0  0
  -26.2890  -29.6817   24.1236 H   0  0  0  0  0  0
  -27.4172  -29.7368   25.4618 H   0  0  0  0  0  0
  -27.8668  -30.4509   23.9302 H   0  0  0  0  0  0
  -27.2717  -33.3693   26.2099 H   0  0  0  0  0  0
  -28.3800  -32.6908   25.0277 H   0  0  0  0  0  0
  -28.0753  -31.8491   26.5405 H   0  0  0  0  0  0
  -28.2614  -38.0102   24.7561 H   0  0  0  0  0  0
  -28.1063  -36.2647   24.6243 H   0  0  0  0  0  0
  -27.2312  -37.1416   25.8879 H   0  0  0  0  0  0
  -20.9337  -29.8767   21.6975 H   0  0  0  0  0  0
  -26.0180  -38.2863   24.1449 H   0  0  0  0  0  0
  -28.2043  -15.8901   23.7548 H   0  0  0  0  0  0
  -26.6663  -17.8904   22.8038 H   0  0  0  0  0  0
  -27.9976  -18.7560   17.5291 H   0  0  0  0  0  0
  -28.6607  -20.3613   17.2993 H   0  0  0  0  0  0
  -26.9948  -20.1473   17.8644 H   0  0  0  0  0  0
  -30.7341  -15.2111   24.1107 H   0  0  0  0  0  0
  -31.4762  -13.8659   23.2654 H   0  0  0  0  0  0
  -29.7325  -13.9724   23.4271 H   0  0  0  0  0  0
  -31.9224  -16.9470   21.1439 H   0  0  0  0  0  0
  -32.7552  -15.7710   22.1516 H   0  0  0  0  0  0
  -31.7355  -17.0005   22.8829 H   0  0  0  0  0  0
  -28.6866  -22.6874   22.4489 H   0  0  0  0  0  0
  -28.8302  -24.2105   23.3146 H   0  0  0  0  0  0
  -30.0628  -23.7494   22.1607 H   0  0  0  0  0  0
  -26.0580  -24.6423   20.7757 H   0  0  0  0  0  0
  -26.4980  -25.1486   22.3992 H   0  0  0  0  0  0
  -26.4111  -23.4487   22.0021 H   0  0  0  0  0  0
  -30.7267  -22.2438   20.1705 H   0  0  0  0  0  0
  -30.4499  -21.6402   18.5311 H   0  0  0  0  0  0
  -30.9939  -20.5700   19.8214 H   0  0  0  0  0  0
  -27.9009  -24.2944   19.1254 H   0  0  0  0  0  0
  -29.4817  -23.8589   19.5513 H   0  0  0  0  0  0
  -26.7661  -18.4616   19.7070 H   0  0  0  0  0  0
  -26.9592  -19.6502   20.9424 H   0  0  0  0  0  0
  -27.6197  -22.1720   18.6517 H   0  0  0  0  0  0
  -27.0534  -22.0510   20.2728 H   0  0  0  0  0  0
  -29.8182  -25.9210   21.1862 H   0  0  0  0  0  0
  -28.4341  -26.4627   22.0769 H   0  0  0  0  0  0
  -29.4309  -19.1423   19.3589 H   0  0  0  0  0  0
  -28.9559  -20.9836   20.9400 H   0  0  0  0  0  0
  1 25  1  0  0  0
  1 30  2  0  0  0
  1 85  1  0  0  0
  2  3  1  0  0  0
  2 25  1  0  0  0
  2 90  1  0  0  0
  2 91  1  0  0  0
  3  4  1  0  0  0
  3 92  1  0  0  0
  3 93  1  0  0  0
  4  5  1  0  0  0
  4 94  1  0  0  0
  4 95  1  0  0  0
  5  6  1  0  0  0
  5 26  1  0  0  0
  5 96  1  0  0  0
  6 25  1  0  0  0
  6 97  1  0  0  0
  6 98  1  0  0  0
  7  8  2  0  0  0
  7 26  1  0  0  0
  7 29  1  0  0  0
  8  9  1  0  0  0
  8 22  1  0  0  0
  9 10  1  0  0  0
  9 27  2  0  0  0
 10 11  2  0  0  0
 10 15  1  0  0  0
 11 12  1  0  0  0
 11 99  1  0  0  0
 12 13  2  0  0  0
 12100  1  0  0  0
 13 14  1  0  0  0
 13 31  1  0  0  0
 14 15  2  0  0  0
 14101  1  0  0  0
 15102  1  0  0  0
 16 17  2  0  0  0
 16 21  1  0  0  0
 16 31  1  0  0  0
 17 18  1  0  0  0
 17103  1  0  0  0
 18 19  2  0  0  0
 18104  1  0  0  0
 19 20  1  0  0  0
 19 24  1  0  0  0
 20 21  2  0  0  0
 20105  1  0  0  0
 21 23  1  0  0  0
 22 28  1  0  0  0
 22 32  2  0  0  0
 26 27  1  0  0  0
 28106  1  0  0  0
 28107  1  0  0  0
 29108  1  0  0  0
 29109  1  0  0  0
 33 34  1  0  0  0
 33 66  1  0  0  0
 33 70  2  0  0  0
 34 36  1  0  0  0
 34 59  1  0  0  0
 34110  1  0  0  0
 35 44  2  0  0  0
 35 45  1  0  0  0
 35 68  1  0  0  0
 36 56  1  0  0  0
 36111  1  0  0  0
 37 39  1  0  0  0
 37 47  1  0  0  0
 37 66  1  0  0  0
 37112  1  0  0  0
 38 43  2  0  0  0
 38 46  1  0  0  0
 38 47  1  0  0  0
 39 64  1  0  0  0
 39 67  2  0  0  0
 40 52  1  0  0  0
 40 53  2  0  0  0
 40 58  1  0  0  0
 41113  1  0  0  0
 41114  1  0  0  0
 41115  1  0  0  0
 41 48  1  0  0  0
 42 43  1  0  0  0
 42 66  1  0  0  0
 42116  1  0  0  0
 42117  1  0  0  0
 43 44  1  0  0  0
 44118  1  0  0  0
 45 46  2  0  0  0
 45119  1  0  0  0
 46120  1  0  0  0
 47121  1  0  0  0
 47122  1  0  0  0
 48 56  1  0  0  0
 48 65  1  0  0  0
 48123  1  0  0  0
 49 50  1  0  0  0
 49 53  1  0  0  0
 49 64  1  0  0  0
 49124  1  0  0  0
 50 51  1  0  0  0
 50125  1  0  0  0
 50126  1  0  0  0
 51 52  1  0  0  0
 51127  1  0  0  0
 51128  1  0  0  0
 52129  1  0  0  0
 52130  1  0  0  0
 53 54  1  0  0  0
 54 55  2  0  0  0
 54131  1  0  0  0
 55 57  1  0  0  0
 55132  1  0  0  0
 56 69  2  0  0  0
 57 58  2  0  0  0
 57133  1  0  0  0
 58134  1  0  0  0
 59 60  1  0  0  0
 59 61  1  0  0  0
 59 62  1  0  0  0
 60135  1  0  0  0
 60136  1  0  0  0
 60137  1  0  0  0
 61138  1  0  0  0
 61139  1  0  0  0
 61140  1  0  0  0
 62141  1  0  0  0
 62142  1  0  0  0
 62143  1  0  0  0
 63 65  1  0  0  0
 63144  1  0  0  0
 63145  1  0  0  0
 63146  1  0  0  0
 64147  1  0  0  0
 65148  1  0  0  0
 68 83  1  0  0  0
 71 72  2  0  0  0
 71 73  1  0  0  0
 71149  1  0  0  0
 72 88  1  0  0  0
 72150  1  0  0  0
 73 85  1  0  0  0
 73 87  2  0  0  0
 74151  1  0  0  0
 74152  1  0  0  0
 74153  1  0  0  0
 74 84  1  0  0  0
 75154  1  0  0  0
 75155  1  0  0  0
 75156  1  0  0  0
 75 85  1  0  0  0
 76 85  1  0  0  0
 76157  1  0  0  0
 76158  1  0  0  0
 76159  1  0  0  0
 77160  1  0  0  0
 77161  1  0  0  0
 77162  1  0  0  0
 77 86  1  0  0  0
 78 86  1  0  0  0
 78163  1  0  0  0
 78164  1  0  0  0
 78165  1  0  0  0
 79166  1  0  0  0
 79167  1  0  0  0
 79168  1  0  0  0
 79 89  1  0  0  0
 80 82  1  0  0  0
 80 86  1  0  0  0
 80169  1  0  0  0
 80170  1  0  0  0
 81 84  1  0  0  0
 81 88  1  0  0  0
 81171  1  0  0  0
 81172  1  0  0  0
 82 89  1  0  0  0
 82173  1  0  0  0
 82174  1  0  0  0
 83 86  1  0  0  0
 83175  1  0  0  0
 83176  1  0  0  0
 84 89  1  0  0  0
 84177  1  0  0  0
 87 88  1  0  0  0
 89178  1  0  0  0
M  CHG  1  89   1
M  ISO  4   1 100  68 101  83 101  85 100
M  END
> <chiral flag>
0

> <version>
0

> <s_m_source_file>
/data/baiqing/PycharmProjects/Reinvent-master-3.2/result/LINK_invent/BTK/process_docking_weight1_custom_sum_contain_oxygen_bond_distance_aromatic_linkinvent_7_9_3/rearranged_h_0056.sdf

> <i_m_source_file_index>
16

> <r_mmod_Potential_Energy-OPLS-2005>
10.0843935012817

> <r_mmod_Stretch_Energy-OPLS-2005>
53.5743560791016

> <r_mmod_Bend_Energy-OPLS-2005>
146.778259277344

> <r_mmod_Torsional_Energy-OPLS-2005>
261.466247558594

> <r_mmod_Improper_Torsional_Energy-OPLS-2005>
3.07821154594421

> <r_mmod_Van_der_Waal_Energy-OPLS-2005>
130.9638671875

> <r_mmod_Electrostatic_Energy-OPLS-2005>
-201.082626342773

> <r_mmod_Solvation_Energy-OPLS-2005>
-396.250915527344

> <b_mmod_Minimization_Converged-OPLS-2005>
0

> <r_mmod_RMS_Derivative-OPLS-2005>
4.87678861618042

$$$$
18
                    3D
 Structure written by MMmdl.
171179  0  0  1  0            999 V2000
  -30.6660  -14.5096   20.5482 C   0  0  0  0  0  0
  -30.4216  -12.3301   19.4162 C   0  0  0  0  0  0
  -29.4947  -12.5280   18.1996 C   0  0  0  0  0  0
  -28.0138  -12.3802   18.6045 C   0  0  0  0  0  0
  -27.6537  -13.2110   19.8663 C   0  0  2  0  0  0
  -28.6953  -12.9988   20.9852 C   0  0  0  0  0  0
  -25.2527  -13.8168   20.5675 C   0  0  0  0  0  0
  -24.1795  -13.0445   20.9199 C   0  0  0  0  0  0
  -24.6358  -11.6912   20.8719 C   0  0  0  0  0  0
  -23.9035  -10.4289   21.0386 C   0  0  0  0  0  0
  -24.3572   -9.4209   21.9173 C   0  0  0  0  0  0
  -23.6247   -8.2241   22.0731 C   0  0  0  0  0  0
  -22.4220   -8.0287   21.3549 C   0  0  0  0  0  0
  -21.9874   -9.0258   20.4646 C   0  0  0  0  0  0
  -22.7212  -10.2132   20.3037 C   0  0  0  0  0  0
  -21.6863   -6.0740   22.5290 C   0  0  0  0  0  0
  -21.4060   -6.5632   23.8240 C   0  0  0  0  0  0
  -21.3645   -5.6772   24.9181 C   0  0  0  0  0  0
  -21.6006   -4.3028   24.7224 C   0  0  0  0  0  0
  -21.8823   -3.8147   23.4342 C   0  0  0  0  0  0
  -21.9204   -4.6969   22.3415 C   0  0  0  0  0  0
  -22.7812  -13.5248   21.1886 C   0  0  0  0  0  0
  -22.1673   -4.2175   21.0984 F   0  0  0  0  0  0
  -21.5560   -3.4494   25.7721 F   0  0  0  0  0  0
  -30.0183  -13.3175   20.4280 N   0  0  0  0  0  0
  -26.2959  -12.9353   20.3300 N   0  0  0  0  0  0
  -25.9275  -11.6514   20.5707 N   0  0  0  0  0  0
  -22.0430  -12.8236   22.0418 N   0  0  0  0  0  0
  -25.4209  -15.1882   20.4082 N   0  0  0  0  0  0
  -31.8184  -14.6836   20.1461 O   0  0  0  0  0  0
  -21.6603   -6.8869   21.4254 O   0  0  0  0  0  0
  -22.3507  -14.5583   20.6781 O   0  0  0  0  0  0
  -24.6183  -31.8611   23.2040 C   0  0  0  0  0  0
  -25.9058  -32.4783   23.8346 C   0  0  1  0  0  0
  -27.2373  -27.3821   20.0925 C   0  0  0  0  0  0
  -25.5896  -33.8595   24.2276 N   0  0  0  0  0  0
  -23.4068  -30.4824   21.5456 C   0  0  2  0  0  0
  -24.8515  -28.9362   20.1121 C   0  0  0  0  0  0
  -22.7443  -29.4616   22.4974 C   0  0  0  0  0  0
  -18.0278  -28.1370   22.8503 C   0  0  0  0  0  0
  -24.1489  -36.7322   23.2628 C   0  0  0  0  0  0
  -25.9384  -30.8140   21.3592 C   0  0  0  0  0  0
  -26.0130  -29.4422   20.7070 C   0  0  0  0  0  0
  -27.2024  -28.6720   20.6907 C   0  0  0  0  0  0
  -26.0462  -26.8889   19.5182 C   0  0  0  0  0  0
  -24.8662  -27.6642   19.5132 C   0  0  0  0  0  0
  -23.6163  -29.8115   20.1608 C   0  0  0  0  0  0
  -25.4103  -36.3106   24.0330 C   0  0  1  0  0  0
  -20.5879  -28.3660   23.1331 C   0  0  2  0  0  0
  -20.6776  -26.9385   22.5440 C   0  0  0  0  0  0
  -19.5750  -26.6385   21.5235 C   0  0  0  0  0  0
  -18.1925  -26.7913   22.1636 C   0  0  0  0  0  0
  -19.1528  -28.8831   23.2906 C   0  0  0  0  0  0
  -18.9453  -30.1455   23.8899 C   0  0  0  0  0  0
  -17.6455  -30.6575   24.0568 C   0  0  0  0  0  0
  -25.9051  -34.9469   23.5105 C   0  0  0  0  0  0
  -16.5342  -29.9084   23.6318 C   0  0  0  0  0  0
  -16.7272  -28.6497   23.0331 C   0  0  0  0  0  0
  -26.4459  -31.6563   25.0695 C   0  0  0  0  0  0
  -25.3724  -31.3700   26.1453 C   0  0  0  0  0  0
  -27.0249  -30.2985   24.6081 C   0  0  0  0  0  0
  -27.6054  -32.4253   25.7459 C   0  0  0  0  0  0
  -27.5587  -37.1803   24.8443 C   0  0  0  0  0  0
  -21.4155  -29.3015   22.3738 N   0  0  0  0  0  0
  -26.4272  -37.3805   23.9425 N   0  0  0  0  0  0
  -24.6735  -31.0681   22.0951 N   0  0  0  0  0  0
  -23.4195  -28.8158   23.3027 O   0  0  0  0  0  0
  -28.4394  -26.6831   20.1302 O   0  0  0  0  0  0
  -26.5640  -34.8922   22.4688 O   0  0  0  0  0  0
  -23.5385  -32.1376   23.7447 O   0  0  0  0  0  0
  -30.1182  -21.2364   20.7391 C   0  0  0  0  0  0
  -28.0773  -21.5069   20.0464 C   0  0  0  0  0  0
  -28.9571  -20.4887   20.3795 C   0  0  0  0  0  0
  -30.4183  -17.6990   18.9047 C   0  0  0  0  0  0
  -27.8470  -24.4303   21.8606 C   0  0  0  0  0  0
  -28.0879  -18.7401   21.8780 C   0  0  0  0  0  0
  -27.6842  -18.4879   19.4555 C   0  0  0  0  0  0
  -30.2609  -25.3789   19.8238 C   0  0  0  0  0  0
  -28.5352  -25.2762   18.0798 C   0  0  0  0  0  0
  -30.3795  -16.8994   21.3498 C   0  0  0  0  0  0
  -30.0759  -18.0905   20.3547 C   0  0  2  0  0  0
  -28.0421  -24.1148   20.3645 C   0  0  1  0  0  0
  -28.7324  -18.9505   20.4937 C   0  0  0  0  0  0
  -28.7329  -25.3452   19.6097 C   0  0  0  0  0  0
  -29.9378  -22.5489   20.7087 N   0  0  0  0  0  0
  -28.6723  -22.7543   20.2731 N   0  0  0  0  0  0
  -29.9135  -15.5367   21.0076 N   0  0  0  0  0  0
  -31.4655  -12.4403   19.1170 H   0  0  0  0  0  0
  -30.3283  -11.3173   19.8105 H   0  0  0  0  0  0
  -29.7429  -11.8197   17.4101 H   0  0  0  0  0  0
  -29.6533  -13.5234   17.7782 H   0  0  0  0  0  0
  -27.8110  -11.3227   18.7797 H   0  0  0  0  0  0
  -27.3752  -12.6779   17.7724 H   0  0  0  0  0  0
  -27.6970  -14.2607   19.5756 H   0  0  0  0  0  0
  -28.6797  -11.9630   21.3280 H   0  0  0  0  0  0
  -28.4549  -13.5996   21.8632 H   0  0  0  0  0  0
  -25.2717   -9.5662   22.4760 H   0  0  0  0  0  0
  -23.9975   -7.4606   22.7402 H   0  0  0  0  0  0
  -21.0831   -8.8782   19.8922 H   0  0  0  0  0  0
  -22.3697  -10.9657   19.6121 H   0  0  0  0  0  0
  -21.2122   -7.6148   23.9762 H   0  0  0  0  0  0
  -21.1429   -6.0482   25.9086 H   0  0  0  0  0  0
  -22.0620   -2.7617   23.2827 H   0  0  0  0  0  0
  -22.4044  -11.9900   22.4823 H   0  0  0  0  0  0
  -21.1043  -13.1280   22.2615 H   0  0  0  0  0  0
  -24.6487  -15.8371   20.5161 H   0  0  0  0  0  0
  -26.2529  -15.6247   20.0353 H   0  0  0  0  0  0
  -26.7119  -32.5475   23.1108 H   0  0  0  0  0  0
  -24.9970  -33.9722   25.0373 H   0  0  0  0  0  0
  -22.6963  -31.3007   21.4083 H   0  0  0  0  0  0
  -23.3758  -35.9646   23.3252 H   0  0  0  0  0  0
  -24.3565  -36.8990   22.2049 H   0  0  0  0  0  0
  -23.7238  -37.6506   23.6679 H   0  0  0  0  0  0
  -26.0543  -31.5778   20.5896 H   0  0  0  0  0  0
  -26.8253  -30.8698   21.9791 H   0  0  0  0  0  0
  -28.1006  -29.0602   21.1496 H   0  0  0  0  0  0
  -25.9989  -25.9006   19.0925 H   0  0  0  0  0  0
  -23.9733  -27.2630   19.0547 H   0  0  0  0  0  0
  -23.7325  -30.5862   19.4027 H   0  0  0  0  0  0
  -22.7375  -29.2391   19.8608 H   0  0  0  0  0  0
  -25.1279  -36.1942   25.0821 H   0  0  0  0  0  0
  -20.9965  -28.3226   24.1461 H   0  0  0  0  0  0
  -20.5692  -26.2250   23.3622 H   0  0  0  0  0  0
  -21.6642  -26.7434   22.1218 H   0  0  0  0  0  0
  -19.6900  -25.6308   21.1236 H   0  0  0  0  0  0
  -19.6676  -27.3221   20.6784 H   0  0  0  0  0  0
  -17.4194  -26.6679   21.4034 H   0  0  0  0  0  0
  -18.0296  -26.0053   22.9031 H   0  0  0  0  0  0
  -19.7927  -30.7291   24.2230 H   0  0  0  0  0  0
  -17.4997  -31.6241   24.5201 H   0  0  0  0  0  0
  -15.5333  -30.2981   23.7640 H   0  0  0  0  0  0
  -15.8675  -28.0836   22.7018 H   0  0  0  0  0  0
  -24.5866  -30.7081   25.7785 H   0  0  0  0  0  0
  -24.8974  -32.2884   26.4921 H   0  0  0  0  0  0
  -25.8081  -30.8829   27.0196 H   0  0  0  0  0  0
  -26.2773  -29.6787   24.1124 H   0  0  0  0  0  0
  -27.3960  -29.7182   25.4541 H   0  0  0  0  0  0
  -27.8647  -30.4243   23.9247 H   0  0  0  0  0  0
  -27.2681  -33.3548   26.2060 H   0  0  0  0  0  0
  -28.3864  -32.6803   25.0281 H   0  0  0  0  0  0
  -28.0712  -31.8344   26.5357 H   0  0  0  0  0  0
  -28.2565  -38.0143   24.7568 H   0  0  0  0  0  0
  -28.1123  -36.2688   24.6160 H   0  0  0  0  0  0
  -27.2320  -37.1329   25.8844 H   0  0  0  0  0  0
  -20.9320  -29.8719   21.6954 H   0  0  0  0  0  0
  -26.0157  -38.2871   24.1471 H   0  0  0  0  0  0
  -31.0703  -20.8752   21.1017 H   0  0  0  0  0  0
  -27.0390  -21.4425   19.7507 H   0  0  0  0  0  0
  -31.4385  -17.3208   18.8342 H   0  0  0  0  0  0
  -30.3436  -18.5577   18.2396 H   0  0  0  0  0  0
  -29.7558  -16.9220   18.5237 H   0  0  0  0  0  0
  -27.2147  -25.3056   22.0093 H   0  0  0  0  0  0
  -28.8034  -24.6214   22.3463 H   0  0  0  0  0  0
  -27.3801  -23.5979   22.3876 H   0  0  0  0  0  0
  -27.1736  -19.3253   21.9830 H   0  0  0  0  0  0
  -28.7553  -19.0453   22.6854 H   0  0  0  0  0  0
  -27.8071  -17.7003   22.0456 H   0  0  0  0  0  0
  -26.7119  -18.9511   19.6244 H   0  0  0  0  0  0
  -27.5352  -17.4087   19.5110 H   0  0  0  0  0  0
  -27.9771  -18.7287   18.4331 H   0  0  0  0  0  0
  -30.7657  -24.5551   19.3212 H   0  0  0  0  0  0
  -30.5221  -25.3334   20.8810 H   0  0  0  0  0  0
  -30.6977  -26.2947   19.4237 H   0  0  0  0  0  0
  -28.9584  -24.3545   17.6801 H   0  0  0  0  0  0
  -29.0395  -26.1035   17.5803 H   0  0  0  0  0  0
  -27.4968  -25.2999   17.7646 H   0  0  0  0  0  0
  -30.0394  -17.1271   22.3592 H   0  0  0  0  0  0
  -31.4648  -16.8509   21.4590 H   0  0  0  0  0  0
  -30.8706  -18.7760   20.6338 H   0  0  0  0  0  0
  -27.0413  -24.0023   19.9472 H   0  0  0  0  0  0
  -28.9708  -15.2980   21.2764 H   0  0  0  0  0  0
  1 25  1  0  0  0
  1 30  2  0  0  0
  1 87  1  0  0  0
  2  3  1  0  0  0
  2 25  1  0  0  0
  2 88  1  0  0  0
  2 89  1  0  0  0
  3  4  1  0  0  0
  3 90  1  0  0  0
  3 91  1  0  0  0
  4  5  1  0  0  0
  4 92  1  0  0  0
  4 93  1  0  0  0
  5  6  1  0  0  0
  5 26  1  0  0  0
  5 94  1  0  0  0
  6 25  1  0  0  0
  6 95  1  0  0  0
  6 96  1  0  0  0
  7  8  2  0  0  0
  7 26  1  0  0  0
  7 29  1  0  0  0
  8  9  1  0  0  0
  8 22  1  0  0  0
  9 10  1  0  0  0
  9 27  2  0  0  0
 10 11  2  0  0  0
 10 15  1  0  0  0
 11 12  1  0  0  0
 11 97  1  0  0  0
 12 13  2  0  0  0
 12 98  1  0  0  0
 13 14  1  0  0  0
 13 31  1  0  0  0
 14 15  2  0  0  0
 14 99  1  0  0  0
 15100  1  0  0  0
 16 17  2  0  0  0
 16 21  1  0  0  0
 16 31  1  0  0  0
 17 18  1  0  0  0
 17101  1  0  0  0
 18 19  2  0  0  0
 18102  1  0  0  0
 19 20  1  0  0  0
 19 24  1  0  0  0
 20 21  2  0  0  0
 20103  1  0  0  0
 21 23  1  0  0  0
 22 28  1  0  0  0
 22 32  2  0  0  0
 26 27  1  0  0  0
 28104  1  0  0  0
 28105  1  0  0  0
 29106  1  0  0  0
 29107  1  0  0  0
 33 34  1  0  0  0
 33 66  1  0  0  0
 33 70  2  0  0  0
 34 36  1  0  0  0
 34 59  1  0  0  0
 34108  1  0  0  0
 35 44  2  0  0  0
 35 45  1  0  0  0
 35 68  1  0  0  0
 36 56  1  0  0  0
 36109  1  0  0  0
 37 39  1  0  0  0
 37 47  1  0  0  0
 37 66  1  0  0  0
 37110  1  0  0  0
 38 43  2  0  0  0
 38 46  1  0  0  0
 38 47  1  0  0  0
 39 64  1  0  0  0
 39 67  2  0  0  0
 40 52  1  0  0  0
 40 53  2  0  0  0
 40 58  1  0  0  0
 41111  1  0  0  0
 41112  1  0  0  0
 41113  1  0  0  0
 41 48  1  0  0  0
 42 43  1  0  0  0
 42 66  1  0  0  0
 42114  1  0  0  0
 42115  1  0  0  0
 43 44  1  0  0  0
 44116  1  0  0  0
 45 46  2  0  0  0
 45117  1  0  0  0
 46118  1  0  0  0
 47119  1  0  0  0
 47120  1  0  0  0
 48 56  1  0  0  0
 48 65  1  0  0  0
 48121  1  0  0  0
 49 50  1  0  0  0
 49 53  1  0  0  0
 49 64  1  0  0  0
 49122  1  0  0  0
 50 51  1  0  0  0
 50123  1  0  0  0
 50124  1  0  0  0
 51 52  1  0  0  0
 51125  1  0  0  0
 51126  1  0  0  0
 52127  1  0  0  0
 52128  1  0  0  0
 53 54  1  0  0  0
 54 55  2  0  0  0
 54129  1  0  0  0
 55 57  1  0  0  0
 55130  1  0  0  0
 56 69  2  0  0  0
 57 58  2  0  0  0
 57131  1  0  0  0
 58132  1  0  0  0
 59 60  1  0  0  0
 59 61  1  0  0  0
 59 62  1  0  0  0
 60133  1  0  0  0
 60134  1  0  0  0
 60135  1  0  0  0
 61136  1  0  0  0
 61137  1  0  0  0
 61138  1  0  0  0
 62139  1  0  0  0
 62140  1  0  0  0
 62141  1  0  0  0
 63 65  1  0  0  0
 63142  1  0  0  0
 63143  1  0  0  0
 63144  1  0  0  0
 64145  1  0  0  0
 65146  1  0  0  0
 68 84  1  0  0  0
 71 73  1  0  0  0
 71 85  2  0  0  0
 71147  1  0  0  0
 72 73  2  0  0  0
 72 86  1  0  0  0
 72148  1  0  0  0
 73 83  1  0  0  0
 74149  1  0  0  0
 74150  1  0  0  0
 74151  1  0  0  0
 74 81  1  0  0  0
 75152  1  0  0  0
 75153  1  0  0  0
 75154  1  0  0  0
 75 82  1  0  0  0
 76155  1  0  0  0
 76156  1  0  0  0
 76157  1  0  0  0
 76 83  1  0  0  0
 77 83  1  0  0  0
 77158  1  0  0  0
 77159  1  0  0  0
 77160  1  0  0  0
 78161  1  0  0  0
 78162  1  0  0  0
 78163  1  0  0  0
 78 84  1  0  0  0
 79 84  1  0  0  0
 79164  1  0  0  0
 79165  1  0  0  0
 79166  1  0  0  0
 80 81  1  0  0  0
 80 87  1  0  0  0
 80167  1  0  0  0
 80168  1  0  0  0
 81 83  1  0  0  0
 81169  1  0  0  0
 82 84  1  0  0  0
 82 86  1  0  0  0
 82170  1  0  0  0
 85 86  1  0  0  0
 87171  1  0  0  0
M  ISO  4   1 100  68 101  84 101  87 100
M  END
> <chiral flag>
0

> <version>
0

> <s_m_source_file>
/data/baiqing/PycharmProjects/Reinvent-master-3.2/result/LINK_invent/BTK/process_docking_weight1_custom_sum_contain_oxygen_bond_distance_aromatic_linkinvent_7_9_3/rearranged_h_0056.sdf

> <i_m_source_file_index>
17

> <r_mmod_Potential_Energy-OPLS-2005>
37.0759086608887

> <r_mmod_Stretch_Energy-OPLS-2005>
64.8239059448242

> <r_mmod_Bend_Energy-OPLS-2005>
175.85871887207

> <r_mmod_Torsional_Energy-OPLS-2005>
247.628021240234

> <r_mmod_Improper_Torsional_Energy-OPLS-2005>
5.89263153076172

> <r_mmod_Van_der_Waal_Energy-OPLS-2005>
130.929168701172

> <r_mmod_Electrostatic_Energy-OPLS-2005>
-407.720031738281

> <r_mmod_Solvation_Energy-OPLS-2005>
-200.444076538086

> <b_mmod_Minimization_Converged-OPLS-2005>
0

> <r_mmod_RMS_Derivative-OPLS-2005>
3.48418426513672

$$$$
19
                    3D
 Structure written by MMmdl.
162170  0  0  1  0            999 V2000
  -30.6716  -14.7278   20.5199 C   0  0  0  0  0  0
  -30.4295  -12.4600   19.4833 C   0  0  0  0  0  0
  -29.5089  -12.5061   18.2445 C   0  0  0  0  0  0
  -28.0357  -12.3257   18.6520 C   0  0  0  0  0  0
  -27.6417  -13.2282   19.8486 C   0  0  2  0  0  0
  -28.6835  -13.1548   20.9817 C   0  0  0  0  0  0
  -25.2495  -13.8192   20.5612 C   0  0  0  0  0  0
  -24.1801  -13.0441   20.9188 C   0  0  0  0  0  0
  -24.6399  -11.6917   20.8754 C   0  0  0  0  0  0
  -23.9079  -10.4302   21.0416 C   0  0  0  0  0  0
  -24.3648   -9.4225   21.9192 C   0  0  0  0  0  0
  -23.6324   -8.2256   22.0765 C   0  0  0  0  0  0
  -22.4301   -8.0286   21.3559 C   0  0  0  0  0  0
  -21.9935   -9.0244   20.4651 C   0  0  0  0  0  0
  -22.7244  -10.2133   20.3063 C   0  0  0  0  0  0
  -21.6878   -6.0738   22.5286 C   0  0  0  0  0  0
  -21.4022   -6.5644   23.8216 C   0  0  0  0  0  0
  -21.3658   -5.6796   24.9172 C   0  0  0  0  0  0
  -21.6050   -4.3062   24.7220 C   0  0  0  0  0  0
  -21.8838   -3.8150   23.4347 C   0  0  0  0  0  0
  -21.9217   -4.6968   22.3400 C   0  0  0  0  0  0
  -22.7835  -13.5222   21.1878 C   0  0  0  0  0  0
  -22.1689   -4.2144   21.0981 F   0  0  0  0  0  0
  -21.5624   -3.4553   25.7744 F   0  0  0  0  0  0
  -29.9878  -13.5283   20.4166 N   0  0  0  0  0  0
  -26.2930  -12.9389   20.3250 N   0  0  0  0  0  0
  -25.9310  -11.6539   20.5729 N   0  0  0  0  0  0
  -22.0500  -12.8216   22.0448 N   0  0  0  0  0  0
  -25.4165  -15.1893   20.3894 N   0  0  0  0  0  0
  -31.8291  -14.7761   20.0899 O   0  0  0  0  0  0
  -21.6670   -6.8871   21.4254 O   0  0  0  0  0  0
  -22.3513  -14.5525   20.6729 O   0  0  0  0  0  0
  -24.6330  -31.8538   23.1969 C   0  0  0  0  0  0
  -25.9166  -32.4736   23.8310 C   0  0  1  0  0  0
  -27.2223  -27.2709   20.1176 C   0  0  0  0  0  0
  -25.5950  -33.8540   24.2225 N   0  0  0  0  0  0
  -23.4290  -30.4782   21.5391 C   0  0  2  0  0  0
  -24.8768  -28.9284   20.1071 C   0  0  0  0  0  0
  -22.7518  -29.4598   22.4883 C   0  0  0  0  0  0
  -18.0294  -28.1383   22.8483 C   0  0  0  0  0  0
  -24.1492  -36.7288   23.2634 C   0  0  0  0  0  0
  -25.9760  -30.7705   21.3774 C   0  0  0  0  0  0
  -26.0497  -29.3953   20.7161 C   0  0  0  0  0  0
  -27.2280  -28.5806   20.7064 C   0  0  0  0  0  0
  -26.0312  -26.8803   19.4666 C   0  0  0  0  0  0
  -24.8739  -27.6804   19.4678 C   0  0  0  0  0  0
  -23.6474  -29.8141   20.1545 C   0  0  0  0  0  0
  -25.4117  -36.3047   24.0305 C   0  0  1  0  0  0
  -20.5910  -28.3698   23.1249 C   0  0  2  0  0  0
  -20.6776  -26.9412   22.5398 C   0  0  0  0  0  0
  -19.5750  -26.6380   21.5199 C   0  0  0  0  0  0
  -18.1932  -26.7924   22.1623 C   0  0  0  0  0  0
  -19.1556  -28.8854   23.2866 C   0  0  0  0  0  0
  -18.9477  -30.1452   23.8886 C   0  0  0  0  0  0
  -17.6478  -30.6584   24.0559 C   0  0  0  0  0  0
  -25.9062  -34.9422   23.5064 C   0  0  0  0  0  0
  -16.5364  -29.9084   23.6331 C   0  0  0  0  0  0
  -16.7281  -28.6505   23.0347 C   0  0  0  0  0  0
  -26.4525  -31.6573   25.0718 C   0  0  0  0  0  0
  -25.3746  -31.3756   26.1440 C   0  0  0  0  0  0
  -27.0380  -30.2975   24.6243 C   0  0  0  0  0  0
  -27.6058  -32.4328   25.7520 C   0  0  0  0  0  0
  -27.5568  -37.1796   24.8454 C   0  0  0  0  0  0
  -21.4219  -29.3045   22.3638 N   0  0  0  0  0  0
  -26.4280  -37.3754   23.9400 N   0  0  0  0  0  0
  -24.6979  -31.0517   22.0940 N   0  0  0  0  0  0
  -23.4218  -28.8121   23.2970 O   0  0  0  0  0  0
  -28.3096  -26.3671   20.1389 O   0  0  0  0  0  0
  -26.5644  -34.8911   22.4638 O   0  0  0  0  0  0
  -23.5476  -32.1355   23.7271 O   0  0  0  0  0  0
  -29.5858  -19.7323   20.9319 C   0  0  0  0  0  0
  -29.7127  -18.5950   20.0309 C   0  0  0  0  0  0
  -28.9963  -20.7994   20.2433 C   0  0  0  0  0  0
  -28.1045  -16.5556   22.3353 C   0  0  0  0  0  0
  -30.1385  -15.3530   23.3387 C   0  0  0  0  0  0
  -28.1874  -20.9087   17.8267 C   0  0  0  0  0  0
  -30.4763  -17.2010   20.0939 C   0  0  0  0  0  0
  -28.4515  -22.2177   20.6801 C   0  0  0  0  0  0
  -28.9076  -23.6523   20.0798 C   0  0  0  0  0  0
  -28.0356  -24.9409   20.5386 C   0  0  0  0  0  0
  -29.6145  -16.2838   22.2155 C   0  0  0  0  0  0
  -29.2185  -18.9756   18.8561 N   0  0  0  0  0  0
  -28.7923  -20.2670   18.9786 N   0  0  0  0  0  0
  -30.0176  -15.9335   20.8262 N   0  0  0  0  0  0
  -31.4690  -12.5763   19.1710 H   0  0  0  0  0  0
  -30.3797  -11.4838   19.9686 H   0  0  0  0  0  0
  -29.7987  -11.7287   17.5363 H   0  0  0  0  0  0
  -29.6327  -13.4590   17.7277 H   0  0  0  0  0  0
  -27.8964  -11.2766   18.9166 H   0  0  0  0  0  0
  -27.3800  -12.5141   17.8035 H   0  0  0  0  0  0
  -27.6416  -14.2522   19.4748 H   0  0  0  0  0  0
  -28.7276  -12.1538   21.4110 H   0  0  0  0  0  0
  -28.3801  -13.8018   21.7950 H   0  0  0  0  0  0
  -25.2784   -9.5727   22.4777 H   0  0  0  0  0  0
  -24.0042   -7.4651   22.7483 H   0  0  0  0  0  0
  -21.0867   -8.8756   19.8941 H   0  0  0  0  0  0
  -22.3678  -10.9690   19.6198 H   0  0  0  0  0  0
  -21.2014   -7.6159   23.9706 H   0  0  0  0  0  0
  -21.1469   -6.0533   25.9074 H   0  0  0  0  0  0
  -22.0622   -2.7616   23.2843 H   0  0  0  0  0  0
  -22.4098  -11.9857   22.4813 H   0  0  0  0  0  0
  -21.1114  -13.1255   22.2645 H   0  0  0  0  0  0
  -24.6576  -15.8508   20.5143 H   0  0  0  0  0  0
  -26.2733  -15.6244   20.0694 H   0  0  0  0  0  0
  -26.7240  -32.5387   23.1057 H   0  0  0  0  0  0
  -25.0050  -33.9663   25.0336 H   0  0  0  0  0  0
  -22.7265  -31.3008   21.3927 H   0  0  0  0  0  0
  -23.3726  -35.9649   23.3285 H   0  0  0  0  0  0
  -24.3570  -36.8934   22.2048 H   0  0  0  0  0  0
  -23.7283  -37.6499   23.6679 H   0  0  0  0  0  0
  -26.1207  -31.5356   20.6124 H   0  0  0  0  0  0
  -26.8507  -30.8127   22.0150 H   0  0  0  0  0  0
  -28.1308  -28.9379   21.1826 H   0  0  0  0  0  0
  -25.9803  -25.9372   18.9430 H   0  0  0  0  0  0
  -23.9831  -27.3283   18.9658 H   0  0  0  0  0  0
  -23.7718  -30.5912   19.3992 H   0  0  0  0  0  0
  -22.7678  -29.2456   19.8469 H   0  0  0  0  0  0
  -25.1306  -36.1862   25.0793 H   0  0  0  0  0  0
  -21.0008  -28.3261   24.1366 H   0  0  0  0  0  0
  -20.5642  -26.2308   23.3605 H   0  0  0  0  0  0
  -21.6640  -26.7409   22.1200 H   0  0  0  0  0  0
  -19.6903  -25.6286   21.1224 H   0  0  0  0  0  0
  -19.6677  -27.3189   20.6726 H   0  0  0  0  0  0
  -17.4199  -26.6668   21.4027 H   0  0  0  0  0  0
  -18.0347  -26.0062   22.9021 H   0  0  0  0  0  0
  -19.7955  -30.7269   24.2246 H   0  0  0  0  0  0
  -17.5032  -31.6259   24.5169 H   0  0  0  0  0  0
  -15.5363  -30.2982   23.7654 H   0  0  0  0  0  0
  -15.8685  -28.0814   22.7064 H   0  0  0  0  0  0
  -24.5897  -30.7130   25.7767 H   0  0  0  0  0  0
  -24.8985  -32.2956   26.4847 H   0  0  0  0  0  0
  -25.8057  -30.8933   27.0222 H   0  0  0  0  0  0
  -26.2975  -29.6705   24.1261 H   0  0  0  0  0  0
  -27.4020  -29.7256   25.4788 H   0  0  0  0  0  0
  -27.8869  -30.4201   23.9517 H   0  0  0  0  0  0
  -27.2624  -33.3606   26.2107 H   0  0  0  0  0  0
  -28.3896  -32.6925   25.0392 H   0  0  0  0  0  0
  -28.0711  -31.8460   26.5453 H   0  0  0  0  0  0
  -28.2574  -38.0104   24.7497 H   0  0  0  0  0  0
  -28.1080  -36.2631   24.6280 H   0  0  0  0  0  0
  -27.2289  -37.1442   25.8861 H   0  0  0  0  0  0
  -20.9392  -29.8807   21.6886 H   0  0  0  0  0  0
  -26.0138  -38.2815   24.1417 H   0  0  0  0  0  0
  -29.9002  -19.7612   21.9645 H   0  0  0  0  0  0
  -27.8452  -16.8406   23.3546 H   0  0  0  0  0  0
  -27.4865  -15.7021   22.0734 H   0  0  0  0  0  0
  -27.8014  -17.3837   21.6934 H   0  0  0  0  0  0
  -29.7883  -15.6887   24.3140 H   0  0  0  0  0  0
  -31.2288  -15.3647   23.3767 H   0  0  0  0  0  0
  -29.8319  -14.3147   23.2483 H   0  0  0  0  0  0
  -28.8386  -21.7076   17.4716 H   0  0  0  0  0  0
  -27.2220  -21.3324   18.1008 H   0  0  0  0  0  0
  -28.0372  -20.1959   17.0149 H   0  0  0  0  0  0
  -31.4811  -17.4138   20.4652 H   0  0  0  0  0  0
  -30.6484  -16.8981   19.0593 H   0  0  0  0  0  0
  -28.5569  -22.2799   21.7635 H   0  0  0  0  0  0
  -27.3715  -22.1760   20.5306 H   0  0  0  0  0  0
  -28.8784  -23.5977   18.9927 H   0  0  0  0  0  0
  -29.9554  -23.8170   20.3365 H   0  0  0  0  0  0
  -28.0565  -24.9569   21.6281 H   0  0  0  0  0  0
  -27.0067  -24.6753   20.3068 H   0  0  0  0  0  0
  -30.0927  -17.2355   22.4540 H   0  0  0  0  0  0
  1 25  1  0  0  0
  1 30  2  0  0  0
  1 84  1  0  0  0
  2  3  1  0  0  0
  2 25  1  0  0  0
  2 85  1  0  0  0
  2 86  1  0  0  0
  3  4  1  0  0  0
  3 87  1  0  0  0
  3 88  1  0  0  0
  4  5  1  0  0  0
  4 89  1  0  0  0
  4 90  1  0  0  0
  5  6  1  0  0  0
  5 26  1  0  0  0
  5 91  1  0  0  0
  6 25  1  0  0  0
  6 92  1  0  0  0
  6 93  1  0  0  0
  7  8  2  0  0  0
  7 26  1  0  0  0
  7 29  1  0  0  0
  8  9  1  0  0  0
  8 22  1  0  0  0
  9 10  1  0  0  0
  9 27  2  0  0  0
 10 11  2  0  0  0
 10 15  1  0  0  0
 11 12  1  0  0  0
 11 94  1  0  0  0
 12 13  2  0  0  0
 12 95  1  0  0  0
 13 14  1  0  0  0
 13 31  1  0  0  0
 14 15  2  0  0  0
 14 96  1  0  0  0
 15 97  1  0  0  0
 16 17  2  0  0  0
 16 21  1  0  0  0
 16 31  1  0  0  0
 17 18  1  0  0  0
 17 98  1  0  0  0
 18 19  2  0  0  0
 18 99  1  0  0  0
 19 20  1  0  0  0
 19 24  1  0  0  0
 20 21  2  0  0  0
 20100  1  0  0  0
 21 23  1  0  0  0
 22 28  1  0  0  0
 22 32  2  0  0  0
 26 27  1  0  0  0
 28101  1  0  0  0
 28102  1  0  0  0
 29103  1  0  0  0
 29104  1  0  0  0
 33 34  1  0  0  0
 33 66  1  0  0  0
 33 70  2  0  0  0
 34 36  1  0  0  0
 34 59  1  0  0  0
 34105  1  0  0  0
 35 44  2  0  0  0
 35 45  1  0  0  0
 35 68  1  0  0  0
 36 56  1  0  0  0
 36106  1  0  0  0
 37 39  1  0  0  0
 37 47  1  0  0  0
 37 66  1  0  0  0
 37107  1  0  0  0
 38 43  2  0  0  0
 38 46  1  0  0  0
 38 47  1  0  0  0
 39 64  1  0  0  0
 39 67  2  0  0  0
 40 52  1  0  0  0
 40 53  2  0  0  0
 40 58  1  0  0  0
 41108  1  0  0  0
 41109  1  0  0  0
 41110  1  0  0  0
 41 48  1  0  0  0
 42 43  1  0  0  0
 42 66  1  0  0  0
 42111  1  0  0  0
 42112  1  0  0  0
 43 44  1  0  0  0
 44113  1  0  0  0
 45 46  2  0  0  0
 45114  1  0  0  0
 46115  1  0  0  0
 47116  1  0  0  0
 47117  1  0  0  0
 48 56  1  0  0  0
 48 65  1  0  0  0
 48118  1  0  0  0
 49 50  1  0  0  0
 49 53  1  0  0  0
 49 64  1  0  0  0
 49119  1  0  0  0
 50 51  1  0  0  0
 50120  1  0  0  0
 50121  1  0  0  0
 51 52  1  0  0  0
 51122  1  0  0  0
 51123  1  0  0  0
 52124  1  0  0  0
 52125  1  0  0  0
 53 54  1  0  0  0
 54 55  2  0  0  0
 54126  1  0  0  0
 55 57  1  0  0  0
 55127  1  0  0  0
 56 69  2  0  0  0
 57 58  2  0  0  0
 57128  1  0  0  0
 58129  1  0  0  0
 59 60  1  0  0  0
 59 61  1  0  0  0
 59 62  1  0  0  0
 60130  1  0  0  0
 60131  1  0  0  0
 60132  1  0  0  0
 61133  1  0  0  0
 61134  1  0  0  0
 61135  1  0  0  0
 62136  1  0  0  0
 62137  1  0  0  0
 62138  1  0  0  0
 63 65  1  0  0  0
 63139  1  0  0  0
 63140  1  0  0  0
 63141  1  0  0  0
 64142  1  0  0  0
 65143  1  0  0  0
 68 80  1  0  0  0
 71 72  1  0  0  0
 71 73  2  0  0  0
 71144  1  0  0  0
 72 77  1  0  0  0
 72 82  2  0  0  0
 73 78  1  0  0  0
 73 83  1  0  0  0
 74145  1  0  0  0
 74146  1  0  0  0
 74147  1  0  0  0
 74 81  1  0  0  0
 75 81  1  0  0  0
 75148  1  0  0  0
 75149  1  0  0  0
 75150  1  0  0  0
 76 83  1  0  0  0
 76151  1  0  0  0
 76152  1  0  0  0
 76153  1  0  0  0
 77 84  1  0  0  0
 77154  1  0  0  0
 77155  1  0  0  0
 78 79  1  0  0  0
 78156  1  0  0  0
 78157  1  0  0  0
 79 80  1  0  0  0
 79158  1  0  0  0
 79159  1  0  0  0
 80160  1  0  0  0
 80161  1  0  0  0
 81 84  1  0  0  0
 81162  1  0  0  0
 82 83  1  0  0  0
M  ISO  4   1 100  68 101  80 101  84 100
M  END
> <chiral flag>
0

> <version>
0

> <s_m_source_file>
/data/baiqing/PycharmProjects/Reinvent-master-3.2/result/LINK_invent/BTK/process_docking_weight1_custom_sum_contain_oxygen_bond_distance_aromatic_linkinvent_7_9_3/rearranged_h_0056.sdf

> <i_m_source_file_index>
18

> <r_mmod_Potential_Energy-OPLS-2005>
271.897399902344

> <r_mmod_Stretch_Energy-OPLS-2005>
125.852081298828

> <r_mmod_Bend_Energy-OPLS-2005>
202.568786621094

> <r_mmod_Torsional_Energy-OPLS-2005>
286.806640625

> <r_mmod_Improper_Torsional_Energy-OPLS-2005>
11.1233053207397

> <r_mmod_Van_der_Waal_Energy-OPLS-2005>
124.767112731934

> <r_mmod_Electrostatic_Energy-OPLS-2005>
-358.483520507812

> <r_mmod_Solvation_Energy-OPLS-2005>
-197.678726196289

> <b_mmod_Minimization_Converged-OPLS-2005>
0

> <r_mmod_RMS_Derivative-OPLS-2005>
2.94692993164062

$$$$
20
                    3D
 Structure written by MMmdl.
170178  0  0  1  0            999 V2000
  -30.6697  -14.7291   20.6619 C   0  0  0  0  0  0
  -30.4301  -12.4736   19.5473 C   0  0  0  0  0  0
  -29.5312  -12.5332   18.2926 C   0  0  0  0  0  0
  -28.0602  -12.3147   18.6855 C   0  0  0  0  0  0
  -27.6447  -13.2220   19.8668 C   0  0  2  0  0  0
  -28.6639  -13.1598   21.0229 C   0  0  0  0  0  0
  -25.2564  -13.8184   20.5681 C   0  0  0  0  0  0
  -24.1832  -13.0445   20.9224 C   0  0  0  0  0  0
  -24.6390  -11.6918   20.8755 C   0  0  0  0  0  0
  -23.9057  -10.4282   21.0484 C   0  0  0  0  0  0
  -24.3620   -9.4153   21.9219 C   0  0  0  0  0  0
  -23.6314   -8.2170   22.0746 C   0  0  0  0  0  0
  -22.4298   -8.0218   21.3539 C   0  0  0  0  0  0
  -21.9951   -9.0203   20.4645 C   0  0  0  0  0  0
  -22.7264  -10.2100   20.3090 C   0  0  0  0  0  0
  -21.6821   -6.0705   22.5273 C   0  0  0  0  0  0
  -21.3977   -6.5618   23.8186 C   0  0  0  0  0  0
  -21.3692   -5.6820   24.9167 C   0  0  0  0  0  0
  -21.6075   -4.3072   24.7249 C   0  0  0  0  0  0
  -21.8833   -3.8141   23.4367 C   0  0  0  0  0  0
  -21.9151   -4.6933   22.3399 C   0  0  0  0  0  0
  -22.7850  -13.5187   21.1900 C   0  0  0  0  0  0
  -22.1644   -4.2114   21.0980 F   0  0  0  0  0  0
  -21.5661   -3.4578   25.7764 F   0  0  0  0  0  0
  -29.9918  -13.5258   20.5109 N   0  0  0  0  0  0
  -26.2940  -12.9315   20.3318 N   0  0  0  0  0  0
  -25.9326  -11.6482   20.5798 N   0  0  0  0  0  0
  -22.0564  -12.8128   22.0459 N   0  0  0  0  0  0
  -25.4442  -15.1887   20.4028 N   0  0  0  0  0  0
  -31.7602  -14.8263   20.0883 O   0  0  0  0  0  0
  -21.6651   -6.8835   21.4218 O   0  0  0  0  0  0
  -22.3503  -14.5500   20.6769 O   0  0  0  0  0  0
  -24.6283  -31.8595   23.2013 C   0  0  0  0  0  0
  -25.9120  -32.4769   23.8389 C   0  0  1  0  0  0
  -27.2287  -27.2870   20.1681 C   0  0  0  0  0  0
  -25.5968  -33.8584   24.2309 N   0  0  0  0  0  0
  -23.4296  -30.4747   21.5453 C   0  0  2  0  0  0
  -24.8723  -28.9175   20.1217 C   0  0  0  0  0  0
  -22.7517  -29.4645   22.4966 C   0  0  0  0  0  0
  -18.0309  -28.1349   22.8560 C   0  0  0  0  0  0
  -24.1485  -36.7294   23.2647 C   0  0  0  0  0  0
  -25.9671  -30.7810   21.3753 C   0  0  0  0  0  0
  -26.0403  -29.4003   20.7282 C   0  0  0  0  0  0
  -27.2237  -28.5995   20.7318 C   0  0  0  0  0  0
  -26.0418  -26.8510   19.5450 C   0  0  0  0  0  0
  -24.8787  -27.6508   19.5114 C   0  0  0  0  0  0
  -23.6381  -29.7971   20.1634 C   0  0  0  0  0  0
  -25.4135  -36.3087   24.0314 C   0  0  1  0  0  0
  -20.5912  -28.3731   23.1321 C   0  0  2  0  0  0
  -20.6840  -26.9473   22.5426 C   0  0  0  0  0  0
  -19.5826  -26.6498   21.5162 C   0  0  0  0  0  0
  -18.2060  -26.7879   22.1719 C   0  0  0  0  0  0
  -19.1558  -28.8862   23.2903 C   0  0  0  0  0  0
  -18.9483  -30.1516   23.8807 C   0  0  0  0  0  0
  -17.6494  -30.6621   24.0507 C   0  0  0  0  0  0
  -25.9107  -34.9460   23.5117 C   0  0  0  0  0  0
  -16.5382  -29.9078   23.6377 C   0  0  0  0  0  0
  -16.7273  -28.6447   23.0471 C   0  0  0  0  0  0
  -26.4480  -31.6569   25.0758 C   0  0  0  0  0  0
  -25.3746  -31.3710   26.1497 C   0  0  0  0  0  0
  -27.0361  -30.3009   24.6210 C   0  0  0  0  0  0
  -27.6061  -32.4318   25.7495 C   0  0  0  0  0  0
  -27.5589  -37.1820   24.8462 C   0  0  0  0  0  0
  -21.4244  -29.3127   22.3751 N   0  0  0  0  0  0
  -26.4334  -37.3767   23.9374 N   0  0  0  0  0  0
  -24.6933  -31.0589   22.0938 N   0  0  0  0  0  0
  -23.4256  -28.8236   23.3098 O   0  0  0  0  0  0
  -28.3431  -26.4265   20.1599 O   0  0  0  0  0  0
  -26.5658  -34.8941   22.4682 O   0  0  0  0  0  0
  -23.5452  -32.1363   23.7358 O   0  0  0  0  0  0
  -29.8968  -19.9218   20.7635 C   0  0  0  0  0  0
  -29.1693  -21.0403   21.2208 C   0  0  0  0  0  0
  -28.0900  -19.0998   21.7192 C   0  0  0  0  0  0
  -25.6007  -18.9142   22.2599 C   0  0  0  0  0  0
  -29.2189  -16.4353   25.2577 C   0  0  0  0  0  0
  -31.5001  -16.5211   24.4112 C   0  0  0  0  0  0
  -29.3849  -22.6087   21.3265 C   0  0  0  0  0  0
  -26.9825  -18.2310   22.2419 C   0  0  0  0  0  0
  -28.6076  -23.6917   20.4027 C   0  0  0  0  0  0
  -29.5145  -17.2565   20.6102 C   0  0  0  0  0  0
  -29.6271  -15.7620   22.9072 C   0  0  0  0  0  0
  -28.3249  -25.1802   20.9878 C   0  0  0  0  0  0
  -30.2113  -16.0656   21.4816 C   0  0  1  0  0  0
  -29.2245  -18.7205   21.0833 N   0  0  0  0  0  0
  -28.0930  -20.4455   21.8242 N   0  3  0  0  0  0
  -30.0627  -16.6364   24.0481 N   0  3  0  0  0  0
  -31.4781  -12.5769   19.2657 H   0  0  0  0  0  0
  -30.3497  -11.4918   20.0191 H   0  0  0  0  0  0
  -29.8447  -11.7729   17.5785 H   0  0  0  0  0  0
  -29.6482  -13.4983   17.7921 H   0  0  0  0  0  0
  -27.9553  -11.2692   18.9838 H   0  0  0  0  0  0
  -27.4030  -12.4642   17.8293 H   0  0  0  0  0  0
  -27.6495  -14.2418   19.4879 H   0  0  0  0  0  0
  -28.6908  -12.1720   21.4791 H   0  0  0  0  0  0
  -28.3101  -13.8236   21.8006 H   0  0  0  0  0  0
  -25.2761   -9.5595   22.4805 H   0  0  0  0  0  0
  -23.9998   -7.4539   22.7466 H   0  0  0  0  0  0
  -21.0868   -8.8761   19.8969 H   0  0  0  0  0  0
  -22.3732  -10.9629   19.6199 H   0  0  0  0  0  0
  -21.1986   -7.6128   23.9667 H   0  0  0  0  0  0
  -21.1512   -6.0561   25.9074 H   0  0  0  0  0  0
  -22.0595   -2.7605   23.2894 H   0  0  0  0  0  0
  -22.4299  -11.9818   22.4796 H   0  0  0  0  0  0
  -21.1146  -13.1070   22.2655 H   0  0  0  0  0  0
  -24.6785  -15.8523   20.4007 H   0  0  0  0  0  0
  -26.3050  -15.5816   20.0501 H   0  0  0  0  0  0
  -26.7206  -32.5364   23.1187 H   0  0  0  0  0  0
  -25.0072  -33.9658   25.0412 H   0  0  0  0  0  0
  -22.7202  -31.2879   21.4015 H   0  0  0  0  0  0
  -23.3734  -35.9627   23.3322 H   0  0  0  0  0  0
  -24.3585  -36.8908   22.2069 H   0  0  0  0  0  0
  -23.7230  -37.6518   23.6645 H   0  0  0  0  0  0
  -26.1092  -31.5411   20.6085 H   0  0  0  0  0  0
  -26.8434  -30.8231   22.0087 H   0  0  0  0  0  0
  -28.1192  -28.9704   21.2049 H   0  0  0  0  0  0
  -26.0179  -25.8758   19.0815 H   0  0  0  0  0  0
  -23.9902  -27.2719   19.0235 H   0  0  0  0  0  0
  -23.7436  -30.5733   19.4011 H   0  0  0  0  0  0
  -22.7563  -29.2231   19.8665 H   0  0  0  0  0  0
  -25.1300  -36.1998   25.0799 H   0  0  0  0  0  0
  -20.9947  -28.3252   24.1491 H   0  0  0  0  0  0
  -20.5752  -26.2360   23.3610 H   0  0  0  0  0  0
  -21.6749  -26.7514   22.1292 H   0  0  0  0  0  0
  -19.6950  -25.6383   21.1146 H   0  0  0  0  0  0
  -19.6673  -27.3412   20.6767 H   0  0  0  0  0  0
  -17.4212  -26.6219   21.4328 H   0  0  0  0  0  0
  -18.0819  -26.0129   22.9257 H   0  0  0  0  0  0
  -19.7995  -30.7324   24.2088 H   0  0  0  0  0  0
  -17.5031  -31.6304   24.5103 H   0  0  0  0  0  0
  -15.5423  -30.3033   23.7794 H   0  0  0  0  0  0
  -15.8632  -28.0836   22.7273 H   0  0  0  0  0  0
  -24.5887  -30.7071   25.7835 H   0  0  0  0  0  0
  -24.8977  -32.2897   26.4959 H   0  0  0  0  0  0
  -25.8118  -30.8874   27.0244 H   0  0  0  0  0  0
  -26.2954  -29.6750   24.1232 H   0  0  0  0  0  0
  -27.4080  -29.7240   25.4691 H   0  0  0  0  0  0
  -27.8790  -30.4293   23.9419 H   0  0  0  0  0  0
  -27.2658  -33.3591   26.2096 H   0  0  0  0  0  0
  -28.3850  -32.6941   25.0320 H   0  0  0  0  0  0
  -28.0749  -31.8445   26.5391 H   0  0  0  0  0  0
  -28.2648  -38.0082   24.7513 H   0  0  0  0  0  0
  -28.1054  -36.2641   24.6301 H   0  0  0  0  0  0
  -27.2303  -37.1475   25.8862 H   0  0  0  0  0  0
  -20.9448  -29.8815   21.6901 H   0  0  0  0  0  0
  -26.0222  -38.2842   24.1346 H   0  0  0  0  0  0
  -30.8333  -19.8998   20.2205 H   0  0  0  0  0  0
  -25.5791  -19.7856   22.9159 H   0  0  0  0  0  0
  -24.8266  -18.2316   22.6060 H   0  0  0  0  0  0
  -25.3193  -19.2478   21.2631 H   0  0  0  0  0  0
  -29.5157  -17.1166   26.0557 H   0  0  0  0  0  0
  -29.2996  -15.4189   25.6473 H   0  0  0  0  0  0
  -28.1593  -16.6213   25.0654 H   0  0  0  0  0  0
  -31.7316  -17.1516   25.2696 H   0  0  0  0  0  0
  -32.1581  -16.8490   23.6098 H   0  0  0  0  0  0
  -31.7711  -15.4984   24.6747 H   0  0  0  0  0  0
  -30.4574  -22.8034   21.2657 H   0  0  0  0  0  0
  -29.1441  -22.8669   22.3606 H   0  0  0  0  0  0
  -27.2734  -17.9303   23.2506 H   0  0  0  0  0  0
  -26.9295  -17.3396   21.6231 H   0  0  0  0  0  0
  -27.6444  -23.2629   20.1281 H   0  0  0  0  0  0
  -29.1624  -23.7822   19.4698 H   0  0  0  0  0  0
  -28.5635  -16.8623   20.2603 H   0  0  0  0  0  0
  -30.0871  -17.3595   19.6884 H   0  0  0  0  0  0
  -29.8787  -14.7406   23.2016 H   0  0  0  0  0  0
  -28.5408  -15.7812   22.8457 H   0  0  0  0  0  0
  -29.0825  -25.3725   21.7489 H   0  0  0  0  0  0
  -27.3884  -25.1487   21.5503 H   0  0  0  0  0  0
  -31.1863  -16.5052   21.6972 H   0  0  0  0  0  0
  -27.3661  -20.9694   22.3043 H   0  0  0  0  0  0
  -29.9235  -17.5983   23.7754 H   0  0  0  0  0  0
  1 25  1  0  0  0
  1 30  2  0  0  0
  1 83  1  0  0  0
  2  3  1  0  0  0
  2 25  1  0  0  0
  2 87  1  0  0  0
  2 88  1  0  0  0
  3  4  1  0  0  0
  3 89  1  0  0  0
  3 90  1  0  0  0
  4  5  1  0  0  0
  4 91  1  0  0  0
  4 92  1  0  0  0
  5  6  1  0  0  0
  5 26  1  0  0  0
  5 93  1  0  0  0
  6 25  1  0  0  0
  6 94  1  0  0  0
  6 95  1  0  0  0
  7  8  2  0  0  0
  7 26  1  0  0  0
  7 29  1  0  0  0
  8  9  1  0  0  0
  8 22  1  0  0  0
  9 10  1  0  0  0
  9 27  2  0  0  0
 10 11  2  0  0  0
 10 15  1  0  0  0
 11 12  1  0  0  0
 11 96  1  0  0  0
 12 13  2  0  0  0
 12 97  1  0  0  0
 13 14  1  0  0  0
 13 31  1  0  0  0
 14 15  2  0  0  0
 14 98  1  0  0  0
 15 99  1  0  0  0
 16 17  2  0  0  0
 16 21  1  0  0  0
 16 31  1  0  0  0
 17 18  1  0  0  0
 17100  1  0  0  0
 18 19  2  0  0  0
 18101  1  0  0  0
 19 20  1  0  0  0
 19 24  1  0  0  0
 20 21  2  0  0  0
 20102  1  0  0  0
 21 23  1  0  0  0
 22 28  1  0  0  0
 22 32  2  0  0  0
 26 27  1  0  0  0
 28103  1  0  0  0
 28104  1  0  0  0
 29105  1  0  0  0
 29106  1  0  0  0
 33 34  1  0  0  0
 33 66  1  0  0  0
 33 70  2  0  0  0
 34 36  1  0  0  0
 34 59  1  0  0  0
 34107  1  0  0  0
 35 44  2  0  0  0
 35 45  1  0  0  0
 35 68  1  0  0  0
 36 56  1  0  0  0
 36108  1  0  0  0
 37 39  1  0  0  0
 37 47  1  0  0  0
 37 66  1  0  0  0
 37109  1  0  0  0
 38 43  2  0  0  0
 38 46  1  0  0  0
 38 47  1  0  0  0
 39 64  1  0  0  0
 39 67  2  0  0  0
 40 52  1  0  0  0
 40 53  2  0  0  0
 40 58  1  0  0  0
 41110  1  0  0  0
 41111  1  0  0  0
 41112  1  0  0  0
 41 48  1  0  0  0
 42 43  1  0  0  0
 42 66  1  0  0  0
 42113  1  0  0  0
 42114  1  0  0  0
 43 44  1  0  0  0
 44115  1  0  0  0
 45 46  2  0  0  0
 45116  1  0  0  0
 46117  1  0  0  0
 47118  1  0  0  0
 47119  1  0  0  0
 48 56  1  0  0  0
 48 65  1  0  0  0
 48120  1  0  0  0
 49 50  1  0  0  0
 49 53  1  0  0  0
 49 64  1  0  0  0
 49121  1  0  0  0
 50 51  1  0  0  0
 50122  1  0  0  0
 50123  1  0  0  0
 51 52  1  0  0  0
 51124  1  0  0  0
 51125  1  0  0  0
 52126  1  0  0  0
 52127  1  0  0  0
 53 54  1  0  0  0
 54 55  2  0  0  0
 54128  1  0  0  0
 55 57  1  0  0  0
 55129  1  0  0  0
 56 69  2  0  0  0
 57 58  2  0  0  0
 57130  1  0  0  0
 58131  1  0  0  0
 59 60  1  0  0  0
 59 61  1  0  0  0
 59 62  1  0  0  0
 60132  1  0  0  0
 60133  1  0  0  0
 60134  1  0  0  0
 61135  1  0  0  0
 61136  1  0  0  0
 61137  1  0  0  0
 62138  1  0  0  0
 62139  1  0  0  0
 62140  1  0  0  0
 63 65  1  0  0  0
 63141  1  0  0  0
 63142  1  0  0  0
 63143  1  0  0  0
 64144  1  0  0  0
 65145  1  0  0  0
 68 82  1  0  0  0
 71 72  2  0  0  0
 71 84  1  0  0  0
 71146  1  0  0  0
 72 77  1  0  0  0
 72 85  1  0  0  0
 73 78  1  0  0  0
 73 84  1  0  0  0
 73 85  2  0  0  0
 74 78  1  0  0  0
 74147  1  0  0  0
 74148  1  0  0  0
 74149  1  0  0  0
 75150  1  0  0  0
 75151  1  0  0  0
 75152  1  0  0  0
 75 86  1  0  0  0
 76 86  1  0  0  0
 76153  1  0  0  0
 76154  1  0  0  0
 76155  1  0  0  0
 77 79  1  0  0  0
 77156  1  0  0  0
 77157  1  0  0  0
 78158  1  0  0  0
 78159  1  0  0  0
 79 82  1  0  0  0
 79160  1  0  0  0
 79161  1  0  0  0
 80 84  1  0  0  0
 80162  1  0  0  0
 80163  1  0  0  0
 80 83  1  0  0  0
 81 83  1  0  0  0
 81 86  1  0  0  0
 81164  1  0  0  0
 81165  1  0  0  0
 82166  1  0  0  0
 82167  1  0  0  0
 83168  1  0  0  0
 85169  1  0  0  0
 86170  1  0  0  0
M  CHG  2  85   1  86   1
M  ISO  4   1 100  68 101  82 101  83 100
M  END
> <chiral flag>
0

> <version>
0

> <s_m_source_file>
/data/baiqing/PycharmProjects/Reinvent-master-3.2/result/LINK_invent/BTK/process_docking_weight1_custom_sum_contain_oxygen_bond_distance_aromatic_linkinvent_7_9_3/rearranged_h_0056.sdf

> <i_m_source_file_index>
19

> <r_mmod_Potential_Energy-OPLS-2005>
63.8871231079102

> <r_mmod_Stretch_Energy-OPLS-2005>
141.362869262695

> <r_mmod_Bend_Energy-OPLS-2005>
216.779037475586

> <r_mmod_Torsional_Energy-OPLS-2005>
250.026718139648

> <r_mmod_Improper_Torsional_Energy-OPLS-2005>
4.15614938735962

> <r_mmod_Van_der_Waal_Energy-OPLS-2005>
101.754196166992

> <r_mmod_Electrostatic_Energy-OPLS-2005>
185.377838134766

> <r_mmod_Solvation_Energy-OPLS-2005>
-909.623229980469

> <b_mmod_Minimization_Converged-OPLS-2005>
0

> <r_mmod_RMS_Derivative-OPLS-2005>
8.85621070861816

$$$$
21
                    3D
 Structure written by MMmdl.
163171  0  0  1  0            999 V2000
  -30.7089  -14.4330   20.6513 C   0  0  0  0  0  0
  -30.4270  -12.3151   19.3976 C   0  0  0  0  0  0
  -29.4888  -12.5297   18.1930 C   0  0  0  0  0  0
  -28.0103  -12.3837   18.6084 C   0  0  0  0  0  0
  -27.6665  -13.1997   19.8839 C   0  0  2  0  0  0
  -28.7082  -12.9148   20.9866 C   0  0  0  0  0  0
  -25.2615  -13.8153   20.5674 C   0  0  0  0  0  0
  -24.1841  -13.0439   20.9152 C   0  0  0  0  0  0
  -24.6385  -11.6902   20.8714 C   0  0  0  0  0  0
  -23.9047  -10.4293   21.0391 C   0  0  0  0  0  0
  -24.3600   -9.4214   21.9175 C   0  0  0  0  0  0
  -23.6281   -8.2244   22.0750 C   0  0  0  0  0  0
  -22.4266   -8.0279   21.3542 C   0  0  0  0  0  0
  -21.9896   -9.0246   20.4642 C   0  0  0  0  0  0
  -22.7216  -10.2130   20.3046 C   0  0  0  0  0  0
  -21.6848   -6.0732   22.5277 C   0  0  0  0  0  0
  -21.4015   -6.5634   23.8216 C   0  0  0  0  0  0
  -21.3663   -5.6786   24.9176 C   0  0  0  0  0  0
  -21.6043   -4.3048   24.7224 C   0  0  0  0  0  0
  -21.8821   -3.8143   23.4347 C   0  0  0  0  0  0
  -21.9194   -4.6962   22.3402 C   0  0  0  0  0  0
  -22.7871  -13.5247   21.1832 C   0  0  0  0  0  0
  -22.1660   -4.2143   21.0981 F   0  0  0  0  0  0
  -21.5631   -3.4537   25.7741 F   0  0  0  0  0  0
  -30.0337  -13.2654   20.4502 N   0  0  0  0  0  0
  -26.3047  -12.9300   20.3401 N   0  0  0  0  0  0
  -25.9311  -11.6463   20.5752 N   0  0  0  0  0  0
  -22.0509  -12.8235   22.0395 N   0  0  0  0  0  0
  -25.4390  -15.1864   20.4121 N   0  0  0  0  0  0
  -31.7815  -14.6624   20.0781 O   0  0  0  0  0  0
  -21.6635   -6.8871   21.4238 O   0  0  0  0  0  0
  -22.3558  -14.5562   20.6703 O   0  0  0  0  0  0
  -24.6143  -31.8692   23.2106 C   0  0  0  0  0  0
  -25.9033  -32.4831   23.8407 C   0  0  1  0  0  0
  -27.2330  -27.4498   20.0847 C   0  0  0  0  0  0
  -25.5900  -33.8629   24.2342 N   0  0  0  0  0  0
  -23.4007  -30.4955   21.5508 C   0  0  2  0  0  0
  -24.8460  -28.9614   20.1181 C   0  0  0  0  0  0
  -22.7395  -29.4686   22.4983 C   0  0  0  0  0  0
  -18.0275  -28.1373   22.8490 C   0  0  0  0  0  0
  -24.1486  -36.7325   23.2636 C   0  0  0  0  0  0
  -25.9280  -30.8423   21.3586 C   0  0  0  0  0  0
  -26.0073  -29.4766   20.7069 C   0  0  0  0  0  0
  -27.2070  -28.7300   20.6838 C   0  0  0  0  0  0
  -26.0531  -26.9465   19.4956 C   0  0  0  0  0  0
  -24.8623  -27.6944   19.5121 C   0  0  0  0  0  0
  -23.6069  -29.8266   20.1664 C   0  0  0  0  0  0
  -25.4098  -36.3115   24.0337 C   0  0  1  0  0  0
  -20.5860  -28.3668   23.1305 C   0  0  2  0  0  0
  -20.6761  -26.9400   22.5410 C   0  0  0  0  0  0
  -19.5737  -26.6379   21.5210 C   0  0  0  0  0  0
  -18.1918  -26.7917   22.1623 C   0  0  0  0  0  0
  -19.1522  -28.8831   23.2903 C   0  0  0  0  0  0
  -18.9453  -30.1434   23.8923 C   0  0  0  0  0  0
  -17.6459  -30.6582   24.0567 C   0  0  0  0  0  0
  -25.9022  -34.9476   23.5126 C   0  0  0  0  0  0
  -16.5347  -29.9082   23.6334 C   0  0  0  0  0  0
  -16.7265  -28.6497   23.0359 C   0  0  0  0  0  0
  -26.4456  -31.6608   25.0729 C   0  0  0  0  0  0
  -25.3723  -31.3713   26.1482 C   0  0  0  0  0  0
  -27.0282  -30.3056   24.6075 C   0  0  0  0  0  0
  -27.6037  -32.4319   25.7487 C   0  0  0  0  0  0
  -27.5571  -37.1812   24.8458 C   0  0  0  0  0  0
  -21.4121  -29.3054   22.3722 N   0  0  0  0  0  0
  -26.4283  -37.3794   23.9407 N   0  0  0  0  0  0
  -24.6666  -31.0812   22.0996 N   0  0  0  0  0  0
  -23.4179  -28.8223   23.3012 O   0  0  0  0  0  0
  -28.3958  -26.7115   20.0721 O   0  0  0  0  0  0
  -26.5575  -34.8917   22.4679 O   0  0  0  0  0  0
  -23.5336  -32.1425   23.7507 O   0  0  0  0  0  0
  -28.9627  -18.2716   19.7104 C   0  0  0  0  0  0
  -30.5920  -18.0380   21.1484 C   0  0  0  0  0  0
  -29.9752  -19.0039   20.3973 C   0  0  0  0  0  0
  -31.0785  -15.6526   22.8332 C   0  0  0  0  0  0
  -26.7539  -22.7869   21.0798 C   0  0  0  0  0  0
  -30.3279  -20.4813   20.3592 C   0  0  0  0  0  0
  -29.6964  -21.3074   19.2120 C   0  0  0  0  0  0
  -28.2306  -21.7550   19.4250 C   0  0  0  0  0  0
  -28.2676  -24.2343   19.7341 C   0  0  0  0  0  0
  -28.3132  -25.4327   20.7233 C   0  0  0  0  0  0
  -30.1549  -15.5310   21.6042 C   0  0  1  0  0  0
  -28.9384  -16.9869   20.0474 N   0  0  0  0  0  0
  -29.9473  -16.8299   20.9400 N   0  0  0  0  0  0
  -28.0599  -22.8951   20.3775 N   0  3  1  0  0  0
  -31.4673  -12.4312   19.0909 H   0  0  0  0  0  0
  -30.3443  -11.2916   19.7663 H   0  0  0  0  0  0
  -29.7259  -11.8202   17.3990 H   0  0  0  0  0  0
  -29.6529  -13.5239   17.7741 H   0  0  0  0  0  0
  -27.8198  -11.3245   18.7864 H   0  0  0  0  0  0
  -27.3557  -12.6746   17.7858 H   0  0  0  0  0  0
  -27.7300  -14.2570   19.6247 H   0  0  0  0  0  0
  -28.6924  -11.8521   21.2335 H   0  0  0  0  0  0
  -28.4465  -13.3969   21.9246 H   0  0  0  0  0  0
  -25.2748   -9.5693   22.4745 H   0  0  0  0  0  0
  -23.9994   -7.4640   22.7469 H   0  0  0  0  0  0
  -21.0827   -8.8760   19.8946 H   0  0  0  0  0  0
  -22.3672  -10.9665   19.6150 H   0  0  0  0  0  0
  -21.2004   -7.6143   23.9714 H   0  0  0  0  0  0
  -21.1483   -6.0519   25.9078 H   0  0  0  0  0  0
  -22.0598   -2.7605   23.2850 H   0  0  0  0  0  0
  -22.4115  -11.9888   22.4768 H   0  0  0  0  0  0
  -21.1135  -13.1271   22.2609 H   0  0  0  0  0  0
  -24.6837  -15.8524   20.5318 H   0  0  0  0  0  0
  -26.3172  -15.6232   20.1533 H   0  0  0  0  0  0
  -26.7105  -32.5547   23.1180 H   0  0  0  0  0  0
  -25.0080  -33.9813   25.0504 H   0  0  0  0  0  0
  -22.6901  -31.3128   21.4121 H   0  0  0  0  0  0
  -23.3734  -35.9673   23.3308 H   0  0  0  0  0  0
  -24.3587  -36.8938   22.2052 H   0  0  0  0  0  0
  -23.7253  -37.6536   23.6642 H   0  0  0  0  0  0
  -26.0314  -31.6110   20.5907 H   0  0  0  0  0  0
  -26.8175  -30.8988   21.9740 H   0  0  0  0  0  0
  -28.1055  -29.1288   21.1335 H   0  0  0  0  0  0
  -26.0411  -25.9854   19.0073 H   0  0  0  0  0  0
  -23.9688  -27.2932   19.0545 H   0  0  0  0  0  0
  -23.7126  -30.5991   19.4038 H   0  0  0  0  0  0
  -22.7305  -29.2452   19.8736 H   0  0  0  0  0  0
  -25.1280  -36.1985   25.0831 H   0  0  0  0  0  0
  -20.9965  -28.3237   24.1423 H   0  0  0  0  0  0
  -20.5658  -26.2286   23.3606 H   0  0  0  0  0  0
  -21.6632  -26.7435   22.1210 H   0  0  0  0  0  0
  -19.6895  -25.6289   21.1248 H   0  0  0  0  0  0
  -19.6667  -27.3180   20.6729 H   0  0  0  0  0  0
  -17.4184  -26.6664   21.4028 H   0  0  0  0  0  0
  -18.0316  -26.0053   22.9012 H   0  0  0  0  0  0
  -19.7934  -30.7232   24.2307 H   0  0  0  0  0  0
  -17.5024  -31.6275   24.5144 H   0  0  0  0  0  0
  -15.5350  -30.3004   23.7631 H   0  0  0  0  0  0
  -15.8666  -28.0825   22.7070 H   0  0  0  0  0  0
  -24.5893  -30.7063   25.7826 H   0  0  0  0  0  0
  -24.8914  -32.2869   26.4927 H   0  0  0  0  0  0
  -25.8082  -30.8892   27.0240 H   0  0  0  0  0  0
  -26.2823  -29.6827   24.1117 H   0  0  0  0  0  0
  -27.4058  -29.7278   25.4521 H   0  0  0  0  0  0
  -27.8654  -30.4398   23.9220 H   0  0  0  0  0  0
  -27.2665  -33.3610   26.2088 H   0  0  0  0  0  0
  -28.3826  -32.6889   25.0299 H   0  0  0  0  0  0
  -28.0713  -31.8430   26.5384 H   0  0  0  0  0  0
  -28.2584  -38.0114   24.7506 H   0  0  0  0  0  0
  -28.1076  -36.2640   24.6289 H   0  0  0  0  0  0
  -27.2295  -37.1481   25.8866 H   0  0  0  0  0  0
  -20.9258  -29.8822   21.6996 H   0  0  0  0  0  0
  -26.0180  -38.2870   24.1418 H   0  0  0  0  0  0
  -28.2344  -18.6328   18.9967 H   0  0  0  0  0  0
  -31.4177  -18.1300   21.8394 H   0  0  0  0  0  0
  -30.7063  -16.3962   23.5382 H   0  0  0  0  0  0
  -32.0940  -15.9330   22.5502 H   0  0  0  0  0  0
  -31.1400  -14.7038   23.3672 H   0  0  0  0  0  0
  -26.6343  -21.8058   21.5386 H   0  0  0  0  0  0
  -25.9222  -22.9349   20.3895 H   0  0  0  0  0  0
  -26.6543  -23.5025   21.8931 H   0  0  0  0  0  0
  -31.4100  -20.5771   20.2626 H   0  0  0  0  0  0
  -30.0988  -20.9534   21.3149 H   0  0  0  0  0  0
  -29.7711  -20.7384   18.2842 H   0  0  0  0  0  0
  -30.3078  -22.1936   19.0413 H   0  0  0  0  0  0
  -27.6591  -20.8888   19.7584 H   0  0  0  0  0  0
  -27.7910  -22.0329   18.4660 H   0  0  0  0  0  0
  -29.2075  -24.2271   19.1821 H   0  0  0  0  0  0
  -27.4901  -24.3856   18.9880 H   0  0  0  0  0  0
  -29.1914  -25.3326   21.3612 H   0  0  0  0  0  0
  -27.4630  -25.4309   21.4055 H   0  0  0  0  0  0
  -29.1763  -15.2732   21.9909 H   0  0  0  0  0  0
  -28.7640  -22.7820   21.0929 H   0  0  0  0  0  0
  1 25  1  0  0  0
  1 30  2  0  0  0
  1 81  1  0  0  0
  2  3  1  0  0  0
  2 25  1  0  0  0
  2 85  1  0  0  0
  2 86  1  0  0  0
  3  4  1  0  0  0
  3 87  1  0  0  0
  3 88  1  0  0  0
  4  5  1  0  0  0
  4 89  1  0  0  0
  4 90  1  0  0  0
  5  6  1  0  0  0
  5 26  1  0  0  0
  5 91  1  0  0  0
  6 25  1  0  0  0
  6 92  1  0  0  0
  6 93  1  0  0  0
  7  8  2  0  0  0
  7 26  1  0  0  0
  7 29  1  0  0  0
  8  9  1  0  0  0
  8 22  1  0  0  0
  9 10  1  0  0  0
  9 27  2  0  0  0
 10 11  2  0  0  0
 10 15  1  0  0  0
 11 12  1  0  0  0
 11 94  1  0  0  0
 12 13  2  0  0  0
 12 95  1  0  0  0
 13 14  1  0  0  0
 13 31  1  0  0  0
 14 15  2  0  0  0
 14 96  1  0  0  0
 15 97  1  0  0  0
 16 17  2  0  0  0
 16 21  1  0  0  0
 16 31  1  0  0  0
 17 18  1  0  0  0
 17 98  1  0  0  0
 18 19  2  0  0  0
 18 99  1  0  0  0
 19 20  1  0  0  0
 19 24  1  0  0  0
 20 21  2  0  0  0
 20100  1  0  0  0
 21 23  1  0  0  0
 22 28  1  0  0  0
 22 32  2  0  0  0
 26 27  1  0  0  0
 28101  1  0  0  0
 28102  1  0  0  0
 29103  1  0  0  0
 29104  1  0  0  0
 33 34  1  0  0  0
 33 66  1  0  0  0
 33 70  2  0  0  0
 34 36  1  0  0  0
 34 59  1  0  0  0
 34105  1  0  0  0
 35 44  2  0  0  0
 35 45  1  0  0  0
 35 68  1  0  0  0
 36 56  1  0  0  0
 36106  1  0  0  0
 37 39  1  0  0  0
 37 47  1  0  0  0
 37 66  1  0  0  0
 37107  1  0  0  0
 38 43  2  0  0  0
 38 46  1  0  0  0
 38 47  1  0  0  0
 39 64  1  0  0  0
 39 67  2  0  0  0
 40 52  1  0  0  0
 40 53  2  0  0  0
 40 58  1  0  0  0
 41108  1  0  0  0
 41109  1  0  0  0
 41110  1  0  0  0
 41 48  1  0  0  0
 42 43  1  0  0  0
 42 66  1  0  0  0
 42111  1  0  0  0
 42112  1  0  0  0
 43 44  1  0  0  0
 44113  1  0  0  0
 45 46  2  0  0  0
 45114  1  0  0  0
 46115  1  0  0  0
 47116  1  0  0  0
 47117  1  0  0  0
 48 56  1  0  0  0
 48 65  1  0  0  0
 48118  1  0  0  0
 49 50  1  0  0  0
 49 53  1  0  0  0
 49 64  1  0  0  0
 49119  1  0  0  0
 50 51  1  0  0  0
 50120  1  0  0  0
 50121  1  0  0  0
 51 52  1  0  0  0
 51122  1  0  0  0
 51123  1  0  0  0
 52124  1  0  0  0
 52125  1  0  0  0
 53 54  1  0  0  0
 54 55  2  0  0  0
 54126  1  0  0  0
 55 57  1  0  0  0
 55127  1  0  0  0
 56 69  2  0  0  0
 57 58  2  0  0  0
 57128  1  0  0  0
 58129  1  0  0  0
 59 60  1  0  0  0
 59 61  1  0  0  0
 59 62  1  0  0  0
 60130  1  0  0  0
 60131  1  0  0  0
 60132  1  0  0  0
 61133  1  0  0  0
 61134  1  0  0  0
 61135  1  0  0  0
 62136  1  0  0  0
 62137  1  0  0  0
 62138  1  0  0  0
 63 65  1  0  0  0
 63139  1  0  0  0
 63140  1  0  0  0
 63141  1  0  0  0
 64142  1  0  0  0
 65143  1  0  0  0
 68 80  1  0  0  0
 71 73  1  0  0  0
 71 82  2  0  0  0
 71144  1  0  0  0
 72 73  2  0  0  0
 72 83  1  0  0  0
 72145  1  0  0  0
 73 76  1  0  0  0
 74146  1  0  0  0
 74147  1  0  0  0
 74148  1  0  0  0
 74 81  1  0  0  0
 75149  1  0  0  0
 75150  1  0  0  0
 75151  1  0  0  0
 75 84  1  0  0  0
 76 77  1  0  0  0
 76152  1  0  0  0
 76153  1  0  0  0
 77 78  1  0  0  0
 77154  1  0  0  0
 77155  1  0  0  0
 78 84  1  0  0  0
 78156  1  0  0  0
 78157  1  0  0  0
 79 80  1  0  0  0
 79 84  1  0  0  0
 79158  1  0  0  0
 79159  1  0  0  0
 80160  1  0  0  0
 80161  1  0  0  0
 81 83  1  0  0  0
 81162  1  0  0  0
 82 83  1  0  0  0
 84163  1  0  0  0
M  CHG  1  84   1
M  ISO  4   1 100  68 101  80 101  81 100
M  END
> <chiral flag>
0

> <version>
0

> <s_m_source_file>
/data/baiqing/PycharmProjects/Reinvent-master-3.2/result/LINK_invent/BTK/process_docking_weight1_custom_sum_contain_oxygen_bond_distance_aromatic_linkinvent_7_9_3/rearranged_h_0056.sdf

> <i_m_source_file_index>
20

> <r_mmod_Potential_Energy-OPLS-2005>
-47.7258720397949

> <r_mmod_Stretch_Energy-OPLS-2005>
38.3846015930176

> <r_mmod_Bend_Energy-OPLS-2005>
102.689331054688

> <r_mmod_Torsional_Energy-OPLS-2005>
230.569122314453

> <r_mmod_Improper_Torsional_Energy-OPLS-2005>
1.80905628204346

> <r_mmod_Van_der_Waal_Energy-OPLS-2005>
128.692199707031

> <r_mmod_Electrostatic_Energy-OPLS-2005>
-136.73518371582

> <r_mmod_Solvation_Energy-OPLS-2005>
-422.213348388672

> <b_mmod_Minimization_Converged-OPLS-2005>
0

> <r_mmod_RMS_Derivative-OPLS-2005>
1.48341774940491

$$$$
22
                    3D
 Structure written by MMmdl.
160168  0  0  1  0            999 V2000
  -30.5871  -14.9252   20.3735 C   0  0  0  0  0  0
  -30.4377  -12.5697   19.4750 C   0  0  0  0  0  0
  -29.5113  -12.4924   18.2416 C   0  0  0  0  0  0
  -28.0475  -12.2791   18.6755 C   0  0  0  0  0  0
  -27.6196  -13.2236   19.8288 C   0  0  2  0  0  0
  -28.6776  -13.3011   20.9506 C   0  0  0  0  0  0
  -25.2475  -13.8133   20.5777 C   0  0  0  0  0  0
  -24.1763  -13.0393   20.9257 C   0  0  0  0  0  0
  -24.6354  -11.6870   20.8793 C   0  0  0  0  0  0
  -23.9037  -10.4261   21.0437 C   0  0  0  0  0  0
  -24.3594   -9.4179   21.9204 C   0  0  0  0  0  0
  -23.6277   -8.2214   22.0760 C   0  0  0  0  0  0
  -22.4262   -8.0257   21.3544 C   0  0  0  0  0  0
  -21.9896   -9.0230   20.4652 C   0  0  0  0  0  0
  -22.7216  -10.2112   20.3072 C   0  0  0  0  0  0
  -21.6841   -6.0723   22.5279 C   0  0  0  0  0  0
  -21.4006   -6.5634   23.8212 C   0  0  0  0  0  0
  -21.3661   -5.6788   24.9176 C   0  0  0  0  0  0
  -21.6042   -4.3050   24.7228 C   0  0  0  0  0  0
  -21.8817   -3.8140   23.4351 C   0  0  0  0  0  0
  -21.9191   -4.6954   22.3406 C   0  0  0  0  0  0
  -22.7793  -13.5196   21.1890 C   0  0  0  0  0  0
  -22.1660   -4.2136   21.0982 F   0  0  0  0  0  0
  -21.5635   -3.4539   25.7747 F   0  0  0  0  0  0
  -29.9480  -13.6883   20.3221 N   0  0  0  0  0  0
  -26.2857  -12.9301   20.3300 N   0  0  0  0  0  0
  -25.9279  -11.6462   20.5799 N   0  0  0  0  0  0
  -22.0425  -12.8201   22.0441 N   0  0  0  0  0  0
  -25.4168  -15.1862   20.4242 N   0  0  0  0  0  0
  -31.8177  -14.9272   20.2714 O   0  0  0  0  0  0
  -21.6626   -6.8860   21.4240 O   0  0  0  0  0  0
  -22.3495  -14.5501   20.6720 O   0  0  0  0  0  0
  -24.6401  -31.8469   23.1894 C   0  0  0  0  0  0
  -25.9185  -32.4711   23.8277 C   0  0  1  0  0  0
  -27.2211  -27.1747   20.1440 C   0  0  0  0  0  0
  -25.5941  -33.8516   24.2199 N   0  0  0  0  0  0
  -23.4417  -30.4658   21.5355 C   0  0  2  0  0  0
  -24.8897  -28.8965   20.1110 C   0  0  0  0  0  0
  -22.7546  -29.4560   22.4880 C   0  0  0  0  0  0
  -18.0298  -28.1396   22.8482 C   0  0  0  0  0  0
  -24.1490  -36.7267   23.2642 C   0  0  0  0  0  0
  -25.9940  -30.7334   21.3807 C   0  0  0  0  0  0
  -26.0658  -29.3474   20.7231 C   0  0  0  0  0  0
  -27.2338  -28.5034   20.7191 C   0  0  0  0  0  0
  -26.0164  -26.8083   19.5050 C   0  0  0  0  0  0
  -24.8756  -27.6390   19.4877 C   0  0  0  0  0  0
  -23.6641  -29.7938   20.1547 C   0  0  0  0  0  0
  -25.4121  -36.3044   24.0317 C   0  0  1  0  0  0
  -20.5909  -28.3716   23.1251 C   0  0  2  0  0  0
  -20.6785  -26.9424   22.5408 C   0  0  0  0  0  0
  -19.5756  -26.6385   21.5217 C   0  0  0  0  0  0
  -18.1938  -26.7934   22.1630 C   0  0  0  0  0  0
  -19.1556  -28.8874   23.2857 C   0  0  0  0  0  0
  -18.9473  -30.1473   23.8879 C   0  0  0  0  0  0
  -17.6470  -30.6596   24.0562 C   0  0  0  0  0  0
  -25.9069  -34.9418   23.5067 C   0  0  0  0  0  0
  -16.5359  -29.9088   23.6338 C   0  0  0  0  0  0
  -16.7286  -28.6507   23.0357 C   0  0  0  0  0  0
  -26.4515  -31.6569   25.0708 C   0  0  0  0  0  0
  -25.3706  -31.3761   26.1411 C   0  0  0  0  0  0
  -27.0371  -30.2966   24.6267 C   0  0  0  0  0  0
  -27.6047  -32.4334   25.7495 C   0  0  0  0  0  0
  -27.5575  -37.1789   24.8466 C   0  0  0  0  0  0
  -21.4246  -29.3042   22.3627 N   0  0  0  0  0  0
  -26.4288  -37.3752   23.9407 N   0  0  0  0  0  0
  -24.7117  -31.0352   22.0911 N   0  0  0  0  0  0
  -23.4205  -28.8113   23.3025 O   0  0  0  0  0  0
  -28.3030  -26.2361   20.1982 O   0  0  0  0  0  0
  -26.5658  -34.8912   22.4648 O   0  0  0  0  0  0
  -23.5528  -32.1337   23.7132 O   0  0  0  0  0  0
  -30.3619  -19.9448   19.5292 C   0  0  0  0  0  0
  -29.7552  -19.0793   20.4808 C   0  0  0  0  0  0
  -28.8030  -19.8389   21.2388 C   0  0  0  0  0  0
  -29.2361  -21.9585   20.1927 C   0  0  0  0  0  0
  -28.0191  -19.1655   22.3449 C   0  0  0  0  0  0
  -30.3079  -24.0824   19.1679 C   0  0  0  0  0  0
  -30.0302  -23.9331   21.6270 C   0  0  0  0  0  0
  -28.9375  -16.3614   19.2015 C   0  0  0  0  0  0
  -30.3292  -17.5667   20.8282 C   0  0  0  0  0  0
  -28.0886  -24.7032   20.1305 C   0  0  0  0  0  0
  -29.3422  -23.6170   20.2857 C   0  0  0  0  0  0
  -30.1182  -21.2965   19.4107 N   0  0  0  0  0  0
  -28.5724  -21.2061   21.1002 N   0  0  0  0  0  0
  -29.8655  -16.1617   20.3166 N   0  0  0  0  0  0
  -31.4695  -12.7226   19.1532 H   0  0  0  0  0  0
  -30.4317  -11.6313   20.0319 H   0  0  0  0  0  0
  -29.8276  -11.6826   17.5835 H   0  0  0  0  0  0
  -29.5946  -13.4084   17.6550 H   0  0  0  0  0  0
  -27.9552  -11.2430   19.0026 H   0  0  0  0  0  0
  -27.3767  -12.3894   17.8227 H   0  0  0  0  0  0
  -27.5382  -14.2002   19.3696 H   0  0  0  0  0  0
  -28.7721  -12.3487   21.4743 H   0  0  0  0  0  0
  -28.3868  -14.0421   21.6971 H   0  0  0  0  0  0
  -25.2738   -9.5653   22.4781 H   0  0  0  0  0  0
  -23.9982   -7.4601   22.7474 H   0  0  0  0  0  0
  -21.0825   -8.8749   19.8957 H   0  0  0  0  0  0
  -22.3678  -10.9655   19.6185 H   0  0  0  0  0  0
  -21.1992   -7.6140   23.9710 H   0  0  0  0  0  0
  -21.1489   -6.0523   25.9077 H   0  0  0  0  0  0
  -22.0598   -2.7602   23.2857 H   0  0  0  0  0  0
  -22.4035  -11.9867   22.4843 H   0  0  0  0  0  0
  -21.1045  -13.1235   22.2629 H   0  0  0  0  0  0
  -24.6549  -15.8433   20.5524 H   0  0  0  0  0  0
  -26.2770  -15.6284   20.1292 H   0  0  0  0  0  0
  -26.7252  -32.5326   23.1012 H   0  0  0  0  0  0
  -25.0047  -33.9635   25.0318 H   0  0  0  0  0  0
  -22.7425  -31.2907   21.3828 H   0  0  0  0  0  0
  -23.3751  -35.9600   23.3297 H   0  0  0  0  0  0
  -24.3574  -36.8905   22.2058 H   0  0  0  0  0  0
  -23.7247  -37.6463   23.6682 H   0  0  0  0  0  0
  -26.1430  -31.4888   20.6081 H   0  0  0  0  0  0
  -26.8672  -30.7838   22.0198 H   0  0  0  0  0  0
  -28.1342  -28.8460   21.2091 H   0  0  0  0  0  0
  -25.9244  -25.8461   19.0249 H   0  0  0  0  0  0
  -23.9761  -27.2878   19.0009 H   0  0  0  0  0  0
  -23.7952  -30.5680   19.3976 H   0  0  0  0  0  0
  -22.7798  -29.2321   19.8479 H   0  0  0  0  0  0
  -25.1307  -36.1877   25.0808 H   0  0  0  0  0  0
  -20.9999  -28.3300   24.1373 H   0  0  0  0  0  0
  -20.5686  -26.2327   23.3621 H   0  0  0  0  0  0
  -21.6649  -26.7436   22.1200 H   0  0  0  0  0  0
  -19.6916  -25.6294   21.1253 H   0  0  0  0  0  0
  -19.6690  -27.3191   20.6742 H   0  0  0  0  0  0
  -17.4205  -26.6680   21.4034 H   0  0  0  0  0  0
  -18.0335  -26.0083   22.9034 H   0  0  0  0  0  0
  -19.7948  -30.7294   24.2235 H   0  0  0  0  0  0
  -17.5024  -31.6271   24.5169 H   0  0  0  0  0  0
  -15.5360  -30.2982   23.7673 H   0  0  0  0  0  0
  -15.8686  -28.0820   22.7081 H   0  0  0  0  0  0
  -24.5883  -30.7110   25.7737 H   0  0  0  0  0  0
  -24.8897  -32.2946   26.4783 H   0  0  0  0  0  0
  -25.7991  -30.8970   27.0223 H   0  0  0  0  0  0
  -26.2979  -29.6700   24.1262 H   0  0  0  0  0  0
  -27.3979  -29.7255   25.4832 H   0  0  0  0  0  0
  -27.8889  -30.4206   23.9577 H   0  0  0  0  0  0
  -27.2633  -33.3647   26.2029 H   0  0  0  0  0  0
  -28.3878  -32.6877   25.0339 H   0  0  0  0  0  0
  -28.0693  -31.8491   26.5449 H   0  0  0  0  0  0
  -28.2590  -38.0088   24.7501 H   0  0  0  0  0  0
  -28.1071  -36.2614   24.6301 H   0  0  0  0  0  0
  -27.2291  -37.1449   25.8868 H   0  0  0  0  0  0
  -20.9455  -29.8747   21.6801 H   0  0  0  0  0  0
  -26.0157  -38.2822   24.1404 H   0  0  0  0  0  0
  -31.1452  -19.5636   18.8908 H   0  0  0  0  0  0
  -27.7187  -18.1627   22.0434 H   0  0  0  0  0  0
  -27.1149  -19.7241   22.5880 H   0  0  0  0  0  0
  -28.6270  -19.0863   23.2455 H   0  0  0  0  0  0
  -31.2900  -23.6169   19.2568 H   0  0  0  0  0  0
  -30.4704  -25.1599   19.1925 H   0  0  0  0  0  0
  -29.9115  -23.8327   18.1834 H   0  0  0  0  0  0
  -30.9694  -23.3891   21.7289 H   0  0  0  0  0  0
  -29.3934  -23.6484   22.4647 H   0  0  0  0  0  0
  -30.2498  -24.9964   21.7259 H   0  0  0  0  0  0
  -27.9197  -16.4884   19.5672 H   0  0  0  0  0  0
  -28.9618  -15.5459   18.4789 H   0  0  0  0  0  0
  -29.1942  -17.2497   18.6247 H   0  0  0  0  0  0
  -30.3138  -17.4894   21.9158 H   0  0  0  0  0  0
  -31.3935  -17.6154   20.5894 H   0  0  0  0  0  0
  -27.3437  -24.4560   20.8875 H   0  0  0  0  0  0
  -27.6154  -24.4838   19.1738 H   0  0  0  0  0  0
  1 25  1  0  0  0
  1 30  2  0  0  0
  1 84  1  0  0  0
  2  3  1  0  0  0
  2 25  1  0  0  0
  2 85  1  0  0  0
  2 86  1  0  0  0
  3  4  1  0  0  0
  3 87  1  0  0  0
  3 88  1  0  0  0
  4  5  1  0  0  0
  4 89  1  0  0  0
  4 90  1  0  0  0
  5  6  1  0  0  0
  5 26  1  0  0  0
  5 91  1  0  0  0
  6 25  1  0  0  0
  6 92  1  0  0  0
  6 93  1  0  0  0
  7  8  2  0  0  0
  7 26  1  0  0  0
  7 29  1  0  0  0
  8  9  1  0  0  0
  8 22  1  0  0  0
  9 10  1  0  0  0
  9 27  2  0  0  0
 10 11  2  0  0  0
 10 15  1  0  0  0
 11 12  1  0  0  0
 11 94  1  0  0  0
 12 13  2  0  0  0
 12 95  1  0  0  0
 13 14  1  0  0  0
 13 31  1  0  0  0
 14 15  2  0  0  0
 14 96  1  0  0  0
 15 97  1  0  0  0
 16 17  2  0  0  0
 16 21  1  0  0  0
 16 31  1  0  0  0
 17 18  1  0  0  0
 17 98  1  0  0  0
 18 19  2  0  0  0
 18 99  1  0  0  0
 19 20  1  0  0  0
 19 24  1  0  0  0
 20 21  2  0  0  0
 20100  1  0  0  0
 21 23  1  0  0  0
 22 28  1  0  0  0
 22 32  2  0  0  0
 26 27  1  0  0  0
 28101  1  0  0  0
 28102  1  0  0  0
 29103  1  0  0  0
 29104  1  0  0  0
 33 34  1  0  0  0
 33 66  1  0  0  0
 33 70  2  0  0  0
 34 36  1  0  0  0
 34 59  1  0  0  0
 34105  1  0  0  0
 35 44  2  0  0  0
 35 45  1  0  0  0
 35 68  1  0  0  0
 36 56  1  0  0  0
 36106  1  0  0  0
 37 39  1  0  0  0
 37 47  1  0  0  0
 37 66  1  0  0  0
 37107  1  0  0  0
 38 43  2  0  0  0
 38 46  1  0  0  0
 38 47  1  0  0  0
 39 64  1  0  0  0
 39 67  2  0  0  0
 40 52  1  0  0  0
 40 53  2  0  0  0
 40 58  1  0  0  0
 41108  1  0  0  0
 41109  1  0  0  0
 41110  1  0  0  0
 41 48  1  0  0  0
 42 43  1  0  0  0
 42 66  1  0  0  0
 42111  1  0  0  0
 42112  1  0  0  0
 43 44  1  0  0  0
 44113  1  0  0  0
 45 46  2  0  0  0
 45114  1  0  0  0
 46115  1  0  0  0
 47116  1  0  0  0
 47117  1  0  0  0
 48 56  1  0  0  0
 48 65  1  0  0  0
 48118  1  0  0  0
 49 50  1  0  0  0
 49 53  1  0  0  0
 49 64  1  0  0  0
 49119  1  0  0  0
 50 51  1  0  0  0
 50120  1  0  0  0
 50121  1  0  0  0
 51 52  1  0  0  0
 51122  1  0  0  0
 51123  1  0  0  0
 52124  1  0  0  0
 52125  1  0  0  0
 53 54  1  0  0  0
 54 55  2  0  0  0
 54126  1  0  0  0
 55 57  1  0  0  0
 55127  1  0  0  0
 56 69  2  0  0  0
 57 58  2  0  0  0
 57128  1  0  0  0
 58129  1  0  0  0
 59 60  1  0  0  0
 59 61  1  0  0  0
 59 62  1  0  0  0
 60130  1  0  0  0
 60131  1  0  0  0
 60132  1  0  0  0
 61133  1  0  0  0
 61134  1  0  0  0
 61135  1  0  0  0
 62136  1  0  0  0
 62137  1  0  0  0
 62138  1  0  0  0
 63 65  1  0  0  0
 63139  1  0  0  0
 63140  1  0  0  0
 63141  1  0  0  0
 64142  1  0  0  0
 65143  1  0  0  0
 68 80  1  0  0  0
 71 72  2  0  0  0
 71 82  1  0  0  0
 71144  1  0  0  0
 72 73  1  0  0  0
 72 79  1  0  0  0
 73 75  1  0  0  0
 73 83  2  0  0  0
 74 81  1  0  0  0
 74 82  2  0  0  0
 74 83  1  0  0  0
 75145  1  0  0  0
 75146  1  0  0  0
 75147  1  0  0  0
 76148  1  0  0  0
 76149  1  0  0  0
 76150  1  0  0  0
 76 81  1  0  0  0
 77 81  1  0  0  0
 77151  1  0  0  0
 77152  1  0  0  0
 77153  1  0  0  0
 78 84  1  0  0  0
 78154  1  0  0  0
 78155  1  0  0  0
 78156  1  0  0  0
 79 84  1  0  0  0
 79157  1  0  0  0
 79158  1  0  0  0
 80 81  1  0  0  0
 80159  1  0  0  0
 80160  1  0  0  0
M  ISO  4   1 100  68 101  80 101  84 100
M  END
> <chiral flag>
0

> <version>
0

> <s_m_source_file>
/data/baiqing/PycharmProjects/Reinvent-master-3.2/result/LINK_invent/BTK/process_docking_weight1_custom_sum_contain_oxygen_bond_distance_aromatic_linkinvent_7_9_3/rearranged_h_0056.sdf

> <i_m_source_file_index>
21

> <r_mmod_Potential_Energy-OPLS-2005>
213.468154907227

> <r_mmod_Stretch_Energy-OPLS-2005>
217.108947753906

> <r_mmod_Bend_Energy-OPLS-2005>
257.478118896484

> <r_mmod_Torsional_Energy-OPLS-2005>
283.205780029297

> <r_mmod_Improper_Torsional_Energy-OPLS-2005>
11.9030208587646

> <r_mmod_Van_der_Waal_Energy-OPLS-2005>
144.534423828125

> <r_mmod_Electrostatic_Energy-OPLS-2005>
-657.737426757812

> <r_mmod_Solvation_Energy-OPLS-2005>
-216.30241394043

> <b_mmod_Minimization_Converged-OPLS-2005>
0

> <r_mmod_RMS_Derivative-OPLS-2005>
1.05309700965881

$$$$
23
                    3D
 Structure written by MMmdl.
157165  0  0  1  0            999 V2000
  -30.5830  -14.7411   20.5512 C   0  0  0  0  0  0
  -30.4468  -12.4751   19.4660 C   0  0  0  0  0  0
  -29.5195  -12.5403   18.2325 C   0  0  0  0  0  0
  -28.0410  -12.3572   18.6370 C   0  0  0  0  0  0
  -27.6481  -13.2220   19.8653 C   0  0  2  0  0  0
  -28.6867  -13.0555   20.9881 C   0  0  0  0  0  0
  -25.2526  -13.8152   20.5696 C   0  0  0  0  0  0
  -24.1809  -13.0404   20.9210 C   0  0  0  0  0  0
  -24.6397  -11.6875   20.8709 C   0  0  0  0  0  0
  -23.9050  -10.4261   21.0391 C   0  0  0  0  0  0
  -24.3599   -9.4196   21.9177 C   0  0  0  0  0  0
  -23.6290   -8.2214   22.0727 C   0  0  0  0  0  0
  -22.4263   -8.0267   21.3515 C   0  0  0  0  0  0
  -21.9906   -9.0239   20.4613 C   0  0  0  0  0  0
  -22.7224  -10.2118   20.3037 C   0  0  0  0  0  0
  -21.6852   -6.0738   22.5273 C   0  0  0  0  0  0
  -21.4022   -6.5643   23.8206 C   0  0  0  0  0  0
  -21.3649   -5.6791   24.9162 C   0  0  0  0  0  0
  -21.6040   -4.3055   24.7211 C   0  0  0  0  0  0
  -21.8818   -3.8150   23.4331 C   0  0  0  0  0  0
  -21.9194   -4.6970   22.3391 C   0  0  0  0  0  0
  -22.7833  -13.5196   21.1910 C   0  0  0  0  0  0
  -22.1667   -4.2154   21.0972 F   0  0  0  0  0  0
  -21.5613   -3.4539   25.7721 F   0  0  0  0  0  0
  -29.9782  -13.4979   20.4399 N   0  0  0  0  0  0
  -26.2957  -12.9345   20.3288 N   0  0  0  0  0  0
  -25.9319  -11.6482   20.5704 N   0  0  0  0  0  0
  -22.0482  -12.8160   22.0446 N   0  0  0  0  0  0
  -25.4185  -15.1882   20.4142 N   0  0  0  0  0  0
  -31.7377  -14.8656   20.1206 O   0  0  0  0  0  0
  -21.6648   -6.8865   21.4221 O   0  0  0  0  0  0
  -22.3510  -14.5492   20.6770 O   0  0  0  0  0  0
  -24.6315  -31.8529   23.1899 C   0  0  0  0  0  0
  -25.9124  -32.4735   23.8252 C   0  0  1  0  0  0
  -27.2195  -27.2504   20.1330 C   0  0  0  0  0  0
  -25.5895  -33.8530   24.2144 N   0  0  0  0  0  0
  -23.4304  -30.4713   21.5335 C   0  0  2  0  0  0
  -24.8772  -28.9029   20.1141 C   0  0  0  0  0  0
  -22.7525  -29.4586   22.4865 C   0  0  0  0  0  0
  -18.0313  -28.1419   22.8476 C   0  0  0  0  0  0
  -24.1513  -36.7284   23.2649 C   0  0  0  0  0  0
  -25.9796  -30.7509   21.3804 C   0  0  0  0  0  0
  -26.0461  -29.3718   20.7293 C   0  0  0  0  0  0
  -27.2224  -28.5548   20.7272 C   0  0  0  0  0  0
  -26.0306  -26.8408   19.4999 C   0  0  0  0  0  0
  -24.8736  -27.6459   19.4905 C   0  0  0  0  0  0
  -23.6500  -29.7941   20.1544 C   0  0  0  0  0  0
  -25.4146  -36.3035   24.0297 C   0  0  1  0  0  0
  -20.5912  -28.3742   23.1277 C   0  0  2  0  0  0
  -20.6816  -26.9446   22.5423 C   0  0  0  0  0  0
  -19.5767  -26.6381   21.5261 C   0  0  0  0  0  0
  -18.1941  -26.7954   22.1649 C   0  0  0  0  0  0
  -19.1553  -28.8902   23.2886 C   0  0  0  0  0  0
  -18.9478  -30.1503   23.8903 C   0  0  0  0  0  0
  -17.6455  -30.6616   24.0593 C   0  0  0  0  0  0
  -25.9080  -34.9429   23.5034 C   0  0  0  0  0  0
  -16.5357  -29.9102   23.6357 C   0  0  0  0  0  0
  -16.7294  -28.6546   23.0334 C   0  0  0  0  0  0
  -26.4487  -31.6588   25.0674 C   0  0  0  0  0  0
  -25.3684  -31.3678   26.1356 C   0  0  0  0  0  0
  -27.0355  -30.3018   24.6158 C   0  0  0  0  0  0
  -27.6017  -32.4373   25.7425 C   0  0  0  0  0  0
  -27.5572  -37.1777   24.8447 C   0  0  0  0  0  0
  -21.4217  -29.3069   22.3653 N   0  0  0  0  0  0
  -26.4285  -37.3754   23.9410 N   0  0  0  0  0  0
  -24.7003  -31.0453   22.0900 N   0  0  0  0  0  0
  -23.4226  -28.8110   23.2967 O   0  0  0  0  0  0
  -28.3249  -26.3781   20.0774 O   0  0  0  0  0  0
  -26.5699  -34.8912   22.4616 O   0  0  0  0  0  0
  -23.5476  -32.1326   23.7213 O   0  0  0  0  0  0
  -27.3016  -22.9102   19.8529 C   0  0  0  0  0  0
  -28.3349  -23.6565   20.3833 C   0  0  0  0  0  0
  -28.9510  -21.4100   20.2039 C   0  0  0  0  0  0
  -30.7334  -22.9529   20.9830 C   0  0  0  0  0  0
  -29.1179  -15.9555   22.1614 C   0  0  0  0  0  0
  -28.3485  -25.1475   20.9279 C   0  0  0  0  0  0
  -29.7774  -20.0545   20.2149 C   0  0  0  0  0  0
  -29.1663  -18.5768   20.4859 C   0  0  0  0  0  0
  -30.2027  -17.3122   20.4308 C   0  0  0  0  0  0
  -29.3601  -22.6873   20.5244 N   0  0  0  0  0  0
  -27.7010  -21.5874   19.7540 N   0  3  0  0  0  0
  -29.8289  -15.8881   20.8756 N   0  0  0  0  0  0
  -31.4821  -12.6290   19.1579 H   0  0  0  0  0  0
  -30.4240  -11.4772   19.9061 H   0  0  0  0  0  0
  -29.8027  -11.7821   17.5020 H   0  0  0  0  0  0
  -29.6504  -13.5048   17.7374 H   0  0  0  0  0  0
  -27.8940  -11.3022   18.8716 H   0  0  0  0  0  0
  -27.3874  -12.5746   17.7900 H   0  0  0  0  0  0
  -27.6683  -14.2640   19.5442 H   0  0  0  0  0  0
  -28.7433  -12.0073   21.2862 H   0  0  0  0  0  0
  -28.3859  -13.5750   21.8908 H   0  0  0  0  0  0
  -25.2712   -9.5700   22.4785 H   0  0  0  0  0  0
  -24.0001   -7.4608   22.7422 H   0  0  0  0  0  0
  -21.0835   -8.8746   19.8913 H   0  0  0  0  0  0
  -22.3655  -10.9674   19.6161 H   0  0  0  0  0  0
  -21.2030   -7.6152   23.9706 H   0  0  0  0  0  0
  -21.1465   -6.0524   25.9061 H   0  0  0  0  0  0
  -22.0605   -2.7614   23.2829 H   0  0  0  0  0  0
  -22.4120  -11.9861   22.4895 H   0  0  0  0  0  0
  -21.1056  -13.1124   22.2582 H   0  0  0  0  0  0
  -24.6403  -15.8285   20.5225 H   0  0  0  0  0  0
  -26.2648  -15.6375   20.0896 H   0  0  0  0  0  0
  -26.7168  -32.5368   23.0954 H   0  0  0  0  0  0
  -24.9989  -33.9674   25.0259 H   0  0  0  0  0  0
  -22.7301  -31.2976   21.3768 H   0  0  0  0  0  0
  -23.3763  -35.9617   23.3264 H   0  0  0  0  0  0
  -24.3607  -36.8983   22.2072 H   0  0  0  0  0  0
  -23.7275  -37.6457   23.6757 H   0  0  0  0  0  0
  -26.1333  -31.5014   20.6039 H   0  0  0  0  0  0
  -26.8580  -30.7930   22.0151 H   0  0  0  0  0  0
  -28.1249  -28.9012   21.2072 H   0  0  0  0  0  0
  -25.9974  -25.8802   19.0078 H   0  0  0  0  0  0
  -23.9804  -27.2861   19.0014 H   0  0  0  0  0  0
  -23.7749  -30.5625   19.3905 H   0  0  0  0  0  0
  -22.7728  -29.2205   19.8523 H   0  0  0  0  0  0
  -25.1339  -36.1814   25.0785 H   0  0  0  0  0  0
  -21.0033  -28.3306   24.1391 H   0  0  0  0  0  0
  -20.5811  -26.2329   23.3632 H   0  0  0  0  0  0
  -21.6667  -26.7514   22.1139 H   0  0  0  0  0  0
  -19.6950  -25.6297   21.1296 H   0  0  0  0  0  0
  -19.6712  -27.3224   20.6816 H   0  0  0  0  0  0
  -17.4224  -26.6749   21.4028 H   0  0  0  0  0  0
  -18.0285  -26.0116   22.9052 H   0  0  0  0  0  0
  -19.7951  -30.7345   24.2232 H   0  0  0  0  0  0
  -17.5002  -31.6284   24.5199 H   0  0  0  0  0  0
  -15.5355  -30.2987   23.7695 H   0  0  0  0  0  0
  -15.8694  -28.0890   22.6987 H   0  0  0  0  0  0
  -24.5888  -30.7035   25.7574 H   0  0  0  0  0  0
  -24.8871  -32.2847   26.4791 H   0  0  0  0  0  0
  -25.7950  -30.8778   27.0120 H   0  0  0  0  0  0
  -26.2921  -29.6725   24.1245 H   0  0  0  0  0  0
  -27.4127  -29.7300   25.4644 H   0  0  0  0  0  0
  -27.8754  -30.4303   23.9318 H   0  0  0  0  0  0
  -27.2614  -33.3732   26.1855 H   0  0  0  0  0  0
  -28.3839  -32.6849   25.0233 H   0  0  0  0  0  0
  -28.0649  -31.8609   26.5434 H   0  0  0  0  0  0
  -28.2508  -38.0160   24.7573 H   0  0  0  0  0  0
  -28.1153  -36.2677   24.6161 H   0  0  0  0  0  0
  -27.2306  -37.1244   25.8856 H   0  0  0  0  0  0
  -20.9412  -29.8758   21.6828 H   0  0  0  0  0  0
  -26.0129  -38.2805   24.1437 H   0  0  0  0  0  0
  -26.2981  -23.2146   19.5854 H   0  0  0  0  0  0
  -31.0241  -23.9705   20.7261 H   0  0  0  0  0  0
  -31.4385  -22.2867   20.4845 H   0  0  0  0  0  0
  -30.7998  -22.8121   22.0622 H   0  0  0  0  0  0
  -28.0406  -15.8590   22.0179 H   0  0  0  0  0  0
  -29.2915  -16.8972   22.6800 H   0  0  0  0  0  0
  -29.4522  -15.1918   22.8655 H   0  0  0  0  0  0
  -29.2500  -25.2528   21.5288 H   0  0  0  0  0  0
  -27.5479  -25.2286   21.6656 H   0  0  0  0  0  0
  -30.5557  -20.2034   20.9601 H   0  0  0  0  0  0
  -30.2879  -20.0395   19.2517 H   0  0  0  0  0  0
  -28.3590  -18.3952   19.7736 H   0  0  0  0  0  0
  -28.6774  -18.6192   21.4604 H   0  0  0  0  0  0
  -31.0722  -17.5849   21.0306 H   0  0  0  0  0  0
  -30.5753  -17.2465   19.4083 H   0  0  0  0  0  0
  -27.1190  -20.8389   19.3935 H   0  0  0  0  0  0
  1 25  1  0  0  0
  1 30  2  0  0  0
  1 82  1  0  0  0
  2  3  1  0  0  0
  2 25  1  0  0  0
  2 83  1  0  0  0
  2 84  1  0  0  0
  3  4  1  0  0  0
  3 85  1  0  0  0
  3 86  1  0  0  0
  4  5  1  0  0  0
  4 87  1  0  0  0
  4 88  1  0  0  0
  5  6  1  0  0  0
  5 26  1  0  0  0
  5 89  1  0  0  0
  6 25  1  0  0  0
  6 90  1  0  0  0
  6 91  1  0  0  0
  7  8  2  0  0  0
  7 26  1  0  0  0
  7 29  1  0  0  0
  8  9  1  0  0  0
  8 22  1  0  0  0
  9 10  1  0  0  0
  9 27  2  0  0  0
 10 11  2  0  0  0
 10 15  1  0  0  0
 11 12  1  0  0  0
 11 92  1  0  0  0
 12 13  2  0  0  0
 12 93  1  0  0  0
 13 14  1  0  0  0
 13 31  1  0  0  0
 14 15  2  0  0  0
 14 94  1  0  0  0
 15 95  1  0  0  0
 16 17  2  0  0  0
 16 21  1  0  0  0
 16 31  1  0  0  0
 17 18  1  0  0  0
 17 96  1  0  0  0
 18 19  2  0  0  0
 18 97  1  0  0  0
 19 20  1  0  0  0
 19 24  1  0  0  0
 20 21  2  0  0  0
 20 98  1  0  0  0
 21 23  1  0  0  0
 22 28  1  0  0  0
 22 32  2  0  0  0
 26 27  1  0  0  0
 28 99  1  0  0  0
 28100  1  0  0  0
 29101  1  0  0  0
 29102  1  0  0  0
 33 34  1  0  0  0
 33 66  1  0  0  0
 33 70  2  0  0  0
 34 36  1  0  0  0
 34 59  1  0  0  0
 34103  1  0  0  0
 35 44  2  0  0  0
 35 45  1  0  0  0
 35 68  1  0  0  0
 36 56  1  0  0  0
 36104  1  0  0  0
 37 39  1  0  0  0
 37 47  1  0  0  0
 37 66  1  0  0  0
 37105  1  0  0  0
 38 43  2  0  0  0
 38 46  1  0  0  0
 38 47  1  0  0  0
 39 64  1  0  0  0
 39 67  2  0  0  0
 40 52  1  0  0  0
 40 53  2  0  0  0
 40 58  1  0  0  0
 41106  1  0  0  0
 41107  1  0  0  0
 41108  1  0  0  0
 41 48  1  0  0  0
 42 43  1  0  0  0
 42 66  1  0  0  0
 42109  1  0  0  0
 42110  1  0  0  0
 43 44  1  0  0  0
 44111  1  0  0  0
 45 46  2  0  0  0
 45112  1  0  0  0
 46113  1  0  0  0
 47114  1  0  0  0
 47115  1  0  0  0
 48 56  1  0  0  0
 48 65  1  0  0  0
 48116  1  0  0  0
 49 50  1  0  0  0
 49 53  1  0  0  0
 49 64  1  0  0  0
 49117  1  0  0  0
 50 51  1  0  0  0
 50118  1  0  0  0
 50119  1  0  0  0
 51 52  1  0  0  0
 51120  1  0  0  0
 51121  1  0  0  0
 52122  1  0  0  0
 52123  1  0  0  0
 53 54  1  0  0  0
 54 55  2  0  0  0
 54124  1  0  0  0
 55 57  1  0  0  0
 55125  1  0  0  0
 56 69  2  0  0  0
 57 58  2  0  0  0
 57126  1  0  0  0
 58127  1  0  0  0
 59 60  1  0  0  0
 59 61  1  0  0  0
 59 62  1  0  0  0
 60128  1  0  0  0
 60129  1  0  0  0
 60130  1  0  0  0
 61131  1  0  0  0
 61132  1  0  0  0
 61133  1  0  0  0
 62134  1  0  0  0
 62135  1  0  0  0
 62136  1  0  0  0
 63 65  1  0  0  0
 63137  1  0  0  0
 63138  1  0  0  0
 63139  1  0  0  0
 64140  1  0  0  0
 65141  1  0  0  0
 68 76  1  0  0  0
 71 72  2  0  0  0
 71 81  1  0  0  0
 71142  1  0  0  0
 72 76  1  0  0  0
 72 80  1  0  0  0
 73 77  1  0  0  0
 73 80  1  0  0  0
 73 81  2  0  0  0
 74 80  1  0  0  0
 74143  1  0  0  0
 74144  1  0  0  0
 74145  1  0  0  0
 75 82  1  0  0  0
 75146  1  0  0  0
 75147  1  0  0  0
 75148  1  0  0  0
 76149  1  0  0  0
 76150  1  0  0  0
 77 78  1  0  0  0
 77151  1  0  0  0
 77152  1  0  0  0
 78 79  1  0  0  0
 78153  1  0  0  0
 78154  1  0  0  0
 79 82  1  0  0  0
 79155  1  0  0  0
 79156  1  0  0  0
 81157  1  0  0  0
M  CHG  1  81   1
M  ISO  4   1 100  68 101  76 101  82 100
M  END
> <chiral flag>
0

> <version>
0

> <s_m_source_file>
/data/baiqing/PycharmProjects/Reinvent-master-3.2/result/LINK_invent/BTK/process_docking_weight1_custom_sum_contain_oxygen_bond_distance_aromatic_linkinvent_7_9_3/rearranged_h_0056.sdf

> <i_m_source_file_index>
22

> <r_mmod_Potential_Energy-OPLS-2005>
255.558715820312

> <r_mmod_Stretch_Energy-OPLS-2005>
133.592727661133

> <r_mmod_Bend_Energy-OPLS-2005>
183.919296264648

> <r_mmod_Torsional_Energy-OPLS-2005>
303.920501708984

> <r_mmod_Improper_Torsional_Energy-OPLS-2005>
9.99902057647705

> <r_mmod_Van_der_Waal_Energy-OPLS-2005>
120.525581359863

> <r_mmod_Electrostatic_Energy-OPLS-2005>
-160.876922607422

> <r_mmod_Solvation_Energy-OPLS-2005>
-414.752563476562

> <b_mmod_Minimization_Converged-OPLS-2005>
0

> <r_mmod_RMS_Derivative-OPLS-2005>
4.89771413803101

$$$$
24
                    3D
 Structure written by MMmdl.
177185  0  0  1  0            999 V2000
  -30.7739  -14.4514   20.5556 C   0  0  0  0  0  0
  -30.4202  -12.2844   19.4559 C   0  0  0  0  0  0
  -29.5028  -12.4663   18.2301 C   0  0  0  0  0  0
  -28.0270  -12.3173   18.6453 C   0  0  0  0  0  0
  -27.6605  -13.2040   19.8661 C   0  0  2  0  0  0
  -28.7038  -13.0737   21.0032 C   0  0  0  0  0  0
  -25.2560  -13.8114   20.5621 C   0  0  0  0  0  0
  -24.1830  -13.0398   20.9173 C   0  0  0  0  0  0
  -24.6413  -11.6880   20.8775 C   0  0  0  0  0  0
  -23.9078  -10.4288   21.0421 C   0  0  0  0  0  0
  -24.3631   -9.4201   21.9193 C   0  0  0  0  0  0
  -23.6301   -8.2242   22.0769 C   0  0  0  0  0  0
  -22.4293   -8.0289   21.3552 C   0  0  0  0  0  0
  -21.9936   -9.0256   20.4644 C   0  0  0  0  0  0
  -22.7259  -10.2139   20.3047 C   0  0  0  0  0  0
  -21.6849   -6.0737   22.5288 C   0  0  0  0  0  0
  -21.4003   -6.5633   23.8214 C   0  0  0  0  0  0
  -21.3678   -5.6802   24.9190 C   0  0  0  0  0  0
  -21.6057   -4.3063   24.7252 C   0  0  0  0  0  0
  -21.8786   -3.8143   23.4369 C   0  0  0  0  0  0
  -21.9173   -4.6961   22.3424 C   0  0  0  0  0  0
  -22.7843  -13.5189   21.1874 C   0  0  0  0  0  0
  -22.1643   -4.2131   21.1005 F   0  0  0  0  0  0
  -21.5666   -3.4558   25.7776 F   0  0  0  0  0  0
  -30.0403  -13.3113   20.4383 N   0  0  0  0  0  0
  -26.3039  -12.9295   20.3361 N   0  0  0  0  0  0
  -25.9344  -11.6467   20.5804 N   0  0  0  0  0  0
  -22.0459  -12.8193   22.0435 N   0  0  0  0  0  0
  -25.4164  -15.1806   20.3967 N   0  0  0  0  0  0
  -31.9387  -14.5349   20.1609 O   0  0  0  0  0  0
  -21.6628   -6.8895   21.4257 O   0  0  0  0  0  0
  -22.3505  -14.5507   20.6759 O   0  0  0  0  0  0
  -24.6140  -31.8702   23.2153 C   0  0  0  0  0  0
  -25.9066  -32.4817   23.8413 C   0  0  1  0  0  0
  -27.2061  -27.4572   20.0583 C   0  0  0  0  0  0
  -25.5913  -33.8623   24.2307 N   0  0  0  0  0  0
  -23.3933  -30.5047   21.5584 C   0  0  2  0  0  0
  -24.8230  -28.9725   20.1178 C   0  0  0  0  0  0
  -22.7359  -29.4723   22.4999 C   0  0  0  0  0  0
  -18.0300  -28.1433   22.8522 C   0  0  0  0  0  0
  -24.1461  -36.7275   23.2638 C   0  0  0  0  0  0
  -25.9206  -30.8409   21.3604 C   0  0  0  0  0  0
  -25.9895  -29.4796   20.7005 C   0  0  0  0  0  0
  -27.1857  -28.7335   20.6606 C   0  0  0  0  0  0
  -26.0211  -26.9593   19.4715 C   0  0  0  0  0  0
  -24.8324  -27.7096   19.5025 C   0  0  0  0  0  0
  -23.5922  -29.8443   20.1725 C   0  0  0  0  0  0
  -25.4096  -36.3084   24.0321 C   0  0  1  0  0  0
  -20.5888  -28.3696   23.1345 C   0  0  2  0  0  0
  -20.6773  -26.9444   22.5432 C   0  0  0  0  0  0
  -19.5747  -26.6456   21.5223 C   0  0  0  0  0  0
  -18.1935  -26.8002   22.1659 C   0  0  0  0  0  0
  -19.1545  -28.8896   23.2941 C   0  0  0  0  0  0
  -18.9458  -30.1497   23.8933 C   0  0  0  0  0  0
  -17.6461  -30.6629   24.0617 C   0  0  0  0  0  0
  -25.9021  -34.9466   23.5102 C   0  0  0  0  0  0
  -16.5359  -29.9126   23.6371 C   0  0  0  0  0  0
  -16.7286  -28.6569   23.0356 C   0  0  0  0  0  0
  -26.4518  -31.6594   25.0724 C   0  0  0  0  0  0
  -25.3805  -31.3667   26.1486 C   0  0  0  0  0  0
  -27.0332  -30.3035   24.6088 C   0  0  0  0  0  0
  -27.6093  -32.4302   25.7477 C   0  0  0  0  0  0
  -27.5551  -37.1799   24.8482 C   0  0  0  0  0  0
  -21.4124  -29.3037   22.3701 N   0  0  0  0  0  0
  -26.4268  -37.3770   23.9419 N   0  0  0  0  0  0
  -24.6625  -31.0818   22.1053 N   0  0  0  0  0  0
  -23.4158  -28.8286   23.3056 O   0  0  0  0  0  0
  -28.3842  -26.7427   20.0518 O   0  0  0  0  0  0
  -26.5597  -34.8923   22.4656 O   0  0  0  0  0  0
  -23.5371  -32.1511   23.7555 O   0  0  0  0  0  0
  -28.8554  -18.6207   18.9707 C   0  0  0  0  0  0
  -28.7200  -17.4505   19.7453 C   0  0  0  0  0  0
  -27.0105  -19.4457   20.0162 C   0  0  0  0  0  0
  -30.1824  -17.3579   24.3645 C   0  0  0  0  0  0
  -31.4407  -17.6728   21.6050 C   0  0  0  0  0  0
  -29.6840  -24.7591   20.0569 C   0  0  0  0  0  0
  -27.9651  -23.6498   23.7130 C   0  0  0  0  0  0
  -29.7464  -16.3342   19.6480 C   0  0  0  0  0  0
  -26.2573  -20.6885   20.4564 C   0  0  0  0  0  0
  -29.6128  -16.6850   23.1054 C   0  0  0  0  0  0
  -27.1641  -21.5226   21.3843 C   0  0  0  0  0  0
  -26.6666  -22.9334   21.7282 C   0  0  0  0  0  0
  -27.8089  -25.1598   21.7778 C   0  0  0  0  0  0
  -30.6735  -16.3886   22.0190 C   0  0  1  0  0  0
  -28.2888  -25.3395   20.3135 C   0  0  1  0  0  0
  -27.9740  -19.6329   19.1065 N   0  0  0  0  0  0
  -27.6530  -17.2943   20.5642 N   0  0  0  0  0  0
  -26.8138  -18.3268   20.7354 N   0  0  0  0  0  0
  -30.1161  -15.5908   20.8802 N   0  0  0  0  0  0
  -27.7997  -23.7475   22.2408 N   0  3  1  0  0  0
  -31.4703  -12.3465   19.1622 H   0  0  0  0  0  0
  -30.2948  -11.2934   19.8914 H   0  0  0  0  0  0
  -29.7516  -11.7262   17.4695 H   0  0  0  0  0  0
  -29.6622  -13.4422   17.7695 H   0  0  0  0  0  0
  -27.8729  -11.2666   18.8972 H   0  0  0  0  0  0
  -27.3671  -12.5186   17.8009 H   0  0  0  0  0  0
  -27.6759  -14.2345   19.5150 H   0  0  0  0  0  0
  -28.6694  -12.0823   21.4556 H   0  0  0  0  0  0
  -28.4748  -13.7795   21.8052 H   0  0  0  0  0  0
  -25.2790   -9.5667   22.4740 H   0  0  0  0  0  0
  -23.9996   -7.4642   22.7511 H   0  0  0  0  0  0
  -21.0851   -8.8775   19.8973 H   0  0  0  0  0  0
  -22.3728  -10.9671   19.6139 H   0  0  0  0  0  0
  -21.1972   -7.6133   23.9714 H   0  0  0  0  0  0
  -21.1556   -6.0542   25.9098 H   0  0  0  0  0  0
  -22.0551   -2.7600   23.2872 H   0  0  0  0  0  0
  -22.4065  -11.9879   22.4883 H   0  0  0  0  0  0
  -21.1068  -13.1192   22.2600 H   0  0  0  0  0  0
  -24.6578  -15.8321   20.5603 H   0  0  0  0  0  0
  -26.2919  -15.6637   20.2163 H   0  0  0  0  0  0
  -26.7104  -32.5510   23.1144 H   0  0  0  0  0  0
  -25.0041  -33.9805   25.0447 H   0  0  0  0  0  0
  -22.6791  -31.3215   21.4303 H   0  0  0  0  0  0
  -23.3704  -35.9624   23.3350 H   0  0  0  0  0  0
  -24.3539  -36.8870   22.2041 H   0  0  0  0  0  0
  -23.7245  -37.6505   23.6638 H   0  0  0  0  0  0
  -26.0339  -31.6083   20.5937 H   0  0  0  0  0  0
  -26.8076  -30.8852   21.9788 H   0  0  0  0  0  0
  -28.0914  -29.1341   21.0935 H   0  0  0  0  0  0
  -25.9793  -26.0078   18.9591 H   0  0  0  0  0  0
  -23.9308  -27.3272   19.0449 H   0  0  0  0  0  0
  -23.6920  -30.6198   19.4135 H   0  0  0  0  0  0
  -22.7086  -29.2730   19.8798 H   0  0  0  0  0  0
  -25.1278  -36.1922   25.0811 H   0  0  0  0  0  0
  -21.0035  -28.3285   24.1448 H   0  0  0  0  0  0
  -20.5690  -26.2312   23.3612 H   0  0  0  0  0  0
  -21.6643  -26.7495   22.1194 H   0  0  0  0  0  0
  -19.6877  -25.6366   21.1238 H   0  0  0  0  0  0
  -19.6682  -27.3273   20.6746 H   0  0  0  0  0  0
  -17.4194  -26.6782   21.4055 H   0  0  0  0  0  0
  -18.0328  -26.0119   22.9033 H   0  0  0  0  0  0
  -19.7912  -30.7355   24.2264 H   0  0  0  0  0  0
  -17.5004  -31.6318   24.5216 H   0  0  0  0  0  0
  -15.5361  -30.3048   23.7660 H   0  0  0  0  0  0
  -15.8690  -28.0921   22.7002 H   0  0  0  0  0  0
  -24.5991  -30.6985   25.7823 H   0  0  0  0  0  0
  -24.8983  -32.2810   26.4938 H   0  0  0  0  0  0
  -25.8222  -30.8847   27.0210 H   0  0  0  0  0  0
  -26.2840  -29.6762   24.1247 H   0  0  0  0  0  0
  -27.4189  -29.7317   25.4531 H   0  0  0  0  0  0
  -27.8642  -30.4318   23.9154 H   0  0  0  0  0  0
  -27.2722  -33.3583   26.2086 H   0  0  0  0  0  0
  -28.3902  -32.6900   25.0311 H   0  0  0  0  0  0
  -28.0758  -31.8402   26.5374 H   0  0  0  0  0  0
  -28.2620  -38.0049   24.7482 H   0  0  0  0  0  0
  -28.1003  -36.2593   24.6361 H   0  0  0  0  0  0
  -27.2268  -37.1493   25.8889 H   0  0  0  0  0  0
  -20.9241  -29.8729   21.6901 H   0  0  0  0  0  0
  -26.0142  -38.2820   24.1488 H   0  0  0  0  0  0
  -29.6798  -18.7493   18.2832 H   0  0  0  0  0  0
  -30.9768  -16.7693   24.8239 H   0  0  0  0  0  0
  -29.3995  -17.4999   25.1080 H   0  0  0  0  0  0
  -30.5788  -18.3469   24.1352 H   0  0  0  0  0  0
  -32.0942  -18.0041   22.4130 H   0  0  0  0  0  0
  -30.7732  -18.5040   21.3716 H   0  0  0  0  0  0
  -32.0911  -17.5148   20.7466 H   0  0  0  0  0  0
  -29.6746  -23.6678   20.0820 H   0  0  0  0  0  0
  -30.3993  -25.1043   20.8009 H   0  0  0  0  0  0
  -30.0479  -25.0622   19.0705 H   0  0  0  0  0  0
  -27.1688  -24.1786   24.2361 H   0  0  0  0  0  0
  -28.9141  -24.0956   24.0137 H   0  0  0  0  0  0
  -27.9559  -22.6117   24.0456 H   0  0  0  0  0  0
  -30.6445  -16.7592   19.1981 H   0  0  0  0  0  0
  -29.3605  -15.6464   18.8976 H   0  0  0  0  0  0
  -25.3356  -20.4049   20.9683 H   0  0  0  0  0  0
  -25.9631  -21.2630   19.5751 H   0  0  0  0  0  0
  -29.0961  -15.7640   23.3841 H   0  0  0  0  0  0
  -28.8508  -17.3561   22.7275 H   0  0  0  0  0  0
  -28.1257  -21.6328   20.8804 H   0  0  0  0  0  0
  -27.3728  -20.9557   22.2927 H   0  0  0  0  0  0
  -25.8427  -22.8995   22.4479 H   0  0  0  0  0  0
  -26.2562  -23.3959   20.8310 H   0  0  0  0  0  0
  -26.8172  -25.5896   21.9435 H   0  0  0  0  0  0
  -28.4877  -25.7379   22.4030 H   0  0  0  0  0  0
  -31.4207  -15.7625   22.5173 H   0  0  0  0  0  0
  -27.6148  -24.8469   19.6150 H   0  0  0  0  0  0
  -28.6359  -23.3337   21.8551 H   0  0  0  0  0  0
  1 25  1  0  0  0
  1 30  2  0  0  0
  1 89  1  0  0  0
  2  3  1  0  0  0
  2 25  1  0  0  0
  2 91  1  0  0  0
  2 92  1  0  0  0
  3  4  1  0  0  0
  3 93  1  0  0  0
  3 94  1  0  0  0
  4  5  1  0  0  0
  4 95  1  0  0  0
  4 96  1  0  0  0
  5  6  1  0  0  0
  5 26  1  0  0  0
  5 97  1  0  0  0
  6 25  1  0  0  0
  6 98  1  0  0  0
  6 99  1  0  0  0
  7  8  2  0  0  0
  7 26  1  0  0  0
  7 29  1  0  0  0
  8  9  1  0  0  0
  8 22  1  0  0  0
  9 10  1  0  0  0
  9 27  2  0  0  0
 10 11  2  0  0  0
 10 15  1  0  0  0
 11 12  1  0  0  0
 11100  1  0  0  0
 12 13  2  0  0  0
 12101  1  0  0  0
 13 14  1  0  0  0
 13 31  1  0  0  0
 14 15  2  0  0  0
 14102  1  0  0  0
 15103  1  0  0  0
 16 17  2  0  0  0
 16 21  1  0  0  0
 16 31  1  0  0  0
 17 18  1  0  0  0
 17104  1  0  0  0
 18 19  2  0  0  0
 18105  1  0  0  0
 19 20  1  0  0  0
 19 24  1  0  0  0
 20 21  2  0  0  0
 20106  1  0  0  0
 21 23  1  0  0  0
 22 28  1  0  0  0
 22 32  2  0  0  0
 26 27  1  0  0  0
 28107  1  0  0  0
 28108  1  0  0  0
 29109  1  0  0  0
 29110  1  0  0  0
 33 34  1  0  0  0
 33 66  1  0  0  0
 33 70  2  0  0  0
 34 36  1  0  0  0
 34 59  1  0  0  0
 34111  1  0  0  0
 35 44  2  0  0  0
 35 45  1  0  0  0
 35 68  1  0  0  0
 36 56  1  0  0  0
 36112  1  0  0  0
 37 39  1  0  0  0
 37 47  1  0  0  0
 37 66  1  0  0  0
 37113  1  0  0  0
 38 43  2  0  0  0
 38 46  1  0  0  0
 38 47  1  0  0  0
 39 64  1  0  0  0
 39 67  2  0  0  0
 40 52  1  0  0  0
 40 53  2  0  0  0
 40 58  1  0  0  0
 41114  1  0  0  0
 41115  1  0  0  0
 41116  1  0  0  0
 41 48  1  0  0  0
 42 43  1  0  0  0
 42 66  1  0  0  0
 42117  1  0  0  0
 42118  1  0  0  0
 43 44  1  0  0  0
 44119  1  0  0  0
 45 46  2  0  0  0
 45120  1  0  0  0
 46121  1  0  0  0
 47122  1  0  0  0
 47123  1  0  0  0
 48 56  1  0  0  0
 48 65  1  0  0  0
 48124  1  0  0  0
 49 50  1  0  0  0
 49 53  1  0  0  0
 49 64  1  0  0  0
 49125  1  0  0  0
 50 51  1  0  0  0
 50126  1  0  0  0
 50127  1  0  0  0
 51 52  1  0  0  0
 51128  1  0  0  0
 51129  1  0  0  0
 52130  1  0  0  0
 52131  1  0  0  0
 53 54  1  0  0  0
 54 55  2  0  0  0
 54132  1  0  0  0
 55 57  1  0  0  0
 55133  1  0  0  0
 56 69  2  0  0  0
 57 58  2  0  0  0
 57134  1  0  0  0
 58135  1  0  0  0
 59 60  1  0  0  0
 59 61  1  0  0  0
 59 62  1  0  0  0
 60136  1  0  0  0
 60137  1  0  0  0
 60138  1  0  0  0
 61139  1  0  0  0
 61140  1  0  0  0
 61141  1  0  0  0
 62142  1  0  0  0
 62143  1  0  0  0
 62144  1  0  0  0
 63 65  1  0  0  0
 63145  1  0  0  0
 63146  1  0  0  0
 63147  1  0  0  0
 64148  1  0  0  0
 65149  1  0  0  0
 68 85  1  0  0  0
 71 72  2  0  0  0
 71 86  1  0  0  0
 71150  1  0  0  0
 72 78  1  0  0  0
 72 87  1  0  0  0
 73 79  1  0  0  0
 73 86  2  0  0  0
 73 88  1  0  0  0
 74 80  1  0  0  0
 74151  1  0  0  0
 74152  1  0  0  0
 74153  1  0  0  0
 75154  1  0  0  0
 75155  1  0  0  0
 75156  1  0  0  0
 75 84  1  0  0  0
 76157  1  0  0  0
 76158  1  0  0  0
 76159  1  0  0  0
 76 85  1  0  0  0
 77160  1  0  0  0
 77161  1  0  0  0
 77162  1  0  0  0
 77 90  1  0  0  0
 78 89  1  0  0  0
 78163  1  0  0  0
 78164  1  0  0  0
 79 81  1  0  0  0
 79165  1  0  0  0
 79166  1  0  0  0
 80 84  1  0  0  0
 80167  1  0  0  0
 80168  1  0  0  0
 81 82  1  0  0  0
 81169  1  0  0  0
 81170  1  0  0  0
 82 90  1  0  0  0
 82171  1  0  0  0
 82172  1  0  0  0
 83 85  1  0  0  0
 83 90  1  0  0  0
 83173  1  0  0  0
 83174  1  0  0  0
 84 89  1  0  0  0
 84175  1  0  0  0
 85176  1  0  0  0
 87 88  2  0  0  0
 90177  1  0  0  0
M  CHG  1  90   1
M  ISO  4   1 100  68 101  85 101  89 100
M  END
> <chiral flag>
0

> <version>
0

> <s_m_source_file>
/data/baiqing/PycharmProjects/Reinvent-master-3.2/result/LINK_invent/BTK/process_docking_weight1_custom_sum_contain_oxygen_bond_distance_aromatic_linkinvent_7_9_3/rearranged_h_0056.sdf

> <i_m_source_file_index>
23

> <r_mmod_Potential_Energy-OPLS-2005>
22.3126087188721

> <r_mmod_Stretch_Energy-OPLS-2005>
41.1316795349121

> <r_mmod_Bend_Energy-OPLS-2005>
126.605651855469

> <r_mmod_Torsional_Energy-OPLS-2005>
319.134094238281

> <r_mmod_Improper_Torsional_Energy-OPLS-2005>
11.3170413970947

> <r_mmod_Van_der_Waal_Energy-OPLS-2005>
165.546875

> <r_mmod_Electrostatic_Energy-OPLS-2005>
-248.986694335938

> <r_mmod_Solvation_Energy-OPLS-2005>
-413.154541015625

> <b_mmod_Minimization_Converged-OPLS-2005>
0

> <r_mmod_RMS_Derivative-OPLS-2005>
6.35690641403198

$$$$
25
                    3D
 Structure written by MMmdl.
151159  0  0  1  0            999 V2000
  -30.5704  -14.8764   20.4807 C   0  0  0  0  0  0
  -30.4337  -12.5460   19.4964 C   0  0  0  0  0  0
  -29.5212  -12.5494   18.2473 C   0  0  0  0  0  0
  -28.0467  -12.3508   18.6499 C   0  0  0  0  0  0
  -27.6375  -13.2440   19.8514 C   0  0  2  0  0  0
  -28.6765  -13.1732   20.9861 C   0  0  0  0  0  0
  -25.2490  -13.8212   20.5701 C   0  0  0  0  0  0
  -24.1805  -13.0449   20.9204 C   0  0  0  0  0  0
  -24.6410  -11.6923   20.8730 C   0  0  0  0  0  0
  -23.9084  -10.4301   21.0394 C   0  0  0  0  0  0
  -24.3625   -9.4218   21.9172 C   0  0  0  0  0  0
  -23.6289   -8.2262   22.0748 C   0  0  0  0  0  0
  -22.4267   -8.0299   21.3540 C   0  0  0  0  0  0
  -21.9911   -9.0278   20.4646 C   0  0  0  0  0  0
  -22.7254  -10.2146   20.3039 C   0  0  0  0  0  0
  -21.6860   -6.0738   22.5281 C   0  0  0  0  0  0
  -21.4039   -6.5644   23.8220 C   0  0  0  0  0  0
  -21.3657   -5.6789   24.9178 C   0  0  0  0  0  0
  -21.6034   -4.3046   24.7227 C   0  0  0  0  0  0
  -21.8819   -3.8142   23.4347 C   0  0  0  0  0  0
  -21.9192   -4.6966   22.3405 C   0  0  0  0  0  0
  -22.7827  -13.5226   21.1870 C   0  0  0  0  0  0
  -22.1653   -4.2152   21.0981 F   0  0  0  0  0  0
  -21.5615   -3.4522   25.7729 F   0  0  0  0  0  0
  -29.9596  -13.6205   20.4186 N   0  0  0  0  0  0
  -26.2913  -12.9439   20.3248 N   0  0  0  0  0  0
  -25.9342  -11.6565   20.5720 N   0  0  0  0  0  0
  -22.0480  -12.8221   22.0426 N   0  0  0  0  0  0
  -25.4158  -15.1946   20.4198 N   0  0  0  0  0  0
  -31.7323  -14.9499   20.0612 O   0  0  0  0  0  0
  -21.6639   -6.8892   21.4244 O   0  0  0  0  0  0
  -22.3516  -14.5535   20.6725 O   0  0  0  0  0  0
  -24.6389  -31.8488   23.1907 C   0  0  0  0  0  0
  -25.9182  -32.4715   23.8289 C   0  0  1  0  0  0
  -27.2210  -27.1848   20.1512 C   0  0  0  0  0  0
  -25.5950  -33.8520   24.2204 N   0  0  0  0  0  0
  -23.4411  -30.4678   21.5352 C   0  0  2  0  0  0
  -24.8912  -28.9029   20.1083 C   0  0  0  0  0  0
  -22.7559  -29.4555   22.4873 C   0  0  0  0  0  0
  -18.0302  -28.1381   22.8476 C   0  0  0  0  0  0
  -24.1497  -36.7271   23.2642 C   0  0  0  0  0  0
  -25.9935  -30.7384   21.3840 C   0  0  0  0  0  0
  -26.0655  -29.3552   20.7231 C   0  0  0  0  0  0
  -27.2327  -28.5122   20.7263 C   0  0  0  0  0  0
  -26.0236  -26.8209   19.4977 C   0  0  0  0  0  0
  -24.8807  -27.6479   19.4796 C   0  0  0  0  0  0
  -23.6663  -29.8006   20.1524 C   0  0  0  0  0  0
  -25.4128  -36.3048   24.0315 C   0  0  1  0  0  0
  -20.5915  -28.3705   23.1246 C   0  0  2  0  0  0
  -20.6791  -26.9411   22.5407 C   0  0  0  0  0  0
  -19.5763  -26.6367   21.5216 C   0  0  0  0  0  0
  -18.1941  -26.7919   22.1622 C   0  0  0  0  0  0
  -19.1556  -28.8863   23.2852 C   0  0  0  0  0  0
  -18.9474  -30.1460   23.8871 C   0  0  0  0  0  0
  -17.6470  -30.6578   24.0557 C   0  0  0  0  0  0
  -25.9068  -34.9419   23.5065 C   0  0  0  0  0  0
  -16.5361  -29.9074   23.6332 C   0  0  0  0  0  0
  -16.7285  -28.6494   23.0350 C   0  0  0  0  0  0
  -26.4495  -31.6574   25.0725 C   0  0  0  0  0  0
  -25.3683  -31.3774   26.1426 C   0  0  0  0  0  0
  -27.0352  -30.2972   24.6294 C   0  0  0  0  0  0
  -27.6015  -32.4348   25.7518 C   0  0  0  0  0  0
  -27.5584  -37.1795   24.8452 C   0  0  0  0  0  0
  -21.4253  -29.3037   22.3622 N   0  0  0  0  0  0
  -26.4294  -37.3762   23.9399 N   0  0  0  0  0  0
  -24.7101  -31.0390   22.0916 N   0  0  0  0  0  0
  -23.4225  -28.8107   23.3010 O   0  0  0  0  0  0
  -28.2901  -26.2362   20.2362 O   0  0  0  0  0  0
  -26.5650  -34.8909   22.4640 O   0  0  0  0  0  0
  -23.5515  -32.1347   23.7148 O   0  0  0  0  0  0
  -30.0684  -21.3080   19.4495 C   0  0  0  0  0  0
  -28.6861  -19.6860   21.0772 C   0  0  0  0  0  0
  -29.1311  -21.9451   20.3252 C   0  0  0  0  0  0
  -29.6563  -19.0573   20.2137 C   0  0  0  0  0  0
  -29.1174  -16.1853   22.0176 C   0  0  0  0  0  0
  -29.1334  -23.5688   20.5715 C   0  0  0  0  0  0
  -30.0618  -17.4665   20.0342 C   0  0  0  0  0  0
  -28.0634  -24.7218   20.0513 C   0  0  0  0  0  0
  -28.4431  -21.0650   21.1382 N   0  0  0  0  0  0
  -30.3147  -19.9428   19.3929 N   0  0  0  0  0  0
  -29.8408  -16.0748   20.7385 N   0  0  0  0  0  0
  -31.4758  -12.6800   19.2024 H   0  0  0  0  0  0
  -30.3960  -11.5713   19.9854 H   0  0  0  0  0  0
  -29.8287  -11.7687   17.5504 H   0  0  0  0  0  0
  -29.6323  -13.4957   17.7159 H   0  0  0  0  0  0
  -27.9214  -11.3007   18.9140 H   0  0  0  0  0  0
  -27.3891  -12.5311   17.7983 H   0  0  0  0  0  0
  -27.6272  -14.2720   19.4852 H   0  0  0  0  0  0
  -28.7513  -12.1538   21.3693 H   0  0  0  0  0  0
  -28.3558  -13.7627   21.8379 H   0  0  0  0  0  0
  -25.2781   -9.5686   22.4732 H   0  0  0  0  0  0
  -23.9985   -7.4663   22.7477 H   0  0  0  0  0  0
  -21.0829   -8.8822   19.8967 H   0  0  0  0  0  0
  -22.3729  -10.9679   19.6129 H   0  0  0  0  0  0
  -21.2052   -7.6155   23.9730 H   0  0  0  0  0  0
  -21.1470   -6.0516   25.9085 H   0  0  0  0  0  0
  -22.0592   -2.7602   23.2846 H   0  0  0  0  0  0
  -22.4093  -11.9868   22.4780 H   0  0  0  0  0  0
  -21.1109  -13.1248   22.2656 H   0  0  0  0  0  0
  -24.6518  -15.8457   20.5647 H   0  0  0  0  0  0
  -26.2670  -15.6427   20.1057 H   0  0  0  0  0  0
  -26.7259  -32.5329   23.1032 H   0  0  0  0  0  0
  -25.0092  -33.9640   25.0346 H   0  0  0  0  0  0
  -22.7409  -31.2915   21.3831 H   0  0  0  0  0  0
  -23.3767  -35.9594   23.3279 H   0  0  0  0  0  0
  -24.3593  -36.8929   22.2063 H   0  0  0  0  0  0
  -23.7238  -37.6456   23.6694 H   0  0  0  0  0  0
  -26.1517  -31.5001   20.6190 H   0  0  0  0  0  0
  -26.8626  -30.7799   22.0289 H   0  0  0  0  0  0
  -28.1287  -28.8557   21.2249 H   0  0  0  0  0  0
  -25.9429  -25.8590   19.0141 H   0  0  0  0  0  0
  -23.9858  -27.2949   18.9864 H   0  0  0  0  0  0
  -23.8025  -30.5782   19.3997 H   0  0  0  0  0  0
  -22.7824  -29.2428   19.8382 H   0  0  0  0  0  0
  -25.1314  -36.1885   25.0809 H   0  0  0  0  0  0
  -21.0001  -28.3287   24.1371 H   0  0  0  0  0  0
  -20.5694  -26.2310   23.3623 H   0  0  0  0  0  0
  -21.6655  -26.7419   22.1195 H   0  0  0  0  0  0
  -19.6921  -25.6272   21.1260 H   0  0  0  0  0  0
  -19.6705  -27.3167   20.6740 H   0  0  0  0  0  0
  -17.4217  -26.6669   21.4022 H   0  0  0  0  0  0
  -18.0329  -26.0065   22.9020 H   0  0  0  0  0  0
  -19.7954  -30.7281   24.2230 H   0  0  0  0  0  0
  -17.5023  -31.6254   24.5164 H   0  0  0  0  0  0
  -15.5361  -30.2963   23.7664 H   0  0  0  0  0  0
  -15.8692  -28.0801   22.7076 H   0  0  0  0  0  0
  -24.5838  -30.7148   25.7753 H   0  0  0  0  0  0
  -24.8902  -32.2967   26.4823 H   0  0  0  0  0  0
  -25.7965  -30.8959   27.0229 H   0  0  0  0  0  0
  -26.2961  -29.6706   24.1293 H   0  0  0  0  0  0
  -27.3952  -29.7259   25.4862 H   0  0  0  0  0  0
  -27.8875  -30.4203   23.9610 H   0  0  0  0  0  0
  -27.2576  -33.3647   26.2067 H   0  0  0  0  0  0
  -28.3844  -32.6926   25.0371 H   0  0  0  0  0  0
  -28.0667  -31.8508   26.5472 H   0  0  0  0  0  0
  -28.2565  -38.0125   24.7529 H   0  0  0  0  0  0
  -28.1113  -36.2653   24.6240 H   0  0  0  0  0  0
  -27.2300  -37.1391   25.8853 H   0  0  0  0  0  0
  -20.9458  -29.8770   21.6823 H   0  0  0  0  0  0
  -26.0159  -38.2827   24.1420 H   0  0  0  0  0  0
  -30.6947  -21.9191   18.8161 H   0  0  0  0  0  0
  -28.0868  -19.0792   21.7387 H   0  0  0  0  0  0
  -29.2925  -17.1415   22.5099 H   0  0  0  0  0  0
  -29.4357  -15.4296   22.7371 H   0  0  0  0  0  0
  -28.0427  -16.0830   21.8648 H   0  0  0  0  0  0
  -30.1016  -23.8965   20.1933 H   0  0  0  0  0  0
  -29.2225  -23.6989   21.6498 H   0  0  0  0  0  0
  -30.6794  -17.7067   20.9008 H   0  0  0  0  0  0
  -28.9786  -17.4185   19.9163 H   0  0  0  0  0  0
  -27.1004  -24.4762   20.5016 H   0  0  0  0  0  0
  -27.9362  -24.5732   18.9792 H   0  0  0  0  0  0
  1 25  1  0  0  0
  1 30  2  0  0  0
  1 81  1  0  0  0
  2  3  1  0  0  0
  2 25  1  0  0  0
  2 82  1  0  0  0
  2 83  1  0  0  0
  3  4  1  0  0  0
  3 84  1  0  0  0
  3 85  1  0  0  0
  4  5  1  0  0  0
  4 86  1  0  0  0
  4 87  1  0  0  0
  5  6  1  0  0  0
  5 26  1  0  0  0
  5 88  1  0  0  0
  6 25  1  0  0  0
  6 89  1  0  0  0
  6 90  1  0  0  0
  7  8  2  0  0  0
  7 26  1  0  0  0
  7 29  1  0  0  0
  8  9  1  0  0  0
  8 22  1  0  0  0
  9 10  1  0  0  0
  9 27  2  0  0  0
 10 11  2  0  0  0
 10 15  1  0  0  0
 11 12  1  0  0  0
 11 91  1  0  0  0
 12 13  2  0  0  0
 12 92  1  0  0  0
 13 14  1  0  0  0
 13 31  1  0  0  0
 14 15  2  0  0  0
 14 93  1  0  0  0
 15 94  1  0  0  0
 16 17  2  0  0  0
 16 21  1  0  0  0
 16 31  1  0  0  0
 17 18  1  0  0  0
 17 95  1  0  0  0
 18 19  2  0  0  0
 18 96  1  0  0  0
 19 20  1  0  0  0
 19 24  1  0  0  0
 20 21  2  0  0  0
 20 97  1  0  0  0
 21 23  1  0  0  0
 22 28  1  0  0  0
 22 32  2  0  0  0
 26 27  1  0  0  0
 28 98  1  0  0  0
 28 99  1  0  0  0
 29100  1  0  0  0
 29101  1  0  0  0
 33 34  1  0  0  0
 33 66  1  0  0  0
 33 70  2  0  0  0
 34 36  1  0  0  0
 34 59  1  0  0  0
 34102  1  0  0  0
 35 44  2  0  0  0
 35 45  1  0  0  0
 35 68  1  0  0  0
 36 56  1  0  0  0
 36103  1  0  0  0
 37 39  1  0  0  0
 37 47  1  0  0  0
 37 66  1  0  0  0
 37104  1  0  0  0
 38 43  2  0  0  0
 38 46  1  0  0  0
 38 47  1  0  0  0
 39 64  1  0  0  0
 39 67  2  0  0  0
 40 52  1  0  0  0
 40 53  2  0  0  0
 40 58  1  0  0  0
 41105  1  0  0  0
 41106  1  0  0  0
 41107  1  0  0  0
 41 48  1  0  0  0
 42 43  1  0  0  0
 42 66  1  0  0  0
 42108  1  0  0  0
 42109  1  0  0  0
 43 44  1  0  0  0
 44110  1  0  0  0
 45 46  2  0  0  0
 45111  1  0  0  0
 46112  1  0  0  0
 47113  1  0  0  0
 47114  1  0  0  0
 48 56  1  0  0  0
 48 65  1  0  0  0
 48115  1  0  0  0
 49 50  1  0  0  0
 49 53  1  0  0  0
 49 64  1  0  0  0
 49116  1  0  0  0
 50 51  1  0  0  0
 50117  1  0  0  0
 50118  1  0  0  0
 51 52  1  0  0  0
 51119  1  0  0  0
 51120  1  0  0  0
 52121  1  0  0  0
 52122  1  0  0  0
 53 54  1  0  0  0
 54 55  2  0  0  0
 54123  1  0  0  0
 55 57  1  0  0  0
 55124  1  0  0  0
 56 69  2  0  0  0
 57 58  2  0  0  0
 57125  1  0  0  0
 58126  1  0  0  0
 59 60  1  0  0  0
 59 61  1  0  0  0
 59 62  1  0  0  0
 60127  1  0  0  0
 60128  1  0  0  0
 60129  1  0  0  0
 61130  1  0  0  0
 61131  1  0  0  0
 61132  1  0  0  0
 62133  1  0  0  0
 62134  1  0  0  0
 62135  1  0  0  0
 63 65  1  0  0  0
 63136  1  0  0  0
 63137  1  0  0  0
 63138  1  0  0  0
 64139  1  0  0  0
 65140  1  0  0  0
 68 78  1  0  0  0
 71 73  2  0  0  0
 71 80  1  0  0  0
 71141  1  0  0  0
 72 74  1  0  0  0
 72 79  2  0  0  0
 72142  1  0  0  0
 73 76  1  0  0  0
 73 79  1  0  0  0
 74 77  1  0  0  0
 74 80  2  0  0  0
 75 81  1  0  0  0
 75143  1  0  0  0
 75144  1  0  0  0
 75145  1  0  0  0
 76 78  1  0  0  0
 76146  1  0  0  0
 76147  1  0  0  0
 77 81  1  0  0  0
 77148  1  0  0  0
 77149  1  0  0  0
 78150  1  0  0  0
 78151  1  0  0  0
M  ISO  4   1 100  68 101  78 101  81 100
M  END
> <chiral flag>
0

> <version>
0

> <s_m_source_file>
/data/baiqing/PycharmProjects/Reinvent-master-3.2/result/LINK_invent/BTK/process_docking_weight1_custom_sum_contain_oxygen_bond_distance_aromatic_linkinvent_7_9_3/rearranged_h_0056.sdf

> <i_m_source_file_index>
24

> <r_mmod_Potential_Energy-OPLS-2005>
726.471252441406

> <r_mmod_Stretch_Energy-OPLS-2005>
213.810546875

> <r_mmod_Bend_Energy-OPLS-2005>
446.151306152344

> <r_mmod_Torsional_Energy-OPLS-2005>
245.261978149414

> <r_mmod_Improper_Torsional_Energy-OPLS-2005>
9.06958675384521

> <r_mmod_Van_der_Waal_Energy-OPLS-2005>
146.932205200195

> <r_mmod_Electrostatic_Energy-OPLS-2005>
-251.798492431641

> <r_mmod_Solvation_Energy-OPLS-2005>
-224.612686157227

> <b_mmod_Minimization_Converged-OPLS-2005>
0

> <r_mmod_RMS_Derivative-OPLS-2005>
1.98628091812134

$$$$
26
                    3D
 Structure written by MMmdl.
157165  0  0  1  0            999 V2000
  -30.4969  -15.0129   20.3870 C   0  0  0  0  0  0
  -30.4309  -12.6209   19.5061 C   0  0  0  0  0  0
  -29.5220  -12.5414   18.2545 C   0  0  0  0  0  0
  -28.0475  -12.3383   18.6501 C   0  0  0  0  0  0
  -27.6238  -13.2547   19.8283 C   0  0  2  0  0  0
  -28.6645  -13.2931   20.9679 C   0  0  0  0  0  0
  -25.2455  -13.8216   20.5674 C   0  0  0  0  0  0
  -24.1792  -13.0438   20.9212 C   0  0  0  0  0  0
  -24.6408  -11.6919   20.8719 C   0  0  0  0  0  0
  -23.9104  -10.4289   21.0386 C   0  0  0  0  0  0
  -24.3659   -9.4210   21.9186 C   0  0  0  0  0  0
  -23.6322   -8.2245   22.0764 C   0  0  0  0  0  0
  -22.4300   -8.0265   21.3544 C   0  0  0  0  0  0
  -21.9928   -9.0236   20.4644 C   0  0  0  0  0  0
  -22.7254  -10.2129   20.3035 C   0  0  0  0  0  0
  -21.6863   -6.0709   22.5253 C   0  0  0  0  0  0
  -21.4017   -6.5630   23.8175 C   0  0  0  0  0  0
  -21.3682   -5.6776   24.9143 C   0  0  0  0  0  0
  -21.6071   -4.3044   24.7184 C   0  0  0  0  0  0
  -21.8831   -3.8124   23.4314 C   0  0  0  0  0  0
  -21.9205   -4.6940   22.3362 C   0  0  0  0  0  0
  -22.7809  -13.5205   21.1872 C   0  0  0  0  0  0
  -22.1689   -4.2130   21.0945 F   0  0  0  0  0  0
  -21.5652   -3.4551   25.7720 F   0  0  0  0  0  0
  -29.9283  -13.7335   20.3699 N   0  0  0  0  0  0
  -26.2866  -12.9460   20.3164 N   0  0  0  0  0  0
  -25.9349  -11.6573   20.5645 N   0  0  0  0  0  0
  -22.0537  -12.8149   22.0453 N   0  0  0  0  0  0
  -25.4122  -15.1937   20.4081 N   0  0  0  0  0  0
  -31.6972  -15.0775   20.0996 O   0  0  0  0  0  0
  -21.6669   -6.8867   21.4226 O   0  0  0  0  0  0
  -22.3472  -14.5498   20.6728 O   0  0  0  0  0  0
  -24.6485  -31.8381   23.1852 C   0  0  0  0  0  0
  -25.9250  -32.4666   23.8230 C   0  0  1  0  0  0
  -27.2109  -27.0774   20.1610 C   0  0  0  0  0  0
  -25.5986  -33.8479   24.2160 N   0  0  0  0  0  0
  -23.4538  -30.4544   21.5360 C   0  0  2  0  0  0
  -24.9035  -28.8737   20.1090 C   0  0  0  0  0  0
  -22.7578  -29.4501   22.4881 C   0  0  0  0  0  0
  -18.0296  -28.1389   22.8485 C   0  0  0  0  0  0
  -24.1495  -36.7252   23.2646 C   0  0  0  0  0  0
  -26.0148  -30.6872   21.3970 C   0  0  0  0  0  0
  -26.0815  -29.2937   20.7392 C   0  0  0  0  0  0
  -27.2383  -28.4177   20.7422 C   0  0  0  0  0  0
  -26.0066  -26.7708   19.4935 C   0  0  0  0  0  0
  -24.8844  -27.6266   19.4669 C   0  0  0  0  0  0
  -23.6820  -29.7843   20.1536 C   0  0  0  0  0  0
  -25.4133  -36.3031   24.0314 C   0  0  1  0  0  0
  -20.5911  -28.3714   23.1256 C   0  0  2  0  0  0
  -20.6793  -26.9413   22.5426 C   0  0  0  0  0  0
  -19.5755  -26.6368   21.5246 C   0  0  0  0  0  0
  -18.1932  -26.7925   22.1640 C   0  0  0  0  0  0
  -19.1552  -28.8870   23.2852 C   0  0  0  0  0  0
  -18.9464  -30.1485   23.8846 C   0  0  0  0  0  0
  -17.6456  -30.6581   24.0569 C   0  0  0  0  0  0
  -25.9091  -34.9398   23.5053 C   0  0  0  0  0  0
  -16.5354  -29.9069   23.6349 C   0  0  0  0  0  0
  -16.7274  -28.6500   23.0344 C   0  0  0  0  0  0
  -26.4545  -31.6532   25.0677 C   0  0  0  0  0  0
  -25.3697  -31.3754   26.1341 C   0  0  0  0  0  0
  -27.0449  -30.2917   24.6330 C   0  0  0  0  0  0
  -27.6039  -32.4324   25.7474 C   0  0  0  0  0  0
  -27.5585  -37.1787   24.8465 C   0  0  0  0  0  0
  -21.4274  -29.3032   22.3639 N   0  0  0  0  0  0
  -26.4295  -37.3743   23.9411 N   0  0  0  0  0  0
  -24.7259  -31.0157   22.0952 N   0  0  0  0  0  0
  -23.4203  -28.8061   23.3058 O   0  0  0  0  0  0
  -28.2465  -26.0544   20.1684 O   0  0  0  0  0  0
  -26.5672  -34.8914   22.4632 O   0  0  0  0  0  0
  -23.5593  -32.1330   23.7024 O   0  0  0  0  0  0
  -29.5867  -21.8251   18.1102 C   0  0  0  0  0  0
  -29.1343  -23.0610   18.6211 C   0  0  0  0  0  0
  -28.6529  -23.1246   19.9453 C   0  0  0  0  0  0
  -29.1653  -20.6546   20.0549 C   0  0  0  0  0  0
  -29.1355  -24.2859   17.7227 C   0  0  0  0  0  0
  -27.5684  -18.7727   20.7703 C   0  0  0  0  0  0
  -29.5922  -19.2380   22.1796 C   0  0  0  0  0  0
  -27.9436  -24.5385   20.5253 C   0  0  0  0  0  0
  -29.9102  -17.7457   20.1124 C   0  0  0  0  0  0
  -29.0738  -19.1198   20.7325 C   0  0  0  0  0  0
  -29.5905  -20.6649   18.8001 N   0  0  0  0  0  0
  -28.6767  -21.8571   20.6157 N   0  0  0  0  0  0
  -29.6998  -16.2004   20.5089 N   0  0  0  0  0  0
  -31.4648  -12.7843   19.1978 H   0  0  0  0  0  0
  -30.4252  -11.6730   20.0493 H   0  0  0  0  0  0
  -29.8482  -11.7380   17.5929 H   0  0  0  0  0  0
  -29.6175  -13.4633   17.6790 H   0  0  0  0  0  0
  -27.9130  -11.2898   18.9173 H   0  0  0  0  0  0
  -27.4032  -12.5231   17.7852 H   0  0  0  0  0  0
  -27.5763  -14.2592   19.4014 H   0  0  0  0  0  0
  -28.7753  -12.3173   21.4428 H   0  0  0  0  0  0
  -28.3500  -13.9872   21.7474 H   0  0  0  0  0  0
  -25.2821   -9.5694   22.4733 H   0  0  0  0  0  0
  -24.0055   -7.4644   22.7478 H   0  0  0  0  0  0
  -21.0882   -8.8718   19.8917 H   0  0  0  0  0  0
  -22.3716  -10.9659   19.6114 H   0  0  0  0  0  0
  -21.2001   -7.6141   23.9647 H   0  0  0  0  0  0
  -21.1525   -6.0537   25.9046 H   0  0  0  0  0  0
  -22.0600   -2.7589   23.2798 H   0  0  0  0  0  0
  -22.4228  -11.9810   22.4739 H   0  0  0  0  0  0
  -21.1097  -13.1059   22.2641 H   0  0  0  0  0  0
  -24.6471  -15.8475   20.5242 H   0  0  0  0  0  0
  -26.2408  -15.6225   20.0172 H   0  0  0  0  0  0
  -26.7295  -32.5225   23.0930 H   0  0  0  0  0  0
  -25.0141  -33.9578   25.0311 H   0  0  0  0  0  0
  -22.7588  -31.2829   21.3825 H   0  0  0  0  0  0
  -23.3774  -35.9567   23.3282 H   0  0  0  0  0  0
  -24.3586  -36.8911   22.2069 H   0  0  0  0  0  0
  -23.7225  -37.6427   23.6702 H   0  0  0  0  0  0
  -26.1781  -31.4320   20.6177 H   0  0  0  0  0  0
  -26.8822  -30.7371   22.0439 H   0  0  0  0  0  0
  -28.1364  -28.7390   21.2525 H   0  0  0  0  0  0
  -25.9101  -25.8214   18.9868 H   0  0  0  0  0  0
  -23.9931  -27.3042   18.9467 H   0  0  0  0  0  0
  -23.8207  -30.5629   19.4020 H   0  0  0  0  0  0
  -22.7939  -29.2317   19.8416 H   0  0  0  0  0  0
  -25.1322  -36.1870   25.0802 H   0  0  0  0  0  0
  -20.9979  -28.3297   24.1389 H   0  0  0  0  0  0
  -20.5742  -26.2314   23.3648 H   0  0  0  0  0  0
  -21.6652  -26.7454   22.1186 H   0  0  0  0  0  0
  -19.6929  -25.6277   21.1276 H   0  0  0  0  0  0
  -19.6695  -27.3188   20.6786 H   0  0  0  0  0  0
  -17.4229  -26.6687   21.4024 H   0  0  0  0  0  0
  -18.0305  -26.0064   22.9020 H   0  0  0  0  0  0
  -19.7935  -30.7342   24.2154 H   0  0  0  0  0  0
  -17.4995  -31.6247   24.5197 H   0  0  0  0  0  0
  -15.5349  -30.2953   23.7695 H   0  0  0  0  0  0
  -15.8681  -28.0829   22.7044 H   0  0  0  0  0  0
  -24.5872  -30.7134   25.7628 H   0  0  0  0  0  0
  -24.8904  -32.2959   26.4670 H   0  0  0  0  0  0
  -25.7914  -30.8945   27.0172 H   0  0  0  0  0  0
  -26.3113  -29.6587   24.1341 H   0  0  0  0  0  0
  -27.4051  -29.7263   25.4932 H   0  0  0  0  0  0
  -27.9005  -30.4133   23.9691 H   0  0  0  0  0  0
  -27.2600  -33.3647   26.1962 H   0  0  0  0  0  0
  -28.3881  -32.6852   25.0328 H   0  0  0  0  0  0
  -28.0677  -31.8520   26.5457 H   0  0  0  0  0  0
  -28.2578  -38.0107   24.7536 H   0  0  0  0  0  0
  -28.1100  -36.2638   24.6261 H   0  0  0  0  0  0
  -27.2303  -37.1390   25.8864 H   0  0  0  0  0  0
  -20.9515  -29.8729   21.6784 H   0  0  0  0  0  0
  -26.0166  -38.2816   24.1387 H   0  0  0  0  0  0
  -29.9260  -21.7499   17.0865 H   0  0  0  0  0  0
  -29.4116  -24.0242   16.6998 H   0  0  0  0  0  0
  -29.8529  -25.0278   18.0794 H   0  0  0  0  0  0
  -28.1438  -24.7395   17.6944 H   0  0  0  0  0  0
  -27.0077  -19.5210   21.3322 H   0  0  0  0  0  0
  -27.3684  -17.8152   21.2475 H   0  0  0  0  0  0
  -27.1450  -18.7469   19.7656 H   0  0  0  0  0  0
  -29.0825  -20.0354   22.7180 H   0  0  0  0  0  0
  -30.6573  -19.4691   22.1975 H   0  0  0  0  0  0
  -29.4351  -18.3183   22.7406 H   0  0  0  0  0  0
  -28.0732  -24.4869   21.6051 H   0  0  0  0  0  0
  -26.8750  -24.3803   20.3904 H   0  0  0  0  0  0
  -30.9786  -17.9436   20.2060 H   0  0  0  0  0  0
  -29.7523  -17.7606   19.0345 H   0  0  0  0  0  0
  -28.7464  -15.9889   20.7555 H   0  0  0  0  0  0
  1 25  1  0  0  0
  1 30  2  0  0  0
  1 83  1  0  0  0
  2  3  1  0  0  0
  2 25  1  0  0  0
  2 84  1  0  0  0
  2 85  1  0  0  0
  3  4  1  0  0  0
  3 86  1  0  0  0
  3 87  1  0  0  0
  4  5  1  0  0  0
  4 88  1  0  0  0
  4 89  1  0  0  0
  5  6  1  0  0  0
  5 26  1  0  0  0
  5 90  1  0  0  0
  6 25  1  0  0  0
  6 91  1  0  0  0
  6 92  1  0  0  0
  7  8  2  0  0  0
  7 26  1  0  0  0
  7 29  1  0  0  0
  8  9  1  0  0  0
  8 22  1  0  0  0
  9 10  1  0  0  0
  9 27  2  0  0  0
 10 11  2  0  0  0
 10 15  1  0  0  0
 11 12  1  0  0  0
 11 93  1  0  0  0
 12 13  2  0  0  0
 12 94  1  0  0  0
 13 14  1  0  0  0
 13 31  1  0  0  0
 14 15  2  0  0  0
 14 95  1  0  0  0
 15 96  1  0  0  0
 16 17  2  0  0  0
 16 21  1  0  0  0
 16 31  1  0  0  0
 17 18  1  0  0  0
 17 97  1  0  0  0
 18 19  2  0  0  0
 18 98  1  0  0  0
 19 20  1  0  0  0
 19 24  1  0  0  0
 20 21  2  0  0  0
 20 99  1  0  0  0
 21 23  1  0  0  0
 22 28  1  0  0  0
 22 32  2  0  0  0
 26 27  1  0  0  0
 28100  1  0  0  0
 28101  1  0  0  0
 29102  1  0  0  0
 29103  1  0  0  0
 33 34  1  0  0  0
 33 66  1  0  0  0
 33 70  2  0  0  0
 34 36  1  0  0  0
 34 59  1  0  0  0
 34104  1  0  0  0
 35 44  2  0  0  0
 35 45  1  0  0  0
 35 68  1  0  0  0
 36 56  1  0  0  0
 36105  1  0  0  0
 37 39  1  0  0  0
 37 47  1  0  0  0
 37 66  1  0  0  0
 37106  1  0  0  0
 38 43  2  0  0  0
 38 46  1  0  0  0
 38 47  1  0  0  0
 39 64  1  0  0  0
 39 67  2  0  0  0
 40 52  1  0  0  0
 40 53  2  0  0  0
 40 58  1  0  0  0
 41107  1  0  0  0
 41108  1  0  0  0
 41109  1  0  0  0
 41 48  1  0  0  0
 42 43  1  0  0  0
 42 66  1  0  0  0
 42110  1  0  0  0
 42111  1  0  0  0
 43 44  1  0  0  0
 44112  1  0  0  0
 45 46  2  0  0  0
 45113  1  0  0  0
 46114  1  0  0  0
 47115  1  0  0  0
 47116  1  0  0  0
 48 56  1  0  0  0
 48 65  1  0  0  0
 48117  1  0  0  0
 49 50  1  0  0  0
 49 53  1  0  0  0
 49 64  1  0  0  0
 49118  1  0  0  0
 50 51  1  0  0  0
 50119  1  0  0  0
 50120  1  0  0  0
 51 52  1  0  0  0
 51121  1  0  0  0
 51122  1  0  0  0
 52123  1  0  0  0
 52124  1  0  0  0
 53 54  1  0  0  0
 54 55  2  0  0  0
 54125  1  0  0  0
 55 57  1  0  0  0
 55126  1  0  0  0
 56 69  2  0  0  0
 57 58  2  0  0  0
 57127  1  0  0  0
 58128  1  0  0  0
 59 60  1  0  0  0
 59 61  1  0  0  0
 59 62  1  0  0  0
 60129  1  0  0  0
 60130  1  0  0  0
 60131  1  0  0  0
 61132  1  0  0  0
 61133  1  0  0  0
 61134  1  0  0  0
 62135  1  0  0  0
 62136  1  0  0  0
 62137  1  0  0  0
 63 65  1  0  0  0
 63138  1  0  0  0
 63139  1  0  0  0
 63140  1  0  0  0
 64141  1  0  0  0
 65142  1  0  0  0
 68 78  1  0  0  0
 71 72  2  0  0  0
 71 81  1  0  0  0
 71143  1  0  0  0
 72 73  1  0  0  0
 72 75  1  0  0  0
 73 78  1  0  0  0
 73 82  2  0  0  0
 74 80  1  0  0  0
 74 81  2  0  0  0
 74 82  1  0  0  0
 75144  1  0  0  0
 75145  1  0  0  0
 75146  1  0  0  0
 76147  1  0  0  0
 76148  1  0  0  0
 76149  1  0  0  0
 76 80  1  0  0  0
 77 80  1  0  0  0
 77150  1  0  0  0
 77151  1  0  0  0
 77152  1  0  0  0
 78153  1  0  0  0
 78154  1  0  0  0
 79 80  1  0  0  0
 79 83  1  0  0  0
 79155  1  0  0  0
 79156  1  0  0  0
 83157  1  0  0  0
M  ISO  4   1 100  68 101  78 101  83 100
M  END
> <chiral flag>
0

> <version>
0

> <s_m_source_file>
/data/baiqing/PycharmProjects/Reinvent-master-3.2/result/LINK_invent/BTK/process_docking_weight1_custom_sum_contain_oxygen_bond_distance_aromatic_linkinvent_7_9_3/rearranged_h_0056.sdf

> <i_m_source_file_index>
25

> <r_mmod_Potential_Energy-OPLS-2005>
237.35871887207

> <r_mmod_Stretch_Energy-OPLS-2005>
328.449310302734

> <r_mmod_Bend_Energy-OPLS-2005>
285.960479736328

> <r_mmod_Torsional_Energy-OPLS-2005>
231.298034667969

> <r_mmod_Improper_Torsional_Energy-OPLS-2005>
6.75901985168457

> <r_mmod_Van_der_Waal_Energy-OPLS-2005>
128.616577148438

> <r_mmod_Electrostatic_Energy-OPLS-2005>
-756.363952636719

> <r_mmod_Solvation_Energy-OPLS-2005>
-229.861801147461

> <b_mmod_Minimization_Converged-OPLS-2005>
0

> <r_mmod_RMS_Derivative-OPLS-2005>
5.08042240142822

$$$$
27
                    3D
 Structure written by MMmdl.
174182  0  0  1  0            999 V2000
  -30.8835  -14.2559   20.7818 C   0  0  0  0  0  0
  -30.3854  -12.2534   19.4382 C   0  0  0  0  0  0
  -29.4953  -12.5247   18.2127 C   0  0  0  0  0  0
  -28.0194  -12.3583   18.5971 C   0  0  0  0  0  0
  -27.6573  -13.2018   19.8391 C   0  0  2  0  0  0
  -28.6643  -13.0030   20.9858 C   0  0  0  0  0  0
  -25.2580  -13.8149   20.5540 C   0  0  0  0  0  0
  -24.1855  -13.0446   20.9093 C   0  0  0  0  0  0
  -24.6376  -11.6903   20.8635 C   0  0  0  0  0  0
  -23.9042  -10.4299   21.0357 C   0  0  0  0  0  0
  -24.3613   -9.4237   21.9149 C   0  0  0  0  0  0
  -23.6294   -8.2271   22.0750 C   0  0  0  0  0  0
  -22.4272   -8.0294   21.3544 C   0  0  0  0  0  0
  -21.9890   -9.0256   20.4641 C   0  0  0  0  0  0
  -22.7203  -10.2134   20.3027 C   0  0  0  0  0  0
  -21.6863   -6.0735   22.5283 C   0  0  0  0  0  0
  -21.4016   -6.5636   23.8217 C   0  0  0  0  0  0
  -21.3658   -5.6787   24.9171 C   0  0  0  0  0  0
  -21.6043   -4.3049   24.7225 C   0  0  0  0  0  0
  -21.8824   -3.8142   23.4345 C   0  0  0  0  0  0
  -21.9199   -4.6959   22.3402 C   0  0  0  0  0  0
  -22.7888  -13.5254   21.1822 C   0  0  0  0  0  0
  -22.1667   -4.2149   21.0974 F   0  0  0  0  0  0
  -21.5631   -3.4532   25.7736 F   0  0  0  0  0  0
  -30.0578  -13.1945   20.5326 N   0  0  0  0  0  0
  -26.2968  -12.9305   20.3043 N   0  0  0  0  0  0
  -25.9272  -11.6475   20.5544 N   0  0  0  0  0  0
  -22.0553  -12.8255   22.0385 N   0  0  0  0  0  0
  -25.4341  -15.1882   20.4048 N   0  0  0  0  0  0
  -31.6684  -14.6096   19.8964 O   0  0  0  0  0  0
  -21.6642   -6.8885   21.4248 O   0  0  0  0  0  0
  -22.3580  -14.5580   20.6694 O   0  0  0  0  0  0
  -24.6155  -31.8667   23.2142 C   0  0  0  0  0  0
  -25.9025  -32.4813   23.8418 C   0  0  1  0  0  0
  -27.2242  -27.4521   20.0747 C   0  0  0  0  0  0
  -25.5865  -33.8610   24.2327 N   0  0  0  0  0  0
  -23.4012  -30.4935   21.5555 C   0  0  2  0  0  0
  -24.8403  -28.9689   20.1123 C   0  0  0  0  0  0
  -22.7414  -29.4628   22.5003 C   0  0  0  0  0  0
  -18.0264  -28.1364   22.8481 C   0  0  0  0  0  0
  -24.1475  -36.7319   23.2639 C   0  0  0  0  0  0
  -25.9294  -30.8435   21.3583 C   0  0  0  0  0  0
  -26.0039  -29.4803   20.7005 C   0  0  0  0  0  0
  -27.2004  -28.7314   20.6726 C   0  0  0  0  0  0
  -26.0363  -26.9504   19.4872 C   0  0  0  0  0  0
  -24.8522  -27.7066   19.4973 C   0  0  0  0  0  0
  -23.6053  -29.8337   20.1672 C   0  0  0  0  0  0
  -25.4091  -36.3105   24.0348 C   0  0  1  0  0  0
  -20.5852  -28.3639   23.1340 C   0  0  2  0  0  0
  -20.6765  -26.9380   22.5414 C   0  0  0  0  0  0
  -19.5751  -26.6384   21.5195 C   0  0  0  0  0  0
  -18.1922  -26.7909   22.1610 C   0  0  0  0  0  0
  -19.1513  -28.8815   23.2911 C   0  0  0  0  0  0
  -18.9439  -30.1429   23.8919 C   0  0  0  0  0  0
  -17.6440  -30.6563   24.0558 C   0  0  0  0  0  0
  -25.9007  -34.9469   23.5136 C   0  0  0  0  0  0
  -16.5329  -29.9074   23.6315 C   0  0  0  0  0  0
  -16.7258  -28.6493   23.0339 C   0  0  0  0  0  0
  -26.4482  -31.6594   25.0724 C   0  0  0  0  0  0
  -25.3752  -31.3690   26.1458 C   0  0  0  0  0  0
  -27.0289  -30.3035   24.6059 C   0  0  0  0  0  0
  -27.6065  -32.4295   25.7484 C   0  0  0  0  0  0
  -27.5573  -37.1814   24.8468 C   0  0  0  0  0  0
  -21.4138  -29.3004   22.3738 N   0  0  0  0  0  0
  -26.4288  -37.3775   23.9418 N   0  0  0  0  0  0
  -24.6677  -31.0799   22.1025 N   0  0  0  0  0  0
  -23.4191  -28.8113   23.2994 O   0  0  0  0  0  0
  -28.4082  -26.7477   20.0779 O   0  0  0  0  0  0
  -26.5567  -34.8919   22.4696 O   0  0  0  0  0  0
  -23.5366  -32.1389   23.7589 O   0  0  0  0  0  0
  -32.0534  -17.4881   20.9563 C   0  0  0  0  0  0
  -32.8283  -16.4497   21.5506 C   0  0  0  0  0  0
  -32.9278  -18.1243   20.1174 C   0  0  0  0  0  0
  -35.4326  -17.7569   19.6389 C   0  0  0  0  0  0
  -31.4237  -22.6907   21.8414 C   0  0  0  0  0  0
  -32.3993  -15.2928   22.4204 C   0  0  0  0  0  0
  -32.6909  -19.2513   19.1550 C   0  0  0  0  0  0
  -32.5678  -20.6288   19.8277 C   0  0  0  0  0  0
  -29.6773  -24.7106   20.2722 C   0  0  0  0  0  0
  -30.1359  -14.4774   23.2055 C   0  0  0  0  0  0
  -31.1143  -21.1569   19.9111 C   0  0  0  0  0  0
  -29.6867  -23.1699   20.1472 C   0  0  0  0  0  0
  -28.3371  -25.3371   19.8653 C   0  0  0  0  0  0
  -30.5949  -14.7794   24.6470 C   0  0  0  0  0  0
  -34.0947  -16.5061   21.1829 N   0  0  0  0  0  0
  -34.1580  -17.5051   20.2839 N   0  0  0  0  0  0
  -31.0948  -14.6597   22.0821 N   0  0  0  0  0  0
  -31.0198  -22.5591   20.4169 N   0  3  1  0  0  0
  -29.6132  -14.4651   25.4923 F   0  0  0  0  0  0
  -31.4377  -12.2903   19.1503 H   0  0  0  0  0  0
  -30.2283  -11.2311   19.7883 H   0  0  0  0  0  0
  -29.7478  -11.8380   17.4030 H   0  0  0  0  0  0
  -29.6766  -13.5308   17.8324 H   0  0  0  0  0  0
  -27.8385  -11.3007   18.7954 H   0  0  0  0  0  0
  -27.3771  -12.6259   17.7574 H   0  0  0  0  0  0
  -27.7069  -14.2474   19.5340 H   0  0  0  0  0  0
  -28.5636  -12.0124   21.4332 H   0  0  0  0  0  0
  -28.3356  -13.7159   21.7310 H   0  0  0  0  0  0
  -25.2783   -9.5727   22.4685 H   0  0  0  0  0  0
  -24.0012   -7.4681   22.7488 H   0  0  0  0  0  0
  -21.0812   -8.8755   19.8969 H   0  0  0  0  0  0
  -22.3656  -10.9650   19.6121 H   0  0  0  0  0  0
  -21.2002   -7.6145   23.9717 H   0  0  0  0  0  0
  -21.1472   -6.0511   25.9075 H   0  0  0  0  0  0
  -22.0600   -2.7608   23.2839 H   0  0  0  0  0  0
  -22.4169  -11.9898   22.4743 H   0  0  0  0  0  0
  -21.1179  -13.1291   22.2621 H   0  0  0  0  0  0
  -24.6707  -15.8441   20.5302 H   0  0  0  0  0  0
  -26.2921  -15.6316   20.0999 H   0  0  0  0  0  0
  -26.7082  -32.5528   23.1189 H   0  0  0  0  0  0
  -25.0046  -33.9761   25.0499 H   0  0  0  0  0  0
  -22.6889  -31.3111   21.4202 H   0  0  0  0  0  0
  -23.3711  -35.9668   23.3303 H   0  0  0  0  0  0
  -24.3591  -36.8933   22.2048 H   0  0  0  0  0  0
  -23.7237  -37.6542   23.6642 H   0  0  0  0  0  0
  -26.0270  -31.6123   20.5899 H   0  0  0  0  0  0
  -26.8253  -30.9042   21.9673 H   0  0  0  0  0  0
  -28.1087  -29.1305   21.1036 H   0  0  0  0  0  0
  -26.0031  -25.9861   19.0016 H   0  0  0  0  0  0
  -23.9566  -27.3189   19.0294 H   0  0  0  0  0  0
  -23.7156  -30.6085   19.4076 H   0  0  0  0  0  0
  -22.7307  -29.2530   19.8686 H   0  0  0  0  0  0
  -25.1266  -36.1975   25.0841 H   0  0  0  0  0  0
  -20.9968  -28.3172   24.1465 H   0  0  0  0  0  0
  -20.5656  -26.2228   23.3589 H   0  0  0  0  0  0
  -21.6632  -26.7418   22.1201 H   0  0  0  0  0  0
  -19.6890  -25.6302   21.1221 H   0  0  0  0  0  0
  -19.6684  -27.3210   20.6736 H   0  0  0  0  0  0
  -17.4187  -26.6661   21.4022 H   0  0  0  0  0  0
  -18.0314  -26.0044   22.9001 H   0  0  0  0  0  0
  -19.7909  -30.7229   24.2327 H   0  0  0  0  0  0
  -17.4987  -31.6262   24.5143 H   0  0  0  0  0  0
  -15.5333  -30.2988   23.7622 H   0  0  0  0  0  0
  -15.8662  -28.0834   22.7056 H   0  0  0  0  0  0
  -24.5957  -30.6987   25.7810 H   0  0  0  0  0  0
  -24.8902  -32.2838   26.4852 H   0  0  0  0  0  0
  -25.8109  -30.8912   27.0239 H   0  0  0  0  0  0
  -26.2808  -29.6800   24.1125 H   0  0  0  0  0  0
  -27.4091  -29.7242   25.4494 H   0  0  0  0  0  0
  -27.8635  -30.4355   23.9161 H   0  0  0  0  0  0
  -27.2695  -33.3608   26.2053 H   0  0  0  0  0  0
  -28.3889  -32.6824   25.0309 H   0  0  0  0  0  0
  -28.0694  -31.8394   26.5416 H   0  0  0  0  0  0
  -28.2597  -38.0104   24.7501 H   0  0  0  0  0  0
  -28.1066  -36.2636   24.6308 H   0  0  0  0  0  0
  -27.2299  -37.1483   25.8877 H   0  0  0  0  0  0
  -20.9276  -29.8753   21.6997 H   0  0  0  0  0  0
  -26.0173  -38.2855   24.1418 H   0  0  0  0  0  0
  -30.9950  -17.6832   21.0664 H   0  0  0  0  0  0
  -35.8927  -18.6438   20.0740 H   0  0  0  0  0  0
  -35.2950  -17.8995   18.5678 H   0  0  0  0  0  0
  -36.1055  -16.9089   19.7845 H   0  0  0  0  0  0
  -32.4319  -22.3201   22.0180 H   0  0  0  0  0  0
  -30.7474  -22.1418   22.4955 H   0  0  0  0  0  0
  -31.4361  -23.7303   22.1644 H   0  0  0  0  0  0
  -32.4853  -15.6373   23.4426 H   0  0  0  0  0  0
  -33.1437  -14.4973   22.3536 H   0  0  0  0  0  0
  -31.8071  -19.0341   18.5540 H   0  0  0  0  0  0
  -33.5111  -19.2941   18.4397 H   0  0  0  0  0  0
  -33.1618  -21.3414   19.2544 H   0  0  0  0  0  0
  -33.0415  -20.5792   20.8076 H   0  0  0  0  0  0
  -30.4639  -25.1425   19.6538 H   0  0  0  0  0  0
  -29.8858  -25.0135   21.2968 H   0  0  0  0  0  0
  -29.2664  -15.1074   23.0129 H   0  0  0  0  0  0
  -29.8215  -13.4341   23.2344 H   0  0  0  0  0  0
  -30.6890  -21.1152   18.9062 H   0  0  0  0  0  0
  -30.5028  -20.4944   20.5270 H   0  0  0  0  0  0
  -29.3688  -22.9138   19.1347 H   0  0  0  0  0  0
  -28.9437  -22.7369   20.8202 H   0  0  0  0  0  0
  -28.1247  -25.1208   18.8167 H   0  0  0  0  0  0
  -27.5374  -24.9041   20.4711 H   0  0  0  0  0  0
  -30.8069  -15.8365   24.8108 H   0  0  0  0  0  0
  -31.4658  -14.1895   24.9388 H   0  0  0  0  0  0
  -31.6819  -23.0898   19.8712 H   0  0  0  0  0  0
  1 25  1  0  0  0
  1 30  2  0  0  0
  1 87  1  0  0  0
  2  3  1  0  0  0
  2 25  1  0  0  0
  2 90  1  0  0  0
  2 91  1  0  0  0
  3  4  1  0  0  0
  3 92  1  0  0  0
  3 93  1  0  0  0
  4  5  1  0  0  0
  4 94  1  0  0  0
  4 95  1  0  0  0
  5  6  1  0  0  0
  5 26  1  0  0  0
  5 96  1  0  0  0
  6 25  1  0  0  0
  6 97  1  0  0  0
  6 98  1  0  0  0
  7  8  2  0  0  0
  7 26  1  0  0  0
  7 29  1  0  0  0
  8  9  1  0  0  0
  8 22  1  0  0  0
  9 10  1  0  0  0
  9 27  2  0  0  0
 10 11  2  0  0  0
 10 15  1  0  0  0
 11 12  1  0  0  0
 11 99  1  0  0  0
 12 13  2  0  0  0
 12100  1  0  0  0
 13 14  1  0  0  0
 13 31  1  0  0  0
 14 15  2  0  0  0
 14101  1  0  0  0
 15102  1  0  0  0
 16 17  2  0  0  0
 16 21  1  0  0  0
 16 31  1  0  0  0
 17 18  1  0  0  0
 17103  1  0  0  0
 18 19  2  0  0  0
 18104  1  0  0  0
 19 20  1  0  0  0
 19 24  1  0  0  0
 20 21  2  0  0  0
 20105  1  0  0  0
 21 23  1  0  0  0
 22 28  1  0  0  0
 22 32  2  0  0  0
 26 27  1  0  0  0
 28106  1  0  0  0
 28107  1  0  0  0
 29108  1  0  0  0
 29109  1  0  0  0
 33 34  1  0  0  0
 33 66  1  0  0  0
 33 70  2  0  0  0
 34 36  1  0  0  0
 34 59  1  0  0  0
 34110  1  0  0  0
 35 44  2  0  0  0
 35 45  1  0  0  0
 35 68  1  0  0  0
 36 56  1  0  0  0
 36111  1  0  0  0
 37 39  1  0  0  0
 37 47  1  0  0  0
 37 66  1  0  0  0
 37112  1  0  0  0
 38 43  2  0  0  0
 38 46  1  0  0  0
 38 47  1  0  0  0
 39 64  1  0  0  0
 39 67  2  0  0  0
 40 52  1  0  0  0
 40 53  2  0  0  0
 40 58  1  0  0  0
 41113  1  0  0  0
 41114  1  0  0  0
 41115  1  0  0  0
 41 48  1  0  0  0
 42 43  1  0  0  0
 42 66  1  0  0  0
 42116  1  0  0  0
 42117  1  0  0  0
 43 44  1  0  0  0
 44118  1  0  0  0
 45 46  2  0  0  0
 45119  1  0  0  0
 46120  1  0  0  0
 47121  1  0  0  0
 47122  1  0  0  0
 48 56  1  0  0  0
 48 65  1  0  0  0
 48123  1  0  0  0
 49 50  1  0  0  0
 49 53  1  0  0  0
 49 64  1  0  0  0
 49124  1  0  0  0
 50 51  1  0  0  0
 50125  1  0  0  0
 50126  1  0  0  0
 51 52  1  0  0  0
 51127  1  0  0  0
 51128  1  0  0  0
 52129  1  0  0  0
 52130  1  0  0  0
 53 54  1  0  0  0
 54 55  2  0  0  0
 54131  1  0  0  0
 55 57  1  0  0  0
 55132  1  0  0  0
 56 69  2  0  0  0
 57 58  2  0  0  0
 57133  1  0  0  0
 58134  1  0  0  0
 59 60  1  0  0  0
 59 61  1  0  0  0
 59 62  1  0  0  0
 60135  1  0  0  0
 60136  1  0  0  0
 60137  1  0  0  0
 61138  1  0  0  0
 61139  1  0  0  0
 61140  1  0  0  0
 62141  1  0  0  0
 62142  1  0  0  0
 62143  1  0  0  0
 63 65  1  0  0  0
 63144  1  0  0  0
 63145  1  0  0  0
 63146  1  0  0  0
 64147  1  0  0  0
 65148  1  0  0  0
 68 83  1  0  0  0
 71 72  1  0  0  0
 71 73  2  0  0  0
 71149  1  0  0  0
 72 76  1  0  0  0
 72 85  2  0  0  0
 73 77  1  0  0  0
 73 86  1  0  0  0
 74 86  1  0  0  0
 74150  1  0  0  0
 74151  1  0  0  0
 74152  1  0  0  0
 75153  1  0  0  0
 75154  1  0  0  0
 75155  1  0  0  0
 75 88  1  0  0  0
 76 87  1  0  0  0
 76156  1  0  0  0
 76157  1  0  0  0
 77 78  1  0  0  0
 77158  1  0  0  0
 77159  1  0  0  0
 78 81  1  0  0  0
 78160  1  0  0  0
 78161  1  0  0  0
 79 82  1  0  0  0
 79 83  1  0  0  0
 79162  1  0  0  0
 79163  1  0  0  0
 80 84  1  0  0  0
 80 87  1  0  0  0
 80164  1  0  0  0
 80165  1  0  0  0
 81 88  1  0  0  0
 81166  1  0  0  0
 81167  1  0  0  0
 82 88  1  0  0  0
 82168  1  0  0  0
 82169  1  0  0  0
 83170  1  0  0  0
 83171  1  0  0  0
 84 89  1  0  0  0
 84172  1  0  0  0
 84173  1  0  0  0
 85 86  1  0  0  0
 88174  1  0  0  0
M  CHG  1  88   1
M  ISO  4   1 100  68 101  83 101  87 100
M  END
> <chiral flag>
0

> <version>
0

> <s_m_source_file>
/data/baiqing/PycharmProjects/Reinvent-master-3.2/result/LINK_invent/BTK/process_docking_weight1_custom_sum_contain_oxygen_bond_distance_aromatic_linkinvent_7_9_3/rearranged_h_0056.sdf

> <i_m_source_file_index>
26

> <r_mmod_Potential_Energy-OPLS-2005>
-102.808067321777

> <r_mmod_Stretch_Energy-OPLS-2005>
42.7386589050293

> <r_mmod_Bend_Energy-OPLS-2005>
121.856903076172

> <r_mmod_Torsional_Energy-OPLS-2005>
275.748657226562

> <r_mmod_Improper_Torsional_Energy-OPLS-2005>
10.6209888458252

> <r_mmod_Van_der_Waal_Energy-OPLS-2005>
170.161193847656

> <r_mmod_Electrostatic_Energy-OPLS-2005>
-273.174072265625

> <r_mmod_Solvation_Energy-OPLS-2005>
-468.685211181641

> <b_mmod_Minimization_Converged-OPLS-2005>
0

> <r_mmod_RMS_Derivative-OPLS-2005>
3.65121126174927

$$$$
28
                    3D
 Structure written by MMmdl.
154162  0  0  1  0            999 V2000
  -30.6563  -14.6775   20.4992 C   0  0  0  0  0  0
  -30.4377  -12.4130   19.4699 C   0  0  0  0  0  0
  -29.5098  -12.5081   18.2388 C   0  0  0  0  0  0
  -28.0321  -12.3526   18.6468 C   0  0  0  0  0  0
  -27.6564  -13.2314   19.8682 C   0  0  2  0  0  0
  -28.7060  -13.1362   20.9979 C   0  0  0  0  0  0
  -25.2591  -13.8211   20.5736 C   0  0  0  0  0  0
  -24.1868  -13.0477   20.9194 C   0  0  0  0  0  0
  -24.6452  -11.6939   20.8782 C   0  0  0  0  0  0
  -23.9115  -10.4320   21.0434 C   0  0  0  0  0  0
  -24.3649   -9.4221   21.9209 C   0  0  0  0  0  0
  -23.6315   -8.2262   22.0771 C   0  0  0  0  0  0
  -22.4297   -8.0318   21.3554 C   0  0  0  0  0  0
  -21.9945   -9.0299   20.4652 C   0  0  0  0  0  0
  -22.7290  -10.2174   20.3071 C   0  0  0  0  0  0
  -21.6850   -6.0775   22.5292 C   0  0  0  0  0  0
  -21.4011   -6.5670   23.8228 C   0  0  0  0  0  0
  -21.3653   -5.6815   24.9185 C   0  0  0  0  0  0
  -21.6037   -4.3076   24.7222 C   0  0  0  0  0  0
  -21.8820   -3.8182   23.4337 C   0  0  0  0  0  0
  -21.9195   -4.7006   22.3405 C   0  0  0  0  0  0
  -22.7882  -13.5258   21.1842 C   0  0  0  0  0  0
  -22.1672   -4.2202   21.0979 F   0  0  0  0  0  0
  -21.5620   -3.4551   25.7723 F   0  0  0  0  0  0
  -30.0155  -13.4619   20.4240 N   0  0  0  0  0  0
  -26.3044  -12.9432   20.3410 N   0  0  0  0  0  0
  -25.9395  -11.6564   20.5834 N   0  0  0  0  0  0
  -22.0521  -12.8244   22.0385 N   0  0  0  0  0  0
  -25.4339  -15.1933   20.4157 N   0  0  0  0  0  0
  -31.8160  -14.7694   20.0886 O   0  0  0  0  0  0
  -21.6643   -6.8935   21.4259 O   0  0  0  0  0  0
  -22.3573  -14.5577   20.6691 O   0  0  0  0  0  0
  -24.6322  -31.8565   23.2061 C   0  0  0  0  0  0
  -25.9163  -32.4752   23.8389 C   0  0  1  0  0  0
  -27.2288  -27.2912   20.1213 C   0  0  0  0  0  0
  -25.5989  -33.8553   24.2334 N   0  0  0  0  0  0
  -23.4288  -30.4869   21.5400 C   0  0  2  0  0  0
  -24.8830  -28.9496   20.1039 C   0  0  0  0  0  0
  -22.7513  -29.4632   22.4839 C   0  0  0  0  0  0
  -18.0301  -28.1423   22.8478 C   0  0  0  0  0  0
  -24.1480  -36.7265   23.2634 C   0  0  0  0  0  0
  -25.9765  -30.7826   21.3861 C   0  0  0  0  0  0
  -26.0518  -29.4095   20.7234 C   0  0  0  0  0  0
  -27.2277  -28.5926   20.7242 C   0  0  0  0  0  0
  -26.0408  -26.9140   19.4499 C   0  0  0  0  0  0
  -24.8836  -27.7106   19.4509 C   0  0  0  0  0  0
  -23.6530  -29.8313   20.1512 C   0  0  0  0  0  0
  -25.4092  -36.3049   24.0341 C   0  0  1  0  0  0
  -20.5912  -28.3729   23.1255 C   0  0  2  0  0  0
  -20.6799  -26.9440   22.5402 C   0  0  0  0  0  0
  -19.5756  -26.6412   21.5220 C   0  0  0  0  0  0
  -18.1939  -26.7964   22.1624 C   0  0  0  0  0  0
  -19.1560  -28.8883   23.2875 C   0  0  0  0  0  0
  -18.9479  -30.1481   23.8897 C   0  0  0  0  0  0
  -17.6481  -30.6613   24.0572 C   0  0  0  0  0  0
  -25.9034  -34.9428   23.5118 C   0  0  0  0  0  0
  -16.5369  -29.9119   23.6338 C   0  0  0  0  0  0
  -16.7290  -28.6543   23.0346 C   0  0  0  0  0  0
  -26.4565  -31.6559   25.0764 C   0  0  0  0  0  0
  -25.3842  -31.3704   26.1531 C   0  0  0  0  0  0
  -27.0414  -30.2968   24.6244 C   0  0  0  0  0  0
  -27.6113  -32.4297   25.7560 C   0  0  0  0  0  0
  -27.5550  -37.1796   24.8467 C   0  0  0  0  0  0
  -21.4212  -29.3083   22.3615 N   0  0  0  0  0  0
  -26.4251  -37.3752   23.9420 N   0  0  0  0  0  0
  -24.6974  -31.0588   22.1004 N   0  0  0  0  0  0
  -23.4240  -28.8143   23.2901 O   0  0  0  0  0  0
  -28.3087  -26.3789   20.2024 O   0  0  0  0  0  0
  -26.5539  -34.8895   22.4645 O   0  0  0  0  0  0
  -23.5484  -32.1350   23.7395 O   0  0  0  0  0  0
  -28.4245  -20.2162   21.0738 C   0  0  0  0  0  0
  -30.2233  -19.9295   19.9261 C   0  0  0  0  0  0
  -30.2865  -16.2545   22.4723 C   0  0  0  0  0  0
  -28.9295  -23.6632   20.4907 C   0  0  0  0  0  0
  -29.1294  -22.2592   19.6780 C   0  0  0  0  0  0
  -30.3321  -17.3504   20.1284 C   0  0  0  0  0  0
  -27.9681  -24.9216   20.0904 C   0  0  0  0  0  0
  -29.9536  -16.0350   20.9822 C   0  0  1  0  0  0
  -28.6488  -18.9332   21.1656 N   0  0  0  0  0  0
  -29.3810  -20.9063   20.3418 N   0  0  0  0  0  0
  -29.7983  -18.7448   20.4571 N   0  0  0  0  0  0
  -31.1508  -20.0704   19.1224 O   0  0  0  0  0  0
  -31.4773  -12.5279   19.1567 H   0  0  0  0  0  0
  -30.3751  -11.4273   19.9332 H   0  0  0  0  0  0
  -29.7728  -11.7490   17.5013 H   0  0  0  0  0  0
  -29.6566  -13.4717   17.7504 H   0  0  0  0  0  0
  -27.8559  -11.3011   18.8742 H   0  0  0  0  0  0
  -27.3830  -12.5915   17.8042 H   0  0  0  0  0  0
  -27.6645  -14.2593   19.5057 H   0  0  0  0  0  0
  -28.7233  -12.1336   21.4259 H   0  0  0  0  0  0
  -28.4573  -13.8121   21.8173 H   0  0  0  0  0  0
  -25.2806   -9.5691   22.4777 H   0  0  0  0  0  0
  -24.0024   -7.4653   22.7481 H   0  0  0  0  0  0
  -21.0882   -8.8822   19.8951 H   0  0  0  0  0  0
  -22.3765  -10.9715   19.6168 H   0  0  0  0  0  0
  -21.1995   -7.6178   23.9746 H   0  0  0  0  0  0
  -21.1469   -6.0540   25.9088 H   0  0  0  0  0  0
  -22.0594   -2.7646   23.2814 H   0  0  0  0  0  0
  -22.4125  -11.9861   22.4697 H   0  0  0  0  0  0
  -21.1163  -13.1311   22.2650 H   0  0  0  0  0  0
  -24.6742  -15.8555   20.5299 H   0  0  0  0  0  0
  -26.2950  -15.6292   20.1097 H   0  0  0  0  0  0
  -26.7235  -32.5434   23.1141 H   0  0  0  0  0  0
  -25.0301  -33.9690   25.0602 H   0  0  0  0  0  0
  -22.7254  -31.3102   21.3967 H   0  0  0  0  0  0
  -23.3724  -35.9607   23.3289 H   0  0  0  0  0  0
  -24.3565  -36.8878   22.2039 H   0  0  0  0  0  0
  -23.7264  -37.6489   23.6644 H   0  0  0  0  0  0
  -26.1163  -31.5504   20.6232 H   0  0  0  0  0  0
  -26.8536  -30.8295   22.0198 H   0  0  0  0  0  0
  -28.1181  -28.9357   21.2341 H   0  0  0  0  0  0
  -25.9653  -25.9789   18.9197 H   0  0  0  0  0  0
  -23.9970  -27.3615   18.9394 H   0  0  0  0  0  0
  -23.7894  -30.6134   19.4042 H   0  0  0  0  0  0
  -22.7748  -29.2678   19.8293 H   0  0  0  0  0  0
  -25.1277  -36.1869   25.0827 H   0  0  0  0  0  0
  -21.0039  -28.3327   24.1362 H   0  0  0  0  0  0
  -20.5725  -26.2339   23.3602 H   0  0  0  0  0  0
  -21.6666  -26.7490   22.1163 H   0  0  0  0  0  0
  -19.6914  -25.6326   21.1232 H   0  0  0  0  0  0
  -19.6697  -27.3235   20.6743 H   0  0  0  0  0  0
  -17.4213  -26.6718   21.4016 H   0  0  0  0  0  0
  -18.0330  -26.0129   22.9029 H   0  0  0  0  0  0
  -19.7955  -30.7296   24.2286 H   0  0  0  0  0  0
  -17.5035  -31.6284   24.5188 H   0  0  0  0  0  0
  -15.5372  -30.3021   23.7676 H   0  0  0  0  0  0
  -15.8682  -28.0869   22.7065 H   0  0  0  0  0  0
  -24.6046  -30.6971   25.7957 H   0  0  0  0  0  0
  -24.9028  -32.2870   26.4934 H   0  0  0  0  0  0
  -25.8266  -30.8987   27.0315 H   0  0  0  0  0  0
  -26.3006  -29.6680   24.1288 H   0  0  0  0  0  0
  -27.4109  -29.7245   25.4767 H   0  0  0  0  0  0
  -27.8890  -30.4213   23.9494 H   0  0  0  0  0  0
  -27.2702  -33.3591   26.2120 H   0  0  0  0  0  0
  -28.3983  -32.6843   25.0450 H   0  0  0  0  0  0
  -28.0703  -31.8429   26.5523 H   0  0  0  0  0  0
  -28.2591  -38.0074   24.7478 H   0  0  0  0  0  0
  -28.1034  -36.2606   24.6334 H   0  0  0  0  0  0
  -27.2266  -37.1491   25.8874 H   0  0  0  0  0  0
  -20.9388  -29.8830   21.6841 H   0  0  0  0  0  0
  -26.0115  -38.2814   24.1444 H   0  0  0  0  0  0
  -27.5740  -20.7707   21.4742 H   0  0  0  0  0  0
  -30.4289  -17.3065   22.7137 H   0  0  0  0  0  0
  -31.2024  -15.7427   22.7744 H   0  0  0  0  0  0
  -29.4773  -15.8896   23.1052 H   0  0  0  0  0  0
  -27.9745  -23.1771   20.6883 H   0  0  0  0  0  0
  -29.4878  -24.0974   19.6611 H   0  0  0  0  0  0
  -29.9564  -22.3639   18.9692 H   0  0  0  0  0  0
  -28.2737  -22.0954   19.0172 H   0  0  0  0  0  0
  -30.0672  -17.1534   19.0883 H   0  0  0  0  0  0
  -31.4224  -17.4286   20.1192 H   0  0  0  0  0  0
  -27.0470  -24.8379   20.6783 H   0  0  0  0  0  0
  -27.6643  -24.7522   19.0539 H   0  0  0  0  0  0
  -28.8749  -15.9138   20.8927 H   0  0  0  0  0  0
  1 25  1  0  0  0
  1 30  2  0  0  0
  1 78  1  0  0  0
  2  3  1  0  0  0
  2 25  1  0  0  0
  2 83  1  0  0  0
  2 84  1  0  0  0
  3  4  1  0  0  0
  3 85  1  0  0  0
  3 86  1  0  0  0
  4  5  1  0  0  0
  4 87  1  0  0  0
  4 88  1  0  0  0
  5  6  1  0  0  0
  5 26  1  0  0  0
  5 89  1  0  0  0
  6 25  1  0  0  0
  6 90  1  0  0  0
  6 91  1  0  0  0
  7  8  2  0  0  0
  7 26  1  0  0  0
  7 29  1  0  0  0
  8  9  1  0  0  0
  8 22  1  0  0  0
  9 10  1  0  0  0
  9 27  2  0  0  0
 10 11  2  0  0  0
 10 15  1  0  0  0
 11 12  1  0  0  0
 11 92  1  0  0  0
 12 13  2  0  0  0
 12 93  1  0  0  0
 13 14  1  0  0  0
 13 31  1  0  0  0
 14 15  2  0  0  0
 14 94  1  0  0  0
 15 95  1  0  0  0
 16 17  2  0  0  0
 16 21  1  0  0  0
 16 31  1  0  0  0
 17 18  1  0  0  0
 17 96  1  0  0  0
 18 19  2  0  0  0
 18 97  1  0  0  0
 19 20  1  0  0  0
 19 24  1  0  0  0
 20 21  2  0  0  0
 20 98  1  0  0  0
 21 23  1  0  0  0
 22 28  1  0  0  0
 22 32  2  0  0  0
 26 27  1  0  0  0
 28 99  1  0  0  0
 28100  1  0  0  0
 29101  1  0  0  0
 29102  1  0  0  0
 33 34  1  0  0  0
 33 66  1  0  0  0
 33 70  2  0  0  0
 34 36  1  0  0  0
 34 59  1  0  0  0
 34103  1  0  0  0
 35 44  2  0  0  0
 35 45  1  0  0  0
 35 68  1  0  0  0
 36 56  1  0  0  0
 36104  1  0  0  0
 37 39  1  0  0  0
 37 47  1  0  0  0
 37 66  1  0  0  0
 37105  1  0  0  0
 38 43  2  0  0  0
 38 46  1  0  0  0
 38 47  1  0  0  0
 39 64  1  0  0  0
 39 67  2  0  0  0
 40 52  1  0  0  0
 40 53  2  0  0  0
 40 58  1  0  0  0
 41106  1  0  0  0
 41107  1  0  0  0
 41108  1  0  0  0
 41 48  1  0  0  0
 42 43  1  0  0  0
 42 66  1  0  0  0
 42109  1  0  0  0
 42110  1  0  0  0
 43 44  1  0  0  0
 44111  1  0  0  0
 45 46  2  0  0  0
 45112  1  0  0  0
 46113  1  0  0  0
 47114  1  0  0  0
 47115  1  0  0  0
 48 56  1  0  0  0
 48 65  1  0  0  0
 48116  1  0  0  0
 49 50  1  0  0  0
 49 53  1  0  0  0
 49 64  1  0  0  0
 49117  1  0  0  0
 50 51  1  0  0  0
 50118  1  0  0  0
 50119  1  0  0  0
 51 52  1  0  0  0
 51120  1  0  0  0
 51121  1  0  0  0
 52122  1  0  0  0
 52123  1  0  0  0
 53 54  1  0  0  0
 54 55  2  0  0  0
 54124  1  0  0  0
 55 57  1  0  0  0
 55125  1  0  0  0
 56 69  2  0  0  0
 57 58  2  0  0  0
 57126  1  0  0  0
 58127  1  0  0  0
 59 60  1  0  0  0
 59 61  1  0  0  0
 59 62  1  0  0  0
 60128  1  0  0  0
 60129  1  0  0  0
 60130  1  0  0  0
 61131  1  0  0  0
 61132  1  0  0  0
 61133  1  0  0  0
 62134  1  0  0  0
 62135  1  0  0  0
 62136  1  0  0  0
 63 65  1  0  0  0
 63137  1  0  0  0
 63138  1  0  0  0
 63139  1  0  0  0
 64140  1  0  0  0
 65141  1  0  0  0
 68 77  1  0  0  0
 71 79  2  0  0  0
 71 80  1  0  0  0
 71142  1  0  0  0
 72 80  1  0  0  0
 72 81  1  0  0  0
 72 82  2  0  0  0
 73143  1  0  0  0
 73144  1  0  0  0
 73145  1  0  0  0
 73 78  1  0  0  0
 74 75  1  0  0  0
 74 77  1  0  0  0
 74146  1  0  0  0
 74147  1  0  0  0
 75 80  1  0  0  0
 75148  1  0  0  0
 75149  1  0  0  0
 76 78  1  0  0  0
 76 81  1  0  0  0
 76150  1  0  0  0
 76151  1  0  0  0
 77152  1  0  0  0
 77153  1  0  0  0
 78154  1  0  0  0
 79 81  1  0  0  0
M  ISO  4   1 100  68 101  77 101  78 100
M  END
> <chiral flag>
0

> <version>
0

> <s_m_source_file>
/data/baiqing/PycharmProjects/Reinvent-master-3.2/result/LINK_invent/BTK/process_docking_weight1_custom_sum_contain_oxygen_bond_distance_aromatic_linkinvent_7_9_3/rearranged_h_0056.sdf

> <i_m_source_file_index>
27

> <r_mmod_Potential_Energy-OPLS-2005>
502.411163330078

> <r_mmod_Stretch_Energy-OPLS-2005>
117.716644287109

> <r_mmod_Bend_Energy-OPLS-2005>
439.025726318359

> <r_mmod_Torsional_Energy-OPLS-2005>
248.679946899414

> <r_mmod_Improper_Torsional_Energy-OPLS-2005>
4.97195053100586

> <r_mmod_Van_der_Waal_Energy-OPLS-2005>
139.754943847656

> <r_mmod_Electrostatic_Energy-OPLS-2005>
-297.871520996094

> <r_mmod_Solvation_Energy-OPLS-2005>
-215.442886352539

> <b_mmod_Minimization_Converged-OPLS-2005>
0

> <r_mmod_RMS_Derivative-OPLS-2005>
3.5677638053894

$$$$
29
                    3D
 Structure written by MMmdl.
157165  0  0  1  0            999 V2000
  -30.6083  -14.7637   20.3847 C   0  0  0  0  0  0
  -30.4407  -12.4439   19.4693 C   0  0  0  0  0  0
  -29.5123  -12.4072   18.2346 C   0  0  0  0  0  0
  -28.0297  -12.2900   18.6514 C   0  0  0  0  0  0
  -27.6315  -13.2109   19.8377 C   0  0  2  0  0  0
  -28.6884  -13.1987   20.9611 C   0  0  0  0  0  0
  -25.2519  -13.8136   20.5738 C   0  0  0  0  0  0
  -24.1785  -13.0413   20.9227 C   0  0  0  0  0  0
  -24.6354  -11.6884   20.8786 C   0  0  0  0  0  0
  -23.9033  -10.4276   21.0431 C   0  0  0  0  0  0
  -24.3596   -9.4192   21.9197 C   0  0  0  0  0  0
  -23.6280   -8.2225   22.0754 C   0  0  0  0  0  0
  -22.4264   -8.0267   21.3541 C   0  0  0  0  0  0
  -21.9897   -9.0241   20.4645 C   0  0  0  0  0  0
  -22.7217  -10.2124   20.3065 C   0  0  0  0  0  0
  -21.6848   -6.0729   22.5277 C   0  0  0  0  0  0
  -21.4011   -6.5636   23.8211 C   0  0  0  0  0  0
  -21.3659   -5.6789   24.9174 C   0  0  0  0  0  0
  -21.6045   -4.3051   24.7224 C   0  0  0  0  0  0
  -21.8819   -3.8143   23.4346 C   0  0  0  0  0  0
  -21.9192   -4.6959   22.3402 C   0  0  0  0  0  0
  -22.7814  -13.5220   21.1871 C   0  0  0  0  0  0
  -22.1659   -4.2144   21.0979 F   0  0  0  0  0  0
  -21.5631   -3.4535   25.7737 F   0  0  0  0  0  0
  -29.9785  -13.5380   20.3486 N   0  0  0  0  0  0
  -26.2903  -12.9282   20.3310 N   0  0  0  0  0  0
  -25.9275  -11.6458   20.5811 N   0  0  0  0  0  0
  -22.0450  -12.8221   22.0427 N   0  0  0  0  0  0
  -25.4260  -15.1861   20.4187 N   0  0  0  0  0  0
  -31.8347  -14.8280   20.2642 O   0  0  0  0  0  0
  -21.6629   -6.8867   21.4238 O   0  0  0  0  0  0
  -22.3513  -14.5527   20.6709 O   0  0  0  0  0  0
  -24.6283  -31.8570   23.1992 C   0  0  0  0  0  0
  -25.9117  -32.4766   23.8336 C   0  0  1  0  0  0
  -27.2265  -27.2902   20.1393 C   0  0  0  0  0  0
  -25.5922  -33.8568   24.2263 N   0  0  0  0  0  0
  -23.4243  -30.4779   21.5422 C   0  0  2  0  0  0
  -24.8733  -28.9230   20.1157 C   0  0  0  0  0  0
  -22.7488  -29.4609   22.4930 C   0  0  0  0  0  0
  -18.0289  -28.1385   22.8483 C   0  0  0  0  0  0
  -24.1490  -36.7292   23.2640 C   0  0  0  0  0  0
  -25.9665  -30.7807   21.3728 C   0  0  0  0  0  0
  -26.0424  -29.4031   20.7203 C   0  0  0  0  0  0
  -27.2247  -28.6003   20.7165 C   0  0  0  0  0  0
  -26.0378  -26.8665   19.5083 C   0  0  0  0  0  0
  -24.8739  -27.6612   19.4988 C   0  0  0  0  0  0
  -23.6421  -29.8069   20.1599 C   0  0  0  0  0  0
  -25.4116  -36.3079   24.0328 C   0  0  1  0  0  0
  -20.5889  -28.3693   23.1279 C   0  0  2  0  0  0
  -20.6776  -26.9414   22.5410 C   0  0  0  0  0  0
  -19.5753  -26.6382   21.5212 C   0  0  0  0  0  0
  -18.1934  -26.7927   22.1622 C   0  0  0  0  0  0
  -19.1541  -28.8856   23.2875 C   0  0  0  0  0  0
  -18.9462  -30.1457   23.8891 C   0  0  0  0  0  0
  -17.6462  -30.6586   24.0561 C   0  0  0  0  0  0
  -25.9052  -34.9448   23.5100 C   0  0  0  0  0  0
  -16.5352  -29.9084   23.6329 C   0  0  0  0  0  0
  -16.7276  -28.6502   23.0350 C   0  0  0  0  0  0
  -26.4494  -31.6584   25.0715 C   0  0  0  0  0  0
  -25.3723  -31.3727   26.1440 C   0  0  0  0  0  0
  -27.0341  -30.3008   24.6180 C   0  0  0  0  0  0
  -27.6048  -32.4326   25.7489 C   0  0  0  0  0  0
  -27.5581  -37.1804   24.8466 C   0  0  0  0  0  0
  -21.4198  -29.3042   22.3671 N   0  0  0  0  0  0
  -26.4294  -37.3775   23.9407 N   0  0  0  0  0  0
  -24.6920  -31.0562   22.0952 N   0  0  0  0  0  0
  -23.4198  -28.8158   23.3027 O   0  0  0  0  0  0
  -28.3386  -26.4288   20.1493 O   0  0  0  0  0  0
  -26.5625  -34.8920   22.4669 O   0  0  0  0  0  0
  -23.5440  -32.1378   23.7307 O   0  0  0  0  0  0
  -29.8777  -20.1889   22.2406 C   0  0  0  0  0  0
  -29.5037  -20.0699   20.9012 C   0  0  0  0  0  0
  -29.8963  -21.4732   22.8185 C   0  0  0  0  0  0
  -29.1967  -22.4452   20.8379 C   0  0  0  0  0  0
  -29.2475  -16.1022   18.8929 C   0  0  0  0  0  0
  -29.4288  -18.6464   20.2078 C   0  0  0  0  0  0
  -29.0492  -23.8171   20.0500 C   0  0  0  0  0  0
  -30.0621  -17.2960   20.8785 C   0  0  0  0  0  0
  -28.1648  -25.0254   20.6468 C   0  0  0  0  0  0
  -30.3029  -21.6875   24.2816 C   0  0  0  0  0  0
  -29.1649  -21.2271   20.2168 N   0  0  0  0  0  0
  -29.5694  -22.5767   22.1030 N   0  0  0  0  0  0
  -29.8319  -15.9195   20.2301 N   0  0  0  0  0  0
  -30.5689  -20.5309   24.8948 F   0  0  0  0  0  0
  -31.3938  -22.4546   24.3430 F   0  0  0  0  0  0
  -29.3163  -22.2953   24.9447 F   0  0  0  0  0  0
  -31.4766  -12.5807   19.1538 H   0  0  0  0  0  0
  -30.4106  -11.4932   20.0040 H   0  0  0  0  0  0
  -29.7777  -11.5550   17.6073 H   0  0  0  0  0  0
  -29.6730  -13.2777   17.6028 H   0  0  0  0  0  0
  -27.8649  -11.2498   18.9338 H   0  0  0  0  0  0
  -27.3800  -12.4727   17.7946 H   0  0  0  0  0  0
  -27.5831  -14.2143   19.4321 H   0  0  0  0  0  0
  -28.7348  -12.2228   21.4461 H   0  0  0  0  0  0
  -28.4297  -13.9231   21.7355 H   0  0  0  0  0  0
  -25.2740   -9.5671   22.4773 H   0  0  0  0  0  0
  -23.9992   -7.4614   22.7469 H   0  0  0  0  0  0
  -21.0830   -8.8761   19.8949 H   0  0  0  0  0  0
  -22.3677  -10.9669   19.6179 H   0  0  0  0  0  0
  -21.2001   -7.6143   23.9714 H   0  0  0  0  0  0
  -21.1482   -6.0518   25.9077 H   0  0  0  0  0  0
  -22.0601   -2.7605   23.2845 H   0  0  0  0  0  0
  -22.4059  -11.9883   22.4820 H   0  0  0  0  0  0
  -21.1070  -13.1255   22.2626 H   0  0  0  0  0  0
  -24.6680  -15.8478   20.5452 H   0  0  0  0  0  0
  -26.2941  -15.6255   20.1406 H   0  0  0  0  0  0
  -26.7186  -32.5432   23.1084 H   0  0  0  0  0  0
  -25.0065  -33.9707   25.0407 H   0  0  0  0  0  0
  -22.7193  -31.2985   21.3947 H   0  0  0  0  0  0
  -23.3751  -35.9625   23.3302 H   0  0  0  0  0  0
  -24.3581  -36.8915   22.2054 H   0  0  0  0  0  0
  -23.7244  -37.6495   23.6662 H   0  0  0  0  0  0
  -26.0974  -31.5401   20.6006 H   0  0  0  0  0  0
  -26.8466  -30.8340   22.0020 H   0  0  0  0  0  0
  -28.1242  -28.9670   21.1909 H   0  0  0  0  0  0
  -26.0009  -25.9012   19.0237 H   0  0  0  0  0  0
  -23.9789  -27.2882   19.0201 H   0  0  0  0  0  0
  -23.7653  -30.5803   19.4010 H   0  0  0  0  0  0
  -22.7614  -29.2374   19.8574 H   0  0  0  0  0  0
  -25.1298  -36.1931   25.0821 H   0  0  0  0  0  0
  -20.9978  -28.3267   24.1401 H   0  0  0  0  0  0
  -20.5675  -26.2303   23.3612 H   0  0  0  0  0  0
  -21.6646  -26.7441   22.1205 H   0  0  0  0  0  0
  -19.6916  -25.6292   21.1244 H   0  0  0  0  0  0
  -19.6690  -27.3189   20.6739 H   0  0  0  0  0  0
  -17.4204  -26.6671   21.4025 H   0  0  0  0  0  0
  -18.0336  -26.0071   22.9021 H   0  0  0  0  0  0
  -19.7940  -30.7273   24.2258 H   0  0  0  0  0  0
  -17.5018  -31.6266   24.5163 H   0  0  0  0  0  0
  -15.5354  -30.2983   23.7660 H   0  0  0  0  0  0
  -15.8676  -28.0821   22.7064 H   0  0  0  0  0  0
  -24.5898  -30.7076   25.7771 H   0  0  0  0  0  0
  -24.8911  -32.2892   26.4863 H   0  0  0  0  0  0
  -25.8044  -30.8907   27.0218 H   0  0  0  0  0  0
  -26.2918  -29.6755   24.1206 H   0  0  0  0  0  0
  -27.4038  -29.7271   25.4689 H   0  0  0  0  0  0
  -27.8785  -30.4296   23.9404 H   0  0  0  0  0  0
  -27.2653  -33.3628   26.2057 H   0  0  0  0  0  0
  -28.3860  -32.6885   25.0321 H   0  0  0  0  0  0
  -28.0709  -31.8458   26.5413 H   0  0  0  0  0  0
  -28.2603  -38.0098   24.7510 H   0  0  0  0  0  0
  -28.1073  -36.2630   24.6295 H   0  0  0  0  0  0
  -27.2298  -37.1457   25.8869 H   0  0  0  0  0  0
  -20.9384  -29.8759   21.6871 H   0  0  0  0  0  0
  -26.0176  -38.2851   24.1400 H   0  0  0  0  0  0
  -30.1440  -19.3225   22.8297 H   0  0  0  0  0  0
  -28.2354  -16.5014   18.9538 H   0  0  0  0  0  0
  -29.1818  -15.1907   18.3103 H   0  0  0  0  0  0
  -29.8577  -16.7727   18.2882 H   0  0  0  0  0  0
  -29.8674  -18.7864   19.2206 H   0  0  0  0  0  0
  -28.3649  -18.4793   20.0419 H   0  0  0  0  0  0
  -28.6918  -23.5933   19.0455 H   0  0  0  0  0  0
  -30.0642  -24.1901   19.9160 H   0  0  0  0  0  0
  -29.6703  -17.2126   21.8921 H   0  0  0  0  0  0
  -31.1367  -17.4441   20.9916 H   0  0  0  0  0  0
  -28.3970  -25.0906   21.7097 H   0  0  0  0  0  0
  -27.1193  -24.7208   20.6173 H   0  0  0  0  0  0
  1 25  1  0  0  0
  1 30  2  0  0  0
  1 83  1  0  0  0
  2  3  1  0  0  0
  2 25  1  0  0  0
  2 87  1  0  0  0
  2 88  1  0  0  0
  3  4  1  0  0  0
  3 89  1  0  0  0
  3 90  1  0  0  0
  4  5  1  0  0  0
  4 91  1  0  0  0
  4 92  1  0  0  0
  5  6  1  0  0  0
  5 26  1  0  0  0
  5 93  1  0  0  0
  6 25  1  0  0  0
  6 94  1  0  0  0
  6 95  1  0  0  0
  7  8  2  0  0  0
  7 26  1  0  0  0
  7 29  1  0  0  0
  8  9  1  0  0  0
  8 22  1  0  0  0
  9 10  1  0  0  0
  9 27  2  0  0  0
 10 11  2  0  0  0
 10 15  1  0  0  0
 11 12  1  0  0  0
 11 96  1  0  0  0
 12 13  2  0  0  0
 12 97  1  0  0  0
 13 14  1  0  0  0
 13 31  1  0  0  0
 14 15  2  0  0  0
 14 98  1  0  0  0
 15 99  1  0  0  0
 16 17  2  0  0  0
 16 21  1  0  0  0
 16 31  1  0  0  0
 17 18  1  0  0  0
 17100  1  0  0  0
 18 19  2  0  0  0
 18101  1  0  0  0
 19 20  1  0  0  0
 19 24  1  0  0  0
 20 21  2  0  0  0
 20102  1  0  0  0
 21 23  1  0  0  0
 22 28  1  0  0  0
 22 32  2  0  0  0
 26 27  1  0  0  0
 28103  1  0  0  0
 28104  1  0  0  0
 29105  1  0  0  0
 29106  1  0  0  0
 33 34  1  0  0  0
 33 66  1  0  0  0
 33 70  2  0  0  0
 34 36  1  0  0  0
 34 59  1  0  0  0
 34107  1  0  0  0
 35 44  2  0  0  0
 35 45  1  0  0  0
 35 68  1  0  0  0
 36 56  1  0  0  0
 36108  1  0  0  0
 37 39  1  0  0  0
 37 47  1  0  0  0
 37 66  1  0  0  0
 37109  1  0  0  0
 38 43  2  0  0  0
 38 46  1  0  0  0
 38 47  1  0  0  0
 39 64  1  0  0  0
 39 67  2  0  0  0
 40 52  1  0  0  0
 40 53  2  0  0  0
 40 58  1  0  0  0
 41110  1  0  0  0
 41111  1  0  0  0
 41112  1  0  0  0
 41 48  1  0  0  0
 42 43  1  0  0  0
 42 66  1  0  0  0
 42113  1  0  0  0
 42114  1  0  0  0
 43 44  1  0  0  0
 44115  1  0  0  0
 45 46  2  0  0  0
 45116  1  0  0  0
 46117  1  0  0  0
 47118  1  0  0  0
 47119  1  0  0  0
 48 56  1  0  0  0
 48 65  1  0  0  0
 48120  1  0  0  0
 49 50  1  0  0  0
 49 53  1  0  0  0
 49 64  1  0  0  0
 49121  1  0  0  0
 50 51  1  0  0  0
 50122  1  0  0  0
 50123  1  0  0  0
 51 52  1  0  0  0
 51124  1  0  0  0
 51125  1  0  0  0
 52126  1  0  0  0
 52127  1  0  0  0
 53 54  1  0  0  0
 54 55  2  0  0  0
 54128  1  0  0  0
 55 57  1  0  0  0
 55129  1  0  0  0
 56 69  2  0  0  0
 57 58  2  0  0  0
 57130  1  0  0  0
 58131  1  0  0  0
 59 60  1  0  0  0
 59 61  1  0  0  0
 59 62  1  0  0  0
 60132  1  0  0  0
 60133  1  0  0  0
 60134  1  0  0  0
 61135  1  0  0  0
 61136  1  0  0  0
 61137  1  0  0  0
 62138  1  0  0  0
 62139  1  0  0  0
 62140  1  0  0  0
 63 65  1  0  0  0
 63141  1  0  0  0
 63142  1  0  0  0
 63143  1  0  0  0
 64144  1  0  0  0
 65145  1  0  0  0
 68 79  1  0  0  0
 71 72  2  0  0  0
 71 73  1  0  0  0
 71146  1  0  0  0
 72 76  1  0  0  0
 72 81  1  0  0  0
 73 80  1  0  0  0
 73 82  2  0  0  0
 74 77  1  0  0  0
 74 81  2  0  0  0
 74 82  1  0  0  0
 75 83  1  0  0  0
 75147  1  0  0  0
 75148  1  0  0  0
 75149  1  0  0  0
 76 78  1  0  0  0
 76150  1  0  0  0
 76151  1  0  0  0
 77 79  1  0  0  0
 77152  1  0  0  0
 77153  1  0  0  0
 78 83  1  0  0  0
 78154  1  0  0  0
 78155  1  0  0  0
 79156  1  0  0  0
 79157  1  0  0  0
 80 84  1  0  0  0
 80 85  1  0  0  0
 80 86  1  0  0  0
M  ISO  4   1 100  68 101  79 101  83 100
M  END
> <chiral flag>
0

> <version>
0

> <s_m_source_file>
/data/baiqing/PycharmProjects/Reinvent-master-3.2/result/LINK_invent/BTK/process_docking_weight1_custom_sum_contain_oxygen_bond_distance_aromatic_linkinvent_7_9_3/rearranged_h_0056.sdf

> <i_m_source_file_index>
28

> <r_mmod_Potential_Energy-OPLS-2005>
34.3952598571777

> <r_mmod_Stretch_Energy-OPLS-2005>
117.525108337402

> <r_mmod_Bend_Energy-OPLS-2005>
165.360061645508

> <r_mmod_Torsional_Energy-OPLS-2005>
312.006927490234

> <r_mmod_Improper_Torsional_Energy-OPLS-2005>
11.4721345901489

> <r_mmod_Van_der_Waal_Energy-OPLS-2005>
154.037399291992

> <r_mmod_Electrostatic_Energy-OPLS-2005>
-599.086791992188

> <r_mmod_Solvation_Energy-OPLS-2005>
-217.504409790039

> <b_mmod_Minimization_Converged-OPLS-2005>
0

> <r_mmod_RMS_Derivative-OPLS-2005>
0.416845947504044

$$$$
30
                    3D
 Structure written by MMmdl.
163171  0  0  1  0            999 V2000
  -30.6424  -14.7839   20.5915 C   0  0  0  0  0  0
  -30.4362  -12.5239   19.4730 C   0  0  0  0  0  0
  -29.5005  -12.6055   18.2442 C   0  0  0  0  0  0
  -28.0325  -12.3929   18.6506 C   0  0  0  0  0  0
  -27.6519  -13.2434   19.8884 C   0  0  2  0  0  0
  -28.6999  -13.1278   21.0128 C   0  0  0  0  0  0
  -25.2554  -13.8208   20.5761 C   0  0  0  0  0  0
  -24.1830  -13.0441   20.9182 C   0  0  0  0  0  0
  -24.6426  -11.6907   20.8757 C   0  0  0  0  0  0
  -23.9097  -10.4282   21.0370 C   0  0  0  0  0  0
  -24.3645   -9.4222   21.9179 C   0  0  0  0  0  0
  -23.6325   -8.2252   22.0765 C   0  0  0  0  0  0
  -22.4307   -8.0305   21.3549 C   0  0  0  0  0  0
  -21.9931   -9.0251   20.4615 C   0  0  0  0  0  0
  -22.7266  -10.2128   20.3024 C   0  0  0  0  0  0
  -21.6902   -6.0724   22.5253 C   0  0  0  0  0  0
  -21.4045   -6.5613   23.8181 C   0  0  0  0  0  0
  -21.3713   -5.6786   24.9154 C   0  0  0  0  0  0
  -21.6078   -4.3044   24.7225 C   0  0  0  0  0  0
  -21.8824   -3.8128   23.4337 C   0  0  0  0  0  0
  -21.9202   -4.6948   22.3387 C   0  0  0  0  0  0
  -22.7869  -13.5261   21.1787 C   0  0  0  0  0  0
  -22.1664   -4.2132   21.0972 F   0  0  0  0  0  0
  -21.5631   -3.4524   25.7727 F   0  0  0  0  0  0
  -30.0037  -13.5520   20.4655 N   0  0  0  0  0  0
  -26.3017  -12.9409   20.3515 N   0  0  0  0  0  0
  -25.9400  -11.6521   20.5896 N   0  0  0  0  0  0
  -22.0515  -12.8242   22.0347 N   0  0  0  0  0  0
  -25.4342  -15.1924   20.4139 N   0  0  0  0  0  0
  -31.7441  -14.9188   20.0439 O   0  0  0  0  0  0
  -21.6700   -6.8901   21.4222 O   0  0  0  0  0  0
  -22.3562  -14.5599   20.6704 O   0  0  0  0  0  0
  -24.6463  -31.8439   23.1897 C   0  0  0  0  0  0
  -25.9245  -32.4685   23.8296 C   0  0  1  0  0  0
  -27.1924  -27.0995   20.1874 C   0  0  0  0  0  0
  -25.5985  -33.8489   24.2212 N   0  0  0  0  0  0
  -23.4499  -30.4652   21.5364 C   0  0  2  0  0  0
  -24.9037  -28.8951   20.1133 C   0  0  0  0  0  0
  -22.7589  -29.4535   22.4849 C   0  0  0  0  0  0
  -18.0303  -28.1381   22.8469 C   0  0  0  0  0  0
  -24.1487  -36.7213   23.2631 C   0  0  0  0  0  0
  -26.0113  -30.7087   21.3981 C   0  0  0  0  0  0
  -26.0789  -29.3186   20.7426 C   0  0  0  0  0  0
  -27.2335  -28.4386   20.7607 C   0  0  0  0  0  0
  -26.0038  -26.8052   19.4868 C   0  0  0  0  0  0
  -24.8809  -27.6558   19.4622 C   0  0  0  0  0  0
  -23.6835  -29.8032   20.1532 C   0  0  0  0  0  0
  -25.4120  -36.3011   24.0319 C   0  0  1  0  0  0
  -20.5921  -28.3715   23.1226 C   0  0  2  0  0  0
  -20.6782  -26.9414   22.5402 C   0  0  0  0  0  0
  -19.5765  -26.6366   21.5207 C   0  0  0  0  0  0
  -18.1941  -26.7911   22.1607 C   0  0  0  0  0  0
  -19.1552  -28.8873   23.2843 C   0  0  0  0  0  0
  -18.9464  -30.1461   23.8889 C   0  0  0  0  0  0
  -17.6463  -30.6576   24.0557 C   0  0  0  0  0  0
  -25.9085  -34.9392   23.5072 C   0  0  0  0  0  0
  -16.5354  -29.9074   23.6339 C   0  0  0  0  0  0
  -16.7292  -28.6490   23.0364 C   0  0  0  0  0  0
  -26.4556  -31.6538   25.0730 C   0  0  0  0  0  0
  -25.3733  -31.3702   26.1418 C   0  0  0  0  0  0
  -27.0403  -30.2919   24.6318 C   0  0  0  0  0  0
  -27.6098  -32.4281   25.7501 C   0  0  0  0  0  0
  -27.5593  -37.1738   24.8459 C   0  0  0  0  0  0
  -21.4278  -29.3045   22.3616 N   0  0  0  0  0  0
  -26.4263  -37.3750   23.9440 N   0  0  0  0  0  0
  -24.7225  -31.0276   22.0967 N   0  0  0  0  0  0
  -23.4230  -28.8071   23.3013 O   0  0  0  0  0  0
  -28.1869  -26.0467   20.2721 O   0  0  0  0  0  0
  -26.5657  -34.8890   22.4644 O   0  0  0  0  0  0
  -23.5584  -32.1352   23.7090 O   0  0  0  0  0  0
  -29.3722  -22.5757   21.5660 C   0  0  0  0  0  0
  -28.4341  -20.7663   19.7833 C   0  0  0  0  0  0
  -29.3341  -20.2530   20.7970 C   0  0  0  0  0  0
  -28.4915  -23.1087   20.5630 C   0  0  0  0  0  0
  -29.9069  -23.4748   22.6621 C   0  0  0  0  0  0
  -26.8945  -18.7714   19.0123 C   0  0  0  0  0  0
  -31.2076  -16.1576   23.4918 C   0  0  0  0  0  0
  -27.8596  -19.9175   18.6417 C   0  0  0  0  0  0
  -30.0291  -18.7637   21.0287 C   0  0  0  0  0  0
  -27.7136  -24.5858   20.6080 C   0  0  0  0  0  0
  -29.9204  -15.7967   22.7113 C   0  0  0  0  0  0
  -29.4886  -17.2382   20.6444 C   0  0  0  0  0  0
  -29.7674  -21.2396   21.6591 N   0  0  0  0  0  0
  -28.0386  -22.1136   19.7065 N   0  0  0  0  0  0
  -30.0369  -15.8874   21.2357 N   0  0  0  0  0  0
  -31.4680  -12.6630   19.1434 H   0  0  0  0  0  0
  -30.4037  -11.5237   19.9042 H   0  0  0  0  0  0
  -29.7884  -11.8742   17.4897 H   0  0  0  0  0  0
  -29.6074  -13.5879   17.7809 H   0  0  0  0  0  0
  -27.8858  -11.3325   18.8564 H   0  0  0  0  0  0
  -27.3751  -12.6470   17.8190 H   0  0  0  0  0  0
  -27.6587  -14.2856   19.5665 H   0  0  0  0  0  0
  -28.7575  -12.1008   21.3771 H   0  0  0  0  0  0
  -28.3720  -13.7215   21.8600 H   0  0  0  0  0  0
  -25.2744   -9.5717   22.4809 H   0  0  0  0  0  0
  -24.0012   -7.4678   22.7521 H   0  0  0  0  0  0
  -21.0871   -8.8751   19.8924 H   0  0  0  0  0  0
  -22.3701  -10.9673   19.6162 H   0  0  0  0  0  0
  -21.2015   -7.6122   23.9691 H   0  0  0  0  0  0
  -21.1571   -6.0503   25.9077 H   0  0  0  0  0  0
  -22.0555   -2.7587   23.2834 H   0  0  0  0  0  0
  -22.4150  -11.9867   22.4634 H   0  0  0  0  0  0
  -21.1188  -13.1286   22.2642 H   0  0  0  0  0  0
  -24.6715  -15.8581   20.4832 H   0  0  0  0  0  0
  -26.3056  -15.6167   20.1208 H   0  0  0  0  0  0
  -26.7306  -32.5296   23.1022 H   0  0  0  0  0  0
  -25.0165  -33.9609   25.0379 H   0  0  0  0  0  0
  -22.7546  -31.2927   21.3826 H   0  0  0  0  0  0
  -23.3797  -35.9488   23.3207 H   0  0  0  0  0  0
  -24.3590  -36.8935   22.2071 H   0  0  0  0  0  0
  -23.7191  -37.6352   23.6726 H   0  0  0  0  0  0
  -26.1756  -31.4629   20.6267 H   0  0  0  0  0  0
  -26.8797  -30.7582   22.0440 H   0  0  0  0  0  0
  -28.1267  -28.7559   21.2788 H   0  0  0  0  0  0
  -25.8992  -25.8701   18.9580 H   0  0  0  0  0  0
  -23.9896  -27.3318   18.9438 H   0  0  0  0  0  0
  -23.8355  -30.5878   19.4109 H   0  0  0  0  0  0
  -22.7990  -29.2554   19.8234 H   0  0  0  0  0  0
  -25.1307  -36.1808   25.0806 H   0  0  0  0  0  0
  -20.9996  -28.3295   24.1356 H   0  0  0  0  0  0
  -20.5682  -26.2334   23.3637 H   0  0  0  0  0  0
  -21.6646  -26.7428   22.1194 H   0  0  0  0  0  0
  -19.6926  -25.6275   21.1269 H   0  0  0  0  0  0
  -19.6686  -27.3167   20.6737 H   0  0  0  0  0  0
  -17.4214  -26.6682   21.4003 H   0  0  0  0  0  0
  -18.0316  -26.0042   22.9004 H   0  0  0  0  0  0
  -19.7935  -30.7268   24.2263 H   0  0  0  0  0  0
  -17.5007  -31.6248   24.5158 H   0  0  0  0  0  0
  -15.5360  -30.2969   23.7648 H   0  0  0  0  0  0
  -15.8688  -28.0799   22.7102 H   0  0  0  0  0  0
  -24.5918  -30.7056   25.7716 H   0  0  0  0  0  0
  -24.8917  -32.2875   26.4829 H   0  0  0  0  0  0
  -25.8014  -30.8872   27.0221 H   0  0  0  0  0  0
  -26.3017  -29.6621   24.1355 H   0  0  0  0  0  0
  -27.4042  -29.7225   25.4888 H   0  0  0  0  0  0
  -27.8925  -30.4119   23.9618 H   0  0  0  0  0  0
  -27.2719  -33.3596   26.2044 H   0  0  0  0  0  0
  -28.3925  -32.6819   25.0339 H   0  0  0  0  0  0
  -28.0754  -31.8432   26.5448 H   0  0  0  0  0  0
  -28.2521  -38.0123   24.7632 H   0  0  0  0  0  0
  -28.1168  -36.2667   24.6105 H   0  0  0  0  0  0
  -27.2315  -37.1163   25.8849 H   0  0  0  0  0  0
  -20.9504  -29.8768   21.6786 H   0  0  0  0  0  0
  -26.0114  -38.2778   24.1529 H   0  0  0  0  0  0
  -29.1342  -23.6542   23.4100 H   0  0  0  0  0  0
  -30.2166  -24.4315   22.2409 H   0  0  0  0  0  0
  -30.7710  -23.0293   23.1610 H   0  0  0  0  0  0
  -26.1701  -18.6232   18.2104 H   0  0  0  0  0  0
  -26.3329  -18.9685   19.9244 H   0  0  0  0  0  0
  -27.4002  -17.8136   19.1125 H   0  0  0  0  0  0
  -30.9611  -16.6300   24.4456 H   0  0  0  0  0  0
  -31.8562  -16.8399   22.9415 H   0  0  0  0  0  0
  -31.7876  -15.2645   23.7380 H   0  0  0  0  0  0
  -28.6689  -19.5618   18.0046 H   0  0  0  0  0  0
  -27.2835  -20.5890   18.0026 H   0  0  0  0  0  0
  -30.2746  -18.7268   22.0939 H   0  0  0  0  0  0
  -31.0035  -18.8597   20.5472 H   0  0  0  0  0  0
  -27.3588  -24.6607   21.6368 H   0  0  0  0  0  0
  -26.8005  -24.3802   20.0573 H   0  0  0  0  0  0
  -29.0821  -16.4029   23.0533 H   0  0  0  0  0  0
  -29.6708  -14.7841   23.0202 H   0  0  0  0  0  0
  -29.5293  -17.1310   19.5572 H   0  0  0  0  0  0
  -28.4372  -17.2224   20.9255 H   0  0  0  0  0  0
  1 25  1  0  0  0
  1 30  2  0  0  0
  1 85  1  0  0  0
  2  3  1  0  0  0
  2 25  1  0  0  0
  2 86  1  0  0  0
  2 87  1  0  0  0
  3  4  1  0  0  0
  3 88  1  0  0  0
  3 89  1  0  0  0
  4  5  1  0  0  0
  4 90  1  0  0  0
  4 91  1  0  0  0
  5  6  1  0  0  0
  5 26  1  0  0  0
  5 92  1  0  0  0
  6 25  1  0  0  0
  6 93  1  0  0  0
  6 94  1  0  0  0
  7  8  2  0  0  0
  7 26  1  0  0  0
  7 29  1  0  0  0
  8  9  1  0  0  0
  8 22  1  0  0  0
  9 10  1  0  0  0
  9 27  2  0  0  0
 10 11  2  0  0  0
 10 15  1  0  0  0
 11 12  1  0  0  0
 11 95  1  0  0  0
 12 13  2  0  0  0
 12 96  1  0  0  0
 13 14  1  0  0  0
 13 31  1  0  0  0
 14 15  2  0  0  0
 14 97  1  0  0  0
 15 98  1  0  0  0
 16 17  2  0  0  0
 16 21  1  0  0  0
 16 31  1  0  0  0
 17 18  1  0  0  0
 17 99  1  0  0  0
 18 19  2  0  0  0
 18100  1  0  0  0
 19 20  1  0  0  0
 19 24  1  0  0  0
 20 21  2  0  0  0
 20101  1  0  0  0
 21 23  1  0  0  0
 22 28  1  0  0  0
 22 32  2  0  0  0
 26 27  1  0  0  0
 28102  1  0  0  0
 28103  1  0  0  0
 29104  1  0  0  0
 29105  1  0  0  0
 33 34  1  0  0  0
 33 66  1  0  0  0
 33 70  2  0  0  0
 34 36  1  0  0  0
 34 59  1  0  0  0
 34106  1  0  0  0
 35 44  2  0  0  0
 35 45  1  0  0  0
 35 68  1  0  0  0
 36 56  1  0  0  0
 36107  1  0  0  0
 37 39  1  0  0  0
 37 47  1  0  0  0
 37 66  1  0  0  0
 37108  1  0  0  0
 38 43  2  0  0  0
 38 46  1  0  0  0
 38 47  1  0  0  0
 39 64  1  0  0  0
 39 67  2  0  0  0
 40 52  1  0  0  0
 40 53  2  0  0  0
 40 58  1  0  0  0
 41109  1  0  0  0
 41110  1  0  0  0
 41111  1  0  0  0
 41 48  1  0  0  0
 42 43  1  0  0  0
 42 66  1  0  0  0
 42112  1  0  0  0
 42113  1  0  0  0
 43 44  1  0  0  0
 44114  1  0  0  0
 45 46  2  0  0  0
 45115  1  0  0  0
 46116  1  0  0  0
 47117  1  0  0  0
 47118  1  0  0  0
 48 56  1  0  0  0
 48 65  1  0  0  0
 48119  1  0  0  0
 49 50  1  0  0  0
 49 53  1  0  0  0
 49 64  1  0  0  0
 49120  1  0  0  0
 50 51  1  0  0  0
 50121  1  0  0  0
 50122  1  0  0  0
 51 52  1  0  0  0
 51123  1  0  0  0
 51124  1  0  0  0
 52125  1  0  0  0
 52126  1  0  0  0
 53 54  1  0  0  0
 54 55  2  0  0  0
 54127  1  0  0  0
 55 57  1  0  0  0
 55128  1  0  0  0
 56 69  2  0  0  0
 57 58  2  0  0  0
 57129  1  0  0  0
 58130  1  0  0  0
 59 60  1  0  0  0
 59 61  1  0  0  0
 59 62  1  0  0  0
 60131  1  0  0  0
 60132  1  0  0  0
 60133  1  0  0  0
 61134  1  0  0  0
 61135  1  0  0  0
 61136  1  0  0  0
 62137  1  0  0  0
 62138  1  0  0  0
 62139  1  0  0  0
 63 65  1  0  0  0
 63140  1  0  0  0
 63141  1  0  0  0
 63142  1  0  0  0
 64143  1  0  0  0
 65144  1  0  0  0
 68 80  1  0  0  0
 71 74  2  0  0  0
 71 75  1  0  0  0
 71 83  1  0  0  0
 72 73  1  0  0  0
 72 78  1  0  0  0
 72 84  2  0  0  0
 73 79  1  0  0  0
 73 83  2  0  0  0
 74 80  1  0  0  0
 74 84  1  0  0  0
 75145  1  0  0  0
 75146  1  0  0  0
 75147  1  0  0  0
 76 78  1  0  0  0
 76148  1  0  0  0
 76149  1  0  0  0
 76150  1  0  0  0
 77 81  1  0  0  0
 77151  1  0  0  0
 77152  1  0  0  0
 77153  1  0  0  0
 78154  1  0  0  0
 78155  1  0  0  0
 79 82  1  0  0  0
 79156  1  0  0  0
 79157  1  0  0  0
 80158  1  0  0  0
 80159  1  0  0  0
 81 85  1  0  0  0
 81160  1  0  0  0
 81161  1  0  0  0
 82 85  1  0  0  0
 82162  1  0  0  0
 82163  1  0  0  0
M  ISO  4   1 100  68 101  80 101  85 100
M  END
> <chiral flag>
0

> <version>
0

> <s_m_source_file>
/data/baiqing/PycharmProjects/Reinvent-master-3.2/result/LINK_invent/BTK/process_docking_weight1_custom_sum_contain_oxygen_bond_distance_aromatic_linkinvent_7_9_3/rearranged_h_0056.sdf

> <i_m_source_file_index>
29

> <r_mmod_Potential_Energy-OPLS-2005>
776.27783203125

> <r_mmod_Stretch_Energy-OPLS-2005>
255.265167236328

> <r_mmod_Bend_Energy-OPLS-2005>
306.384704589844

> <r_mmod_Torsional_Energy-OPLS-2005>
337.821350097656

> <r_mmod_Improper_Torsional_Energy-OPLS-2005>
5.21815824508667

> <r_mmod_Van_der_Waal_Energy-OPLS-2005>
135.119903564453

> <r_mmod_Electrostatic_Energy-OPLS-2005>
-218.452987670898

> <r_mmod_Solvation_Energy-OPLS-2005>
-205.117523193359

> <b_mmod_Minimization_Converged-OPLS-2005>
0

> <r_mmod_RMS_Derivative-OPLS-2005>
7.30016231536865

$$$$
31
                    3D
 Structure written by MMmdl.
164172  0  0  1  0            999 V2000
  -30.6791  -14.5412   20.6109 C   0  0  0  0  0  0
  -30.4311  -12.3613   19.4370 C   0  0  0  0  0  0
  -29.5009  -12.5265   18.2157 C   0  0  0  0  0  0
  -28.0230  -12.3658   18.6224 C   0  0  0  0  0  0
  -27.6583  -13.2105   19.8707 C   0  0  2  0  0  0
  -28.6946  -13.0038   20.9945 C   0  0  0  0  0  0
  -25.2573  -13.8166   20.5672 C   0  0  0  0  0  0
  -24.1831  -13.0438   20.9166 C   0  0  0  0  0  0
  -24.6390  -11.6906   20.8719 C   0  0  0  0  0  0
  -23.9057  -10.4293   21.0398 C   0  0  0  0  0  0
  -24.3610   -9.4210   21.9177 C   0  0  0  0  0  0
  -23.6287   -8.2246   22.0751 C   0  0  0  0  0  0
  -22.4270   -8.0281   21.3544 C   0  0  0  0  0  0
  -21.9902   -9.0252   20.4646 C   0  0  0  0  0  0
  -22.7228  -10.2132   20.3051 C   0  0  0  0  0  0
  -21.6851   -6.0735   22.5282 C   0  0  0  0  0  0
  -21.4015   -6.5639   23.8215 C   0  0  0  0  0  0
  -21.3659   -5.6792   24.9178 C   0  0  0  0  0  0
  -21.6044   -4.3055   24.7228 C   0  0  0  0  0  0
  -21.8818   -3.8146   23.4349 C   0  0  0  0  0  0
  -21.9192   -4.6962   22.3405 C   0  0  0  0  0  0
  -22.7855  -13.5235   21.1846 C   0  0  0  0  0  0
  -22.1659   -4.2149   21.0982 F   0  0  0  0  0  0
  -21.5629   -3.4538   25.7740 F   0  0  0  0  0  0
  -30.0255  -13.3457   20.4600 N   0  0  0  0  0  0
  -26.3000  -12.9337   20.3321 N   0  0  0  0  0  0
  -25.9313  -11.6494   20.5729 N   0  0  0  0  0  0
  -22.0499  -12.8231   22.0405 N   0  0  0  0  0  0
  -25.4302  -15.1883   20.4097 N   0  0  0  0  0  0
  -31.7513  -14.7712   20.0412 O   0  0  0  0  0  0
  -21.6636   -6.8877   21.4244 O   0  0  0  0  0  0
  -22.3539  -14.5544   20.6699 O   0  0  0  0  0  0
  -24.6211  -31.8622   23.2059 C   0  0  0  0  0  0
  -25.9079  -32.4790   23.8373 C   0  0  1  0  0  0
  -27.2353  -27.3679   20.0975 C   0  0  0  0  0  0
  -25.5921  -33.8590   24.2306 N   0  0  0  0  0  0
  -23.4119  -30.4856   21.5474 C   0  0  2  0  0  0
  -24.8572  -28.9424   20.1144 C   0  0  0  0  0  0
  -22.7438  -29.4630   22.4956 C   0  0  0  0  0  0
  -18.0283  -28.1365   22.8485 C   0  0  0  0  0  0
  -24.1488  -36.7300   23.2638 C   0  0  0  0  0  0
  -25.9477  -30.8060   21.3700 C   0  0  0  0  0  0
  -26.0213  -29.4366   20.7133 C   0  0  0  0  0  0
  -27.2081  -28.6577   20.6987 C   0  0  0  0  0  0
  -26.0385  -26.8987   19.5057 C   0  0  0  0  0  0
  -24.8644  -27.6757   19.5084 C   0  0  0  0  0  0
  -23.6241  -29.8184   20.1625 C   0  0  0  0  0  0
  -25.4111  -36.3096   24.0333 C   0  0  1  0  0  0
  -20.5875  -28.3663   23.1289 C   0  0  2  0  0  0
  -20.6766  -26.9394   22.5402 C   0  0  0  0  0  0
  -19.5746  -26.6371   21.5200 C   0  0  0  0  0  0
  -18.1927  -26.7913   22.1615 C   0  0  0  0  0  0
  -19.1533  -28.8831   23.2883 C   0  0  0  0  0  0
  -18.9461  -30.1436   23.8900 C   0  0  0  0  0  0
  -17.6461  -30.6574   24.0558 C   0  0  0  0  0  0
  -25.9037  -34.9457   23.5114 C   0  0  0  0  0  0
  -16.5350  -29.9072   23.6328 C   0  0  0  0  0  0
  -16.7269  -28.6483   23.0360 C   0  0  0  0  0  0
  -26.4489  -31.6593   25.0727 C   0  0  0  0  0  0
  -25.3744  -31.3707   26.1474 C   0  0  0  0  0  0
  -27.0331  -30.3030   24.6144 C   0  0  0  0  0  0
  -27.6060  -32.4327   25.7486 C   0  0  0  0  0  0
  -27.5581  -37.1808   24.8464 C   0  0  0  0  0  0
  -21.4159  -29.3031   22.3694 N   0  0  0  0  0  0
  -26.4295  -37.3784   23.9403 N   0  0  0  0  0  0
  -24.6788  -31.0671   22.0986 N   0  0  0  0  0  0
  -23.4182  -28.8169   23.3020 O   0  0  0  0  0  0
  -28.4129  -26.6212   20.1314 O   0  0  0  0  0  0
  -26.5593  -34.8916   22.4674 O   0  0  0  0  0  0
  -23.5387  -32.1402   23.7414 O   0  0  0  0  0  0
  -28.9502  -21.4092   20.4759 C   0  0  0  0  0  0
  -28.6002  -19.9024   21.8920 C   0  0  0  0  0  0
  -26.9934  -20.8449   24.6848 C   0  0  0  0  0  0
  -29.9851  -15.4816   22.7546 C   0  0  0  0  0  0
  -28.7839  -22.6866   19.6515 C   0  0  0  0  0  0
  -28.1979  -19.1626   23.1393 C   0  0  0  0  0  0
  -26.8661  -19.6095   23.7777 C   0  0  0  0  0  0
  -28.6122  -24.0548   20.4138 C   0  0  0  0  0  0
  -30.2915  -18.1397   21.0703 C   0  0  0  0  0  0
  -29.5250  -16.8145   20.6926 C   0  0  0  0  0  0
  -28.5480  -25.3201   19.4832 C   0  0  0  0  0  0
  -28.1991  -21.1417   21.5829 N   0  0  0  0  0  0
  -29.7446  -20.3908   20.0965 N   0  0  0  0  0  0
  -29.5063  -19.4083   21.0268 N   0  0  0  0  0  0
  -30.0186  -15.5293   21.2888 N   0  0  0  0  0  0
  -31.4735  -12.4802   19.1361 H   0  0  0  0  0  0
  -30.3554  -11.3502   19.8408 H   0  0  0  0  0  0
  -29.7573  -11.7999   17.4436 H   0  0  0  0  0  0
  -29.6519  -13.5112   17.7704 H   0  0  0  0  0  0
  -27.8473  -11.3088   18.8267 H   0  0  0  0  0  0
  -27.3713  -12.6257   17.7875 H   0  0  0  0  0  0
  -27.6988  -14.2577   19.5694 H   0  0  0  0  0  0
  -28.6880  -11.9661   21.3316 H   0  0  0  0  0  0
  -28.4119  -13.5905   21.8663 H   0  0  0  0  0  0
  -25.2758   -9.5689   22.4746 H   0  0  0  0  0  0
  -24.0000   -7.4638   22.7470 H   0  0  0  0  0  0
  -21.0833   -8.8768   19.8951 H   0  0  0  0  0  0
  -22.3685  -10.9668   19.6156 H   0  0  0  0  0  0
  -21.2008   -7.6147   23.9722 H   0  0  0  0  0  0
  -21.1482   -6.0520   25.9082 H   0  0  0  0  0  0
  -22.0597   -2.7608   23.2850 H   0  0  0  0  0  0
  -22.4109  -11.9885   22.4786 H   0  0  0  0  0  0
  -21.1120  -13.1264   22.2622 H   0  0  0  0  0  0
  -24.6655  -15.8457   20.5174 H   0  0  0  0  0  0
  -26.2889  -15.6256   20.1011 H   0  0  0  0  0  0
  -26.7136  -32.5473   23.1114 H   0  0  0  0  0  0
  -25.0123  -33.9733   25.0490 H   0  0  0  0  0  0
  -22.7043  -31.3045   21.4049 H   0  0  0  0  0  0
  -23.3751  -35.9633   23.3311 H   0  0  0  0  0  0
  -24.3577  -36.8907   22.2050 H   0  0  0  0  0  0
  -23.7240  -37.6505   23.6648 H   0  0  0  0  0  0
  -26.0735  -31.5712   20.6029 H   0  0  0  0  0  0
  -26.8306  -30.8538   21.9958 H   0  0  0  0  0  0
  -28.1067  -29.0382   21.1644 H   0  0  0  0  0  0
  -25.9680  -25.9243   19.0502 H   0  0  0  0  0  0
  -23.9656  -27.2853   19.0510 H   0  0  0  0  0  0
  -23.7406  -30.5944   19.4050 H   0  0  0  0  0  0
  -22.7465  -29.2436   19.8617 H   0  0  0  0  0  0
  -25.1290  -36.1959   25.0826 H   0  0  0  0  0  0
  -20.9962  -28.3233   24.1410 H   0  0  0  0  0  0
  -20.5664  -26.2271   23.3589 H   0  0  0  0  0  0
  -21.6636  -26.7418   22.1201 H   0  0  0  0  0  0
  -19.6904  -25.6282   21.1230 H   0  0  0  0  0  0
  -19.6693  -27.3178   20.6728 H   0  0  0  0  0  0
  -17.4196  -26.6664   21.4018 H   0  0  0  0  0  0
  -18.0333  -26.0043   22.9002 H   0  0  0  0  0  0
  -19.7936  -30.7244   24.2275 H   0  0  0  0  0  0
  -17.5019  -31.6262   24.5147 H   0  0  0  0  0  0
  -15.5352  -30.2979   23.7640 H   0  0  0  0  0  0
  -15.8669  -28.0791   22.7087 H   0  0  0  0  0  0
  -24.5925  -30.7038   25.7822 H   0  0  0  0  0  0
  -24.8921  -32.2857   26.4920 H   0  0  0  0  0  0
  -25.8095  -30.8889   27.0237 H   0  0  0  0  0  0
  -26.2881  -29.6782   24.1201 H   0  0  0  0  0  0
  -27.4089  -29.7285   25.4620 H   0  0  0  0  0  0
  -27.8727  -30.4343   23.9313 H   0  0  0  0  0  0
  -27.2678  -33.3626   26.2070 H   0  0  0  0  0  0
  -28.3862  -32.6890   25.0306 H   0  0  0  0  0  0
  -28.0740  -31.8452   26.5396 H   0  0  0  0  0  0
  -28.2608  -38.0101   24.7515 H   0  0  0  0  0  0
  -28.1074  -36.2631   24.6296 H   0  0  0  0  0  0
  -27.2293  -37.1464   25.8867 H   0  0  0  0  0  0
  -20.9326  -29.8770   21.6924 H   0  0  0  0  0  0
  -26.0187  -38.2860   24.1416 H   0  0  0  0  0  0
  -26.0275  -21.1154   25.1131 H   0  0  0  0  0  0
  -27.3620  -21.7123   24.1369 H   0  0  0  0  0  0
  -27.6803  -20.6580   25.5112 H   0  0  0  0  0  0
  -29.0344  -15.8522   23.1383 H   0  0  0  0  0  0
  -30.7867  -16.0853   23.1798 H   0  0  0  0  0  0
  -30.1195  -14.4693   23.1406 H   0  0  0  0  0  0
  -27.9292  -22.5435   18.9898 H   0  0  0  0  0  0
  -29.6488  -22.7704   18.9928 H   0  0  0  0  0  0
  -29.0126  -19.2205   23.8617 H   0  0  0  0  0  0
  -28.1005  -18.1086   22.8847 H   0  0  0  0  0  0
  -26.1113  -19.7701   23.0065 H   0  0  0  0  0  0
  -26.4917  -18.7920   24.3947 H   0  0  0  0  0  0
  -29.4392  -24.1754   21.1140 H   0  0  0  0  0  0
  -27.7071  -24.0099   21.0201 H   0  0  0  0  0  0
  -31.1675  -18.2468   20.4298 H   0  0  0  0  0  0
  -30.6863  -18.0662   22.0826 H   0  0  0  0  0  0
  -29.5051  -16.7223   19.6054 H   0  0  0  0  0  0
  -28.4783  -16.9082   20.9800 H   0  0  0  0  0  0
  -27.8308  -25.1611   18.6817 H   0  0  0  0  0  0
  -29.5003  -25.3722   18.9551 H   0  0  0  0  0  0
  1 25  1  0  0  0
  1 30  2  0  0  0
  1 85  1  0  0  0
  2  3  1  0  0  0
  2 25  1  0  0  0
  2 86  1  0  0  0
  2 87  1  0  0  0
  3  4  1  0  0  0
  3 88  1  0  0  0
  3 89  1  0  0  0
  4  5  1  0  0  0
  4 90  1  0  0  0
  4 91  1  0  0  0
  5  6  1  0  0  0
  5 26  1  0  0  0
  5 92  1  0  0  0
  6 25  1  0  0  0
  6 93  1  0  0  0
  6 94  1  0  0  0
  7  8  2  0  0  0
  7 26  1  0  0  0
  7 29  1  0  0  0
  8  9  1  0  0  0
  8 22  1  0  0  0
  9 10  1  0  0  0
  9 27  2  0  0  0
 10 11  2  0  0  0
 10 15  1  0  0  0
 11 12  1  0  0  0
 11 95  1  0  0  0
 12 13  2  0  0  0
 12 96  1  0  0  0
 13 14  1  0  0  0
 13 31  1  0  0  0
 14 15  2  0  0  0
 14 97  1  0  0  0
 15 98  1  0  0  0
 16 17  2  0  0  0
 16 21  1  0  0  0
 16 31  1  0  0  0
 17 18  1  0  0  0
 17 99  1  0  0  0
 18 19  2  0  0  0
 18100  1  0  0  0
 19 20  1  0  0  0
 19 24  1  0  0  0
 20 21  2  0  0  0
 20101  1  0  0  0
 21 23  1  0  0  0
 22 28  1  0  0  0
 22 32  2  0  0  0
 26 27  1  0  0  0
 28102  1  0  0  0
 28103  1  0  0  0
 29104  1  0  0  0
 29105  1  0  0  0
 33 34  1  0  0  0
 33 66  1  0  0  0
 33 70  2  0  0  0
 34 36  1  0  0  0
 34 59  1  0  0  0
 34106  1  0  0  0
 35 44  2  0  0  0
 35 45  1  0  0  0
 35 68  1  0  0  0
 36 56  1  0  0  0
 36107  1  0  0  0
 37 39  1  0  0  0
 37 47  1  0  0  0
 37 66  1  0  0  0
 37108  1  0  0  0
 38 43  2  0  0  0
 38 46  1  0  0  0
 38 47  1  0  0  0
 39 64  1  0  0  0
 39 67  2  0  0  0
 40 52  1  0  0  0
 40 53  2  0  0  0
 40 58  1  0  0  0
 41109  1  0  0  0
 41110  1  0  0  0
 41111  1  0  0  0
 41 48  1  0  0  0
 42 43  1  0  0  0
 42 66  1  0  0  0
 42112  1  0  0  0
 42113  1  0  0  0
 43 44  1  0  0  0
 44114  1  0  0  0
 45 46  2  0  0  0
 45115  1  0  0  0
 46116  1  0  0  0
 47117  1  0  0  0
 47118  1  0  0  0
 48 56  1  0  0  0
 48 65  1  0  0  0
 48119  1  0  0  0
 49 50  1  0  0  0
 49 53  1  0  0  0
 49 64  1  0  0  0
 49120  1  0  0  0
 50 51  1  0  0  0
 50121  1  0  0  0
 50122  1  0  0  0
 51 52  1  0  0  0
 51123  1  0  0  0
 51124  1  0  0  0
 52125  1  0  0  0
 52126  1  0  0  0
 53 54  1  0  0  0
 54 55  2  0  0  0
 54127  1  0  0  0
 55 57  1  0  0  0
 55128  1  0  0  0
 56 69  2  0  0  0
 57 58  2  0  0  0
 57129  1  0  0  0
 58130  1  0  0  0
 59 60  1  0  0  0
 59 61  1  0  0  0
 59 62  1  0  0  0
 60131  1  0  0  0
 60132  1  0  0  0
 60133  1  0  0  0
 61134  1  0  0  0
 61135  1  0  0  0
 61136  1  0  0  0
 62137  1  0  0  0
 62138  1  0  0  0
 62139  1  0  0  0
 63 65  1  0  0  0
 63140  1  0  0  0
 63141  1  0  0  0
 63142  1  0  0  0
 64143  1  0  0  0
 65144  1  0  0  0
 68 81  1  0  0  0
 71 75  1  0  0  0
 71 82  1  0  0  0
 71 83  2  0  0  0
 72 76  1  0  0  0
 72 82  2  0  0  0
 72 84  1  0  0  0
 73 77  1  0  0  0
 73145  1  0  0  0
 73146  1  0  0  0
 73147  1  0  0  0
 74 85  1  0  0  0
 74148  1  0  0  0
 74149  1  0  0  0
 74150  1  0  0  0
 75 78  1  0  0  0
 75151  1  0  0  0
 75152  1  0  0  0
 76 77  1  0  0  0
 76153  1  0  0  0
 76154  1  0  0  0
 77155  1  0  0  0
 77156  1  0  0  0
 78 81  1  0  0  0
 78157  1  0  0  0
 78158  1  0  0  0
 79 80  1  0  0  0
 79 84  1  0  0  0
 79159  1  0  0  0
 79160  1  0  0  0
 80 85  1  0  0  0
 80161  1  0  0  0
 80162  1  0  0  0
 81163  1  0  0  0
 81164  1  0  0  0
 83 84  1  0  0  0
M  ISO  4   1 100  68 101  81 101  85 100
M  END
> <chiral flag>
0

> <version>
0

> <s_m_source_file>
/data/baiqing/PycharmProjects/Reinvent-master-3.2/result/LINK_invent/BTK/process_docking_weight1_custom_sum_contain_oxygen_bond_distance_aromatic_linkinvent_7_9_3/rearranged_h_0056.sdf

> <i_m_source_file_index>
30

> <r_mmod_Potential_Energy-OPLS-2005>
105.026321411133

> <r_mmod_Stretch_Energy-OPLS-2005>
59.8792266845703

> <r_mmod_Bend_Energy-OPLS-2005>
131.930145263672

> <r_mmod_Torsional_Energy-OPLS-2005>
303.499725341797

> <r_mmod_Improper_Torsional_Energy-OPLS-2005>
4.90144395828247

> <r_mmod_Van_der_Waal_Energy-OPLS-2005>
118.557441711426

> <r_mmod_Electrostatic_Energy-OPLS-2005>
-322.470581054688

> <r_mmod_Solvation_Energy-OPLS-2005>
-214.607025146484

> <b_mmod_Minimization_Converged-OPLS-2005>
0

> <r_mmod_RMS_Derivative-OPLS-2005>
0.87434858083725

$$$$
32
                    3D
 Structure written by MMmdl.
160168  0  0  1  0            999 V2000
  -30.6682  -14.6215   20.5694 C   0  0  0  0  0  0
  -30.4313  -12.4010   19.4545 C   0  0  0  0  0  0
  -29.5071  -12.5258   18.2242 C   0  0  0  0  0  0
  -28.0312  -12.3527   18.6323 C   0  0  0  0  0  0
  -27.6525  -13.2178   19.8634 C   0  0  2  0  0  0
  -28.6892  -13.0511   20.9902 C   0  0  0  0  0  0
  -25.2547  -13.8176   20.5688 C   0  0  0  0  0  0
  -24.1816  -13.0444   20.9192 C   0  0  0  0  0  0
  -24.6388  -11.6918   20.8751 C   0  0  0  0  0  0
  -23.9058  -10.4302   21.0422 C   0  0  0  0  0  0
  -24.3629   -9.4220   21.9190 C   0  0  0  0  0  0
  -23.6313   -8.2251   22.0755 C   0  0  0  0  0  0
  -22.4291   -8.0285   21.3545 C   0  0  0  0  0  0
  -21.9923   -9.0249   20.4643 C   0  0  0  0  0  0
  -22.7241  -10.2132   20.3064 C   0  0  0  0  0  0
  -21.6852   -6.0752   22.5290 C   0  0  0  0  0  0
  -21.4012   -6.5647   23.8234 C   0  0  0  0  0  0
  -21.3667   -5.6792   24.9193 C   0  0  0  0  0  0
  -21.6056   -4.3053   24.7239 C   0  0  0  0  0  0
  -21.8818   -3.8159   23.4348 C   0  0  0  0  0  0
  -21.9191   -4.6978   22.3409 C   0  0  0  0  0  0
  -22.7834  -13.5231   21.1845 C   0  0  0  0  0  0
  -22.1650   -4.2170   21.0985 F   0  0  0  0  0  0
  -21.5636   -3.4536   25.7745 F   0  0  0  0  0  0
  -30.0092  -13.4174   20.4463 N   0  0  0  0  0  0
  -26.2974  -12.9358   20.3306 N   0  0  0  0  0  0
  -25.9312  -11.6516   20.5753 N   0  0  0  0  0  0
  -22.0438  -12.8262   22.0404 N   0  0  0  0  0  0
  -25.4268  -15.1898   20.4121 N   0  0  0  0  0  0
  -31.7778  -14.7778   20.0471 O   0  0  0  0  0  0
  -21.6638   -6.8890   21.4255 O   0  0  0  0  0  0
  -22.3539  -14.5536   20.6664 O   0  0  0  0  0  0
  -24.6257  -31.8605   23.2053 C   0  0  0  0  0  0
  -25.9114  -32.4779   23.8369 C   0  0  1  0  0  0
  -27.2165  -27.3248   20.1160 C   0  0  0  0  0  0
  -25.5940  -33.8579   24.2303 N   0  0  0  0  0  0
  -23.4171  -30.4864   21.5480 C   0  0  2  0  0  0
  -24.8612  -28.9431   20.1131 C   0  0  0  0  0  0
  -22.7469  -29.4635   22.4956 C   0  0  0  0  0  0
  -18.0288  -28.1358   22.8497 C   0  0  0  0  0  0
  -24.1491  -36.7294   23.2638 C   0  0  0  0  0  0
  -25.9588  -30.7929   21.3750 C   0  0  0  0  0  0
  -26.0309  -29.4212   20.7167 C   0  0  0  0  0  0
  -27.2127  -28.6240   20.7072 C   0  0  0  0  0  0
  -26.0267  -26.9045   19.4788 C   0  0  0  0  0  0
  -24.8609  -27.6895   19.4852 C   0  0  0  0  0  0
  -23.6295  -29.8224   20.1628 C   0  0  0  0  0  0
  -25.4113  -36.3079   24.0331 C   0  0  1  0  0  0
  -20.5893  -28.3662   23.1292 C   0  0  2  0  0  0
  -20.6782  -26.9390   22.5406 C   0  0  0  0  0  0
  -19.5756  -26.6368   21.5212 C   0  0  0  0  0  0
  -18.1933  -26.7910   22.1621 C   0  0  0  0  0  0
  -19.1542  -28.8828   23.2891 C   0  0  0  0  0  0
  -18.9461  -30.1436   23.8898 C   0  0  0  0  0  0
  -17.6459  -30.6570   24.0551 C   0  0  0  0  0  0
  -25.9045  -34.9447   23.5109 C   0  0  0  0  0  0
  -16.5352  -29.9059   23.6326 C   0  0  0  0  0  0
  -16.7277  -28.6471   23.0364 C   0  0  0  0  0  0
  -26.4503  -31.6588   25.0733 C   0  0  0  0  0  0
  -25.3760  -31.3719   26.1479 C   0  0  0  0  0  0
  -27.0345  -30.3019   24.6168 C   0  0  0  0  0  0
  -27.6056  -32.4334   25.7505 C   0  0  0  0  0  0
  -27.5580  -37.1803   24.8461 C   0  0  0  0  0  0
  -21.4187  -29.3031   22.3696 N   0  0  0  0  0  0
  -26.4289  -37.3775   23.9407 N   0  0  0  0  0  0
  -24.6858  -31.0636   22.0989 N   0  0  0  0  0  0
  -23.4207  -28.8166   23.3017 O   0  0  0  0  0  0
  -28.3378  -26.4850   20.1459 O   0  0  0  0  0  0
  -26.5601  -34.8910   22.4668 O   0  0  0  0  0  0
  -23.5431  -32.1387   23.7406 O   0  0  0  0  0  0
  -29.7950  -20.6478   21.6516 C   0  0  0  0  0  0
  -29.2631  -19.7370   20.6968 C   0  0  0  0  0  0
  -29.2199  -22.5218   20.3496 C   0  0  0  0  0  0
  -28.6605  -21.6079   19.4012 C   0  0  0  0  0  0
  -26.4017  -21.9924   18.3408 C   0  0  0  0  0  0
  -29.7029  -15.6792   22.5350 C   0  0  0  0  0  0
  -29.0917  -18.2055   21.0004 C   0  0  0  0  0  0
  -29.3560  -24.0761   20.1246 C   0  0  0  0  0  0
  -27.9233  -22.0749   18.1567 C   0  0  0  0  0  0
  -30.2119  -17.1377   20.6172 C   0  0  0  0  0  0
  -28.1184  -25.0325   20.3507 C   0  0  0  0  0  0
  -29.7841  -22.0072   21.4799 N   0  0  0  0  0  0
  -28.6965  -20.2452   19.5673 N   0  0  0  0  0  0
  -29.9949  -15.7105   21.0949 N   0  0  0  0  0  0
  -31.4741  -12.5126   19.1527 H   0  0  0  0  0  0
  -30.3601  -11.3991   19.8823 H   0  0  0  0  0  0
  -29.7796  -11.7885   17.4681 H   0  0  0  0  0  0
  -29.6450  -13.5029   17.7595 H   0  0  0  0  0  0
  -27.8760  -11.2972   18.8631 H   0  0  0  0  0  0
  -27.3766  -12.5807   17.7913 H   0  0  0  0  0  0
  -27.6790  -14.2594   19.5428 H   0  0  0  0  0  0
  -28.7039  -12.0186   21.3411 H   0  0  0  0  0  0
  -28.3898  -13.6391   21.8519 H   0  0  0  0  0  0
  -25.2776   -9.5714   22.4767 H   0  0  0  0  0  0
  -24.0038   -7.4648   22.7479 H   0  0  0  0  0  0
  -21.0847   -8.8762   19.8947 H   0  0  0  0  0  0
  -22.3691  -10.9675   19.6186 H   0  0  0  0  0  0
  -21.1993   -7.6150   23.9747 H   0  0  0  0  0  0
  -21.1489   -6.0512   25.9099 H   0  0  0  0  0  0
  -22.0588   -2.7620   23.2835 H   0  0  0  0  0  0
  -22.3990  -11.9956   22.4898 H   0  0  0  0  0  0
  -21.1037  -13.1318   22.2493 H   0  0  0  0  0  0
  -24.6649  -15.8487   20.5296 H   0  0  0  0  0  0
  -26.2895  -15.6286   20.1160 H   0  0  0  0  0  0
  -26.7183  -32.5452   23.1117 H   0  0  0  0  0  0
  -25.0125  -33.9729   25.0474 H   0  0  0  0  0  0
  -22.7100  -31.3065   21.4074 H   0  0  0  0  0  0
  -23.3746  -35.9635   23.3298 H   0  0  0  0  0  0
  -24.3581  -36.8912   22.2051 H   0  0  0  0  0  0
  -23.7254  -37.6500   23.6659 H   0  0  0  0  0  0
  -26.0921  -31.5575   20.6084 H   0  0  0  0  0  0
  -26.8390  -30.8383   22.0045 H   0  0  0  0  0  0
  -28.1119  -28.9869   21.1848 H   0  0  0  0  0  0
  -25.9680  -25.9647   18.9546 H   0  0  0  0  0  0
  -23.9673  -27.3210   19.0001 H   0  0  0  0  0  0
  -23.7453  -30.5974   19.4042 H   0  0  0  0  0  0
  -22.7491  -29.2494   19.8646 H   0  0  0  0  0  0
  -25.1300  -36.1920   25.0825 H   0  0  0  0  0  0
  -20.9991  -28.3215   24.1411 H   0  0  0  0  0  0
  -20.5680  -26.2266   23.3593 H   0  0  0  0  0  0
  -21.6647  -26.7415   22.1197 H   0  0  0  0  0  0
  -19.6905  -25.6279   21.1232 H   0  0  0  0  0  0
  -19.6689  -27.3184   20.6745 H   0  0  0  0  0  0
  -17.4210  -26.6678   21.4013 H   0  0  0  0  0  0
  -18.0318  -26.0037   22.8999 H   0  0  0  0  0  0
  -19.7936  -30.7259   24.2265 H   0  0  0  0  0  0
  -17.5007  -31.6257   24.5137 H   0  0  0  0  0  0
  -15.5351  -30.2953   23.7646 H   0  0  0  0  0  0
  -15.8684  -28.0776   22.7091 H   0  0  0  0  0  0
  -24.5899  -30.7107   25.7814 H   0  0  0  0  0  0
  -24.9004  -32.2891   26.4964 H   0  0  0  0  0  0
  -25.8106  -30.8845   27.0216 H   0  0  0  0  0  0
  -26.2907  -29.6772   24.1207 H   0  0  0  0  0  0
  -27.4068  -29.7267   25.4653 H   0  0  0  0  0  0
  -27.8769  -30.4316   23.9371 H   0  0  0  0  0  0
  -27.2639  -33.3609   26.2116 H   0  0  0  0  0  0
  -28.3849  -32.6944   25.0333 H   0  0  0  0  0  0
  -28.0748  -31.8450   26.5399 H   0  0  0  0  0  0
  -28.2595  -38.0103   24.7515 H   0  0  0  0  0  0
  -28.1081  -36.2634   24.6282 H   0  0  0  0  0  0
  -27.2300  -37.1451   25.8865 H   0  0  0  0  0  0
  -20.9348  -29.8764   21.6926 H   0  0  0  0  0  0
  -26.0163  -38.2847   24.1410 H   0  0  0  0  0  0
  -30.1953  -20.2879   22.5889 H   0  0  0  0  0  0
  -25.8791  -22.3103   17.4394 H   0  0  0  0  0  0
  -26.0680  -22.6264   19.1631 H   0  0  0  0  0  0
  -26.0903  -20.9704   18.5609 H   0  0  0  0  0  0
  -30.2303  -16.4733   23.0654 H   0  0  0  0  0  0
  -30.0002  -14.7446   23.0152 H   0  0  0  0  0  0
  -28.6345  -15.8153   22.7065 H   0  0  0  0  0  0
  -28.1557  -17.8890   20.5390 H   0  0  0  0  0  0
  -28.9004  -18.1548   22.0715 H   0  0  0  0  0  0
  -29.7255  -24.2295   19.1112 H   0  0  0  0  0  0
  -30.1654  -24.4306   20.7645 H   0  0  0  0  0  0
  -28.2253  -21.4522   17.3146 H   0  0  0  0  0  0
  -28.2036  -23.0917   17.8888 H   0  0  0  0  0  0
  -31.1695  -17.4753   21.0154 H   0  0  0  0  0  0
  -30.3269  -17.1343   19.5310 H   0  0  0  0  0  0
  -27.7507  -24.8951   21.3681 H   0  0  0  0  0  0
  -27.3369  -24.6511   19.7014 H   0  0  0  0  0  0
  1 25  1  0  0  0
  1 30  2  0  0  0
  1 84  1  0  0  0
  2  3  1  0  0  0
  2 25  1  0  0  0
  2 85  1  0  0  0
  2 86  1  0  0  0
  3  4  1  0  0  0
  3 87  1  0  0  0
  3 88  1  0  0  0
  4  5  1  0  0  0
  4 89  1  0  0  0
  4 90  1  0  0  0
  5  6  1  0  0  0
  5 26  1  0  0  0
  5 91  1  0  0  0
  6 25  1  0  0  0
  6 92  1  0  0  0
  6 93  1  0  0  0
  7  8  2  0  0  0
  7 26  1  0  0  0
  7 29  1  0  0  0
  8  9  1  0  0  0
  8 22  1  0  0  0
  9 10  1  0  0  0
  9 27  2  0  0  0
 10 11  2  0  0  0
 10 15  1  0  0  0
 11 12  1  0  0  0
 11 94  1  0  0  0
 12 13  2  0  0  0
 12 95  1  0  0  0
 13 14  1  0  0  0
 13 31  1  0  0  0
 14 15  2  0  0  0
 14 96  1  0  0  0
 15 97  1  0  0  0
 16 17  2  0  0  0
 16 21  1  0  0  0
 16 31  1  0  0  0
 17 18  1  0  0  0
 17 98  1  0  0  0
 18 19  2  0  0  0
 18 99  1  0  0  0
 19 20  1  0  0  0
 19 24  1  0  0  0
 20 21  2  0  0  0
 20100  1  0  0  0
 21 23  1  0  0  0
 22 28  1  0  0  0
 22 32  2  0  0  0
 26 27  1  0  0  0
 28101  1  0  0  0
 28102  1  0  0  0
 29103  1  0  0  0
 29104  1  0  0  0
 33 34  1  0  0  0
 33 66  1  0  0  0
 33 70  2  0  0  0
 34 36  1  0  0  0
 34 59  1  0  0  0
 34105  1  0  0  0
 35 44  2  0  0  0
 35 45  1  0  0  0
 35 68  1  0  0  0
 36 56  1  0  0  0
 36106  1  0  0  0
 37 39  1  0  0  0
 37 47  1  0  0  0
 37 66  1  0  0  0
 37107  1  0  0  0
 38 43  2  0  0  0
 38 46  1  0  0  0
 38 47  1  0  0  0
 39 64  1  0  0  0
 39 67  2  0  0  0
 40 52  1  0  0  0
 40 53  2  0  0  0
 40 58  1  0  0  0
 41108  1  0  0  0
 41109  1  0  0  0
 41110  1  0  0  0
 41 48  1  0  0  0
 42 43  1  0  0  0
 42 66  1  0  0  0
 42111  1  0  0  0
 42112  1  0  0  0
 43 44  1  0  0  0
 44113  1  0  0  0
 45 46  2  0  0  0
 45114  1  0  0  0
 46115  1  0  0  0
 47116  1  0  0  0
 47117  1  0  0  0
 48 56  1  0  0  0
 48 65  1  0  0  0
 48118  1  0  0  0
 49 50  1  0  0  0
 49 53  1  0  0  0
 49 64  1  0  0  0
 49119  1  0  0  0
 50 51  1  0  0  0
 50120  1  0  0  0
 50121  1  0  0  0
 51 52  1  0  0  0
 51122  1  0  0  0
 51123  1  0  0  0
 52124  1  0  0  0
 52125  1  0  0  0
 53 54  1  0  0  0
 54 55  2  0  0  0
 54126  1  0  0  0
 55 57  1  0  0  0
 55127  1  0  0  0
 56 69  2  0  0  0
 57 58  2  0  0  0
 57128  1  0  0  0
 58129  1  0  0  0
 59 60  1  0  0  0
 59 61  1  0  0  0
 59 62  1  0  0  0
 60130  1  0  0  0
 60131  1  0  0  0
 60132  1  0  0  0
 61133  1  0  0  0
 61134  1  0  0  0
 61135  1  0  0  0
 62136  1  0  0  0
 62137  1  0  0  0
 62138  1  0  0  0
 63 65  1  0  0  0
 63139  1  0  0  0
 63140  1  0  0  0
 63141  1  0  0  0
 64142  1  0  0  0
 65143  1  0  0  0
 68 81  1  0  0  0
 71 72  2  0  0  0
 71 82  1  0  0  0
 71144  1  0  0  0
 72 77  1  0  0  0
 72 83  1  0  0  0
 73 74  1  0  0  0
 73 78  1  0  0  0
 73 82  2  0  0  0
 74 79  1  0  0  0
 74 83  2  0  0  0
 75 79  1  0  0  0
 75145  1  0  0  0
 75146  1  0  0  0
 75147  1  0  0  0
 76 84  1  0  0  0
 76148  1  0  0  0
 76149  1  0  0  0
 76150  1  0  0  0
 77 80  1  0  0  0
 77151  1  0  0  0
 77152  1  0  0  0
 78 81  1  0  0  0
 78153  1  0  0  0
 78154  1  0  0  0
 79155  1  0  0  0
 79156  1  0  0  0
 80 84  1  0  0  0
 80157  1  0  0  0
 80158  1  0  0  0
 81159  1  0  0  0
 81160  1  0  0  0
M  ISO  4   1 100  68 101  81 101  84 100
M  END
> <chiral flag>
0

> <version>
0

> <s_m_source_file>
/data/baiqing/PycharmProjects/Reinvent-master-3.2/result/LINK_invent/BTK/process_docking_weight1_custom_sum_contain_oxygen_bond_distance_aromatic_linkinvent_7_9_3/rearranged_h_0056.sdf

> <i_m_source_file_index>
31

> <r_mmod_Potential_Energy-OPLS-2005>
224.549850463867

> <r_mmod_Stretch_Energy-OPLS-2005>
86.3161315917969

> <r_mmod_Bend_Energy-OPLS-2005>
139.385833740234

> <r_mmod_Torsional_Energy-OPLS-2005>
259.523590087891

> <r_mmod_Improper_Torsional_Energy-OPLS-2005>
8.61165046691895

> <r_mmod_Van_der_Waal_Energy-OPLS-2005>
152.182769775391

> <r_mmod_Electrostatic_Energy-OPLS-2005>
-251.846115112305

> <r_mmod_Solvation_Energy-OPLS-2005>
-211.372283935547

> <b_mmod_Minimization_Converged-OPLS-2005>
0

> <r_mmod_RMS_Derivative-OPLS-2005>
1.88260293006897

$$$$
33
                    3D
 Structure written by MMmdl.
153161  0  0  1  0            999 V2000
  -30.4638  -15.0517   20.3431 C   0  0  0  0  0  0
  -30.4826  -12.6478   19.4748 C   0  0  0  0  0  0
  -29.5341  -12.4878   18.2561 C   0  0  0  0  0  0
  -28.0578  -12.2822   18.6752 C   0  0  0  0  0  0
  -27.6327  -13.1831   19.8621 C   0  0  2  0  0  0
  -28.7189  -13.1784   20.9657 C   0  0  0  0  0  0
  -25.2409  -13.7942   20.5644 C   0  0  0  0  0  0
  -24.1728  -13.0266   20.9270 C   0  0  0  0  0  0
  -24.6326  -11.6759   20.8863 C   0  0  0  0  0  0
  -23.9002  -10.4190   21.0477 C   0  0  0  0  0  0
  -24.3569   -9.4113   21.9236 C   0  0  0  0  0  0
  -23.6248   -8.2156   22.0770 C   0  0  0  0  0  0
  -22.4237   -8.0223   21.3544 C   0  0  0  0  0  0
  -21.9872   -9.0199   20.4650 C   0  0  0  0  0  0
  -22.7199  -10.2073   20.3087 C   0  0  0  0  0  0
  -21.6823   -6.0707   22.5281 C   0  0  0  0  0  0
  -21.3991   -6.5621   23.8212 C   0  0  0  0  0  0
  -21.3652   -5.6781   24.9179 C   0  0  0  0  0  0
  -21.6045   -4.3044   24.7233 C   0  0  0  0  0  0
  -21.8822   -3.8131   23.4356 C   0  0  0  0  0  0
  -21.9183   -4.6941   22.3408 C   0  0  0  0  0  0
  -22.7763  -13.5119   21.1882 C   0  0  0  0  0  0
  -22.1658   -4.2129   21.0986 F   0  0  0  0  0  0
  -21.5635   -3.4532   25.7748 F   0  0  0  0  0  0
  -29.9528  -13.7299   20.3609 N   0  0  0  0  0  0
  -26.2893  -12.9081   20.3461 N   0  0  0  0  0  0
  -25.9263  -11.6291   20.5962 N   0  0  0  0  0  0
  -22.0387  -12.8163   22.0455 N   0  0  0  0  0  0
  -25.3781  -15.1644   20.3715 N   0  0  0  0  0  0
  -31.6944  -15.1069   20.2029 O   0  0  0  0  0  0
  -21.6595   -6.8834   21.4238 O   0  0  0  0  0  0
  -22.3490  -14.5438   20.6712 O   0  0  0  0  0  0
  -24.6415  -31.8444   23.1879 C   0  0  0  0  0  0
  -25.9190  -32.4700   23.8272 C   0  0  1  0  0  0
  -27.2458  -27.1614   20.1497 C   0  0  0  0  0  0
  -25.5941  -33.8505   24.2190 N   0  0  0  0  0  0
  -23.4464  -30.4606   21.5323 C   0  0  2  0  0  0
  -24.9023  -28.8871   20.1117 C   0  0  0  0  0  0
  -22.7563  -29.4542   22.4865 C   0  0  0  0  0  0
  -18.0303  -28.1395   22.8478 C   0  0  0  0  0  0
  -24.1490  -36.7259   23.2643 C   0  0  0  0  0  0
  -25.9998  -30.7259   21.3838 C   0  0  0  0  0  0
  -26.0765  -29.3378   20.7274 C   0  0  0  0  0  0
  -27.2458  -28.4913   20.7293 C   0  0  0  0  0  0
  -26.0423  -26.8040   19.4985 C   0  0  0  0  0  0
  -24.8967  -27.6319   19.4828 C   0  0  0  0  0  0
  -23.6742  -29.7840   20.1536 C   0  0  0  0  0  0
  -25.4122  -36.3036   24.0317 C   0  0  1  0  0  0
  -20.5915  -28.3719   23.1240 C   0  0  2  0  0  0
  -20.6786  -26.9423   22.5407 C   0  0  0  0  0  0
  -19.5761  -26.6381   21.5213 C   0  0  0  0  0  0
  -18.1942  -26.7934   22.1624 C   0  0  0  0  0  0
  -19.1559  -28.8875   23.2851 C   0  0  0  0  0  0
  -18.9476  -30.1472   23.8876 C   0  0  0  0  0  0
  -17.6473  -30.6592   24.0559 C   0  0  0  0  0  0
  -25.9069  -34.9410   23.5064 C   0  0  0  0  0  0
  -16.5364  -29.9084   23.6336 C   0  0  0  0  0  0
  -16.7288  -28.6503   23.0357 C   0  0  0  0  0  0
  -26.4520  -31.6566   25.0709 C   0  0  0  0  0  0
  -25.3709  -31.3749   26.1406 C   0  0  0  0  0  0
  -27.0389  -30.2967   24.6279 C   0  0  0  0  0  0
  -27.6048  -32.4334   25.7497 C   0  0  0  0  0  0
  -27.5575  -37.1786   24.8466 C   0  0  0  0  0  0
  -21.4256  -29.3044   22.3613 N   0  0  0  0  0  0
  -26.4287  -37.3747   23.9407 N   0  0  0  0  0  0
  -24.7153  -31.0311   22.0904 N   0  0  0  0  0  0
  -23.4207  -28.8099   23.3022 O   0  0  0  0  0  0
  -28.3274  -26.2097   20.2266 O   0  0  0  0  0  0
  -26.5658  -34.8907   22.4644 O   0  0  0  0  0  0
  -23.5536  -32.1310   23.7106 O   0  0  0  0  0  0
  -29.0366  -19.1551   20.7019 C   0  0  0  0  0  0
  -29.5509  -20.3940   20.2878 C   0  0  0  0  0  0
  -28.2651  -16.3940   21.0244 C   0  0  0  0  0  0
  -28.7777  -21.8188   19.9936 C   0  0  0  0  0  0
  -29.1436  -23.4046   20.3950 C   0  0  0  0  0  0
  -28.1195  -24.6879   20.0098 C   0  0  0  0  0  0
  -29.5417  -16.4907   20.1534 C   0  0  2  0  0  0
  -29.2126  -16.5405   18.6113 C   0  0  0  0  0  0
  -30.8139  -19.9921   19.8012 N   0  0  0  0  0  0
  -31.0141  -18.6682   19.8734 N   0  0  0  0  0  0
  -29.9144  -18.0367   20.3937 N   0  0  0  0  0  0
  -28.6660  -15.4438   18.1160 F   0  0  0  0  0  0
  -28.3657  -17.5303   18.3129 F   0  0  0  0  0  0
  -30.3264  -16.7318   17.9007 F   0  0  0  0  0  0
  -31.4888  -12.8764   19.1203 H   0  0  0  0  0  0
  -30.5790  -11.7059   20.0175 H   0  0  0  0  0  0
  -29.8594  -11.6438   17.6466 H   0  0  0  0  0  0
  -29.6244  -13.3561   17.6065 H   0  0  0  0  0  0
  -27.9447  -11.2366   18.9639 H   0  0  0  0  0  0
  -27.3947  -12.4329   17.8225 H   0  0  0  0  0  0
  -27.5488  -14.1725   19.4544 H   0  0  0  0  0  0
  -28.8752  -12.1542   21.3083 H   0  0  0  0  0  0
  -28.4425  -13.6950   21.8827 H   0  0  0  0  0  0
  -25.2708   -9.5585   22.4821 H   0  0  0  0  0  0
  -23.9948   -7.4534   22.7479 H   0  0  0  0  0  0
  -21.0808   -8.8722   19.8947 H   0  0  0  0  0  0
  -22.3676  -10.9627   19.6203 H   0  0  0  0  0  0
  -21.1973   -7.6128   23.9708 H   0  0  0  0  0  0
  -21.1477   -6.0514   25.9081 H   0  0  0  0  0  0
  -22.0612   -2.7594   23.2862 H   0  0  0  0  0  0
  -22.3976  -11.9825   22.4868 H   0  0  0  0  0  0
  -21.1016  -13.1228   22.2652 H   0  0  0  0  0  0
  -24.5806  -15.7861   20.4485 H   0  0  0  0  0  0
  -26.1837  -15.6052   19.9527 H   0  0  0  0  0  0
  -26.7259  -32.5320   23.1007 H   0  0  0  0  0  0
  -25.0063  -33.9621   25.0321 H   0  0  0  0  0  0
  -22.7483  -31.2854   21.3748 H   0  0  0  0  0  0
  -23.3756  -35.9587   23.3295 H   0  0  0  0  0  0
  -24.3575  -36.8902   22.2060 H   0  0  0  0  0  0
  -23.7242  -37.6451   23.6687 H   0  0  0  0  0  0
  -26.1509  -31.4807   20.6109 H   0  0  0  0  0  0
  -26.8712  -30.7791   22.0249 H   0  0  0  0  0  0
  -28.1401  -28.8346   21.2303 H   0  0  0  0  0  0
  -25.9581  -25.8438   19.0117 H   0  0  0  0  0  0
  -24.0006  -27.2800   18.9904 H   0  0  0  0  0  0
  -23.8059  -30.5557   19.3943 H   0  0  0  0  0  0
  -22.7916  -29.2202   19.8464 H   0  0  0  0  0  0
  -25.1311  -36.1865   25.0809 H   0  0  0  0  0  0
  -21.0006  -28.3308   24.1362 H   0  0  0  0  0  0
  -20.5678  -26.2332   23.3625 H   0  0  0  0  0  0
  -21.6653  -26.7427   22.1206 H   0  0  0  0  0  0
  -19.6922  -25.6286   21.1257 H   0  0  0  0  0  0
  -19.6699  -27.3179   20.6733 H   0  0  0  0  0  0
  -17.4211  -26.6678   21.4028 H   0  0  0  0  0  0
  -18.0342  -26.0081   22.9026 H   0  0  0  0  0  0
  -19.7952  -30.7294   24.2236 H   0  0  0  0  0  0
  -17.5026  -31.6270   24.5164 H   0  0  0  0  0  0
  -15.5363  -30.2979   23.7671 H   0  0  0  0  0  0
  -15.8689  -28.0814   22.7085 H   0  0  0  0  0  0
  -24.5895  -30.7090   25.7726 H   0  0  0  0  0  0
  -24.8890  -32.2929   26.4780 H   0  0  0  0  0  0
  -25.7996  -30.8956   27.0217 H   0  0  0  0  0  0
  -26.3006  -29.6687   24.1280 H   0  0  0  0  0  0
  -27.4005  -29.7267   25.4848 H   0  0  0  0  0  0
  -27.8909  -30.4211   23.9592 H   0  0  0  0  0  0
  -27.2638  -33.3652   26.2021 H   0  0  0  0  0  0
  -28.3888  -32.6868   25.0347 H   0  0  0  0  0  0
  -28.0685  -31.8496   26.5458 H   0  0  0  0  0  0
  -28.2587  -38.0087   24.7509 H   0  0  0  0  0  0
  -28.1076  -36.2616   24.6297 H   0  0  0  0  0  0
  -27.2292  -37.1438   25.8869 H   0  0  0  0  0  0
  -20.9469  -29.8748   21.6783 H   0  0  0  0  0  0
  -26.0155  -38.2816   24.1408 H   0  0  0  0  0  0
  -28.0255  -18.9917   21.0474 H   0  0  0  0  0  0
  -27.4628  -17.0054   20.6171 H   0  0  0  0  0  0
  -28.4628  -16.7284   22.0432 H   0  0  0  0  0  0
  -27.8136  -15.4364   21.1220 H   0  0  0  0  0  0
  -27.7667  -21.6831   20.3782 H   0  0  0  0  0  0
  -28.6230  -21.8477   18.9148 H   0  0  0  0  0  0
  -30.1171  -23.6259   19.9579 H   0  0  0  0  0  0
  -29.3037  -23.4352   21.4726 H   0  0  0  0  0  0
  -27.1747  -24.4512   20.5003 H   0  0  0  0  0  0
  -27.9142  -24.5849   18.9440 H   0  0  0  0  0  0
  1 25  1  0  0  0
  1 30  2  0  0  0
  1 77  1  0  0  0
  2  3  1  0  0  0
  2 25  1  0  0  0
  2 85  1  0  0  0
  2 86  1  0  0  0
  3  4  1  0  0  0
  3 87  1  0  0  0
  3 88  1  0  0  0
  4  5  1  0  0  0
  4 89  1  0  0  0
  4 90  1  0  0  0
  5  6  1  0  0  0
  5 26  1  0  0  0
  5 91  1  0  0  0
  6 25  1  0  0  0
  6 92  1  0  0  0
  6 93  1  0  0  0
  7  8  2  0  0  0
  7 26  1  0  0  0
  7 29  1  0  0  0
  8  9  1  0  0  0
  8 22  1  0  0  0
  9 10  1  0  0  0
  9 27  2  0  0  0
 10 11  2  0  0  0
 10 15  1  0  0  0
 11 12  1  0  0  0
 11 94  1  0  0  0
 12 13  2  0  0  0
 12 95  1  0  0  0
 13 14  1  0  0  0
 13 31  1  0  0  0
 14 15  2  0  0  0
 14 96  1  0  0  0
 15 97  1  0  0  0
 16 17  2  0  0  0
 16 21  1  0  0  0
 16 31  1  0  0  0
 17 18  1  0  0  0
 17 98  1  0  0  0
 18 19  2  0  0  0
 18 99  1  0  0  0
 19 20  1  0  0  0
 19 24  1  0  0  0
 20 21  2  0  0  0
 20100  1  0  0  0
 21 23  1  0  0  0
 22 28  1  0  0  0
 22 32  2  0  0  0
 26 27  1  0  0  0
 28101  1  0  0  0
 28102  1  0  0  0
 29103  1  0  0  0
 29104  1  0  0  0
 33 34  1  0  0  0
 33 66  1  0  0  0
 33 70  2  0  0  0
 34 36  1  0  0  0
 34 59  1  0  0  0
 34105  1  0  0  0
 35 44  2  0  0  0
 35 45  1  0  0  0
 35 68  1  0  0  0
 36 56  1  0  0  0
 36106  1  0  0  0
 37 39  1  0  0  0
 37 47  1  0  0  0
 37 66  1  0  0  0
 37107  1  0  0  0
 38 43  2  0  0  0
 38 46  1  0  0  0
 38 47  1  0  0  0
 39 64  1  0  0  0
 39 67  2  0  0  0
 40 52  1  0  0  0
 40 53  2  0  0  0
 40 58  1  0  0  0
 41108  1  0  0  0
 41109  1  0  0  0
 41110  1  0  0  0
 41 48  1  0  0  0
 42 43  1  0  0  0
 42 66  1  0  0  0
 42111  1  0  0  0
 42112  1  0  0  0
 43 44  1  0  0  0
 44113  1  0  0  0
 45 46  2  0  0  0
 45114  1  0  0  0
 46115  1  0  0  0
 47116  1  0  0  0
 47117  1  0  0  0
 48 56  1  0  0  0
 48 65  1  0  0  0
 48118  1  0  0  0
 49 50  1  0  0  0
 49 53  1  0  0  0
 49 64  1  0  0  0
 49119  1  0  0  0
 50 51  1  0  0  0
 50120  1  0  0  0
 50121  1  0  0  0
 51 52  1  0  0  0
 51122  1  0  0  0
 51123  1  0  0  0
 52124  1  0  0  0
 52125  1  0  0  0
 53 54  1  0  0  0
 54 55  2  0  0  0
 54126  1  0  0  0
 55 57  1  0  0  0
 55127  1  0  0  0
 56 69  2  0  0  0
 57 58  2  0  0  0
 57128  1  0  0  0
 58129  1  0  0  0
 59 60  1  0  0  0
 59 61  1  0  0  0
 59 62  1  0  0  0
 60130  1  0  0  0
 60131  1  0  0  0
 60132  1  0  0  0
 61133  1  0  0  0
 61134  1  0  0  0
 61135  1  0  0  0
 62136  1  0  0  0
 62137  1  0  0  0
 62138  1  0  0  0
 63 65  1  0  0  0
 63139  1  0  0  0
 63140  1  0  0  0
 63141  1  0  0  0
 64142  1  0  0  0
 65143  1  0  0  0
 68 76  1  0  0  0
 71 72  2  0  0  0
 71 81  1  0  0  0
 71144  1  0  0  0
 72 74  1  0  0  0
 72 79  1  0  0  0
 73145  1  0  0  0
 73146  1  0  0  0
 73147  1  0  0  0
 73 77  1  0  0  0
 74 75  1  0  0  0
 74148  1  0  0  0
 74149  1  0  0  0
 75 76  1  0  0  0
 75150  1  0  0  0
 75151  1  0  0  0
 76152  1  0  0  0
 76153  1  0  0  0
 77 78  1  0  0  0
 77 81  1  0  0  0
 78 82  1  0  0  0
 78 83  1  0  0  0
 78 84  1  0  0  0
 79 80  2  0  0  0
 80 81  1  0  0  0
M  ISO  4   1 100  68 101  76 101  77 100
M  END
> <chiral flag>
0

> <version>
0

> <s_m_source_file>
/data/baiqing/PycharmProjects/Reinvent-master-3.2/result/LINK_invent/BTK/process_docking_weight1_custom_sum_contain_oxygen_bond_distance_aromatic_linkinvent_7_9_3/rearranged_h_0056.sdf

> <i_m_source_file_index>
32

> <r_mmod_Potential_Energy-OPLS-2005>
762.264709472656

> <r_mmod_Stretch_Energy-OPLS-2005>
287.76904296875

> <r_mmod_Bend_Energy-OPLS-2005>
332.476684570312

> <r_mmod_Torsional_Energy-OPLS-2005>
243.217102050781

> <r_mmod_Improper_Torsional_Energy-OPLS-2005>
15.1621398925781

> <r_mmod_Van_der_Waal_Energy-OPLS-2005>
149.571472167969

> <r_mmod_Electrostatic_Energy-OPLS-2005>
-266.005889892578

> <r_mmod_Solvation_Energy-OPLS-2005>
-216.976577758789

> <b_mmod_Minimization_Converged-OPLS-2005>
0

> <r_mmod_RMS_Derivative-OPLS-2005>
0.0638208538293839

$$$$
34
                    3D
 Structure written by MMmdl.
154162  0  0  1  0            999 V2000
  -30.5795  -14.8743   20.4150 C   0  0  0  0  0  0
  -30.4441  -12.5349   19.4947 C   0  0  0  0  0  0
  -29.5221  -12.5072   18.2536 C   0  0  0  0  0  0
  -28.0532  -12.3090   18.6733 C   0  0  0  0  0  0
  -27.6396  -13.2385   19.8439 C   0  0  2  0  0  0
  -28.6841  -13.2430   20.9830 C   0  0  0  0  0  0
  -25.2514  -13.8203   20.5692 C   0  0  0  0  0  0
  -24.1805  -13.0454   20.9211 C   0  0  0  0  0  0
  -24.6396  -11.6931   20.8746 C   0  0  0  0  0  0
  -23.9047  -10.4305   21.0413 C   0  0  0  0  0  0
  -24.3604   -9.4216   21.9187 C   0  0  0  0  0  0
  -23.6290   -8.2248   22.0749 C   0  0  0  0  0  0
  -22.4268   -8.0280   21.3539 C   0  0  0  0  0  0
  -21.9909   -9.0250   20.4636 C   0  0  0  0  0  0
  -22.7225  -10.2136   20.3058 C   0  0  0  0  0  0
  -21.6856   -6.0726   22.5279 C   0  0  0  0  0  0
  -21.4007   -6.5632   23.8203 C   0  0  0  0  0  0
  -21.3656   -5.6778   24.9172 C   0  0  0  0  0  0
  -21.6051   -4.3044   24.7218 C   0  0  0  0  0  0
  -21.8829   -3.8131   23.4339 C   0  0  0  0  0  0
  -21.9198   -4.6956   22.3392 C   0  0  0  0  0  0
  -22.7826  -13.5239   21.1856 C   0  0  0  0  0  0
  -22.1665   -4.2151   21.0970 F   0  0  0  0  0  0
  -21.5635   -3.4525   25.7725 F   0  0  0  0  0  0
  -29.9744  -13.6257   20.3909 N   0  0  0  0  0  0
  -26.2944  -12.9417   20.3268 N   0  0  0  0  0  0
  -25.9335  -11.6560   20.5763 N   0  0  0  0  0  0
  -22.0451  -12.8244   22.0413 N   0  0  0  0  0  0
  -25.4191  -15.1926   20.4053 N   0  0  0  0  0  0
  -31.7684  -14.9553   20.0947 O   0  0  0  0  0  0
  -21.6639   -6.8877   21.4238 O   0  0  0  0  0  0
  -22.3516  -14.5533   20.6678 O   0  0  0  0  0  0
  -24.6431  -31.8456   23.1897 C   0  0  0  0  0  0
  -25.9212  -32.4699   23.8280 C   0  0  1  0  0  0
  -27.2210  -27.1494   20.1468 C   0  0  0  0  0  0
  -25.5960  -33.8507   24.2191 N   0  0  0  0  0  0
  -23.4461  -30.4686   21.5335 C   0  0  2  0  0  0
  -24.8987  -28.9027   20.1048 C   0  0  0  0  0  0
  -22.7580  -29.4569   22.4843 C   0  0  0  0  0  0
  -18.0312  -28.1397   22.8488 C   0  0  0  0  0  0
  -24.1470  -36.7240   23.2647 C   0  0  0  0  0  0
  -26.0020  -30.7232   21.3889 C   0  0  0  0  0  0
  -26.0742  -29.3359   20.7310 C   0  0  0  0  0  0
  -27.2347  -28.4735   20.7429 C   0  0  0  0  0  0
  -26.0234  -26.8328   19.4608 C   0  0  0  0  0  0
  -24.8871  -27.6638   19.4513 C   0  0  0  0  0  0
  -23.6725  -29.8003   20.1513 C   0  0  0  0  0  0
  -25.4105  -36.3026   24.0323 C   0  0  1  0  0  0
  -20.5930  -28.3722   23.1232 C   0  0  2  0  0  0
  -20.6784  -26.9426   22.5401 C   0  0  0  0  0  0
  -19.5742  -26.6395   21.5212 C   0  0  0  0  0  0
  -18.1936  -26.7943   22.1638 C   0  0  0  0  0  0
  -19.1573  -28.8882   23.2847 C   0  0  0  0  0  0
  -18.9490  -30.1487   23.8848 C   0  0  0  0  0  0
  -17.6484  -30.6589   24.0576 C   0  0  0  0  0  0
  -25.9072  -34.9411   23.5070 C   0  0  0  0  0  0
  -16.5377  -29.9085   23.6347 C   0  0  0  0  0  0
  -16.7305  -28.6513   23.0362 C   0  0  0  0  0  0
  -26.4541  -31.6565   25.0720 C   0  0  0  0  0  0
  -25.3738  -31.3765   26.1420 C   0  0  0  0  0  0
  -27.0399  -30.2958   24.6293 C   0  0  0  0  0  0
  -27.6065  -32.4346   25.7497 C   0  0  0  0  0  0
  -27.5553  -37.1775   24.8477 C   0  0  0  0  0  0
  -21.4274  -29.3048   22.3594 N   0  0  0  0  0  0
  -26.4253  -37.3757   23.9438 N   0  0  0  0  0  0
  -24.7162  -31.0333   22.0921 N   0  0  0  0  0  0
  -23.4234  -28.8134   23.3002 O   0  0  0  0  0  0
  -28.2537  -26.1394   20.2446 O   0  0  0  0  0  0
  -26.5646  -34.8924   22.4640 O   0  0  0  0  0  0
  -23.5556  -32.1319   23.7134 O   0  0  0  0  0  0
  -28.8162  -22.6309   21.5180 C   0  0  0  0  0  0
  -28.8807  -22.2398   19.2465 C   0  0  0  0  0  0
  -28.6484  -23.2411   20.2457 C   0  0  0  0  0  0
  -29.3231  -20.4090   20.7128 C   0  0  0  0  0  0
  -27.8380  -18.3846   21.2711 C   0  0  0  0  0  0
  -30.0468  -18.6272   22.4358 C   0  0  0  0  0  0
  -27.8868  -24.6681   19.9314 C   0  0  0  0  0  0
  -30.0155  -17.5524   20.2001 C   0  0  0  0  0  0
  -29.3153  -18.7836   21.0825 C   0  0  0  0  0  0
  -29.1269  -21.2961   21.7213 N   0  0  0  0  0  0
  -29.1726  -20.8959   19.4666 N   0  0  0  0  0  0
  -29.8003  -16.0357   20.5760 N   0  0  0  0  0  0
  -31.4806  -12.6784   19.1818 H   0  0  0  0  0  0
  -30.4178  -11.5774   20.0173 H   0  0  0  0  0  0
  -29.8314  -11.7082   17.5782 H   0  0  0  0  0  0
  -29.6262  -13.4384   17.6949 H   0  0  0  0  0  0
  -27.9407  -11.2668   18.9741 H   0  0  0  0  0  0
  -27.3886  -12.4512   17.8204 H   0  0  0  0  0  0
  -27.6135  -14.2453   19.4275 H   0  0  0  0  0  0
  -28.7531  -12.2636   21.4585 H   0  0  0  0  0  0
  -28.3929  -13.9434   21.7682 H   0  0  0  0  0  0
  -25.2758   -9.5706   22.4758 H   0  0  0  0  0  0
  -24.0012   -7.4644   22.7471 H   0  0  0  0  0  0
  -21.0840   -8.8747   19.8947 H   0  0  0  0  0  0
  -22.3669  -10.9664   19.6154 H   0  0  0  0  0  0
  -21.1980   -7.6142   23.9703 H   0  0  0  0  0  0
  -21.1469   -6.0507   25.9070 H   0  0  0  0  0  0
  -22.0609   -2.7603   23.2825 H   0  0  0  0  0  0
  -22.4048  -11.9918   22.4833 H   0  0  0  0  0  0
  -21.1067  -13.1279   22.2574 H   0  0  0  0  0  0
  -24.6426  -15.8403   20.4900 H   0  0  0  0  0  0
  -26.2559  -15.6254   20.0376 H   0  0  0  0  0  0
  -26.7293  -32.5307   23.1019 H   0  0  0  0  0  0
  -25.0113  -33.9614   25.0347 H   0  0  0  0  0  0
  -22.7457  -31.2928   21.3812 H   0  0  0  0  0  0
  -23.3744  -35.9559   23.3306 H   0  0  0  0  0  0
  -24.3563  -36.8875   22.2062 H   0  0  0  0  0  0
  -23.7207  -37.6436   23.6684 H   0  0  0  0  0  0
  -26.1573  -31.4779   20.6159 H   0  0  0  0  0  0
  -26.8729  -30.7719   22.0315 H   0  0  0  0  0  0
  -28.1208  -28.7989   21.2697 H   0  0  0  0  0  0
  -25.9107  -25.8976   18.9354 H   0  0  0  0  0  0
  -23.9961  -27.3327   18.9356 H   0  0  0  0  0  0
  -23.8071  -30.5735   19.3938 H   0  0  0  0  0  0
  -22.7871  -29.2409   19.8433 H   0  0  0  0  0  0
  -25.1294  -36.1828   25.0812 H   0  0  0  0  0  0
  -21.0037  -28.3301   24.1351 H   0  0  0  0  0  0
  -20.5657  -26.2356   23.3630 H   0  0  0  0  0  0
  -21.6650  -26.7410   22.1207 H   0  0  0  0  0  0
  -19.6891  -25.6303   21.1247 H   0  0  0  0  0  0
  -19.6656  -27.3202   20.6728 H   0  0  0  0  0  0
  -17.4213  -26.6724   21.4033 H   0  0  0  0  0  0
  -18.0313  -26.0076   22.9018 H   0  0  0  0  0  0
  -19.7967  -30.7335   24.2168 H   0  0  0  0  0  0
  -17.5044  -31.6251   24.5212 H   0  0  0  0  0  0
  -15.5374  -30.2979   23.7686 H   0  0  0  0  0  0
  -15.8718  -28.0822   22.7072 H   0  0  0  0  0  0
  -24.5907  -30.7101   25.7786 H   0  0  0  0  0  0
  -24.8921  -32.2945   26.4786 H   0  0  0  0  0  0
  -25.8034  -30.9000   27.0232 H   0  0  0  0  0  0
  -26.2996  -29.6691   24.1287 H   0  0  0  0  0  0
  -27.4016  -29.7250   25.4859 H   0  0  0  0  0  0
  -27.8928  -30.4223   23.9617 H   0  0  0  0  0  0
  -27.2635  -33.3687   26.1957 H   0  0  0  0  0  0
  -28.3912  -32.6825   25.0342 H   0  0  0  0  0  0
  -28.0674  -31.8540   26.5490 H   0  0  0  0  0  0
  -28.2584  -38.0059   24.7514 H   0  0  0  0  0  0
  -28.1026  -36.2594   24.6288 H   0  0  0  0  0  0
  -27.2295  -37.1415   25.8888 H   0  0  0  0  0  0
  -20.9483  -29.8756   21.6761 H   0  0  0  0  0  0
  -26.0104  -38.2825   24.1449 H   0  0  0  0  0  0
  -28.6026  -23.1972   22.4122 H   0  0  0  0  0  0
  -28.7376  -22.4959   18.2079 H   0  0  0  0  0  0
  -27.3577  -19.0096   22.0244 H   0  0  0  0  0  0
  -27.7204  -17.3498   21.5946 H   0  0  0  0  0  0
  -27.2824  -18.5066   20.3408 H   0  0  0  0  0  0
  -29.5738  -19.2026   23.2306 H   0  0  0  0  0  0
  -31.0801  -18.9682   22.3562 H   0  0  0  0  0  0
  -30.0734  -17.5912   22.7745 H   0  0  0  0  0  0
  -26.9142  -24.5051   20.3987 H   0  0  0  0  0  0
  -27.7086  -24.6429   18.8549 H   0  0  0  0  0  0
  -31.0887  -17.7323   20.1230 H   0  0  0  0  0  0
  -29.6489  -17.6556   19.1778 H   0  0  0  0  0  0
  -28.8545  -15.8232   20.8514 H   0  0  0  0  0  0
  1 25  1  0  0  0
  1 30  2  0  0  0
  1 82  1  0  0  0
  2  3  1  0  0  0
  2 25  1  0  0  0
  2 83  1  0  0  0
  2 84  1  0  0  0
  3  4  1  0  0  0
  3 85  1  0  0  0
  3 86  1  0  0  0
  4  5  1  0  0  0
  4 87  1  0  0  0
  4 88  1  0  0  0
  5  6  1  0  0  0
  5 26  1  0  0  0
  5 89  1  0  0  0
  6 25  1  0  0  0
  6 90  1  0  0  0
  6 91  1  0  0  0
  7  8  2  0  0  0
  7 26  1  0  0  0
  7 29  1  0  0  0
  8  9  1  0  0  0
  8 22  1  0  0  0
  9 10  1  0  0  0
  9 27  2  0  0  0
 10 11  2  0  0  0
 10 15  1  0  0  0
 11 12  1  0  0  0
 11 92  1  0  0  0
 12 13  2  0  0  0
 12 93  1  0  0  0
 13 14  1  0  0  0
 13 31  1  0  0  0
 14 15  2  0  0  0
 14 94  1  0  0  0
 15 95  1  0  0  0
 16 17  2  0  0  0
 16 21  1  0  0  0
 16 31  1  0  0  0
 17 18  1  0  0  0
 17 96  1  0  0  0
 18 19  2  0  0  0
 18 97  1  0  0  0
 19 20  1  0  0  0
 19 24  1  0  0  0
 20 21  2  0  0  0
 20 98  1  0  0  0
 21 23  1  0  0  0
 22 28  1  0  0  0
 22 32  2  0  0  0
 26 27  1  0  0  0
 28 99  1  0  0  0
 28100  1  0  0  0
 29101  1  0  0  0
 29102  1  0  0  0
 33 34  1  0  0  0
 33 66  1  0  0  0
 33 70  2  0  0  0
 34 36  1  0  0  0
 34 59  1  0  0  0
 34103  1  0  0  0
 35 44  2  0  0  0
 35 45  1  0  0  0
 35 68  1  0  0  0
 36 56  1  0  0  0
 36104  1  0  0  0
 37 39  1  0  0  0
 37 47  1  0  0  0
 37 66  1  0  0  0
 37105  1  0  0  0
 38 43  2  0  0  0
 38 46  1  0  0  0
 38 47  1  0  0  0
 39 64  1  0  0  0
 39 67  2  0  0  0
 40 52  1  0  0  0
 40 53  2  0  0  0
 40 58  1  0  0  0
 41106  1  0  0  0
 41107  1  0  0  0
 41108  1  0  0  0
 41 48  1  0  0  0
 42 43  1  0  0  0
 42 66  1  0  0  0
 42109  1  0  0  0
 42110  1  0  0  0
 43 44  1  0  0  0
 44111  1  0  0  0
 45 46  2  0  0  0
 45112  1  0  0  0
 46113  1  0  0  0
 47114  1  0  0  0
 47115  1  0  0  0
 48 56  1  0  0  0
 48 65  1  0  0  0
 48116  1  0  0  0
 49 50  1  0  0  0
 49 53  1  0  0  0
 49 64  1  0  0  0
 49117  1  0  0  0
 50 51  1  0  0  0
 50118  1  0  0  0
 50119  1  0  0  0
 51 52  1  0  0  0
 51120  1  0  0  0
 51121  1  0  0  0
 52122  1  0  0  0
 52123  1  0  0  0
 53 54  1  0  0  0
 54 55  2  0  0  0
 54124  1  0  0  0
 55 57  1  0  0  0
 55125  1  0  0  0
 56 69  2  0  0  0
 57 58  2  0  0  0
 57126  1  0  0  0
 58127  1  0  0  0
 59 60  1  0  0  0
 59 61  1  0  0  0
 59 62  1  0  0  0
 60128  1  0  0  0
 60129  1  0  0  0
 60130  1  0  0  0
 61131  1  0  0  0
 61132  1  0  0  0
 61133  1  0  0  0
 62134  1  0  0  0
 62135  1  0  0  0
 62136  1  0  0  0
 63 65  1  0  0  0
 63137  1  0  0  0
 63138  1  0  0  0
 63139  1  0  0  0
 64140  1  0  0  0
 65141  1  0  0  0
 68 77  1  0  0  0
 71 73  2  0  0  0
 71 80  1  0  0  0
 71142  1  0  0  0
 72 73  1  0  0  0
 72 81  2  0  0  0
 72143  1  0  0  0
 73 77  1  0  0  0
 74 79  1  0  0  0
 74 80  2  0  0  0
 74 81  1  0  0  0
 75144  1  0  0  0
 75145  1  0  0  0
 75146  1  0  0  0
 75 79  1  0  0  0
 76 79  1  0  0  0
 76147  1  0  0  0
 76148  1  0  0  0
 76149  1  0  0  0
 77150  1  0  0  0
 77151  1  0  0  0
 78 79  1  0  0  0
 78 82  1  0  0  0
 78152  1  0  0  0
 78153  1  0  0  0
 82154  1  0  0  0
M  ISO  4   1 100  68 101  77 101  82 100
M  END
> <chiral flag>
0

> <version>
0

> <s_m_source_file>
/data/baiqing/PycharmProjects/Reinvent-master-3.2/result/LINK_invent/BTK/process_docking_weight1_custom_sum_contain_oxygen_bond_distance_aromatic_linkinvent_7_9_3/rearranged_h_0056.sdf

> <i_m_source_file_index>
33

> <r_mmod_Potential_Energy-OPLS-2005>
12.4001836776733

> <r_mmod_Stretch_Energy-OPLS-2005>
217.6201171875

> <r_mmod_Bend_Energy-OPLS-2005>
266.183044433594

> <r_mmod_Torsional_Energy-OPLS-2005>
221.598297119141

> <r_mmod_Improper_Torsional_Energy-OPLS-2005>
12.434287071228

> <r_mmod_Van_der_Waal_Energy-OPLS-2005>
146.729080200195

> <r_mmod_Electrostatic_Energy-OPLS-2005>
-788.86181640625

> <r_mmod_Solvation_Energy-OPLS-2005>
-230.182220458984

> <b_mmod_Minimization_Converged-OPLS-2005>
0

> <r_mmod_RMS_Derivative-OPLS-2005>
2.75255560874939

$$$$
35
                    3D
 Structure written by MMmdl.
150157  0  0  1  0            999 V2000
  -30.3615  -15.4865   20.3238 C   0  0  0  0  0  0
  -30.4319  -12.9617   19.5459 C   0  0  0  0  0  0
  -29.5529  -12.6307   18.3100 C   0  0  0  0  0  0
  -28.1019  -12.3215   18.7173 C   0  0  0  0  0  0
  -27.5936  -13.2920   19.8114 C   0  0  2  0  0  0
  -28.6174  -13.5756   20.9311 C   0  0  0  0  0  0
  -25.2278  -13.8208   20.5805 C   0  0  0  0  0  0
  -24.1688  -13.0374   20.9293 C   0  0  0  0  0  0
  -24.6398  -11.6890   20.8781 C   0  0  0  0  0  0
  -23.9098  -10.4266   21.0397 C   0  0  0  0  0  0
  -24.3656   -9.4189   21.9174 C   0  0  0  0  0  0
  -23.6335   -8.2226   22.0740 C   0  0  0  0  0  0
  -22.4314   -8.0275   21.3539 C   0  0  0  0  0  0
  -21.9944   -9.0248   20.4641 C   0  0  0  0  0  0
  -22.7262  -10.2119   20.3055 C   0  0  0  0  0  0
  -21.6867   -6.0741   22.5278 C   0  0  0  0  0  0
  -21.4011   -6.5637   23.8211 C   0  0  0  0  0  0
  -21.3666   -5.6787   24.9176 C   0  0  0  0  0  0
  -21.6055   -4.3057   24.7220 C   0  0  0  0  0  0
  -21.8819   -3.8147   23.4341 C   0  0  0  0  0  0
  -21.9197   -4.6970   22.3399 C   0  0  0  0  0  0
  -22.7700  -13.5113   21.1941 C   0  0  0  0  0  0
  -22.1660   -4.2157   21.0983 F   0  0  0  0  0  0
  -21.5645   -3.4533   25.7732 F   0  0  0  0  0  0
  -29.8233  -14.1410   20.2932 N   0  0  0  0  0  0
  -26.2741  -12.9529   20.3218 N   0  0  0  0  0  0
  -25.9342  -11.6622   20.5686 N   0  0  0  0  0  0
  -22.0378  -12.8125   22.0507 N   0  0  0  0  0  0
  -25.3789  -15.1956   20.4315 N   0  0  0  0  0  0
  -31.6025  -15.3898   20.2867 O   0  0  0  0  0  0
  -21.6657   -6.8892   21.4244 O   0  0  0  0  0  0
  -22.3375  -14.5414   20.6758 O   0  0  0  0  0  0
  -24.6748  -31.8099   23.1593 C   0  0  0  0  0  0
  -25.9378  -32.4504   23.8110 C   0  0  1  0  0  0
  -27.2140  -26.8021   20.2164 C   0  0  0  0  0  0
  -25.5994  -33.8329   24.2005 N   0  0  0  0  0  0
  -23.4959  -30.4166   21.5103 C   0  0  2  0  0  0
  -24.9485  -28.7742   20.1222 C   0  0  0  0  0  0
  -22.7723  -29.4379   22.4734 C   0  0  0  0  0  0
  -18.0329  -28.1412   22.8444 C   0  0  0  0  0  0
  -24.1505  -36.7181   23.2650 C   0  0  0  0  0  0
  -26.0720  -30.5741   21.4109 C   0  0  0  0  0  0
  -26.1361  -29.1502   20.7612 C   0  0  0  0  0  0
  -27.2626  -28.1903   20.7738 C   0  0  0  0  0  0
  -25.9938  -26.6041   19.5292 C   0  0  0  0  0  0
  -24.9097  -27.5253   19.4817 C   0  0  0  0  0  0
  -23.7431  -29.7196   20.1429 C   0  0  0  0  0  0
  -25.4148  -36.2906   24.0282 C   0  0  1  0  0  0
  -20.5961  -28.3770   23.1153 C   0  0  2  0  0  0
  -20.6811  -26.9443   22.5392 C   0  0  0  0  0  0
  -19.5785  -26.6367   21.5209 C   0  0  0  0  0  0
  -18.1971  -26.7944   22.1610 C   0  0  0  0  0  0
  -19.1591  -28.8909   23.2778 C   0  0  0  0  0  0
  -18.9509  -30.1504   23.8809 C   0  0  0  0  0  0
  -17.6503  -30.6599   24.0551 C   0  0  0  0  0  0
  -25.9112  -34.9290   23.4961 C   0  0  0  0  0  0
  -16.5392  -29.9085   23.6348 C   0  0  0  0  0  0
  -16.7311  -28.6509   23.0352 C   0  0  0  0  0  0
  -26.4571  -31.6513   25.0701 C   0  0  0  0  0  0
  -25.3656  -31.3842   26.1327 C   0  0  0  0  0  0
  -27.0503  -30.2851   24.6595 C   0  0  0  0  0  0
  -27.6015  -32.4384   25.7520 C   0  0  0  0  0  0
  -27.5574  -37.1756   24.8464 C   0  0  0  0  0  0
  -21.4383  -29.3045   22.3488 N   0  0  0  0  0  0
  -26.4281  -37.3669   23.9398 N   0  0  0  0  0  0
  -24.7701  -30.9656   22.0787 N   0  0  0  0  0  0
  -23.4210  -28.7968   23.3038 O   0  0  0  0  0  0
  -28.2160  -25.6553   20.2085 O   0  0  0  0  0  0
  -26.5739  -34.8860   22.4571 O   0  0  0  0  0  0
  -23.5784  -32.1136   23.6579 O   0  0  0  0  0  0
  -28.3653  -16.8083   19.1784 C   0  0  0  0  0  0
  -30.6489  -17.6965   18.8851 C   0  0  0  0  0  0
  -29.3274  -20.6669   20.6056 C   0  0  0  0  0  0
  -28.5591  -22.2655   19.9796 C   0  0  0  0  0  0
  -29.1870  -18.7820   20.7384 C   0  0  0  0  0  0
  -28.0815  -23.9894   20.5725 C   0  0  0  0  0  0
  -29.6560  -17.1551   19.9334 C   0  0  0  0  0  0
  -31.4457  -13.1865   19.2119 H   0  0  0  0  0  0
  -30.5319  -12.0913   20.1986 H   0  0  0  0  0  0
  -29.9768  -11.7960   17.7523 H   0  0  0  0  0  0
  -29.5622  -13.4887   17.6337 H   0  0  0  0  0  0
  -28.0623  -11.2945   19.0804 H   0  0  0  0  0  0
  -27.4494  -12.3660   17.8446 H   0  0  0  0  0  0
  -27.4511  -14.2247   19.2764 H   0  0  0  0  0  0
  -28.8425  -12.6778   21.5123 H   0  0  0  0  0  0
  -28.2163  -14.3069   21.6322 H   0  0  0  0  0  0
  -25.2815   -9.5666   22.4740 H   0  0  0  0  0  0
  -24.0058   -7.4614   22.7464 H   0  0  0  0  0  0
  -21.0867   -8.8776   19.8957 H   0  0  0  0  0  0
  -22.3738  -10.9668   19.6182 H   0  0  0  0  0  0
  -21.1989   -7.6144   23.9717 H   0  0  0  0  0  0
  -21.1491   -6.0515   25.9076 H   0  0  0  0  0  0
  -22.0596   -2.7601   23.2833 H   0  0  0  0  0  0
  -22.4025  -11.9811   22.4915 H   0  0  0  0  0  0
  -21.0967  -13.1100   22.2692 H   0  0  0  0  0  0
  -24.6050  -15.8371   20.5694 H   0  0  0  0  0  0
  -26.2202  -15.6486   20.1020 H   0  0  0  0  0  0
  -26.7457  -32.4993   23.0820 H   0  0  0  0  0  0
  -25.0088  -33.9419   25.0118 H   0  0  0  0  0  0
  -22.8159  -31.2511   21.3266 H   0  0  0  0  0  0
  -23.3770  -35.9516   23.3276 H   0  0  0  0  0  0
  -24.3580  -36.8873   22.2077 H   0  0  0  0  0  0
  -23.7281  -37.6358   23.6750 H   0  0  0  0  0  0
  -26.2742  -31.3052   20.6277 H   0  0  0  0  0  0
  -26.9217  -30.6292   22.0794 H   0  0  0  0  0  0
  -28.1653  -28.4853   21.2881 H   0  0  0  0  0  0
  -25.8524  -25.6557   19.0299 H   0  0  0  0  0  0
  -24.0112  -27.2326   18.9557 H   0  0  0  0  0  0
  -23.9133  -30.4805   19.3797 H   0  0  0  0  0  0
  -22.8498  -29.1811   19.8202 H   0  0  0  0  0  0
  -25.1365  -36.1675   25.0781 H   0  0  0  0  0  0
  -21.0044  -28.3384   24.1275 H   0  0  0  0  0  0
  -20.5702  -26.2402   23.3645 H   0  0  0  0  0  0
  -21.6678  -26.7415   22.1199 H   0  0  0  0  0  0
  -19.6966  -25.6258   21.1293 H   0  0  0  0  0  0
  -19.6730  -27.3128   20.6701 H   0  0  0  0  0  0
  -17.4248  -26.6661   21.4015 H   0  0  0  0  0  0
  -18.0362  -26.0113   22.9026 H   0  0  0  0  0  0
  -19.7992  -30.7339   24.2141 H   0  0  0  0  0  0
  -17.5059  -31.6268   24.5170 H   0  0  0  0  0  0
  -15.5389  -30.2958   23.7736 H   0  0  0  0  0  0
  -15.8712  -28.0811   22.7103 H   0  0  0  0  0  0
  -24.5802  -30.7241   25.7632 H   0  0  0  0  0  0
  -24.8882  -32.3075   26.4617 H   0  0  0  0  0  0
  -25.7808  -30.9065   27.0205 H   0  0  0  0  0  0
  -26.3209  -29.6469   24.1595 H   0  0  0  0  0  0
  -27.3938  -29.7301   25.5341 H   0  0  0  0  0  0
  -27.9186  -30.3984   24.0104 H   0  0  0  0  0  0
  -27.2522  -33.3721   26.1958 H   0  0  0  0  0  0
  -28.3883  -32.6923   25.0400 H   0  0  0  0  0  0
  -28.0635  -31.8633   26.5562 H   0  0  0  0  0  0
  -28.2551  -38.0086   24.7481 H   0  0  0  0  0  0
  -28.1093  -36.2597   24.6297 H   0  0  0  0  0  0
  -27.2277  -37.1396   25.8863 H   0  0  0  0  0  0
  -20.9670  -29.8721   21.6578 H   0  0  0  0  0  0
  -26.0095  -38.2723   24.1378 H   0  0  0  0  0  0
  -28.0266  -17.6289   18.5477 H   0  0  0  0  0  0
  -27.5686  -16.5962   19.8885 H   0  0  0  0  0  0
  -28.4916  -15.9459   18.5254 H   0  0  0  0  0  0
  -30.2417  -18.5647   18.3648 H   0  0  0  0  0  0
  -30.8998  -16.9570   18.1235 H   0  0  0  0  0  0
  -31.5788  -18.0119   19.3608 H   0  0  0  0  0  0
  -29.2757  -20.8986   21.6704 H   0  0  0  0  0  0
  -30.3881  -20.8042   20.3874 H   0  0  0  0  0  0
  -27.6474  -21.9257   19.4866 H   0  0  0  0  0  0
  -29.2011  -22.4998   19.1282 H   0  0  0  0  0  0
  -28.1290  -18.6536   20.9691 H   0  0  0  0  0  0
  -29.6485  -18.6315   21.7140 H   0  0  0  0  0  0
  -28.3986  -23.9762   21.6164 H   0  0  0  0  0  0
  -26.9962  -23.8987   20.6571 H   0  0  0  0  0  0
  1 25  1  0  0  0
  1 30  2  0  0  0
  1 77  1  0  0  0
  2  3  1  0  0  0
  2 25  1  0  0  0
  2 78  1  0  0  0
  2 79  1  0  0  0
  3  4  1  0  0  0
  3 80  1  0  0  0
  3 81  1  0  0  0
  4  5  1  0  0  0
  4 82  1  0  0  0
  4 83  1  0  0  0
  5  6  1  0  0  0
  5 26  1  0  0  0
  5 84  1  0  0  0
  6 25  1  0  0  0
  6 85  1  0  0  0
  6 86  1  0  0  0
  7  8  2  0  0  0
  7 26  1  0  0  0
  7 29  1  0  0  0
  8  9  1  0  0  0
  8 22  1  0  0  0
  9 10  1  0  0  0
  9 27  2  0  0  0
 10 11  2  0  0  0
 10 15  1  0  0  0
 11 12  1  0  0  0
 11 87  1  0  0  0
 12 13  2  0  0  0
 12 88  1  0  0  0
 13 14  1  0  0  0
 13 31  1  0  0  0
 14 15  2  0  0  0
 14 89  1  0  0  0
 15 90  1  0  0  0
 16 17  2  0  0  0
 16 21  1  0  0  0
 16 31  1  0  0  0
 17 18  1  0  0  0
 17 91  1  0  0  0
 18 19  2  0  0  0
 18 92  1  0  0  0
 19 20  1  0  0  0
 19 24  1  0  0  0
 20 21  2  0  0  0
 20 93  1  0  0  0
 21 23  1  0  0  0
 22 28  1  0  0  0
 22 32  2  0  0  0
 26 27  1  0  0  0
 28 94  1  0  0  0
 28 95  1  0  0  0
 29 96  1  0  0  0
 29 97  1  0  0  0
 33 34  1  0  0  0
 33 66  1  0  0  0
 33 70  2  0  0  0
 34 36  1  0  0  0
 34 59  1  0  0  0
 34 98  1  0  0  0
 35 44  2  0  0  0
 35 45  1  0  0  0
 35 68  1  0  0  0
 36 56  1  0  0  0
 36 99  1  0  0  0
 37 39  1  0  0  0
 37 47  1  0  0  0
 37 66  1  0  0  0
 37100  1  0  0  0
 38 43  2  0  0  0
 38 46  1  0  0  0
 38 47  1  0  0  0
 39 64  1  0  0  0
 39 67  2  0  0  0
 40 52  1  0  0  0
 40 53  2  0  0  0
 40 58  1  0  0  0
 41101  1  0  0  0
 41102  1  0  0  0
 41103  1  0  0  0
 41 48  1  0  0  0
 42 43  1  0  0  0
 42 66  1  0  0  0
 42104  1  0  0  0
 42105  1  0  0  0
 43 44  1  0  0  0
 44106  1  0  0  0
 45 46  2  0  0  0
 45107  1  0  0  0
 46108  1  0  0  0
 47109  1  0  0  0
 47110  1  0  0  0
 48 56  1  0  0  0
 48 65  1  0  0  0
 48111  1  0  0  0
 49 50  1  0  0  0
 49 53  1  0  0  0
 49 64  1  0  0  0
 49112  1  0  0  0
 50 51  1  0  0  0
 50113  1  0  0  0
 50114  1  0  0  0
 51 52  1  0  0  0
 51115  1  0  0  0
 51116  1  0  0  0
 52117  1  0  0  0
 52118  1  0  0  0
 53 54  1  0  0  0
 54 55  2  0  0  0
 54119  1  0  0  0
 55 57  1  0  0  0
 55120  1  0  0  0
 56 69  2  0  0  0
 57 58  2  0  0  0
 57121  1  0  0  0
 58122  1  0  0  0
 59 60  1  0  0  0
 59 61  1  0  0  0
 59 62  1  0  0  0
 60123  1  0  0  0
 60124  1  0  0  0
 60125  1  0  0  0
 61126  1  0  0  0
 61127  1  0  0  0
 61128  1  0  0  0
 62129  1  0  0  0
 62130  1  0  0  0
 62131  1  0  0  0
 63 65  1  0  0  0
 63132  1  0  0  0
 63133  1  0  0  0
 63134  1  0  0  0
 64135  1  0  0  0
 65136  1  0  0  0
 68 76  1  0  0  0
 71137  1  0  0  0
 71138  1  0  0  0
 71139  1  0  0  0
 71 77  1  0  0  0
 72 77  1  0  0  0
 72140  1  0  0  0
 72141  1  0  0  0
 72142  1  0  0  0
 73 74  1  0  0  0
 73 75  1  0  0  0
 73143  1  0  0  0
 73144  1  0  0  0
 74 76  1  0  0  0
 74145  1  0  0  0
 74146  1  0  0  0
 75 77  1  0  0  0
 75147  1  0  0  0
 75148  1  0  0  0
 76149  1  0  0  0
 76150  1  0  0  0
M  ISO  4   1 100  68 101  76 101  77 100
M  END
> <chiral flag>
0

> <version>
0

> <s_m_source_file>
/data/baiqing/PycharmProjects/Reinvent-master-3.2/result/LINK_invent/BTK/process_docking_weight1_custom_sum_contain_oxygen_bond_distance_aromatic_linkinvent_7_9_3/rearranged_h_0056.sdf

> <i_m_source_file_index>
34

> <r_mmod_Potential_Energy-OPLS-2005>
2305.13061523438

> <r_mmod_Stretch_Energy-OPLS-2005>
985.340026855469

> <r_mmod_Bend_Energy-OPLS-2005>
715.859741210938

> <r_mmod_Torsional_Energy-OPLS-2005>
265.13525390625

> <r_mmod_Improper_Torsional_Energy-OPLS-2005>
13.4025325775146

> <r_mmod_Van_der_Waal_Energy-OPLS-2005>
113.428527832031

> <r_mmod_Electrostatic_Energy-OPLS-2005>
-293.187225341797

> <r_mmod_Solvation_Energy-OPLS-2005>
-181.571975708008

> <b_mmod_Minimization_Converged-OPLS-2005>
0

> <r_mmod_RMS_Derivative-OPLS-2005>
3.55635476112366

$$$$
36
                    3D
 Structure written by MMmdl.
141149  0  0  1  0            999 V2000
  -30.2235  -15.7203   20.3174 C   0  0  0  0  0  0
  -30.4343  -13.1288   19.5638 C   0  0  0  0  0  0
  -29.5677  -12.6838   18.3446 C   0  0  0  0  0  0
  -28.1413  -12.3085   18.7762 C   0  0  0  0  0  0
  -27.5981  -13.3167   19.8115 C   0  0  2  0  0  0
  -28.6037  -13.6639   20.9340 C   0  0  0  0  0  0
  -25.2334  -13.8297   20.5785 C   0  0  0  0  0  0
  -24.1725  -13.0436   20.9270 C   0  0  0  0  0  0
  -24.6435  -11.6950   20.8738 C   0  0  0  0  0  0
  -23.9134  -10.4295   21.0383 C   0  0  0  0  0  0
  -24.3664   -9.4210   21.9171 C   0  0  0  0  0  0
  -23.6319   -8.2253   22.0752 C   0  0  0  0  0  0
  -22.4299   -8.0292   21.3545 C   0  0  0  0  0  0
  -21.9947   -9.0268   20.4643 C   0  0  0  0  0  0
  -22.7295  -10.2136   20.3042 C   0  0  0  0  0  0
  -21.6862   -6.0744   22.5279 C   0  0  0  0  0  0
  -21.4021   -6.5645   23.8213 C   0  0  0  0  0  0
  -21.3661   -5.6795   24.9174 C   0  0  0  0  0  0
  -21.6044   -4.3058   24.7223 C   0  0  0  0  0  0
  -21.8818   -3.8152   23.4343 C   0  0  0  0  0  0
  -21.9195   -4.6970   22.3401 C   0  0  0  0  0  0
  -22.7735  -13.5161   21.1917 C   0  0  0  0  0  0
  -22.1662   -4.2156   21.0978 F   0  0  0  0  0  0
  -21.5627   -3.4540   25.7735 F   0  0  0  0  0  0
  -29.7852  -14.3091   20.3076 N   0  0  0  0  0  0
  -26.2789  -12.9643   20.3198 N   0  0  0  0  0  0
  -25.9385  -11.6705   20.5657 N   0  0  0  0  0  0
  -22.0407  -12.8132   22.0471 N   0  0  0  0  0  0
  -25.3933  -15.2043   20.4271 N   0  0  0  0  0  0
  -31.4548  -15.6841   20.1048 O   0  0  0  0  0  0
  -21.6652   -6.8894   21.4244 O   0  0  0  0  0  0
  -22.3403  -14.5460   20.6760 O   0  0  0  0  0  0
  -24.6907  -31.7917   23.1456 C   0  0  0  0  0  0
  -25.9453  -32.4426   23.8030 C   0  0  1  0  0  0
  -27.2322  -26.6329   20.2220 C   0  0  0  0  0  0
  -25.6001  -33.8255   24.1909 N   0  0  0  0  0  0
  -23.5206  -30.3903   21.5011 C   0  0  2  0  0  0
  -24.9800  -28.7171   20.1203 C   0  0  0  0  0  0
  -22.7800  -29.4271   22.4690 C   0  0  0  0  0  0
  -18.0344  -28.1425   22.8451 C   0  0  0  0  0  0
  -24.1496  -36.7136   23.2654 C   0  0  0  0  0  0
  -26.1045  -30.5017   21.4211 C   0  0  0  0  0  0
  -26.1705  -29.0588   20.7726 C   0  0  0  0  0  0
  -27.2782  -28.0472   20.7886 C   0  0  0  0  0  0
  -26.0077  -26.5197   19.5098 C   0  0  0  0  0  0
  -24.9420  -27.4740   19.4644 C   0  0  0  0  0  0
  -23.7791  -29.6806   20.1397 C   0  0  0  0  0  0
  -25.4149  -36.2871   24.0276 C   0  0  1  0  0  0
  -20.5983  -28.3789   23.1127 C   0  0  2  0  0  0
  -20.6806  -26.9441   22.5404 C   0  0  0  0  0  0
  -19.5784  -26.6368   21.5217 C   0  0  0  0  0  0
  -18.1966  -26.7951   22.1618 C   0  0  0  0  0  0
  -19.1612  -28.8933   23.2767 C   0  0  0  0  0  0
  -18.9516  -30.1514   23.8817 C   0  0  0  0  0  0
  -17.6504  -30.6605   24.0549 C   0  0  0  0  0  0
  -25.9134  -34.9263   23.4935 C   0  0  0  0  0  0
  -16.5394  -29.9085   23.6352 C   0  0  0  0  0  0
  -16.7323  -28.6508   23.0368 C   0  0  0  0  0  0
  -26.4607  -31.6492   25.0683 C   0  0  0  0  0  0
  -25.3653  -31.3829   26.1283 C   0  0  0  0  0  0
  -27.0553  -30.2821   24.6637 C   0  0  0  0  0  0
  -27.6040  -32.4371   25.7507 C   0  0  0  0  0  0
  -27.5562  -37.1724   24.8466 C   0  0  0  0  0  0
  -21.4440  -29.3022   22.3439 N   0  0  0  0  0  0
  -26.4269  -37.3640   23.9407 N   0  0  0  0  0  0
  -24.7961  -30.9293   22.0749 N   0  0  0  0  0  0
  -23.4209  -28.7883   23.3068 O   0  0  0  0  0  0
  -28.1789  -25.3757   20.2975 O   0  0  0  0  0  0
  -26.5785  -34.8855   22.4560 O   0  0  0  0  0  0
  -23.5910  -32.1024   23.6364 O   0  0  0  0  0  0
  -28.3144  -20.4083   20.1980 C   0  0  0  0  0  0
  -28.7159  -21.8677   20.2764 C   0  0  0  0  0  0
  -27.9051  -23.6119   20.1469 C   0  0  0  0  0  0
  -29.2838  -17.3766   20.4832 C   0  0  0  0  0  0
  -30.0833  -21.4511   20.4866 N   0  0  0  0  0  0
  -30.3788  -20.0887   20.5429 N   0  0  0  0  0  0
  -29.3110  -19.2092   20.3309 N   0  0  0  0  0  0
  -31.4248  -13.4040   19.2005 H   0  0  0  0  0  0
  -30.6073  -12.2893   20.2394 H   0  0  0  0  0  0
  -30.0377  -11.8470   17.8264 H   0  0  0  0  0  0
  -29.5222  -13.5032   17.6258 H   0  0  0  0  0  0
  -28.1757  -11.3133   19.2213 H   0  0  0  0  0  0
  -27.4794  -12.2397   17.9121 H   0  0  0  0  0  0
  -27.4575  -14.2343   19.2384 H   0  0  0  0  0  0
  -28.8670  -12.7856   21.5255 H   0  0  0  0  0  0
  -28.1525  -14.3729   21.6295 H   0  0  0  0  0  0
  -25.2804   -9.5683   22.4754 H   0  0  0  0  0  0
  -24.0019   -7.4648   22.7480 H   0  0  0  0  0  0
  -21.0875   -8.8797   19.8951 H   0  0  0  0  0  0
  -22.3754  -10.9676   19.6152 H   0  0  0  0  0  0
  -21.2016   -7.6153   23.9719 H   0  0  0  0  0  0
  -21.1483   -6.0524   25.9077 H   0  0  0  0  0  0
  -22.0594   -2.7614   23.2842 H   0  0  0  0  0  0
  -22.4054  -11.9808   22.4861 H   0  0  0  0  0  0
  -21.1014  -13.1123   22.2676 H   0  0  0  0  0  0
  -24.6234  -15.8533   20.5493 H   0  0  0  0  0  0
  -26.2407  -15.6517   20.1033 H   0  0  0  0  0  0
  -26.7542  -32.4881   23.0746 H   0  0  0  0  0  0
  -25.0045  -33.9282   24.9993 H   0  0  0  0  0  0
  -22.8500  -31.2294   21.3047 H   0  0  0  0  0  0
  -23.3778  -35.9444   23.3259 H   0  0  0  0  0  0
  -24.3561  -36.8861   22.2080 H   0  0  0  0  0  0
  -23.7237  -37.6288   23.6775 H   0  0  0  0  0  0
  -26.3149  -31.2220   20.6294 H   0  0  0  0  0  0
  -26.9525  -30.5726   22.0898 H   0  0  0  0  0  0
  -28.1716  -28.3178   21.3336 H   0  0  0  0  0  0
  -25.8277  -25.5833   19.0013 H   0  0  0  0  0  0
  -24.0460  -27.2021   18.9234 H   0  0  0  0  0  0
  -23.9601  -30.4375   19.3758 H   0  0  0  0  0  0
  -22.8827  -29.1502   19.8137 H   0  0  0  0  0  0
  -25.1362  -36.1623   25.0766 H   0  0  0  0  0  0
  -21.0063  -28.3421   24.1255 H   0  0  0  0  0  0
  -20.5662  -26.2416   23.3673 H   0  0  0  0  0  0
  -21.6667  -26.7371   22.1227 H   0  0  0  0  0  0
  -19.6938  -25.6257   21.1300 H   0  0  0  0  0  0
  -19.6729  -27.3134   20.6712 H   0  0  0  0  0  0
  -17.4236  -26.6693   21.4021 H   0  0  0  0  0  0
  -18.0352  -26.0113   22.9032 H   0  0  0  0  0  0
  -19.7991  -30.7351   24.2151 H   0  0  0  0  0  0
  -17.5054  -31.6277   24.5167 H   0  0  0  0  0  0
  -15.5390  -30.2961   23.7722 H   0  0  0  0  0  0
  -15.8724  -28.0800   22.7129 H   0  0  0  0  0  0
  -24.5871  -30.7144   25.7580 H   0  0  0  0  0  0
  -24.8806  -32.3056   26.4482 H   0  0  0  0  0  0
  -25.7813  -30.9141   27.0209 H   0  0  0  0  0  0
  -26.3285  -29.6412   24.1636 H   0  0  0  0  0  0
  -27.3957  -29.7298   25.5406 H   0  0  0  0  0  0
  -27.9274  -30.3929   24.0192 H   0  0  0  0  0  0
  -27.2568  -33.3752   26.1852 H   0  0  0  0  0  0
  -28.3969  -32.6807   25.0423 H   0  0  0  0  0  0
  -28.0578  -31.8659   26.5615 H   0  0  0  0  0  0
  -28.2541  -38.0054   24.7516 H   0  0  0  0  0  0
  -28.1096  -36.2575   24.6291 H   0  0  0  0  0  0
  -27.2276  -37.1355   25.8867 H   0  0  0  0  0  0
  -20.9763  -29.8667   21.6484 H   0  0  0  0  0  0
  -26.0089  -38.2684   24.1423 H   0  0  0  0  0  0
  -27.2845  -20.1029   20.0567 H   0  0  0  0  0  0
  -27.0356  -23.5193   20.7975 H   0  0  0  0  0  0
  -27.4572  -23.5925   19.1536 H   0  0  0  0  0  0
  -28.4112  -17.1274   19.8810 H   0  0  0  0  0  0
  -28.9175  -17.2542   21.5017 H   0  0  0  0  0  0
  1 25  1  0  0  0
  1 30  2  0  0  0
  1 74  1  0  0  0
  2  3  1  0  0  0
  2 25  1  0  0  0
  2 78  1  0  0  0
  2 79  1  0  0  0
  3  4  1  0  0  0
  3 80  1  0  0  0
  3 81  1  0  0  0
  4  5  1  0  0  0
  4 82  1  0  0  0
  4 83  1  0  0  0
  5  6  1  0  0  0
  5 26  1  0  0  0
  5 84  1  0  0  0
  6 25  1  0  0  0
  6 85  1  0  0  0
  6 86  1  0  0  0
  7  8  2  0  0  0
  7 26  1  0  0  0
  7 29  1  0  0  0
  8  9  1  0  0  0
  8 22  1  0  0  0
  9 10  1  0  0  0
  9 27  2  0  0  0
 10 11  2  0  0  0
 10 15  1  0  0  0
 11 12  1  0  0  0
 11 87  1  0  0  0
 12 13  2  0  0  0
 12 88  1  0  0  0
 13 14  1  0  0  0
 13 31  1  0  0  0
 14 15  2  0  0  0
 14 89  1  0  0  0
 15 90  1  0  0  0
 16 17  2  0  0  0
 16 21  1  0  0  0
 16 31  1  0  0  0
 17 18  1  0  0  0
 17 91  1  0  0  0
 18 19  2  0  0  0
 18 92  1  0  0  0
 19 20  1  0  0  0
 19 24  1  0  0  0
 20 21  2  0  0  0
 20 93  1  0  0  0
 21 23  1  0  0  0
 22 28  1  0  0  0
 22 32  2  0  0  0
 26 27  1  0  0  0
 28 94  1  0  0  0
 28 95  1  0  0  0
 29 96  1  0  0  0
 29 97  1  0  0  0
 33 34  1  0  0  0
 33 66  1  0  0  0
 33 70  2  0  0  0
 34 36  1  0  0  0
 34 59  1  0  0  0
 34 98  1  0  0  0
 35 44  2  0  0  0
 35 45  1  0  0  0
 35 68  1  0  0  0
 36 56  1  0  0  0
 36 99  1  0  0  0
 37 39  1  0  0  0
 37 47  1  0  0  0
 37 66  1  0  0  0
 37100  1  0  0  0
 38 43  2  0  0  0
 38 46  1  0  0  0
 38 47  1  0  0  0
 39 64  1  0  0  0
 39 67  2  0  0  0
 40 52  1  0  0  0
 40 53  2  0  0  0
 40 58  1  0  0  0
 41101  1  0  0  0
 41102  1  0  0  0
 41103  1  0  0  0
 41 48  1  0  0  0
 42 43  1  0  0  0
 42 66  1  0  0  0
 42104  1  0  0  0
 42105  1  0  0  0
 43 44  1  0  0  0
 44106  1  0  0  0
 45 46  2  0  0  0
 45107  1  0  0  0
 46108  1  0  0  0
 47109  1  0  0  0
 47110  1  0  0  0
 48 56  1  0  0  0
 48 65  1  0  0  0
 48111  1  0  0  0
 49 50  1  0  0  0
 49 53  1  0  0  0
 49 64  1  0  0  0
 49112  1  0  0  0
 50 51  1  0  0  0
 50113  1  0  0  0
 50114  1  0  0  0
 51 52  1  0  0  0
 51115  1  0  0  0
 51116  1  0  0  0
 52117  1  0  0  0
 52118  1  0  0  0
 53 54  1  0  0  0
 54 55  2  0  0  0
 54119  1  0  0  0
 55 57  1  0  0  0
 55120  1  0  0  0
 56 69  2  0  0  0
 57 58  2  0  0  0
 57121  1  0  0  0
 58122  1  0  0  0
 59 60  1  0  0  0
 59 61  1  0  0  0
 59 62  1  0  0  0
 60123  1  0  0  0
 60124  1  0  0  0
 60125  1  0  0  0
 61126  1  0  0  0
 61127  1  0  0  0
 61128  1  0  0  0
 62129  1  0  0  0
 62130  1  0  0  0
 62131  1  0  0  0
 63 65  1  0  0  0
 63132  1  0  0  0
 63133  1  0  0  0
 63134  1  0  0  0
 64135  1  0  0  0
 65136  1  0  0  0
 68 73  1  0  0  0
 71 72  2  0  0  0
 71 77  1  0  0  0
 71137  1  0  0  0
 72 73  1  0  0  0
 72 75  1  0  0  0
 73138  1  0  0  0
 73139  1  0  0  0
 74 77  1  0  0  0
 74140  1  0  0  0
 74141  1  0  0  0
 75 76  2  0  0  0
 76 77  1  0  0  0
M  ISO  4   1 100  68 101  73 101  74 100
M  END
> <chiral flag>
0

> <version>
0

> <s_m_source_file>
/data/baiqing/PycharmProjects/Reinvent-master-3.2/result/LINK_invent/BTK/process_docking_weight1_custom_sum_contain_oxygen_bond_distance_aromatic_linkinvent_7_9_3/rearranged_h_0056.sdf

> <i_m_source_file_index>
35

> <r_mmod_Potential_Energy-OPLS-2005>
2771.24365234375

> <r_mmod_Stretch_Energy-OPLS-2005>
1210.78405761719

> <r_mmod_Bend_Energy-OPLS-2005>
741.419921875

> <r_mmod_Torsional_Energy-OPLS-2005>
191.679443359375

> <r_mmod_Improper_Torsional_Energy-OPLS-2005>
2.64330124855042

> <r_mmod_Van_der_Waal_Energy-OPLS-2005>
106.932884216309

> <r_mmod_Electrostatic_Energy-OPLS-2005>
-286.950469970703

> <r_mmod_Solvation_Energy-OPLS-2005>
-240.889114379883

> <b_mmod_Minimization_Converged-OPLS-2005>
1

> <r_mmod_RMS_Derivative-OPLS-2005>
0.0361950732767582

$$$$
37
                    3D
 Structure written by MMmdl.
166174  0  0  1  0            999 V2000
  -30.6223  -14.7455   20.5297 C   0  0  0  0  0  0
  -30.4322  -12.4830   19.4565 C   0  0  0  0  0  0
  -29.5014  -12.5265   18.2244 C   0  0  0  0  0  0
  -28.0215  -12.3632   18.6268 C   0  0  0  0  0  0
  -27.6391  -13.2295   19.8572 C   0  0  2  0  0  0
  -28.6869  -13.0925   20.9789 C   0  0  0  0  0  0
  -25.2473  -13.8191   20.5659 C   0  0  0  0  0  0
  -24.1775  -13.0451   20.9214 C   0  0  0  0  0  0
  -24.6362  -11.6927   20.8739 C   0  0  0  0  0  0
  -23.9052  -10.4315   21.0403 C   0  0  0  0  0  0
  -24.3612   -9.4227   21.9179 C   0  0  0  0  0  0
  -23.6303   -8.2250   22.0743 C   0  0  0  0  0  0
  -22.4279   -8.0279   21.3546 C   0  0  0  0  0  0
  -21.9909   -9.0245   20.4639 C   0  0  0  0  0  0
  -22.7216  -10.2143   20.3055 C   0  0  0  0  0  0
  -21.6846   -6.0738   22.5272 C   0  0  0  0  0  0
  -21.4002   -6.5644   23.8204 C   0  0  0  0  0  0
  -21.3665   -5.6804   24.9161 C   0  0  0  0  0  0
  -21.6054   -4.3069   24.7223 C   0  0  0  0  0  0
  -21.8812   -3.8148   23.4344 C   0  0  0  0  0  0
  -21.9197   -4.6967   22.3390 C   0  0  0  0  0  0
  -22.7804  -13.5233   21.1883 C   0  0  0  0  0  0
  -22.1660   -4.2145   21.0981 F   0  0  0  0  0  0
  -21.5643   -3.4551   25.7742 F   0  0  0  0  0  0
  -29.9744  -13.5254   20.4131 N   0  0  0  0  0  0
  -26.2909  -12.9383   20.3273 N   0  0  0  0  0  0
  -25.9284  -11.6543   20.5736 N   0  0  0  0  0  0
  -22.0457  -12.8207   22.0438 N   0  0  0  0  0  0
  -25.4195  -15.1898   20.4011 N   0  0  0  0  0  0
  -31.7933  -14.8150   20.1382 O   0  0  0  0  0  0
  -21.6643   -6.8867   21.4237 O   0  0  0  0  0  0
  -22.3478  -14.5538   20.6731 O   0  0  0  0  0  0
  -24.6323  -31.8587   23.2041 C   0  0  0  0  0  0
  -25.9181  -32.4773   23.8406 C   0  0  1  0  0  0
  -27.2090  -27.2638   20.1218 C   0  0  0  0  0  0
  -25.5965  -33.8583   24.2315 N   0  0  0  0  0  0
  -23.4279  -30.4763   21.5523 C   0  0  2  0  0  0
  -24.8654  -28.9311   20.1136 C   0  0  0  0  0  0
  -22.7481  -29.4552   22.4978 C   0  0  0  0  0  0
  -18.0308  -28.1349   22.8481 C   0  0  0  0  0  0
  -24.1492  -36.7245   23.2665 C   0  0  0  0  0  0
  -25.9757  -30.7645   21.3939 C   0  0  0  0  0  0
  -26.0385  -29.3923   20.7214 C   0  0  0  0  0  0
  -27.2093  -28.5701   20.7175 C   0  0  0  0  0  0
  -26.0008  -26.8531   19.5126 C   0  0  0  0  0  0
  -24.8487  -27.6664   19.5036 C   0  0  0  0  0  0
  -23.6404  -29.8209   20.1644 C   0  0  0  0  0  0
  -25.4124  -36.3067   24.0366 C   0  0  1  0  0  0
  -20.5915  -28.3696   23.1250 C   0  0  2  0  0  0
  -20.6804  -26.9395   22.5424 C   0  0  0  0  0  0
  -19.5805  -26.6360   21.5197 C   0  0  0  0  0  0
  -18.1954  -26.7910   22.1561 C   0  0  0  0  0  0
  -19.1567  -28.8842   23.2831 C   0  0  0  0  0  0
  -18.9481  -30.1441   23.8854 C   0  0  0  0  0  0
  -17.6483  -30.6567   24.0533 C   0  0  0  0  0  0
  -25.9070  -34.9442   23.5126 C   0  0  0  0  0  0
  -16.5369  -29.9076   23.6320 C   0  0  0  0  0  0
  -16.7291  -28.6484   23.0326 C   0  0  0  0  0  0
  -26.4515  -31.6632   25.0822 C   0  0  0  0  0  0
  -25.3685  -31.3803   26.1503 C   0  0  0  0  0  0
  -27.0446  -30.3054   24.6430 C   0  0  0  0  0  0
  -27.6061  -32.4412   25.7560 C   0  0  0  0  0  0
  -27.5590  -37.1746   24.8472 C   0  0  0  0  0  0
  -21.4192  -29.3038   22.3670 N   0  0  0  0  0  0
  -26.4297  -37.3756   23.9426 N   0  0  0  0  0  0
  -24.6962  -31.0499   22.1060 N   0  0  0  0  0  0
  -23.4134  -28.8046   23.3088 O   0  0  0  0  0  0
  -28.3255  -26.4004   20.2014 O   0  0  0  0  0  0
  -26.5616  -34.8868   22.4682 O   0  0  0  0  0  0
  -23.5462  -32.1475   23.7233 O   0  0  0  0  0  0
  -30.1794  -19.9955   20.5832 C   0  0  0  0  0  0
  -29.7436  -18.6824   20.3723 C   0  0  0  0  0  0
  -28.0753  -20.1855   19.9971 C   0  0  0  0  0  0
  -26.6693  -20.5568   19.6409 C   0  0  0  0  0  0
  -27.0505  -23.7328   21.1609 C   0  0  0  0  0  0
  -30.5928  -22.8903   19.7006 C   0  0  0  0  0  0
  -29.6738  -22.7543   21.9995 C   0  0  0  0  0  0
  -29.0556  -16.0593   21.9726 C   0  0  0  0  0  0
  -30.5159  -17.3005   20.4081 C   0  0  0  0  0  0
  -28.4210  -25.0931   19.4747 C   0  0  0  0  0  0
  -28.1471  -23.5976   20.0885 C   0  0  1  0  0  0
  -29.3265  -22.5128   20.5055 C   0  0  0  0  0  0
  -29.1581  -20.9415   20.3461 N   0  0  0  0  0  0
  -28.4416  -18.8797   19.9945 N   0  3  0  0  0  0
  -29.9257  -15.9392   20.7933 N   0  0  0  0  0  0
  -31.4602  -12.6379   19.1270 H   0  0  0  0  0  0
  -30.4207  -11.4960   19.9195 H   0  0  0  0  0  0
  -29.7815  -11.7517   17.5092 H   0  0  0  0  0  0
  -29.6298  -13.4786   17.7077 H   0  0  0  0  0  0
  -27.8478  -11.3088   18.8436 H   0  0  0  0  0  0
  -27.3761  -12.6080   17.7793 H   0  0  0  0  0  0
  -27.6509  -14.2667   19.5222 H   0  0  0  0  0  0
  -28.7433  -12.0559   21.3125 H   0  0  0  0  0  0
  -28.3891  -13.6415   21.8643 H   0  0  0  0  0  0
  -25.2754   -9.5718   22.4745 H   0  0  0  0  0  0
  -24.0020   -7.4646   22.7456 H   0  0  0  0  0  0
  -21.0836   -8.8756   19.8936 H   0  0  0  0  0  0
  -22.3657  -10.9682   19.6163 H   0  0  0  0  0  0
  -21.1970   -7.6145   23.9690 H   0  0  0  0  0  0
  -21.1500   -6.0540   25.9071 H   0  0  0  0  0  0
  -22.0588   -2.7609   23.2843 H   0  0  0  0  0  0
  -22.4129  -11.9883   22.4824 H   0  0  0  0  0  0
  -21.1053  -13.1161   22.2628 H   0  0  0  0  0  0
  -24.6505  -15.8450   20.4806 H   0  0  0  0  0  0
  -26.2655  -15.6093   20.0429 H   0  0  0  0  0  0
  -26.7236  -32.5332   23.1138 H   0  0  0  0  0  0
  -25.0159  -33.9847   25.0477 H   0  0  0  0  0  0
  -22.7254  -31.3020   21.4098 H   0  0  0  0  0  0
  -23.3794  -35.9529   23.3326 H   0  0  0  0  0  0
  -24.3556  -36.8857   22.2067 H   0  0  0  0  0  0
  -23.7171  -37.6420   23.6677 H   0  0  0  0  0  0
  -26.1513  -31.5364   20.6434 H   0  0  0  0  0  0
  -26.8383  -30.7770   22.0503 H   0  0  0  0  0  0
  -28.1044  -28.9195   21.2122 H   0  0  0  0  0  0
  -25.8946  -25.8713   19.0791 H   0  0  0  0  0  0
  -23.9384  -27.3008   19.0498 H   0  0  0  0  0  0
  -23.7708  -30.6102   19.4242 H   0  0  0  0  0  0
  -22.7563  -29.2688   19.8438 H   0  0  0  0  0  0
  -25.1254  -36.1959   25.0852 H   0  0  0  0  0  0
  -20.9965  -28.3302   24.1386 H   0  0  0  0  0  0
  -20.5675  -26.2268   23.3611 H   0  0  0  0  0  0
  -21.6664  -26.7389   22.1196 H   0  0  0  0  0  0
  -19.6972  -25.6253   21.1267 H   0  0  0  0  0  0
  -19.6818  -27.3138   20.6691 H   0  0  0  0  0  0
  -17.4218  -26.6686   21.3951 H   0  0  0  0  0  0
  -18.0293  -26.0046   22.8928 H   0  0  0  0  0  0
  -19.7974  -30.7253   24.2171 H   0  0  0  0  0  0
  -17.5065  -31.6247   24.5163 H   0  0  0  0  0  0
  -15.5372  -30.2953   23.7760 H   0  0  0  0  0  0
  -15.8642  -28.0824   22.7084 H   0  0  0  0  0  0
  -24.5942  -30.7080   25.7827 H   0  0  0  0  0  0
  -24.8771  -32.2952   26.4798 H   0  0  0  0  0  0
  -25.7966  -30.9091   27.0350 H   0  0  0  0  0  0
  -26.3122  -29.6706   24.1460 H   0  0  0  0  0  0
  -27.4111  -29.7434   25.5019 H   0  0  0  0  0  0
  -27.8960  -30.4344   23.9753 H   0  0  0  0  0  0
  -27.2755  -33.3836   26.1931 H   0  0  0  0  0  0
  -28.3943  -32.6783   25.0410 H   0  0  0  0  0  0
  -28.0641  -31.8671   26.5626 H   0  0  0  0  0  0
  -28.2533  -38.0114   24.7541 H   0  0  0  0  0  0
  -28.1147  -36.2615   24.6244 H   0  0  0  0  0  0
  -27.2273  -37.1261   25.8867 H   0  0  0  0  0  0
  -20.9381  -29.8759   21.6866 H   0  0  0  0  0  0
  -26.0199  -38.2817   24.1506 H   0  0  0  0  0  0
  -31.1716  -20.3117   20.8756 H   0  0  0  0  0  0
  -26.3874  -21.5255   20.0206 H   0  0  0  0  0  0
  -26.0123  -19.8164   20.1009 H   0  0  0  0  0  0
  -26.5402  -20.5083   18.5589 H   0  0  0  0  0  0
  -26.1010  -24.0371   20.7182 H   0  0  0  0  0  0
  -27.3160  -24.4877   21.9031 H   0  0  0  0  0  0
  -26.8868  -22.7909   21.6822 H   0  0  0  0  0  0
  -30.8947  -23.9215   19.8732 H   0  0  0  0  0  0
  -30.4411  -22.7422   18.6302 H   0  0  0  0  0  0
  -31.4648  -22.3068   19.9911 H   0  0  0  0  0  0
  -29.7578  -23.8182   22.2182 H   0  0  0  0  0  0
  -30.6191  -22.2972   22.2984 H   0  0  0  0  0  0
  -28.9133  -22.3363   22.6630 H   0  0  0  0  0  0
  -28.0191  -15.8101   21.7482 H   0  0  0  0  0  0
  -29.0539  -17.0649   22.3967 H   0  0  0  0  0  0
  -29.4076  -15.4076   22.7740 H   0  0  0  0  0  0
  -31.3492  -17.4482   21.0948 H   0  0  0  0  0  0
  -30.9883  -17.2026   19.4301 H   0  0  0  0  0  0
  -29.3992  -25.1202   19.0046 H   0  0  0  0  0  0
  -27.7961  -25.1795   18.5863 H   0  0  0  0  0  0
  -27.6747  -23.1136   19.2334 H   0  0  0  0  0  0
  -27.8144  -18.1335   19.7072 H   0  0  0  0  0  0
  1 25  1  0  0  0
  1 30  2  0  0  0
  1 85  1  0  0  0
  2  3  1  0  0  0
  2 25  1  0  0  0
  2 86  1  0  0  0
  2 87  1  0  0  0
  3  4  1  0  0  0
  3 88  1  0  0  0
  3 89  1  0  0  0
  4  5  1  0  0  0
  4 90  1  0  0  0
  4 91  1  0  0  0
  5  6  1  0  0  0
  5 26  1  0  0  0
  5 92  1  0  0  0
  6 25  1  0  0  0
  6 93  1  0  0  0
  6 94  1  0  0  0
  7  8  2  0  0  0
  7 26  1  0  0  0
  7 29  1  0  0  0
  8  9  1  0  0  0
  8 22  1  0  0  0
  9 10  1  0  0  0
  9 27  2  0  0  0
 10 11  2  0  0  0
 10 15  1  0  0  0
 11 12  1  0  0  0
 11 95  1  0  0  0
 12 13  2  0  0  0
 12 96  1  0  0  0
 13 14  1  0  0  0
 13 31  1  0  0  0
 14 15  2  0  0  0
 14 97  1  0  0  0
 15 98  1  0  0  0
 16 17  2  0  0  0
 16 21  1  0  0  0
 16 31  1  0  0  0
 17 18  1  0  0  0
 17 99  1  0  0  0
 18 19  2  0  0  0
 18100  1  0  0  0
 19 20  1  0  0  0
 19 24  1  0  0  0
 20 21  2  0  0  0
 20101  1  0  0  0
 21 23  1  0  0  0
 22 28  1  0  0  0
 22 32  2  0  0  0
 26 27  1  0  0  0
 28102  1  0  0  0
 28103  1  0  0  0
 29104  1  0  0  0
 29105  1  0  0  0
 33 34  1  0  0  0
 33 66  1  0  0  0
 33 70  2  0  0  0
 34 36  1  0  0  0
 34 59  1  0  0  0
 34106  1  0  0  0
 35 44  2  0  0  0
 35 45  1  0  0  0
 35 68  1  0  0  0
 36 56  1  0  0  0
 36107  1  0  0  0
 37 39  1  0  0  0
 37 47  1  0  0  0
 37 66  1  0  0  0
 37108  1  0  0  0
 38 43  2  0  0  0
 38 46  1  0  0  0
 38 47  1  0  0  0
 39 64  1  0  0  0
 39 67  2  0  0  0
 40 52  1  0  0  0
 40 53  2  0  0  0
 40 58  1  0  0  0
 41109  1  0  0  0
 41110  1  0  0  0
 41111  1  0  0  0
 41 48  1  0  0  0
 42 43  1  0  0  0
 42 66  1  0  0  0
 42112  1  0  0  0
 42113  1  0  0  0
 43 44  1  0  0  0
 44114  1  0  0  0
 45 46  2  0  0  0
 45115  1  0  0  0
 46116  1  0  0  0
 47117  1  0  0  0
 47118  1  0  0  0
 48 56  1  0  0  0
 48 65  1  0  0  0
 48119  1  0  0  0
 49 50  1  0  0  0
 49 53  1  0  0  0
 49 64  1  0  0  0
 49120  1  0  0  0
 50 51  1  0  0  0
 50121  1  0  0  0
 50122  1  0  0  0
 51 52  1  0  0  0
 51123  1  0  0  0
 51124  1  0  0  0
 52125  1  0  0  0
 52126  1  0  0  0
 53 54  1  0  0  0
 54 55  2  0  0  0
 54127  1  0  0  0
 55 57  1  0  0  0
 55128  1  0  0  0
 56 69  2  0  0  0
 57 58  2  0  0  0
 57129  1  0  0  0
 58130  1  0  0  0
 59 60  1  0  0  0
 59 61  1  0  0  0
 59 62  1  0  0  0
 60131  1  0  0  0
 60132  1  0  0  0
 60133  1  0  0  0
 61134  1  0  0  0
 61135  1  0  0  0
 61136  1  0  0  0
 62137  1  0  0  0
 62138  1  0  0  0
 62139  1  0  0  0
 63 65  1  0  0  0
 63140  1  0  0  0
 63141  1  0  0  0
 63142  1  0  0  0
 64143  1  0  0  0
 65144  1  0  0  0
 68 80  1  0  0  0
 71 72  2  0  0  0
 71 83  1  0  0  0
 71145  1  0  0  0
 72 79  1  0  0  0
 72 84  1  0  0  0
 73 74  1  0  0  0
 73 83  1  0  0  0
 73 84  2  0  0  0
 74146  1  0  0  0
 74147  1  0  0  0
 74148  1  0  0  0
 75149  1  0  0  0
 75150  1  0  0  0
 75151  1  0  0  0
 75 81  1  0  0  0
 76152  1  0  0  0
 76153  1  0  0  0
 76154  1  0  0  0
 76 82  1  0  0  0
 77 82  1  0  0  0
 77155  1  0  0  0
 77156  1  0  0  0
 77157  1  0  0  0
 78 85  1  0  0  0
 78158  1  0  0  0
 78159  1  0  0  0
 78160  1  0  0  0
 79 85  1  0  0  0
 79161  1  0  0  0
 79162  1  0  0  0
 80 81  1  0  0  0
 80163  1  0  0  0
 80164  1  0  0  0
 81 82  1  0  0  0
 81165  1  0  0  0
 82 83  1  0  0  0
 84166  1  0  0  0
M  CHG  1  84   1
M  ISO  4   1 100  68 101  80 101  85 100
M  END
> <chiral flag>
0

> <version>
0

> <s_m_source_file>
/data/baiqing/PycharmProjects/Reinvent-master-3.2/result/LINK_invent/BTK/process_docking_weight1_custom_sum_contain_oxygen_bond_distance_aromatic_linkinvent_7_9_3/rearranged_h_0056.sdf

> <i_m_source_file_index>
36

> <r_mmod_Potential_Energy-OPLS-2005>
348.308258056641

> <r_mmod_Stretch_Energy-OPLS-2005>
150.730087280273

> <r_mmod_Bend_Energy-OPLS-2005>
249.857391357422

> <r_mmod_Torsional_Energy-OPLS-2005>
307.553894042969

> <r_mmod_Improper_Torsional_Energy-OPLS-2005>
9.8342809677124

> <r_mmod_Van_der_Waal_Energy-OPLS-2005>
136.766967773438

> <r_mmod_Electrostatic_Energy-OPLS-2005>
-185.771133422852

> <r_mmod_Solvation_Energy-OPLS-2005>
-400.137115478516

> <b_mmod_Minimization_Converged-OPLS-2005>
0

> <r_mmod_RMS_Derivative-OPLS-2005>
5.91114139556885

$$$$
38
                    3D
 Structure written by MMmdl.
153161  0  0  1  0            999 V2000
  -30.5020  -14.9657   20.4654 C   0  0  0  0  0  0
  -30.4555  -12.6015   19.4965 C   0  0  0  0  0  0
  -29.5291  -12.5463   18.2573 C   0  0  0  0  0  0
  -28.0609  -12.3226   18.6707 C   0  0  0  0  0  0
  -27.6375  -13.2427   19.8442 C   0  0  2  0  0  0
  -28.6800  -13.2384   20.9817 C   0  0  0  0  0  0
  -25.2506  -13.8203   20.5703 C   0  0  0  0  0  0
  -24.1808  -13.0436   20.9209 C   0  0  0  0  0  0
  -24.6414  -11.6915   20.8737 C   0  0  0  0  0  0
  -23.9089  -10.4290   21.0399 C   0  0  0  0  0  0
  -24.3633   -9.4204   21.9179 C   0  0  0  0  0  0
  -23.6299   -8.2243   22.0756 C   0  0  0  0  0  0
  -22.4280   -8.0283   21.3545 C   0  0  0  0  0  0
  -21.9920   -9.0258   20.4645 C   0  0  0  0  0  0
  -22.7256  -10.2132   20.3050 C   0  0  0  0  0  0
  -21.6854   -6.0738   22.5280 C   0  0  0  0  0  0
  -21.4015   -6.5642   23.8212 C   0  0  0  0  0  0
  -21.3658   -5.6795   24.9175 C   0  0  0  0  0  0
  -21.6043   -4.3057   24.7226 C   0  0  0  0  0  0
  -21.8818   -3.8148   23.4346 C   0  0  0  0  0  0
  -21.9193   -4.6966   22.3403 C   0  0  0  0  0  0
  -22.7827  -13.5212   21.1863 C   0  0  0  0  0  0
  -22.1661   -4.2152   21.0979 F   0  0  0  0  0  0
  -21.5629   -3.4539   25.7737 F   0  0  0  0  0  0
  -29.9584  -13.6776   20.4030 N   0  0  0  0  0  0
  -26.2931  -12.9423   20.3249 N   0  0  0  0  0  0
  -25.9349  -11.6555   20.5727 N   0  0  0  0  0  0
  -22.0478  -12.8199   22.0419 N   0  0  0  0  0  0
  -25.4179  -15.1930   20.4131 N   0  0  0  0  0  0
  -31.6703  -15.0786   20.0717 O   0  0  0  0  0  0
  -21.6641   -6.8880   21.4241 O   0  0  0  0  0  0
  -22.3504  -14.5512   20.6704 O   0  0  0  0  0  0
  -24.6455  -31.8422   23.1852 C   0  0  0  0  0  0
  -25.9217  -32.4684   23.8253 C   0  0  1  0  0  0
  -27.2210  -27.1183   20.1511 C   0  0  0  0  0  0
  -25.5954  -33.8491   24.2173 N   0  0  0  0  0  0
  -23.4506  -30.4604   21.5316 C   0  0  2  0  0  0
  -24.9013  -28.8844   20.1084 C   0  0  0  0  0  0
  -22.7581  -29.4537   22.4843 C   0  0  0  0  0  0
  -18.0307  -28.1401   22.8474 C   0  0  0  0  0  0
  -24.1491  -36.7251   23.2644 C   0  0  0  0  0  0
  -26.0080  -30.7102   21.3874 C   0  0  0  0  0  0
  -26.0795  -29.3198   20.7282 C   0  0  0  0  0  0
  -27.2393  -28.4535   20.7315 C   0  0  0  0  0  0
  -26.0158  -26.7906   19.4900 C   0  0  0  0  0  0
  -24.8835  -27.6337   19.4736 C   0  0  0  0  0  0
  -23.6781  -29.7880   20.1515 C   0  0  0  0  0  0
  -25.4127  -36.3028   24.0312 C   0  0  1  0  0  0
  -20.5920  -28.3729   23.1223 C   0  0  2  0  0  0
  -20.6790  -26.9426   22.5407 C   0  0  0  0  0  0
  -19.5765  -26.6385   21.5215 C   0  0  0  0  0  0
  -18.1943  -26.7940   22.1622 C   0  0  0  0  0  0
  -19.1564  -28.8883   23.2838 C   0  0  0  0  0  0
  -18.9483  -30.1477   23.8866 C   0  0  0  0  0  0
  -17.6479  -30.6594   24.0563 C   0  0  0  0  0  0
  -25.9081  -34.9403   23.5057 C   0  0  0  0  0  0
  -16.5368  -29.9091   23.6338 C   0  0  0  0  0  0
  -16.7292  -28.6512   23.0353 C   0  0  0  0  0  0
  -26.4525  -31.6558   25.0704 C   0  0  0  0  0  0
  -25.3691  -31.3754   26.1384 C   0  0  0  0  0  0
  -27.0395  -30.2948   24.6306 C   0  0  0  0  0  0
  -27.6057  -32.4327   25.7488 C   0  0  0  0  0  0
  -27.5576  -37.1778   24.8467 C   0  0  0  0  0  0
  -21.4270  -29.3049   22.3590 N   0  0  0  0  0  0
  -26.4291  -37.3742   23.9406 N   0  0  0  0  0  0
  -24.7211  -31.0262   22.0892 N   0  0  0  0  0  0
  -23.4215  -28.8087   23.3004 O   0  0  0  0  0  0
  -28.2676  -26.1198   20.2290 O   0  0  0  0  0  0
  -26.5676  -34.8906   22.4642 O   0  0  0  0  0  0
  -23.5571  -32.1310   23.7059 O   0  0  0  0  0  0
  -29.2203  -20.1608   20.2773 C   0  0  0  0  0  0
  -28.7464  -18.9208   20.7775 C   0  0  0  0  0  0
  -27.4379  -18.6829   21.4627 C   0  0  0  0  0  0
  -29.9322  -16.3570   22.5482 C   0  0  0  0  0  0
  -28.4777  -21.6300   20.0372 C   0  0  0  0  0  0
  -28.9474  -23.2243   20.3732 C   0  0  0  0  0  0
  -27.9902  -24.5901   20.0279 C   0  0  0  0  0  0
  -29.6797  -16.3111   21.0291 C   0  0  1  0  0  0
  -30.4549  -19.7558   19.7223 N   0  0  0  0  0  0
  -30.7284  -18.4591   19.9167 N   0  0  0  0  0  0
  -29.6820  -17.8354   20.5369 N   0  0  0  0  0  0
  -31.4852  -12.7776   19.1824 H   0  0  0  0  0  0
  -30.4664  -11.6408   20.0141 H   0  0  0  0  0  0
  -29.8520  -11.7565   17.5773 H   0  0  0  0  0  0
  -29.6121  -13.4819   17.7024 H   0  0  0  0  0  0
  -27.9561  -11.2780   18.9669 H   0  0  0  0  0  0
  -27.3987  -12.4650   17.8156 H   0  0  0  0  0  0
  -27.6098  -14.2516   19.4324 H   0  0  0  0  0  0
  -28.7714  -12.2456   21.4250 H   0  0  0  0  0  0
  -28.3675  -13.8996   21.7901 H   0  0  0  0  0  0
  -25.2781   -9.5677   22.4749 H   0  0  0  0  0  0
  -24.0006   -7.4637   22.7479 H   0  0  0  0  0  0
  -21.0849   -8.8778   19.8952 H   0  0  0  0  0  0
  -22.3718  -10.9670   19.6155 H   0  0  0  0  0  0
  -21.2007   -7.6150   23.9716 H   0  0  0  0  0  0
  -21.1480   -6.0525   25.9078 H   0  0  0  0  0  0
  -22.0598   -2.7610   23.2847 H   0  0  0  0  0  0
  -22.4110  -11.9873   22.4815 H   0  0  0  0  0  0
  -21.1089  -13.1209   22.2615 H   0  0  0  0  0  0
  -24.6444  -15.8405   20.5172 H   0  0  0  0  0  0
  -26.2567  -15.6329   20.0588 H   0  0  0  0  0  0
  -26.7284  -32.5286   23.0982 H   0  0  0  0  0  0
  -25.0053  -33.9600   25.0288 H   0  0  0  0  0  0
  -22.7547  -31.2871   21.3746 H   0  0  0  0  0  0
  -23.3759  -35.9575   23.3296 H   0  0  0  0  0  0
  -24.3575  -36.8899   22.2061 H   0  0  0  0  0  0
  -23.7238  -37.6438   23.6691 H   0  0  0  0  0  0
  -26.1683  -31.4645   20.6157 H   0  0  0  0  0  0
  -26.8761  -30.7596   22.0330 H   0  0  0  0  0  0
  -28.1355  -28.7814   21.2389 H   0  0  0  0  0  0
  -25.9134  -25.8349   18.9985 H   0  0  0  0  0  0
  -23.9844  -27.2952   18.9773 H   0  0  0  0  0  0
  -23.8164  -30.5618   19.3953 H   0  0  0  0  0  0
  -22.7926  -29.2304   19.8414 H   0  0  0  0  0  0
  -25.1312  -36.1859   25.0803 H   0  0  0  0  0  0
  -21.0010  -28.3333   24.1343 H   0  0  0  0  0  0
  -20.5683  -26.2345   23.3633 H   0  0  0  0  0  0
  -21.6656  -26.7438   22.1199 H   0  0  0  0  0  0
  -19.6928  -25.6290   21.1261 H   0  0  0  0  0  0
  -19.6702  -27.3179   20.6727 H   0  0  0  0  0  0
  -17.4215  -26.6684   21.4025 H   0  0  0  0  0  0
  -18.0339  -26.0091   22.9026 H   0  0  0  0  0  0
  -19.7959  -30.7297   24.2225 H   0  0  0  0  0  0
  -17.5035  -31.6269   24.5170 H   0  0  0  0  0  0
  -15.5368  -30.2982   23.7677 H   0  0  0  0  0  0
  -15.8695  -28.0824   22.7076 H   0  0  0  0  0  0
  -24.5912  -30.7056   25.7698 H   0  0  0  0  0  0
  -24.8825  -32.2928   26.4701 H   0  0  0  0  0  0
  -25.7955  -30.9010   27.0231 H   0  0  0  0  0  0
  -26.3017  -29.6653   24.1317 H   0  0  0  0  0  0
  -27.3996  -29.7269   25.4894 H   0  0  0  0  0  0
  -27.8929  -30.4170   23.9634 H   0  0  0  0  0  0
  -27.2667  -33.3677   26.1964 H   0  0  0  0  0  0
  -28.3913  -32.6804   25.0337 H   0  0  0  0  0  0
  -28.0664  -31.8513   26.5485 H   0  0  0  0  0  0
  -28.2581  -38.0085   24.7518 H   0  0  0  0  0  0
  -28.1084  -36.2612   24.6292 H   0  0  0  0  0  0
  -27.2294  -37.1424   25.8870 H   0  0  0  0  0  0
  -20.9486  -29.8769   21.6768 H   0  0  0  0  0  0
  -26.0158  -38.2809   24.1412 H   0  0  0  0  0  0
  -26.6371  -19.2392   20.9751 H   0  0  0  0  0  0
  -27.4848  -19.0062   22.5027 H   0  0  0  0  0  0
  -27.1519  -17.6323   21.4538 H   0  0  0  0  0  0
  -29.1513  -16.9192   23.0598 H   0  0  0  0  0  0
  -30.8843  -16.8409   22.7674 H   0  0  0  0  0  0
  -29.9576  -15.3632   22.9962 H   0  0  0  0  0  0
  -27.5049  -21.5455   20.5215 H   0  0  0  0  0  0
  -28.2172  -21.6501   18.9789 H   0  0  0  0  0  0
  -29.9023  -23.3784   19.8710 H   0  0  0  0  0  0
  -29.1820  -23.2658   21.4369 H   0  0  0  0  0  0
  -27.0483  -24.4057   20.5459 H   0  0  0  0  0  0
  -27.7483  -24.4973   18.9692 H   0  0  0  0  0  0
  -28.6437  -16.0089   20.8952 H   0  0  0  0  0  0
  1 25  1  0  0  0
  1 30  2  0  0  0
  1 78  1  0  0  0
  2  3  1  0  0  0
  2 25  1  0  0  0
  2 82  1  0  0  0
  2 83  1  0  0  0
  3  4  1  0  0  0
  3 84  1  0  0  0
  3 85  1  0  0  0
  4  5  1  0  0  0
  4 86  1  0  0  0
  4 87  1  0  0  0
  5  6  1  0  0  0
  5 26  1  0  0  0
  5 88  1  0  0  0
  6 25  1  0  0  0
  6 89  1  0  0  0
  6 90  1  0  0  0
  7  8  2  0  0  0
  7 26  1  0  0  0
  7 29  1  0  0  0
  8  9  1  0  0  0
  8 22  1  0  0  0
  9 10  1  0  0  0
  9 27  2  0  0  0
 10 11  2  0  0  0
 10 15  1  0  0  0
 11 12  1  0  0  0
 11 91  1  0  0  0
 12 13  2  0  0  0
 12 92  1  0  0  0
 13 14  1  0  0  0
 13 31  1  0  0  0
 14 15  2  0  0  0
 14 93  1  0  0  0
 15 94  1  0  0  0
 16 17  2  0  0  0
 16 21  1  0  0  0
 16 31  1  0  0  0
 17 18  1  0  0  0
 17 95  1  0  0  0
 18 19  2  0  0  0
 18 96  1  0  0  0
 19 20  1  0  0  0
 19 24  1  0  0  0
 20 21  2  0  0  0
 20 97  1  0  0  0
 21 23  1  0  0  0
 22 28  1  0  0  0
 22 32  2  0  0  0
 26 27  1  0  0  0
 28 98  1  0  0  0
 28 99  1  0  0  0
 29100  1  0  0  0
 29101  1  0  0  0
 33 34  1  0  0  0
 33 66  1  0  0  0
 33 70  2  0  0  0
 34 36  1  0  0  0
 34 59  1  0  0  0
 34102  1  0  0  0
 35 44  2  0  0  0
 35 45  1  0  0  0
 35 68  1  0  0  0
 36 56  1  0  0  0
 36103  1  0  0  0
 37 39  1  0  0  0
 37 47  1  0  0  0
 37 66  1  0  0  0
 37104  1  0  0  0
 38 43  2  0  0  0
 38 46  1  0  0  0
 38 47  1  0  0  0
 39 64  1  0  0  0
 39 67  2  0  0  0
 40 52  1  0  0  0
 40 53  2  0  0  0
 40 58  1  0  0  0
 41105  1  0  0  0
 41106  1  0  0  0
 41107  1  0  0  0
 41 48  1  0  0  0
 42 43  1  0  0  0
 42 66  1  0  0  0
 42108  1  0  0  0
 42109  1  0  0  0
 43 44  1  0  0  0
 44110  1  0  0  0
 45 46  2  0  0  0
 45111  1  0  0  0
 46112  1  0  0  0
 47113  1  0  0  0
 47114  1  0  0  0
 48 56  1  0  0  0
 48 65  1  0  0  0
 48115  1  0  0  0
 49 50  1  0  0  0
 49 53  1  0  0  0
 49 64  1  0  0  0
 49116  1  0  0  0
 50 51  1  0  0  0
 50117  1  0  0  0
 50118  1  0  0  0
 51 52  1  0  0  0
 51119  1  0  0  0
 51120  1  0  0  0
 52121  1  0  0  0
 52122  1  0  0  0
 53 54  1  0  0  0
 54 55  2  0  0  0
 54123  1  0  0  0
 55 57  1  0  0  0
 55124  1  0  0  0
 56 69  2  0  0  0
 57 58  2  0  0  0
 57125  1  0  0  0
 58126  1  0  0  0
 59 60  1  0  0  0
 59 61  1  0  0  0
 59 62  1  0  0  0
 60127  1  0  0  0
 60128  1  0  0  0
 60129  1  0  0  0
 61130  1  0  0  0
 61131  1  0  0  0
 61132  1  0  0  0
 62133  1  0  0  0
 62134  1  0  0  0
 62135  1  0  0  0
 63 65  1  0  0  0
 63136  1  0  0  0
 63137  1  0  0  0
 63138  1  0  0  0
 64139  1  0  0  0
 65140  1  0  0  0
 68 77  1  0  0  0
 71 72  2  0  0  0
 71 75  1  0  0  0
 71 79  1  0  0  0
 72 73  1  0  0  0
 72 81  1  0  0  0
 73141  1  0  0  0
 73142  1  0  0  0
 73143  1  0  0  0
 74144  1  0  0  0
 74145  1  0  0  0
 74146  1  0  0  0
 74 78  1  0  0  0
 75 76  1  0  0  0
 75147  1  0  0  0
 75148  1  0  0  0
 76 77  1  0  0  0
 76149  1  0  0  0
 76150  1  0  0  0
 77151  1  0  0  0
 77152  1  0  0  0
 78 81  1  0  0  0
 78153  1  0  0  0
 79 80  2  0  0  0
 80 81  1  0  0  0
M  ISO  4   1 100  68 101  77 101  78 100
M  END
> <chiral flag>
0

> <version>
0

> <s_m_source_file>
/data/baiqing/PycharmProjects/Reinvent-master-3.2/result/LINK_invent/BTK/process_docking_weight1_custom_sum_contain_oxygen_bond_distance_aromatic_linkinvent_7_9_3/rearranged_h_0056.sdf

> <i_m_source_file_index>
37

> <r_mmod_Potential_Energy-OPLS-2005>
559.103149414062

> <r_mmod_Stretch_Energy-OPLS-2005>
284.834655761719

> <r_mmod_Bend_Energy-OPLS-2005>
295.708251953125

> <r_mmod_Torsional_Energy-OPLS-2005>
194.552688598633

> <r_mmod_Improper_Torsional_Energy-OPLS-2005>
3.94198870658875

> <r_mmod_Van_der_Waal_Energy-OPLS-2005>
104.294052124023

> <r_mmod_Electrostatic_Energy-OPLS-2005>
-316.581237792969

> <r_mmod_Solvation_Energy-OPLS-2005>
-212.564178466797

> <b_mmod_Minimization_Converged-OPLS-2005>
0

> <r_mmod_RMS_Derivative-OPLS-2005>
0.69713431596756

$$$$
39
                    3D
 Structure written by MMmdl.
158166  0  0  1  0            999 V2000
  -30.7092  -14.5015   20.5940 C   0  0  0  0  0  0
  -30.4297  -12.3350   19.4290 C   0  0  0  0  0  0
  -29.4998  -12.5201   18.2109 C   0  0  0  0  0  0
  -28.0223  -12.3685   18.6228 C   0  0  0  0  0  0
  -27.6620  -13.2136   19.8731 C   0  0  2  0  0  0
  -28.7054  -13.0105   20.9973 C   0  0  0  0  0  0
  -25.2545  -13.8148   20.5640 C   0  0  0  0  0  0
  -24.1827  -13.0411   20.9171 C   0  0  0  0  0  0
  -24.6408  -11.6892   20.8729 C   0  0  0  0  0  0
  -23.9075  -10.4279   21.0394 C   0  0  0  0  0  0
  -24.3629   -9.4198   21.9176 C   0  0  0  0  0  0
  -23.6297   -8.2242   22.0751 C   0  0  0  0  0  0
  -22.4276   -8.0286   21.3550 C   0  0  0  0  0  0
  -21.9908   -9.0248   20.4641 C   0  0  0  0  0  0
  -22.7241  -10.2124   20.3044 C   0  0  0  0  0  0
  -21.6856   -6.0735   22.5279 C   0  0  0  0  0  0
  -21.4012   -6.5635   23.8213 C   0  0  0  0  0  0
  -21.3660   -5.6785   24.9174 C   0  0  0  0  0  0
  -21.6052   -4.3052   24.7222 C   0  0  0  0  0  0
  -21.8823   -3.8146   23.4343 C   0  0  0  0  0  0
  -21.9189   -4.6965   22.3398 C   0  0  0  0  0  0
  -22.7850  -13.5202   21.1849 C   0  0  0  0  0  0
  -22.1664   -4.2157   21.0973 F   0  0  0  0  0  0
  -21.5632   -3.4528   25.7730 F   0  0  0  0  0  0
  -30.0376  -13.3226   20.4493 N   0  0  0  0  0  0
  -26.3022  -12.9352   20.3337 N   0  0  0  0  0  0
  -25.9343  -11.6504   20.5757 N   0  0  0  0  0  0
  -22.0500  -12.8194   22.0419 N   0  0  0  0  0  0
  -25.4150  -15.1862   20.3995 N   0  0  0  0  0  0
  -31.8172  -14.7036   20.0932 O   0  0  0  0  0  0
  -21.6645   -6.8882   21.4241 O   0  0  0  0  0  0
  -22.3522  -14.5506   20.6699 O   0  0  0  0  0  0
  -24.6203  -31.8668   23.2100 C   0  0  0  0  0  0
  -25.9082  -32.4820   23.8403 C   0  0  1  0  0  0
  -27.2242  -27.3935   20.1016 C   0  0  0  0  0  0
  -25.5927  -33.8616   24.2334 N   0  0  0  0  0  0
  -23.4095  -30.4951   21.5512 C   0  0  2  0  0  0
  -24.8542  -28.9671   20.1108 C   0  0  0  0  0  0
  -22.7439  -29.4672   22.4962 C   0  0  0  0  0  0
  -18.0284  -28.1386   22.8485 C   0  0  0  0  0  0
  -24.1491  -36.7313   23.2634 C   0  0  0  0  0  0
  -25.9459  -30.8217   21.3709 C   0  0  0  0  0  0
  -26.0210  -29.4571   20.7110 C   0  0  0  0  0  0
  -27.2100  -28.6806   20.7009 C   0  0  0  0  0  0
  -26.0331  -26.9459   19.4757 C   0  0  0  0  0  0
  -24.8580  -27.7127   19.4872 C   0  0  0  0  0  0
  -23.6191  -29.8369   20.1637 C   0  0  0  0  0  0
  -25.4109  -36.3109   24.0336 C   0  0  1  0  0  0
  -20.5879  -28.3687   23.1291 C   0  0  2  0  0  0
  -20.6778  -26.9418   22.5404 C   0  0  0  0  0  0
  -19.5753  -26.6388   21.5208 C   0  0  0  0  0  0
  -18.1932  -26.7930   22.1622 C   0  0  0  0  0  0
  -19.1532  -28.8849   23.2889 C   0  0  0  0  0  0
  -18.9460  -30.1452   23.8907 C   0  0  0  0  0  0
  -17.6460  -30.6589   24.0566 C   0  0  0  0  0  0
  -25.9040  -34.9474   23.5129 C   0  0  0  0  0  0
  -16.5352  -29.9089   23.6328 C   0  0  0  0  0  0
  -16.7271  -28.6507   23.0346 C   0  0  0  0  0  0
  -26.4485  -31.6604   25.0745 C   0  0  0  0  0  0
  -25.3737  -31.3727   26.1483 C   0  0  0  0  0  0
  -27.0321  -30.3040   24.6151 C   0  0  0  0  0  0
  -27.6063  -32.4321   25.7508 C   0  0  0  0  0  0
  -27.5581  -37.1812   24.8462 C   0  0  0  0  0  0
  -21.4163  -29.3055   22.3694 N   0  0  0  0  0  0
  -26.4295  -37.3793   23.9404 N   0  0  0  0  0  0
  -24.6772  -31.0750   22.1021 N   0  0  0  0  0  0
  -23.4196  -28.8199   23.3009 O   0  0  0  0  0  0
  -28.3555  -26.5804   20.1606 O   0  0  0  0  0  0
  -26.5589  -34.8922   22.4685 O   0  0  0  0  0  0
  -23.5381  -32.1436   23.7470 O   0  0  0  0  0  0
  -30.5883  -21.2676   21.0942 C   0  0  0  0  0  0
  -29.6780  -19.3999   20.8622 C   0  0  0  0  0  0
  -29.5775  -17.6763   19.0592 C   0  0  0  0  0  0
  -27.9842  -17.5541   21.0102 C   0  0  0  0  0  0
  -29.1552  -24.1160   20.5497 C   0  0  0  0  0  0
  -28.4742  -22.7234   20.7506 C   0  0  0  0  0  0
  -30.3885  -16.9290   21.3460 C   0  0  0  0  0  0
  -28.0805  -25.1538   20.1064 C   0  0  0  0  0  0
  -29.4270  -17.9076   20.5745 C   0  0  0  0  0  0
  -30.9074  -19.9657   21.0882 N   0  0  0  0  0  0
  -28.7043  -20.2990   20.6539 N   0  0  0  0  0  0
  -29.3026  -21.5087   20.8230 N   0  0  0  0  0  0
  -30.0337  -15.4865   21.2205 N   0  0  0  0  0  0
  -31.4734  -12.4384   19.1274 H   0  0  0  0  0  0
  -30.3362  -11.3251   19.8323 H   0  0  0  0  0  0
  -29.7455  -11.7953   17.4341 H   0  0  0  0  0  0
  -29.6597  -13.5057   17.7705 H   0  0  0  0  0  0
  -27.8401  -11.3124   18.8241 H   0  0  0  0  0  0
  -27.3706  -12.6363   17.7897 H   0  0  0  0  0  0
  -27.6992  -14.2592   19.5681 H   0  0  0  0  0  0
  -28.6902  -11.9774   21.3453 H   0  0  0  0  0  0
  -28.4557  -13.6128   21.8715 H   0  0  0  0  0  0
  -25.2776   -9.5679   22.4747 H   0  0  0  0  0  0
  -24.0008   -7.4631   22.7468 H   0  0  0  0  0  0
  -21.0837   -8.8759   19.8946 H   0  0  0  0  0  0
  -22.3693  -10.9665   19.6160 H   0  0  0  0  0  0
  -21.2009   -7.6145   23.9715 H   0  0  0  0  0  0
  -21.1481   -6.0519   25.9076 H   0  0  0  0  0  0
  -22.0605   -2.7611   23.2833 H   0  0  0  0  0  0
  -22.4110  -11.9844   22.4795 H   0  0  0  0  0  0
  -21.1131  -13.1243   22.2651 H   0  0  0  0  0  0
  -24.6387  -15.8306   20.5024 H   0  0  0  0  0  0
  -26.2545  -15.6298   20.0514 H   0  0  0  0  0  0
  -26.7162  -32.5518   23.1170 H   0  0  0  0  0  0
  -25.0103  -33.9781   25.0495 H   0  0  0  0  0  0
  -22.7012  -31.3147   21.4142 H   0  0  0  0  0  0
  -23.3751  -35.9649   23.3304 H   0  0  0  0  0  0
  -24.3593  -36.8917   22.2049 H   0  0  0  0  0  0
  -23.7243  -37.6521   23.6643 H   0  0  0  0  0  0
  -26.0671  -31.5893   20.6055 H   0  0  0  0  0  0
  -26.8306  -30.8699   21.9936 H   0  0  0  0  0  0
  -28.1050  -29.0493   21.1823 H   0  0  0  0  0  0
  -25.9712  -25.9910   18.9766 H   0  0  0  0  0  0
  -23.9630  -27.3315   19.0145 H   0  0  0  0  0  0
  -23.7319  -30.6160   19.4086 H   0  0  0  0  0  0
  -22.7417  -29.2614   19.8632 H   0  0  0  0  0  0
  -25.1288  -36.1975   25.0830 H   0  0  0  0  0  0
  -20.9978  -28.3260   24.1409 H   0  0  0  0  0  0
  -20.5692  -26.2299   23.3598 H   0  0  0  0  0  0
  -21.6648  -26.7462   22.1191 H   0  0  0  0  0  0
  -19.6919  -25.6297   21.1240 H   0  0  0  0  0  0
  -19.6692  -27.3198   20.6738 H   0  0  0  0  0  0
  -17.4203  -26.6672   21.4026 H   0  0  0  0  0  0
  -18.0340  -26.0071   22.9018 H   0  0  0  0  0  0
  -19.7936  -30.7262   24.2286 H   0  0  0  0  0  0
  -17.5017  -31.6270   24.5164 H   0  0  0  0  0  0
  -15.5354  -30.2997   23.7642 H   0  0  0  0  0  0
  -15.8671  -28.0830   22.7056 H   0  0  0  0  0  0
  -24.5900  -30.7092   25.7811 H   0  0  0  0  0  0
  -24.8941  -32.2893   26.4934 H   0  0  0  0  0  0
  -25.8070  -30.8883   27.0242 H   0  0  0  0  0  0
  -26.2883  -29.6803   24.1180 H   0  0  0  0  0  0
  -27.4050  -29.7282   25.4632 H   0  0  0  0  0  0
  -27.8739  -30.4351   23.9347 H   0  0  0  0  0  0
  -27.2691  -33.3611   26.2116 H   0  0  0  0  0  0
  -28.3858  -32.6892   25.0326 H   0  0  0  0  0  0
  -28.0749  -31.8424   26.5396 H   0  0  0  0  0  0
  -28.2601  -38.0106   24.7515 H   0  0  0  0  0  0
  -28.1078  -36.2643   24.6288 H   0  0  0  0  0  0
  -27.2306  -37.1459   25.8866 H   0  0  0  0  0  0
  -20.9324  -29.8791   21.6923 H   0  0  0  0  0  0
  -26.0187  -38.2873   24.1403 H   0  0  0  0  0  0
  -31.3024  -22.0580   21.2844 H   0  0  0  0  0  0
  -28.8920  -18.3115   18.4971 H   0  0  0  0  0  0
  -29.3719  -16.6440   18.7778 H   0  0  0  0  0  0
  -30.5885  -17.9179   18.7294 H   0  0  0  0  0  0
  -27.2417  -18.1534   20.4831 H   0  0  0  0  0  0
  -27.8449  -17.7225   22.0785 H   0  0  0  0  0  0
  -27.7368  -16.5168   20.8053 H   0  0  0  0  0  0
  -29.9400  -24.0563   19.7961 H   0  0  0  0  0  0
  -29.6275  -24.4309   21.4806 H   0  0  0  0  0  0
  -27.7727  -22.5687   19.9287 H   0  0  0  0  0  0
  -27.8656  -22.7551   21.6555 H   0  0  0  0  0  0
  -30.3624  -17.1751   22.4086 H   0  0  0  0  0  0
  -31.4193  -17.0994   21.0316 H   0  0  0  0  0  0
  -27.2032  -24.9625   20.7283 H   0  0  0  0  0  0
  -27.8064  -24.8978   19.0820 H   0  0  0  0  0  0
  -29.1390  -15.2169   21.5999 H   0  0  0  0  0  0
  1 25  1  0  0  0
  1 30  2  0  0  0
  1 83  1  0  0  0
  2  3  1  0  0  0
  2 25  1  0  0  0
  2 84  1  0  0  0
  2 85  1  0  0  0
  3  4  1  0  0  0
  3 86  1  0  0  0
  3 87  1  0  0  0
  4  5  1  0  0  0
  4 88  1  0  0  0
  4 89  1  0  0  0
  5  6  1  0  0  0
  5 26  1  0  0  0
  5 90  1  0  0  0
  6 25  1  0  0  0
  6 91  1  0  0  0
  6 92  1  0  0  0
  7  8  2  0  0  0
  7 26  1  0  0  0
  7 29  1  0  0  0
  8  9  1  0  0  0
  8 22  1  0  0  0
  9 10  1  0  0  0
  9 27  2  0  0  0
 10 11  2  0  0  0
 10 15  1  0  0  0
 11 12  1  0  0  0
 11 93  1  0  0  0
 12 13  2  0  0  0
 12 94  1  0  0  0
 13 14  1  0  0  0
 13 31  1  0  0  0
 14 15  2  0  0  0
 14 95  1  0  0  0
 15 96  1  0  0  0
 16 17  2  0  0  0
 16 21  1  0  0  0
 16 31  1  0  0  0
 17 18  1  0  0  0
 17 97  1  0  0  0
 18 19  2  0  0  0
 18 98  1  0  0  0
 19 20  1  0  0  0
 19 24  1  0  0  0
 20 21  2  0  0  0
 20 99  1  0  0  0
 21 23  1  0  0  0
 22 28  1  0  0  0
 22 32  2  0  0  0
 26 27  1  0  0  0
 28100  1  0  0  0
 28101  1  0  0  0
 29102  1  0  0  0
 29103  1  0  0  0
 33 34  1  0  0  0
 33 66  1  0  0  0
 33 70  2  0  0  0
 34 36  1  0  0  0
 34 59  1  0  0  0
 34104  1  0  0  0
 35 44  2  0  0  0
 35 45  1  0  0  0
 35 68  1  0  0  0
 36 56  1  0  0  0
 36105  1  0  0  0
 37 39  1  0  0  0
 37 47  1  0  0  0
 37 66  1  0  0  0
 37106  1  0  0  0
 38 43  2  0  0  0
 38 46  1  0  0  0
 38 47  1  0  0  0
 39 64  1  0  0  0
 39 67  2  0  0  0
 40 52  1  0  0  0
 40 53  2  0  0  0
 40 58  1  0  0  0
 41107  1  0  0  0
 41108  1  0  0  0
 41109  1  0  0  0
 41 48  1  0  0  0
 42 43  1  0  0  0
 42 66  1  0  0  0
 42110  1  0  0  0
 42111  1  0  0  0
 43 44  1  0  0  0
 44112  1  0  0  0
 45 46  2  0  0  0
 45113  1  0  0  0
 46114  1  0  0  0
 47115  1  0  0  0
 47116  1  0  0  0
 48 56  1  0  0  0
 48 65  1  0  0  0
 48117  1  0  0  0
 49 50  1  0  0  0
 49 53  1  0  0  0
 49 64  1  0  0  0
 49118  1  0  0  0
 50 51  1  0  0  0
 50119  1  0  0  0
 50120  1  0  0  0
 51 52  1  0  0  0
 51121  1  0  0  0
 51122  1  0  0  0
 52123  1  0  0  0
 52124  1  0  0  0
 53 54  1  0  0  0
 54 55  2  0  0  0
 54125  1  0  0  0
 55 57  1  0  0  0
 55126  1  0  0  0
 56 69  2  0  0  0
 57 58  2  0  0  0
 57127  1  0  0  0
 58128  1  0  0  0
 59 60  1  0  0  0
 59 61  1  0  0  0
 59 62  1  0  0  0
 60129  1  0  0  0
 60130  1  0  0  0
 60131  1  0  0  0
 61132  1  0  0  0
 61133  1  0  0  0
 61134  1  0  0  0
 62135  1  0  0  0
 62136  1  0  0  0
 62137  1  0  0  0
 63 65  1  0  0  0
 63138  1  0  0  0
 63139  1  0  0  0
 63140  1  0  0  0
 64141  1  0  0  0
 65142  1  0  0  0
 68 78  1  0  0  0
 71 80  2  0  0  0
 71 82  1  0  0  0
 71143  1  0  0  0
 72 79  1  0  0  0
 72 80  1  0  0  0
 72 81  2  0  0  0
 73144  1  0  0  0
 73145  1  0  0  0
 73146  1  0  0  0
 73 79  1  0  0  0
 74 79  1  0  0  0
 74147  1  0  0  0
 74148  1  0  0  0
 74149  1  0  0  0
 75 76  1  0  0  0
 75 78  1  0  0  0
 75150  1  0  0  0
 75151  1  0  0  0
 76 82  1  0  0  0
 76152  1  0  0  0
 76153  1  0  0  0
 77 79  1  0  0  0
 77 83  1  0  0  0
 77154  1  0  0  0
 77155  1  0  0  0
 78156  1  0  0  0
 78157  1  0  0  0
 81 82  1  0  0  0
 83158  1  0  0  0
M  ISO  4   1 100  68 101  78 101  83 100
M  END
> <chiral flag>
0

> <version>
0

> <s_m_source_file>
/data/baiqing/PycharmProjects/Reinvent-master-3.2/result/LINK_invent/BTK/process_docking_weight1_custom_sum_contain_oxygen_bond_distance_aromatic_linkinvent_7_9_3/rearranged_h_0056.sdf

> <i_m_source_file_index>
38

> <r_mmod_Potential_Energy-OPLS-2005>
-98.2643508911133

> <r_mmod_Stretch_Energy-OPLS-2005>
49.4653167724609

> <r_mmod_Bend_Energy-OPLS-2005>
124.095199584961

> <r_mmod_Torsional_Energy-OPLS-2005>
207.368835449219

> <r_mmod_Improper_Torsional_Energy-OPLS-2005>
4.32429838180542

> <r_mmod_Van_der_Waal_Energy-OPLS-2005>
137.711135864258

> <r_mmod_Electrostatic_Energy-OPLS-2005>
-415.488494873047

> <r_mmod_Solvation_Energy-OPLS-2005>
-225.994552612305

> <b_mmod_Minimization_Converged-OPLS-2005>
0

> <r_mmod_RMS_Derivative-OPLS-2005>
1.20445835590363

$$$$
40
                    3D
 Structure written by MMmdl.
151159  0  0  1  0            999 V2000
  -30.4643  -15.2366   20.3128 C   0  0  0  0  0  0
  -30.4313  -12.7809   19.5192 C   0  0  0  0  0  0
  -29.5342  -12.5663   18.2762 C   0  0  0  0  0  0
  -28.0827  -12.2900   18.7049 C   0  0  0  0  0  0
  -27.6068  -13.2749   19.8027 C   0  0  2  0  0  0
  -28.6369  -13.4740   20.9299 C   0  0  0  0  0  0
  -25.2431  -13.8250   20.5756 C   0  0  0  0  0  0
  -24.1769  -13.0430   20.9264 C   0  0  0  0  0  0
  -24.6412  -11.6931   20.8731 C   0  0  0  0  0  0
  -23.9105  -10.4286   21.0379 C   0  0  0  0  0  0
  -24.3658   -9.4211   21.9165 C   0  0  0  0  0  0
  -23.6331   -8.2246   22.0740 C   0  0  0  0  0  0
  -22.4306   -8.0286   21.3541 C   0  0  0  0  0  0
  -21.9931   -9.0253   20.4636 C   0  0  0  0  0  0
  -22.7265  -10.2134   20.3038 C   0  0  0  0  0  0
  -21.6863   -6.0746   22.5276 C   0  0  0  0  0  0
  -21.4013   -6.5643   23.8208 C   0  0  0  0  0  0
  -21.3668   -5.6796   24.9167 C   0  0  0  0  0  0
  -21.6052   -4.3059   24.7206 C   0  0  0  0  0  0
  -21.8826   -3.8157   23.4325 C   0  0  0  0  0  0
  -21.9202   -4.6975   22.3384 C   0  0  0  0  0  0
  -22.7788  -13.5198   21.1910 C   0  0  0  0  0  0
  -22.1672   -4.2176   21.0961 F   0  0  0  0  0  0
  -21.5642   -3.4537   25.7713 F   0  0  0  0  0  0
  -29.8801  -13.9425   20.3016 N   0  0  0  0  0  0
  -26.2815  -12.9505   20.3129 N   0  0  0  0  0  0
  -25.9340  -11.6613   20.5648 N   0  0  0  0  0  0
  -22.0464  -12.8171   22.0474 N   0  0  0  0  0  0
  -25.4102  -15.1974   20.4260 N   0  0  0  0  0  0
  -31.7025  -15.1525   20.2785 O   0  0  0  0  0  0
  -21.6659   -6.8893   21.4241 O   0  0  0  0  0  0
  -22.3455  -14.5488   20.6752 O   0  0  0  0  0  0
  -24.6576  -31.8273   23.1745 C   0  0  0  0  0  0
  -25.9285  -32.4618   23.8195 C   0  0  1  0  0  0
  -27.2195  -26.9568   20.1975 C   0  0  0  0  0  0
  -25.5983  -33.8438   24.2113 N   0  0  0  0  0  0
  -23.4724  -30.4396   21.5194 C   0  0  2  0  0  0
  -24.9283  -28.8280   20.1182 C   0  0  0  0  0  0
  -22.7645  -29.4448   22.4765 C   0  0  0  0  0  0
  -18.0303  -28.1413   22.8459 C   0  0  0  0  0  0
  -24.1498  -36.7225   23.2648 C   0  0  0  0  0  0
  -26.0373  -30.6446   21.4011 C   0  0  0  0  0  0
  -26.1076  -29.2322   20.7562 C   0  0  0  0  0  0
  -27.2502  -28.3175   20.7709 C   0  0  0  0  0  0
  -26.0165  -26.6966   19.5089 C   0  0  0  0  0  0
  -24.9078  -27.5814   19.4707 C   0  0  0  0  0  0
  -23.7161  -29.7570   20.1447 C   0  0  0  0  0  0
  -25.4138  -36.2987   24.0299 C   0  0  1  0  0  0
  -20.5930  -28.3732   23.1171 C   0  0  2  0  0  0
  -20.6767  -26.9398   22.5401 C   0  0  0  0  0  0
  -19.5739  -26.6310   21.5230 C   0  0  0  0  0  0
  -18.1922  -26.7937   22.1621 C   0  0  0  0  0  0
  -19.1575  -28.8885   23.2809 C   0  0  0  0  0  0
  -18.9508  -30.1481   23.8844 C   0  0  0  0  0  0
  -17.6512  -30.6615   24.0542 C   0  0  0  0  0  0
  -25.9088  -34.9370   23.5020 C   0  0  0  0  0  0
  -16.5395  -29.9118   23.6329 C   0  0  0  0  0  0
  -16.7295  -28.6529   23.0355 C   0  0  0  0  0  0
  -26.4569  -31.6532   25.0692 C   0  0  0  0  0  0
  -25.3725  -31.3744   26.1363 C   0  0  0  0  0  0
  -27.0447  -30.2911   24.6358 C   0  0  0  0  0  0
  -27.6080  -32.4313   25.7493 C   0  0  0  0  0  0
  -27.5567  -37.1784   24.8467 C   0  0  0  0  0  0
  -21.4314  -29.3023   22.3512 N   0  0  0  0  0  0
  -26.4278  -37.3718   23.9403 N   0  0  0  0  0  0
  -24.7425  -30.9971   22.0860 N   0  0  0  0  0  0
  -23.4205  -28.8023   23.3008 O   0  0  0  0  0  0
  -28.2648  -25.9060   20.1557 O   0  0  0  0  0  0
  -26.5674  -34.8887   22.4602 O   0  0  0  0  0  0
  -23.5658  -32.1216   23.6873 O   0  0  0  0  0  0
  -28.3013  -19.8219   21.9749 C   0  0  0  0  0  0
  -28.2623  -18.5743   22.6345 C   0  0  0  0  0  0
  -28.9743  -19.6522   20.7962 C   0  0  0  0  0  0
  -30.7333  -17.3751   18.8005 C   0  0  0  0  0  0
  -29.1813  -21.1491   19.9927 C   0  0  0  0  0  0
  -28.2361  -22.6863   19.9554 C   0  0  0  0  0  0
  -28.2530  -24.3381   20.6456 C   0  0  0  0  0  0
  -29.7974  -16.8171   19.8891 C   0  0  2  0  0  0
  -28.8229  -17.6091   21.9419 N   0  0  0  0  0  0
  -29.3102  -18.1137   20.7829 N   0  0  0  0  0  0
  -30.4695  -11.8809   20.1338 H   0  0  0  0  0  0
  -31.4580  -12.9603   19.2008 H   0  0  0  0  0  0
  -29.9132  -11.7427   17.6699 H   0  0  0  0  0  0
  -29.5678  -13.4550   17.6436 H   0  0  0  0  0  0
  -28.0431  -11.2687   19.0868 H   0  0  0  0  0  0
  -27.4140  -12.3212   17.8442 H   0  0  0  0  0  0
  -27.5142  -14.2344   19.2931 H   0  0  0  0  0  0
  -28.7990  -12.5586   21.5026 H   0  0  0  0  0  0
  -28.2780  -14.2257   21.6355 H   0  0  0  0  0  0
  -25.2792   -9.5712   22.4751 H   0  0  0  0  0  0
  -24.0046   -7.4639   22.7453 H   0  0  0  0  0  0
  -21.0868   -8.8758   19.8933 H   0  0  0  0  0  0
  -22.3706  -10.9667   19.6154 H   0  0  0  0  0  0
  -21.1992   -7.6155   23.9722 H   0  0  0  0  0  0
  -21.1492   -6.0512   25.9080 H   0  0  0  0  0  0
  -22.0596   -2.7623   23.2793 H   0  0  0  0  0  0
  -22.4106  -11.9859   22.4894 H   0  0  0  0  0  0
  -21.1063  -13.1138   22.2647 H   0  0  0  0  0  0
  -24.6616  -15.8569   20.6070 H   0  0  0  0  0  0
  -26.2637  -15.6456   20.1156 H   0  0  0  0  0  0
  -26.7341  -32.5190   23.0904 H   0  0  0  0  0  0
  -25.0157  -33.9526   25.0283 H   0  0  0  0  0  0
  -22.7847  -31.2698   21.3507 H   0  0  0  0  0  0
  -23.3758  -35.9554   23.3288 H   0  0  0  0  0  0
  -24.3573  -36.8894   22.2063 H   0  0  0  0  0  0
  -23.7255  -37.6414   23.6709 H   0  0  0  0  0  0
  -26.2061  -31.3814   20.6140 H   0  0  0  0  0  0
  -26.9006  -30.7129   22.0507 H   0  0  0  0  0  0
  -28.1475  -28.6328   21.2859 H   0  0  0  0  0  0
  -25.9268  -25.7526   18.9901 H   0  0  0  0  0  0
  -24.0222  -27.2792   18.9289 H   0  0  0  0  0  0
  -23.8852  -30.5274   19.3913 H   0  0  0  0  0  0
  -22.8252  -29.2183   19.8163 H   0  0  0  0  0  0
  -25.1341  -36.1786   25.0784 H   0  0  0  0  0  0
  -21.0034  -28.3342   24.1292 H   0  0  0  0  0  0
  -20.5645  -26.2350   23.3658 H   0  0  0  0  0  0
  -21.6630  -26.7346   22.1218 H   0  0  0  0  0  0
  -19.6847  -25.6168   21.1376 H   0  0  0  0  0  0
  -19.6684  -27.3022   20.6681 H   0  0  0  0  0  0
  -17.4198  -26.6703   21.4001 H   0  0  0  0  0  0
  -18.0255  -26.0099   22.9023 H   0  0  0  0  0  0
  -19.7987  -30.7305   24.2201 H   0  0  0  0  0  0
  -17.5084  -31.6292   24.5151 H   0  0  0  0  0  0
  -15.5404  -30.3036   23.7669 H   0  0  0  0  0  0
  -15.8693  -28.0851   22.7090 H   0  0  0  0  0  0
  -24.5925  -30.7069   25.7679 H   0  0  0  0  0  0
  -24.8895  -32.2930   26.4700 H   0  0  0  0  0  0
  -25.7992  -30.8976   27.0199 H   0  0  0  0  0  0
  -26.3080  -29.6600   24.1366 H   0  0  0  0  0  0
  -27.4021  -29.7246   25.4969 H   0  0  0  0  0  0
  -27.9015  -30.4114   23.9723 H   0  0  0  0  0  0
  -27.2668  -33.3650   26.1969 H   0  0  0  0  0  0
  -28.3955  -32.6802   25.0369 H   0  0  0  0  0  0
  -28.0671  -31.8498   26.5495 H   0  0  0  0  0  0
  -28.2576  -38.0086   24.7502 H   0  0  0  0  0  0
  -28.1069  -36.2615   24.6312 H   0  0  0  0  0  0
  -27.2275  -37.1456   25.8865 H   0  0  0  0  0  0
  -20.9554  -29.8728   21.6662 H   0  0  0  0  0  0
  -26.0125  -38.2777   24.1405 H   0  0  0  0  0  0
  -27.8959  -20.7565   22.3369 H   0  0  0  0  0  0
  -27.8255  -18.3400   23.5950 H   0  0  0  0  0  0
  -30.8633  -16.6513   17.9951 H   0  0  0  0  0  0
  -31.7192  -17.5916   19.2109 H   0  0  0  0  0  0
  -30.3510  -18.2932   18.3550 H   0  0  0  0  0  0
  -29.2307  -20.8648   18.9398 H   0  0  0  0  0  0
  -30.2046  -21.4624   20.1988 H   0  0  0  0  0  0
  -27.1999  -22.3620   20.0652 H   0  0  0  0  0  0
  -28.2852  -22.9300   18.8949 H   0  0  0  0  0  0
  -29.0954  -24.3125   21.3378 H   0  0  0  0  0  0
  -27.3961  -24.3251   21.3193 H   0  0  0  0  0  0
  -28.8862  -16.5316   19.3621 H   0  0  0  0  0  0
  1 25  1  0  0  0
  1 30  2  0  0  0
  1 78  1  0  0  0
  2  3  1  0  0  0
  2 25  1  0  0  0
  2 81  1  0  0  0
  2 82  1  0  0  0
  3  4  1  0  0  0
  3 83  1  0  0  0
  3 84  1  0  0  0
  4  5  1  0  0  0
  4 85  1  0  0  0
  4 86  1  0  0  0
  5  6  1  0  0  0
  5 26  1  0  0  0
  5 87  1  0  0  0
  6 25  1  0  0  0
  6 88  1  0  0  0
  6 89  1  0  0  0
  7  8  2  0  0  0
  7 26  1  0  0  0
  7 29  1  0  0  0
  8  9  1  0  0  0
  8 22  1  0  0  0
  9 10  1  0  0  0
  9 27  2  0  0  0
 10 11  2  0  0  0
 10 15  1  0  0  0
 11 12  1  0  0  0
 11 90  1  0  0  0
 12 13  2  0  0  0
 12 91  1  0  0  0
 13 14  1  0  0  0
 13 31  1  0  0  0
 14 15  2  0  0  0
 14 92  1  0  0  0
 15 93  1  0  0  0
 16 17  2  0  0  0
 16 21  1  0  0  0
 16 31  1  0  0  0
 17 18  1  0  0  0
 17 94  1  0  0  0
 18 19  2  0  0  0
 18 95  1  0  0  0
 19 20  1  0  0  0
 19 24  1  0  0  0
 20 21  2  0  0  0
 20 96  1  0  0  0
 21 23  1  0  0  0
 22 28  1  0  0  0
 22 32  2  0  0  0
 26 27  1  0  0  0
 28 97  1  0  0  0
 28 98  1  0  0  0
 29 99  1  0  0  0
 29100  1  0  0  0
 33 34  1  0  0  0
 33 66  1  0  0  0
 33 70  2  0  0  0
 34 36  1  0  0  0
 34 59  1  0  0  0
 34101  1  0  0  0
 35 44  2  0  0  0
 35 45  1  0  0  0
 35 68  1  0  0  0
 36 56  1  0  0  0
 36102  1  0  0  0
 37 39  1  0  0  0
 37 47  1  0  0  0
 37 66  1  0  0  0
 37103  1  0  0  0
 38 43  2  0  0  0
 38 46  1  0  0  0
 38 47  1  0  0  0
 39 64  1  0  0  0
 39 67  2  0  0  0
 40 52  1  0  0  0
 40 53  2  0  0  0
 40 58  1  0  0  0
 41104  1  0  0  0
 41105  1  0  0  0
 41106  1  0  0  0
 41 48  1  0  0  0
 42 43  1  0  0  0
 42 66  1  0  0  0
 42107  1  0  0  0
 42108  1  0  0  0
 43 44  1  0  0  0
 44109  1  0  0  0
 45 46  2  0  0  0
 45110  1  0  0  0
 46111  1  0  0  0
 47112  1  0  0  0
 47113  1  0  0  0
 48 56  1  0  0  0
 48 65  1  0  0  0
 48114  1  0  0  0
 49 50  1  0  0  0
 49 53  1  0  0  0
 49 64  1  0  0  0
 49115  1  0  0  0
 50 51  1  0  0  0
 50116  1  0  0  0
 50117  1  0  0  0
 51 52  1  0  0  0
 51118  1  0  0  0
 51119  1  0  0  0
 52120  1  0  0  0
 52121  1  0  0  0
 53 54  1  0  0  0
 54 55  2  0  0  0
 54122  1  0  0  0
 55 57  1  0  0  0
 55123  1  0  0  0
 56 69  2  0  0  0
 57 58  2  0  0  0
 57124  1  0  0  0
 58125  1  0  0  0
 59 60  1  0  0  0
 59 61  1  0  0  0
 59 62  1  0  0  0
 60126  1  0  0  0
 60127  1  0  0  0
 60128  1  0  0  0
 61129  1  0  0  0
 61130  1  0  0  0
 61131  1  0  0  0
 62132  1  0  0  0
 62133  1  0  0  0
 62134  1  0  0  0
 63 65  1  0  0  0
 63135  1  0  0  0
 63136  1  0  0  0
 63137  1  0  0  0
 64138  1  0  0  0
 65139  1  0  0  0
 68 77  1  0  0  0
 71 72  1  0  0  0
 71 73  2  0  0  0
 71140  1  0  0  0
 72 79  2  0  0  0
 72141  1  0  0  0
 73 75  1  0  0  0
 73 80  1  0  0  0
 74142  1  0  0  0
 74143  1  0  0  0
 74144  1  0  0  0
 74 78  1  0  0  0
 75 76  1  0  0  0
 75145  1  0  0  0
 75146  1  0  0  0
 76 77  1  0  0  0
 76147  1  0  0  0
 76148  1  0  0  0
 77149  1  0  0  0
 77150  1  0  0  0
 78 80  1  0  0  0
 78151  1  0  0  0
 79 80  1  0  0  0
M  ISO  4   1 100  68 101  77 101  78 100
M  END
> <chiral flag>
0

> <version>
0

> <s_m_source_file>
/data/baiqing/PycharmProjects/Reinvent-master-3.2/result/LINK_invent/BTK/process_docking_weight1_custom_sum_contain_oxygen_bond_distance_aromatic_linkinvent_7_9_3/rearranged_h_0056.sdf

> <i_m_source_file_index>
39

> <r_mmod_Potential_Energy-OPLS-2005>
1468.49072265625

> <r_mmod_Stretch_Energy-OPLS-2005>
599.760375976562

> <r_mmod_Bend_Energy-OPLS-2005>
570.503845214844

> <r_mmod_Torsional_Energy-OPLS-2005>
264.927032470703

> <r_mmod_Improper_Torsional_Energy-OPLS-2005>
14.3263988494873

> <r_mmod_Van_der_Waal_Energy-OPLS-2005>
102.153953552246

> <r_mmod_Electrostatic_Energy-OPLS-2005>
-295.805694580078

> <r_mmod_Solvation_Energy-OPLS-2005>
-202.103439331055

> <b_mmod_Minimization_Converged-OPLS-2005>
0

> <r_mmod_RMS_Derivative-OPLS-2005>
3.2633068561554

$$$$
41
                    3D
 Structure written by MMmdl.
151159  0  0  1  0            999 V2000
  -30.4225  -15.3406   20.3116 C   0  0  0  0  0  0
  -30.4399  -12.8528   19.5248 C   0  0  0  0  0  0
  -29.5376  -12.5775   18.2938 C   0  0  0  0  0  0
  -28.0978  -12.2594   18.7318 C   0  0  0  0  0  0
  -27.6027  -13.2510   19.8088 C   0  0  2  0  0  0
  -28.6352  -13.4966   20.9306 C   0  0  0  0  0  0
  -25.2352  -13.8116   20.5730 C   0  0  0  0  0  0
  -24.1706  -13.0346   20.9254 C   0  0  0  0  0  0
  -24.6355  -11.6850   20.8763 C   0  0  0  0  0  0
  -23.9050  -10.4236   21.0418 C   0  0  0  0  0  0
  -24.3610   -9.4156   21.9195 C   0  0  0  0  0  0
  -23.6281   -8.2197   22.0758 C   0  0  0  0  0  0
  -22.4262   -8.0248   21.3547 C   0  0  0  0  0  0
  -21.9897   -9.0213   20.4645 C   0  0  0  0  0  0
  -22.7228  -10.2088   20.3058 C   0  0  0  0  0  0
  -21.6836   -6.0726   22.5284 C   0  0  0  0  0  0
  -21.3992   -6.5636   23.8215 C   0  0  0  0  0  0
  -21.3643   -5.6793   24.9180 C   0  0  0  0  0  0
  -21.6039   -4.3055   24.7230 C   0  0  0  0  0  0
  -21.8828   -3.8149   23.4355 C   0  0  0  0  0  0
  -21.9190   -4.6961   22.3409 C   0  0  0  0  0  0
  -22.7739  -13.5137   21.1917 C   0  0  0  0  0  0
  -22.1666   -4.2149   21.0987 F   0  0  0  0  0  0
  -21.5624   -3.4539   25.7743 F   0  0  0  0  0  0
  -29.8671  -14.0166   20.3042 N   0  0  0  0  0  0
  -26.2774  -12.9361   20.3194 N   0  0  0  0  0  0
  -25.9280  -11.6494   20.5714 N   0  0  0  0  0  0
  -22.0389  -12.8123   22.0463 N   0  0  0  0  0  0
  -25.3886  -15.1839   20.4165 N   0  0  0  0  0  0
  -31.6595  -15.2798   20.2321 O   0  0  0  0  0  0
  -21.6618   -6.8858   21.4244 O   0  0  0  0  0  0
  -22.3430  -14.5451   20.6768 O   0  0  0  0  0  0
  -24.6654  -31.8234   23.1704 C   0  0  0  0  0  0
  -25.9330  -32.4590   23.8170 C   0  0  1  0  0  0
  -27.2219  -26.9170   20.1845 C   0  0  0  0  0  0
  -25.6005  -33.8402   24.2084 N   0  0  0  0  0  0
  -23.4806  -30.4354   21.5203 C   0  0  2  0  0  0
  -24.9349  -28.8219   20.1147 C   0  0  0  0  0  0
  -22.7679  -29.4448   22.4780 C   0  0  0  0  0  0
  -18.0330  -28.1417   22.8469 C   0  0  0  0  0  0
  -24.1492  -36.7186   23.2648 C   0  0  0  0  0  0
  -26.0519  -30.6268   21.4023 C   0  0  0  0  0  0
  -26.1204  -29.2146   20.7489 C   0  0  0  0  0  0
  -27.2595  -28.2860   20.7558 C   0  0  0  0  0  0
  -26.0049  -26.6854   19.5010 C   0  0  0  0  0  0
  -24.9033  -27.5777   19.4697 C   0  0  0  0  0  0
  -23.7225  -29.7528   20.1464 C   0  0  0  0  0  0
  -25.4135  -36.2963   24.0304 C   0  0  1  0  0  0
  -20.5960  -28.3762   23.1184 C   0  0  2  0  0  0
  -20.6809  -26.9441   22.5405 C   0  0  0  0  0  0
  -19.5780  -26.6387   21.5215 C   0  0  0  0  0  0
  -18.1960  -26.7952   22.1623 C   0  0  0  0  0  0
  -19.1592  -28.8905   23.2820 C   0  0  0  0  0  0
  -18.9501  -30.1492   23.8860 C   0  0  0  0  0  0
  -17.6493  -30.6603   24.0553 C   0  0  0  0  0  0
  -25.9104  -34.9351   23.5008 C   0  0  0  0  0  0
  -16.5384  -29.9090   23.6344 C   0  0  0  0  0  0
  -16.7312  -28.6508   23.0371 C   0  0  0  0  0  0
  -26.4579  -31.6529   25.0693 C   0  0  0  0  0  0
  -25.3708  -31.3764   26.1346 C   0  0  0  0  0  0
  -27.0460  -30.2896   24.6412 C   0  0  0  0  0  0
  -27.6082  -32.4315   25.7494 C   0  0  0  0  0  0
  -27.5563  -37.1758   24.8473 C   0  0  0  0  0  0
  -21.4348  -29.3049   22.3525 N   0  0  0  0  0  0
  -26.4273  -37.3703   23.9410 N   0  0  0  0  0  0
  -24.7543  -30.9887   22.0848 N   0  0  0  0  0  0
  -23.4215  -28.8024   23.3033 O   0  0  0  0  0  0
  -28.2173  -25.7959   20.2310 O   0  0  0  0  0  0
  -26.5691  -34.8886   22.4589 O   0  0  0  0  0  0
  -23.5721  -32.1210   23.6792 O   0  0  0  0  0  0
  -28.6226  -21.3230   20.8762 C   0  0  0  0  0  0
  -29.8941  -20.8988   19.2764 C   0  0  0  0  0  0
  -28.7011  -22.6419   20.2146 C   0  0  0  0  0  0
  -28.1628  -16.7621   19.8864 C   0  0  0  0  0  0
  -30.1866  -17.2779   18.5864 C   0  0  0  0  0  0
  -27.8412  -24.1856   20.2903 C   0  0  0  0  0  0
  -29.7851  -18.5748   20.7815 C   0  0  0  0  0  0
  -29.6767  -16.9505   20.0067 C   0  0  0  0  0  0
  -29.5543  -22.2287   19.1624 N   0  0  0  0  0  0
  -29.3933  -20.1563   20.3029 N   0  0  0  0  0  0
  -31.4525  -13.0642   19.1793 H   0  0  0  0  0  0
  -30.5250  -11.9636   20.1522 H   0  0  0  0  0  0
  -29.9414  -11.7567   17.6996 H   0  0  0  0  0  0
  -29.5362  -13.4552   17.6461 H   0  0  0  0  0  0
  -28.0911  -11.2478   19.1400 H   0  0  0  0  0  0
  -27.4254  -12.2493   17.8730 H   0  0  0  0  0  0
  -27.4800  -14.1730   19.2563 H   0  0  0  0  0  0
  -28.8230  -12.5834   21.4973 H   0  0  0  0  0  0
  -28.2526  -14.2238   21.6469 H   0  0  0  0  0  0
  -25.2752   -9.5631   22.4782 H   0  0  0  0  0  0
  -23.9984   -7.4584   22.7476 H   0  0  0  0  0  0
  -21.0825   -8.8730   19.8952 H   0  0  0  0  0  0
  -22.3684  -10.9635   19.6173 H   0  0  0  0  0  0
  -21.1975   -7.6144   23.9714 H   0  0  0  0  0  0
  -21.1447   -6.0523   25.9081 H   0  0  0  0  0  0
  -22.0622   -2.7613   23.2852 H   0  0  0  0  0  0
  -22.4012  -11.9774   22.4835 H   0  0  0  0  0  0
  -21.1005  -13.1140   22.2685 H   0  0  0  0  0  0
  -24.6194  -15.8300   20.5520 H   0  0  0  0  0  0
  -26.2374  -15.6371   20.1051 H   0  0  0  0  0  0
  -26.7403  -32.5127   23.0887 H   0  0  0  0  0  0
  -25.0163  -33.9477   25.0245 H   0  0  0  0  0  0
  -22.7952  -31.2681   21.3497 H   0  0  0  0  0  0
  -23.3771  -35.9498   23.3291 H   0  0  0  0  0  0
  -24.3579  -36.8840   22.2068 H   0  0  0  0  0  0
  -23.7228  -37.6365   23.6703 H   0  0  0  0  0  0
  -26.2323  -31.3670   20.6223 H   0  0  0  0  0  0
  -26.9122  -30.6862   22.0567 H   0  0  0  0  0  0
  -28.1574  -28.5921   21.2739 H   0  0  0  0  0  0
  -25.8633  -25.7465   18.9901 H   0  0  0  0  0  0
  -24.0066  -27.2724   18.9475 H   0  0  0  0  0  0
  -23.8847  -30.5229   19.3916 H   0  0  0  0  0  0
  -22.8316  -29.2118   19.8236 H   0  0  0  0  0  0
  -25.1338  -36.1762   25.0795 H   0  0  0  0  0  0
  -21.0048  -28.3372   24.1307 H   0  0  0  0  0  0
  -20.5692  -26.2381   23.3648 H   0  0  0  0  0  0
  -21.6674  -26.7423   22.1209 H   0  0  0  0  0  0
  -19.6937  -25.6285   21.1274 H   0  0  0  0  0  0
  -19.6718  -27.3171   20.6721 H   0  0  0  0  0  0
  -17.4236  -26.6701   21.4019 H   0  0  0  0  0  0
  -18.0348  -26.0103   22.9030 H   0  0  0  0  0  0
  -19.7974  -30.7316   24.2217 H   0  0  0  0  0  0
  -17.5047  -31.6279   24.5161 H   0  0  0  0  0  0
  -15.5382  -30.2978   23.7688 H   0  0  0  0  0  0
  -15.8718  -28.0805   22.7116 H   0  0  0  0  0  0
  -24.5944  -30.7047   25.7667 H   0  0  0  0  0  0
  -24.8831  -32.2948   26.4624 H   0  0  0  0  0  0
  -25.7968  -30.9057   27.0217 H   0  0  0  0  0  0
  -26.3116  -29.6580   24.1406 H   0  0  0  0  0  0
  -27.3986  -29.7258   25.5057 H   0  0  0  0  0  0
  -27.9068  -30.4079   23.9827 H   0  0  0  0  0  0
  -27.2691  -33.3687   26.1914 H   0  0  0  0  0  0
  -28.3990  -32.6743   25.0384 H   0  0  0  0  0  0
  -28.0634  -31.8524   26.5539 H   0  0  0  0  0  0
  -28.2581  -38.0055   24.7515 H   0  0  0  0  0  0
  -28.1061  -36.2583   24.6316 H   0  0  0  0  0  0
  -27.2278  -37.1423   25.8876 H   0  0  0  0  0  0
  -20.9601  -29.8721   21.6641 H   0  0  0  0  0  0
  -26.0119  -38.2758   24.1422 H   0  0  0  0  0  0
  -28.0328  -21.1129   21.7593 H   0  0  0  0  0  0
  -30.5839  -20.4521   18.5741 H   0  0  0  0  0  0
  -27.7558  -16.3239   20.7960 H   0  0  0  0  0  0
  -27.9075  -16.1568   19.0219 H   0  0  0  0  0  0
  -27.6545  -17.7153   19.7326 H   0  0  0  0  0  0
  -30.1586  -16.4101   17.9262 H   0  0  0  0  0  0
  -31.2175  -17.6316   18.6165 H   0  0  0  0  0  0
  -29.5884  -18.0569   18.1113 H   0  0  0  0  0  0
  -27.2268  -24.1272   21.1895 H   0  0  0  0  0  0
  -27.1115  -24.0905   19.4893 H   0  0  0  0  0  0
  -30.8334  -18.6484   21.0745 H   0  0  0  0  0  0
  -29.2787  -18.4551   21.7394 H   0  0  0  0  0  0
  1 25  1  0  0  0
  1 30  2  0  0  0
  1 78  1  0  0  0
  2  3  1  0  0  0
  2 25  1  0  0  0
  2 81  1  0  0  0
  2 82  1  0  0  0
  3  4  1  0  0  0
  3 83  1  0  0  0
  3 84  1  0  0  0
  4  5  1  0  0  0
  4 85  1  0  0  0
  4 86  1  0  0  0
  5  6  1  0  0  0
  5 26  1  0  0  0
  5 87  1  0  0  0
  6 25  1  0  0  0
  6 88  1  0  0  0
  6 89  1  0  0  0
  7  8  2  0  0  0
  7 26  1  0  0  0
  7 29  1  0  0  0
  8  9  1  0  0  0
  8 22  1  0  0  0
  9 10  1  0  0  0
  9 27  2  0  0  0
 10 11  2  0  0  0
 10 15  1  0  0  0
 11 12  1  0  0  0
 11 90  1  0  0  0
 12 13  2  0  0  0
 12 91  1  0  0  0
 13 14  1  0  0  0
 13 31  1  0  0  0
 14 15  2  0  0  0
 14 92  1  0  0  0
 15 93  1  0  0  0
 16 17  2  0  0  0
 16 21  1  0  0  0
 16 31  1  0  0  0
 17 18  1  0  0  0
 17 94  1  0  0  0
 18 19  2  0  0  0
 18 95  1  0  0  0
 19 20  1  0  0  0
 19 24  1  0  0  0
 20 21  2  0  0  0
 20 96  1  0  0  0
 21 23  1  0  0  0
 22 28  1  0  0  0
 22 32  2  0  0  0
 26 27  1  0  0  0
 28 97  1  0  0  0
 28 98  1  0  0  0
 29 99  1  0  0  0
 29100  1  0  0  0
 33 34  1  0  0  0
 33 66  1  0  0  0
 33 70  2  0  0  0
 34 36  1  0  0  0
 34 59  1  0  0  0
 34101  1  0  0  0
 35 44  2  0  0  0
 35 45  1  0  0  0
 35 68  1  0  0  0
 36 56  1  0  0  0
 36102  1  0  0  0
 37 39  1  0  0  0
 37 47  1  0  0  0
 37 66  1  0  0  0
 37103  1  0  0  0
 38 43  2  0  0  0
 38 46  1  0  0  0
 38 47  1  0  0  0
 39 64  1  0  0  0
 39 67  2  0  0  0
 40 52  1  0  0  0
 40 53  2  0  0  0
 40 58  1  0  0  0
 41104  1  0  0  0
 41105  1  0  0  0
 41106  1  0  0  0
 41 48  1  0  0  0
 42 43  1  0  0  0
 42 66  1  0  0  0
 42107  1  0  0  0
 42108  1  0  0  0
 43 44  1  0  0  0
 44109  1  0  0  0
 45 46  2  0  0  0
 45110  1  0  0  0
 46111  1  0  0  0
 47112  1  0  0  0
 47113  1  0  0  0
 48 56  1  0  0  0
 48 65  1  0  0  0
 48114  1  0  0  0
 49 50  1  0  0  0
 49 53  1  0  0  0
 49 64  1  0  0  0
 49115  1  0  0  0
 50 51  1  0  0  0
 50116  1  0  0  0
 50117  1  0  0  0
 51 52  1  0  0  0
 51118  1  0  0  0
 51119  1  0  0  0
 52120  1  0  0  0
 52121  1  0  0  0
 53 54  1  0  0  0
 54 55  2  0  0  0
 54122  1  0  0  0
 55 57  1  0  0  0
 55123  1  0  0  0
 56 69  2  0  0  0
 57 58  2  0  0  0
 57124  1  0  0  0
 58125  1  0  0  0
 59 60  1  0  0  0
 59 61  1  0  0  0
 59 62  1  0  0  0
 60126  1  0  0  0
 60127  1  0  0  0
 60128  1  0  0  0
 61129  1  0  0  0
 61130  1  0  0  0
 61131  1  0  0  0
 62132  1  0  0  0
 62133  1  0  0  0
 62134  1  0  0  0
 63 65  1  0  0  0
 63135  1  0  0  0
 63136  1  0  0  0
 63137  1  0  0  0
 64138  1  0  0  0
 65139  1  0  0  0
 68 76  1  0  0  0
 71 73  2  0  0  0
 71 80  1  0  0  0
 71140  1  0  0  0
 72 79  2  0  0  0
 72 80  1  0  0  0
 72141  1  0  0  0
 73 76  1  0  0  0
 73 79  1  0  0  0
 74142  1  0  0  0
 74143  1  0  0  0
 74144  1  0  0  0
 74 78  1  0  0  0
 75 78  1  0  0  0
 75145  1  0  0  0
 75146  1  0  0  0
 75147  1  0  0  0
 76148  1  0  0  0
 76149  1  0  0  0
 77 78  1  0  0  0
 77 80  1  0  0  0
 77150  1  0  0  0
 77151  1  0  0  0
M  ISO  4   1 100  68 101  76 101  78 100
M  END
> <chiral flag>
0

> <version>
0

> <s_m_source_file>
/data/baiqing/PycharmProjects/Reinvent-master-3.2/result/LINK_invent/BTK/process_docking_weight1_custom_sum_contain_oxygen_bond_distance_aromatic_linkinvent_7_9_3/rearranged_h_0056.sdf

> <i_m_source_file_index>
40

> <r_mmod_Potential_Energy-OPLS-2005>
1479.88720703125

> <r_mmod_Stretch_Energy-OPLS-2005>
629.794677734375

> <r_mmod_Bend_Energy-OPLS-2005>
478.124969482422

> <r_mmod_Torsional_Energy-OPLS-2005>
235.680404663086

> <r_mmod_Improper_Torsional_Energy-OPLS-2005>
12.7610301971436

> <r_mmod_Van_der_Waal_Energy-OPLS-2005>
111.318214416504

> <r_mmod_Electrostatic_Energy-OPLS-2005>
-281.439666748047

> <r_mmod_Solvation_Energy-OPLS-2005>
-216.777130126953

> <b_mmod_Minimization_Converged-OPLS-2005>
0

> <r_mmod_RMS_Derivative-OPLS-2005>
1.4955290555954

$$$$
42
                    3D
 Structure written by MMmdl.
159167  0  0  1  0            999 V2000
  -30.7113  -14.5211   20.5631 C   0  0  0  0  0  0
  -30.4250  -12.3341   19.4320 C   0  0  0  0  0  0
  -29.5048  -12.5500   18.2106 C   0  0  0  0  0  0
  -28.0217  -12.4151   18.6083 C   0  0  0  0  0  0
  -27.6636  -13.2320   19.8776 C   0  0  2  0  0  0
  -28.7131  -13.0294   20.9985 C   0  0  0  0  0  0
  -25.2548  -13.8181   20.5723 C   0  0  0  0  0  0
  -24.1834  -13.0418   20.9157 C   0  0  0  0  0  0
  -24.6430  -11.6907   20.8655 C   0  0  0  0  0  0
  -23.9121  -10.4281   21.0342 C   0  0  0  0  0  0
  -24.3666   -9.4214   21.9143 C   0  0  0  0  0  0
  -23.6313   -8.2268   22.0755 C   0  0  0  0  0  0
  -22.4278   -8.0298   21.3564 C   0  0  0  0  0  0
  -21.9922   -9.0256   20.4655 C   0  0  0  0  0  0
  -22.7262  -10.2124   20.3034 C   0  0  0  0  0  0
  -21.6862   -6.0729   22.5265 C   0  0  0  0  0  0
  -21.4020   -6.5632   23.8204 C   0  0  0  0  0  0
  -21.3667   -5.6780   24.9167 C   0  0  0  0  0  0
  -21.6060   -4.3048   24.7203 C   0  0  0  0  0  0
  -21.8824   -3.8150   23.4318 C   0  0  0  0  0  0
  -21.9192   -4.6966   22.3381 C   0  0  0  0  0  0
  -22.7833  -13.5174   21.1834 C   0  0  0  0  0  0
  -22.1671   -4.2167   21.0953 F   0  0  0  0  0  0
  -21.5643   -3.4519   25.7713 F   0  0  0  0  0  0
  -30.0424  -13.3353   20.4424 N   0  0  0  0  0  0
  -26.3043  -12.9426   20.3378 N   0  0  0  0  0  0
  -25.9379  -11.6543   20.5680 N   0  0  0  0  0  0
  -22.0529  -12.8145   22.0408 N   0  0  0  0  0  0
  -25.4166  -15.1922   20.4217 N   0  0  0  0  0  0
  -31.8417  -14.6923   20.0983 O   0  0  0  0  0  0
  -21.6658   -6.8887   21.4244 O   0  0  0  0  0  0
  -22.3473  -14.5472   20.6699 O   0  0  0  0  0  0
  -24.6201  -31.8652   23.2076 C   0  0  0  0  0  0
  -25.9075  -32.4807   23.8405 C   0  0  1  0  0  0
  -27.2374  -27.3955   20.0966 C   0  0  0  0  0  0
  -25.5938  -33.8620   24.2339 N   0  0  0  0  0  0
  -23.4133  -30.4880   21.5473 C   0  0  2  0  0  0
  -24.8612  -28.9529   20.1043 C   0  0  0  0  0  0
  -22.7438  -29.4656   22.4949 C   0  0  0  0  0  0
  -18.0285  -28.1400   22.8479 C   0  0  0  0  0  0
  -24.1496  -36.7324   23.2629 C   0  0  0  0  0  0
  -25.9443  -30.8117   21.3731 C   0  0  0  0  0  0
  -26.0204  -29.4430   20.7205 C   0  0  0  0  0  0
  -27.2102  -28.6706   20.7193 C   0  0  0  0  0  0
  -26.0724  -26.9507   19.4349 C   0  0  0  0  0  0
  -24.8872  -27.7093   19.4498 C   0  0  0  0  0  0
  -23.6251  -29.8248   20.1593 C   0  0  0  0  0  0
  -25.4113  -36.3108   24.0329 C   0  0  1  0  0  0
  -20.5875  -28.3713   23.1296 C   0  0  2  0  0  0
  -20.6788  -26.9443   22.5397 C   0  0  0  0  0  0
  -19.5757  -26.6403   21.5206 C   0  0  0  0  0  0
  -18.1941  -26.7943   22.1617 C   0  0  0  0  0  0
  -19.1525  -28.8868   23.2886 C   0  0  0  0  0  0
  -18.9453  -30.1469   23.8907 C   0  0  0  0  0  0
  -17.6453  -30.6587   24.0582 C   0  0  0  0  0  0
  -25.9037  -34.9468   23.5127 C   0  0  0  0  0  0
  -16.5353  -29.9096   23.6321 C   0  0  0  0  0  0
  -16.7270  -28.6522   23.0323 C   0  0  0  0  0  0
  -26.4489  -31.6584   25.0744 C   0  0  0  0  0  0
  -25.3750  -31.3696   26.1487 C   0  0  0  0  0  0
  -27.0297  -30.3022   24.6118 C   0  0  0  0  0  0
  -27.6068  -32.4296   25.7508 C   0  0  0  0  0  0
  -27.5591  -37.1821   24.8459 C   0  0  0  0  0  0
  -21.4157  -29.3073   22.3692 N   0  0  0  0  0  0
  -26.4300  -37.3793   23.9398 N   0  0  0  0  0  0
  -24.6774  -31.0713   22.1000 N   0  0  0  0  0  0
  -23.4184  -28.8181   23.3001 O   0  0  0  0  0  0
  -28.3706  -26.5951   20.1039 O   0  0  0  0  0  0
  -26.5579  -34.8917   22.4673 O   0  0  0  0  0  0
  -23.5382  -32.1434   23.7436 O   0  0  0  0  0  0
  -31.2369  -20.1150   20.0621 C   0  0  0  0  0  0
  -30.9725  -21.4538   20.2193 C   0  0  0  0  0  0
  -30.0000  -19.4427   20.3176 C   0  0  0  0  0  0
  -29.9811  -17.5255   18.7151 C   0  0  0  0  0  0
  -28.1268  -17.7265   20.3576 C   0  0  0  0  0  0
  -29.1266  -24.1309   20.1569 C   0  0  0  0  0  0
  -28.8155  -22.7689   20.8653 C   0  0  0  0  0  0
  -30.4037  -16.9884   21.1582 C   0  0  0  0  0  0
  -28.1825  -25.2686   20.6700 C   0  0  0  0  0  0
  -29.6449  -17.9367   20.1599 C   0  0  0  0  0  0
  -29.0645  -20.3486   20.6326 N   0  0  0  0  0  0
  -29.6315  -21.5822   20.5326 N   0  0  0  0  0  0
  -30.0121  -15.5501   21.0880 N   0  0  0  0  0  0
  -31.4740  -12.4126   19.1412 H   0  0  0  0  0  0
  -30.3032  -11.3236   19.8267 H   0  0  0  0  0  0
  -29.7472  -11.8505   17.4089 H   0  0  0  0  0  0
  -29.6786  -13.5444   17.7945 H   0  0  0  0  0  0
  -27.8053  -11.3584   18.7637 H   0  0  0  0  0  0
  -27.3915  -12.7430   17.7804 H   0  0  0  0  0  0
  -27.6976  -14.2813   19.5821 H   0  0  0  0  0  0
  -28.6945  -11.9976   21.3543 H   0  0  0  0  0  0
  -28.4742  -13.6429   21.8668 H   0  0  0  0  0  0
  -25.2830   -9.5669   22.4708 H   0  0  0  0  0  0
  -24.0022   -7.4644   22.7464 H   0  0  0  0  0  0
  -21.0864   -8.8756   19.8940 H   0  0  0  0  0  0
  -22.3723  -10.9658   19.6145 H   0  0  0  0  0  0
  -21.2038   -7.6134   23.9701 H   0  0  0  0  0  0
  -21.1497   -6.0522   25.9070 H   0  0  0  0  0  0
  -22.0613   -2.7617   23.2802 H   0  0  0  0  0  0
  -22.4160  -11.9772   22.4713 H   0  0  0  0  0  0
  -21.1179  -13.1203   22.2710 H   0  0  0  0  0  0
  -24.6435  -15.8373   20.5474 H   0  0  0  0  0  0
  -26.2643  -15.6497   20.1181 H   0  0  0  0  0  0
  -26.7147  -32.5496   23.1164 H   0  0  0  0  0  0
  -25.0189  -33.9802   25.0556 H   0  0  0  0  0  0
  -22.7053  -31.3069   21.4061 H   0  0  0  0  0  0
  -23.3750  -35.9667   23.3281 H   0  0  0  0  0  0
  -24.3607  -36.8946   22.2047 H   0  0  0  0  0  0
  -23.7237  -37.6526   23.6645 H   0  0  0  0  0  0
  -26.0643  -31.5730   20.6017 H   0  0  0  0  0  0
  -26.8300  -30.8677   21.9949 H   0  0  0  0  0  0
  -28.0982  -29.0358   21.2163 H   0  0  0  0  0  0
  -26.0879  -26.0172   18.8894 H   0  0  0  0  0  0
  -24.0098  -27.3459   18.9320 H   0  0  0  0  0  0
  -23.7398  -30.6044   19.4046 H   0  0  0  0  0  0
  -22.7472  -29.2513   19.8567 H   0  0  0  0  0  0
  -25.1280  -36.1992   25.0821 H   0  0  0  0  0  0
  -20.9970  -28.3273   24.1411 H   0  0  0  0  0  0
  -20.5724  -26.2316   23.3584 H   0  0  0  0  0  0
  -21.6653  -26.7497   22.1174 H   0  0  0  0  0  0
  -19.6939  -25.6306   21.1241 H   0  0  0  0  0  0
  -19.6698  -27.3206   20.6725 H   0  0  0  0  0  0
  -17.4204  -26.6674   21.4016 H   0  0  0  0  0  0
  -18.0358  -26.0085   22.9021 H   0  0  0  0  0  0
  -19.7930  -30.7286   24.2268 H   0  0  0  0  0  0
  -17.5006  -31.6259   24.5204 H   0  0  0  0  0  0
  -15.5355  -30.3009   23.7625 H   0  0  0  0  0  0
  -15.8675  -28.0859   22.7006 H   0  0  0  0  0  0
  -24.5933  -30.7028   25.7826 H   0  0  0  0  0  0
  -24.8938  -32.2847   26.4945 H   0  0  0  0  0  0
  -25.8119  -30.8868   27.0233 H   0  0  0  0  0  0
  -26.2828  -29.6806   24.1162 H   0  0  0  0  0  0
  -27.4034  -29.7244   25.4576 H   0  0  0  0  0  0
  -27.8688  -30.4329   23.9285 H   0  0  0  0  0  0
  -27.2699  -33.3598   26.2098 H   0  0  0  0  0  0
  -28.3877  -32.6839   25.0330 H   0  0  0  0  0  0
  -28.0720  -31.8398   26.5412 H   0  0  0  0  0  0
  -28.2583  -38.0145   24.7521 H   0  0  0  0  0  0
  -28.1113  -36.2667   24.6261 H   0  0  0  0  0  0
  -27.2324  -37.1446   25.8871 H   0  0  0  0  0  0
  -20.9322  -29.8849   21.6953 H   0  0  0  0  0  0
  -26.0191  -38.2877   24.1394 H   0  0  0  0  0  0
  -32.1854  -19.6814   19.7714 H   0  0  0  0  0  0
  -31.6228  -22.3145   20.1179 H   0  0  0  0  0  0
  -29.4862  -18.1833   18.0022 H   0  0  0  0  0  0
  -29.6580  -16.5085   18.4912 H   0  0  0  0  0  0
  -31.0547  -17.5785   18.5279 H   0  0  0  0  0  0
  -27.5513  -18.3534   19.6745 H   0  0  0  0  0  0
  -27.8198  -17.9717   21.3766 H   0  0  0  0  0  0
  -27.8346  -16.6966   20.1621 H   0  0  0  0  0  0
  -29.0154  -24.0160   19.0774 H   0  0  0  0  0  0
  -30.1639  -24.4194   20.3331 H   0  0  0  0  0  0
  -27.7765  -22.5157   20.6460 H   0  0  0  0  0  0
  -28.8658  -22.9045   21.9464 H   0  0  0  0  0  0
  -30.1994  -17.3251   22.1756 H   0  0  0  0  0  0
  -31.4815  -17.0940   21.0251 H   0  0  0  0  0  0
  -28.3318  -25.3670   21.7471 H   0  0  0  0  0  0
  -27.1504  -24.9202   20.5639 H   0  0  0  0  0  0
  -29.0890  -15.3248   21.4256 H   0  0  0  0  0  0
  1 25  1  0  0  0
  1 30  2  0  0  0
  1 83  1  0  0  0
  2  3  1  0  0  0
  2 25  1  0  0  0
  2 84  1  0  0  0
  2 85  1  0  0  0
  3  4  1  0  0  0
  3 86  1  0  0  0
  3 87  1  0  0  0
  4  5  1  0  0  0
  4 88  1  0  0  0
  4 89  1  0  0  0
  5  6  1  0  0  0
  5 26  1  0  0  0
  5 90  1  0  0  0
  6 25  1  0  0  0
  6 91  1  0  0  0
  6 92  1  0  0  0
  7  8  2  0  0  0
  7 26  1  0  0  0
  7 29  1  0  0  0
  8  9  1  0  0  0
  8 22  1  0  0  0
  9 10  1  0  0  0
  9 27  2  0  0  0
 10 11  2  0  0  0
 10 15  1  0  0  0
 11 12  1  0  0  0
 11 93  1  0  0  0
 12 13  2  0  0  0
 12 94  1  0  0  0
 13 14  1  0  0  0
 13 31  1  0  0  0
 14 15  2  0  0  0
 14 95  1  0  0  0
 15 96  1  0  0  0
 16 17  2  0  0  0
 16 21  1  0  0  0
 16 31  1  0  0  0
 17 18  1  0  0  0
 17 97  1  0  0  0
 18 19  2  0  0  0
 18 98  1  0  0  0
 19 20  1  0  0  0
 19 24  1  0  0  0
 20 21  2  0  0  0
 20 99  1  0  0  0
 21 23  1  0  0  0
 22 28  1  0  0  0
 22 32  2  0  0  0
 26 27  1  0  0  0
 28100  1  0  0  0
 28101  1  0  0  0
 29102  1  0  0  0
 29103  1  0  0  0
 33 34  1  0  0  0
 33 66  1  0  0  0
 33 70  2  0  0  0
 34 36  1  0  0  0
 34 59  1  0  0  0
 34104  1  0  0  0
 35 44  2  0  0  0
 35 45  1  0  0  0
 35 68  1  0  0  0
 36 56  1  0  0  0
 36105  1  0  0  0
 37 39  1  0  0  0
 37 47  1  0  0  0
 37 66  1  0  0  0
 37106  1  0  0  0
 38 43  2  0  0  0
 38 46  1  0  0  0
 38 47  1  0  0  0
 39 64  1  0  0  0
 39 67  2  0  0  0
 40 52  1  0  0  0
 40 53  2  0  0  0
 40 58  1  0  0  0
 41107  1  0  0  0
 41108  1  0  0  0
 41109  1  0  0  0
 41 48  1  0  0  0
 42 43  1  0  0  0
 42 66  1  0  0  0
 42110  1  0  0  0
 42111  1  0  0  0
 43 44  1  0  0  0
 44112  1  0  0  0
 45 46  2  0  0  0
 45113  1  0  0  0
 46114  1  0  0  0
 47115  1  0  0  0
 47116  1  0  0  0
 48 56  1  0  0  0
 48 65  1  0  0  0
 48117  1  0  0  0
 49 50  1  0  0  0
 49 53  1  0  0  0
 49 64  1  0  0  0
 49118  1  0  0  0
 50 51  1  0  0  0
 50119  1  0  0  0
 50120  1  0  0  0
 51 52  1  0  0  0
 51121  1  0  0  0
 51122  1  0  0  0
 52123  1  0  0  0
 52124  1  0  0  0
 53 54  1  0  0  0
 54 55  2  0  0  0
 54125  1  0  0  0
 55 57  1  0  0  0
 55126  1  0  0  0
 56 69  2  0  0  0
 57 58  2  0  0  0
 57127  1  0  0  0
 58128  1  0  0  0
 59 60  1  0  0  0
 59 61  1  0  0  0
 59 62  1  0  0  0
 60129  1  0  0  0
 60130  1  0  0  0
 60131  1  0  0  0
 61132  1  0  0  0
 61133  1  0  0  0
 61134  1  0  0  0
 62135  1  0  0  0
 62136  1  0  0  0
 62137  1  0  0  0
 63 65  1  0  0  0
 63138  1  0  0  0
 63139  1  0  0  0
 63140  1  0  0  0
 64141  1  0  0  0
 65142  1  0  0  0
 68 79  1  0  0  0
 71 72  2  0  0  0
 71 73  1  0  0  0
 71143  1  0  0  0
 72 82  1  0  0  0
 72144  1  0  0  0
 73 80  1  0  0  0
 73 81  2  0  0  0
 74145  1  0  0  0
 74146  1  0  0  0
 74147  1  0  0  0
 74 80  1  0  0  0
 75 80  1  0  0  0
 75148  1  0  0  0
 75149  1  0  0  0
 75150  1  0  0  0
 76 77  1  0  0  0
 76 79  1  0  0  0
 76151  1  0  0  0
 76152  1  0  0  0
 77 82  1  0  0  0
 77153  1  0  0  0
 77154  1  0  0  0
 78 80  1  0  0  0
 78 83  1  0  0  0
 78155  1  0  0  0
 78156  1  0  0  0
 79157  1  0  0  0
 79158  1  0  0  0
 81 82  1  0  0  0
 83159  1  0  0  0
M  ISO  4   1 100  68 101  79 101  83 100
M  END
> <chiral flag>
0

> <version>
0

> <s_m_source_file>
/data/baiqing/PycharmProjects/Reinvent-master-3.2/result/LINK_invent/BTK/process_docking_weight1_custom_sum_contain_oxygen_bond_distance_aromatic_linkinvent_7_9_3/rearranged_h_0056.sdf

> <i_m_source_file_index>
41

> <r_mmod_Potential_Energy-OPLS-2005>
-118.735977172852

> <r_mmod_Stretch_Energy-OPLS-2005>
50.6676483154297

> <r_mmod_Bend_Energy-OPLS-2005>
111.232803344727

> <r_mmod_Torsional_Energy-OPLS-2005>
238.610214233398

> <r_mmod_Improper_Torsional_Energy-OPLS-2005>
3.73309254646301

> <r_mmod_Van_der_Waal_Energy-OPLS-2005>
125.661087036133

> <r_mmod_Electrostatic_Energy-OPLS-2005>
-456.203643798828

> <r_mmod_Solvation_Energy-OPLS-2005>
-213.413558959961

> <b_mmod_Minimization_Converged-OPLS-2005>
0

> <r_mmod_RMS_Derivative-OPLS-2005>
4.31440210342407

$$$$
43
                    3D
 Structure written by MMmdl.
157165  0  0  1  0            999 V2000
  -30.4755  -15.4013   20.2805 C   0  0  0  0  0  0
  -30.4499  -12.9111   19.4648 C   0  0  0  0  0  0
  -29.5364  -12.5748   18.2545 C   0  0  0  0  0  0
  -28.0917  -12.2788   18.7041 C   0  0  0  0  0  0
  -27.5962  -13.2938   19.7630 C   0  0  2  0  0  0
  -28.6447  -13.5862   20.8700 C   0  0  0  0  0  0
  -25.2323  -13.8171   20.5736 C   0  0  0  0  0  0
  -24.1686  -13.0335   20.9294 C   0  0  0  0  0  0
  -24.6396  -11.6874   20.8713 C   0  0  0  0  0  0
  -23.9074  -10.4236   21.0338 C   0  0  0  0  0  0
  -24.3616   -9.4183   21.9135 C   0  0  0  0  0  0
  -23.6299   -8.2224   22.0718 C   0  0  0  0  0  0
  -22.4281   -8.0253   21.3512 C   0  0  0  0  0  0
  -21.9898   -9.0217   20.4595 C   0  0  0  0  0  0
  -22.7243  -10.2097   20.2969 C   0  0  0  0  0  0
  -21.6830   -6.0731   22.5311 C   0  0  0  0  0  0
  -21.4020   -6.5631   23.8254 C   0  0  0  0  0  0
  -21.3668   -5.6775   24.9204 C   0  0  0  0  0  0
  -21.6038   -4.3044   24.7238 C   0  0  0  0  0  0
  -21.8822   -3.8135   23.4367 C   0  0  0  0  0  0
  -21.9184   -4.6957   22.3423 C   0  0  0  0  0  0
  -22.7707  -13.5071   21.1994 C   0  0  0  0  0  0
  -22.1639   -4.2150   21.1005 F   0  0  0  0  0  0
  -21.5629   -3.4511   25.7757 F   0  0  0  0  0  0
  -29.8671  -14.0966   20.2152 N   0  0  0  0  0  0
  -26.2765  -12.9529   20.3009 N   0  0  0  0  0  0
  -25.9334  -11.6612   20.5537 N   0  0  0  0  0  0
  -22.0372  -12.8033   22.0601 N   0  0  0  0  0  0
  -25.3901  -15.1839   20.4262 N   0  0  0  0  0  0
  -31.7062  -15.3135   20.1752 O   0  0  0  0  0  0
  -21.6613   -6.8877   21.4277 O   0  0  0  0  0  0
  -22.3356  -14.5349   20.6852 O   0  0  0  0  0  0
  -24.6795  -31.8134   23.1609 C   0  0  0  0  0  0
  -25.9431  -32.4549   23.8109 C   0  0  1  0  0  0
  -27.2515  -26.8491   20.1746 C   0  0  0  0  0  0
  -25.6069  -33.8360   24.2026 N   0  0  0  0  0  0
  -23.4982  -30.4217   21.5087 C   0  0  2  0  0  0
  -24.9568  -28.7885   20.1089 C   0  0  0  0  0  0
  -22.7749  -29.4393   22.4713 C   0  0  0  0  0  0
  -18.0344  -28.1475   22.8455 C   0  0  0  0  0  0
  -24.1485  -36.7183   23.2640 C   0  0  0  0  0  0
  -26.0715  -30.5944   21.4005 C   0  0  0  0  0  0
  -26.1405  -29.1730   20.7482 C   0  0  0  0  0  0
  -27.2687  -28.2232   20.7642 C   0  0  0  0  0  0
  -26.0320  -26.6369   19.4869 C   0  0  0  0  0  0
  -24.9323  -27.5410   19.4623 C   0  0  0  0  0  0
  -23.7519  -29.7351   20.1362 C   0  0  0  0  0  0
  -25.4126  -36.2924   24.0298 C   0  0  1  0  0  0
  -20.5979  -28.3827   23.1161 C   0  0  2  0  0  0
  -20.6838  -26.9499   22.5397 C   0  0  0  0  0  0
  -19.5805  -26.6422   21.5231 C   0  0  0  0  0  0
  -18.1978  -26.8002   22.1635 C   0  0  0  0  0  0
  -19.1603  -28.8967   23.2808 C   0  0  0  0  0  0
  -18.9519  -30.1535   23.8865 C   0  0  0  0  0  0
  -17.6510  -30.6648   24.0579 C   0  0  0  0  0  0
  -25.9117  -34.9317   23.4964 C   0  0  0  0  0  0
  -16.5406  -29.9145   23.6333 C   0  0  0  0  0  0
  -16.7321  -28.6580   23.0344 C   0  0  0  0  0  0
  -26.4616  -31.6533   25.0680 C   0  0  0  0  0  0
  -25.3694  -31.3880   26.1322 C   0  0  0  0  0  0
  -27.0515  -30.2889   24.6445 C   0  0  0  0  0  0
  -27.6087  -32.4339   25.7547 C   0  0  0  0  0  0
  -27.5547  -37.1763   24.8473 C   0  0  0  0  0  0
  -21.4400  -29.3086   22.3493 N   0  0  0  0  0  0
  -26.4239  -37.3685   23.9415 N   0  0  0  0  0  0
  -24.7719  -30.9731   22.0775 N   0  0  0  0  0  0
  -23.4258  -28.7933   23.2982 O   0  0  0  0  0  0
  -28.2293  -25.6935   20.3198 O   0  0  0  0  0  0
  -26.5680  -34.8876   22.4533 O   0  0  0  0  0  0
  -23.5846  -32.1110   23.6677 O   0  0  0  0  0  0
  -27.5717  -21.4744   19.5485 C   0  0  0  0  0  0
  -28.5265  -22.4130   19.9412 C   0  0  0  0  0  0
  -29.2559  -19.9490   20.0804 C   0  0  0  0  0  0
  -31.4350  -18.6383   19.4102 C   0  0  0  0  0  0
  -26.6554  -18.1590   20.1446 C   0  0  0  0  0  0
  -27.8895  -18.2495   17.8507 C   0  0  0  0  0  0
  -28.3434  -24.1764   19.5927 C   0  0  0  0  0  0
  -30.1797  -18.4207   20.2722 C   0  0  2  0  0  0
  -27.2154  -19.0212   19.0138 C   0  0  0  0  0  0
  -28.0232  -20.1288   19.5498 N   0  0  0  0  0  0
  -29.5596  -21.3670   20.2562 N   0  3  0  0  0  0
  -29.7923  -16.7488   20.2718 N   0  0  0  0  0  0
  -31.4455  -13.1460   19.0837 H   0  0  0  0  0  0
  -30.5850  -12.0466   20.1221 H   0  0  0  0  0  0
  -29.9280  -11.7359   17.6750 H   0  0  0  0  0  0
  -29.5447  -13.4233   17.5714 H   0  0  0  0  0  0
  -28.0532  -11.2669   19.1082 H   0  0  0  0  0  0
  -27.4272  -12.2643   17.8387 H   0  0  0  0  0  0
  -27.4563  -14.2084   19.1849 H   0  0  0  0  0  0
  -28.8341  -12.6991   21.4726 H   0  0  0  0  0  0
  -28.2786  -14.3666   21.5402 H   0  0  0  0  0  0
  -25.2796   -9.5679   22.4680 H   0  0  0  0  0  0
  -24.0007   -7.4610   22.7432 H   0  0  0  0  0  0
  -21.0796   -8.8715   19.8952 H   0  0  0  0  0  0
  -22.3668  -10.9587   19.6034 H   0  0  0  0  0  0
  -21.2021   -7.6141   23.9758 H   0  0  0  0  0  0
  -21.1467   -6.0503   25.9118 H   0  0  0  0  0  0
  -22.0585   -2.7587   23.2872 H   0  0  0  0  0  0
  -22.3899  -11.9638   22.4941 H   0  0  0  0  0  0
  -21.0986  -13.1060   22.2866 H   0  0  0  0  0  0
  -24.6224  -15.8348   20.5408 H   0  0  0  0  0  0
  -26.2227  -15.6275   20.0666 H   0  0  0  0  0  0
  -26.7516  -32.5074   23.0842 H   0  0  0  0  0  0
  -25.0339  -33.9409   25.0265 H   0  0  0  0  0  0
  -22.8180  -31.2567   21.3330 H   0  0  0  0  0  0
  -23.3741  -35.9513   23.3268 H   0  0  0  0  0  0
  -24.3559  -36.8847   22.2052 H   0  0  0  0  0  0
  -23.7248  -37.6386   23.6694 H   0  0  0  0  0  0
  -26.2499  -31.3253   20.6111 H   0  0  0  0  0  0
  -26.9351  -30.6655   22.0479 H   0  0  0  0  0  0
  -28.1550  -28.5187   21.3076 H   0  0  0  0  0  0
  -25.8757  -25.6792   19.0173 H   0  0  0  0  0  0
  -24.0310  -27.2277   18.9524 H   0  0  0  0  0  0
  -23.9539  -30.5107   19.3982 H   0  0  0  0  0  0
  -22.8571  -29.2206   19.7845 H   0  0  0  0  0  0
  -25.1316  -36.1674   25.0782 H   0  0  0  0  0  0
  -21.0081  -28.3457   24.1303 H   0  0  0  0  0  0
  -20.5763  -26.2457   23.3672 H   0  0  0  0  0  0
  -21.6690  -26.7515   22.1182 H   0  0  0  0  0  0
  -19.6964  -25.6316   21.1333 H   0  0  0  0  0  0
  -19.6733  -27.3188   20.6718 H   0  0  0  0  0  0
  -17.4244  -26.6760   21.4026 H   0  0  0  0  0  0
  -18.0328  -26.0180   22.9054 H   0  0  0  0  0  0
  -19.7981  -30.7349   24.2259 H   0  0  0  0  0  0
  -17.5067  -31.6315   24.5214 H   0  0  0  0  0  0
  -15.5409  -30.3061   23.7671 H   0  0  0  0  0  0
  -15.8733  -28.0915   22.7065 H   0  0  0  0  0  0
  -24.5850  -30.7246   25.7665 H   0  0  0  0  0  0
  -24.8929  -32.3146   26.4541 H   0  0  0  0  0  0
  -25.7892  -30.9196   27.0227 H   0  0  0  0  0  0
  -26.3178  -29.6547   24.1465 H   0  0  0  0  0  0
  -27.4058  -29.7285   25.5107 H   0  0  0  0  0  0
  -27.9101  -30.4103   23.9838 H   0  0  0  0  0  0
  -27.2623  -33.3649   26.2042 H   0  0  0  0  0  0
  -28.4006  -32.6878   25.0487 H   0  0  0  0  0  0
  -28.0623  -31.8508   26.5577 H   0  0  0  0  0  0
  -28.2567  -38.0057   24.7476 H   0  0  0  0  0  0
  -28.1040  -36.2587   24.6319 H   0  0  0  0  0  0
  -27.2279  -37.1431   25.8884 H   0  0  0  0  0  0
  -20.9679  -29.8803   21.6637 H   0  0  0  0  0  0
  -26.0070  -38.2732   24.1418 H   0  0  0  0  0  0
  -26.5962  -21.6962   19.1479 H   0  0  0  0  0  0
  -31.8438  -19.6309   19.6041 H   0  0  0  0  0  0
  -31.2018  -18.5879   18.3454 H   0  0  0  0  0  0
  -32.2435  -17.9384   19.6202 H   0  0  0  0  0  0
  -25.8526  -17.5382   19.7546 H   0  0  0  0  0  0
  -26.2088  -18.7863   20.9167 H   0  0  0  0  0  0
  -27.3948  -17.5327   20.6386 H   0  0  0  0  0  0
  -27.2937  -17.4005   17.5159 H   0  0  0  0  0  0
  -28.8759  -17.8590   18.0795 H   0  0  0  0  0  0
  -28.0030  -18.8900   16.9774 H   0  0  0  0  0  0
  -27.4412  -24.1812   18.9857 H   0  0  0  0  0  0
  -29.1261  -24.3557   18.8568 H   0  0  0  0  0  0
  -30.5320  -18.5435   21.2970 H   0  0  0  0  0  0
  -26.3472  -19.4909   18.5583 H   0  0  0  0  0  0
  -30.4941  -21.6437   20.5376 H   0  0  0  0  0  0
  -28.7948  -16.6233   20.3417 H   0  0  0  0  0  0
  1 25  1  0  0  0
  1 30  2  0  0  0
  1 82  1  0  0  0
  2  3  1  0  0  0
  2 25  1  0  0  0
  2 83  1  0  0  0
  2 84  1  0  0  0
  3  4  1  0  0  0
  3 85  1  0  0  0
  3 86  1  0  0  0
  4  5  1  0  0  0
  4 87  1  0  0  0
  4 88  1  0  0  0
  5  6  1  0  0  0
  5 26  1  0  0  0
  5 89  1  0  0  0
  6 25  1  0  0  0
  6 90  1  0  0  0
  6 91  1  0  0  0
  7  8  2  0  0  0
  7 26  1  0  0  0
  7 29  1  0  0  0
  8  9  1  0  0  0
  8 22  1  0  0  0
  9 10  1  0  0  0
  9 27  2  0  0  0
 10 11  2  0  0  0
 10 15  1  0  0  0
 11 12  1  0  0  0
 11 92  1  0  0  0
 12 13  2  0  0  0
 12 93  1  0  0  0
 13 14  1  0  0  0
 13 31  1  0  0  0
 14 15  2  0  0  0
 14 94  1  0  0  0
 15 95  1  0  0  0
 16 17  2  0  0  0
 16 21  1  0  0  0
 16 31  1  0  0  0
 17 18  1  0  0  0
 17 96  1  0  0  0
 18 19  2  0  0  0
 18 97  1  0  0  0
 19 20  1  0  0  0
 19 24  1  0  0  0
 20 21  2  0  0  0
 20 98  1  0  0  0
 21 23  1  0  0  0
 22 28  1  0  0  0
 22 32  2  0  0  0
 26 27  1  0  0  0
 28 99  1  0  0  0
 28100  1  0  0  0
 29101  1  0  0  0
 29102  1  0  0  0
 33 34  1  0  0  0
 33 66  1  0  0  0
 33 70  2  0  0  0
 34 36  1  0  0  0
 34 59  1  0  0  0
 34103  1  0  0  0
 35 44  2  0  0  0
 35 45  1  0  0  0
 35 68  1  0  0  0
 36 56  1  0  0  0
 36104  1  0  0  0
 37 39  1  0  0  0
 37 47  1  0  0  0
 37 66  1  0  0  0
 37105  1  0  0  0
 38 43  2  0  0  0
 38 46  1  0  0  0
 38 47  1  0  0  0
 39 64  1  0  0  0
 39 67  2  0  0  0
 40 52  1  0  0  0
 40 53  2  0  0  0
 40 58  1  0  0  0
 41106  1  0  0  0
 41107  1  0  0  0
 41108  1  0  0  0
 41 48  1  0  0  0
 42 43  1  0  0  0
 42 66  1  0  0  0
 42109  1  0  0  0
 42110  1  0  0  0
 43 44  1  0  0  0
 44111  1  0  0  0
 45 46  2  0  0  0
 45112  1  0  0  0
 46113  1  0  0  0
 47114  1  0  0  0
 47115  1  0  0  0
 48 56  1  0  0  0
 48 65  1  0  0  0
 48116  1  0  0  0
 49 50  1  0  0  0
 49 53  1  0  0  0
 49 64  1  0  0  0
 49117  1  0  0  0
 50 51  1  0  0  0
 50118  1  0  0  0
 50119  1  0  0  0
 51 52  1  0  0  0
 51120  1  0  0  0
 51121  1  0  0  0
 52122  1  0  0  0
 52123  1  0  0  0
 53 54  1  0  0  0
 54 55  2  0  0  0
 54124  1  0  0  0
 55 57  1  0  0  0
 55125  1  0  0  0
 56 69  2  0  0  0
 57 58  2  0  0  0
 57126  1  0  0  0
 58127  1  0  0  0
 59 60  1  0  0  0
 59 61  1  0  0  0
 59 62  1  0  0  0
 60128  1  0  0  0
 60129  1  0  0  0
 60130  1  0  0  0
 61131  1  0  0  0
 61132  1  0  0  0
 61133  1  0  0  0
 62134  1  0  0  0
 62135  1  0  0  0
 62136  1  0  0  0
 63 65  1  0  0  0
 63137  1  0  0  0
 63138  1  0  0  0
 63139  1  0  0  0
 64140  1  0  0  0
 65141  1  0  0  0
 68 77  1  0  0  0
 71 72  2  0  0  0
 71 80  1  0  0  0
 71142  1  0  0  0
 72 77  1  0  0  0
 72 81  1  0  0  0
 73 78  1  0  0  0
 73 80  1  0  0  0
 73 81  2  0  0  0
 74143  1  0  0  0
 74144  1  0  0  0
 74145  1  0  0  0
 74 78  1  0  0  0
 75146  1  0  0  0
 75147  1  0  0  0
 75148  1  0  0  0
 75 79  1  0  0  0
 76 79  1  0  0  0
 76149  1  0  0  0
 76150  1  0  0  0
 76151  1  0  0  0
 77152  1  0  0  0
 77153  1  0  0  0
 78 82  1  0  0  0
 78154  1  0  0  0
 79 80  1  0  0  0
 79155  1  0  0  0
 81156  1  0  0  0
 82157  1  0  0  0
M  CHG  1  81   1
M  ISO  4   1 100  68 101  77 101  82 100
M  END
> <chiral flag>
0

> <version>
0

> <s_m_source_file>
/data/baiqing/PycharmProjects/Reinvent-master-3.2/result/LINK_invent/BTK/process_docking_weight1_custom_sum_contain_oxygen_bond_distance_aromatic_linkinvent_7_9_3/rearranged_h_0056.sdf

> <i_m_source_file_index>
42

> <r_mmod_Potential_Energy-OPLS-2005>
1584.62512207031

> <r_mmod_Stretch_Energy-OPLS-2005>
728.683227539062

> <r_mmod_Bend_Energy-OPLS-2005>
572.504821777344

> <r_mmod_Torsional_Energy-OPLS-2005>
255.201629638672

> <r_mmod_Improper_Torsional_Energy-OPLS-2005>
8.51619815826416

> <r_mmod_Van_der_Waal_Energy-OPLS-2005>
105.214004516602

> <r_mmod_Electrostatic_Energy-OPLS-2005>
-258.618713378906

> <r_mmod_Solvation_Energy-OPLS-2005>
-439.544250488281

> <b_mmod_Minimization_Converged-OPLS-2005>
0

> <r_mmod_RMS_Derivative-OPLS-2005>
8.23503303527832

$$$$
44
                    3D
 Structure written by MMmdl.
154162  0  0  1  0            999 V2000
  -30.4217  -15.3171   20.3900 C   0  0  0  0  0  0
  -30.4465  -12.8426   19.5388 C   0  0  0  0  0  0
  -29.5433  -12.5977   18.2996 C   0  0  0  0  0  0
  -28.0907  -12.3096   18.7171 C   0  0  0  0  0  0
  -27.6152  -13.2764   19.8282 C   0  0  2  0  0  0
  -28.6508  -13.4262   20.9629 C   0  0  0  0  0  0
  -25.2316  -13.8198   20.5672 C   0  0  0  0  0  0
  -24.1711  -13.0386   20.9254 C   0  0  0  0  0  0
  -24.6410  -11.6903   20.8773 C   0  0  0  0  0  0
  -23.9111  -10.4269   21.0420 C   0  0  0  0  0  0
  -24.3651   -9.4183   21.9201 C   0  0  0  0  0  0
  -23.6311   -8.2225   22.0763 C   0  0  0  0  0  0
  -22.4289   -8.0276   21.3550 C   0  0  0  0  0  0
  -21.9942   -9.0249   20.4646 C   0  0  0  0  0  0
  -22.7286  -10.2123   20.3061 C   0  0  0  0  0  0
  -21.6845   -6.0746   22.5288 C   0  0  0  0  0  0
  -21.4003   -6.5644   23.8222 C   0  0  0  0  0  0
  -21.3658   -5.6791   24.9180 C   0  0  0  0  0  0
  -21.6047   -4.3055   24.7224 C   0  0  0  0  0  0
  -21.8819   -3.8154   23.4338 C   0  0  0  0  0  0
  -21.9188   -4.6976   22.3402 C   0  0  0  0  0  0
  -22.7724  -13.5137   21.1900 C   0  0  0  0  0  0
  -22.1659   -4.2170   21.0976 F   0  0  0  0  0  0
  -21.5637   -3.4534   25.7731 F   0  0  0  0  0  0
  -29.8827  -13.9834   20.3665 N   0  0  0  0  0  0
  -26.2816  -12.9521   20.3222 N   0  0  0  0  0  0
  -25.9359  -11.6619   20.5759 N   0  0  0  0  0  0
  -22.0385  -12.8132   22.0467 N   0  0  0  0  0  0
  -25.3754  -15.1913   20.3975 N   0  0  0  0  0  0
  -31.6161  -15.2884   20.0551 O   0  0  0  0  0  0
  -21.6631   -6.8891   21.4250 O   0  0  0  0  0  0
  -22.3395  -14.5433   20.6738 O   0  0  0  0  0  0
  -24.6651  -31.8215   23.1666 C   0  0  0  0  0  0
  -25.9321  -32.4580   23.8132 C   0  0  1  0  0  0
  -27.2261  -26.9079   20.1884 C   0  0  0  0  0  0
  -25.5992  -33.8390   24.2060 N   0  0  0  0  0  0
  -23.4823  -30.4310   21.5146 C   0  0  2  0  0  0
  -24.9403  -28.8139   20.1117 C   0  0  0  0  0  0
  -22.7680  -29.4436   22.4735 C   0  0  0  0  0  0
  -18.0341  -28.1428   22.8467 C   0  0  0  0  0  0
  -24.1494  -36.7181   23.2644 C   0  0  0  0  0  0
  -26.0524  -30.6204   21.4027 C   0  0  0  0  0  0
  -26.1223  -29.2073   20.7501 C   0  0  0  0  0  0
  -27.2583  -28.2752   20.7657 C   0  0  0  0  0  0
  -26.0133  -26.6755   19.4970 C   0  0  0  0  0  0
  -24.9122  -27.5695   19.4652 C   0  0  0  0  0  0
  -23.7263  -29.7418   20.1428 C   0  0  0  0  0  0
  -25.4137  -36.2948   24.0294 C   0  0  1  0  0  0
  -20.5968  -28.3773   23.1185 C   0  0  2  0  0  0
  -20.6826  -26.9455   22.5409 C   0  0  0  0  0  0
  -19.5794  -26.6402   21.5224 C   0  0  0  0  0  0
  -18.1975  -26.7967   22.1623 C   0  0  0  0  0  0
  -19.1605  -28.8919   23.2818 C   0  0  0  0  0  0
  -18.9511  -30.1509   23.8851 C   0  0  0  0  0  0
  -17.6505  -30.6619   24.0567 C   0  0  0  0  0  0
  -25.9105  -34.9333   23.4995 C   0  0  0  0  0  0
  -16.5395  -29.9103   23.6356 C   0  0  0  0  0  0
  -16.7327  -28.6526   23.0370 C   0  0  0  0  0  0
  -26.4572  -31.6529   25.0663 C   0  0  0  0  0  0
  -25.3690  -31.3812   26.1315 C   0  0  0  0  0  0
  -27.0473  -30.2889   24.6418 C   0  0  0  0  0  0
  -27.6058  -32.4337   25.7475 C   0  0  0  0  0  0
  -27.5566  -37.1748   24.8460 C   0  0  0  0  0  0
  -21.4351  -29.3047   22.3497 N   0  0  0  0  0  0
  -26.4268  -37.3700   23.9416 N   0  0  0  0  0  0
  -24.7543  -30.9854   22.0812 N   0  0  0  0  0  0
  -23.4217  -28.8013   23.3005 O   0  0  0  0  0  0
  -28.2126  -25.7813   20.2846 O   0  0  0  0  0  0
  -26.5690  -34.8883   22.4580 O   0  0  0  0  0  0
  -23.5720  -32.1177   23.6750 O   0  0  0  0  0  0
  -29.6056  -22.1369   21.3221 C   0  0  0  0  0  0
  -28.5684  -21.2702   19.7396 C   0  0  0  0  0  0
  -28.6848  -22.6115   20.3114 C   0  0  0  0  0  0
  -28.7780  -18.1976   18.6671 C   0  0  0  0  0  0
  -28.3289  -16.7192   21.3436 C   0  0  0  0  0  0
  -30.6037  -17.3296   22.0398 C   0  0  0  0  0  0
  -27.8949  -24.1813   20.0066 C   0  0  0  0  0  0
  -29.6422  -18.4910   19.9049 C   0  0  2  0  0  0
  -29.7553  -16.9276   20.8183 C   0  0  0  0  0  0
  -29.9496  -20.7965   21.3228 N   0  0  0  0  0  0
  -29.2951  -20.0994   20.3367 N   0  0  0  0  0  0
  -31.4604  -13.0499   19.1944 H   0  0  0  0  0  0
  -30.5382  -11.9344   20.1372 H   0  0  0  0  0  0
  -29.9334  -11.7727   17.7023 H   0  0  0  0  0  0
  -29.5703  -13.4803   17.6583 H   0  0  0  0  0  0
  -28.0495  -11.2833   19.0845 H   0  0  0  0  0  0
  -27.4250  -12.3553   17.8551 H   0  0  0  0  0  0
  -27.5337  -14.2469   19.3391 H   0  0  0  0  0  0
  -28.8361  -12.4674   21.4483 H   0  0  0  0  0  0
  -28.2692  -14.0678   21.7512 H   0  0  0  0  0  0
  -25.2793   -9.5647   22.4786 H   0  0  0  0  0  0
  -24.0008   -7.4605   22.7475 H   0  0  0  0  0  0
  -21.0885   -8.8778   19.8937 H   0  0  0  0  0  0
  -22.3759  -10.9666   19.6168 H   0  0  0  0  0  0
  -21.1983   -7.6150   23.9732 H   0  0  0  0  0  0
  -21.1483   -6.0518   25.9089 H   0  0  0  0  0  0
  -22.0599   -2.7623   23.2826 H   0  0  0  0  0  0
  -22.4019  -11.9796   22.4845 H   0  0  0  0  0  0
  -21.1001  -13.1150   22.2689 H   0  0  0  0  0  0
  -24.5954  -15.8295   20.5075 H   0  0  0  0  0  0
  -26.2088  -15.6393   20.0426 H   0  0  0  0  0  0
  -26.7380  -32.5119   23.0835 H   0  0  0  0  0  0
  -25.0150  -33.9458   25.0218 H   0  0  0  0  0  0
  -22.7982  -31.2639   21.3384 H   0  0  0  0  0  0
  -23.3770  -35.9497   23.3264 H   0  0  0  0  0  0
  -24.3581  -36.8863   22.2068 H   0  0  0  0  0  0
  -23.7237  -37.6356   23.6718 H   0  0  0  0  0  0
  -26.2352  -31.3585   20.6202 H   0  0  0  0  0  0
  -26.9116  -30.6816   22.0583 H   0  0  0  0  0  0
  -28.1489  -28.5712   21.3012 H   0  0  0  0  0  0
  -25.8745  -25.7243   19.0035 H   0  0  0  0  0  0
  -24.0139  -27.2624   18.9466 H   0  0  0  0  0  0
  -23.8846  -30.5048   19.3800 H   0  0  0  0  0  0
  -22.8365  -29.1951   19.8248 H   0  0  0  0  0  0
  -25.1347  -36.1724   25.0786 H   0  0  0  0  0  0
  -21.0080  -28.3402   24.1297 H   0  0  0  0  0  0
  -20.5736  -26.2401   23.3653 H   0  0  0  0  0  0
  -21.6691  -26.7458   22.1197 H   0  0  0  0  0  0
  -19.6956  -25.6302   21.1285 H   0  0  0  0  0  0
  -19.6734  -27.3178   20.6720 H   0  0  0  0  0  0
  -17.4262  -26.6730   21.4008 H   0  0  0  0  0  0
  -18.0345  -26.0124   22.9029 H   0  0  0  0  0  0
  -19.7992  -30.7347   24.2197 H   0  0  0  0  0  0
  -17.5065  -31.6286   24.5181 H   0  0  0  0  0  0
  -15.5401  -30.2995   23.7704 H   0  0  0  0  0  0
  -15.8730  -28.0829   22.7110 H   0  0  0  0  0  0
  -24.5899  -30.7122   25.7645 H   0  0  0  0  0  0
  -24.8846  -32.3024   26.4554 H   0  0  0  0  0  0
  -25.7923  -30.9124   27.0203 H   0  0  0  0  0  0
  -26.3146  -29.6553   24.1411 H   0  0  0  0  0  0
  -27.3980  -29.7279   25.5089 H   0  0  0  0  0  0
  -27.9100  -30.4064   23.9859 H   0  0  0  0  0  0
  -27.2625  -33.3695   26.1895 H   0  0  0  0  0  0
  -28.3961  -32.6795   25.0368 H   0  0  0  0  0  0
  -28.0607  -31.8549   26.5521 H   0  0  0  0  0  0
  -28.2558  -38.0070   24.7542 H   0  0  0  0  0  0
  -28.1092  -36.2601   24.6252 H   0  0  0  0  0  0
  -27.2285  -37.1351   25.8862 H   0  0  0  0  0  0
  -20.9606  -29.8708   21.6584 H   0  0  0  0  0  0
  -26.0097  -38.2744   24.1462 H   0  0  0  0  0  0
  -30.0532  -22.7420   22.0996 H   0  0  0  0  0  0
  -27.9650  -21.0330   18.8740 H   0  0  0  0  0  0
  -29.0481  -17.2456   18.2087 H   0  0  0  0  0  0
  -28.8953  -18.9688   17.9056 H   0  0  0  0  0  0
  -27.7203  -18.1543   18.9292 H   0  0  0  0  0  0
  -27.8449  -17.6682   21.5761 H   0  0  0  0  0  0
  -28.3017  -16.1288   22.2582 H   0  0  0  0  0  0
  -27.7255  -16.2305   20.5870 H   0  0  0  0  0  0
  -30.1510  -18.1550   22.5905 H   0  0  0  0  0  0
  -31.5984  -17.6513   21.7301 H   0  0  0  0  0  0
  -30.7304  -16.5018   22.7389 H   0  0  0  0  0  0
  -26.9103  -24.0823   20.4642 H   0  0  0  0  0  0
  -27.6732  -24.1828   18.9395 H   0  0  0  0  0  0
  -30.6559  -18.5799   19.5130 H   0  0  0  0  0  0
  1 25  1  0  0  0
  1 30  2  0  0  0
  1 79  1  0  0  0
  2  3  1  0  0  0
  2 25  1  0  0  0
  2 82  1  0  0  0
  2 83  1  0  0  0
  3  4  1  0  0  0
  3 84  1  0  0  0
  3 85  1  0  0  0
  4  5  1  0  0  0
  4 86  1  0  0  0
  4 87  1  0  0  0
  5  6  1  0  0  0
  5 26  1  0  0  0
  5 88  1  0  0  0
  6 25  1  0  0  0
  6 89  1  0  0  0
  6 90  1  0  0  0
  7  8  2  0  0  0
  7 26  1  0  0  0
  7 29  1  0  0  0
  8  9  1  0  0  0
  8 22  1  0  0  0
  9 10  1  0  0  0
  9 27  2  0  0  0
 10 11  2  0  0  0
 10 15  1  0  0  0
 11 12  1  0  0  0
 11 91  1  0  0  0
 12 13  2  0  0  0
 12 92  1  0  0  0
 13 14  1  0  0  0
 13 31  1  0  0  0
 14 15  2  0  0  0
 14 93  1  0  0  0
 15 94  1  0  0  0
 16 17  2  0  0  0
 16 21  1  0  0  0
 16 31  1  0  0  0
 17 18  1  0  0  0
 17 95  1  0  0  0
 18 19  2  0  0  0
 18 96  1  0  0  0
 19 20  1  0  0  0
 19 24  1  0  0  0
 20 21  2  0  0  0
 20 97  1  0  0  0
 21 23  1  0  0  0
 22 28  1  0  0  0
 22 32  2  0  0  0
 26 27  1  0  0  0
 28 98  1  0  0  0
 28 99  1  0  0  0
 29100  1  0  0  0
 29101  1  0  0  0
 33 34  1  0  0  0
 33 66  1  0  0  0
 33 70  2  0  0  0
 34 36  1  0  0  0
 34 59  1  0  0  0
 34102  1  0  0  0
 35 44  2  0  0  0
 35 45  1  0  0  0
 35 68  1  0  0  0
 36 56  1  0  0  0
 36103  1  0  0  0
 37 39  1  0  0  0
 37 47  1  0  0  0
 37 66  1  0  0  0
 37104  1  0  0  0
 38 43  2  0  0  0
 38 46  1  0  0  0
 38 47  1  0  0  0
 39 64  1  0  0  0
 39 67  2  0  0  0
 40 52  1  0  0  0
 40 53  2  0  0  0
 40 58  1  0  0  0
 41105  1  0  0  0
 41106  1  0  0  0
 41107  1  0  0  0
 41 48  1  0  0  0
 42 43  1  0  0  0
 42 66  1  0  0  0
 42108  1  0  0  0
 42109  1  0  0  0
 43 44  1  0  0  0
 44110  1  0  0  0
 45 46  2  0  0  0
 45111  1  0  0  0
 46112  1  0  0  0
 47113  1  0  0  0
 47114  1  0  0  0
 48 56  1  0  0  0
 48 65  1  0  0  0
 48115  1  0  0  0
 49 50  1  0  0  0
 49 53  1  0  0  0
 49 64  1  0  0  0
 49116  1  0  0  0
 50 51  1  0  0  0
 50117  1  0  0  0
 50118  1  0  0  0
 51 52  1  0  0  0
 51119  1  0  0  0
 51120  1  0  0  0
 52121  1  0  0  0
 52122  1  0  0  0
 53 54  1  0  0  0
 54 55  2  0  0  0
 54123  1  0  0  0
 55 57  1  0  0  0
 55124  1  0  0  0
 56 69  2  0  0  0
 57 58  2  0  0  0
 57125  1  0  0  0
 58126  1  0  0  0
 59 60  1  0  0  0
 59 61  1  0  0  0
 59 62  1  0  0  0
 60127  1  0  0  0
 60128  1  0  0  0
 60129  1  0  0  0
 61130  1  0  0  0
 61131  1  0  0  0
 61132  1  0  0  0
 62133  1  0  0  0
 62134  1  0  0  0
 62135  1  0  0  0
 63 65  1  0  0  0
 63136  1  0  0  0
 63137  1  0  0  0
 63138  1  0  0  0
 64139  1  0  0  0
 65140  1  0  0  0
 68 77  1  0  0  0
 71 73  1  0  0  0
 71 80  2  0  0  0
 71141  1  0  0  0
 72 73  2  0  0  0
 72 81  1  0  0  0
 72142  1  0  0  0
 73 77  1  0  0  0
 74143  1  0  0  0
 74144  1  0  0  0
 74145  1  0  0  0
 74 78  1  0  0  0
 75146  1  0  0  0
 75147  1  0  0  0
 75148  1  0  0  0
 75 79  1  0  0  0
 76 79  1  0  0  0
 76149  1  0  0  0
 76150  1  0  0  0
 76151  1  0  0  0
 77152  1  0  0  0
 77153  1  0  0  0
 78 79  1  0  0  0
 78 81  1  0  0  0
 78154  1  0  0  0
 80 81  1  0  0  0
M  ISO  4   1 100  68 101  77 101  79 100
M  END
> <chiral flag>
0

> <version>
0

> <s_m_source_file>
/data/baiqing/PycharmProjects/Reinvent-master-3.2/result/LINK_invent/BTK/process_docking_weight1_custom_sum_contain_oxygen_bond_distance_aromatic_linkinvent_7_9_3/rearranged_h_0056.sdf

> <i_m_source_file_index>
43

> <r_mmod_Potential_Energy-OPLS-2005>
1429.40844726562

> <r_mmod_Stretch_Energy-OPLS-2005>
636.631042480469

> <r_mmod_Bend_Energy-OPLS-2005>
476.796966552734

> <r_mmod_Torsional_Energy-OPLS-2005>
215.746704101562

> <r_mmod_Improper_Torsional_Energy-OPLS-2005>
3.61482787132263

> <r_mmod_Van_der_Waal_Energy-OPLS-2005>
109.710342407227

> <r_mmod_Electrostatic_Energy-OPLS-2005>
-301.007263183594

> <r_mmod_Solvation_Energy-OPLS-2005>
-205.726654052734

> <b_mmod_Minimization_Converged-OPLS-2005>
0

> <r_mmod_RMS_Derivative-OPLS-2005>
2.10332298278809

$$$$
45
                    3D
 Structure written by MMmdl.
163171  0  0  1  0            999 V2000
  -30.6586  -14.5355   20.3312 C   0  0  0  0  0  0
  -30.4235  -12.2886   19.4355 C   0  0  0  0  0  0
  -29.4931  -12.3896   18.2082 C   0  0  0  0  0  0
  -28.0083  -12.3038   18.6183 C   0  0  0  0  0  0
  -27.6456  -13.2070   19.8271 C   0  0  2  0  0  0
  -28.6951  -13.1086   20.9519 C   0  0  0  0  0  0
  -25.2608  -13.8161   20.5681 C   0  0  0  0  0  0
  -24.1836  -13.0470   20.9211 C   0  0  0  0  0  0
  -24.6358  -11.6924   20.8754 C   0  0  0  0  0  0
  -23.9014  -10.4330   21.0411 C   0  0  0  0  0  0
  -24.3592   -9.4233   21.9176 C   0  0  0  0  0  0
  -23.6326   -8.2234   22.0716 C   0  0  0  0  0  0
  -22.4322   -8.0259   21.3485 C   0  0  0  0  0  0
  -21.9919   -9.0222   20.4604 C   0  0  0  0  0  0
  -22.7182  -10.2138   20.3049 C   0  0  0  0  0  0
  -21.6867   -6.0761   22.5258 C   0  0  0  0  0  0
  -21.3995   -6.5650   23.8203 C   0  0  0  0  0  0
  -21.3681   -5.6788   24.9153 C   0  0  0  0  0  0
  -21.6044   -4.3060   24.7178 C   0  0  0  0  0  0
  -21.8823   -3.8158   23.4295 C   0  0  0  0  0  0
  -21.9202   -4.6991   22.3361 C   0  0  0  0  0  0
  -22.7843  -13.5285   21.1876 C   0  0  0  0  0  0
  -22.1659   -4.2201   21.0944 F   0  0  0  0  0  0
  -21.5667   -3.4528   25.7696 F   0  0  0  0  0  0
  -30.0253  -13.3387   20.3809 N   0  0  0  0  0  0
  -26.2975  -12.9313   20.3223 N   0  0  0  0  0  0
  -25.9284  -11.6490   20.5748 N   0  0  0  0  0  0
  -22.0405  -12.8315   22.0408 N   0  0  0  0  0  0
  -25.4402  -15.1865   20.4060 N   0  0  0  0  0  0
  -31.8857  -14.6382   20.2660 O   0  0  0  0  0  0
  -21.6623   -6.8883   21.4226 O   0  0  0  0  0  0
  -22.3570  -14.5609   20.6739 O   0  0  0  0  0  0
  -24.6131  -31.8731   23.2111 C   0  0  0  0  0  0
  -25.9044  -32.4860   23.8423 C   0  0  1  0  0  0
  -27.2277  -27.4515   20.1124 C   0  0  0  0  0  0
  -25.5952  -33.8662   24.2386 N   0  0  0  0  0  0
  -23.3985  -30.4953   21.5500 C   0  0  2  0  0  0
  -24.8462  -28.9662   20.1080 C   0  0  0  0  0  0
  -22.7423  -29.4675   22.5002 C   0  0  0  0  0  0
  -18.0287  -28.1373   22.8536 C   0  0  0  0  0  0
  -24.1475  -36.7300   23.2626 C   0  0  0  0  0  0
  -25.9230  -30.8442   21.3592 C   0  0  0  0  0  0
  -26.0028  -29.4744   20.7218 C   0  0  0  0  0  0
  -27.1927  -28.7169   20.7352 C   0  0  0  0  0  0
  -26.0734  -26.9626   19.4714 C   0  0  0  0  0  0
  -24.8803  -27.7115   19.4726 C   0  0  0  0  0  0
  -23.6054  -29.8275   20.1609 C   0  0  0  0  0  0
  -25.4095  -36.3135   24.0344 C   0  0  1  0  0  0
  -20.5875  -28.3683   23.1352 C   0  0  2  0  0  0
  -20.6775  -26.9418   22.5444 C   0  0  0  0  0  0
  -19.5714  -26.6390   21.5266 C   0  0  0  0  0  0
  -18.1904  -26.7941   22.1669 C   0  0  0  0  0  0
  -19.1525  -28.8839   23.2967 C   0  0  0  0  0  0
  -18.9451  -30.1465   23.8939 C   0  0  0  0  0  0
  -17.6433  -30.6583   24.0604 C   0  0  0  0  0  0
  -25.9006  -34.9490   23.5139 C   0  0  0  0  0  0
  -16.5338  -29.9093   23.6318 C   0  0  0  0  0  0
  -16.7278  -28.6519   23.0346 C   0  0  0  0  0  0
  -26.4457  -31.6610   25.0737 C   0  0  0  0  0  0
  -25.3714  -31.3720   26.1479 C   0  0  0  0  0  0
  -27.0250  -30.3071   24.6045 C   0  0  0  0  0  0
  -27.6091  -32.4259   25.7471 C   0  0  0  0  0  0
  -27.5581  -37.1817   24.8465 C   0  0  0  0  0  0
  -21.4136  -29.3058   22.3728 N   0  0  0  0  0  0
  -26.4278  -37.3846   23.9423 N   0  0  0  0  0  0
  -24.6631  -31.0852   22.0989 N   0  0  0  0  0  0
  -23.4248  -28.8253   23.3015 O   0  0  0  0  0  0
  -28.3598  -26.6686   20.1112 O   0  0  0  0  0  0
  -26.5527  -34.8924   22.4664 O   0  0  0  0  0  0
  -23.5323  -32.1427   23.7545 O   0  0  0  0  0  0
  -29.6228  -16.9381   20.4137 C   0  0  0  0  0  0
  -29.8932  -15.7068   19.7264 C   0  0  0  0  0  0
  -29.2263  -17.8198   19.4328 C   0  0  0  0  0  0
  -28.9912  -17.5928   16.8955 C   0  0  0  0  0  0
  -26.5611  -21.7743   22.0994 C   0  0  0  0  0  0
  -28.8295  -19.2777   19.4011 C   0  0  0  0  0  0
  -28.7940  -20.0864   20.7147 C   0  0  0  0  0  0
  -28.9656  -24.6270   21.3762 C   0  0  0  0  0  0
  -28.3786  -21.5658   20.4242 C   0  0  0  0  0  0
  -27.6655  -23.7964   21.2728 C   0  0  0  0  0  0
  -28.7335  -26.1617   21.3976 C   0  0  0  0  0  0
  -29.6603  -15.8408   18.4227 N   0  0  0  0  0  0
  -29.2586  -17.1139   18.2446 N   0  0  0  0  0  0
  -27.8377  -22.3406   21.5809 N   0  3  1  0  0  0
  -31.4656  -12.3849   19.1160 H   0  0  0  0  0  0
  -30.3415  -11.3079   19.9090 H   0  0  0  0  0  0
  -29.7272  -11.5756   17.5183 H   0  0  0  0  0  0
  -29.6808  -13.3143   17.6664 H   0  0  0  0  0  0
  -27.8045  -11.2629   18.8623 H   0  0  0  0  0  0
  -27.3696  -12.5362   17.7640 H   0  0  0  0  0  0
  -27.6482  -14.2267   19.4504 H   0  0  0  0  0  0
  -28.6569  -12.1286   21.4336 H   0  0  0  0  0  0
  -28.4858  -13.8487   21.7259 H   0  0  0  0  0  0
  -25.2718   -9.5796   22.4762 H   0  0  0  0  0  0
  -24.0062   -7.4676   22.7472 H   0  0  0  0  0  0
  -21.0820   -8.8685   19.8964 H   0  0  0  0  0  0
  -22.3555  -10.9668   19.6192 H   0  0  0  0  0  0
  -21.1912   -7.6142   23.9726 H   0  0  0  0  0  0
  -21.1541   -6.0483   25.9074 H   0  0  0  0  0  0
  -22.0600   -2.7630   23.2724 H   0  0  0  0  0  0
  -22.3959  -12.0017   22.4898 H   0  0  0  0  0  0
  -21.1008  -13.1396   22.2521 H   0  0  0  0  0  0
  -24.6821  -15.8512   20.5207 H   0  0  0  0  0  0
  -26.3019  -15.6156   20.0908 H   0  0  0  0  0  0
  -26.7200  -32.5629   23.1273 H   0  0  0  0  0  0
  -25.0322  -33.9838   25.0683 H   0  0  0  0  0  0
  -22.6868  -31.3110   21.4184 H   0  0  0  0  0  0
  -23.3737  -35.9631   23.3275 H   0  0  0  0  0  0
  -24.3590  -36.8884   22.2037 H   0  0  0  0  0  0
  -23.7135  -37.6494   23.6580 H   0  0  0  0  0  0
  -26.0128  -31.5969   20.5753 H   0  0  0  0  0  0
  -26.8198  -30.9209   21.9630 H   0  0  0  0  0  0
  -28.0814  -29.1024   21.2168 H   0  0  0  0  0  0
  -26.1007  -26.0026   18.9742 H   0  0  0  0  0  0
  -24.0030  -27.3248   18.9745 H   0  0  0  0  0  0
  -23.7174  -30.6001   19.3994 H   0  0  0  0  0  0
  -22.7268  -29.2497   19.8696 H   0  0  0  0  0  0
  -25.1263  -36.2040   25.0842 H   0  0  0  0  0  0
  -21.0040  -28.3245   24.1441 H   0  0  0  0  0  0
  -20.5694  -26.2285   23.3637 H   0  0  0  0  0  0
  -21.6646  -26.7443   22.1216 H   0  0  0  0  0  0
  -19.6824  -25.6315   21.1258 H   0  0  0  0  0  0
  -19.6623  -27.3223   20.6807 H   0  0  0  0  0  0
  -17.4197  -26.6793   21.4034 H   0  0  0  0  0  0
  -18.0233  -26.0057   22.9016 H   0  0  0  0  0  0
  -19.7912  -30.7332   24.2279 H   0  0  0  0  0  0
  -17.4966  -31.6241   24.5237 H   0  0  0  0  0  0
  -15.5333  -30.3017   23.7556 H   0  0  0  0  0  0
  -15.8712  -28.0869   22.6974 H   0  0  0  0  0  0
  -24.5955  -30.6991   25.7827 H   0  0  0  0  0  0
  -24.8828  -32.2876   26.4843 H   0  0  0  0  0  0
  -25.8084  -30.8997   27.0279 H   0  0  0  0  0  0
  -26.2797  -29.6899   24.1025 H   0  0  0  0  0  0
  -27.3955  -29.7261   25.4491 H   0  0  0  0  0  0
  -27.8665  -30.4432   23.9235 H   0  0  0  0  0  0
  -27.2830  -33.3596   26.2047 H   0  0  0  0  0  0
  -28.3898  -32.6686   25.0258 H   0  0  0  0  0  0
  -28.0730  -31.8326   26.5355 H   0  0  0  0  0  0
  -28.2643  -38.0095   24.7573 H   0  0  0  0  0  0
  -28.1044  -36.2625   24.6250 H   0  0  0  0  0  0
  -27.2312  -37.1451   25.8882 H   0  0  0  0  0  0
  -20.9218  -29.8891   21.7103 H   0  0  0  0  0  0
  -26.0162  -38.2924   24.1472 H   0  0  0  0  0  0
  -29.7502  -17.1617   21.4649 H   0  0  0  0  0  0
  -28.0688  -18.1755   16.8772 H   0  0  0  0  0  0
  -28.9095  -16.7646   16.1932 H   0  0  0  0  0  0
  -29.8024  -18.2412   16.5601 H   0  0  0  0  0  0
  -26.6559  -20.7450   22.4402 H   0  0  0  0  0  0
  -25.7797  -21.8007   21.3360 H   0  0  0  0  0  0
  -26.2081  -22.3379   22.9626 H   0  0  0  0  0  0
  -27.8312  -19.3308   18.9630 H   0  0  0  0  0  0
  -29.4774  -19.8024   18.6946 H   0  0  0  0  0  0
  -29.7694  -20.0631   21.1999 H   0  0  0  0  0  0
  -28.1080  -19.5899   21.4004 H   0  0  0  0  0  0
  -29.6459  -24.3713   20.5648 H   0  0  0  0  0  0
  -29.4726  -24.3590   22.3040 H   0  0  0  0  0  0
  -27.6289  -21.5994   19.6307 H   0  0  0  0  0  0
  -29.2497  -22.0814   20.0114 H   0  0  0  0  0  0
  -27.2174  -23.9160   20.2847 H   0  0  0  0  0  0
  -26.9492  -24.2266   21.9750 H   0  0  0  0  0  0
  -29.6508  -26.6666   21.6997 H   0  0  0  0  0  0
  -27.9944  -26.4063   22.1649 H   0  0  0  0  0  0
  -28.5001  -22.2769   22.3403 H   0  0  0  0  0  0
  1 25  1  0  0  0
  1 30  2  0  0  0
  1 72  1  0  0  0
  2  3  1  0  0  0
  2 25  1  0  0  0
  2 85  1  0  0  0
  2 86  1  0  0  0
  3  4  1  0  0  0
  3 87  1  0  0  0
  3 88  1  0  0  0
  4  5  1  0  0  0
  4 89  1  0  0  0
  4 90  1  0  0  0
  5  6  1  0  0  0
  5 26  1  0  0  0
  5 91  1  0  0  0
  6 25  1  0  0  0
  6 92  1  0  0  0
  6 93  1  0  0  0
  7  8  2  0  0  0
  7 26  1  0  0  0
  7 29  1  0  0  0
  8  9  1  0  0  0
  8 22  1  0  0  0
  9 10  1  0  0  0
  9 27  2  0  0  0
 10 11  2  0  0  0
 10 15  1  0  0  0
 11 12  1  0  0  0
 11 94  1  0  0  0
 12 13  2  0  0  0
 12 95  1  0  0  0
 13 14  1  0  0  0
 13 31  1  0  0  0
 14 15  2  0  0  0
 14 96  1  0  0  0
 15 97  1  0  0  0
 16 17  2  0  0  0
 16 21  1  0  0  0
 16 31  1  0  0  0
 17 18  1  0  0  0
 17 98  1  0  0  0
 18 19  2  0  0  0
 18 99  1  0  0  0
 19 20  1  0  0  0
 19 24  1  0  0  0
 20 21  2  0  0  0
 20100  1  0  0  0
 21 23  1  0  0  0
 22 28  1  0  0  0
 22 32  2  0  0  0
 26 27  1  0  0  0
 28101  1  0  0  0
 28102  1  0  0  0
 29103  1  0  0  0
 29104  1  0  0  0
 33 34  1  0  0  0
 33 66  1  0  0  0
 33 70  2  0  0  0
 34 36  1  0  0  0
 34 59  1  0  0  0
 34105  1  0  0  0
 35 44  2  0  0  0
 35 45  1  0  0  0
 35 68  1  0  0  0
 36 56  1  0  0  0
 36106  1  0  0  0
 37 39  1  0  0  0
 37 47  1  0  0  0
 37 66  1  0  0  0
 37107  1  0  0  0
 38 43  2  0  0  0
 38 46  1  0  0  0
 38 47  1  0  0  0
 39 64  1  0  0  0
 39 67  2  0  0  0
 40 52  1  0  0  0
 40 53  2  0  0  0
 40 58  1  0  0  0
 41108  1  0  0  0
 41109  1  0  0  0
 41110  1  0  0  0
 41 48  1  0  0  0
 42 43  1  0  0  0
 42 66  1  0  0  0
 42111  1  0  0  0
 42112  1  0  0  0
 43 44  1  0  0  0
 44113  1  0  0  0
 45 46  2  0  0  0
 45114  1  0  0  0
 46115  1  0  0  0
 47116  1  0  0  0
 47117  1  0  0  0
 48 56  1  0  0  0
 48 65  1  0  0  0
 48118  1  0  0  0
 49 50  1  0  0  0
 49 53  1  0  0  0
 49 64  1  0  0  0
 49119  1  0  0  0
 50 51  1  0  0  0
 50120  1  0  0  0
 50121  1  0  0  0
 51 52  1  0  0  0
 51122  1  0  0  0
 51123  1  0  0  0
 52124  1  0  0  0
 52125  1  0  0  0
 53 54  1  0  0  0
 54 55  2  0  0  0
 54126  1  0  0  0
 55 57  1  0  0  0
 55127  1  0  0  0
 56 69  2  0  0  0
 57 58  2  0  0  0
 57128  1  0  0  0
 58129  1  0  0  0
 59 60  1  0  0  0
 59 61  1  0  0  0
 59 62  1  0  0  0
 60130  1  0  0  0
 60131  1  0  0  0
 60132  1  0  0  0
 61133  1  0  0  0
 61134  1  0  0  0
 61135  1  0  0  0
 62136  1  0  0  0
 62137  1  0  0  0
 62138  1  0  0  0
 63 65  1  0  0  0
 63139  1  0  0  0
 63140  1  0  0  0
 63141  1  0  0  0
 64142  1  0  0  0
 65143  1  0  0  0
 68 81  1  0  0  0
 71 72  1  0  0  0
 71 73  2  0  0  0
 71144  1  0  0  0
 72 82  2  0  0  0
 73 76  1  0  0  0
 73 83  1  0  0  0
 74 83  1  0  0  0
 74145  1  0  0  0
 74146  1  0  0  0
 74147  1  0  0  0
 75148  1  0  0  0
 75149  1  0  0  0
 75150  1  0  0  0
 75 84  1  0  0  0
 76 77  1  0  0  0
 76151  1  0  0  0
 76152  1  0  0  0
 77 79  1  0  0  0
 77153  1  0  0  0
 77154  1  0  0  0
 78 80  1  0  0  0
 78 81  1  0  0  0
 78155  1  0  0  0
 78156  1  0  0  0
 79 84  1  0  0  0
 79157  1  0  0  0
 79158  1  0  0  0
 80 84  1  0  0  0
 80159  1  0  0  0
 80160  1  0  0  0
 81161  1  0  0  0
 81162  1  0  0  0
 82 83  1  0  0  0
 84163  1  0  0  0
M  CHG  1  84   1
M  ISO  4   1 100  68 101  72 100  81 101
M  END
> <chiral flag>
0

> <version>
0

> <s_m_source_file>
/data/baiqing/PycharmProjects/Reinvent-master-3.2/result/LINK_invent/BTK/process_docking_weight1_custom_sum_contain_oxygen_bond_distance_aromatic_linkinvent_7_9_3/rearranged_h_0056.sdf

> <i_m_source_file_index>
44

> <r_mmod_Potential_Energy-OPLS-2005>
7.35735559463501

> <r_mmod_Stretch_Energy-OPLS-2005>
38.0117683410645

> <r_mmod_Bend_Energy-OPLS-2005>
103.500198364258

> <r_mmod_Torsional_Energy-OPLS-2005>
276.930084228516

> <r_mmod_Improper_Torsional_Energy-OPLS-2005>
20.5725231170654

> <r_mmod_Van_der_Waal_Energy-OPLS-2005>
115.088684082031

> <r_mmod_Electrostatic_Energy-OPLS-2005>
-134.170440673828

> <r_mmod_Solvation_Energy-OPLS-2005>
-450.691741943359

> <b_mmod_Minimization_Converged-OPLS-2005>
0

> <r_mmod_RMS_Derivative-OPLS-2005>
6.58059310913086

$$$$
46
                    3D
 Structure written by MMmdl.
153161  0  0  1  0            999 V2000
  -30.4207  -15.2200   20.3851 C   0  0  0  0  0  0
  -30.4477  -12.7656   19.5311 C   0  0  0  0  0  0
  -29.5424  -12.5840   18.2842 C   0  0  0  0  0  0
  -28.0785  -12.3282   18.6916 C   0  0  0  0  0  0
  -27.6205  -13.2718   19.8327 C   0  0  2  0  0  0
  -28.6581  -13.3653   20.9683 C   0  0  0  0  0  0
  -25.2383  -13.8245   20.5646 C   0  0  0  0  0  0
  -24.1746  -13.0443   20.9187 C   0  0  0  0  0  0
  -24.6403  -11.6937   20.8730 C   0  0  0  0  0  0
  -23.9092  -10.4297   21.0376 C   0  0  0  0  0  0
  -24.3631   -9.4218   21.9164 C   0  0  0  0  0  0
  -23.6287   -8.2270   22.0769 C   0  0  0  0  0  0
  -22.4276   -8.0299   21.3548 C   0  0  0  0  0  0
  -21.9903   -9.0271   20.4653 C   0  0  0  0  0  0
  -22.7252  -10.2137   20.3038 C   0  0  0  0  0  0
  -21.6865   -6.0727   22.5263 C   0  0  0  0  0  0
  -21.4035   -6.5635   23.8195 C   0  0  0  0  0  0
  -21.3665   -5.6786   24.9157 C   0  0  0  0  0  0
  -21.6041   -4.3049   24.7207 C   0  0  0  0  0  0
  -21.8820   -3.8143   23.4332 C   0  0  0  0  0  0
  -21.9196   -4.6953   22.3388 C   0  0  0  0  0  0
  -22.7762  -13.5197   21.1849 C   0  0  0  0  0  0
  -22.1657   -4.2137   21.0962 F   0  0  0  0  0  0
  -21.5617   -3.4540   25.7723 F   0  0  0  0  0  0
  -29.9010  -13.8911   20.3748 N   0  0  0  0  0  0
  -26.2843  -12.9522   20.3196 N   0  0  0  0  0  0
  -25.9348  -11.6629   20.5701 N   0  0  0  0  0  0
  -22.0445  -12.8195   22.0434 N   0  0  0  0  0  0
  -25.3933  -15.1983   20.3997 N   0  0  0  0  0  0
  -31.6350  -15.2199   20.1212 O   0  0  0  0  0  0
  -21.6655   -6.8884   21.4232 O   0  0  0  0  0  0
  -22.3419  -14.5490   20.6690 O   0  0  0  0  0  0
  -24.6603  -31.8251   23.1735 C   0  0  0  0  0  0
  -25.9303  -32.4605   23.8168 C   0  0  1  0  0  0
  -27.2224  -26.9593   20.1809 C   0  0  0  0  0  0
  -25.5958  -33.8415   24.2051 N   0  0  0  0  0  0
  -23.4751  -30.4390   21.5229 C   0  0  2  0  0  0
  -24.9283  -28.8302   20.1150 C   0  0  0  0  0  0
  -22.7643  -29.4462   22.4783 C   0  0  0  0  0  0
  -18.0320  -28.1441   22.8429 C   0  0  0  0  0  0
  -24.1493  -36.7242   23.2650 C   0  0  0  0  0  0
  -26.0423  -30.6392   21.4042 C   0  0  0  0  0  0
  -26.1109  -29.2337   20.7483 C   0  0  0  0  0  0
  -27.2535  -28.3188   20.7565 C   0  0  0  0  0  0
  -26.0114  -26.6990   19.4981 C   0  0  0  0  0  0
  -24.9014  -27.5827   19.4714 C   0  0  0  0  0  0
  -23.7164  -29.7601   20.1483 C   0  0  0  0  0  0
  -25.4136  -36.2966   24.0271 C   0  0  1  0  0  0
  -20.5934  -28.3786   23.1175 C   0  0  2  0  0  0
  -20.6826  -26.9465   22.5406 C   0  0  0  0  0  0
  -19.5799  -26.6379   21.5231 C   0  0  0  0  0  0
  -18.1967  -26.7968   22.1608 C   0  0  0  0  0  0
  -19.1577  -28.8934   23.2785 C   0  0  0  0  0  0
  -18.9501  -30.1531   23.8811 C   0  0  0  0  0  0
  -17.6499  -30.6625   24.0561 C   0  0  0  0  0  0
  -25.9085  -34.9356   23.4975 C   0  0  0  0  0  0
  -16.5383  -29.9117   23.6361 C   0  0  0  0  0  0
  -16.7303  -28.6559   23.0317 C   0  0  0  0  0  0
  -26.4544  -31.6578   25.0720 C   0  0  0  0  0  0
  -25.3629  -31.3861   26.1351 C   0  0  0  0  0  0
  -27.0446  -30.2925   24.6515 C   0  0  0  0  0  0
  -27.5976  -32.4450   25.7550 C   0  0  0  0  0  0
  -27.5561  -37.1767   24.8442 C   0  0  0  0  0  0
  -21.4314  -29.3077   22.3520 N   0  0  0  0  0  0
  -26.4277  -37.3698   23.9378 N   0  0  0  0  0  0
  -24.7468  -30.9928   22.0881 N   0  0  0  0  0  0
  -23.4191  -28.8032   23.3019 O   0  0  0  0  0  0
  -28.2387  -25.8781   20.2575 O   0  0  0  0  0  0
  -26.5719  -34.8878   22.4582 O   0  0  0  0  0  0
  -23.5675  -32.1221   23.6839 O   0  0  0  0  0  0
  -31.9705  -19.4182   20.8710 C   0  0  0  0  0  0
  -29.9206  -19.7958   20.4774 C   0  0  0  0  0  0
  -33.4038  -19.6584   21.1931 C   0  0  0  0  0  0
  -28.6774  -16.6854   21.7819 C   0  0  0  0  0  0
  -28.7457  -21.0270   20.2895 C   0  0  0  0  0  0
  -29.0078  -22.8066   20.3778 C   0  0  0  0  0  0
  -27.9802  -24.2617   20.1793 C   0  0  0  0  0  0
  -29.5616  -16.7627   20.5247 C   0  0  1  0  0  0
  -31.0852  -20.4208   20.6701 N   0  0  0  0  0  0
  -31.4978  -18.1895   20.7887 N   0  0  0  0  0  0
  -30.1684  -18.3051   20.5270 N   0  0  0  0  0  0
  -31.4696  -12.9665   19.2062 H   0  0  0  0  0  0
  -30.5030  -11.8376   20.1036 H   0  0  0  0  0  0
  -29.9085  -11.7662   17.6622 H   0  0  0  0  0  0
  -29.5953  -13.4851   17.6711 H   0  0  0  0  0  0
  -28.0016  -11.2898   19.0163 H   0  0  0  0  0  0
  -27.4212  -12.4294   17.8259 H   0  0  0  0  0  0
  -27.5606  -14.2626   19.3841 H   0  0  0  0  0  0
  -28.8107  -12.3903   21.4325 H   0  0  0  0  0  0
  -28.3059  -14.0122   21.7688 H   0  0  0  0  0  0
  -25.2779   -9.5696   22.4738 H   0  0  0  0  0  0
  -23.9982   -7.4676   22.7523 H   0  0  0  0  0  0
  -21.0824   -8.8798   19.8978 H   0  0  0  0  0  0
  -22.3703  -10.9669   19.6149 H   0  0  0  0  0  0
  -21.2054   -7.6150   23.9691 H   0  0  0  0  0  0
  -21.1481   -6.0520   25.9052 H   0  0  0  0  0  0
  -22.0597   -2.7606   23.2833 H   0  0  0  0  0  0
  -22.4085  -11.9853   22.4800 H   0  0  0  0  0  0
  -21.1094  -13.1239   22.2713 H   0  0  0  0  0  0
  -24.6104  -15.8370   20.4950 H   0  0  0  0  0  0
  -26.2241  -15.6474   20.0378 H   0  0  0  0  0  0
  -26.7372  -32.5134   23.0869 H   0  0  0  0  0  0
  -24.9995  -33.9498   25.0121 H   0  0  0  0  0  0
  -22.7908  -31.2724   21.3568 H   0  0  0  0  0  0
  -23.3735  -35.9598   23.3290 H   0  0  0  0  0  0
  -24.3558  -36.8947   22.2077 H   0  0  0  0  0  0
  -23.7305  -37.6423   23.6764 H   0  0  0  0  0  0
  -26.2231  -31.3815   20.6270 H   0  0  0  0  0  0
  -26.8996  -30.6910   22.0635 H   0  0  0  0  0  0
  -28.1495  -28.6250   21.2795 H   0  0  0  0  0  0
  -25.8920  -25.7492   18.9972 H   0  0  0  0  0  0
  -24.0013  -27.2708   18.9596 H   0  0  0  0  0  0
  -23.8809  -30.5340   19.3975 H   0  0  0  0  0  0
  -22.8222  -29.2249   19.8260 H   0  0  0  0  0  0
  -25.1351  -36.1750   25.0761 H   0  0  0  0  0  0
  -21.0006  -28.3449   24.1296 H   0  0  0  0  0  0
  -20.5801  -26.2391   23.3656 H   0  0  0  0  0  0
  -21.6679  -26.7512   22.1157 H   0  0  0  0  0  0
  -19.6964  -25.6263   21.1330 H   0  0  0  0  0  0
  -19.6762  -27.3146   20.6726 H   0  0  0  0  0  0
  -17.4242  -26.6694   21.4008 H   0  0  0  0  0  0
  -18.0330  -26.0165   22.9049 H   0  0  0  0  0  0
  -19.7992  -30.7356   24.2124 H   0  0  0  0  0  0
  -17.5070  -31.6282   24.5198 H   0  0  0  0  0  0
  -15.5385  -30.2981   23.7779 H   0  0  0  0  0  0
  -15.8700  -28.0904   22.6996 H   0  0  0  0  0  0
  -24.5773  -30.7291   25.7601 H   0  0  0  0  0  0
  -24.8871  -32.3093   26.4659 H   0  0  0  0  0  0
  -25.7785  -30.9040   27.0209 H   0  0  0  0  0  0
  -26.3124  -29.6574   24.1517 H   0  0  0  0  0  0
  -27.3906  -29.7339   25.5223 H   0  0  0  0  0  0
  -27.9096  -30.4051   23.9982 H   0  0  0  0  0  0
  -27.2462  -33.3764   26.1996 H   0  0  0  0  0  0
  -28.3843  -32.7022   25.0445 H   0  0  0  0  0  0
  -28.0601  -31.8717   26.5588 H   0  0  0  0  0  0
  -28.2514  -38.0118   24.7472 H   0  0  0  0  0  0
  -28.1112  -36.2618   24.6282 H   0  0  0  0  0  0
  -27.2253  -37.1416   25.8839 H   0  0  0  0  0  0
  -20.9573  -29.8775   21.6648 H   0  0  0  0  0  0
  -26.0111  -38.2739   24.1424 H   0  0  0  0  0  0
  -33.6677  -20.7026   21.0294 H   0  0  0  0  0  0
  -34.0445  -19.0388   20.5662 H   0  0  0  0  0  0
  -33.6014  -19.4140   22.2371 H   0  0  0  0  0  0
  -28.3748  -17.6734   22.1281 H   0  0  0  0  0  0
  -29.2013  -16.2048   22.6090 H   0  0  0  0  0  0
  -27.7573  -16.1376   21.5919 H   0  0  0  0  0  0
  -27.9615  -20.7930   21.0087 H   0  0  0  0  0  0
  -28.2797  -20.8339   19.3231 H   0  0  0  0  0  0
  -29.8263  -22.9762   19.6786 H   0  0  0  0  0  0
  -29.4685  -22.9458   21.3556 H   0  0  0  0  0  0
  -27.1620  -24.1187   20.8856 H   0  0  0  0  0  0
  -27.5115  -24.1236   19.2058 H   0  0  0  0  0  0
  -28.8921  -16.7546   19.6647 H   0  0  0  0  0  0
  1 25  1  0  0  0
  1 30  2  0  0  0
  1 78  1  0  0  0
  2  3  1  0  0  0
  2 25  1  0  0  0
  2 82  1  0  0  0
  2 83  1  0  0  0
  3  4  1  0  0  0
  3 84  1  0  0  0
  3 85  1  0  0  0
  4  5  1  0  0  0
  4 86  1  0  0  0
  4 87  1  0  0  0
  5  6  1  0  0  0
  5 26  1  0  0  0
  5 88  1  0  0  0
  6 25  1  0  0  0
  6 89  1  0  0  0
  6 90  1  0  0  0
  7  8  2  0  0  0
  7 26  1  0  0  0
  7 29  1  0  0  0
  8  9  1  0  0  0
  8 22  1  0  0  0
  9 10  1  0  0  0
  9 27  2  0  0  0
 10 11  2  0  0  0
 10 15  1  0  0  0
 11 12  1  0  0  0
 11 91  1  0  0  0
 12 13  2  0  0  0
 12 92  1  0  0  0
 13 14  1  0  0  0
 13 31  1  0  0  0
 14 15  2  0  0  0
 14 93  1  0  0  0
 15 94  1  0  0  0
 16 17  2  0  0  0
 16 21  1  0  0  0
 16 31  1  0  0  0
 17 18  1  0  0  0
 17 95  1  0  0  0
 18 19  2  0  0  0
 18 96  1  0  0  0
 19 20  1  0  0  0
 19 24  1  0  0  0
 20 21  2  0  0  0
 20 97  1  0  0  0
 21 23  1  0  0  0
 22 28  1  0  0  0
 22 32  2  0  0  0
 26 27  1  0  0  0
 28 98  1  0  0  0
 28 99  1  0  0  0
 29100  1  0  0  0
 29101  1  0  0  0
 33 34  1  0  0  0
 33 66  1  0  0  0
 33 70  2  0  0  0
 34 36  1  0  0  0
 34 59  1  0  0  0
 34102  1  0  0  0
 35 44  2  0  0  0
 35 45  1  0  0  0
 35 68  1  0  0  0
 36 56  1  0  0  0
 36103  1  0  0  0
 37 39  1  0  0  0
 37 47  1  0  0  0
 37 66  1  0  0  0
 37104  1  0  0  0
 38 43  2  0  0  0
 38 46  1  0  0  0
 38 47  1  0  0  0
 39 64  1  0  0  0
 39 67  2  0  0  0
 40 52  1  0  0  0
 40 53  2  0  0  0
 40 58  1  0  0  0
 41105  1  0  0  0
 41106  1  0  0  0
 41107  1  0  0  0
 41 48  1  0  0  0
 42 43  1  0  0  0
 42 66  1  0  0  0
 42108  1  0  0  0
 42109  1  0  0  0
 43 44  1  0  0  0
 44110  1  0  0  0
 45 46  2  0  0  0
 45111  1  0  0  0
 46112  1  0  0  0
 47113  1  0  0  0
 47114  1  0  0  0
 48 56  1  0  0  0
 48 65  1  0  0  0
 48115  1  0  0  0
 49 50  1  0  0  0
 49 53  1  0  0  0
 49 64  1  0  0  0
 49116  1  0  0  0
 50 51  1  0  0  0
 50117  1  0  0  0
 50118  1  0  0  0
 51 52  1  0  0  0
 51119  1  0  0  0
 51120  1  0  0  0
 52121  1  0  0  0
 52122  1  0  0  0
 53 54  1  0  0  0
 54 55  2  0  0  0
 54123  1  0  0  0
 55 57  1  0  0  0
 55124  1  0  0  0
 56 69  2  0  0  0
 57 58  2  0  0  0
 57125  1  0  0  0
 58126  1  0  0  0
 59 60  1  0  0  0
 59 61  1  0  0  0
 59 62  1  0  0  0
 60127  1  0  0  0
 60128  1  0  0  0
 60129  1  0  0  0
 61130  1  0  0  0
 61131  1  0  0  0
 61132  1  0  0  0
 62133  1  0  0  0
 62134  1  0  0  0
 62135  1  0  0  0
 63 65  1  0  0  0
 63136  1  0  0  0
 63137  1  0  0  0
 63138  1  0  0  0
 64139  1  0  0  0
 65140  1  0  0  0
 68 77  1  0  0  0
 71 73  1  0  0  0
 71 79  1  0  0  0
 71 80  2  0  0  0
 72 75  1  0  0  0
 72 79  2  0  0  0
 72 81  1  0  0  0
 73141  1  0  0  0
 73142  1  0  0  0
 73143  1  0  0  0
 74144  1  0  0  0
 74145  1  0  0  0
 74146  1  0  0  0
 74 78  1  0  0  0
 75 76  1  0  0  0
 75147  1  0  0  0
 75148  1  0  0  0
 76 77  1  0  0  0
 76149  1  0  0  0
 76150  1  0  0  0
 77151  1  0  0  0
 77152  1  0  0  0
 78 81  1  0  0  0
 78153  1  0  0  0
 80 81  1  0  0  0
M  ISO  4   1 100  68 101  77 101  78 100
M  END
> <chiral flag>
0

> <version>
0

> <s_m_source_file>
/data/baiqing/PycharmProjects/Reinvent-master-3.2/result/LINK_invent/BTK/process_docking_weight1_custom_sum_contain_oxygen_bond_distance_aromatic_linkinvent_7_9_3/rearranged_h_0056.sdf

> <i_m_source_file_index>
45

> <r_mmod_Potential_Energy-OPLS-2005>
1265.58349609375

> <r_mmod_Stretch_Energy-OPLS-2005>
599.736328125

> <r_mmod_Bend_Energy-OPLS-2005>
475.752990722656

> <r_mmod_Torsional_Energy-OPLS-2005>
223.717834472656

> <r_mmod_Improper_Torsional_Energy-OPLS-2005>
3.82063508033752

> <r_mmod_Van_der_Waal_Energy-OPLS-2005>
106.779312133789

> <r_mmod_Electrostatic_Energy-OPLS-2005>
-320.913024902344

> <r_mmod_Solvation_Energy-OPLS-2005>
-224.446731567383

> <b_mmod_Minimization_Converged-OPLS-2005>
0

> <r_mmod_RMS_Derivative-OPLS-2005>
2.74653816223145

$$$$
47
                    3D
 Structure written by MMmdl.
151159  0  0  1  0            999 V2000
  -29.9233  -16.9302   20.2480 C   0  0  0  0  0  0
  -30.3313  -14.0349   19.4115 C   0  0  0  0  0  0
  -29.6047  -13.0549   18.3807 C   0  0  0  0  0  0
  -28.3107  -12.4429   18.9309 C   0  0  0  0  0  0
  -27.6139  -13.4974   19.7948 C   0  0  2  0  0  0
  -28.5827  -14.3409   20.7519 C   0  0  0  0  0  0
  -25.2458  -13.8726   20.5989 C   0  0  0  0  0  0
  -24.1939  -13.0667   20.9302 C   0  0  0  0  0  0
  -24.6829  -11.7222   20.8709 C   0  0  0  0  0  0
  -23.9494  -10.4460   21.0332 C   0  0  0  0  0  0
  -24.3881   -9.4325   21.9152 C   0  0  0  0  0  0
  -23.6406   -8.2439   22.0815 C   0  0  0  0  0  0
  -22.4425   -8.0459   21.3577 C   0  0  0  0  0  0
  -22.0109   -9.0485   20.4700 C   0  0  0  0  0  0
  -22.7605  -10.2277   20.3015 C   0  0  0  0  0  0
  -21.6923   -6.0826   22.5246 C   0  0  0  0  0  0
  -21.4078   -6.5709   23.8190 C   0  0  0  0  0  0
  -21.3646   -5.6839   24.9120 C   0  0  0  0  0  0
  -21.6020   -4.3113   24.7161 C   0  0  0  0  0  0
  -21.8874   -3.8225   23.4296 C   0  0  0  0  0  0
  -21.9224   -4.7036   22.3351 C   0  0  0  0  0  0
  -22.7881  -13.5257   21.1867 C   0  0  0  0  0  0
  -22.1715   -4.2222   21.0929 F   0  0  0  0  0  0
  -21.5549   -3.4584   25.7664 F   0  0  0  0  0  0
  -29.5342  -15.3374   19.9723 N   0  0  0  0  0  0
  -26.3202  -13.0465   20.3537 N   0  0  0  0  0  0
  -25.9875  -11.7319   20.5611 N   0  0  0  0  0  0
  -22.0418  -12.8162   22.0294 N   0  0  0  0  0  0
  -25.3866  -15.2456   20.4384 N   0  0  0  0  0  0
  -30.8169  -16.2210   20.8800 O   0  0  0  0  0  0
  -21.6797   -6.9037   21.4243 O   0  0  0  0  0  0
  -22.3496  -14.5495   20.6656 O   0  0  0  0  0  0
  -24.7724  -31.6910   23.0765 C   0  0  0  0  0  0
  -25.9839  -32.3948   23.7689 C   0  0  1  0  0  0
  -27.3202  -25.8762   20.2695 C   0  0  0  0  0  0
  -25.6041  -33.7820   24.1491 N   0  0  0  0  0  0
  -23.6334  -30.2497   21.4539 C   0  0  2  0  0  0
  -25.1046  -28.4090   20.1481 C   0  0  0  0  0  0
  -22.8172  -29.3732   22.4514 C   0  0  0  0  0  0
  -18.0365  -28.1473   22.8395 C   0  0  0  0  0  0
  -24.1481  -36.6918   23.2681 C   0  0  0  0  0  0
  -26.2384  -30.1446   21.4680 C   0  0  0  0  0  0
  -26.3049  -28.6179   20.8347 C   0  0  0  0  0  0
  -27.3494  -27.4193   20.8353 C   0  0  0  0  0  0
  -26.0630  -26.0751   19.5352 C   0  0  0  0  0  0
  -25.0754  -27.1648   19.4672 C   0  0  0  0  0  0
  -23.9311  -29.4524   20.1337 C   0  0  0  0  0  0
  -25.4155  -36.2588   24.0240 C   0  0  1  0  0  0
  -20.6049  -28.3812   23.1008 C   0  0  2  0  0  0
  -20.6785  -26.9408   22.5408 C   0  0  0  0  0  0
  -19.5772  -26.6326   21.5219 C   0  0  0  0  0  0
  -18.1960  -26.7974   22.1618 C   0  0  0  0  0  0
  -19.1660  -28.8986   23.2655 C   0  0  0  0  0  0
  -18.9578  -30.1563   23.8710 C   0  0  0  0  0  0
  -17.6568  -30.6624   24.0510 C   0  0  0  0  0  0
  -25.9194  -34.9001   23.4772 C   0  0  0  0  0  0
  -16.5441  -29.9083   23.6400 C   0  0  0  0  0  0
  -16.7349  -28.6528   23.0375 C   0  0  0  0  0  0
  -26.4739  -31.6346   25.0640 C   0  0  0  0  0  0
  -25.3606  -31.3843   26.1091 C   0  0  0  0  0  0
  -27.0822  -30.2626   24.7116 C   0  0  0  0  0  0
  -27.6008  -32.4432   25.7500 C   0  0  0  0  0  0
  -27.5534  -37.1584   24.8461 C   0  0  0  0  0  0
  -21.4746  -29.2885   22.3246 N   0  0  0  0  0  0
  -26.4194  -37.3466   23.9443 N   0  0  0  0  0  0
  -24.9156  -30.7490   22.0519 N   0  0  0  0  0  0
  -23.4214  -28.7528   23.3289 O   0  0  0  0  0  0
  -28.2350  -24.3154   20.2744 O   0  0  0  0  0  0
  -26.5994  -34.8768   22.4490 O   0  0  0  0  0  0
  -23.6579  -32.0357   23.5144 O   0  0  0  0  0  0
  -30.9055  -19.2994   20.7322 C   0  0  0  0  0  0
  -29.1332  -17.1538   18.0297 C   0  0  0  0  0  0
  -29.1296  -19.9367   20.1699 C   0  0  0  0  0  0
  -31.2218  -16.9211   18.3106 C   0  0  0  0  0  0
  -33.4375  -17.1210   17.1524 C   0  0  0  0  0  0
  -28.2733  -22.1067   20.2468 C   0  0  0  0  0  0
  -31.4367  -18.8791   17.5019 C   0  0  0  0  0  0
  -31.9182  -17.4520   17.1467 C   0  0  2  0  0  0
  -28.2792  -18.5718   19.1187 N   0  0  0  0  0  0
  -32.0293  -17.9913   19.8306 N   0  0  0  0  0  0
  -30.3991  -18.7920   18.6492 N   0  0  0  0  0  0
  -31.3017  -16.9915   16.0546 F   0  0  0  0  0  0
  -31.1951  -14.4388   18.8891 H   0  0  0  0  0  0
  -30.7925  -13.4704   20.2220 H   0  0  0  0  0  0
  -30.2864  -12.2561   18.0810 H   0  0  0  0  0  0
  -29.3772  -13.6198   17.4733 H   0  0  0  0  0  0
  -28.5630  -11.5830   19.5530 H   0  0  0  0  0  0
  -27.6643  -12.0946   18.1251 H   0  0  0  0  0  0
  -27.3095  -14.2433   19.0537 H   0  0  0  0  0  0
  -29.0948  -13.6977   21.4718 H   0  0  0  0  0  0
  -27.9686  -14.9821   21.3899 H   0  0  0  0  0  0
  -25.2927   -9.5839   22.4866 H   0  0  0  0  0  0
  -24.0063   -7.4910   22.7620 H   0  0  0  0  0  0
  -21.1019   -8.9150   19.9016 H   0  0  0  0  0  0
  -22.4077  -10.9895   19.6216 H   0  0  0  0  0  0
  -21.2177   -7.6239   23.9703 H   0  0  0  0  0  0
  -21.1330   -6.0553   25.9002 H   0  0  0  0  0  0
  -22.0644   -2.7688   23.2768 H   0  0  0  0  0  0
  -22.4021  -11.9866   22.4808 H   0  0  0  0  0  0
  -21.1041  -13.1305   22.2469 H   0  0  0  0  0  0
  -24.6306  -15.9104   20.5520 H   0  0  0  0  0  0
  -26.2437  -15.6744   20.1077 H   0  0  0  0  0  0
  -26.8047  -32.4294   23.0549 H   0  0  0  0  0  0
  -24.9896  -33.8675   24.9434 H   0  0  0  0  0  0
  -23.0107  -31.1038   21.1807 H   0  0  0  0  0  0
  -23.3830  -35.9151   23.3151 H   0  0  0  0  0  0
  -24.3538  -36.8825   22.2134 H   0  0  0  0  0  0
  -23.7131  -37.5963   23.6950 H   0  0  0  0  0  0
  -26.5295  -30.8010   20.6476 H   0  0  0  0  0  0
  -27.0697  -30.2278   22.1555 H   0  0  0  0  0  0
  -28.2459  -27.6438   21.3982 H   0  0  0  0  0  0
  -25.7686  -25.2029   18.9658 H   0  0  0  0  0  0
  -24.2108  -26.9778   18.8500 H   0  0  0  0  0  0
  -24.1631  -30.1640   19.3409 H   0  0  0  0  0  0
  -23.0237  -28.9466   19.7996 H   0  0  0  0  0  0
  -25.1397  -36.1250   25.0727 H   0  0  0  0  0  0
  -21.0082  -28.3491   24.1161 H   0  0  0  0  0  0
  -20.5536  -26.2506   23.3742 H   0  0  0  0  0  0
  -21.6647  -26.7198   22.1305 H   0  0  0  0  0  0
  -19.6912  -25.6189   21.1339 H   0  0  0  0  0  0
  -19.6737  -27.3063   20.6686 H   0  0  0  0  0  0
  -17.4239  -26.6705   21.4016 H   0  0  0  0  0  0
  -18.0333  -26.0142   22.9038 H   0  0  0  0  0  0
  -19.8045  -30.7402   24.2049 H   0  0  0  0  0  0
  -17.5094  -31.6270   24.5152 H   0  0  0  0  0  0
  -15.5426  -30.2936   23.7761 H   0  0  0  0  0  0
  -15.8762  -28.0752   22.7217 H   0  0  0  0  0  0
  -24.5851  -30.7176   25.7347 H   0  0  0  0  0  0
  -24.8732  -32.3077   26.4186 H   0  0  0  0  0  0
  -25.7569  -30.9192   27.0111 H   0  0  0  0  0  0
  -26.3650  -29.5933   24.2369 H   0  0  0  0  0  0
  -27.4201  -29.7491   25.6127 H   0  0  0  0  0  0
  -27.9640  -30.3623   24.0800 H   0  0  0  0  0  0
  -27.2451  -33.3912   26.1560 H   0  0  0  0  0  0
  -28.4060  -32.6721   25.0510 H   0  0  0  0  0  0
  -28.0430  -31.8946   26.5826 H   0  0  0  0  0  0
  -28.2427  -38.0008   24.7637 H   0  0  0  0  0  0
  -28.1177  -36.2531   24.6148 H   0  0  0  0  0  0
  -27.2277  -37.1014   25.8868 H   0  0  0  0  0  0
  -21.0328  -29.8441   21.6044 H   0  0  0  0  0  0
  -25.9975  -38.2473   24.1543 H   0  0  0  0  0  0
  -31.4427  -19.9583   21.4029 H   0  0  0  0  0  0
  -28.5906  -16.6836   17.2190 H   0  0  0  0  0  0
  -33.9906  -17.6648   17.9237 H   0  0  0  0  0  0
  -33.9474  -17.3372   16.2120 H   0  0  0  0  0  0
  -33.5668  -16.0520   17.3356 H   0  0  0  0  0  0
  -27.5792  -21.9539   21.0747 H   0  0  0  0  0  0
  -27.6623  -22.0118   19.3478 H   0  0  0  0  0  0
  -31.0252  -19.3863   16.6313 H   0  0  0  0  0  0
  -32.2895  -19.4830   17.8258 H   0  0  0  0  0  0
  -29.5027  -19.2186   18.4461 H   0  0  0  0  0  0
  1 25  1  0  0  0
  1 30  2  0  0  0
  1 81  1  0  0  0
  2  3  1  0  0  0
  2 25  1  0  0  0
  2 83  1  0  0  0
  2 84  1  0  0  0
  3  4  1  0  0  0
  3 85  1  0  0  0
  3 86  1  0  0  0
  4  5  1  0  0  0
  4 87  1  0  0  0
  4 88  1  0  0  0
  5  6  1  0  0  0
  5 26  1  0  0  0
  5 89  1  0  0  0
  6 25  1  0  0  0
  6 90  1  0  0  0
  6 91  1  0  0  0
  7  8  2  0  0  0
  7 26  1  0  0  0
  7 29  1  0  0  0
  8  9  1  0  0  0
  8 22  1  0  0  0
  9 10  1  0  0  0
  9 27  2  0  0  0
 10 11  2  0  0  0
 10 15  1  0  0  0
 11 12  1  0  0  0
 11 92  1  0  0  0
 12 13  2  0  0  0
 12 93  1  0  0  0
 13 14  1  0  0  0
 13 31  1  0  0  0
 14 15  2  0  0  0
 14 94  1  0  0  0
 15 95  1  0  0  0
 16 17  2  0  0  0
 16 21  1  0  0  0
 16 31  1  0  0  0
 17 18  1  0  0  0
 17 96  1  0  0  0
 18 19  2  0  0  0
 18 97  1  0  0  0
 19 20  1  0  0  0
 19 24  1  0  0  0
 20 21  2  0  0  0
 20 98  1  0  0  0
 21 23  1  0  0  0
 22 28  1  0  0  0
 22 32  2  0  0  0
 26 27  1  0  0  0
 28 99  1  0  0  0
 28100  1  0  0  0
 29101  1  0  0  0
 29102  1  0  0  0
 33 34  1  0  0  0
 33 66  1  0  0  0
 33 70  2  0  0  0
 34 36  1  0  0  0
 34 59  1  0  0  0
 34103  1  0  0  0
 35 44  2  0  0  0
 35 45  1  0  0  0
 35 68  1  0  0  0
 36 56  1  0  0  0
 36104  1  0  0  0
 37 39  1  0  0  0
 37 47  1  0  0  0
 37 66  1  0  0  0
 37105  1  0  0  0
 38 43  2  0  0  0
 38 46  1  0  0  0
 38 47  1  0  0  0
 39 64  1  0  0  0
 39 67  2  0  0  0
 40 52  1  0  0  0
 40 53  2  0  0  0
 40 58  1  0  0  0
 41106  1  0  0  0
 41107  1  0  0  0
 41108  1  0  0  0
 41 48  1  0  0  0
 42 43  1  0  0  0
 42 66  1  0  0  0
 42109  1  0  0  0
 42110  1  0  0  0
 43 44  1  0  0  0
 44111  1  0  0  0
 45 46  2  0  0  0
 45112  1  0  0  0
 46113  1  0  0  0
 47114  1  0  0  0
 47115  1  0  0  0
 48 56  1  0  0  0
 48 65  1  0  0  0
 48116  1  0  0  0
 49 50  1  0  0  0
 49 53  1  0  0  0
 49 64  1  0  0  0
 49117  1  0  0  0
 50 51  1  0  0  0
 50118  1  0  0  0
 50119  1  0  0  0
 51 52  1  0  0  0
 51120  1  0  0  0
 51121  1  0  0  0
 52122  1  0  0  0
 52123  1  0  0  0
 53 54  1  0  0  0
 54 55  2  0  0  0
 54124  1  0  0  0
 55 57  1  0  0  0
 55125  1  0  0  0
 56 69  2  0  0  0
 57 58  2  0  0  0
 57126  1  0  0  0
 58127  1  0  0  0
 59 60  1  0  0  0
 59 61  1  0  0  0
 59 62  1  0  0  0
 60128  1  0  0  0
 60129  1  0  0  0
 60130  1  0  0  0
 61131  1  0  0  0
 61132  1  0  0  0
 61133  1  0  0  0
 62134  1  0  0  0
 62135  1  0  0  0
 62136  1  0  0  0
 63 65  1  0  0  0
 63137  1  0  0  0
 63138  1  0  0  0
 63139  1  0  0  0
 64140  1  0  0  0
 65141  1  0  0  0
 68 76  1  0  0  0
 71 73  2  0  0  0
 71 80  1  0  0  0
 71142  1  0  0  0
 72 74  1  0  0  0
 72 79  2  0  0  0
 72143  1  0  0  0
 73 76  1  0  0  0
 73 79  1  0  0  0
 74 78  1  0  0  0
 74 80  2  0  0  0
 75144  1  0  0  0
 75145  1  0  0  0
 75146  1  0  0  0
 75 78  1  0  0  0
 76147  1  0  0  0
 76148  1  0  0  0
 77 78  1  0  0  0
 77 81  1  0  0  0
 77149  1  0  0  0
 77150  1  0  0  0
 78 82  1  0  0  0
 81151  1  0  0  0
M  ISO  4   1 100  68 101  76 101  81 100
M  END
> <chiral flag>
0

> <version>
0

> <s_m_source_file>
/data/baiqing/PycharmProjects/Reinvent-master-3.2/result/LINK_invent/BTK/process_docking_weight1_custom_sum_contain_oxygen_bond_distance_aromatic_linkinvent_7_9_3/rearranged_h_0056.sdf

> <i_m_source_file_index>
46

> <r_mmod_Potential_Energy-OPLS-2005>
18332.83984375

> <r_mmod_Stretch_Energy-OPLS-2005>
10416.5341796875

> <r_mmod_Bend_Energy-OPLS-2005>
1257.31860351562

> <r_mmod_Torsional_Energy-OPLS-2005>
450.640380859375

> <r_mmod_Improper_Torsional_Energy-OPLS-2005>
121.671005249023

> <r_mmod_Van_der_Waal_Energy-OPLS-2005>
2947.98168945312

> <r_mmod_Electrostatic_Energy-OPLS-2005>
-319.816864013672

> <r_mmod_Solvation_Energy-OPLS-2005>
-224.370330810547

> <b_mmod_Minimization_Converged-OPLS-2005>
0

> <r_mmod_RMS_Derivative-OPLS-2005>
22.4558258056641

$$$$
48
                    3D
 Structure written by MMmdl.
152160  0  0  1  0            999 V2000
  -30.6472  -14.7699   20.5180 C   0  0  0  0  0  0
  -30.4362  -12.4874   19.4782 C   0  0  0  0  0  0
  -29.5204  -12.5591   18.2345 C   0  0  0  0  0  0
  -28.0441  -12.3712   18.6377 C   0  0  0  0  0  0
  -27.6475  -13.2481   19.8585 C   0  0  2  0  0  0
  -28.6938  -13.1675   20.9923 C   0  0  0  0  0  0
  -25.2502  -13.8238   20.5757 C   0  0  0  0  0  0
  -24.1773  -13.0444   20.9233 C   0  0  0  0  0  0
  -24.6410  -11.6948   20.8743 C   0  0  0  0  0  0
  -23.9099  -10.4317   21.0390 C   0  0  0  0  0  0
  -24.3635   -9.4238   21.9170 C   0  0  0  0  0  0
  -23.6322   -8.2258   22.0722 C   0  0  0  0  0  0
  -22.4308   -8.0282   21.3529 C   0  0  0  0  0  0
  -21.9942   -9.0251   20.4633 C   0  0  0  0  0  0
  -22.7260  -10.2153   20.3055 C   0  0  0  0  0  0
  -21.6845   -6.0756   22.5301 C   0  0  0  0  0  0
  -21.3995   -6.5647   23.8238 C   0  0  0  0  0  0
  -21.3676   -5.6794   24.9197 C   0  0  0  0  0  0
  -21.6062   -4.3060   24.7224 C   0  0  0  0  0  0
  -21.8813   -3.8151   23.4338 C   0  0  0  0  0  0
  -21.9186   -4.6985   22.3409 C   0  0  0  0  0  0
  -22.7789  -13.5213   21.1878 C   0  0  0  0  0  0
  -22.1646   -4.2169   21.0978 F   0  0  0  0  0  0
  -21.5660   -3.4545   25.7730 F   0  0  0  0  0  0
  -29.9987  -13.5438   20.4285 N   0  0  0  0  0  0
  -26.2957  -12.9478   20.3316 N   0  0  0  0  0  0
  -25.9358  -11.6605   20.5764 N   0  0  0  0  0  0
  -22.0423  -12.8229   22.0463 N   0  0  0  0  0  0
  -25.4212  -15.1958   20.4243 N   0  0  0  0  0  0
  -31.7699  -14.8796   20.0137 O   0  0  0  0  0  0
  -21.6641   -6.8901   21.4266 O   0  0  0  0  0  0
  -22.3483  -14.5518   20.6748 O   0  0  0  0  0  0
  -24.6345  -31.8513   23.2010 C   0  0  0  0  0  0
  -25.9161  -32.4721   23.8345 C   0  0  1  0  0  0
  -27.2093  -27.2518   20.1339 C   0  0  0  0  0  0
  -25.5973  -33.8533   24.2250 N   0  0  0  0  0  0
  -23.4287  -30.4810   21.5370 C   0  0  2  0  0  0
  -24.8733  -28.9312   20.1013 C   0  0  0  0  0  0
  -22.7520  -29.4563   22.4827 C   0  0  0  0  0  0
  -18.0266  -28.1395   22.8450 C   0  0  0  0  0  0
  -24.1479  -36.7286   23.2643 C   0  0  0  0  0  0
  -25.9788  -30.7613   21.3845 C   0  0  0  0  0  0
  -26.0450  -29.3882   20.7196 C   0  0  0  0  0  0
  -27.2155  -28.5624   20.7195 C   0  0  0  0  0  0
  -26.0168  -26.8666   19.4799 C   0  0  0  0  0  0
  -24.8665  -27.6813   19.4658 C   0  0  0  0  0  0
  -23.6503  -29.8291   20.1478 C   0  0  0  0  0  0
  -25.4095  -36.3052   24.0318 C   0  0  1  0  0  0
  -20.5879  -28.3699   23.1243 C   0  0  2  0  0  0
  -20.6736  -26.9417   22.5370 C   0  0  0  0  0  0
  -19.5722  -26.6395   21.5166 C   0  0  0  0  0  0
  -18.1912  -26.7930   22.1600 C   0  0  0  0  0  0
  -19.1536  -28.8860   23.2841 C   0  0  0  0  0  0
  -18.9483  -30.1448   23.8874 C   0  0  0  0  0  0
  -17.6492  -30.6586   24.0581 C   0  0  0  0  0  0
  -25.9042  -34.9420   23.5069 C   0  0  0  0  0  0
  -16.5358  -29.9102   23.6365 C   0  0  0  0  0  0
  -16.7261  -28.6533   23.0354 C   0  0  0  0  0  0
  -26.4519  -31.6593   25.0767 C   0  0  0  0  0  0
  -25.3777  -31.3844   26.1550 C   0  0  0  0  0  0
  -27.0353  -30.2985   24.6326 C   0  0  0  0  0  0
  -27.6041  -32.4394   25.7529 C   0  0  0  0  0  0
  -27.5564  -37.1774   24.8459 C   0  0  0  0  0  0
  -21.4211  -29.3062   22.3658 N   0  0  0  0  0  0
  -26.4256  -37.3776   23.9438 N   0  0  0  0  0  0
  -24.6982  -31.0512   22.0975 N   0  0  0  0  0  0
  -23.4242  -28.8082   23.2905 O   0  0  0  0  0  0
  -28.2953  -26.3455   20.2162 O   0  0  0  0  0  0
  -26.5624  -34.8902   22.4634 O   0  0  0  0  0  0
  -23.5496  -32.1308   23.7333 O   0  0  0  0  0  0
  -27.8971  -21.5972   19.6840 C   0  0  0  0  0  0
  -29.0294  -20.0406   20.5727 C   0  0  0  0  0  0
  -29.7568  -15.9417   22.4387 C   0  0  0  0  0  0
  -29.3285  -18.6061   21.1862 C   0  0  0  0  0  0
  -29.0965  -23.7438   20.5761 C   0  0  0  0  0  0
  -30.0396  -17.3493   20.4054 C   0  0  0  0  0  0
  -28.0427  -24.8654   20.0590 C   0  0  0  0  0  0
  -27.9559  -20.2543   19.7421 N   0  0  0  0  0  0
  -29.5959  -21.2164   20.9748 N   0  0  0  0  0  0
  -28.8267  -22.2420   20.3979 N   0  0  0  0  0  0
  -29.9817  -15.9118   20.9919 N   0  0  0  0  0  0
  -31.4814  -12.6005   19.1797 H   0  0  0  0  0  0
  -30.3698  -11.5013   19.9371 H   0  0  0  0  0  0
  -29.8099  -11.8139   17.4899 H   0  0  0  0  0  0
  -29.6483  -13.5292   17.7552 H   0  0  0  0  0  0
  -27.9014  -11.3180   18.8737 H   0  0  0  0  0  0
  -27.3946  -12.5886   17.7897 H   0  0  0  0  0  0
  -27.6446  -14.2791   19.4997 H   0  0  0  0  0  0
  -28.7375  -12.1590   21.4083 H   0  0  0  0  0  0
  -28.4011  -13.8113   21.8176 H   0  0  0  0  0  0
  -25.2778   -9.5743   22.4752 H   0  0  0  0  0  0
  -24.0061   -7.4654   22.7427 H   0  0  0  0  0  0
  -21.0849   -8.8758   19.8939 H   0  0  0  0  0  0
  -22.3673  -10.9684   19.6170 H   0  0  0  0  0  0
  -21.1962   -7.6146   23.9767 H   0  0  0  0  0  0
  -21.1518   -6.0500   25.9119 H   0  0  0  0  0  0
  -22.0574   -2.7609   23.2822 H   0  0  0  0  0  0
  -22.3997  -11.9936   22.4964 H   0  0  0  0  0  0
  -21.1034  -13.1269   22.2620 H   0  0  0  0  0  0
  -24.6596  -15.8537   20.5573 H   0  0  0  0  0  0
  -26.2867  -15.6445   20.1510 H   0  0  0  0  0  0
  -26.7236  -32.5350   23.1078 H   0  0  0  0  0  0
  -25.0212  -33.9671   25.0465 H   0  0  0  0  0  0
  -22.7245  -31.3054   21.4000 H   0  0  0  0  0  0
  -23.3724  -35.9634   23.3273 H   0  0  0  0  0  0
  -24.3591  -36.8941   22.2063 H   0  0  0  0  0  0
  -23.7223  -37.6473   23.6680 H   0  0  0  0  0  0
  -26.1357  -31.5277   20.6225 H   0  0  0  0  0  0
  -26.8480  -30.7903   22.0298 H   0  0  0  0  0  0
  -28.1052  -28.9077   21.2252 H   0  0  0  0  0  0
  -25.9417  -25.9074   18.9874 H   0  0  0  0  0  0
  -23.9752  -27.3335   18.9610 H   0  0  0  0  0  0
  -23.7914  -30.6170   19.4060 H   0  0  0  0  0  0
  -22.7629  -29.2831   19.8253 H   0  0  0  0  0  0
  -25.1258  -36.1873   25.0812 H   0  0  0  0  0  0
  -20.9960  -28.3236   24.1366 H   0  0  0  0  0  0
  -20.5599  -26.2304   23.3567 H   0  0  0  0  0  0
  -21.6610  -26.7400   22.1189 H   0  0  0  0  0  0
  -19.6889  -25.6323   21.1177 H   0  0  0  0  0  0
  -19.6652  -27.3222   20.6721 H   0  0  0  0  0  0
  -17.4159  -26.6659   21.4016 H   0  0  0  0  0  0
  -18.0325  -26.0061   22.9005 H   0  0  0  0  0  0
  -19.7974  -30.7257   24.2218 H   0  0  0  0  0  0
  -17.5073  -31.6264   24.5215 H   0  0  0  0  0  0
  -15.5382  -30.3039   23.7710 H   0  0  0  0  0  0
  -15.8631  -28.0891   22.7071 H   0  0  0  0  0  0
  -24.5878  -30.7219   25.8004 H   0  0  0  0  0  0
  -24.9069  -32.3071   26.4972 H   0  0  0  0  0  0
  -25.8141  -30.9084   27.0345 H   0  0  0  0  0  0
  -26.2963  -29.6749   24.1286 H   0  0  0  0  0  0
  -27.3913  -29.7249   25.4899 H   0  0  0  0  0  0
  -27.8891  -30.4206   23.9652 H   0  0  0  0  0  0
  -27.2562  -33.3668   26.2096 H   0  0  0  0  0  0
  -28.3832  -32.7032   25.0363 H   0  0  0  0  0  0
  -28.0721  -31.8569   26.5477 H   0  0  0  0  0  0
  -28.2560  -38.0102   24.7558 H   0  0  0  0  0  0
  -28.1077  -36.2636   24.6184 H   0  0  0  0  0  0
  -27.2322  -37.1300   25.8880 H   0  0  0  0  0  0
  -20.9376  -29.8936   21.7010 H   0  0  0  0  0  0
  -26.0114  -38.2823   24.1529 H   0  0  0  0  0  0
  -27.1555  -22.1286   19.1017 H   0  0  0  0  0  0
  -30.2998  -16.7593   22.9100 H   0  0  0  0  0  0
  -30.1100  -15.0435   22.9466 H   0  0  0  0  0  0
  -28.6961  -16.0541   22.6572 H   0  0  0  0  0  0
  -28.3591  -18.2436   21.5280 H   0  0  0  0  0  0
  -29.8781  -18.7881   22.1106 H   0  0  0  0  0  0
  -29.2420  -23.9044   21.6439 H   0  0  0  0  0  0
  -30.0597  -23.9524   20.1111 H   0  0  0  0  0  0
  -31.0877  -17.6109   20.2541 H   0  0  0  0  0  0
  -29.5990  -17.2928   19.4105 H   0  0  0  0  0  0
  -27.8777  -24.6879   18.9947 H   0  0  0  0  0  0
  -27.0958  -24.6421   20.5527 H   0  0  0  0  0  0
  1 25  1  0  0  0
  1 30  2  0  0  0
  1 81  1  0  0  0
  2  3  1  0  0  0
  2 25  1  0  0  0
  2 82  1  0  0  0
  2 83  1  0  0  0
  3  4  1  0  0  0
  3 84  1  0  0  0
  3 85  1  0  0  0
  4  5  1  0  0  0
  4 86  1  0  0  0
  4 87  1  0  0  0
  5  6  1  0  0  0
  5 26  1  0  0  0
  5 88  1  0  0  0
  6 25  1  0  0  0
  6 89  1  0  0  0
  6 90  1  0  0  0
  7  8  2  0  0  0
  7 26  1  0  0  0
  7 29  1  0  0  0
  8  9  1  0  0  0
  8 22  1  0  0  0
  9 10  1  0  0  0
  9 27  2  0  0  0
 10 11  2  0  0  0
 10 15  1  0  0  0
 11 12  1  0  0  0
 11 91  1  0  0  0
 12 13  2  0  0  0
 12 92  1  0  0  0
 13 14  1  0  0  0
 13 31  1  0  0  0
 14 15  2  0  0  0
 14 93  1  0  0  0
 15 94  1  0  0  0
 16 17  2  0  0  0
 16 21  1  0  0  0
 16 31  1  0  0  0
 17 18  1  0  0  0
 17 95  1  0  0  0
 18 19  2  0  0  0
 18 96  1  0  0  0
 19 20  1  0  0  0
 19 24  1  0  0  0
 20 21  2  0  0  0
 20 97  1  0  0  0
 21 23  1  0  0  0
 22 28  1  0  0  0
 22 32  2  0  0  0
 26 27  1  0  0  0
 28 98  1  0  0  0
 28 99  1  0  0  0
 29100  1  0  0  0
 29101  1  0  0  0
 33 34  1  0  0  0
 33 66  1  0  0  0
 33 70  2  0  0  0
 34 36  1  0  0  0
 34 59  1  0  0  0
 34102  1  0  0  0
 35 44  2  0  0  0
 35 45  1  0  0  0
 35 68  1  0  0  0
 36 56  1  0  0  0
 36103  1  0  0  0
 37 39  1  0  0  0
 37 47  1  0  0  0
 37 66  1  0  0  0
 37104  1  0  0  0
 38 43  2  0  0  0
 38 46  1  0  0  0
 38 47  1  0  0  0
 39 64  1  0  0  0
 39 67  2  0  0  0
 40 52  1  0  0  0
 40 53  2  0  0  0
 40 58  1  0  0  0
 41105  1  0  0  0
 41106  1  0  0  0
 41107  1  0  0  0
 41 48  1  0  0  0
 42 43  1  0  0  0
 42 66  1  0  0  0
 42108  1  0  0  0
 42109  1  0  0  0
 43 44  1  0  0  0
 44110  1  0  0  0
 45 46  2  0  0  0
 45111  1  0  0  0
 46112  1  0  0  0
 47113  1  0  0  0
 47114  1  0  0  0
 48 56  1  0  0  0
 48 65  1  0  0  0
 48115  1  0  0  0
 49 50  1  0  0  0
 49 53  1  0  0  0
 49 64  1  0  0  0
 49116  1  0  0  0
 50 51  1  0  0  0
 50117  1  0  0  0
 50118  1  0  0  0
 51 52  1  0  0  0
 51119  1  0  0  0
 51120  1  0  0  0
 52121  1  0  0  0
 52122  1  0  0  0
 53 54  1  0  0  0
 54 55  2  0  0  0
 54123  1  0  0  0
 55 57  1  0  0  0
 55124  1  0  0  0
 56 69  2  0  0  0
 57 58  2  0  0  0
 57125  1  0  0  0
 58126  1  0  0  0
 59 60  1  0  0  0
 59 61  1  0  0  0
 59 62  1  0  0  0
 60127  1  0  0  0
 60128  1  0  0  0
 60129  1  0  0  0
 61130  1  0  0  0
 61131  1  0  0  0
 61132  1  0  0  0
 62133  1  0  0  0
 62134  1  0  0  0
 62135  1  0  0  0
 63 65  1  0  0  0
 63136  1  0  0  0
 63137  1  0  0  0
 63138  1  0  0  0
 64139  1  0  0  0
 65140  1  0  0  0
 68 77  1  0  0  0
 71 78  2  0  0  0
 71 80  1  0  0  0
 71141  1  0  0  0
 72 74  1  0  0  0
 72 78  1  0  0  0
 72 79  2  0  0  0
 73 81  1  0  0  0
 73142  1  0  0  0
 73143  1  0  0  0
 73144  1  0  0  0
 74 76  1  0  0  0
 74145  1  0  0  0
 74146  1  0  0  0
 75 77  1  0  0  0
 75 80  1  0  0  0
 75147  1  0  0  0
 75148  1  0  0  0
 76 81  1  0  0  0
 76149  1  0  0  0
 76150  1  0  0  0
 77151  1  0  0  0
 77152  1  0  0  0
 79 80  1  0  0  0
M  ISO  4   1 100  68 101  77 101  81 100
M  END
> <chiral flag>
0

> <version>
0

> <s_m_source_file>
/data/baiqing/PycharmProjects/Reinvent-master-3.2/result/LINK_invent/BTK/process_docking_weight1_custom_sum_contain_oxygen_bond_distance_aromatic_linkinvent_7_9_3/rearranged_h_0056.sdf

> <i_m_source_file_index>
47

> <r_mmod_Potential_Energy-OPLS-2005>
311.627685546875

> <r_mmod_Stretch_Energy-OPLS-2005>
145.211547851562

> <r_mmod_Bend_Energy-OPLS-2005>
187.503494262695

> <r_mmod_Torsional_Energy-OPLS-2005>
277.641662597656

> <r_mmod_Improper_Torsional_Energy-OPLS-2005>
7.60210132598877

> <r_mmod_Van_der_Waal_Energy-OPLS-2005>
122.434188842773

> <r_mmod_Electrostatic_Energy-OPLS-2005>
-295.3125

> <r_mmod_Solvation_Energy-OPLS-2005>
-226.816619873047

> <b_mmod_Minimization_Converged-OPLS-2005>
0

> <r_mmod_RMS_Derivative-OPLS-2005>
5.41242504119873

$$$$
49
                    3D
 Structure written by MMmdl.
171179  0  0  1  0            999 V2000
  -30.6947  -14.4631   20.5751 C   0  0  0  0  0  0
  -30.4259  -12.3030   19.4091 C   0  0  0  0  0  0
  -29.4938  -12.5111   18.1972 C   0  0  0  0  0  0
  -28.0117  -12.3750   18.6052 C   0  0  0  0  0  0
  -27.6594  -13.1900   19.8770 C   0  0  2  0  0  0
  -28.7059  -12.9565   20.9885 C   0  0  0  0  0  0
  -25.2585  -13.8109   20.5689 C   0  0  0  0  0  0
  -24.1835  -13.0410   20.9185 C   0  0  0  0  0  0
  -24.6384  -11.6880   20.8757 C   0  0  0  0  0  0
  -23.9055  -10.4281   21.0414 C   0  0  0  0  0  0
  -24.3627   -9.4188   21.9178 C   0  0  0  0  0  0
  -23.6297   -8.2237   22.0764 C   0  0  0  0  0  0
  -22.4281   -8.0281   21.3552 C   0  0  0  0  0  0
  -21.9900   -9.0251   20.4641 C   0  0  0  0  0  0
  -22.7236  -10.2123   20.3043 C   0  0  0  0  0  0
  -21.6857   -6.0731   22.5292 C   0  0  0  0  0  0
  -21.4004   -6.5635   23.8219 C   0  0  0  0  0  0
  -21.3651   -5.6796   24.9188 C   0  0  0  0  0  0
  -21.6048   -4.3054   24.7234 C   0  0  0  0  0  0
  -21.8817   -3.8141   23.4357 C   0  0  0  0  0  0
  -21.9191   -4.6954   22.3413 C   0  0  0  0  0  0
  -22.7853  -13.5195   21.1850 C   0  0  0  0  0  0
  -22.1649   -4.2137   21.0991 F   0  0  0  0  0  0
  -21.5645   -3.4531   25.7742 F   0  0  0  0  0  0
  -30.0342  -13.2781   20.4374 N   0  0  0  0  0  0
  -26.3012  -12.9243   20.3399 N   0  0  0  0  0  0
  -25.9296  -11.6427   20.5773 N   0  0  0  0  0  0
  -22.0510  -12.8199   22.0409 N   0  0  0  0  0  0
  -25.4293  -15.1834   20.4067 N   0  0  0  0  0  0
  -31.8246  -14.6595   20.1180 O   0  0  0  0  0  0
  -21.6654   -6.8873   21.4247 O   0  0  0  0  0  0
  -22.3538  -14.5510   20.6712 O   0  0  0  0  0  0
  -24.6097  -31.8714   23.2134 C   0  0  0  0  0  0
  -25.9013  -32.4841   23.8413 C   0  0  1  0  0  0
  -27.2340  -27.4747   20.0885 C   0  0  0  0  0  0
  -25.5887  -33.8637   24.2354 N   0  0  0  0  0  0
  -23.3955  -30.4951   21.5535 C   0  0  2  0  0  0
  -24.8421  -28.9596   20.1203 C   0  0  0  0  0  0
  -22.7378  -29.4686   22.5021 C   0  0  0  0  0  0
  -18.0266  -28.1373   22.8498 C   0  0  0  0  0  0
  -24.1475  -36.7325   23.2633 C   0  0  0  0  0  0
  -25.9194  -30.8452   21.3614 C   0  0  0  0  0  0
  -25.9981  -29.4791   20.7181 C   0  0  0  0  0  0
  -27.1991  -28.7389   20.7110 C   0  0  0  0  0  0
  -26.0711  -26.9603   19.4833 C   0  0  0  0  0  0
  -24.8698  -27.6938   19.5065 C   0  0  0  0  0  0
  -23.6019  -29.8239   20.1690 C   0  0  0  0  0  0
  -25.4090  -36.3123   24.0344 C   0  0  1  0  0  0
  -20.5853  -28.3664   23.1328 C   0  0  2  0  0  0
  -20.6758  -26.9411   22.5416 C   0  0  0  0  0  0
  -19.5738  -26.6391   21.5208 C   0  0  0  0  0  0
  -18.1918  -26.7919   22.1620 C   0  0  0  0  0  0
  -19.1516  -28.8828   23.2910 C   0  0  0  0  0  0
  -18.9453  -30.1439   23.8911 C   0  0  0  0  0  0
  -17.6456  -30.6587   24.0577 C   0  0  0  0  0  0
  -25.9027  -34.9489   23.5144 C   0  0  0  0  0  0
  -16.5343  -29.9099   23.6321 C   0  0  0  0  0  0
  -16.7257  -28.6510   23.0351 C   0  0  0  0  0  0
  -26.4458  -31.6598   25.0720 C   0  0  0  0  0  0
  -25.3749  -31.3686   26.1488 C   0  0  0  0  0  0
  -27.0294  -30.3051   24.6062 C   0  0  0  0  0  0
  -27.6033  -32.4315   25.7485 C   0  0  0  0  0  0
  -27.5589  -37.1795   24.8448 C   0  0  0  0  0  0
  -21.4110  -29.3036   22.3736 N   0  0  0  0  0  0
  -26.4276  -37.3815   23.9429 N   0  0  0  0  0  0
  -24.6595  -31.0854   22.1017 N   0  0  0  0  0  0
  -23.4159  -28.8233   23.3063 O   0  0  0  0  0  0
  -28.3813  -26.7306   20.0454 O   0  0  0  0  0  0
  -26.5596  -34.8940   22.4708 O   0  0  0  0  0  0
  -23.5302  -32.1464   23.7544 O   0  0  0  0  0  0
  -29.0605  -23.5153   21.7489 C   0  0  0  0  0  0
  -29.3120  -24.7278   21.0465 C   0  0  0  0  0  0
  -29.8516  -22.5768   21.1390 C   0  0  0  0  0  0
  -29.0943  -18.2709   18.4238 C   0  0  0  0  0  0
  -31.2744  -17.8445   19.5829 C   0  0  0  0  0  0
  -31.5063  -22.7522   19.1728 C   0  0  0  0  0  0
  -29.7799  -15.8382   22.3930 C   0  0  0  0  0  0
  -27.7695  -20.6222   20.4625 C   0  0  0  0  0  0
  -28.6971  -26.0880   21.2795 C   0  0  0  0  0  0
  -29.9990  -21.1039   21.4444 C   0  0  0  0  0  0
  -29.2282  -16.3615   19.9975 C   0  0  0  0  0  0
  -29.3217  -18.7583   20.9414 C   0  0  0  0  0  0
  -29.7425  -17.8205   19.7586 C   0  0  0  0  0  0
  -30.2037  -24.5509   20.0800 N   0  0  0  0  0  0
  -30.5332  -23.2418   20.1312 N   0  0  0  0  0  0
  -29.9260  -15.5038   20.9773 N   0  0  0  0  0  0
  -29.1917  -20.2014   20.5741 N   0  3  1  0  0  0
  -31.4697  -12.4097   19.1075 H   0  0  0  0  0  0
  -30.3265  -11.2871   19.7942 H   0  0  0  0  0  0
  -29.7282  -11.7949   17.4071 H   0  0  0  0  0  0
  -29.6641  -13.4999   17.7678 H   0  0  0  0  0  0
  -27.8125  -11.3154   18.7717 H   0  0  0  0  0  0
  -27.3693  -12.6843   17.7804 H   0  0  0  0  0  0
  -27.6944  -14.2346   19.5902 H   0  0  0  0  0  0
  -28.6922  -11.9129   21.3108 H   0  0  0  0  0  0
  -28.4632  -13.5341   21.8807 H   0  0  0  0  0  0
  -25.2787   -9.5681   22.4712 H   0  0  0  0  0  0
  -24.0007   -7.4630   22.7485 H   0  0  0  0  0  0
  -21.0844   -8.8776   19.8932 H   0  0  0  0  0  0
  -22.3710  -10.9666   19.6145 H   0  0  0  0  0  0
  -21.2004   -7.6145   23.9704 H   0  0  0  0  0  0
  -21.1463   -6.0541   25.9088 H   0  0  0  0  0  0
  -22.0605   -2.7593   23.2879 H   0  0  0  0  0  0
  -22.4140  -11.9864   22.4793 H   0  0  0  0  0  0
  -21.1108  -13.1177   22.2592 H   0  0  0  0  0  0
  -24.6613  -15.8377   20.5114 H   0  0  0  0  0  0
  -26.2781  -15.6157   20.0705 H   0  0  0  0  0  0
  -26.7088  -32.5572   23.1182 H   0  0  0  0  0  0
  -25.0025  -33.9814   25.0492 H   0  0  0  0  0  0
  -22.6821  -31.3095   21.4144 H   0  0  0  0  0  0
  -23.3761  -35.9630   23.3232 H   0  0  0  0  0  0
  -24.3596  -36.9010   22.2064 H   0  0  0  0  0  0
  -23.7186  -37.6492   23.6687 H   0  0  0  0  0  0
  -26.0220  -31.6062   20.5859 H   0  0  0  0  0  0
  -26.8116  -30.9067   21.9732 H   0  0  0  0  0  0
  -28.0930  -29.1375   21.1695 H   0  0  0  0  0  0
  -26.0973  -25.9924   19.0015 H   0  0  0  0  0  0
  -23.9809  -27.2860   19.0447 H   0  0  0  0  0  0
  -23.7064  -30.5973   19.4071 H   0  0  0  0  0  0
  -22.7258  -29.2414   19.8761 H   0  0  0  0  0  0
  -25.1247  -36.1986   25.0837 H   0  0  0  0  0  0
  -20.9947  -28.3234   24.1441 H   0  0  0  0  0  0
  -20.5669  -26.2276   23.3593 H   0  0  0  0  0  0
  -21.6630  -26.7456   22.1209 H   0  0  0  0  0  0
  -19.6906  -25.6313   21.1209 H   0  0  0  0  0  0
  -19.6669  -27.3214   20.6748 H   0  0  0  0  0  0
  -17.4188  -26.6681   21.4020 H   0  0  0  0  0  0
  -18.0315  -26.0048   22.9002 H   0  0  0  0  0  0
  -19.7935  -30.7240   24.2285 H   0  0  0  0  0  0
  -17.5025  -31.6271   24.5188 H   0  0  0  0  0  0
  -15.5346  -30.3013   23.7631 H   0  0  0  0  0  0
  -15.8662  -28.0833   22.7051 H   0  0  0  0  0  0
  -24.5883  -30.7079   25.7824 H   0  0  0  0  0  0
  -24.8992  -32.2843   26.5007 H   0  0  0  0  0  0
  -25.8126  -30.8792   27.0197 H   0  0  0  0  0  0
  -26.2831  -29.6804   24.1142 H   0  0  0  0  0  0
  -27.4113  -29.7288   25.4496 H   0  0  0  0  0  0
  -27.8636  -30.4388   23.9171 H   0  0  0  0  0  0
  -27.2645  -33.3605   26.2084 H   0  0  0  0  0  0
  -28.3832  -32.6893   25.0307 H   0  0  0  0  0  0
  -28.0704  -31.8423   26.5387 H   0  0  0  0  0  0
  -28.2531  -38.0171   24.7622 H   0  0  0  0  0  0
  -28.1164  -36.2709   24.6100 H   0  0  0  0  0  0
  -27.2338  -37.1246   25.8858 H   0  0  0  0  0  0
  -20.9254  -29.8767   21.6971 H   0  0  0  0  0  0
  -26.0158  -38.2874   24.1513 H   0  0  0  0  0  0
  -28.3847  -23.3589   22.5782 H   0  0  0  0  0  0
  -29.3901  -17.6174   17.6013 H   0  0  0  0  0  0
  -29.3832  -19.2783   18.1223 H   0  0  0  0  0  0
  -28.0050  -18.2317   18.4746 H   0  0  0  0  0  0
  -31.5899  -17.1812   18.7760 H   0  0  0  0  0  0
  -31.7928  -17.5219   20.4871 H   0  0  0  0  0  0
  -31.6388  -18.8433   19.3402 H   0  0  0  0  0  0
  -31.6370  -21.6746   19.2574 H   0  0  0  0  0  0
  -32.4678  -23.2372   19.3447 H   0  0  0  0  0  0
  -31.1748  -22.9834   18.1601 H   0  0  0  0  0  0
  -28.7806  -16.2195   22.6055 H   0  0  0  0  0  0
  -30.5056  -16.5959   22.6853 H   0  0  0  0  0  0
  -29.9353  -14.9725   23.0378 H   0  0  0  0  0  0
  -27.6729  -21.5961   19.9821 H   0  0  0  0  0  0
  -27.3022  -20.6826   21.4464 H   0  0  0  0  0  0
  -27.1879  -19.9221   19.8627 H   0  0  0  0  0  0
  -29.3905  -26.7219   21.8348 H   0  0  0  0  0  0
  -27.8110  -25.9802   21.9113 H   0  0  0  0  0  0
  -29.7037  -20.9346   22.4816 H   0  0  0  0  0  0
  -31.0505  -20.8212   21.3892 H   0  0  0  0  0  0
  -29.2432  -15.8313   19.0424 H   0  0  0  0  0  0
  -28.1715  -16.3951   20.2665 H   0  0  0  0  0  0
  -30.0406  -18.6468   21.7546 H   0  0  0  0  0  0
  -28.3752  -18.4217   21.3707 H   0  0  0  0  0  0
  -29.5775  -20.2791   19.6460 H   0  0  0  0  0  0
  1 25  1  0  0  0
  1 30  2  0  0  0
  1 86  1  0  0  0
  2  3  1  0  0  0
  2 25  1  0  0  0
  2 88  1  0  0  0
  2 89  1  0  0  0
  3  4  1  0  0  0
  3 90  1  0  0  0
  3 91  1  0  0  0
  4  5  1  0  0  0
  4 92  1  0  0  0
  4 93  1  0  0  0
  5  6  1  0  0  0
  5 26  1  0  0  0
  5 94  1  0  0  0
  6 25  1  0  0  0
  6 95  1  0  0  0
  6 96  1  0  0  0
  7  8  2  0  0  0
  7 26  1  0  0  0
  7 29  1  0  0  0
  8  9  1  0  0  0
  8 22  1  0  0  0
  9 10  1  0  0  0
  9 27  2  0  0  0
 10 11  2  0  0  0
 10 15  1  0  0  0
 11 12  1  0  0  0
 11 97  1  0  0  0
 12 13  2  0  0  0
 12 98  1  0  0  0
 13 14  1  0  0  0
 13 31  1  0  0  0
 14 15  2  0  0  0
 14 99  1  0  0  0
 15100  1  0  0  0
 16 17  2  0  0  0
 16 21  1  0  0  0
 16 31  1  0  0  0
 17 18  1  0  0  0
 17101  1  0  0  0
 18 19  2  0  0  0
 18102  1  0  0  0
 19 20  1  0  0  0
 19 24  1  0  0  0
 20 21  2  0  0  0
 20103  1  0  0  0
 21 23  1  0  0  0
 22 28  1  0  0  0
 22 32  2  0  0  0
 26 27  1  0  0  0
 28104  1  0  0  0
 28105  1  0  0  0
 29106  1  0  0  0
 29107  1  0  0  0
 33 34  1  0  0  0
 33 66  1  0  0  0
 33 70  2  0  0  0
 34 36  1  0  0  0
 34 59  1  0  0  0
 34108  1  0  0  0
 35 44  2  0  0  0
 35 45  1  0  0  0
 35 68  1  0  0  0
 36 56  1  0  0  0
 36109  1  0  0  0
 37 39  1  0  0  0
 37 47  1  0  0  0
 37 66  1  0  0  0
 37110  1  0  0  0
 38 43  2  0  0  0
 38 46  1  0  0  0
 38 47  1  0  0  0
 39 64  1  0  0  0
 39 67  2  0  0  0
 40 52  1  0  0  0
 40 53  2  0  0  0
 40 58  1  0  0  0
 41111  1  0  0  0
 41112  1  0  0  0
 41113  1  0  0  0
 41 48  1  0  0  0
 42 43  1  0  0  0
 42 66  1  0  0  0
 42114  1  0  0  0
 42115  1  0  0  0
 43 44  1  0  0  0
 44116  1  0  0  0
 45 46  2  0  0  0
 45117  1  0  0  0
 46118  1  0  0  0
 47119  1  0  0  0
 47120  1  0  0  0
 48 56  1  0  0  0
 48 65  1  0  0  0
 48121  1  0  0  0
 49 50  1  0  0  0
 49 53  1  0  0  0
 49 64  1  0  0  0
 49122  1  0  0  0
 50 51  1  0  0  0
 50123  1  0  0  0
 50124  1  0  0  0
 51 52  1  0  0  0
 51125  1  0  0  0
 51126  1  0  0  0
 52127  1  0  0  0
 52128  1  0  0  0
 53 54  1  0  0  0
 54 55  2  0  0  0
 54129  1  0  0  0
 55 57  1  0  0  0
 55130  1  0  0  0
 56 69  2  0  0  0
 57 58  2  0  0  0
 57131  1  0  0  0
 58132  1  0  0  0
 59 60  1  0  0  0
 59 61  1  0  0  0
 59 62  1  0  0  0
 60133  1  0  0  0
 60134  1  0  0  0
 60135  1  0  0  0
 61136  1  0  0  0
 61137  1  0  0  0
 61138  1  0  0  0
 62139  1  0  0  0
 62140  1  0  0  0
 62141  1  0  0  0
 63 65  1  0  0  0
 63142  1  0  0  0
 63143  1  0  0  0
 63144  1  0  0  0
 64145  1  0  0  0
 65146  1  0  0  0
 68 79  1  0  0  0
 71 72  1  0  0  0
 71 73  2  0  0  0
 71147  1  0  0  0
 72 79  1  0  0  0
 72 84  2  0  0  0
 73 80  1  0  0  0
 73 85  1  0  0  0
 74148  1  0  0  0
 74149  1  0  0  0
 74150  1  0  0  0
 74 83  1  0  0  0
 75 83  1  0  0  0
 75151  1  0  0  0
 75152  1  0  0  0
 75153  1  0  0  0
 76 85  1  0  0  0
 76154  1  0  0  0
 76155  1  0  0  0
 76156  1  0  0  0
 77 86  1  0  0  0
 77157  1  0  0  0
 77158  1  0  0  0
 77159  1  0  0  0
 78160  1  0  0  0
 78161  1  0  0  0
 78162  1  0  0  0
 78 87  1  0  0  0
 79163  1  0  0  0
 79164  1  0  0  0
 80 87  1  0  0  0
 80165  1  0  0  0
 80166  1  0  0  0
 81 83  1  0  0  0
 81 86  1  0  0  0
 81167  1  0  0  0
 81168  1  0  0  0
 82 83  1  0  0  0
 82 87  1  0  0  0
 82169  1  0  0  0
 82170  1  0  0  0
 84 85  1  0  0  0
 87171  1  0  0  0
M  CHG  1  87   1
M  ISO  4   1 100  68 101  79 101  86 100
M  END
> <chiral flag>
0

> <version>
0

> <s_m_source_file>
/data/baiqing/PycharmProjects/Reinvent-master-3.2/result/LINK_invent/BTK/process_docking_weight1_custom_sum_contain_oxygen_bond_distance_aromatic_linkinvent_7_9_3/rearranged_h_0056.sdf

> <i_m_source_file_index>
48

> <r_mmod_Potential_Energy-OPLS-2005>
-11.272120475769

> <r_mmod_Stretch_Energy-OPLS-2005>
37.9587364196777

> <r_mmod_Bend_Energy-OPLS-2005>
103.215919494629

> <r_mmod_Torsional_Energy-OPLS-2005>
369.033538818359

> <r_mmod_Improper_Torsional_Energy-OPLS-2005>
7.05018663406372

> <r_mmod_Van_der_Waal_Energy-OPLS-2005>
124.43155670166

> <r_mmod_Electrostatic_Energy-OPLS-2005>
-209.394729614258

> <r_mmod_Solvation_Energy-OPLS-2005>
-453.545837402344

> <b_mmod_Minimization_Converged-OPLS-2005>
0

> <r_mmod_RMS_Derivative-OPLS-2005>
3.04034519195557

$$$$
50
                    3D
 Structure written by MMmdl.
163171  0  0  1  0            999 V2000
  -30.6800  -14.4739   20.6015 C   0  0  0  0  0  0
  -30.4355  -12.3130   19.4256 C   0  0  0  0  0  0
  -29.5044  -12.5189   18.2103 C   0  0  0  0  0  0
  -28.0210  -12.3767   18.6125 C   0  0  0  0  0  0
  -27.6635  -13.1969   19.8803 C   0  0  2  0  0  0
  -28.7063  -12.9467   20.9937 C   0  0  0  0  0  0
  -25.2603  -13.8104   20.5693 C   0  0  0  0  0  0
  -24.1843  -13.0388   20.9186 C   0  0  0  0  0  0
  -24.6385  -11.6861   20.8730 C   0  0  0  0  0  0
  -23.9043  -10.4256   21.0403 C   0  0  0  0  0  0
  -24.3598   -9.4171   21.9178 C   0  0  0  0  0  0
  -23.6271   -8.2213   22.0755 C   0  0  0  0  0  0
  -22.4248   -8.0263   21.3553 C   0  0  0  0  0  0
  -21.9863   -9.0242   20.4659 C   0  0  0  0  0  0
  -22.7203  -10.2116   20.3063 C   0  0  0  0  0  0
  -21.6832   -6.0738   22.5296 C   0  0  0  0  0  0
  -21.4000   -6.5643   23.8231 C   0  0  0  0  0  0
  -21.3655   -5.6796   24.9189 C   0  0  0  0  0  0
  -21.6044   -4.3063   24.7238 C   0  0  0  0  0  0
  -21.8812   -3.8154   23.4357 C   0  0  0  0  0  0
  -21.9185   -4.6969   22.3415 C   0  0  0  0  0  0
  -22.7879  -13.5224   21.1858 C   0  0  0  0  0  0
  -22.1660   -4.2156   21.0992 F   0  0  0  0  0  0
  -21.5610   -3.4544   25.7751 F   0  0  0  0  0  0
  -30.0335  -13.2819   20.4547 N   0  0  0  0  0  0
  -26.3020  -12.9257   20.3356 N   0  0  0  0  0  0
  -25.9307  -11.6432   20.5752 N   0  0  0  0  0  0
  -22.0506  -12.8245   22.0409 N   0  0  0  0  0  0
  -25.4300  -15.1817   20.4123 N   0  0  0  0  0  0
  -31.7940  -14.6787   20.1065 O   0  0  0  0  0  0
  -21.6613   -6.8869   21.4256 O   0  0  0  0  0  0
  -22.3608  -14.5549   20.6720 O   0  0  0  0  0  0
  -24.6109  -31.8710   23.2114 C   0  0  0  0  0  0
  -25.9001  -32.4838   23.8424 C   0  0  1  0  0  0
  -27.2478  -27.4611   20.1010 C   0  0  0  0  0  0
  -25.5884  -33.8634   24.2379 N   0  0  0  0  0  0
  -23.4002  -30.4910   21.5506 C   0  0  2  0  0  0
  -24.8505  -28.9520   20.1240 C   0  0  0  0  0  0
  -22.7401  -29.4659   22.5010 C   0  0  0  0  0  0
  -18.0275  -28.1367   22.8483 C   0  0  0  0  0  0
  -24.1492  -36.7328   23.2636 C   0  0  0  0  0  0
  -25.9246  -30.8401   21.3625 C   0  0  0  0  0  0
  -26.0041  -29.4715   20.7241 C   0  0  0  0  0  0
  -27.2050  -28.7309   20.7187 C   0  0  0  0  0  0
  -26.0839  -26.9558   19.4878 C   0  0  0  0  0  0
  -24.8812  -27.6886   19.5076 C   0  0  0  0  0  0
  -23.6109  -29.8160   20.1673 C   0  0  0  0  0  0
  -25.4103  -36.3128   24.0359 C   0  0  1  0  0  0
  -20.5856  -28.3650   23.1320 C   0  0  2  0  0  0
  -20.6765  -26.9392   22.5404 C   0  0  0  0  0  0
  -19.5745  -26.6384   21.5197 C   0  0  0  0  0  0
  -18.1923  -26.7919   22.1612 C   0  0  0  0  0  0
  -19.1518  -28.8831   23.2901 C   0  0  0  0  0  0
  -18.9448  -30.1432   23.8912 C   0  0  0  0  0  0
  -17.6448  -30.6579   24.0554 C   0  0  0  0  0  0
  -25.9020  -34.9484   23.5158 C   0  0  0  0  0  0
  -16.5341  -29.9074   23.6309 C   0  0  0  0  0  0
  -16.7261  -28.6487   23.0342 C   0  0  0  0  0  0
  -26.4439  -31.6588   25.0733 C   0  0  0  0  0  0
  -25.3727  -31.3667   26.1498 C   0  0  0  0  0  0
  -27.0249  -30.3047   24.6040 C   0  0  0  0  0  0
  -27.6050  -32.4266   25.7471 C   0  0  0  0  0  0
  -27.5590  -37.1821   24.8470 C   0  0  0  0  0  0
  -21.4135  -29.3030   22.3745 N   0  0  0  0  0  0
  -26.4307  -37.3800   23.9401 N   0  0  0  0  0  0
  -24.6632  -31.0826   22.1011 N   0  0  0  0  0  0
  -23.4179  -28.8230   23.3083 O   0  0  0  0  0  0
  -28.3986  -26.7151   19.9989 O   0  0  0  0  0  0
  -26.5561  -34.8922   22.4712 O   0  0  0  0  0  0
  -23.5294  -32.1451   23.7523 O   0  0  0  0  0  0
  -28.9303  -20.6419   21.7039 C   0  0  0  0  0  0
  -29.8547  -21.5488   22.2635 C   0  0  0  0  0  0
  -30.6674  -19.2120   21.2930 C   0  0  0  0  0  0
  -30.4368  -15.8005   22.7834 C   0  0  0  0  0  0
  -29.5251  -16.8684   19.1367 C   0  0  0  0  0  0
  -29.4039  -22.8744   22.8706 C   0  0  0  0  0  0
  -31.1596  -17.8792   20.7155 C   0  0  0  0  0  0
  -29.8328  -24.1322   22.0810 C   0  0  0  0  0  0
  -28.6810  -25.1337   21.8323 C   0  0  0  0  0  0
  -29.1409  -26.4608   21.1900 C   0  0  0  0  0  0
  -29.9741  -15.6690   21.3149 C   0  0  1  0  0  0
  -29.3465  -19.4459   21.2238 N   0  0  0  0  0  0
  -31.1712  -21.2273   22.3226 N   0  0  0  0  0  0
  -31.5813  -20.0475   21.8236 N   0  0  0  0  0  0
  -30.0022  -16.9603   20.5418 N   0  3  1  0  0  0
  -31.4818  -12.4207   19.1326 H   0  0  0  0  0  0
  -30.3421  -11.2966   19.8104 H   0  0  0  0  0  0
  -29.7493  -11.8006   17.4274 H   0  0  0  0  0  0
  -29.6715  -13.5084   17.7817 H   0  0  0  0  0  0
  -27.8186  -11.3192   18.7902 H   0  0  0  0  0  0
  -27.3768  -12.6722   17.7848 H   0  0  0  0  0  0
  -27.7108  -14.2458   19.5984 H   0  0  0  0  0  0
  -28.6905  -11.8950   21.2811 H   0  0  0  0  0  0
  -28.4637  -13.4828   21.9102 H   0  0  0  0  0  0
  -25.2748   -9.5630   22.4736 H   0  0  0  0  0  0
  -23.9982   -7.4590   22.7455 H   0  0  0  0  0  0
  -21.0785   -8.8760   19.8970 H   0  0  0  0  0  0
  -22.3662  -10.9654   19.6171 H   0  0  0  0  0  0
  -21.1996   -7.6153   23.9737 H   0  0  0  0  0  0
  -21.1477   -6.0529   25.9095 H   0  0  0  0  0  0
  -22.0591   -2.7613   23.2867 H   0  0  0  0  0  0
  -22.4100  -11.9902   22.4800 H   0  0  0  0  0  0
  -21.1130  -13.1311   22.2618 H   0  0  0  0  0  0
  -24.6474  -15.8205   20.5057 H   0  0  0  0  0  0
  -26.2593  -15.6222   20.0389 H   0  0  0  0  0  0
  -26.7090  -32.5574   23.1205 H   0  0  0  0  0  0
  -25.0084  -33.9805   25.0557 H   0  0  0  0  0  0
  -22.6873  -31.3050   21.4078 H   0  0  0  0  0  0
  -23.3747  -35.9665   23.3311 H   0  0  0  0  0  0
  -24.3597  -36.8908   22.2048 H   0  0  0  0  0  0
  -23.7248  -37.6552   23.6617 H   0  0  0  0  0  0
  -26.0263  -31.5978   20.5843 H   0  0  0  0  0  0
  -26.8151  -30.9047   21.9748 H   0  0  0  0  0  0
  -28.0966  -29.1501   21.1614 H   0  0  0  0  0  0
  -26.1124  -25.9946   18.9937 H   0  0  0  0  0  0
  -23.9951  -27.2812   19.0393 H   0  0  0  0  0  0
  -23.7227  -30.5863   19.4035 H   0  0  0  0  0  0
  -22.7366  -29.2315   19.8754 H   0  0  0  0  0  0
  -25.1269  -36.2016   25.0858 H   0  0  0  0  0  0
  -20.9930  -28.3205   24.1445 H   0  0  0  0  0  0
  -20.5650  -26.2266   23.3591 H   0  0  0  0  0  0
  -21.6647  -26.7441   22.1209 H   0  0  0  0  0  0
  -19.6910  -25.6300   21.1219 H   0  0  0  0  0  0
  -19.6688  -27.3201   20.6737 H   0  0  0  0  0  0
  -17.4199  -26.6654   21.4011 H   0  0  0  0  0  0
  -18.0329  -26.0051   22.9006 H   0  0  0  0  0  0
  -19.7924  -30.7237   24.2292 H   0  0  0  0  0  0
  -17.5007  -31.6254   24.5157 H   0  0  0  0  0  0
  -15.5338  -30.2981   23.7632 H   0  0  0  0  0  0
  -15.8661  -28.0809   22.7051 H   0  0  0  0  0  0
  -24.5921  -30.6977   25.7853 H   0  0  0  0  0  0
  -24.8885  -32.2807   26.4960 H   0  0  0  0  0  0
  -25.8117  -30.8855   27.0247 H   0  0  0  0  0  0
  -26.2783  -29.6846   24.1070 H   0  0  0  0  0  0
  -27.4034  -29.7228   25.4450 H   0  0  0  0  0  0
  -27.8607  -30.4405   23.9167 H   0  0  0  0  0  0
  -27.2728  -33.3565   26.2084 H   0  0  0  0  0  0
  -28.3839  -32.6803   25.0273 H   0  0  0  0  0  0
  -28.0731  -31.8352   26.5346 H   0  0  0  0  0  0
  -28.2620  -38.0107   24.7496 H   0  0  0  0  0  0
  -28.1076  -36.2639   24.6315 H   0  0  0  0  0  0
  -27.2310  -37.1502   25.8876 H   0  0  0  0  0  0
  -20.9307  -29.8750   21.6953 H   0  0  0  0  0  0
  -26.0209  -38.2890   24.1365 H   0  0  0  0  0  0
  -27.8744  -20.8668   21.6565 H   0  0  0  0  0  0
  -29.9134  -16.6064   23.2977 H   0  0  0  0  0  0
  -30.2241  -14.8853   23.3399 H   0  0  0  0  0  0
  -31.5096  -15.9755   22.8696 H   0  0  0  0  0  0
  -30.2305  -16.3366   18.4960 H   0  0  0  0  0  0
  -29.3908  -17.8631   18.7080 H   0  0  0  0  0  0
  -28.5603  -16.3649   19.0794 H   0  0  0  0  0  0
  -29.7832  -22.9330   23.8919 H   0  0  0  0  0  0
  -28.3187  -22.8521   22.9697 H   0  0  0  0  0  0
  -31.9373  -17.4683   21.3533 H   0  0  0  0  0  0
  -31.6423  -18.0774   19.7590 H   0  0  0  0  0  0
  -30.2536  -23.8455   21.1168 H   0  0  0  0  0  0
  -30.6411  -24.6264   22.6224 H   0  0  0  0  0  0
  -27.9459  -24.6517   21.1859 H   0  0  0  0  0  0
  -28.1583  -25.3559   22.7653 H   0  0  0  0  0  0
  -30.1925  -26.3993   20.9050 H   0  0  0  0  0  0
  -29.0786  -27.2695   21.9167 H   0  0  0  0  0  0
  -28.9071  -15.4715   21.3589 H   0  0  0  0  0  0
  -29.3039  -17.5587   20.9785 H   0  0  0  0  0  0
  1 25  1  0  0  0
  1 30  2  0  0  0
  1 81  1  0  0  0
  2  3  1  0  0  0
  2 25  1  0  0  0
  2 86  1  0  0  0
  2 87  1  0  0  0
  3  4  1  0  0  0
  3 88  1  0  0  0
  3 89  1  0  0  0
  4  5  1  0  0  0
  4 90  1  0  0  0
  4 91  1  0  0  0
  5  6  1  0  0  0
  5 26  1  0  0  0
  5 92  1  0  0  0
  6 25  1  0  0  0
  6 93  1  0  0  0
  6 94  1  0  0  0
  7  8  2  0  0  0
  7 26  1  0  0  0
  7 29  1  0  0  0
  8  9  1  0  0  0
  8 22  1  0  0  0
  9 10  1  0  0  0
  9 27  2  0  0  0
 10 11  2  0  0  0
 10 15  1  0  0  0
 11 12  1  0  0  0
 11 95  1  0  0  0
 12 13  2  0  0  0
 12 96  1  0  0  0
 13 14  1  0  0  0
 13 31  1  0  0  0
 14 15  2  0  0  0
 14 97  1  0  0  0
 15 98  1  0  0  0
 16 17  2  0  0  0
 16 21  1  0  0  0
 16 31  1  0  0  0
 17 18  1  0  0  0
 17 99  1  0  0  0
 18 19  2  0  0  0
 18100  1  0  0  0
 19 20  1  0  0  0
 19 24  1  0  0  0
 20 21  2  0  0  0
 20101  1  0  0  0
 21 23  1  0  0  0
 22 28  1  0  0  0
 22 32  2  0  0  0
 26 27  1  0  0  0
 28102  1  0  0  0
 28103  1  0  0  0
 29104  1  0  0  0
 29105  1  0  0  0
 33 34  1  0  0  0
 33 66  1  0  0  0
 33 70  2  0  0  0
 34 36  1  0  0  0
 34 59  1  0  0  0
 34106  1  0  0  0
 35 44  2  0  0  0
 35 45  1  0  0  0
 35 68  1  0  0  0
 36 56  1  0  0  0
 36107  1  0  0  0
 37 39  1  0  0  0
 37 47  1  0  0  0
 37 66  1  0  0  0
 37108  1  0  0  0
 38 43  2  0  0  0
 38 46  1  0  0  0
 38 47  1  0  0  0
 39 64  1  0  0  0
 39 67  2  0  0  0
 40 52  1  0  0  0
 40 53  2  0  0  0
 40 58  1  0  0  0
 41109  1  0  0  0
 41110  1  0  0  0
 41111  1  0  0  0
 41 48  1  0  0  0
 42 43  1  0  0  0
 42 66  1  0  0  0
 42112  1  0  0  0
 42113  1  0  0  0
 43 44  1  0  0  0
 44114  1  0  0  0
 45 46  2  0  0  0
 45115  1  0  0  0
 46116  1  0  0  0
 47117  1  0  0  0
 47118  1  0  0  0
 48 56  1  0  0  0
 48 65  1  0  0  0
 48119  1  0  0  0
 49 50  1  0  0  0
 49 53  1  0  0  0
 49 64  1  0  0  0
 49120  1  0  0  0
 50 51  1  0  0  0
 50121  1  0  0  0
 50122  1  0  0  0
 51 52  1  0  0  0
 51123  1  0  0  0
 51124  1  0  0  0
 52125  1  0  0  0
 52126  1  0  0  0
 53 54  1  0  0  0
 54 55  2  0  0  0
 54127  1  0  0  0
 55 57  1  0  0  0
 55128  1  0  0  0
 56 69  2  0  0  0
 57 58  2  0  0  0
 57129  1  0  0  0
 58130  1  0  0  0
 59 60  1  0  0  0
 59 61  1  0  0  0
 59 62  1  0  0  0
 60131  1  0  0  0
 60132  1  0  0  0
 60133  1  0  0  0
 61134  1  0  0  0
 61135  1  0  0  0
 61136  1  0  0  0
 62137  1  0  0  0
 62138  1  0  0  0
 62139  1  0  0  0
 63 65  1  0  0  0
 63140  1  0  0  0
 63141  1  0  0  0
 63142  1  0  0  0
 64143  1  0  0  0
 65144  1  0  0  0
 68 80  1  0  0  0
 71 72  2  0  0  0
 71 82  1  0  0  0
 71145  1  0  0  0
 72 76  1  0  0  0
 72 83  1  0  0  0
 73 77  1  0  0  0
 73 82  2  0  0  0
 73 84  1  0  0  0
 74146  1  0  0  0
 74147  1  0  0  0
 74148  1  0  0  0
 74 81  1  0  0  0
 75149  1  0  0  0
 75150  1  0  0  0
 75151  1  0  0  0
 75 85  1  0  0  0
 76 78  1  0  0  0
 76152  1  0  0  0
 76153  1  0  0  0
 77 85  1  0  0  0
 77154  1  0  0  0
 77155  1  0  0  0
 78 79  1  0  0  0
 78156  1  0  0  0
 78157  1  0  0  0
 79 80  1  0  0  0
 79158  1  0  0  0
 79159  1  0  0  0
 80160  1  0  0  0
 80161  1  0  0  0
 81 85  1  0  0  0
 81162  1  0  0  0
 83 84  2  0  0  0
 85163  1  0  0  0
M  CHG  1  85   1
M  ISO  4   1 100  68 101  80 101  81 100
M  END
> <chiral flag>
0

> <version>
0

> <s_m_source_file>
/data/baiqing/PycharmProjects/Reinvent-master-3.2/result/LINK_invent/BTK/process_docking_weight1_custom_sum_contain_oxygen_bond_distance_aromatic_linkinvent_7_9_3/rearranged_h_0056.sdf

> <i_m_source_file_index>
49

> <r_mmod_Potential_Energy-OPLS-2005>
-271.170074462891

> <r_mmod_Stretch_Energy-OPLS-2005>
41.2699089050293

> <r_mmod_Bend_Energy-OPLS-2005>
116.557548522949

> <r_mmod_Torsional_Energy-OPLS-2005>
221.654312133789

> <r_mmod_Improper_Torsional_Energy-OPLS-2005>
2.93606185913086

> <r_mmod_Van_der_Waal_Energy-OPLS-2005>
166.383926391602

> <r_mmod_Electrostatic_Energy-OPLS-2005>
-393.996643066406

> <r_mmod_Solvation_Energy-OPLS-2005>
-435.880554199219

> <b_mmod_Minimization_Converged-OPLS-2005>
0

> <r_mmod_RMS_Derivative-OPLS-2005>
3.00673913955688

$$$$
51
                    3D
 Structure written by MMmdl.
158166  0  0  1  0            999 V2000
  -30.6793  -14.6572   20.3881 C   0  0  0  0  0  0
  -30.4301  -12.3729   19.4657 C   0  0  0  0  0  0
  -29.5051  -12.3657   18.2302 C   0  0  0  0  0  0
  -28.0206  -12.2839   18.6498 C   0  0  0  0  0  0
  -27.6336  -13.2071   19.8414 C   0  0  2  0  0  0
  -28.6939  -13.1767   20.9626 C   0  0  0  0  0  0
  -25.2535  -13.8146   20.5750 C   0  0  0  0  0  0
  -24.1781  -13.0422   20.9228 C   0  0  0  0  0  0
  -24.6339  -11.6890   20.8796 C   0  0  0  0  0  0
  -23.9006  -10.4276   21.0425 C   0  0  0  0  0  0
  -24.3578   -9.4187   21.9183 C   0  0  0  0  0  0
  -23.6269   -8.2215   22.0744 C   0  0  0  0  0  0
  -22.4252   -8.0255   21.3531 C   0  0  0  0  0  0
  -21.9870   -9.0225   20.4639 C   0  0  0  0  0  0
  -22.7187  -10.2119   20.3068 C   0  0  0  0  0  0
  -21.6850   -6.0709   22.5264 C   0  0  0  0  0  0
  -21.4006   -6.5614   23.8193 C   0  0  0  0  0  0
  -21.3665   -5.6771   24.9158 C   0  0  0  0  0  0
  -21.6049   -4.3030   24.7217 C   0  0  0  0  0  0
  -21.8820   -3.8124   23.4336 C   0  0  0  0  0  0
  -21.9196   -4.6943   22.3393 C   0  0  0  0  0  0
  -22.7810  -13.5235   21.1868 C   0  0  0  0  0  0
  -22.1671   -4.2141   21.0966 F   0  0  0  0  0  0
  -21.5633   -3.4516   25.7734 F   0  0  0  0  0  0
  -29.9939  -13.4710   20.3468 N   0  0  0  0  0  0
  -26.2913  -12.9272   20.3356 N   0  0  0  0  0  0
  -25.9268  -11.6451   20.5861 N   0  0  0  0  0  0
  -22.0449  -12.8243   22.0443 N   0  0  0  0  0  0
  -25.4309  -15.1866   20.4180 N   0  0  0  0  0  0
  -31.9079  -14.6753   20.2827 O   0  0  0  0  0  0
  -21.6629   -6.8846   21.4224 O   0  0  0  0  0  0
  -22.3505  -14.5532   20.6696 O   0  0  0  0  0  0
  -24.6243  -31.8622   23.2038 C   0  0  0  0  0  0
  -25.9103  -32.4779   23.8356 C   0  0  1  0  0  0
  -27.2195  -27.3488   20.0955 C   0  0  0  0  0  0
  -25.5919  -33.8583   24.2260 N   0  0  0  0  0  0
  -23.4133  -30.4870   21.5488 C   0  0  2  0  0  0
  -24.8530  -28.9419   20.1116 C   0  0  0  0  0  0
  -22.7466  -29.4635   22.4979 C   0  0  0  0  0  0
  -18.0291  -28.1398   22.8494 C   0  0  0  0  0  0
  -24.1488  -36.7308   23.2630 C   0  0  0  0  0  0
  -25.9537  -30.7961   21.3745 C   0  0  0  0  0  0
  -26.0218  -29.4287   20.7100 C   0  0  0  0  0  0
  -27.2069  -28.6422   20.6908 C   0  0  0  0  0  0
  -26.0209  -26.8928   19.5006 C   0  0  0  0  0  0
  -24.8511  -27.6765   19.5045 C   0  0  0  0  0  0
  -23.6216  -29.8237   20.1630 C   0  0  0  0  0  0
  -25.4106  -36.3079   24.0320 C   0  0  1  0  0  0
  -20.5891  -28.3686   23.1314 C   0  0  2  0  0  0
  -20.6779  -26.9413   22.5429 C   0  0  0  0  0  0
  -19.5736  -26.6391   21.5249 C   0  0  0  0  0  0
  -18.1919  -26.7936   22.1655 C   0  0  0  0  0  0
  -19.1540  -28.8858   23.2893 C   0  0  0  0  0  0
  -18.9464  -30.1479   23.8881 C   0  0  0  0  0  0
  -17.6459  -30.6586   24.0578 C   0  0  0  0  0  0
  -25.9057  -34.9456   23.5094 C   0  0  0  0  0  0
  -16.5355  -29.9083   23.6346 C   0  0  0  0  0  0
  -16.7283  -28.6521   23.0329 C   0  0  0  0  0  0
  -26.4454  -31.6608   25.0753 C   0  0  0  0  0  0
  -25.3675  -31.3823   26.1489 C   0  0  0  0  0  0
  -27.0270  -30.2992   24.6268 C   0  0  0  0  0  0
  -27.5978  -32.4368   25.7537 C   0  0  0  0  0  0
  -27.5591  -37.1790   24.8434 C   0  0  0  0  0  0
  -21.4186  -29.3037   22.3714 N   0  0  0  0  0  0
  -26.4265  -37.3794   23.9433 N   0  0  0  0  0  0
  -24.6825  -31.0653   22.0982 N   0  0  0  0  0  0
  -23.4211  -28.8189   23.3047 O   0  0  0  0  0  0
  -28.3723  -26.5600   20.1052 O   0  0  0  0  0  0
  -26.5641  -34.8920   22.4678 O   0  0  0  0  0  0
  -23.5414  -32.1425   23.7387 O   0  0  0  0  0  0
  -30.4846  -22.2017   21.3194 C   0  0  0  0  0  0
  -29.0299  -21.9023   19.4427 C   0  0  0  0  0  0
  -29.6565  -22.7979   20.3364 C   0  0  0  0  0  0
  -30.7189  -20.7989   21.3383 C   0  0  0  0  0  0
  -30.1143  -19.9921   20.3387 C   0  0  0  0  0  0
  -29.4703  -15.9979   18.7920 C   0  0  0  0  0  0
  -29.6010  -24.3560   20.2077 C   0  0  0  0  0  0
  -30.6374  -18.5664   19.9547 C   0  0  0  0  0  0
  -30.3184  -17.2127   20.7794 C   0  0  0  0  0  0
  -28.2533  -25.1089   19.9263 C   0  0  0  0  0  0
  -31.6872  -20.2160   22.3654 C   0  0  0  0  0  0
  -29.2487  -20.5556   19.4474 N   0  0  0  0  0  0
  -29.9742  -15.8403   20.1773 N   0  0  0  0  0  0
  -31.9127  -21.0728   23.3612 F   0  0  0  0  0  0
  -31.1875  -19.1017   22.8972 F   0  0  0  0  0  0
  -32.8519  -19.9363   21.7836 F   0  0  0  0  0  0
  -31.4689  -12.4823   19.1525 H   0  0  0  0  0  0
  -30.3729  -11.4221   19.9983 H   0  0  0  0  0  0
  -29.7458  -11.5020   17.6076 H   0  0  0  0  0  0
  -29.6982  -13.2249   17.5922 H   0  0  0  0  0  0
  -27.8440  -11.2473   18.9354 H   0  0  0  0  0  0
  -27.3707  -12.4713   17.7943 H   0  0  0  0  0  0
  -27.5875  -14.2170   19.4499 H   0  0  0  0  0  0
  -28.7162  -12.2037   21.4564 H   0  0  0  0  0  0
  -28.4586  -13.9131   21.7325 H   0  0  0  0  0  0
  -25.2730   -9.5666   22.4748 H   0  0  0  0  0  0
  -23.9986   -7.4592   22.7448 H   0  0  0  0  0  0
  -21.0802   -8.8732   19.8931 H   0  0  0  0  0  0
  -22.3632  -10.9660   19.6173 H   0  0  0  0  0  0
  -21.1998   -7.6122   23.9692 H   0  0  0  0  0  0
  -21.1493   -6.0501   25.9062 H   0  0  0  0  0  0
  -22.0610   -2.7589   23.2833 H   0  0  0  0  0  0
  -22.4078  -11.9928   22.4860 H   0  0  0  0  0  0
  -21.1056  -13.1247   22.2635 H   0  0  0  0  0  0
  -24.6738  -15.8509   20.5375 H   0  0  0  0  0  0
  -26.3018  -15.6248   20.1421 H   0  0  0  0  0  0
  -26.7184  -32.5413   23.1112 H   0  0  0  0  0  0
  -24.9991  -33.9728   25.0347 H   0  0  0  0  0  0
  -22.7061  -31.3078   21.4131 H   0  0  0  0  0  0
  -23.3752  -35.9635   23.3222 H   0  0  0  0  0  0
  -24.3599  -36.9009   22.2060 H   0  0  0  0  0  0
  -23.7227  -37.6481   23.6707 H   0  0  0  0  0  0
  -26.0974  -31.5654   20.6146 H   0  0  0  0  0  0
  -26.8293  -30.8292   22.0117 H   0  0  0  0  0  0
  -28.1077  -29.0124   21.1584 H   0  0  0  0  0  0
  -25.9604  -25.9217   19.0313 H   0  0  0  0  0  0
  -23.9497  -27.2956   19.0439 H   0  0  0  0  0  0
  -23.7391  -30.6027   19.4091 H   0  0  0  0  0  0
  -22.7383  -29.2573   19.8620 H   0  0  0  0  0  0
  -25.1282  -36.1906   25.0807 H   0  0  0  0  0  0
  -20.9987  -28.3253   24.1435 H   0  0  0  0  0  0
  -20.5734  -26.2289   23.3626 H   0  0  0  0  0  0
  -21.6639  -26.7464   22.1191 H   0  0  0  0  0  0
  -19.6888  -25.6310   21.1254 H   0  0  0  0  0  0
  -19.6656  -27.3227   20.6796 H   0  0  0  0  0  0
  -17.4202  -26.6716   21.4042 H   0  0  0  0  0  0
  -18.0276  -26.0085   22.9046 H   0  0  0  0  0  0
  -19.7939  -30.7330   24.2198 H   0  0  0  0  0  0
  -17.5004  -31.6257   24.5203 H   0  0  0  0  0  0
  -15.5349  -30.2971   23.7681 H   0  0  0  0  0  0
  -15.8692  -28.0866   22.6982 H   0  0  0  0  0  0
  -24.5785  -30.7230   25.7858 H   0  0  0  0  0  0
  -24.8946  -32.3037   26.4902 H   0  0  0  0  0  0
  -25.7974  -30.9006   27.0280 H   0  0  0  0  0  0
  -26.2879  -29.6799   24.1165 H   0  0  0  0  0  0
  -27.3757  -29.7206   25.4837 H   0  0  0  0  0  0
  -27.8846  -30.4210   23.9642 H   0  0  0  0  0  0
  -27.2510  -33.3625   26.2147 H   0  0  0  0  0  0
  -28.3768  -32.7021   25.0379 H   0  0  0  0  0  0
  -28.0671  -31.8503   26.5445 H   0  0  0  0  0  0
  -28.2524  -38.0167   24.7589 H   0  0  0  0  0  0
  -28.1168  -36.2709   24.6092 H   0  0  0  0  0  0
  -27.2347  -37.1245   25.8838 H   0  0  0  0  0  0
  -20.9370  -29.8742   21.6905 H   0  0  0  0  0  0
  -26.0128  -38.2851   24.1495 H   0  0  0  0  0  0
  -31.0078  -22.8386   22.0168 H   0  0  0  0  0  0
  -28.3974  -22.2764   18.6518 H   0  0  0  0  0  0
  -28.6360  -16.6961   18.7295 H   0  0  0  0  0  0
  -29.1228  -15.0832   18.3331 H   0  0  0  0  0  0
  -30.2619  -16.3581   18.1337 H   0  0  0  0  0  0
  -30.3024  -24.6314   19.4183 H   0  0  0  0  0  0
  -30.0223  -24.7775   21.1208 H   0  0  0  0  0  0
  -31.7188  -18.7378   19.8777 H   0  0  0  0  0  0
  -30.3416  -18.4337   18.9138 H   0  0  0  0  0  0
  -29.2687  -17.4659   20.6311 H   0  0  0  0  0  0
  -31.2041  -16.9678   20.1996 H   0  0  0  0  0  0
  -27.4850  -24.7237   20.5991 H   0  0  0  0  0  0
  -27.9323  -24.8868   18.9056 H   0  0  0  0  0  0
  1 25  1  0  0  0
  1 30  2  0  0  0
  1 83  1  0  0  0
  2  3  1  0  0  0
  2 25  1  0  0  0
  2 87  1  0  0  0
  2 88  1  0  0  0
  3  4  1  0  0  0
  3 89  1  0  0  0
  3 90  1  0  0  0
  4  5  1  0  0  0
  4 91  1  0  0  0
  4 92  1  0  0  0
  5  6  1  0  0  0
  5 26  1  0  0  0
  5 93  1  0  0  0
  6 25  1  0  0  0
  6 94  1  0  0  0
  6 95  1  0  0  0
  7  8  2  0  0  0
  7 26  1  0  0  0
  7 29  1  0  0  0
  8  9  1  0  0  0
  8 22  1  0  0  0
  9 10  1  0  0  0
  9 27  2  0  0  0
 10 11  2  0  0  0
 10 15  1  0  0  0
 11 12  1  0  0  0
 11 96  1  0  0  0
 12 13  2  0  0  0
 12 97  1  0  0  0
 13 14  1  0  0  0
 13 31  1  0  0  0
 14 15  2  0  0  0
 14 98  1  0  0  0
 15 99  1  0  0  0
 16 17  2  0  0  0
 16 21  1  0  0  0
 16 31  1  0  0  0
 17 18  1  0  0  0
 17100  1  0  0  0
 18 19  2  0  0  0
 18101  1  0  0  0
 19 20  1  0  0  0
 19 24  1  0  0  0
 20 21  2  0  0  0
 20102  1  0  0  0
 21 23  1  0  0  0
 22 28  1  0  0  0
 22 32  2  0  0  0
 26 27  1  0  0  0
 28103  1  0  0  0
 28104  1  0  0  0
 29105  1  0  0  0
 29106  1  0  0  0
 33 34  1  0  0  0
 33 66  1  0  0  0
 33 70  2  0  0  0
 34 36  1  0  0  0
 34 59  1  0  0  0
 34107  1  0  0  0
 35 44  2  0  0  0
 35 45  1  0  0  0
 35 68  1  0  0  0
 36 56  1  0  0  0
 36108  1  0  0  0
 37 39  1  0  0  0
 37 47  1  0  0  0
 37 66  1  0  0  0
 37109  1  0  0  0
 38 43  2  0  0  0
 38 46  1  0  0  0
 38 47  1  0  0  0
 39 64  1  0  0  0
 39 67  2  0  0  0
 40 52  1  0  0  0
 40 53  2  0  0  0
 40 58  1  0  0  0
 41110  1  0  0  0
 41111  1  0  0  0
 41112  1  0  0  0
 41 48  1  0  0  0
 42 43  1  0  0  0
 42 66  1  0  0  0
 42113  1  0  0  0
 42114  1  0  0  0
 43 44  1  0  0  0
 44115  1  0  0  0
 45 46  2  0  0  0
 45116  1  0  0  0
 46117  1  0  0  0
 47118  1  0  0  0
 47119  1  0  0  0
 48 56  1  0  0  0
 48 65  1  0  0  0
 48120  1  0  0  0
 49 50  1  0  0  0
 49 53  1  0  0  0
 49 64  1  0  0  0
 49121  1  0  0  0
 50 51  1  0  0  0
 50122  1  0  0  0
 50123  1  0  0  0
 51 52  1  0  0  0
 51124  1  0  0  0
 51125  1  0  0  0
 52126  1  0  0  0
 52127  1  0  0  0
 53 54  1  0  0  0
 54 55  2  0  0  0
 54128  1  0  0  0
 55 57  1  0  0  0
 55129  1  0  0  0
 56 69  2  0  0  0
 57 58  2  0  0  0
 57130  1  0  0  0
 58131  1  0  0  0
 59 60  1  0  0  0
 59 61  1  0  0  0
 59 62  1  0  0  0
 60132  1  0  0  0
 60133  1  0  0  0
 60134  1  0  0  0
 61135  1  0  0  0
 61136  1  0  0  0
 61137  1  0  0  0
 62138  1  0  0  0
 62139  1  0  0  0
 62140  1  0  0  0
 63 65  1  0  0  0
 63141  1  0  0  0
 63142  1  0  0  0
 63143  1  0  0  0
 64144  1  0  0  0
 65145  1  0  0  0
 68 80  1  0  0  0
 71 73  2  0  0  0
 71 74  1  0  0  0
 71146  1  0  0  0
 72 73  1  0  0  0
 72 82  2  0  0  0
 72147  1  0  0  0
 73 77  1  0  0  0
 74 75  2  0  0  0
 74 81  1  0  0  0
 75 78  1  0  0  0
 75 82  1  0  0  0
 76 83  1  0  0  0
 76148  1  0  0  0
 76149  1  0  0  0
 76150  1  0  0  0
 77 80  1  0  0  0
 77151  1  0  0  0
 77152  1  0  0  0
 78 79  1  0  0  0
 78153  1  0  0  0
 78154  1  0  0  0
 79 83  1  0  0  0
 79155  1  0  0  0
 79156  1  0  0  0
 80157  1  0  0  0
 80158  1  0  0  0
 81 84  1  0  0  0
 81 85  1  0  0  0
 81 86  1  0  0  0
M  ISO  4   1 100  68 101  80 101  83 100
M  END
> <chiral flag>
0

> <version>
0

> <s_m_source_file>
/data/baiqing/PycharmProjects/Reinvent-master-3.2/result/LINK_invent/BTK/process_docking_weight1_custom_sum_contain_oxygen_bond_distance_aromatic_linkinvent_7_9_3/rearranged_h_0056.sdf

> <i_m_source_file_index>
50

> <r_mmod_Potential_Energy-OPLS-2005>
404.075775146484

> <r_mmod_Stretch_Energy-OPLS-2005>
82.7695159912109

> <r_mmod_Bend_Energy-OPLS-2005>
364.942901611328

> <r_mmod_Torsional_Energy-OPLS-2005>
313.070129394531

> <r_mmod_Improper_Torsional_Energy-OPLS-2005>
15.1987495422363

> <r_mmod_Van_der_Waal_Energy-OPLS-2005>
182.448211669922

> <r_mmod_Electrostatic_Energy-OPLS-2005>
-416.730194091797

> <r_mmod_Solvation_Energy-OPLS-2005>
-199.844131469727

> <b_mmod_Minimization_Converged-OPLS-2005>
0

> <r_mmod_RMS_Derivative-OPLS-2005>
2.75876903533936

$$$$
52
                    3D
 Structure written by MMmdl.
150158  0  0  1  0            999 V2000
  -30.6021  -14.8821   20.3995 C   0  0  0  0  0  0
  -30.4212  -12.5362   19.5097 C   0  0  0  0  0  0
  -29.5167  -12.5114   18.2577 C   0  0  0  0  0  0
  -28.0464  -12.3154   18.6678 C   0  0  0  0  0  0
  -27.6242  -13.2545   19.8286 C   0  0  2  0  0  0
  -28.6609  -13.2961   20.9683 C   0  0  0  0  0  0
  -25.2444  -13.8241   20.5710 C   0  0  0  0  0  0
  -24.1767  -13.0449   20.9215 C   0  0  0  0  0  0
  -24.6393  -11.6937   20.8741 C   0  0  0  0  0  0
  -23.9085  -10.4300   21.0399 C   0  0  0  0  0  0
  -24.3633   -9.4215   21.9178 C   0  0  0  0  0  0
  -23.6306   -8.2250   22.0752 C   0  0  0  0  0  0
  -22.4286   -8.0286   21.3545 C   0  0  0  0  0  0
  -21.9923   -9.0259   20.4646 C   0  0  0  0  0  0
  -22.7254  -10.2137   20.3053 C   0  0  0  0  0  0
  -21.6858   -6.0740   22.5281 C   0  0  0  0  0  0
  -21.4018   -6.5644   23.8213 C   0  0  0  0  0  0
  -21.3659   -5.6796   24.9175 C   0  0  0  0  0  0
  -21.6044   -4.3058   24.7226 C   0  0  0  0  0  0
  -21.8818   -3.8150   23.4347 C   0  0  0  0  0  0
  -21.9194   -4.6967   22.3403 C   0  0  0  0  0  0
  -22.7789  -13.5210   21.1885 C   0  0  0  0  0  0
  -22.1662   -4.2152   21.0981 F   0  0  0  0  0  0
  -21.5627   -3.4543   25.7738 F   0  0  0  0  0  0
  -29.9539  -13.6527   20.3792 N   0  0  0  0  0  0
  -26.2859  -12.9485   20.3202 N   0  0  0  0  0  0
  -25.9323  -11.6608   20.5715 N   0  0  0  0  0  0
  -22.0454  -12.8185   22.0441 N   0  0  0  0  0  0
  -25.4130  -15.1973   20.4191 N   0  0  0  0  0  0
  -31.8169  -14.8640   20.1709 O   0  0  0  0  0  0
  -21.6648   -6.8883   21.4242 O   0  0  0  0  0  0
  -22.3463  -14.5513   20.6737 O   0  0  0  0  0  0
  -24.6399  -31.8475   23.1911 C   0  0  0  0  0  0
  -25.9189  -32.4711   23.8287 C   0  0  1  0  0  0
  -27.2106  -27.1711   20.1540 C   0  0  0  0  0  0
  -25.5949  -33.8516   24.2206 N   0  0  0  0  0  0
  -23.4409  -30.4680   21.5361 C   0  0  2  0  0  0
  -24.8884  -28.8977   20.1133 C   0  0  0  0  0  0
  -22.7546  -29.4567   22.4878 C   0  0  0  0  0  0
  -18.0302  -28.1392   22.8482 C   0  0  0  0  0  0
  -24.1491  -36.7264   23.2642 C   0  0  0  0  0  0
  -25.9936  -30.7331   21.3835 C   0  0  0  0  0  0
  -26.0651  -29.3464   20.7279 C   0  0  0  0  0  0
  -27.2314  -28.4996   20.7285 C   0  0  0  0  0  0
  -26.0133  -26.8146   19.4991 C   0  0  0  0  0  0
  -24.8727  -27.6439   19.4833 C   0  0  0  0  0  0
  -23.6648  -29.7973   20.1551 C   0  0  0  0  0  0
  -25.4123  -36.3040   24.0318 C   0  0  1  0  0  0
  -20.5911  -28.3717   23.1251 C   0  0  2  0  0  0
  -20.6788  -26.9419   22.5422 C   0  0  0  0  0  0
  -19.5767  -26.6375   21.5223 C   0  0  0  0  0  0
  -18.1943  -26.7931   22.1626 C   0  0  0  0  0  0
  -19.1557  -28.8872   23.2859 C   0  0  0  0  0  0
  -18.9472  -30.1472   23.8877 C   0  0  0  0  0  0
  -17.6469  -30.6593   24.0555 C   0  0  0  0  0  0
  -25.9072  -34.9415   23.5069 C   0  0  0  0  0  0
  -16.5360  -29.9083   23.6333 C   0  0  0  0  0  0
  -16.7286  -28.6501   23.0357 C   0  0  0  0  0  0
  -26.4522  -31.6568   25.0715 C   0  0  0  0  0  0
  -25.3716  -31.3748   26.1415 C   0  0  0  0  0  0
  -27.0386  -30.2969   24.6269 C   0  0  0  0  0  0
  -27.6052  -32.4331   25.7501 C   0  0  0  0  0  0
  -27.5577  -37.1788   24.8465 C   0  0  0  0  0  0
  -21.4243  -29.3046   22.3622 N   0  0  0  0  0  0
  -26.4287  -37.3752   23.9407 N   0  0  0  0  0  0
  -24.7110  -31.0367   22.0923 N   0  0  0  0  0  0
  -23.4207  -28.8119   23.3019 O   0  0  0  0  0  0
  -28.2740  -26.2131   20.1756 O   0  0  0  0  0  0
  -26.5653  -34.8909   22.4646 O   0  0  0  0  0  0
  -23.5528  -32.1332   23.7158 O   0  0  0  0  0  0
  -29.8981  -17.0831   19.1416 C   0  0  0  0  0  0
  -29.9288  -16.3360   20.3643 C   0  0  0  0  0  0
  -29.3553  -18.4841   21.3636 C   0  0  0  0  0  0
  -29.3630  -19.2206   20.1195 C   0  0  0  0  0  0
  -29.0821  -19.1961   22.6710 C   0  0  0  0  0  0
  -28.7966  -23.3869   19.9671 C   0  0  0  0  0  0
  -28.0196  -24.7380   20.5617 C   0  0  0  0  0  0
  -28.6816  -21.8311   20.5833 C   0  0  0  0  0  0
  -29.6306  -18.4398   19.0250 N   0  0  0  0  0  0
  -29.6404  -17.1124   21.4766 N   0  0  0  0  0  0
  -29.2162  -20.6383   19.8008 O   0  0  0  0  0  0
  -31.4642  -12.6457   19.2089 H   0  0  0  0  0  0
  -30.3676  -11.5867   20.0450 H   0  0  0  0  0  0
  -29.8261  -11.7131   17.5821 H   0  0  0  0  0  0
  -29.6254  -13.4444   17.7024 H   0  0  0  0  0  0
  -27.9315  -11.2754   18.9755 H   0  0  0  0  0  0
  -27.3884  -12.4520   17.8088 H   0  0  0  0  0  0
  -27.5857  -14.2546   19.3959 H   0  0  0  0  0  0
  -28.7205  -12.3364   21.4839 H   0  0  0  0  0  0
  -28.3735  -14.0364   21.7168 H   0  0  0  0  0  0
  -25.2775   -9.5696   22.4756 H   0  0  0  0  0  0
  -24.0016   -7.4643   22.7474 H   0  0  0  0  0  0
  -21.0854   -8.8778   19.8953 H   0  0  0  0  0  0
  -22.3708  -10.9675   19.6165 H   0  0  0  0  0  0
  -21.2012   -7.6153   23.9718 H   0  0  0  0  0  0
  -21.1482   -6.0527   25.9077 H   0  0  0  0  0  0
  -22.0596   -2.7613   23.2847 H   0  0  0  0  0  0
  -22.4091  -11.9848   22.4820 H   0  0  0  0  0  0
  -21.1070  -13.1191   22.2658 H   0  0  0  0  0  0
  -24.6508  -15.8535   20.5513 H   0  0  0  0  0  0
  -26.2756  -15.6448   20.1365 H   0  0  0  0  0  0
  -26.7253  -32.5324   23.1018 H   0  0  0  0  0  0
  -25.0069  -33.9635   25.0333 H   0  0  0  0  0  0
  -22.7417  -31.2927   21.3837 H   0  0  0  0  0  0
  -23.3755  -35.9595   23.3292 H   0  0  0  0  0  0
  -24.3579  -36.8907   22.2059 H   0  0  0  0  0  0
  -23.7244  -37.6457   23.6685 H   0  0  0  0  0  0
  -26.1436  -31.4881   20.6105 H   0  0  0  0  0  0
  -26.8667  -30.7837   22.0225 H   0  0  0  0  0  0
  -28.1324  -28.8400   21.2196 H   0  0  0  0  0  0
  -25.9437  -25.8583   19.0009 H   0  0  0  0  0  0
  -23.9756  -27.2980   18.9882 H   0  0  0  0  0  0
  -23.8000  -30.5712   19.3988 H   0  0  0  0  0  0
  -22.7799  -29.2382   19.8457 H   0  0  0  0  0  0
  -25.1310  -36.1872   25.0810 H   0  0  0  0  0  0
  -21.0002  -28.3312   24.1374 H   0  0  0  0  0  0
  -20.5671  -26.2328   23.3640 H   0  0  0  0  0  0
  -21.6658  -26.7429   22.1227 H   0  0  0  0  0  0
  -19.6928  -25.6277   21.1274 H   0  0  0  0  0  0
  -19.6712  -27.3172   20.6744 H   0  0  0  0  0  0
  -17.4217  -26.6676   21.4023 H   0  0  0  0  0  0
  -18.0336  -26.0076   22.9023 H   0  0  0  0  0  0
  -19.7946  -30.7301   24.2230 H   0  0  0  0  0  0
  -17.5022  -31.6275   24.5150 H   0  0  0  0  0  0
  -15.5357  -30.2977   23.7665 H   0  0  0  0  0  0
  -15.8690  -28.0809   22.7082 H   0  0  0  0  0  0
  -24.5903  -30.7087   25.7739 H   0  0  0  0  0  0
  -24.8898  -32.2927   26.4791 H   0  0  0  0  0  0
  -25.8008  -30.8956   27.0223 H   0  0  0  0  0  0
  -26.2994  -29.6694   24.1274 H   0  0  0  0  0  0
  -27.4011  -29.7263   25.4829 H   0  0  0  0  0  0
  -27.8896  -30.4216   23.9570 H   0  0  0  0  0  0
  -27.2642  -33.3645   26.2033 H   0  0  0  0  0  0
  -28.3889  -32.6868   25.0351 H   0  0  0  0  0  0
  -28.0691  -31.8486   26.5457 H   0  0  0  0  0  0
  -28.2586  -38.0091   24.7511 H   0  0  0  0  0  0
  -28.1079  -36.2619   24.6293 H   0  0  0  0  0  0
  -27.2293  -37.1437   25.8868 H   0  0  0  0  0  0
  -20.9442  -29.8760   21.6810 H   0  0  0  0  0  0
  -26.0154  -38.2820   24.1409 H   0  0  0  0  0  0
  -30.1714  -16.5915   18.2188 H   0  0  0  0  0  0
  -28.1385  -19.7389   22.6167 H   0  0  0  0  0  0
  -29.8795  -19.9075   22.8848 H   0  0  0  0  0  0
  -29.0189  -18.4963   23.5044 H   0  0  0  0  0  0
  -29.8598  -23.6257   19.9475 H   0  0  0  0  0  0
  -28.5134  -23.3216   18.9165 H   0  0  0  0  0  0
  -28.1930  -24.7225   21.6377 H   0  0  0  0  0  0
  -26.9534  -24.5338   20.4745 H   0  0  0  0  0  0
  -27.6275  -21.6243   20.7683 H   0  0  0  0  0  0
  -29.1566  -21.8277   21.5635 H   0  0  0  0  0  0
  1 25  1  0  0  0
  1 30  2  0  0  0
  1 72  1  0  0  0
  2  3  1  0  0  0
  2 25  1  0  0  0
  2 82  1  0  0  0
  2 83  1  0  0  0
  3  4  1  0  0  0
  3 84  1  0  0  0
  3 85  1  0  0  0
  4  5  1  0  0  0
  4 86  1  0  0  0
  4 87  1  0  0  0
  5  6  1  0  0  0
  5 26  1  0  0  0
  5 88  1  0  0  0
  6 25  1  0  0  0
  6 89  1  0  0  0
  6 90  1  0  0  0
  7  8  2  0  0  0
  7 26  1  0  0  0
  7 29  1  0  0  0
  8  9  1  0  0  0
  8 22  1  0  0  0
  9 10  1  0  0  0
  9 27  2  0  0  0
 10 11  2  0  0  0
 10 15  1  0  0  0
 11 12  1  0  0  0
 11 91  1  0  0  0
 12 13  2  0  0  0
 12 92  1  0  0  0
 13 14  1  0  0  0
 13 31  1  0  0  0
 14 15  2  0  0  0
 14 93  1  0  0  0
 15 94  1  0  0  0
 16 17  2  0  0  0
 16 21  1  0  0  0
 16 31  1  0  0  0
 17 18  1  0  0  0
 17 95  1  0  0  0
 18 19  2  0  0  0
 18 96  1  0  0  0
 19 20  1  0  0  0
 19 24  1  0  0  0
 20 21  2  0  0  0
 20 97  1  0  0  0
 21 23  1  0  0  0
 22 28  1  0  0  0
 22 32  2  0  0  0
 26 27  1  0  0  0
 28 98  1  0  0  0
 28 99  1  0  0  0
 29100  1  0  0  0
 29101  1  0  0  0
 33 34  1  0  0  0
 33 66  1  0  0  0
 33 70  2  0  0  0
 34 36  1  0  0  0
 34 59  1  0  0  0
 34102  1  0  0  0
 35 44  2  0  0  0
 35 45  1  0  0  0
 35 68  1  0  0  0
 36 56  1  0  0  0
 36103  1  0  0  0
 37 39  1  0  0  0
 37 47  1  0  0  0
 37 66  1  0  0  0
 37104  1  0  0  0
 38 43  2  0  0  0
 38 46  1  0  0  0
 38 47  1  0  0  0
 39 64  1  0  0  0
 39 67  2  0  0  0
 40 52  1  0  0  0
 40 53  2  0  0  0
 40 58  1  0  0  0
 41105  1  0  0  0
 41106  1  0  0  0
 41107  1  0  0  0
 41 48  1  0  0  0
 42 43  1  0  0  0
 42 66  1  0  0  0
 42108  1  0  0  0
 42109  1  0  0  0
 43 44  1  0  0  0
 44110  1  0  0  0
 45 46  2  0  0  0
 45111  1  0  0  0
 46112  1  0  0  0
 47113  1  0  0  0
 47114  1  0  0  0
 48 56  1  0  0  0
 48 65  1  0  0  0
 48115  1  0  0  0
 49 50  1  0  0  0
 49 53  1  0  0  0
 49 64  1  0  0  0
 49116  1  0  0  0
 50 51  1  0  0  0
 50117  1  0  0  0
 50118  1  0  0  0
 51 52  1  0  0  0
 51119  1  0  0  0
 51120  1  0  0  0
 52121  1  0  0  0
 52122  1  0  0  0
 53 54  1  0  0  0
 54 55  2  0  0  0
 54123  1  0  0  0
 55 57  1  0  0  0
 55124  1  0  0  0
 56 69  2  0  0  0
 57 58  2  0  0  0
 57125  1  0  0  0
 58126  1  0  0  0
 59 60  1  0  0  0
 59 61  1  0  0  0
 59 62  1  0  0  0
 60127  1  0  0  0
 60128  1  0  0  0
 60129  1  0  0  0
 61130  1  0  0  0
 61131  1  0  0  0
 61132  1  0  0  0
 62133  1  0  0  0
 62134  1  0  0  0
 62135  1  0  0  0
 63 65  1  0  0  0
 63136  1  0  0  0
 63137  1  0  0  0
 63138  1  0  0  0
 64139  1  0  0  0
 65140  1  0  0  0
 68 77  1  0  0  0
 71 72  2  0  0  0
 71 79  1  0  0  0
 71141  1  0  0  0
 72 80  1  0  0  0
 73 74  1  0  0  0
 73 75  1  0  0  0
 73 80  2  0  0  0
 74 79  2  0  0  0
 74 81  1  0  0  0
 75142  1  0  0  0
 75143  1  0  0  0
 75144  1  0  0  0
 76 77  1  0  0  0
 76 78  1  0  0  0
 76145  1  0  0  0
 76146  1  0  0  0
 77147  1  0  0  0
 77148  1  0  0  0
 78 81  1  0  0  0
 78149  1  0  0  0
 78150  1  0  0  0
M  ISO  4   1 100  68 101  72 100  77 101
M  END
> <chiral flag>
0

> <version>
0

> <s_m_source_file>
/data/baiqing/PycharmProjects/Reinvent-master-3.2/result/LINK_invent/BTK/process_docking_weight1_custom_sum_contain_oxygen_bond_distance_aromatic_linkinvent_7_9_3/rearranged_h_0056.sdf

> <i_m_source_file_index>
51

> <r_mmod_Potential_Energy-OPLS-2005>
596.928039550781

> <r_mmod_Stretch_Energy-OPLS-2005>
208.011535644531

> <r_mmod_Bend_Energy-OPLS-2005>
268.628845214844

> <r_mmod_Torsional_Energy-OPLS-2005>
235.268768310547

> <r_mmod_Improper_Torsional_Energy-OPLS-2005>
9.53386211395264

> <r_mmod_Van_der_Waal_Energy-OPLS-2005>
130.002944946289

> <r_mmod_Electrostatic_Energy-OPLS-2005>
-201.766082763672

> <r_mmod_Solvation_Energy-OPLS-2005>
-208.69905090332

> <b_mmod_Minimization_Converged-OPLS-2005>
0

> <r_mmod_RMS_Derivative-OPLS-2005>
0.565248787403107

$$$$
53
                    3D
 Structure written by MMmdl.
168176  0  0  1  0            999 V2000
  -30.6859  -14.5370   20.6013 C   0  0  0  0  0  0
  -30.4333  -12.3574   19.4348 C   0  0  0  0  0  0
  -29.5003  -12.5159   18.2151 C   0  0  0  0  0  0
  -28.0238  -12.3600   18.6276 C   0  0  0  0  0  0
  -27.6610  -13.2095   19.8733 C   0  0  2  0  0  0
  -28.7003  -13.0085   20.9966 C   0  0  0  0  0  0
  -25.2588  -13.8159   20.5686 C   0  0  0  0  0  0
  -24.1836  -13.0435   20.9172 C   0  0  0  0  0  0
  -24.6395  -11.6904   20.8724 C   0  0  0  0  0  0
  -23.9057  -10.4292   21.0393 C   0  0  0  0  0  0
  -24.3608   -9.4211   21.9177 C   0  0  0  0  0  0
  -23.6287   -8.2244   22.0752 C   0  0  0  0  0  0
  -22.4269   -8.0280   21.3542 C   0  0  0  0  0  0
  -21.9900   -9.0249   20.4643 C   0  0  0  0  0  0
  -22.7223  -10.2133   20.3049 C   0  0  0  0  0  0
  -21.6854   -6.0732   22.5272 C   0  0  0  0  0  0
  -21.4013   -6.5635   23.8207 C   0  0  0  0  0  0
  -21.3660   -5.6789   24.9168 C   0  0  0  0  0  0
  -21.6047   -4.3051   24.7222 C   0  0  0  0  0  0
  -21.8820   -3.8144   23.4342 C   0  0  0  0  0  0
  -21.9194   -4.6958   22.3399 C   0  0  0  0  0  0
  -22.7862  -13.5235   21.1844 C   0  0  0  0  0  0
  -22.1663   -4.2145   21.0978 F   0  0  0  0  0  0
  -21.5631   -3.4538   25.7733 F   0  0  0  0  0  0
  -30.0291  -13.3444   20.4543 N   0  0  0  0  0  0
  -26.3023  -12.9334   20.3350 N   0  0  0  0  0  0
  -25.9325  -11.6492   20.5754 N   0  0  0  0  0  0
  -22.0508  -12.8230   22.0404 N   0  0  0  0  0  0
  -25.4320  -15.1879   20.4120 N   0  0  0  0  0  0
  -31.7631  -14.7616   20.0402 O   0  0  0  0  0  0
  -21.6638   -6.8872   21.4237 O   0  0  0  0  0  0
  -22.3546  -14.5542   20.6695 O   0  0  0  0  0  0
  -24.6213  -31.8627   23.2053 C   0  0  0  0  0  0
  -25.9080  -32.4796   23.8367 C   0  0  1  0  0  0
  -27.2280  -27.3720   20.1161 C   0  0  0  0  0  0
  -25.5904  -33.8596   24.2283 N   0  0  0  0  0  0
  -23.4124  -30.4855   21.5477 C   0  0  2  0  0  0
  -24.8600  -28.9454   20.1123 C   0  0  0  0  0  0
  -22.7450  -29.4632   22.4965 C   0  0  0  0  0  0
  -18.0276  -28.1369   22.8488 C   0  0  0  0  0  0
  -24.1490  -36.7313   23.2639 C   0  0  0  0  0  0
  -25.9475  -30.8110   21.3678 C   0  0  0  0  0  0
  -26.0249  -29.4414   20.7131 C   0  0  0  0  0  0
  -27.2156  -28.6661   20.7042 C   0  0  0  0  0  0
  -26.0469  -26.9104   19.4975 C   0  0  0  0  0  0
  -24.8700  -27.6826   19.4958 C   0  0  0  0  0  0
  -23.6238  -29.8183   20.1626 C   0  0  0  0  0  0
  -25.4116  -36.3096   24.0320 C   0  0  1  0  0  0
  -20.5875  -28.3669   23.1293 C   0  0  2  0  0  0
  -20.6773  -26.9400   22.5407 C   0  0  0  0  0  0
  -19.5748  -26.6375   21.5210 C   0  0  0  0  0  0
  -18.1925  -26.7915   22.1617 C   0  0  0  0  0  0
  -19.1528  -28.8834   23.2886 C   0  0  0  0  0  0
  -18.9456  -30.1438   23.8901 C   0  0  0  0  0  0
  -17.6458  -30.6580   24.0558 C   0  0  0  0  0  0
  -25.9043  -34.9461   23.5101 C   0  0  0  0  0  0
  -16.5346  -29.9075   23.6329 C   0  0  0  0  0  0
  -16.7263  -28.6487   23.0353 C   0  0  0  0  0  0
  -26.4481  -31.6596   25.0723 C   0  0  0  0  0  0
  -25.3734  -31.3720   26.1463 C   0  0  0  0  0  0
  -27.0310  -30.3026   24.6143 C   0  0  0  0  0  0
  -27.6039  -32.4334   25.7494 C   0  0  0  0  0  0
  -27.5585  -37.1812   24.8460 C   0  0  0  0  0  0
  -21.4168  -29.3032   22.3699 N   0  0  0  0  0  0
  -26.4299  -37.3783   23.9402 N   0  0  0  0  0  0
  -24.6790  -31.0679   22.0982 N   0  0  0  0  0  0
  -23.4203  -28.8175   23.3024 O   0  0  0  0  0  0
  -28.3548  -26.5576   20.1260 O   0  0  0  0  0  0
  -26.5620  -34.8918   22.4673 O   0  0  0  0  0  0
  -23.5387  -32.1397   23.7409 O   0  0  0  0  0  0
  -29.8114  -21.2116   18.9513 C   0  0  0  0  0  0
  -30.3253  -19.9369   18.8643 C   0  0  0  0  0  0
  -30.1160  -19.3907   20.1795 C   0  0  0  0  0  0
  -30.6423  -20.1121   16.3620 C   0  0  0  0  0  0
  -30.5824  -17.8625   17.4085 C   0  0  0  0  0  0
  -32.5326  -19.3859   17.8308 C   0  0  0  0  0  0
  -30.0358  -15.5327   22.7283 C   0  0  0  0  0  0
  -30.5755  -18.0345   20.7648 C   0  0  0  0  0  0
  -28.8927  -24.0140   20.0498 C   0  0  0  0  0  0
  -28.7089  -22.6432   20.8095 C   0  0  0  0  0  0
  -29.5779  -16.8273   20.6603 C   0  0  0  0  0  0
  -28.1868  -25.2391   20.7368 C   0  0  0  0  0  0
  -31.0071  -19.3245   17.6395 C   0  0  0  0  0  0
  -29.5064  -20.2938   20.9660 N   0  0  0  0  0  0
  -29.3499  -21.4346   20.2289 N   0  0  0  0  0  0
  -30.0212  -15.5304   21.2632 N   0  0  0  0  0  0
  -31.4744  -12.4774   19.1303 H   0  0  0  0  0  0
  -30.3619  -11.3488   19.8448 H   0  0  0  0  0  0
  -29.7518  -11.7779   17.4521 H   0  0  0  0  0  0
  -29.6529  -13.4939   17.7560 H   0  0  0  0  0  0
  -27.8495  -11.3039   18.8390 H   0  0  0  0  0  0
  -27.3684  -12.6135   17.7937 H   0  0  0  0  0  0
  -27.7003  -14.2553   19.5679 H   0  0  0  0  0  0
  -28.6959  -11.9732   21.3397 H   0  0  0  0  0  0
  -28.4277  -13.6038   21.8669 H   0  0  0  0  0  0
  -25.2754   -9.5690   22.4748 H   0  0  0  0  0  0
  -23.9996   -7.4637   22.7472 H   0  0  0  0  0  0
  -21.0829   -8.8764   19.8949 H   0  0  0  0  0  0
  -22.3675  -10.9670   19.6157 H   0  0  0  0  0  0
  -21.2003   -7.6143   23.9705 H   0  0  0  0  0  0
  -21.1484   -6.0521   25.9072 H   0  0  0  0  0  0
  -22.0602   -2.7605   23.2842 H   0  0  0  0  0  0
  -22.4126  -11.9891   22.4789 H   0  0  0  0  0  0
  -21.1129  -13.1254   22.2617 H   0  0  0  0  0  0
  -24.6711  -15.8476   20.5311 H   0  0  0  0  0  0
  -26.2956  -15.6272   20.1189 H   0  0  0  0  0  0
  -26.7160  -32.5488   23.1134 H   0  0  0  0  0  0
  -25.0053  -33.9747   25.0427 H   0  0  0  0  0  0
  -22.7035  -31.3038   21.4067 H   0  0  0  0  0  0
  -23.3738  -35.9660   23.3300 H   0  0  0  0  0  0
  -24.3588  -36.8943   22.2057 H   0  0  0  0  0  0
  -23.7253  -37.6518   23.6662 H   0  0  0  0  0  0
  -26.0698  -31.5765   20.6001 H   0  0  0  0  0  0
  -26.8312  -30.8629   21.9916 H   0  0  0  0  0  0
  -28.1139  -29.0435   21.1730 H   0  0  0  0  0  0
  -26.0333  -25.9393   19.0220 H   0  0  0  0  0  0
  -23.9784  -27.2957   19.0225 H   0  0  0  0  0  0
  -23.7356  -30.5935   19.4039 H   0  0  0  0  0  0
  -22.7457  -29.2420   19.8650 H   0  0  0  0  0  0
  -25.1296  -36.1957   25.0811 H   0  0  0  0  0  0
  -20.9960  -28.3244   24.1413 H   0  0  0  0  0  0
  -20.5670  -26.2283   23.3600 H   0  0  0  0  0  0
  -21.6647  -26.7431   22.1203 H   0  0  0  0  0  0
  -19.6910  -25.6285   21.1238 H   0  0  0  0  0  0
  -19.6685  -27.3186   20.6743 H   0  0  0  0  0  0
  -17.4195  -26.6655   21.4017 H   0  0  0  0  0  0
  -18.0321  -26.0048   22.9004 H   0  0  0  0  0  0
  -19.7936  -30.7247   24.2274 H   0  0  0  0  0  0
  -17.5015  -31.6260   24.5161 H   0  0  0  0  0  0
  -15.5351  -30.2978   23.7648 H   0  0  0  0  0  0
  -15.8661  -28.0805   22.7074 H   0  0  0  0  0  0
  -24.5893  -30.7088   25.7795 H   0  0  0  0  0  0
  -24.8943  -32.2881   26.4920 H   0  0  0  0  0  0
  -25.8080  -30.8875   27.0215 H   0  0  0  0  0  0
  -26.2863  -29.6793   24.1181 H   0  0  0  0  0  0
  -27.4037  -29.7267   25.4621 H   0  0  0  0  0  0
  -27.8718  -30.4312   23.9324 H   0  0  0  0  0  0
  -27.2638  -33.3624   26.2077 H   0  0  0  0  0  0
  -28.3847  -32.6920   25.0332 H   0  0  0  0  0  0
  -28.0707  -31.8465   26.5411 H   0  0  0  0  0  0
  -28.2594  -38.0116   24.7514 H   0  0  0  0  0  0
  -28.1088  -36.2649   24.6276 H   0  0  0  0  0  0
  -27.2305  -37.1447   25.8863 H   0  0  0  0  0  0
  -20.9337  -29.8760   21.6920 H   0  0  0  0  0  0
  -26.0181  -38.2858   24.1401 H   0  0  0  0  0  0
  -29.7598  -21.9937   18.2069 H   0  0  0  0  0  0
  -29.5649  -20.1185   16.1898 H   0  0  0  0  0  0
  -31.1053  -19.6729   15.4771 H   0  0  0  0  0  0
  -30.9784  -21.1486   16.4066 H   0  0  0  0  0  0
  -29.4971  -17.7635   17.3618 H   0  0  0  0  0  0
  -30.9571  -17.1923   18.1788 H   0  0  0  0  0  0
  -30.9815  -17.4843   16.4664 H   0  0  0  0  0  0
  -32.8744  -20.4136   17.9628 H   0  0  0  0  0  0
  -33.0589  -18.9738   16.9687 H   0  0  0  0  0  0
  -32.8562  -18.8218   18.7056 H   0  0  0  0  0  0
  -29.0992  -15.9210   23.1286 H   0  0  0  0  0  0
  -30.8489  -16.1573   23.1002 H   0  0  0  0  0  0
  -30.1804  -14.5334   23.1443 H   0  0  0  0  0  0
  -30.8200  -18.1837   21.8167 H   0  0  0  0  0  0
  -31.5234  -17.7482   20.3114 H   0  0  0  0  0  0
  -28.5058  -23.9152   19.0356 H   0  0  0  0  0  0
  -29.9572  -24.2275   19.9541 H   0  0  0  0  0  0
  -27.6433  -22.4314   20.9040 H   0  0  0  0  0  0
  -29.0810  -22.7556   21.8290 H   0  0  0  0  0  0
  -29.3152  -16.6498   19.6184 H   0  0  0  0  0  0
  -28.6391  -17.1158   21.1338 H   0  0  0  0  0  0
  -28.5761  -25.3244   21.7515 H   0  0  0  0  0  0
  -27.1331  -24.9894   20.8676 H   0  0  0  0  0  0
  1 25  1  0  0  0
  1 30  2  0  0  0
  1 86  1  0  0  0
  2  3  1  0  0  0
  2 25  1  0  0  0
  2 87  1  0  0  0
  2 88  1  0  0  0
  3  4  1  0  0  0
  3 89  1  0  0  0
  3 90  1  0  0  0
  4  5  1  0  0  0
  4 91  1  0  0  0
  4 92  1  0  0  0
  5  6  1  0  0  0
  5 26  1  0  0  0
  5 93  1  0  0  0
  6 25  1  0  0  0
  6 94  1  0  0  0
  6 95  1  0  0  0
  7  8  2  0  0  0
  7 26  1  0  0  0
  7 29  1  0  0  0
  8  9  1  0  0  0
  8 22  1  0  0  0
  9 10  1  0  0  0
  9 27  2  0  0  0
 10 11  2  0  0  0
 10 15  1  0  0  0
 11 12  1  0  0  0
 11 96  1  0  0  0
 12 13  2  0  0  0
 12 97  1  0  0  0
 13 14  1  0  0  0
 13 31  1  0  0  0
 14 15  2  0  0  0
 14 98  1  0  0  0
 15 99  1  0  0  0
 16 17  2  0  0  0
 16 21  1  0  0  0
 16 31  1  0  0  0
 17 18  1  0  0  0
 17100  1  0  0  0
 18 19  2  0  0  0
 18101  1  0  0  0
 19 20  1  0  0  0
 19 24  1  0  0  0
 20 21  2  0  0  0
 20102  1  0  0  0
 21 23  1  0  0  0
 22 28  1  0  0  0
 22 32  2  0  0  0
 26 27  1  0  0  0
 28103  1  0  0  0
 28104  1  0  0  0
 29105  1  0  0  0
 29106  1  0  0  0
 33 34  1  0  0  0
 33 66  1  0  0  0
 33 70  2  0  0  0
 34 36  1  0  0  0
 34 59  1  0  0  0
 34107  1  0  0  0
 35 44  2  0  0  0
 35 45  1  0  0  0
 35 68  1  0  0  0
 36 56  1  0  0  0
 36108  1  0  0  0
 37 39  1  0  0  0
 37 47  1  0  0  0
 37 66  1  0  0  0
 37109  1  0  0  0
 38 43  2  0  0  0
 38 46  1  0  0  0
 38 47  1  0  0  0
 39 64  1  0  0  0
 39 67  2  0  0  0
 40 52  1  0  0  0
 40 53  2  0  0  0
 40 58  1  0  0  0
 41110  1  0  0  0
 41111  1  0  0  0
 41112  1  0  0  0
 41 48  1  0  0  0
 42 43  1  0  0  0
 42 66  1  0  0  0
 42113  1  0  0  0
 42114  1  0  0  0
 43 44  1  0  0  0
 44115  1  0  0  0
 45 46  2  0  0  0
 45116  1  0  0  0
 46117  1  0  0  0
 47118  1  0  0  0
 47119  1  0  0  0
 48 56  1  0  0  0
 48 65  1  0  0  0
 48120  1  0  0  0
 49 50  1  0  0  0
 49 53  1  0  0  0
 49 64  1  0  0  0
 49121  1  0  0  0
 50 51  1  0  0  0
 50122  1  0  0  0
 50123  1  0  0  0
 51 52  1  0  0  0
 51124  1  0  0  0
 51125  1  0  0  0
 52126  1  0  0  0
 52127  1  0  0  0
 53 54  1  0  0  0
 54 55  2  0  0  0
 54128  1  0  0  0
 55 57  1  0  0  0
 55129  1  0  0  0
 56 69  2  0  0  0
 57 58  2  0  0  0
 57130  1  0  0  0
 58131  1  0  0  0
 59 60  1  0  0  0
 59 61  1  0  0  0
 59 62  1  0  0  0
 60132  1  0  0  0
 60133  1  0  0  0
 60134  1  0  0  0
 61135  1  0  0  0
 61136  1  0  0  0
 61137  1  0  0  0
 62138  1  0  0  0
 62139  1  0  0  0
 62140  1  0  0  0
 63 65  1  0  0  0
 63141  1  0  0  0
 63142  1  0  0  0
 63143  1  0  0  0
 64144  1  0  0  0
 65145  1  0  0  0
 68 82  1  0  0  0
 71 72  2  0  0  0
 71 85  1  0  0  0
 71146  1  0  0  0
 72 73  1  0  0  0
 72 83  1  0  0  0
 73 78  1  0  0  0
 73 84  2  0  0  0
 74147  1  0  0  0
 74148  1  0  0  0
 74149  1  0  0  0
 74 83  1  0  0  0
 75 83  1  0  0  0
 75150  1  0  0  0
 75151  1  0  0  0
 75152  1  0  0  0
 76 83  1  0  0  0
 76153  1  0  0  0
 76154  1  0  0  0
 76155  1  0  0  0
 77 86  1  0  0  0
 77156  1  0  0  0
 77157  1  0  0  0
 77158  1  0  0  0
 78 81  1  0  0  0
 78159  1  0  0  0
 78160  1  0  0  0
 79 80  1  0  0  0
 79 82  1  0  0  0
 79161  1  0  0  0
 79162  1  0  0  0
 80 85  1  0  0  0
 80163  1  0  0  0
 80164  1  0  0  0
 81 86  1  0  0  0
 81165  1  0  0  0
 81166  1  0  0  0
 82167  1  0  0  0
 82168  1  0  0  0
 84 85  1  0  0  0
M  ISO  4   1 100  68 101  82 101  86 100
M  END
> <chiral flag>
0

> <version>
0

> <s_m_source_file>
/data/baiqing/PycharmProjects/Reinvent-master-3.2/result/LINK_invent/BTK/process_docking_weight1_custom_sum_contain_oxygen_bond_distance_aromatic_linkinvent_7_9_3/rearranged_h_0056.sdf

> <i_m_source_file_index>
52

> <r_mmod_Potential_Energy-OPLS-2005>
91.2760162353516

> <r_mmod_Stretch_Energy-OPLS-2005>
58.8737449645996

> <r_mmod_Bend_Energy-OPLS-2005>
116.06706237793

> <r_mmod_Torsional_Energy-OPLS-2005>
306.878265380859

> <r_mmod_Improper_Torsional_Energy-OPLS-2005>
4.43390989303589

> <r_mmod_Van_der_Waal_Energy-OPLS-2005>
118.041046142578

> <r_mmod_Electrostatic_Energy-OPLS-2005>
-339.625061035156

> <r_mmod_Solvation_Energy-OPLS-2005>
-197.474716186523

> <b_mmod_Minimization_Converged-OPLS-2005>
0

> <r_mmod_RMS_Derivative-OPLS-2005>
1.06147444248199

$$$$
54
                    3D
 Structure written by MMmdl.
155163  0  0  1  0            999 V2000
  -30.5266  -15.0470   20.4037 C   0  0  0  0  0  0
  -30.4423  -12.6606   19.4956 C   0  0  0  0  0  0
  -29.5211  -12.5418   18.2590 C   0  0  0  0  0  0
  -28.0574  -12.3179   18.6834 C   0  0  0  0  0  0
  -27.6246  -13.2626   19.8338 C   0  0  2  0  0  0
  -28.6718  -13.3345   20.9658 C   0  0  0  0  0  0
  -25.2418  -13.8251   20.5715 C   0  0  0  0  0  0
  -24.1769  -13.0447   20.9246 C   0  0  0  0  0  0
  -24.6412  -11.6938   20.8772 C   0  0  0  0  0  0
  -23.9112  -10.4288   21.0413 C   0  0  0  0  0  0
  -24.3638   -9.4198   21.9195 C   0  0  0  0  0  0
  -23.6296   -8.2241   22.0766 C   0  0  0  0  0  0
  -22.4281   -8.0282   21.3547 C   0  0  0  0  0  0
  -21.9931   -9.0270   20.4653 C   0  0  0  0  0  0
  -22.7280  -10.2140   20.3059 C   0  0  0  0  0  0
  -21.6840   -6.0732   22.5274 C   0  0  0  0  0  0
  -21.4018   -6.5645   23.8214 C   0  0  0  0  0  0
  -21.3671   -5.6791   24.9172 C   0  0  0  0  0  0
  -21.6047   -4.3059   24.7222 C   0  0  0  0  0  0
  -21.8824   -3.8149   23.4348 C   0  0  0  0  0  0
  -21.9195   -4.6961   22.3395 C   0  0  0  0  0  0
  -22.7780  -13.5197   21.1893 C   0  0  0  0  0  0
  -22.1643   -4.2145   21.0977 F   0  0  0  0  0  0
  -21.5632   -3.4545   25.7736 F   0  0  0  0  0  0
  -29.9316  -13.7762   20.3518 N   0  0  0  0  0  0
  -26.2865  -12.9512   20.3255 N   0  0  0  0  0  0
  -25.9348  -11.6626   20.5759 N   0  0  0  0  0  0
  -22.0426  -12.8182   22.0447 N   0  0  0  0  0  0
  -25.4052  -15.1978   20.4091 N   0  0  0  0  0  0
  -31.7366  -15.0872   20.1587 O   0  0  0  0  0  0
  -21.6647   -6.8882   21.4233 O   0  0  0  0  0  0
  -22.3458  -14.5493   20.6740 O   0  0  0  0  0  0
  -24.6519  -31.8381   23.1827 C   0  0  0  0  0  0
  -25.9265  -32.4659   23.8245 C   0  0  1  0  0  0
  -27.2188  -27.0558   20.1573 C   0  0  0  0  0  0
  -25.5988  -33.8465   24.2160 N   0  0  0  0  0  0
  -23.4612  -30.4571   21.5280 C   0  0  2  0  0  0
  -24.9146  -28.8748   20.1077 C   0  0  0  0  0  0
  -22.7621  -29.4512   22.4803 C   0  0  0  0  0  0
  -18.0313  -28.1411   22.8478 C   0  0  0  0  0  0
  -24.1480  -36.7231   23.2645 C   0  0  0  0  0  0
  -26.0248  -30.6820   21.4000 C   0  0  0  0  0  0
  -26.0941  -29.2866   20.7404 C   0  0  0  0  0  0
  -27.2431  -28.3943   20.7518 C   0  0  0  0  0  0
  -26.0140  -26.7789   19.4673 C   0  0  0  0  0  0
  -24.8928  -27.6368   19.4538 C   0  0  0  0  0  0
  -23.6958  -29.7882   20.1487 C   0  0  0  0  0  0
  -25.4112  -36.3011   24.0311 C   0  0  1  0  0  0
  -20.5932  -28.3747   23.1212 C   0  0  2  0  0  0
  -20.6794  -26.9440   22.5410 C   0  0  0  0  0  0
  -19.5774  -26.6382   21.5224 C   0  0  0  0  0  0
  -18.1948  -26.7942   22.1622 C   0  0  0  0  0  0
  -19.1573  -28.8894   23.2839 C   0  0  0  0  0  0
  -18.9500  -30.1479   23.8874 C   0  0  0  0  0  0
  -17.6500  -30.6603   24.0567 C   0  0  0  0  0  0
  -25.9089  -34.9388   23.5047 C   0  0  0  0  0  0
  -16.5389  -29.9099   23.6351 C   0  0  0  0  0  0
  -16.7298  -28.6524   23.0364 C   0  0  0  0  0  0
  -26.4544  -31.6557   25.0732 C   0  0  0  0  0  0
  -25.3686  -31.3777   26.1401 C   0  0  0  0  0  0
  -27.0416  -30.2936   24.6359 C   0  0  0  0  0  0
  -27.6058  -32.4340   25.7517 C   0  0  0  0  0  0
  -27.5561  -37.1767   24.8475 C   0  0  0  0  0  0
  -21.4302  -29.3067   22.3572 N   0  0  0  0  0  0
  -26.4263  -37.3741   23.9431 N   0  0  0  0  0  0
  -24.7328  -31.0155   22.0912 N   0  0  0  0  0  0
  -23.4228  -28.8059   23.2982 O   0  0  0  0  0  0
  -28.2214  -25.9899   20.2490 O   0  0  0  0  0  0
  -26.5682  -34.8902   22.4626 O   0  0  0  0  0  0
  -23.5621  -32.1298   23.6988 O   0  0  0  0  0  0
  -28.6492  -23.0630   20.2352 C   0  0  0  0  0  0
  -29.0997  -20.7930   20.3285 C   0  0  0  0  0  0
  -28.2429  -18.7612   18.9829 C   0  0  0  0  0  0
  -27.8974  -18.8206   21.4484 C   0  0  0  0  0  0
  -31.4154  -21.0808   21.3082 C   0  0  0  0  0  0
  -27.8182  -24.4885   19.9244 C   0  0  0  0  0  0
  -30.0802  -17.8451   20.4994 C   0  0  0  0  0  0
  -28.9131  -19.1059   20.3281 C   0  0  0  0  0  0
  -28.1359  -21.7492   19.9959 N   0  0  0  0  0  0
  -29.8948  -22.9221   20.7151 N   0  0  0  0  0  0
  -30.1447  -21.5367   20.7807 N   0  0  0  0  0  0
  -29.7583  -16.2601   20.5245 N   0  0  0  0  0  0
  -31.4651  -12.8390   19.1639 H   0  0  0  0  0  0
  -30.4689  -11.7251   20.0561 H   0  0  0  0  0  0
  -29.8524  -11.7234   17.6193 H   0  0  0  0  0  0
  -29.5928  -13.4511   17.6607 H   0  0  0  0  0  0
  -27.9647  -11.2799   19.0045 H   0  0  0  0  0  0
  -27.3896  -12.4311   17.8274 H   0  0  0  0  0  0
  -27.5720  -14.2560   19.3861 H   0  0  0  0  0  0
  -28.7885  -12.3703   21.4618 H   0  0  0  0  0  0
  -28.3619  -14.0420   21.7348 H   0  0  0  0  0  0
  -25.2776   -9.5681   22.4785 H   0  0  0  0  0  0
  -23.9995   -7.4650   22.7504 H   0  0  0  0  0  0
  -21.0860   -8.8817   19.8970 H   0  0  0  0  0  0
  -22.3750  -10.9686   19.6177 H   0  0  0  0  0  0
  -21.2010   -7.6153   23.9721 H   0  0  0  0  0  0
  -21.1474   -6.0518   25.9075 H   0  0  0  0  0  0
  -22.0594   -2.7605   23.2848 H   0  0  0  0  0  0
  -22.4000  -11.9822   22.4834 H   0  0  0  0  0  0
  -21.1050  -13.1245   22.2639 H   0  0  0  0  0  0
  -24.6326  -15.8463   20.5193 H   0  0  0  0  0  0
  -26.2399  -15.6408   20.0490 H   0  0  0  0  0  0
  -26.7314  -32.5229   23.0954 H   0  0  0  0  0  0
  -25.0158  -33.9582   25.0319 H   0  0  0  0  0  0
  -22.7672  -31.2847   21.3650 H   0  0  0  0  0  0
  -23.3768  -35.9551   23.3298 H   0  0  0  0  0  0
  -24.3565  -36.8876   22.2069 H   0  0  0  0  0  0
  -23.7203  -37.6404   23.6695 H   0  0  0  0  0  0
  -26.1922  -31.4286   20.6219 H   0  0  0  0  0  0
  -26.8931  -30.7349   22.0458 H   0  0  0  0  0  0
  -28.1291  -28.6999   21.2891 H   0  0  0  0  0  0
  -25.8867  -25.8417   18.9464 H   0  0  0  0  0  0
  -24.0010  -27.3156   18.9351 H   0  0  0  0  0  0
  -23.8458  -30.5649   19.3981 H   0  0  0  0  0  0
  -22.8107  -29.2375   19.8271 H   0  0  0  0  0  0
  -25.1284  -36.1836   25.0801 H   0  0  0  0  0  0
  -21.0020  -28.3353   24.1333 H   0  0  0  0  0  0
  -20.5712  -26.2365   23.3639 H   0  0  0  0  0  0
  -21.6648  -26.7441   22.1193 H   0  0  0  0  0  0
  -19.6962  -25.6288   21.1269 H   0  0  0  0  0  0
  -19.6720  -27.3184   20.6746 H   0  0  0  0  0  0
  -17.4219  -26.6715   21.4014 H   0  0  0  0  0  0
  -18.0330  -26.0081   22.9010 H   0  0  0  0  0  0
  -19.7991  -30.7295   24.2238 H   0  0  0  0  0  0
  -17.5066  -31.6279   24.5178 H   0  0  0  0  0  0
  -15.5399  -30.3009   23.7667 H   0  0  0  0  0  0
  -15.8692  -28.0830   22.7098 H   0  0  0  0  0  0
  -24.5922  -30.7056   25.7729 H   0  0  0  0  0  0
  -24.8809  -32.2965   26.4675 H   0  0  0  0  0  0
  -25.7933  -30.9081   27.0272 H   0  0  0  0  0  0
  -26.3067  -29.6639   24.1336 H   0  0  0  0  0  0
  -27.3985  -29.7259   25.4959 H   0  0  0  0  0  0
  -27.8975  -30.4168   23.9716 H   0  0  0  0  0  0
  -27.2661  -33.3701   26.1939 H   0  0  0  0  0  0
  -28.3923  -32.6772   25.0373 H   0  0  0  0  0  0
  -28.0629  -31.8554   26.5550 H   0  0  0  0  0  0
  -28.2552  -38.0086   24.7513 H   0  0  0  0  0  0
  -28.1059  -36.2602   24.6272 H   0  0  0  0  0  0
  -27.2287  -37.1367   25.8881 H   0  0  0  0  0  0
  -20.9537  -29.8795   21.6741 H   0  0  0  0  0  0
  -26.0125  -38.2803   24.1465 H   0  0  0  0  0  0
  -27.3455  -19.3578   18.8137 H   0  0  0  0  0  0
  -27.9412  -17.7146   18.9328 H   0  0  0  0  0  0
  -28.9227  -18.9479   18.1516 H   0  0  0  0  0  0
  -26.9879  -19.4066   21.3156 H   0  0  0  0  0  0
  -28.3087  -19.0787   22.4235 H   0  0  0  0  0  0
  -27.6038  -17.7712   21.4817 H   0  0  0  0  0  0
  -31.2425  -20.4172   22.1552 H   0  0  0  0  0  0
  -32.0218  -21.9258   21.6400 H   0  0  0  0  0  0
  -31.9668  -20.5421   20.5358 H   0  0  0  0  0  0
  -26.8420  -24.3398   20.3871 H   0  0  0  0  0  0
  -27.6345  -24.4717   18.8494 H   0  0  0  0  0  0
  -30.6172  -18.0359   21.4306 H   0  0  0  0  0  0
  -30.8311  -17.9874   19.7210 H   0  0  0  0  0  0
  -28.7781  -16.0659   20.6633 H   0  0  0  0  0  0
  1 25  1  0  0  0
  1 30  2  0  0  0
  1 82  1  0  0  0
  2  3  1  0  0  0
  2 25  1  0  0  0
  2 83  1  0  0  0
  2 84  1  0  0  0
  3  4  1  0  0  0
  3 85  1  0  0  0
  3 86  1  0  0  0
  4  5  1  0  0  0
  4 87  1  0  0  0
  4 88  1  0  0  0
  5  6  1  0  0  0
  5 26  1  0  0  0
  5 89  1  0  0  0
  6 25  1  0  0  0
  6 90  1  0  0  0
  6 91  1  0  0  0
  7  8  2  0  0  0
  7 26  1  0  0  0
  7 29  1  0  0  0
  8  9  1  0  0  0
  8 22  1  0  0  0
  9 10  1  0  0  0
  9 27  2  0  0  0
 10 11  2  0  0  0
 10 15  1  0  0  0
 11 12  1  0  0  0
 11 92  1  0  0  0
 12 13  2  0  0  0
 12 93  1  0  0  0
 13 14  1  0  0  0
 13 31  1  0  0  0
 14 15  2  0  0  0
 14 94  1  0  0  0
 15 95  1  0  0  0
 16 17  2  0  0  0
 16 21  1  0  0  0
 16 31  1  0  0  0
 17 18  1  0  0  0
 17 96  1  0  0  0
 18 19  2  0  0  0
 18 97  1  0  0  0
 19 20  1  0  0  0
 19 24  1  0  0  0
 20 21  2  0  0  0
 20 98  1  0  0  0
 21 23  1  0  0  0
 22 28  1  0  0  0
 22 32  2  0  0  0
 26 27  1  0  0  0
 28 99  1  0  0  0
 28100  1  0  0  0
 29101  1  0  0  0
 29102  1  0  0  0
 33 34  1  0  0  0
 33 66  1  0  0  0
 33 70  2  0  0  0
 34 36  1  0  0  0
 34 59  1  0  0  0
 34103  1  0  0  0
 35 44  2  0  0  0
 35 45  1  0  0  0
 35 68  1  0  0  0
 36 56  1  0  0  0
 36104  1  0  0  0
 37 39  1  0  0  0
 37 47  1  0  0  0
 37 66  1  0  0  0
 37105  1  0  0  0
 38 43  2  0  0  0
 38 46  1  0  0  0
 38 47  1  0  0  0
 39 64  1  0  0  0
 39 67  2  0  0  0
 40 52  1  0  0  0
 40 53  2  0  0  0
 40 58  1  0  0  0
 41106  1  0  0  0
 41107  1  0  0  0
 41108  1  0  0  0
 41 48  1  0  0  0
 42 43  1  0  0  0
 42 66  1  0  0  0
 42109  1  0  0  0
 42110  1  0  0  0
 43 44  1  0  0  0
 44111  1  0  0  0
 45 46  2  0  0  0
 45112  1  0  0  0
 46113  1  0  0  0
 47114  1  0  0  0
 47115  1  0  0  0
 48 56  1  0  0  0
 48 65  1  0  0  0
 48116  1  0  0  0
 49 50  1  0  0  0
 49 53  1  0  0  0
 49 64  1  0  0  0
 49117  1  0  0  0
 50 51  1  0  0  0
 50118  1  0  0  0
 50119  1  0  0  0
 51 52  1  0  0  0
 51120  1  0  0  0
 51121  1  0  0  0
 52122  1  0  0  0
 52123  1  0  0  0
 53 54  1  0  0  0
 54 55  2  0  0  0
 54124  1  0  0  0
 55 57  1  0  0  0
 55125  1  0  0  0
 56 69  2  0  0  0
 57 58  2  0  0  0
 57126  1  0  0  0
 58127  1  0  0  0
 59 60  1  0  0  0
 59 61  1  0  0  0
 59 62  1  0  0  0
 60128  1  0  0  0
 60129  1  0  0  0
 60130  1  0  0  0
 61131  1  0  0  0
 61132  1  0  0  0
 61133  1  0  0  0
 62134  1  0  0  0
 62135  1  0  0  0
 62136  1  0  0  0
 63 65  1  0  0  0
 63137  1  0  0  0
 63138  1  0  0  0
 63139  1  0  0  0
 64140  1  0  0  0
 65141  1  0  0  0
 68 76  1  0  0  0
 71 76  1  0  0  0
 71 79  1  0  0  0
 71 80  2  0  0  0
 72 78  1  0  0  0
 72 79  2  0  0  0
 72 81  1  0  0  0
 73142  1  0  0  0
 73143  1  0  0  0
 73144  1  0  0  0
 73 78  1  0  0  0
 74 78  1  0  0  0
 74145  1  0  0  0
 74146  1  0  0  0
 74147  1  0  0  0
 75 81  1  0  0  0
 75148  1  0  0  0
 75149  1  0  0  0
 75150  1  0  0  0
 76151  1  0  0  0
 76152  1  0  0  0
 77 78  1  0  0  0
 77 82  1  0  0  0
 77153  1  0  0  0
 77154  1  0  0  0
 80 81  1  0  0  0
 82155  1  0  0  0
M  ISO  4   1 100  68 101  76 101  82 100
M  END
> <chiral flag>
0

> <version>
0

> <s_m_source_file>
/data/baiqing/PycharmProjects/Reinvent-master-3.2/result/LINK_invent/BTK/process_docking_weight1_custom_sum_contain_oxygen_bond_distance_aromatic_linkinvent_7_9_3/rearranged_h_0056.sdf

> <i_m_source_file_index>
53

> <r_mmod_Potential_Energy-OPLS-2005>
698.845703125

> <r_mmod_Stretch_Energy-OPLS-2005>
354.537475585938

> <r_mmod_Bend_Energy-OPLS-2005>
344.933135986328

> <r_mmod_Torsional_Energy-OPLS-2005>
216.015747070312

> <r_mmod_Improper_Torsional_Energy-OPLS-2005>
4.68228769302368

> <r_mmod_Van_der_Waal_Energy-OPLS-2005>
108.08715057373

> <r_mmod_Electrostatic_Energy-OPLS-2005>
-370.794738769531

> <r_mmod_Solvation_Energy-OPLS-2005>
-234.596282958984

> <b_mmod_Minimization_Converged-OPLS-2005>
0

> <r_mmod_RMS_Derivative-OPLS-2005>
2.64687061309814

$$$$
55
                    3D
 Structure written by MMmdl.
159167  0  0  1  0            999 V2000
  -30.5132  -15.2396   20.3398 C   0  0  0  0  0  0
  -30.3919  -12.7611   19.5553 C   0  0  0  0  0  0
  -29.5189  -12.5755   18.2916 C   0  0  0  0  0  0
  -28.0561  -12.3367   18.6871 C   0  0  0  0  0  0
  -27.5987  -13.2982   19.8146 C   0  0  2  0  0  0
  -28.6223  -13.4909   20.9554 C   0  0  0  0  0  0
  -25.2371  -13.8353   20.5793 C   0  0  0  0  0  0
  -24.1732  -13.0459   20.9245 C   0  0  0  0  0  0
  -24.6389  -11.6971   20.8716 C   0  0  0  0  0  0
  -23.9160  -10.4307   21.0401 C   0  0  0  0  0  0
  -24.3722   -9.4244   21.9178 C   0  0  0  0  0  0
  -23.6364   -8.2281   22.0793 C   0  0  0  0  0  0
  -22.4343   -8.0331   21.3554 C   0  0  0  0  0  0
  -21.9973   -9.0311   20.4692 C   0  0  0  0  0  0
  -22.7337  -10.2168   20.3063 C   0  0  0  0  0  0
  -21.6887   -6.0804   22.5271 C   0  0  0  0  0  0
  -21.4052   -6.5705   23.8219 C   0  0  0  0  0  0
  -21.3660   -5.6859   24.9169 C   0  0  0  0  0  0
  -21.6029   -4.3093   24.7211 C   0  0  0  0  0  0
  -21.8814   -3.8198   23.4316 C   0  0  0  0  0  0
  -21.9216   -4.7023   22.3402 C   0  0  0  0  0  0
  -22.7750  -13.5187   21.1916 C   0  0  0  0  0  0
  -22.1656   -4.2248   21.0949 F   0  0  0  0  0  0
  -21.5638   -3.4541   25.7691 F   0  0  0  0  0  0
  -29.8823  -13.9548   20.3475 N   0  0  0  0  0  0
  -26.2761  -12.9661   20.3203 N   0  0  0  0  0  0
  -25.9320  -11.6740   20.5676 N   0  0  0  0  0  0
  -22.0391  -12.8180   22.0503 N   0  0  0  0  0  0
  -25.3963  -15.2117   20.4313 N   0  0  0  0  0  0
  -31.6962  -15.0810   19.9993 O   0  0  0  0  0  0
  -21.6678   -6.8918   21.4234 O   0  0  0  0  0  0
  -22.3421  -14.5429   20.6725 O   0  0  0  0  0  0
  -24.6666  -31.8182   23.1646 C   0  0  0  0  0  0
  -25.9299  -32.4557   23.8190 C   0  0  1  0  0  0
  -27.2021  -26.9321   20.2172 C   0  0  0  0  0  0
  -25.5922  -33.8410   24.2022 N   0  0  0  0  0  0
  -23.4858  -30.4263   21.5168 C   0  0  2  0  0  0
  -24.9294  -28.8128   20.1163 C   0  0  0  0  0  0
  -22.7681  -29.4390   22.4748 C   0  0  0  0  0  0
  -18.0319  -28.1415   22.8451 C   0  0  0  0  0  0
  -24.1487  -36.7247   23.2639 C   0  0  0  0  0  0
  -26.0479  -30.6319   21.3941 C   0  0  0  0  0  0
  -26.1147  -29.2203   20.7492 C   0  0  0  0  0  0
  -27.2525  -28.3064   20.7641 C   0  0  0  0  0  0
  -25.9966  -26.6637   19.5384 C   0  0  0  0  0  0
  -24.8967  -27.5535   19.4878 C   0  0  0  0  0  0
  -23.7262  -29.7478   20.1402 C   0  0  0  0  0  0
  -25.4136  -36.2996   24.0284 C   0  0  1  0  0  0
  -20.5967  -28.3800   23.1124 C   0  0  2  0  0  0
  -20.6835  -26.9475   22.5377 C   0  0  0  0  0  0
  -19.5796  -26.6354   21.5217 C   0  0  0  0  0  0
  -18.1967  -26.7923   22.1609 C   0  0  0  0  0  0
  -19.1593  -28.8905   23.2782 C   0  0  0  0  0  0
  -18.9498  -30.1506   23.8848 C   0  0  0  0  0  0
  -17.6504  -30.6589   24.0593 C   0  0  0  0  0  0
  -25.9121  -34.9357   23.5003 C   0  0  0  0  0  0
  -16.5400  -29.9104   23.6364 C   0  0  0  0  0  0
  -16.7317  -28.6523   23.0351 C   0  0  0  0  0  0
  -26.4565  -31.6538   25.0746 C   0  0  0  0  0  0
  -25.3639  -31.3800   26.1354 C   0  0  0  0  0  0
  -27.0459  -30.2894   24.6494 C   0  0  0  0  0  0
  -27.6039  -32.4391   25.7514 C   0  0  0  0  0  0
  -27.5579  -37.1797   24.8462 C   0  0  0  0  0  0
  -21.4344  -29.3072   22.3491 N   0  0  0  0  0  0
  -26.4288  -37.3741   23.9416 N   0  0  0  0  0  0
  -24.7579  -30.9831   22.0801 N   0  0  0  0  0  0
  -23.4178  -28.7997   23.3028 O   0  0  0  0  0  0
  -28.2189  -25.8575   20.2063 O   0  0  0  0  0  0
  -26.5748  -34.8920   22.4604 O   0  0  0  0  0  0
  -23.5708  -32.1119   23.6693 O   0  0  0  0  0  0
  -27.6917  -18.3636   18.3445 C   0  0  0  0  0  0
  -29.0579  -18.0291   19.9253 C   0  0  0  0  0  0
  -26.8251  -18.0486   17.1659 C   0  0  0  0  0  0
  -31.4161  -17.7095   20.4049 C   0  0  0  0  0  0
  -28.3631  -22.6378   19.9241 C   0  0  0  0  0  0
  -28.8034  -21.0081   20.5799 C   0  0  0  0  0  0
  -29.8150  -16.9172   22.2606 C   0  0  0  0  0  0
  -28.1115  -24.2742   20.6553 C   0  0  0  0  0  0
  -30.0938  -16.9406   20.7237 C   0  0  2  0  0  0
  -28.3990  -17.3872   18.9580 N   0  0  0  0  0  0
  -27.8065  -19.5905   18.8494 N   0  0  0  0  0  0
  -28.6882  -19.4960   19.8850 N   0  0  0  0  0  0
  -30.0965  -18.1789   22.9877 N   0  3  0  0  0  0
  -31.4363  -12.8609   19.2504 H   0  0  0  0  0  0
  -30.3603  -11.8509   20.1597 H   0  0  0  0  0  0
  -29.8772  -11.7351   17.6935 H   0  0  0  0  0  0
  -29.5936  -13.4708   17.6655 H   0  0  0  0  0  0
  -27.9556  -11.2944   18.9977 H   0  0  0  0  0  0
  -27.4144  -12.4405   17.8132 H   0  0  0  0  0  0
  -27.5104  -14.2695   19.3238 H   0  0  0  0  0  0
  -28.7474  -12.5737   21.5330 H   0  0  0  0  0  0
  -28.2468  -14.2388   21.6555 H   0  0  0  0  0  0
  -25.2813   -9.5749   22.4801 H   0  0  0  0  0  0
  -24.0093   -7.4696   22.7514 H   0  0  0  0  0  0
  -21.0903   -8.8789   19.9026 H   0  0  0  0  0  0
  -22.3715  -10.9712   19.6215 H   0  0  0  0  0  0
  -21.2015   -7.6206   23.9758 H   0  0  0  0  0  0
  -21.1492   -6.0553   25.9099 H   0  0  0  0  0  0
  -22.0564   -2.7654   23.2766 H   0  0  0  0  0  0
  -22.3984  -11.9877   22.4948 H   0  0  0  0  0  0
  -21.0975  -13.1222   22.2551 H   0  0  0  0  0  0
  -24.6256  -15.8512   20.6012 H   0  0  0  0  0  0
  -26.2356  -15.6793   20.1068 H   0  0  0  0  0  0
  -26.7415  -32.5139   23.0964 H   0  0  0  0  0  0
  -25.0093  -33.9522   25.0185 H   0  0  0  0  0  0
  -22.8151  -31.2661   21.3420 H   0  0  0  0  0  0
  -23.3766  -35.9574   23.3279 H   0  0  0  0  0  0
  -24.3571  -36.8924   22.2065 H   0  0  0  0  0  0
  -23.7253  -37.6420   23.6743 H   0  0  0  0  0  0
  -26.2333  -31.3798   20.6246 H   0  0  0  0  0  0
  -26.8988  -30.6843   22.0583 H   0  0  0  0  0  0
  -28.1616  -28.6215   21.2635 H   0  0  0  0  0  0
  -25.9029  -25.6993   19.0507 H   0  0  0  0  0  0
  -24.0015  -27.2463   18.9675 H   0  0  0  0  0  0
  -23.9048  -30.5228   19.3932 H   0  0  0  0  0  0
  -22.8374  -29.2105   19.8044 H   0  0  0  0  0  0
  -25.1365  -36.1821   25.0782 H   0  0  0  0  0  0
  -21.0059  -28.3413   24.1243 H   0  0  0  0  0  0
  -20.5735  -26.2443   23.3653 H   0  0  0  0  0  0
  -21.6693  -26.7453   22.1177 H   0  0  0  0  0  0
  -19.7031  -25.6236   21.1300 H   0  0  0  0  0  0
  -19.6731  -27.3128   20.6704 H   0  0  0  0  0  0
  -17.4260  -26.6658   21.3988 H   0  0  0  0  0  0
  -18.0371  -26.0078   22.8998 H   0  0  0  0  0  0
  -19.8012  -30.7328   24.2137 H   0  0  0  0  0  0
  -17.5087  -31.6264   24.5224 H   0  0  0  0  0  0
  -15.5418  -30.3026   23.7662 H   0  0  0  0  0  0
  -15.8705  -28.0860   22.7046 H   0  0  0  0  0  0
  -24.5788  -30.7228   25.7607 H   0  0  0  0  0  0
  -24.8852  -32.3000   26.4690 H   0  0  0  0  0  0
  -25.7731  -30.8955   27.0210 H   0  0  0  0  0  0
  -26.3085  -29.6577   24.1508 H   0  0  0  0  0  0
  -27.3979  -29.7312   25.5186 H   0  0  0  0  0  0
  -27.9076  -30.4058   23.9919 H   0  0  0  0  0  0
  -27.2552  -33.3725   26.1922 H   0  0  0  0  0  0
  -28.3826  -32.6862   25.0309 H   0  0  0  0  0  0
  -28.0745  -31.8673   26.5510 H   0  0  0  0  0  0
  -28.2567  -38.0116   24.7518 H   0  0  0  0  0  0
  -28.1074  -36.2644   24.6249 H   0  0  0  0  0  0
  -27.2291  -37.1391   25.8853 H   0  0  0  0  0  0
  -20.9628  -29.8839   21.6683 H   0  0  0  0  0  0
  -26.0141  -38.2808   24.1398 H   0  0  0  0  0  0
  -27.4339  -17.7084   16.3251 H   0  0  0  0  0  0
  -26.2432  -18.9102   16.8433 H   0  0  0  0  0  0
  -26.1421  -17.2254   17.3976 H   0  0  0  0  0  0
  -31.5789  -17.6867   19.3242 H   0  0  0  0  0  0
  -32.3103  -17.2977   20.8656 H   0  0  0  0  0  0
  -31.3723  -18.7679   20.6748 H   0  0  0  0  0  0
  -27.4433  -22.4692   19.3547 H   0  0  0  0  0  0
  -29.1177  -22.7925   19.1492 H   0  0  0  0  0  0
  -28.2286  -20.9072   21.5035 H   0  0  0  0  0  0
  -29.8331  -21.0980   20.9073 H   0  0  0  0  0  0
  -30.4205  -16.1461   22.7426 H   0  0  0  0  0  0
  -28.7769  -16.6310   22.4313 H   0  0  0  0  0  0
  -28.8705  -24.2800   21.4424 H   0  0  0  0  0  0
  -27.1862  -24.2193   21.2377 H   0  0  0  0  0  0
  -31.0711  -18.4088   22.9315 H   0  0  0  0  0  0
  -29.8764  -18.0687   23.9640 H   0  0  0  0  0  0
  -29.5591  -18.9502   22.6419 H   0  0  0  0  0  0
  1 25  1  0  0  0
  1 30  2  0  0  0
  1 79  1  0  0  0
  2  3  1  0  0  0
  2 25  1  0  0  0
  2 84  1  0  0  0
  2 85  1  0  0  0
  3  4  1  0  0  0
  3 86  1  0  0  0
  3 87  1  0  0  0
  4  5  1  0  0  0
  4 88  1  0  0  0
  4 89  1  0  0  0
  5  6  1  0  0  0
  5 26  1  0  0  0
  5 90  1  0  0  0
  6 25  1  0  0  0
  6 91  1  0  0  0
  6 92  1  0  0  0
  7  8  2  0  0  0
  7 26  1  0  0  0
  7 29  1  0  0  0
  8  9  1  0  0  0
  8 22  1  0  0  0
  9 10  1  0  0  0
  9 27  2  0  0  0
 10 11  2  0  0  0
 10 15  1  0  0  0
 11 12  1  0  0  0
 11 93  1  0  0  0
 12 13  2  0  0  0
 12 94  1  0  0  0
 13 14  1  0  0  0
 13 31  1  0  0  0
 14 15  2  0  0  0
 14 95  1  0  0  0
 15 96  1  0  0  0
 16 17  2  0  0  0
 16 21  1  0  0  0
 16 31  1  0  0  0
 17 18  1  0  0  0
 17 97  1  0  0  0
 18 19  2  0  0  0
 18 98  1  0  0  0
 19 20  1  0  0  0
 19 24  1  0  0  0
 20 21  2  0  0  0
 20 99  1  0  0  0
 21 23  1  0  0  0
 22 28  1  0  0  0
 22 32  2  0  0  0
 26 27  1  0  0  0
 28100  1  0  0  0
 28101  1  0  0  0
 29102  1  0  0  0
 29103  1  0  0  0
 33 34  1  0  0  0
 33 66  1  0  0  0
 33 70  2  0  0  0
 34 36  1  0  0  0
 34 59  1  0  0  0
 34104  1  0  0  0
 35 44  2  0  0  0
 35 45  1  0  0  0
 35 68  1  0  0  0
 36 56  1  0  0  0
 36105  1  0  0  0
 37 39  1  0  0  0
 37 47  1  0  0  0
 37 66  1  0  0  0
 37106  1  0  0  0
 38 43  2  0  0  0
 38 46  1  0  0  0
 38 47  1  0  0  0
 39 64  1  0  0  0
 39 67  2  0  0  0
 40 52  1  0  0  0
 40 53  2  0  0  0
 40 58  1  0  0  0
 41107  1  0  0  0
 41108  1  0  0  0
 41109  1  0  0  0
 41 48  1  0  0  0
 42 43  1  0  0  0
 42 66  1  0  0  0
 42110  1  0  0  0
 42111  1  0  0  0
 43 44  1  0  0  0
 44112  1  0  0  0
 45 46  2  0  0  0
 45113  1  0  0  0
 46114  1  0  0  0
 47115  1  0  0  0
 47116  1  0  0  0
 48 56  1  0  0  0
 48 65  1  0  0  0
 48117  1  0  0  0
 49 50  1  0  0  0
 49 53  1  0  0  0
 49 64  1  0  0  0
 49118  1  0  0  0
 50 51  1  0  0  0
 50119  1  0  0  0
 50120  1  0  0  0
 51 52  1  0  0  0
 51121  1  0  0  0
 51122  1  0  0  0
 52123  1  0  0  0
 52124  1  0  0  0
 53 54  1  0  0  0
 54 55  2  0  0  0
 54125  1  0  0  0
 55 57  1  0  0  0
 55126  1  0  0  0
 56 69  2  0  0  0
 57 58  2  0  0  0
 57127  1  0  0  0
 58128  1  0  0  0
 59 60  1  0  0  0
 59 61  1  0  0  0
 59 62  1  0  0  0
 60129  1  0  0  0
 60130  1  0  0  0
 60131  1  0  0  0
 61132  1  0  0  0
 61133  1  0  0  0
 61134  1  0  0  0
 62135  1  0  0  0
 62136  1  0  0  0
 62137  1  0  0  0
 63 65  1  0  0  0
 63138  1  0  0  0
 63139  1  0  0  0
 63140  1  0  0  0
 64141  1  0  0  0
 65142  1  0  0  0
 68 78  1  0  0  0
 71 73  1  0  0  0
 71 80  1  0  0  0
 71 81  2  0  0  0
 72 79  1  0  0  0
 72 80  2  0  0  0
 72 82  1  0  0  0
 73143  1  0  0  0
 73144  1  0  0  0
 73145  1  0  0  0
 74146  1  0  0  0
 74147  1  0  0  0
 74148  1  0  0  0
 74 79  1  0  0  0
 75 76  1  0  0  0
 75 78  1  0  0  0
 75149  1  0  0  0
 75150  1  0  0  0
 76 82  1  0  0  0
 76151  1  0  0  0
 76152  1  0  0  0
 77 79  1  0  0  0
 77 83  1  0  0  0
 77153  1  0  0  0
 77154  1  0  0  0
 78155  1  0  0  0
 78156  1  0  0  0
 81 82  1  0  0  0
 83157  1  0  0  0
 83158  1  0  0  0
 83159  1  0  0  0
M  CHG  1  83   1
M  ISO  4   1 100  68 101  78 101  79 100
M  END
> <chiral flag>
0

> <version>
0

> <s_m_source_file>
/data/baiqing/PycharmProjects/Reinvent-master-3.2/result/LINK_invent/BTK/process_docking_weight1_custom_sum_contain_oxygen_bond_distance_aromatic_linkinvent_7_9_3/rearranged_h_0056.sdf

> <i_m_source_file_index>
54

> <r_mmod_Potential_Energy-OPLS-2005>
1205.50317382812

> <r_mmod_Stretch_Energy-OPLS-2005>
644.20703125

> <r_mmod_Bend_Energy-OPLS-2005>
582.770568847656

> <r_mmod_Torsional_Energy-OPLS-2005>
238.171051025391

> <r_mmod_Improper_Torsional_Energy-OPLS-2005>
1.84730994701385

> <r_mmod_Van_der_Waal_Energy-OPLS-2005>
108.142921447754

> <r_mmod_Electrostatic_Energy-OPLS-2005>
-268.430328369141

> <r_mmod_Solvation_Energy-OPLS-2005>
-524.896484375

> <b_mmod_Minimization_Converged-OPLS-2005>
0

> <r_mmod_RMS_Derivative-OPLS-2005>
9.53510856628418

$$$$
56
                    3D
 Structure written by MMmdl.
156164  0  0  1  0            999 V2000
  -30.6199  -14.7434   20.4025 C   0  0  0  0  0  0
  -30.4414  -12.4373   19.4676 C   0  0  0  0  0  0
  -29.5117  -12.4215   18.2341 C   0  0  0  0  0  0
  -28.0331  -12.2856   18.6553 C   0  0  0  0  0  0
  -27.6357  -13.2113   19.8378 C   0  0  2  0  0  0
  -28.6898  -13.1909   20.9650 C   0  0  0  0  0  0
  -25.2533  -13.8173   20.5724 C   0  0  0  0  0  0
  -24.1795  -13.0446   20.9197 C   0  0  0  0  0  0
  -24.6350  -11.6905   20.8744 C   0  0  0  0  0  0
  -23.9031  -10.4290   21.0387 C   0  0  0  0  0  0
  -24.3595   -9.4219   21.9165 C   0  0  0  0  0  0
  -23.6280   -8.2247   22.0747 C   0  0  0  0  0  0
  -22.4269   -8.0269   21.3525 C   0  0  0  0  0  0
  -21.9872   -9.0245   20.4647 C   0  0  0  0  0  0
  -22.7192  -10.2130   20.3061 C   0  0  0  0  0  0
  -21.6867   -6.0716   22.5254 C   0  0  0  0  0  0
  -21.4009   -6.5619   23.8176 C   0  0  0  0  0  0
  -21.3667   -5.6777   24.9142 C   0  0  0  0  0  0
  -21.6059   -4.3044   24.7199 C   0  0  0  0  0  0
  -21.8839   -3.8131   23.4322 C   0  0  0  0  0  0
  -21.9190   -4.6939   22.3373 C   0  0  0  0  0  0
  -22.7828  -13.5239   21.1850 C   0  0  0  0  0  0
  -22.1678   -4.2129   21.0952 F   0  0  0  0  0  0
  -21.5625   -3.4531   25.7713 F   0  0  0  0  0  0
  -29.9857  -13.5231   20.3593 N   0  0  0  0  0  0
  -26.2917  -12.9317   20.3288 N   0  0  0  0  0  0
  -25.9267  -11.6489   20.5783 N   0  0  0  0  0  0
  -22.0498  -12.8253   22.0442 N   0  0  0  0  0  0
  -25.4331  -15.1899   20.4162 N   0  0  0  0  0  0
  -31.8429  -14.8119   20.2441 O   0  0  0  0  0  0
  -21.6658   -6.8855   21.4215 O   0  0  0  0  0  0
  -22.3511  -14.5537   20.6681 O   0  0  0  0  0  0
  -24.6298  -31.8562   23.2001 C   0  0  0  0  0  0
  -25.9139  -32.4757   23.8336 C   0  0  1  0  0  0
  -27.2219  -27.2743   20.1272 C   0  0  0  0  0  0
  -25.5946  -33.8556   24.2254 N   0  0  0  0  0  0
  -23.4262  -30.4814   21.5424 C   0  0  2  0  0  0
  -24.8736  -28.9350   20.1106 C   0  0  0  0  0  0
  -22.7492  -29.4615   22.4896 C   0  0  0  0  0  0
  -18.0294  -28.1373   22.8489 C   0  0  0  0  0  0
  -24.1493  -36.7291   23.2630 C   0  0  0  0  0  0
  -25.9743  -30.7721   21.3823 C   0  0  0  0  0  0
  -26.0466  -29.3989   20.7198 C   0  0  0  0  0  0
  -27.2230  -28.5830   20.7152 C   0  0  0  0  0  0
  -26.0191  -26.8793   19.4915 C   0  0  0  0  0  0
  -24.8657  -27.6824   19.4837 C   0  0  0  0  0  0
  -23.6453  -29.8211   20.1567 C   0  0  0  0  0  0
  -25.4115  -36.3068   24.0317 C   0  0  1  0  0  0
  -20.5895  -28.3693   23.1260 C   0  0  2  0  0  0
  -20.6781  -26.9413   22.5394 C   0  0  0  0  0  0
  -19.5757  -26.6377   21.5202 C   0  0  0  0  0  0
  -18.1941  -26.7913   22.1624 C   0  0  0  0  0  0
  -19.1545  -28.8851   23.2867 C   0  0  0  0  0  0
  -18.9473  -30.1448   23.8894 C   0  0  0  0  0  0
  -17.6473  -30.6580   24.0560 C   0  0  0  0  0  0
  -25.9060  -34.9436   23.5088 C   0  0  0  0  0  0
  -16.5362  -29.9082   23.6325 C   0  0  0  0  0  0
  -16.7280  -28.6489   23.0361 C   0  0  0  0  0  0
  -26.4499  -31.6585   25.0731 C   0  0  0  0  0  0
  -25.3728  -31.3769   26.1469 C   0  0  0  0  0  0
  -27.0338  -30.2984   24.6246 C   0  0  0  0  0  0
  -27.6043  -32.4329   25.7514 C   0  0  0  0  0  0
  -27.5578  -37.1793   24.8450 C   0  0  0  0  0  0
  -21.4197  -29.3051   22.3648 N   0  0  0  0  0  0
  -26.4281  -37.3773   23.9410 N   0  0  0  0  0  0
  -24.6957  -31.0540   22.0977 N   0  0  0  0  0  0
  -23.4197  -28.8141   23.2980 O   0  0  0  0  0  0
  -28.3173  -26.3784   20.1862 O   0  0  0  0  0  0
  -26.5632  -34.8909   22.4653 O   0  0  0  0  0  0
  -23.5449  -32.1381   23.7312 O   0  0  0  0  0  0
  -29.0033  -19.7324   21.1063 C   0  0  0  0  0  0
  -29.8067  -18.6318   20.6052 C   0  0  0  0  0  0
  -29.2084  -20.8545   20.3086 C   0  0  0  0  0  0
  -30.6819  -21.0959   18.2297 C   0  0  0  0  0  0
  -29.2697  -16.1849   18.9823 C   0  0  0  0  0  0
  -29.9822  -17.1508   21.1554 C   0  0  0  0  0  0
  -28.4400  -22.2291   20.2368 C   0  0  0  0  0  0
  -29.0724  -23.7111   20.3288 C   0  0  0  0  0  0
  -28.0220  -24.9113   20.0823 C   0  0  0  0  0  0
  -30.5309  -19.1019   19.5945 N   0  0  0  0  0  0
  -30.1419  -20.3997   19.3827 N   0  0  0  0  0  0
  -29.8428  -15.8939   20.3022 N   0  0  0  0  0  0
  -31.4786  -12.5744   19.1544 H   0  0  0  0  0  0
  -30.4059  -11.4827   19.9926 H   0  0  0  0  0  0
  -29.7819  -11.5850   17.5883 H   0  0  0  0  0  0
  -29.6610  -13.3146   17.6281 H   0  0  0  0  0  0
  -27.8871  -11.2463   18.9491 H   0  0  0  0  0  0
  -27.3784  -12.4535   17.7979 H   0  0  0  0  0  0
  -27.6004  -14.2154   19.4277 H   0  0  0  0  0  0
  -28.7296  -12.2140   21.4466 H   0  0  0  0  0  0
  -28.4319  -13.9174   21.7378 H   0  0  0  0  0  0
  -25.2741   -9.5710   22.4728 H   0  0  0  0  0  0
  -24.0000   -7.4647   22.7469 H   0  0  0  0  0  0
  -21.0801   -8.8751   19.8964 H   0  0  0  0  0  0
  -22.3623  -10.9660   19.6185 H   0  0  0  0  0  0
  -21.2019   -7.6130   23.9664 H   0  0  0  0  0  0
  -21.1478   -6.0511   25.9036 H   0  0  0  0  0  0
  -22.0616   -2.7593   23.2819 H   0  0  0  0  0  0
  -22.4127  -11.9902   22.4812 H   0  0  0  0  0  0
  -21.1121  -13.1269   22.2691 H   0  0  0  0  0  0
  -24.6832  -15.8606   20.5426 H   0  0  0  0  0  0
  -26.3053  -15.6166   20.1331 H   0  0  0  0  0  0
  -26.7203  -32.5396   23.1068 H   0  0  0  0  0  0
  -25.0093  -33.9694   25.0397 H   0  0  0  0  0  0
  -22.7225  -31.3042   21.3978 H   0  0  0  0  0  0
  -23.3755  -35.9621   23.3269 H   0  0  0  0  0  0
  -24.3596  -36.8941   22.2052 H   0  0  0  0  0  0
  -23.7244  -37.6479   23.6675 H   0  0  0  0  0  0
  -26.1198  -31.5363   20.6183 H   0  0  0  0  0  0
  -26.8471  -30.8108   22.0218 H   0  0  0  0  0  0
  -28.1171  -28.9353   21.2093 H   0  0  0  0  0  0
  -25.9253  -25.9223   19.0037 H   0  0  0  0  0  0
  -23.9700  -27.3193   18.9978 H   0  0  0  0  0  0
  -23.7727  -30.5994   19.4036 H   0  0  0  0  0  0
  -22.7642  -29.2564   19.8478 H   0  0  0  0  0  0
  -25.1295  -36.1902   25.0809 H   0  0  0  0  0  0
  -20.9995  -28.3272   24.1375 H   0  0  0  0  0  0
  -20.5682  -26.2310   23.3599 H   0  0  0  0  0  0
  -21.6650  -26.7437   22.1186 H   0  0  0  0  0  0
  -19.6921  -25.6285   21.1239 H   0  0  0  0  0  0
  -19.6680  -27.3179   20.6727 H   0  0  0  0  0  0
  -17.4201  -26.6643   21.4042 H   0  0  0  0  0  0
  -18.0359  -26.0055   22.9025 H   0  0  0  0  0  0
  -19.7954  -30.7255   24.2266 H   0  0  0  0  0  0
  -17.5036  -31.6269   24.5147 H   0  0  0  0  0  0
  -15.5363  -30.2989   23.7651 H   0  0  0  0  0  0
  -15.8675  -28.0805   22.7093 H   0  0  0  0  0  0
  -24.5867  -30.7151   25.7813 H   0  0  0  0  0  0
  -24.8979  -32.2972   26.4886 H   0  0  0  0  0  0
  -25.8052  -30.8943   27.0249 H   0  0  0  0  0  0
  -26.2934  -29.6739   24.1242 H   0  0  0  0  0  0
  -27.3959  -29.7237   25.4783 H   0  0  0  0  0  0
  -27.8838  -30.4220   23.9533 H   0  0  0  0  0  0
  -27.2629  -33.3625   26.2075 H   0  0  0  0  0  0
  -28.3873  -32.6901   25.0369 H   0  0  0  0  0  0
  -28.0692  -31.8477   26.5457 H   0  0  0  0  0  0
  -28.2562  -38.0122   24.7545 H   0  0  0  0  0  0
  -28.1114  -36.2662   24.6219 H   0  0  0  0  0  0
  -27.2313  -37.1363   25.8854 H   0  0  0  0  0  0
  -20.9369  -29.8811   21.6887 H   0  0  0  0  0  0
  -26.0156  -38.2833   24.1448 H   0  0  0  0  0  0
  -28.3112  -19.6830   21.9357 H   0  0  0  0  0  0
  -31.1934  -22.0041   18.5458 H   0  0  0  0  0  0
  -29.8701  -21.3618   17.5526 H   0  0  0  0  0  0
  -31.3882  -20.4610   17.6902 H   0  0  0  0  0  0
  -28.2714  -16.6100   19.0784 H   0  0  0  0  0  0
  -29.1952  -15.3142   18.3362 H   0  0  0  0  0  0
  -29.8946  -16.8909   18.4364 H   0  0  0  0  0  0
  -29.2386  -17.0189   21.9404 H   0  0  0  0  0  0
  -30.9344  -17.0930   21.6835 H   0  0  0  0  0  0
  -27.6779  -22.1893   21.0154 H   0  0  0  0  0  0
  -27.8642  -22.2027   19.3116 H   0  0  0  0  0  0
  -29.8745  -23.8075   19.5966 H   0  0  0  0  0  0
  -29.5424  -23.8355   21.3058 H   0  0  0  0  0  0
  -27.1801  -24.7206   20.7525 H   0  0  0  0  0  0
  -27.6505  -24.7395   19.0729 H   0  0  0  0  0  0
  1 25  1  0  0  0
  1 30  2  0  0  0
  1 82  1  0  0  0
  2  3  1  0  0  0
  2 25  1  0  0  0
  2 83  1  0  0  0
  2 84  1  0  0  0
  3  4  1  0  0  0
  3 85  1  0  0  0
  3 86  1  0  0  0
  4  5  1  0  0  0
  4 87  1  0  0  0
  4 88  1  0  0  0
  5  6  1  0  0  0
  5 26  1  0  0  0
  5 89  1  0  0  0
  6 25  1  0  0  0
  6 90  1  0  0  0
  6 91  1  0  0  0
  7  8  2  0  0  0
  7 26  1  0  0  0
  7 29  1  0  0  0
  8  9  1  0  0  0
  8 22  1  0  0  0
  9 10  1  0  0  0
  9 27  2  0  0  0
 10 11  2  0  0  0
 10 15  1  0  0  0
 11 12  1  0  0  0
 11 92  1  0  0  0
 12 13  2  0  0  0
 12 93  1  0  0  0
 13 14  1  0  0  0
 13 31  1  0  0  0
 14 15  2  0  0  0
 14 94  1  0  0  0
 15 95  1  0  0  0
 16 17  2  0  0  0
 16 21  1  0  0  0
 16 31  1  0  0  0
 17 18  1  0  0  0
 17 96  1  0  0  0
 18 19  2  0  0  0
 18 97  1  0  0  0
 19 20  1  0  0  0
 19 24  1  0  0  0
 20 21  2  0  0  0
 20 98  1  0  0  0
 21 23  1  0  0  0
 22 28  1  0  0  0
 22 32  2  0  0  0
 26 27  1  0  0  0
 28 99  1  0  0  0
 28100  1  0  0  0
 29101  1  0  0  0
 29102  1  0  0  0
 33 34  1  0  0  0
 33 66  1  0  0  0
 33 70  2  0  0  0
 34 36  1  0  0  0
 34 59  1  0  0  0
 34103  1  0  0  0
 35 44  2  0  0  0
 35 45  1  0  0  0
 35 68  1  0  0  0
 36 56  1  0  0  0
 36104  1  0  0  0
 37 39  1  0  0  0
 37 47  1  0  0  0
 37 66  1  0  0  0
 37105  1  0  0  0
 38 43  2  0  0  0
 38 46  1  0  0  0
 38 47  1  0  0  0
 39 64  1  0  0  0
 39 67  2  0  0  0
 40 52  1  0  0  0
 40 53  2  0  0  0
 40 58  1  0  0  0
 41106  1  0  0  0
 41107  1  0  0  0
 41108  1  0  0  0
 41 48  1  0  0  0
 42 43  1  0  0  0
 42 66  1  0  0  0
 42109  1  0  0  0
 42110  1  0  0  0
 43 44  1  0  0  0
 44111  1  0  0  0
 45 46  2  0  0  0
 45112  1  0  0  0
 46113  1  0  0  0
 47114  1  0  0  0
 47115  1  0  0  0
 48 56  1  0  0  0
 48 65  1  0  0  0
 48116  1  0  0  0
 49 50  1  0  0  0
 49 53  1  0  0  0
 49 64  1  0  0  0
 49117  1  0  0  0
 50 51  1  0  0  0
 50118  1  0  0  0
 50119  1  0  0  0
 51 52  1  0  0  0
 51120  1  0  0  0
 51121  1  0  0  0
 52122  1  0  0  0
 52123  1  0  0  0
 53 54  1  0  0  0
 54 55  2  0  0  0
 54124  1  0  0  0
 55 57  1  0  0  0
 55125  1  0  0  0
 56 69  2  0  0  0
 57 58  2  0  0  0
 57126  1  0  0  0
 58127  1  0  0  0
 59 60  1  0  0  0
 59 61  1  0  0  0
 59 62  1  0  0  0
 60128  1  0  0  0
 60129  1  0  0  0
 60130  1  0  0  0
 61131  1  0  0  0
 61132  1  0  0  0
 61133  1  0  0  0
 62134  1  0  0  0
 62135  1  0  0  0
 62136  1  0  0  0
 63 65  1  0  0  0
 63137  1  0  0  0
 63138  1  0  0  0
 63139  1  0  0  0
 64140  1  0  0  0
 65141  1  0  0  0
 68 79  1  0  0  0
 71 72  1  0  0  0
 71 73  2  0  0  0
 71142  1  0  0  0
 72 76  1  0  0  0
 72 80  2  0  0  0
 73 77  1  0  0  0
 73 81  1  0  0  0
 74 81  1  0  0  0
 74143  1  0  0  0
 74144  1  0  0  0
 74145  1  0  0  0
 75 82  1  0  0  0
 75146  1  0  0  0
 75147  1  0  0  0
 75148  1  0  0  0
 76 82  1  0  0  0
 76149  1  0  0  0
 76150  1  0  0  0
 77 78  1  0  0  0
 77151  1  0  0  0
 77152  1  0  0  0
 78 79  1  0  0  0
 78153  1  0  0  0
 78154  1  0  0  0
 79155  1  0  0  0
 79156  1  0  0  0
 80 81  1  0  0  0
M  ISO  4   1 100  68 101  79 101  82 100
M  END
> <chiral flag>
0

> <version>
0

> <s_m_source_file>
/data/baiqing/PycharmProjects/Reinvent-master-3.2/result/LINK_invent/BTK/process_docking_weight1_custom_sum_contain_oxygen_bond_distance_aromatic_linkinvent_7_9_3/rearranged_h_0056.sdf

> <i_m_source_file_index>
55

> <r_mmod_Potential_Energy-OPLS-2005>
204.859359741211

> <r_mmod_Stretch_Energy-OPLS-2005>
108.82347869873

> <r_mmod_Bend_Energy-OPLS-2005>
172.608062744141

> <r_mmod_Torsional_Energy-OPLS-2005>
292.790588378906

> <r_mmod_Improper_Torsional_Energy-OPLS-2005>
10.6479501724243

> <r_mmod_Van_der_Waal_Energy-OPLS-2005>
122.677200317383

> <r_mmod_Electrostatic_Energy-OPLS-2005>
-377.394256591797

> <r_mmod_Solvation_Energy-OPLS-2005>
-216.517578125

> <b_mmod_Minimization_Converged-OPLS-2005>
0

> <r_mmod_RMS_Derivative-OPLS-2005>
3.0433886051178

$$$$
57
                    3D
 Structure written by MMmdl.
163171  0  0  1  0            999 V2000
  -30.5819  -14.7476   20.4998 C   0  0  0  0  0  0
  -30.4489  -12.4551   19.4829 C   0  0  0  0  0  0
  -29.5247  -12.5203   18.2433 C   0  0  0  0  0  0
  -28.0500  -12.3235   18.6492 C   0  0  0  0  0  0
  -27.6466  -13.2186   19.8506 C   0  0  2  0  0  0
  -28.6866  -13.1346   20.9895 C   0  0  0  0  0  0
  -25.2547  -13.8165   20.5663 C   0  0  0  0  0  0
  -24.1828  -13.0421   20.9195 C   0  0  0  0  0  0
  -24.6403  -11.6894   20.8716 C   0  0  0  0  0  0
  -23.9069  -10.4271   21.0387 C   0  0  0  0  0  0
  -24.3624   -9.4206   21.9181 C   0  0  0  0  0  0
  -23.6304   -8.2243   22.0762 C   0  0  0  0  0  0
  -22.4278   -8.0270   21.3543 C   0  0  0  0  0  0
  -21.9908   -9.0231   20.4636 C   0  0  0  0  0  0
  -22.7233  -10.2122   20.3040 C   0  0  0  0  0  0
  -21.6862   -6.0727   22.5272 C   0  0  0  0  0  0
  -21.4011   -6.5633   23.8199 C   0  0  0  0  0  0
  -21.3671   -5.6795   24.9174 C   0  0  0  0  0  0
  -21.6069   -4.3055   24.7233 C   0  0  0  0  0  0
  -21.8821   -3.8141   23.4348 C   0  0  0  0  0  0
  -21.9192   -4.6955   22.3398 C   0  0  0  0  0  0
  -22.7851  -13.5208   21.1884 C   0  0  0  0  0  0
  -22.1658   -4.2145   21.0975 F   0  0  0  0  0  0
  -21.5647   -3.4537   25.7743 F   0  0  0  0  0  0
  -29.9997  -13.4972   20.4340 N   0  0  0  0  0  0
  -26.2954  -12.9341   20.3230 N   0  0  0  0  0  0
  -25.9323  -11.6495   20.5717 N   0  0  0  0  0  0
  -22.0498  -12.8176   22.0414 N   0  0  0  0  0  0
  -25.4274  -15.1893   20.4058 N   0  0  0  0  0  0
  -31.7401  -14.8896   20.0978 O   0  0  0  0  0  0
  -21.6665   -6.8855   21.4223 O   0  0  0  0  0  0
  -22.3520  -14.5509   20.6740 O   0  0  0  0  0  0
  -24.6310  -31.8556   23.1986 C   0  0  0  0  0  0
  -25.9150  -32.4746   23.8326 C   0  0  1  0  0  0
  -27.2274  -27.2713   20.1371 C   0  0  0  0  0  0
  -25.5958  -33.8559   24.2264 N   0  0  0  0  0  0
  -23.4269  -30.4763   21.5412 C   0  0  2  0  0  0
  -24.8768  -28.9221   20.1130 C   0  0  0  0  0  0
  -22.7494  -29.4602   22.4912 C   0  0  0  0  0  0
  -18.0285  -28.1373   22.8480 C   0  0  0  0  0  0
  -24.1492  -36.7280   23.2638 C   0  0  0  0  0  0
  -25.9712  -30.7717   21.3778 C   0  0  0  0  0  0
  -26.0461  -29.3944   20.7219 C   0  0  0  0  0  0
  -27.2254  -28.5843   20.7172 C   0  0  0  0  0  0
  -26.0364  -26.8626   19.4971 C   0  0  0  0  0  0
  -24.8782  -27.6659   19.4861 C   0  0  0  0  0  0
  -23.6467  -29.8077   20.1578 C   0  0  0  0  0  0
  -25.4122  -36.3069   24.0326 C   0  0  1  0  0  0
  -20.5886  -28.3698   23.1263 C   0  0  2  0  0  0
  -20.6783  -26.9418   22.5401 C   0  0  0  0  0  0
  -19.5764  -26.6385   21.5202 C   0  0  0  0  0  0
  -18.1939  -26.7921   22.1609 C   0  0  0  0  0  0
  -19.1538  -28.8851   23.2870 C   0  0  0  0  0  0
  -18.9461  -30.1448   23.8896 C   0  0  0  0  0  0
  -17.6458  -30.6576   24.0558 C   0  0  0  0  0  0
  -25.9064  -34.9439   23.5091 C   0  0  0  0  0  0
  -16.5353  -29.9075   23.6324 C   0  0  0  0  0  0
  -16.7269  -28.6488   23.0352 C   0  0  0  0  0  0
  -26.4525  -31.6570   25.0711 C   0  0  0  0  0  0
  -25.3749  -31.3710   26.1424 C   0  0  0  0  0  0
  -27.0381  -30.2982   24.6205 C   0  0  0  0  0  0
  -27.6073  -32.4320   25.7495 C   0  0  0  0  0  0
  -27.5583  -37.1796   24.8467 C   0  0  0  0  0  0
  -21.4197  -29.3048   22.3655 N   0  0  0  0  0  0
  -26.4287  -37.3770   23.9409 N   0  0  0  0  0  0
  -24.6946  -31.0529   22.0958 N   0  0  0  0  0  0
  -23.4199  -28.8149   23.3020 O   0  0  0  0  0  0
  -28.3457  -26.4094   20.1557 O   0  0  0  0  0  0
  -26.5619  -34.8914   22.4651 O   0  0  0  0  0  0
  -23.5463  -32.1385   23.7288 O   0  0  0  0  0  0
  -29.6411  -21.2285   19.6547 C   0  0  0  0  0  0
  -28.6938  -21.8388   21.4770 C   0  0  0  0  0  0
  -29.3813  -20.0513   20.3799 C   0  0  0  0  0  0
  -31.3077  -25.6579   20.2737 C   0  0  0  0  0  0
  -29.4382  -24.0095   18.4556 C   0  0  0  0  0  0
  -31.6539  -17.7208   21.1167 C   0  0  0  0  0  0
  -29.5425  -18.5136   19.9960 C   0  0  0  0  0  0
  -29.7285  -16.0294   20.9774 C   0  0  0  0  0  0
  -30.7052  -24.2910   20.6468 C   0  0  0  0  0  0
  -28.1911  -24.9373   20.4418 C   0  0  0  0  0  0
  -29.3495  -23.8888   19.9926 C   0  0  1  0  0  0
  -28.7757  -20.4944   21.5641 N   0  0  0  0  0  0
  -29.1696  -22.3948   20.3425 N   0  0  0  0  0  0
  -30.1984  -17.5106   20.9535 N   0  3  1  0  0  0
  -31.4908  -12.5893   19.1876 H   0  0  0  0  0  0
  -30.3921  -11.4699   19.9458 H   0  0  0  0  0  0
  -29.8173  -11.7610   17.5173 H   0  0  0  0  0  0
  -29.6452  -13.4838   17.7448 H   0  0  0  0  0  0
  -27.9195  -11.2721   18.9114 H   0  0  0  0  0  0
  -27.3937  -12.5092   17.7990 H   0  0  0  0  0  0
  -27.6419  -14.2403   19.4734 H   0  0  0  0  0  0
  -28.7214  -12.1254   21.4041 H   0  0  0  0  0  0
  -28.4004  -13.7835   21.8179 H   0  0  0  0  0  0
  -25.2780   -9.5718   22.4748 H   0  0  0  0  0  0
  -24.0040   -7.4649   22.7496 H   0  0  0  0  0  0
  -21.0850   -8.8722   19.8926 H   0  0  0  0  0  0
  -22.3683  -10.9647   19.6150 H   0  0  0  0  0  0
  -21.1986   -7.6139   23.9690 H   0  0  0  0  0  0
  -21.1507   -6.0534   25.9074 H   0  0  0  0  0  0
  -22.0592   -2.7602   23.2855 H   0  0  0  0  0  0
  -22.4135  -11.9838   22.4794 H   0  0  0  0  0  0
  -21.1104  -13.1176   22.2594 H   0  0  0  0  0  0
  -24.6651  -15.8482   20.5174 H   0  0  0  0  0  0
  -26.2698  -15.6184   20.0452 H   0  0  0  0  0  0
  -26.7209  -32.5396   23.1063 H   0  0  0  0  0  0
  -25.0139  -33.9700   25.0426 H   0  0  0  0  0  0
  -22.7235  -31.2983   21.3937 H   0  0  0  0  0  0
  -23.3764  -35.9598   23.3280 H   0  0  0  0  0  0
  -24.3585  -36.8930   22.2058 H   0  0  0  0  0  0
  -23.7236  -37.6470   23.6677 H   0  0  0  0  0  0
  -26.1099  -31.5327   20.6092 H   0  0  0  0  0  0
  -26.8487  -30.8178   22.0111 H   0  0  0  0  0  0
  -28.1231  -28.9492   21.1964 H   0  0  0  0  0  0
  -25.9852  -25.9081   18.9940 H   0  0  0  0  0  0
  -23.9878  -27.3040   18.9909 H   0  0  0  0  0  0
  -23.7707  -30.5836   19.4011 H   0  0  0  0  0  0
  -22.7656  -29.2397   19.8530 H   0  0  0  0  0  0
  -25.1304  -36.1908   25.0812 H   0  0  0  0  0  0
  -20.9968  -28.3274   24.1389 H   0  0  0  0  0  0
  -20.5686  -26.2309   23.3605 H   0  0  0  0  0  0
  -21.6652  -26.7459   22.1196 H   0  0  0  0  0  0
  -19.6940  -25.6298   21.1235 H   0  0  0  0  0  0
  -19.6700  -27.3191   20.6728 H   0  0  0  0  0  0
  -17.4219  -26.6671   21.4000 H   0  0  0  0  0  0
  -18.0337  -26.0044   22.8988 H   0  0  0  0  0  0
  -19.7936  -30.7258   24.2277 H   0  0  0  0  0  0
  -17.5013  -31.6255   24.5162 H   0  0  0  0  0  0
  -15.5352  -30.2979   23.7643 H   0  0  0  0  0  0
  -15.8672  -28.0802   22.7081 H   0  0  0  0  0  0
  -24.5919  -30.7069   25.7740 H   0  0  0  0  0  0
  -24.8946  -32.2871   26.4864 H   0  0  0  0  0  0
  -25.8061  -30.8868   27.0189 H   0  0  0  0  0  0
  -26.2955  -29.6696   24.1263 H   0  0  0  0  0  0
  -27.4092  -29.7280   25.4735 H   0  0  0  0  0  0
  -27.8825  -30.4253   23.9424 H   0  0  0  0  0  0
  -27.2666  -33.3616   26.2067 H   0  0  0  0  0  0
  -28.3885  -32.6888   25.0331 H   0  0  0  0  0  0
  -28.0727  -31.8447   26.5419 H   0  0  0  0  0  0
  -28.2591  -38.0102   24.7520 H   0  0  0  0  0  0
  -28.1085  -36.2635   24.6278 H   0  0  0  0  0  0
  -27.2293  -37.1424   25.8865 H   0  0  0  0  0  0
  -20.9385  -29.8776   21.6862 H   0  0  0  0  0  0
  -26.0167  -38.2837   24.1409 H   0  0  0  0  0  0
  -30.1114  -21.3160   18.6834 H   0  0  0  0  0  0
  -28.3021  -22.4388   22.2868 H   0  0  0  0  0  0
  -32.3009  -25.7677   20.7108 H   0  0  0  0  0  0
  -30.7119  -26.4882   20.6473 H   0  0  0  0  0  0
  -31.4178  -25.7793   19.1972 H   0  0  0  0  0  0
  -29.5496  -25.0485   18.1420 H   0  0  0  0  0  0
  -28.5281  -23.6380   17.9829 H   0  0  0  0  0  0
  -30.2828  -23.4592   18.0423 H   0  0  0  0  0  0
  -31.8634  -18.7692   21.3331 H   0  0  0  0  0  0
  -32.2070  -17.4534   20.2161 H   0  0  0  0  0  0
  -32.0364  -17.1351   21.9532 H   0  0  0  0  0  0
  -30.0627  -18.4343   19.0413 H   0  0  0  0  0  0
  -28.5426  -18.1372   19.7844 H   0  0  0  0  0  0
  -28.7650  -15.9860   20.4734 H   0  0  0  0  0  0
  -29.5008  -15.8343   22.0255 H   0  0  0  0  0  0
  -30.6010  -24.2507   21.7321 H   0  0  0  0  0  0
  -31.4538  -23.5360   20.4026 H   0  0  0  0  0  0
  -28.0503  -24.8522   21.5190 H   0  0  0  0  0  0
  -27.2623  -24.5653   20.0154 H   0  0  0  0  0  0
  -29.8256  -17.8508   21.8268 H   0  0  0  0  0  0
  1 25  1  0  0  0
  1 30  2  0  0  0
  1 78  1  0  0  0
  2  3  1  0  0  0
  2 25  1  0  0  0
  2 85  1  0  0  0
  2 86  1  0  0  0
  3  4  1  0  0  0
  3 87  1  0  0  0
  3 88  1  0  0  0
  4  5  1  0  0  0
  4 89  1  0  0  0
  4 90  1  0  0  0
  5  6  1  0  0  0
  5 26  1  0  0  0
  5 91  1  0  0  0
  6 25  1  0  0  0
  6 92  1  0  0  0
  6 93  1  0  0  0
  7  8  2  0  0  0
  7 26  1  0  0  0
  7 29  1  0  0  0
  8  9  1  0  0  0
  8 22  1  0  0  0
  9 10  1  0  0  0
  9 27  2  0  0  0
 10 11  2  0  0  0
 10 15  1  0  0  0
 11 12  1  0  0  0
 11 94  1  0  0  0
 12 13  2  0  0  0
 12 95  1  0  0  0
 13 14  1  0  0  0
 13 31  1  0  0  0
 14 15  2  0  0  0
 14 96  1  0  0  0
 15 97  1  0  0  0
 16 17  2  0  0  0
 16 21  1  0  0  0
 16 31  1  0  0  0
 17 18  1  0  0  0
 17 98  1  0  0  0
 18 19  2  0  0  0
 18 99  1  0  0  0
 19 20  1  0  0  0
 19 24  1  0  0  0
 20 21  2  0  0  0
 20100  1  0  0  0
 21 23  1  0  0  0
 22 28  1  0  0  0
 22 32  2  0  0  0
 26 27  1  0  0  0
 28101  1  0  0  0
 28102  1  0  0  0
 29103  1  0  0  0
 29104  1  0  0  0
 33 34  1  0  0  0
 33 66  1  0  0  0
 33 70  2  0  0  0
 34 36  1  0  0  0
 34 59  1  0  0  0
 34105  1  0  0  0
 35 44  2  0  0  0
 35 45  1  0  0  0
 35 68  1  0  0  0
 36 56  1  0  0  0
 36106  1  0  0  0
 37 39  1  0  0  0
 37 47  1  0  0  0
 37 66  1  0  0  0
 37107  1  0  0  0
 38 43  2  0  0  0
 38 46  1  0  0  0
 38 47  1  0  0  0
 39 64  1  0  0  0
 39 67  2  0  0  0
 40 52  1  0  0  0
 40 53  2  0  0  0
 40 58  1  0  0  0
 41108  1  0  0  0
 41109  1  0  0  0
 41110  1  0  0  0
 41 48  1  0  0  0
 42 43  1  0  0  0
 42 66  1  0  0  0
 42111  1  0  0  0
 42112  1  0  0  0
 43 44  1  0  0  0
 44113  1  0  0  0
 45 46  2  0  0  0
 45114  1  0  0  0
 46115  1  0  0  0
 47116  1  0  0  0
 47117  1  0  0  0
 48 56  1  0  0  0
 48 65  1  0  0  0
 48118  1  0  0  0
 49 50  1  0  0  0
 49 53  1  0  0  0
 49 64  1  0  0  0
 49119  1  0  0  0
 50 51  1  0  0  0
 50120  1  0  0  0
 50121  1  0  0  0
 51 52  1  0  0  0
 51122  1  0  0  0
 51123  1  0  0  0
 52124  1  0  0  0
 52125  1  0  0  0
 53 54  1  0  0  0
 54 55  2  0  0  0
 54126  1  0  0  0
 55 57  1  0  0  0
 55127  1  0  0  0
 56 69  2  0  0  0
 57 58  2  0  0  0
 57128  1  0  0  0
 58129  1  0  0  0
 59 60  1  0  0  0
 59 61  1  0  0  0
 59 62  1  0  0  0
 60130  1  0  0  0
 60131  1  0  0  0
 60132  1  0  0  0
 61133  1  0  0  0
 61134  1  0  0  0
 61135  1  0  0  0
 62136  1  0  0  0
 62137  1  0  0  0
 62138  1  0  0  0
 63 65  1  0  0  0
 63139  1  0  0  0
 63140  1  0  0  0
 63141  1  0  0  0
 64142  1  0  0  0
 65143  1  0  0  0
 68 80  1  0  0  0
 71 73  2  0  0  0
 71 83  1  0  0  0
 71144  1  0  0  0
 72 82  2  0  0  0
 72 83  1  0  0  0
 72145  1  0  0  0
 73 77  1  0  0  0
 73 82  1  0  0  0
 74 79  1  0  0  0
 74146  1  0  0  0
 74147  1  0  0  0
 74148  1  0  0  0
 75149  1  0  0  0
 75150  1  0  0  0
 75151  1  0  0  0
 75 81  1  0  0  0
 76152  1  0  0  0
 76153  1  0  0  0
 76154  1  0  0  0
 76 84  1  0  0  0
 77 84  1  0  0  0
 77155  1  0  0  0
 77156  1  0  0  0
 78 84  1  0  0  0
 78157  1  0  0  0
 78158  1  0  0  0
 79 81  1  0  0  0
 79159  1  0  0  0
 79160  1  0  0  0
 80 81  1  0  0  0
 80161  1  0  0  0
 80162  1  0  0  0
 81 83  1  0  0  0
 84163  1  0  0  0
M  CHG  1  84   1
M  ISO  4   1 100  68 101  78 100  80 101
M  END
> <chiral flag>
0

> <version>
0

> <s_m_source_file>
/data/baiqing/PycharmProjects/Reinvent-master-3.2/result/LINK_invent/BTK/process_docking_weight1_custom_sum_contain_oxygen_bond_distance_aromatic_linkinvent_7_9_3/rearranged_h_0056.sdf

> <i_m_source_file_index>
56

> <r_mmod_Potential_Energy-OPLS-2005>
-2.32305097579956

> <r_mmod_Stretch_Energy-OPLS-2005>
129.764266967773

> <r_mmod_Bend_Energy-OPLS-2005>
195.503158569336

> <r_mmod_Torsional_Energy-OPLS-2005>
242.372467041016

> <r_mmod_Improper_Torsional_Energy-OPLS-2005>
4.20648431777954

> <r_mmod_Van_der_Waal_Energy-OPLS-2005>
116.722434997559

> <r_mmod_Electrostatic_Energy-OPLS-2005>
-336.929260253906

> <r_mmod_Solvation_Energy-OPLS-2005>
-432.644134521484

> <b_mmod_Minimization_Converged-OPLS-2005>
0

> <r_mmod_RMS_Derivative-OPLS-2005>
2.45852398872375

$$$$
58
                    3D
 Structure written by MMmdl.
157165  0  0  1  0            999 V2000
  -30.6347  -14.6859   20.4049 C   0  0  0  0  0  0
  -30.4417  -12.3945   19.4603 C   0  0  0  0  0  0
  -29.5070  -12.3795   18.2291 C   0  0  0  0  0  0
  -28.0255  -12.2783   18.6483 C   0  0  0  0  0  0
  -27.6392  -13.1977   19.8388 C   0  0  2  0  0  0
  -28.6946  -13.1585   20.9649 C   0  0  0  0  0  0
  -25.2569  -13.8112   20.5711 C   0  0  0  0  0  0
  -24.1818  -13.0416   20.9219 C   0  0  0  0  0  0
  -24.6352  -11.6872   20.8782 C   0  0  0  0  0  0
  -23.9018  -10.4276   21.0440 C   0  0  0  0  0  0
  -24.3590   -9.4192   21.9200 C   0  0  0  0  0  0
  -23.6283   -8.2224   22.0755 C   0  0  0  0  0  0
  -22.4264   -8.0270   21.3549 C   0  0  0  0  0  0
  -21.9889   -9.0234   20.4650 C   0  0  0  0  0  0
  -22.7202  -10.2122   20.3073 C   0  0  0  0  0  0
  -21.6840   -6.0732   22.5281 C   0  0  0  0  0  0
  -21.4004   -6.5633   23.8212 C   0  0  0  0  0  0
  -21.3659   -5.6789   24.9173 C   0  0  0  0  0  0
  -21.6048   -4.3054   24.7218 C   0  0  0  0  0  0
  -21.8825   -3.8143   23.4341 C   0  0  0  0  0  0
  -21.9189   -4.6962   22.3403 C   0  0  0  0  0  0
  -22.7852  -13.5239   21.1870 C   0  0  0  0  0  0
  -22.1672   -4.2153   21.0977 F   0  0  0  0  0  0
  -21.5627   -3.4544   25.7735 F   0  0  0  0  0  0
  -29.9940  -13.4739   20.3599 N   0  0  0  0  0  0
  -26.2941  -12.9238   20.3297 N   0  0  0  0  0  0
  -25.9266  -11.6424   20.5792 N   0  0  0  0  0  0
  -22.0493  -12.8246   22.0433 N   0  0  0  0  0  0
  -25.4334  -15.1833   20.4138 N   0  0  0  0  0  0
  -31.8585  -14.7624   20.2664 O   0  0  0  0  0  0
  -21.6631   -6.8871   21.4239 O   0  0  0  0  0  0
  -22.3552  -14.5544   20.6703 O   0  0  0  0  0  0
  -24.6235  -31.8609   23.2028 C   0  0  0  0  0  0
  -25.9088  -32.4787   23.8349 C   0  0  1  0  0  0
  -27.2299  -27.3362   20.1280 C   0  0  0  0  0  0
  -25.5913  -33.8587   24.2283 N   0  0  0  0  0  0
  -23.4174  -30.4829   21.5442 C   0  0  2  0  0  0
  -24.8649  -28.9383   20.1119 C   0  0  0  0  0  0
  -22.7464  -29.4625   22.4939 C   0  0  0  0  0  0
  -18.0286  -28.1393   22.8488 C   0  0  0  0  0  0
  -24.1488  -36.7302   23.2641 C   0  0  0  0  0  0
  -25.9550  -30.7987   21.3696 C   0  0  0  0  0  0
  -26.0312  -29.4263   20.7149 C   0  0  0  0  0  0
  -27.2157  -28.6371   20.7118 C   0  0  0  0  0  0
  -26.0424  -26.8937   19.5011 C   0  0  0  0  0  0
  -24.8719  -27.6773   19.4952 C   0  0  0  0  0  0
  -23.6312  -29.8158   20.1593 C   0  0  0  0  0  0
  -25.4112  -36.3093   24.0333 C   0  0  1  0  0  0
  -20.5883  -28.3689   23.1299 C   0  0  2  0  0  0
  -20.6776  -26.9414   22.5418 C   0  0  0  0  0  0
  -19.5751  -26.6389   21.5222 C   0  0  0  0  0  0
  -18.1930  -26.7935   22.1626 C   0  0  0  0  0  0
  -19.1538  -28.8857   23.2889 C   0  0  0  0  0  0
  -18.9459  -30.1459   23.8903 C   0  0  0  0  0  0
  -17.6462  -30.6595   24.0566 C   0  0  0  0  0  0
  -25.9043  -34.9460   23.5107 C   0  0  0  0  0  0
  -16.5354  -29.9094   23.6335 C   0  0  0  0  0  0
  -16.7273  -28.6515   23.0350 C   0  0  0  0  0  0
  -26.4478  -31.6597   25.0719 C   0  0  0  0  0  0
  -25.3726  -31.3724   26.1457 C   0  0  0  0  0  0
  -27.0322  -30.3031   24.6149 C   0  0  0  0  0  0
  -27.6048  -32.4329   25.7484 C   0  0  0  0  0  0
  -27.5578  -37.1804   24.8464 C   0  0  0  0  0  0
  -21.4179  -29.3041   22.3687 N   0  0  0  0  0  0
  -26.4290  -37.3783   23.9405 N   0  0  0  0  0  0
  -24.6842  -31.0634   22.0969 N   0  0  0  0  0  0
  -23.4198  -28.8175   23.3019 O   0  0  0  0  0  0
  -28.3602  -26.5125   20.1920 O   0  0  0  0  0  0
  -26.5618  -34.8922   22.4677 O   0  0  0  0  0  0
  -23.5406  -32.1396   23.7372 O   0  0  0  0  0  0
  -28.5032  -20.6395   21.7223 C   0  0  0  0  0  0
  -29.2540  -19.8052   20.8470 C   0  0  0  0  0  0
  -30.0299  -21.7615   19.8114 C   0  0  0  0  0  0
  -29.2596  -22.5992   20.6791 C   0  0  0  0  0  0
  -30.9640  -22.3394   18.7674 C   0  0  0  0  0  0
  -29.3626  -16.0310   18.8729 C   0  0  0  0  0  0
  -29.0012  -18.2622   20.7661 C   0  0  0  0  0  0
  -29.3603  -24.1692   20.6968 C   0  0  0  0  0  0
  -30.1902  -17.1950   20.8001 C   0  0  0  0  0  0
  -28.1742  -25.0483   20.1331 C   0  0  0  0  0  0
  -28.5030  -22.0063   21.6430 N   0  0  0  0  0  0
  -30.0111  -20.3925   19.8808 N   0  0  0  0  0  0
  -29.8554  -15.8228   20.2494 N   0  0  0  0  0  0
  -31.4773  -12.5269   19.1418 H   0  0  0  0  0  0
  -30.4050  -11.4360   19.9806 H   0  0  0  0  0  0
  -29.7579  -11.5243   17.6010 H   0  0  0  0  0  0
  -29.6731  -13.2432   17.5922 H   0  0  0  0  0  0
  -27.8505  -11.2389   18.9283 H   0  0  0  0  0  0
  -27.3768  -12.4702   17.7929 H   0  0  0  0  0  0
  -27.6084  -14.2012   19.4335 H   0  0  0  0  0  0
  -28.7236  -12.1796   21.4458 H   0  0  0  0  0  0
  -28.4486  -13.8825   21.7428 H   0  0  0  0  0  0
  -25.2734   -9.5679   22.4765 H   0  0  0  0  0  0
  -24.0003   -7.4610   22.7454 H   0  0  0  0  0  0
  -21.0830   -8.8737   19.8945 H   0  0  0  0  0  0
  -22.3659  -10.9663   19.6186 H   0  0  0  0  0  0
  -21.1996   -7.6140   23.9719 H   0  0  0  0  0  0
  -21.1480   -6.0517   25.9078 H   0  0  0  0  0  0
  -22.0606   -2.7609   23.2837 H   0  0  0  0  0  0
  -22.4089  -11.9893   22.4808 H   0  0  0  0  0  0
  -21.1107  -13.1270   22.2613 H   0  0  0  0  0  0
  -24.6747  -15.8446   20.5348 H   0  0  0  0  0  0
  -26.3006  -15.6207   20.1294 H   0  0  0  0  0  0
  -26.7160  -32.5465   23.1103 H   0  0  0  0  0  0
  -25.0043  -33.9727   25.0417 H   0  0  0  0  0  0
  -22.7105  -31.3030   21.4008 H   0  0  0  0  0  0
  -23.3747  -35.9638   23.3311 H   0  0  0  0  0  0
  -24.3576  -36.8913   22.2053 H   0  0  0  0  0  0
  -23.7245  -37.6508   23.6655 H   0  0  0  0  0  0
  -26.0792  -31.5613   20.5989 H   0  0  0  0  0  0
  -26.8391  -30.8528   21.9931 H   0  0  0  0  0  0
  -28.1103  -29.0050   21.1947 H   0  0  0  0  0  0
  -25.9965  -25.9271   19.0208 H   0  0  0  0  0  0
  -23.9787  -27.2968   19.0184 H   0  0  0  0  0  0
  -23.7464  -30.5920   19.4022 H   0  0  0  0  0  0
  -22.7538  -29.2415   19.8573 H   0  0  0  0  0  0
  -25.1289  -36.1942   25.0827 H   0  0  0  0  0  0
  -20.9976  -28.3264   24.1417 H   0  0  0  0  0  0
  -20.5690  -26.2292   23.3609 H   0  0  0  0  0  0
  -21.6645  -26.7450   22.1200 H   0  0  0  0  0  0
  -19.6911  -25.6299   21.1248 H   0  0  0  0  0  0
  -19.6698  -27.3202   20.6754 H   0  0  0  0  0  0
  -17.4198  -26.6690   21.4029 H   0  0  0  0  0  0
  -18.0327  -26.0080   22.9024 H   0  0  0  0  0  0
  -19.7936  -30.7276   24.2276 H   0  0  0  0  0  0
  -17.5017  -31.6274   24.5167 H   0  0  0  0  0  0
  -15.5356  -30.3000   23.7657 H   0  0  0  0  0  0
  -15.8670  -28.0839   22.7061 H   0  0  0  0  0  0
  -24.5897  -30.7074   25.7788 H   0  0  0  0  0  0
  -24.8919  -32.2889   26.4893 H   0  0  0  0  0  0
  -25.8064  -30.8894   27.0222 H   0  0  0  0  0  0
  -26.2886  -29.6788   24.1185 H   0  0  0  0  0  0
  -27.4050  -29.7273   25.4627 H   0  0  0  0  0  0
  -27.8737  -30.4331   23.9343 H   0  0  0  0  0  0
  -27.2659  -33.3622   26.2068 H   0  0  0  0  0  0
  -28.3848  -32.6901   25.0310 H   0  0  0  0  0  0
  -28.0724  -31.8453   26.5388 H   0  0  0  0  0  0
  -28.2599  -38.0098   24.7509 H   0  0  0  0  0  0
  -28.1072  -36.2629   24.6293 H   0  0  0  0  0  0
  -27.2297  -37.1460   25.8868 H   0  0  0  0  0  0
  -20.9353  -29.8751   21.6887 H   0  0  0  0  0  0
  -26.0177  -38.2857   24.1416 H   0  0  0  0  0  0
  -27.8434  -20.2065   22.4607 H   0  0  0  0  0  0
  -31.8306  -22.7905   19.2517 H   0  0  0  0  0  0
  -30.4605  -23.1031   18.1749 H   0  0  0  0  0  0
  -31.3246  -21.5686   18.0858 H   0  0  0  0  0  0
  -29.8092  -16.9090   18.4036 H   0  0  0  0  0  0
  -28.2840  -16.1769   18.8602 H   0  0  0  0  0  0
  -29.5843  -15.2150   18.1943 H   0  0  0  0  0  0
  -28.4144  -18.1604   19.8564 H   0  0  0  0  0  0
  -28.3037  -17.9985   21.5626 H   0  0  0  0  0  0
  -30.2719  -24.4668   20.1827 H   0  0  0  0  0  0
  -29.5287  -24.4612   21.7342 H   0  0  0  0  0  0
  -30.5531  -17.0941   21.8238 H   0  0  0  0  0  0
  -31.0355  -17.5887   20.2328 H   0  0  0  0  0  0
  -27.2741  -24.7777   20.6883 H   0  0  0  0  0  0
  -27.9981  -24.7639   19.0954 H   0  0  0  0  0  0
  1 25  1  0  0  0
  1 30  2  0  0  0
  1 83  1  0  0  0
  2  3  1  0  0  0
  2 25  1  0  0  0
  2 84  1  0  0  0
  2 85  1  0  0  0
  3  4  1  0  0  0
  3 86  1  0  0  0
  3 87  1  0  0  0
  4  5  1  0  0  0
  4 88  1  0  0  0
  4 89  1  0  0  0
  5  6  1  0  0  0
  5 26  1  0  0  0
  5 90  1  0  0  0
  6 25  1  0  0  0
  6 91  1  0  0  0
  6 92  1  0  0  0
  7  8  2  0  0  0
  7 26  1  0  0  0
  7 29  1  0  0  0
  8  9  1  0  0  0
  8 22  1  0  0  0
  9 10  1  0  0  0
  9 27  2  0  0  0
 10 11  2  0  0  0
 10 15  1  0  0  0
 11 12  1  0  0  0
 11 93  1  0  0  0
 12 13  2  0  0  0
 12 94  1  0  0  0
 13 14  1  0  0  0
 13 31  1  0  0  0
 14 15  2  0  0  0
 14 95  1  0  0  0
 15 96  1  0  0  0
 16 17  2  0  0  0
 16 21  1  0  0  0
 16 31  1  0  0  0
 17 18  1  0  0  0
 17 97  1  0  0  0
 18 19  2  0  0  0
 18 98  1  0  0  0
 19 20  1  0  0  0
 19 24  1  0  0  0
 20 21  2  0  0  0
 20 99  1  0  0  0
 21 23  1  0  0  0
 22 28  1  0  0  0
 22 32  2  0  0  0
 26 27  1  0  0  0
 28100  1  0  0  0
 28101  1  0  0  0
 29102  1  0  0  0
 29103  1  0  0  0
 33 34  1  0  0  0
 33 66  1  0  0  0
 33 70  2  0  0  0
 34 36  1  0  0  0
 34 59  1  0  0  0
 34104  1  0  0  0
 35 44  2  0  0  0
 35 45  1  0  0  0
 35 68  1  0  0  0
 36 56  1  0  0  0
 36105  1  0  0  0
 37 39  1  0  0  0
 37 47  1  0  0  0
 37 66  1  0  0  0
 37106  1  0  0  0
 38 43  2  0  0  0
 38 46  1  0  0  0
 38 47  1  0  0  0
 39 64  1  0  0  0
 39 67  2  0  0  0
 40 52  1  0  0  0
 40 53  2  0  0  0
 40 58  1  0  0  0
 41107  1  0  0  0
 41108  1  0  0  0
 41109  1  0  0  0
 41 48  1  0  0  0
 42 43  1  0  0  0
 42 66  1  0  0  0
 42110  1  0  0  0
 42111  1  0  0  0
 43 44  1  0  0  0
 44112  1  0  0  0
 45 46  2  0  0  0
 45113  1  0  0  0
 46114  1  0  0  0
 47115  1  0  0  0
 47116  1  0  0  0
 48 56  1  0  0  0
 48 65  1  0  0  0
 48117  1  0  0  0
 49 50  1  0  0  0
 49 53  1  0  0  0
 49 64  1  0  0  0
 49118  1  0  0  0
 50 51  1  0  0  0
 50119  1  0  0  0
 50120  1  0  0  0
 51 52  1  0  0  0
 51121  1  0  0  0
 51122  1  0  0  0
 52123  1  0  0  0
 52124  1  0  0  0
 53 54  1  0  0  0
 54 55  2  0  0  0
 54125  1  0  0  0
 55 57  1  0  0  0
 55126  1  0  0  0
 56 69  2  0  0  0
 57 58  2  0  0  0
 57127  1  0  0  0
 58128  1  0  0  0
 59 60  1  0  0  0
 59 61  1  0  0  0
 59 62  1  0  0  0
 60129  1  0  0  0
 60130  1  0  0  0
 60131  1  0  0  0
 61132  1  0  0  0
 61133  1  0  0  0
 61134  1  0  0  0
 62135  1  0  0  0
 62136  1  0  0  0
 62137  1  0  0  0
 63 65  1  0  0  0
 63138  1  0  0  0
 63139  1  0  0  0
 63140  1  0  0  0
 64141  1  0  0  0
 65142  1  0  0  0
 68 80  1  0  0  0
 71 72  2  0  0  0
 71 81  1  0  0  0
 71143  1  0  0  0
 72 77  1  0  0  0
 72 82  1  0  0  0
 73 74  1  0  0  0
 73 75  1  0  0  0
 73 82  2  0  0  0
 74 78  1  0  0  0
 74 81  2  0  0  0
 75144  1  0  0  0
 75145  1  0  0  0
 75146  1  0  0  0
 76 83  1  0  0  0
 76147  1  0  0  0
 76148  1  0  0  0
 76149  1  0  0  0
 77 79  1  0  0  0
 77150  1  0  0  0
 77151  1  0  0  0
 78 80  1  0  0  0
 78152  1  0  0  0
 78153  1  0  0  0
 79 83  1  0  0  0
 79154  1  0  0  0
 79155  1  0  0  0
 80156  1  0  0  0
 80157  1  0  0  0
M  ISO  4   1 100  68 101  80 101  83 100
M  END
> <chiral flag>
0

> <version>
0

> <s_m_source_file>
/data/baiqing/PycharmProjects/Reinvent-master-3.2/result/LINK_invent/BTK/process_docking_weight1_custom_sum_contain_oxygen_bond_distance_aromatic_linkinvent_7_9_3/rearranged_h_0056.sdf

> <i_m_source_file_index>
57

> <r_mmod_Potential_Energy-OPLS-2005>
271.104675292969

> <r_mmod_Stretch_Energy-OPLS-2005>
81.1847229003906

> <r_mmod_Bend_Energy-OPLS-2005>
138.026306152344

> <r_mmod_Torsional_Energy-OPLS-2005>
288.296722412109

> <r_mmod_Improper_Torsional_Energy-OPLS-2005>
15.2047100067139

> <r_mmod_Van_der_Waal_Energy-OPLS-2005>
157.781875610352

> <r_mmod_Electrostatic_Energy-OPLS-2005>
-259.764556884766

> <r_mmod_Solvation_Energy-OPLS-2005>
-216.103515625

> <b_mmod_Minimization_Converged-OPLS-2005>
0

> <r_mmod_RMS_Derivative-OPLS-2005>
1.48173975944519

$$$$
59
                    3D
 Structure written by MMmdl.
150158  0  0  1  0            999 V2000
  -30.4933  -14.9919   20.4567 C   0  0  0  0  0  0
  -30.4542  -12.6166   19.5051 C   0  0  0  0  0  0
  -29.5315  -12.5474   18.2629 C   0  0  0  0  0  0
  -28.0641  -12.3178   18.6749 C   0  0  0  0  0  0
  -27.6339  -13.2449   19.8397 C   0  0  2  0  0  0
  -28.6732  -13.2585   20.9787 C   0  0  0  0  0  0
  -25.2490  -13.8202   20.5702 C   0  0  0  0  0  0
  -24.1795  -13.0432   20.9206 C   0  0  0  0  0  0
  -24.6405  -11.6915   20.8735 C   0  0  0  0  0  0
  -23.9084  -10.4290   21.0399 C   0  0  0  0  0  0
  -24.3629   -9.4206   21.9181 C   0  0  0  0  0  0
  -23.6298   -8.2245   22.0756 C   0  0  0  0  0  0
  -22.4280   -8.0284   21.3546 C   0  0  0  0  0  0
  -21.9917   -9.0257   20.4647 C   0  0  0  0  0  0
  -22.7253  -10.2133   20.3052 C   0  0  0  0  0  0
  -21.6855   -6.0737   22.5279 C   0  0  0  0  0  0
  -21.4016   -6.5641   23.8212 C   0  0  0  0  0  0
  -21.3659   -5.6793   24.9174 C   0  0  0  0  0  0
  -21.6043   -4.3056   24.7224 C   0  0  0  0  0  0
  -21.8819   -3.8147   23.4345 C   0  0  0  0  0  0
  -21.9193   -4.6965   22.3402 C   0  0  0  0  0  0
  -22.7816  -13.5208   21.1869 C   0  0  0  0  0  0
  -22.1662   -4.2151   21.0980 F   0  0  0  0  0  0
  -21.5627   -3.4539   25.7736 F   0  0  0  0  0  0
  -29.9518  -13.7002   20.4021 N   0  0  0  0  0  0
  -26.2909  -12.9426   20.3225 N   0  0  0  0  0  0
  -25.9338  -11.6559   20.5714 N   0  0  0  0  0  0
  -22.0470  -12.8196   22.0428 N   0  0  0  0  0  0
  -25.4169  -15.1933   20.4158 N   0  0  0  0  0  0
  -31.6692  -15.0955   20.0837 O   0  0  0  0  0  0
  -21.6642   -6.8882   21.4242 O   0  0  0  0  0  0
  -22.3497  -14.5512   20.6716 O   0  0  0  0  0  0
  -24.6471  -31.8404   23.1848 C   0  0  0  0  0  0
  -25.9224  -32.4676   23.8255 C   0  0  1  0  0  0
  -27.2214  -27.1014   20.1558 C   0  0  0  0  0  0
  -25.5957  -33.8483   24.2170 N   0  0  0  0  0  0
  -23.4531  -30.4581   21.5311 C   0  0  2  0  0  0
  -24.9038  -28.8780   20.1109 C   0  0  0  0  0  0
  -22.7588  -29.4527   22.4843 C   0  0  0  0  0  0
  -18.0309  -28.1399   22.8474 C   0  0  0  0  0  0
  -24.1491  -36.7247   23.2643 C   0  0  0  0  0  0
  -26.0116  -30.7032   21.3887 C   0  0  0  0  0  0
  -26.0830  -29.3108   20.7306 C   0  0  0  0  0  0
  -27.2415  -28.4402   20.7333 C   0  0  0  0  0  0
  -26.0136  -26.7782   19.4976 C   0  0  0  0  0  0
  -24.8842  -27.6263   19.4781 C   0  0  0  0  0  0
  -23.6820  -29.7843   20.1521 C   0  0  0  0  0  0
  -25.4126  -36.3021   24.0312 C   0  0  1  0  0  0
  -20.5924  -28.3729   23.1225 C   0  0  2  0  0  0
  -20.6791  -26.9428   22.5403 C   0  0  0  0  0  0
  -19.5765  -26.6383   21.5212 C   0  0  0  0  0  0
  -18.1946  -26.7936   22.1624 C   0  0  0  0  0  0
  -19.1567  -28.8883   23.2839 C   0  0  0  0  0  0
  -18.9482  -30.1476   23.8868 C   0  0  0  0  0  0
  -17.6477  -30.6592   24.0559 C   0  0  0  0  0  0
  -25.9079  -34.9397   23.5053 C   0  0  0  0  0  0
  -16.5368  -29.9084   23.6338 C   0  0  0  0  0  0
  -16.7293  -28.6505   23.0356 C   0  0  0  0  0  0
  -26.4534  -31.6558   25.0712 C   0  0  0  0  0  0
  -25.3704  -31.3755   26.1396 C   0  0  0  0  0  0
  -27.0408  -30.2951   24.6318 C   0  0  0  0  0  0
  -27.6058  -32.4334   25.7501 C   0  0  0  0  0  0
  -27.5575  -37.1778   24.8465 C   0  0  0  0  0  0
  -21.4276  -29.3047   22.3592 N   0  0  0  0  0  0
  -26.4286  -37.3737   23.9407 N   0  0  0  0  0  0
  -24.7241  -31.0227   22.0898 N   0  0  0  0  0  0
  -23.4211  -28.8078   23.3013 O   0  0  0  0  0  0
  -28.2673  -26.0963   20.2275 O   0  0  0  0  0  0
  -26.5671  -34.8899   22.4636 O   0  0  0  0  0  0
  -23.5580  -32.1294   23.7046 O   0  0  0  0  0  0
  -30.7062  -18.5457   19.7201 C   0  0  0  0  0  0
  -29.3468  -20.1439   20.2482 C   0  0  0  0  0  0
  -29.7262  -16.4130   22.4790 C   0  0  0  0  0  0
  -28.4994  -21.5655   20.1525 C   0  0  0  0  0  0
  -28.9820  -23.1902   20.3430 C   0  0  0  0  0  0
  -27.9833  -24.5543   20.0804 C   0  0  0  0  0  0
  -29.6504  -16.3666   20.9407 C   0  0  1  0  0  0
  -30.5009  -19.8820   19.5399 N   0  0  0  0  0  0
  -28.8902  -18.9537   20.7963 N   0  0  0  0  0  0
  -29.7875  -17.8861   20.4458 N   0  0  0  0  0  0
  -31.4844  -12.7931   19.1927 H   0  0  0  0  0  0
  -30.4662  -11.6604   20.0307 H   0  0  0  0  0  0
  -29.8605  -11.7547   17.5897 H   0  0  0  0  0  0
  -29.6102  -13.4791   17.7009 H   0  0  0  0  0  0
  -27.9655  -11.2754   18.9803 H   0  0  0  0  0  0
  -27.4020  -12.4484   17.8183 H   0  0  0  0  0  0
  -27.6006  -14.2495   19.4180 H   0  0  0  0  0  0
  -28.7677  -12.2716   21.4342 H   0  0  0  0  0  0
  -28.3490  -13.9286   21.7742 H   0  0  0  0  0  0
  -25.2775   -9.5680   22.4756 H   0  0  0  0  0  0
  -24.0003   -7.4638   22.7479 H   0  0  0  0  0  0
  -21.0847   -8.8778   19.8955 H   0  0  0  0  0  0
  -22.3712  -10.9670   19.6159 H   0  0  0  0  0  0
  -21.2013   -7.6149   23.9715 H   0  0  0  0  0  0
  -21.1480   -6.0524   25.9076 H   0  0  0  0  0  0
  -22.0599   -2.7610   23.2845 H   0  0  0  0  0  0
  -22.4098  -11.9858   22.4807 H   0  0  0  0  0  0
  -21.1089  -13.1218   22.2645 H   0  0  0  0  0  0
  -24.6499  -15.8458   20.5373 H   0  0  0  0  0  0
  -26.2666  -15.6395   20.0955 H   0  0  0  0  0  0
  -26.7288  -32.5267   23.0980 H   0  0  0  0  0  0
  -25.0076  -33.9596   25.0298 H   0  0  0  0  0  0
  -22.7577  -31.2850   21.3729 H   0  0  0  0  0  0
  -23.3760  -35.9572   23.3291 H   0  0  0  0  0  0
  -24.3575  -36.8899   22.2061 H   0  0  0  0  0  0
  -23.7243  -37.6435   23.6694 H   0  0  0  0  0  0
  -26.1710  -31.4552   20.6148 H   0  0  0  0  0  0
  -26.8806  -30.7554   22.0330 H   0  0  0  0  0  0
  -28.1384  -28.7671   21.2406 H   0  0  0  0  0  0
  -25.9063  -25.8214   19.0095 H   0  0  0  0  0  0
  -23.9842  -27.2895   18.9818 H   0  0  0  0  0  0
  -23.8219  -30.5573   19.3955 H   0  0  0  0  0  0
  -22.7961  -29.2280   19.8406 H   0  0  0  0  0  0
  -25.1314  -36.1845   25.0804 H   0  0  0  0  0  0
  -21.0013  -28.3325   24.1348 H   0  0  0  0  0  0
  -20.5686  -26.2342   23.3628 H   0  0  0  0  0  0
  -21.6655  -26.7430   22.1199 H   0  0  0  0  0  0
  -19.6930  -25.6287   21.1261 H   0  0  0  0  0  0
  -19.6705  -27.3177   20.6729 H   0  0  0  0  0  0
  -17.4215  -26.6679   21.4027 H   0  0  0  0  0  0
  -18.0344  -26.0085   22.9028 H   0  0  0  0  0  0
  -19.7958  -30.7299   24.2225 H   0  0  0  0  0  0
  -17.5032  -31.6270   24.5165 H   0  0  0  0  0  0
  -15.5367  -30.2977   23.7679 H   0  0  0  0  0  0
  -15.8695  -28.0815   22.7086 H   0  0  0  0  0  0
  -24.5900  -30.7087   25.7710 H   0  0  0  0  0  0
  -24.8872  -32.2936   26.4748 H   0  0  0  0  0  0
  -25.7974  -30.8978   27.0223 H   0  0  0  0  0  0
  -26.3036  -29.6661   24.1314 H   0  0  0  0  0  0
  -27.3998  -29.7265   25.4906 H   0  0  0  0  0  0
  -27.8951  -30.4180   23.9658 H   0  0  0  0  0  0
  -27.2653  -33.3662   26.2005 H   0  0  0  0  0  0
  -28.3907  -32.6849   25.0356 H   0  0  0  0  0  0
  -28.0681  -31.8508   26.5478 H   0  0  0  0  0  0
  -28.2578  -38.0087   24.7514 H   0  0  0  0  0  0
  -28.1085  -36.2616   24.6291 H   0  0  0  0  0  0
  -27.2290  -37.1420   25.8867 H   0  0  0  0  0  0
  -20.9494  -29.8757   21.6762 H   0  0  0  0  0  0
  -26.0150  -38.2802   24.1416 H   0  0  0  0  0  0
  -31.5630  -18.0331   19.3034 H   0  0  0  0  0  0
  -28.9069  -17.0017   22.8921 H   0  0  0  0  0  0
  -30.6597  -16.8708   22.8072 H   0  0  0  0  0  0
  -29.6722  -15.4239   22.9335 H   0  0  0  0  0  0
  -27.6635  -21.4397   20.8406 H   0  0  0  0  0  0
  -28.0268  -21.5313   19.1711 H   0  0  0  0  0  0
  -29.8495  -23.3227   19.6967 H   0  0  0  0  0  0
  -29.3766  -23.2780   21.3551 H   0  0  0  0  0  0
  -27.0999  -24.3793   20.6956 H   0  0  0  0  0  0
  -27.6343  -24.4368   19.0545 H   0  0  0  0  0  0
  -28.6216  -16.1096   20.6920 H   0  0  0  0  0  0
  1 25  1  0  0  0
  1 30  2  0  0  0
  1 77  1  0  0  0
  2  3  1  0  0  0
  2 25  1  0  0  0
  2 81  1  0  0  0
  2 82  1  0  0  0
  3  4  1  0  0  0
  3 83  1  0  0  0
  3 84  1  0  0  0
  4  5  1  0  0  0
  4 85  1  0  0  0
  4 86  1  0  0  0
  5  6  1  0  0  0
  5 26  1  0  0  0
  5 87  1  0  0  0
  6 25  1  0  0  0
  6 88  1  0  0  0
  6 89  1  0  0  0
  7  8  2  0  0  0
  7 26  1  0  0  0
  7 29  1  0  0  0
  8  9  1  0  0  0
  8 22  1  0  0  0
  9 10  1  0  0  0
  9 27  2  0  0  0
 10 11  2  0  0  0
 10 15  1  0  0  0
 11 12  1  0  0  0
 11 90  1  0  0  0
 12 13  2  0  0  0
 12 91  1  0  0  0
 13 14  1  0  0  0
 13 31  1  0  0  0
 14 15  2  0  0  0
 14 92  1  0  0  0
 15 93  1  0  0  0
 16 17  2  0  0  0
 16 21  1  0  0  0
 16 31  1  0  0  0
 17 18  1  0  0  0
 17 94  1  0  0  0
 18 19  2  0  0  0
 18 95  1  0  0  0
 19 20  1  0  0  0
 19 24  1  0  0  0
 20 21  2  0  0  0
 20 96  1  0  0  0
 21 23  1  0  0  0
 22 28  1  0  0  0
 22 32  2  0  0  0
 26 27  1  0  0  0
 28 97  1  0  0  0
 28 98  1  0  0  0
 29 99  1  0  0  0
 29100  1  0  0  0
 33 34  1  0  0  0
 33 66  1  0  0  0
 33 70  2  0  0  0
 34 36  1  0  0  0
 34 59  1  0  0  0
 34101  1  0  0  0
 35 44  2  0  0  0
 35 45  1  0  0  0
 35 68  1  0  0  0
 36 56  1  0  0  0
 36102  1  0  0  0
 37 39  1  0  0  0
 37 47  1  0  0  0
 37 66  1  0  0  0
 37103  1  0  0  0
 38 43  2  0  0  0
 38 46  1  0  0  0
 38 47  1  0  0  0
 39 64  1  0  0  0
 39 67  2  0  0  0
 40 52  1  0  0  0
 40 53  2  0  0  0
 40 58  1  0  0  0
 41104  1  0  0  0
 41105  1  0  0  0
 41106  1  0  0  0
 41 48  1  0  0  0
 42 43  1  0  0  0
 42 66  1  0  0  0
 42107  1  0  0  0
 42108  1  0  0  0
 43 44  1  0  0  0
 44109  1  0  0  0
 45 46  2  0  0  0
 45110  1  0  0  0
 46111  1  0  0  0
 47112  1  0  0  0
 47113  1  0  0  0
 48 56  1  0  0  0
 48 65  1  0  0  0
 48114  1  0  0  0
 49 50  1  0  0  0
 49 53  1  0  0  0
 49 64  1  0  0  0
 49115  1  0  0  0
 50 51  1  0  0  0
 50116  1  0  0  0
 50117  1  0  0  0
 51 52  1  0  0  0
 51118  1  0  0  0
 51119  1  0  0  0
 52120  1  0  0  0
 52121  1  0  0  0
 53 54  1  0  0  0
 54 55  2  0  0  0
 54122  1  0  0  0
 55 57  1  0  0  0
 55123  1  0  0  0
 56 69  2  0  0  0
 57 58  2  0  0  0
 57124  1  0  0  0
 58125  1  0  0  0
 59 60  1  0  0  0
 59 61  1  0  0  0
 59 62  1  0  0  0
 60126  1  0  0  0
 60127  1  0  0  0
 60128  1  0  0  0
 61129  1  0  0  0
 61130  1  0  0  0
 61131  1  0  0  0
 62132  1  0  0  0
 62133  1  0  0  0
 62134  1  0  0  0
 63 65  1  0  0  0
 63135  1  0  0  0
 63136  1  0  0  0
 63137  1  0  0  0
 64138  1  0  0  0
 65139  1  0  0  0
 68 76  1  0  0  0
 71 78  2  0  0  0
 71 80  1  0  0  0
 71140  1  0  0  0
 72 74  1  0  0  0
 72 78  1  0  0  0
 72 79  2  0  0  0
 73141  1  0  0  0
 73142  1  0  0  0
 73143  1  0  0  0
 73 77  1  0  0  0
 74 75  1  0  0  0
 74144  1  0  0  0
 74145  1  0  0  0
 75 76  1  0  0  0
 75146  1  0  0  0
 75147  1  0  0  0
 76148  1  0  0  0
 76149  1  0  0  0
 77 80  1  0  0  0
 77150  1  0  0  0
 79 80  1  0  0  0
M  ISO  4   1 100  68 101  76 101  77 100
M  END
> <chiral flag>
0

> <version>
0

> <s_m_source_file>
/data/baiqing/PycharmProjects/Reinvent-master-3.2/result/LINK_invent/BTK/process_docking_weight1_custom_sum_contain_oxygen_bond_distance_aromatic_linkinvent_7_9_3/rearranged_h_0056.sdf

> <i_m_source_file_index>
58

> <r_mmod_Potential_Energy-OPLS-2005>
576.573608398438

> <r_mmod_Stretch_Energy-OPLS-2005>
309.183837890625

> <r_mmod_Bend_Energy-OPLS-2005>
292.453582763672

> <r_mmod_Torsional_Energy-OPLS-2005>
195.559844970703

> <r_mmod_Improper_Torsional_Energy-OPLS-2005>
3.54827642440796

> <r_mmod_Van_der_Waal_Energy-OPLS-2005>
107.005584716797

> <r_mmod_Electrostatic_Energy-OPLS-2005>
-337.093597412109

> <r_mmod_Solvation_Energy-OPLS-2005>
-216.555313110352

> <b_mmod_Minimization_Converged-OPLS-2005>
0

> <r_mmod_RMS_Derivative-OPLS-2005>
0.308809071779251

$$$$
60
                    3D
 Structure written by MMmdl.
158166  0  0  1  0            999 V2000
  -30.5718  -14.7760   20.4876 C   0  0  0  0  0  0
  -30.4472  -12.4876   19.4651 C   0  0  0  0  0  0
  -29.5107  -12.4919   18.2348 C   0  0  0  0  0  0
  -28.0424  -12.3086   18.6666 C   0  0  0  0  0  0
  -27.6422  -13.2255   19.8511 C   0  0  2  0  0  0
  -28.6831  -13.1628   20.9882 C   0  0  0  0  0  0
  -25.2557  -13.8170   20.5730 C   0  0  0  0  0  0
  -24.1848  -13.0402   20.9241 C   0  0  0  0  0  0
  -24.6419  -11.6892   20.8756 C   0  0  0  0  0  0
  -23.9081  -10.4269   21.0413 C   0  0  0  0  0  0
  -24.3638   -9.4184   21.9190 C   0  0  0  0  0  0
  -23.6313   -8.2216   22.0748 C   0  0  0  0  0  0
  -22.4301   -8.0267   21.3521 C   0  0  0  0  0  0
  -21.9935   -9.0241   20.4632 C   0  0  0  0  0  0
  -22.7250  -10.2122   20.3062 C   0  0  0  0  0  0
  -21.6837   -6.0744   22.5259 C   0  0  0  0  0  0
  -21.3993   -6.5648   23.8187 C   0  0  0  0  0  0
  -21.3658   -5.6805   24.9154 C   0  0  0  0  0  0
  -21.6045   -4.3065   24.7211 C   0  0  0  0  0  0
  -21.8816   -3.8157   23.4329 C   0  0  0  0  0  0
  -21.9194   -4.6975   22.3385 C   0  0  0  0  0  0
  -22.7869  -13.5195   21.1869 C   0  0  0  0  0  0
  -22.1669   -4.2172   21.0963 F   0  0  0  0  0  0
  -21.5646   -3.4546   25.7720 F   0  0  0  0  0  0
  -29.9750  -13.5373   20.4034 N   0  0  0  0  0  0
  -26.2954  -12.9354   20.3285 N   0  0  0  0  0  0
  -25.9347  -11.6498   20.5773 N   0  0  0  0  0  0
  -22.0502  -12.8183   22.0420 N   0  0  0  0  0  0
  -25.4198  -15.1881   20.4117 N   0  0  0  0  0  0
  -31.7647  -14.8988   20.1930 O   0  0  0  0  0  0
  -21.6624   -6.8891   21.4228 O   0  0  0  0  0  0
  -22.3530  -14.5462   20.6660 O   0  0  0  0  0  0
  -24.6263  -31.8477   23.2010 C   0  0  0  0  0  0
  -25.9056  -32.4735   23.8386 C   0  0  1  0  0  0
  -27.2349  -27.2592   20.1511 C   0  0  0  0  0  0
  -25.5842  -33.8552   24.2309 N   0  0  0  0  0  0
  -23.4271  -30.4657   21.5450 C   0  0  2  0  0  0
  -24.8815  -28.9082   20.1143 C   0  0  0  0  0  0
  -22.7476  -29.4484   22.4943 C   0  0  0  0  0  0
  -18.0269  -28.1255   22.8462 C   0  0  0  0  0  0
  -24.1487  -36.7333   23.2645 C   0  0  0  0  0  0
  -25.9698  -30.7642   21.3777 C   0  0  0  0  0  0
  -26.0451  -29.3868   20.7242 C   0  0  0  0  0  0
  -27.2213  -28.5733   20.7270 C   0  0  0  0  0  0
  -26.0496  -26.8366   19.5155 C   0  0  0  0  0  0
  -24.8897  -27.6472   19.4951 C   0  0  0  0  0  0
  -23.6465  -29.7932   20.1625 C   0  0  0  0  0  0
  -25.4081  -36.3083   24.0337 C   0  0  1  0  0  0
  -20.5878  -28.3535   23.1287 C   0  0  2  0  0  0
  -20.6727  -26.9263   22.5405 C   0  0  0  0  0  0
  -19.5726  -26.6266   21.5171 C   0  0  0  0  0  0
  -18.1901  -26.7804   22.1576 C   0  0  0  0  0  0
  -19.1524  -28.8719   23.2866 C   0  0  0  0  0  0
  -18.9438  -30.1333   23.8875 C   0  0  0  0  0  0
  -17.6432  -30.6491   24.0500 C   0  0  0  0  0  0
  -25.8990  -34.9426   23.5140 C   0  0  0  0  0  0
  -16.5322  -29.8969   23.6322 C   0  0  0  0  0  0
  -16.7260  -28.6381   23.0368 C   0  0  0  0  0  0
  -26.4469  -31.6543   25.0765 C   0  0  0  0  0  0
  -25.3727  -31.3623   26.1535 C   0  0  0  0  0  0
  -27.0306  -30.2961   24.6211 C   0  0  0  0  0  0
  -27.6059  -32.4273   25.7479 C   0  0  0  0  0  0
  -27.5599  -37.1784   24.8432 C   0  0  0  0  0  0
  -21.4169  -29.2931   22.3697 N   0  0  0  0  0  0
  -26.4279  -37.3760   23.9417 N   0  0  0  0  0  0
  -24.6944  -31.0424   22.1004 N   0  0  0  0  0  0
  -23.4184  -28.7972   23.2982 O   0  0  0  0  0  0
  -28.3739  -26.4277   20.2520 O   0  0  0  0  0  0
  -26.5618  -34.8875   22.4745 O   0  0  0  0  0  0
  -23.5384  -32.1334   23.7252 O   0  0  0  0  0  0
  -28.8935  -22.2947   20.6599 C   0  0  0  0  0  0
  -29.1870  -20.0999   20.6311 C   0  0  0  0  0  0
  -28.0125  -18.1570   19.4310 C   0  0  0  0  0  0
  -28.0151  -18.2507   21.9055 C   0  0  0  0  0  0
  -31.5107  -20.1904   21.7035 C   0  0  0  0  0  0
  -28.2289  -23.7322   20.8285 C   0  0  0  0  0  0
  -30.0945  -17.3957   20.6614 C   0  0  0  0  0  0
  -28.4847  -24.9832   19.8300 C   0  0  0  0  0  0
  -28.8865  -18.5120   20.6582 C   0  0  0  0  0  0
  -28.2685  -21.0823   20.3406 N   0  0  0  0  0  0
  -30.1402  -22.0861   21.0866 N   0  0  0  0  0  0
  -30.2953  -20.7179   21.1115 N   0  0  0  0  0  0
  -29.7629  -15.8910   20.6996 N   0  0  0  0  0  0
  -31.4741  -12.6677   19.1377 H   0  0  0  0  0  0
  -30.4515  -11.5113   19.9500 H   0  0  0  0  0  0
  -29.7903  -11.6898   17.5492 H   0  0  0  0  0  0
  -29.6271  -13.4240   17.6807 H   0  0  0  0  0  0
  -27.9253  -11.2669   18.9661 H   0  0  0  0  0  0
  -27.3706  -12.4552   17.8217 H   0  0  0  0  0  0
  -27.6362  -14.2420   19.4593 H   0  0  0  0  0  0
  -28.7359  -12.1633   21.4237 H   0  0  0  0  0  0
  -28.4127  -13.8398   21.8015 H   0  0  0  0  0  0
  -25.2781   -9.5646   22.4765 H   0  0  0  0  0  0
  -24.0005   -7.4602   22.7474 H   0  0  0  0  0  0
  -21.0856   -8.8741   19.8950 H   0  0  0  0  0  0
  -22.3689  -10.9667   19.6186 H   0  0  0  0  0  0
  -21.1951   -7.6151   23.9686 H   0  0  0  0  0  0
  -21.1496   -6.0540   25.9057 H   0  0  0  0  0  0
  -22.0603   -2.7623   23.2797 H   0  0  0  0  0  0
  -22.4174  -11.9923   22.4902 H   0  0  0  0  0  0
  -21.1085  -13.1134   22.2545 H   0  0  0  0  0  0
  -24.6330  -15.8229   20.5018 H   0  0  0  0  0  0
  -26.2372  -15.6216   20.0038 H   0  0  0  0  0  0
  -26.7096  -32.5373   23.1114 H   0  0  0  0  0  0
  -24.9958  -33.9677   25.0437 H   0  0  0  0  0  0
  -22.7253  -31.2888   21.3985 H   0  0  0  0  0  0
  -23.3724  -35.9676   23.3239 H   0  0  0  0  0  0
  -24.3594  -36.9050   22.2080 H   0  0  0  0  0  0
  -23.7273  -37.6524   23.6719 H   0  0  0  0  0  0
  -26.0917  -31.5173   20.5958 H   0  0  0  0  0  0
  -26.8526  -30.8308   22.0033 H   0  0  0  0  0  0
  -28.1170  -28.9343   21.2121 H   0  0  0  0  0  0
  -25.9955  -25.8611   19.0581 H   0  0  0  0  0  0
  -23.9940  -27.2749   19.0185 H   0  0  0  0  0  0
  -23.7595  -30.5741   19.4081 H   0  0  0  0  0  0
  -22.7659  -29.2248   19.8568 H   0  0  0  0  0  0
  -25.1242  -36.1974   25.0823 H   0  0  0  0  0  0
  -20.9975  -28.3078   24.1402 H   0  0  0  0  0  0
  -20.5547  -26.2121   23.3588 H   0  0  0  0  0  0
  -21.6596  -26.7214   22.1272 H   0  0  0  0  0  0
  -19.6897  -25.6190   21.1179 H   0  0  0  0  0  0
  -19.6704  -27.3060   20.6714 H   0  0  0  0  0  0
  -17.4203  -26.6527   21.3970 H   0  0  0  0  0  0
  -18.0321  -25.9884   22.8919 H   0  0  0  0  0  0
  -19.7893  -30.7101   24.2283 H   0  0  0  0  0  0
  -17.4989  -31.6204   24.5000 H   0  0  0  0  0  0
  -15.5324  -30.2855   23.7649 H   0  0  0  0  0  0
  -15.8645  -28.0678   22.7155 H   0  0  0  0  0  0
  -24.5969  -30.6848   25.7967 H   0  0  0  0  0  0
  -24.8786  -32.2717   26.4976 H   0  0  0  0  0  0
  -25.8124  -30.8924   27.0347 H   0  0  0  0  0  0
  -26.2884  -29.6677   24.1287 H   0  0  0  0  0  0
  -27.4071  -29.7231   25.4698 H   0  0  0  0  0  0
  -27.8716  -30.4255   23.9382 H   0  0  0  0  0  0
  -27.2766  -33.3643   26.1965 H   0  0  0  0  0  0
  -28.3899  -32.6709   25.0297 H   0  0  0  0  0  0
  -28.0682  -31.8451   26.5461 H   0  0  0  0  0  0
  -28.2533  -38.0177   24.7618 H   0  0  0  0  0  0
  -28.1207  -36.2724   24.6090 H   0  0  0  0  0  0
  -27.2339  -37.1249   25.8836 H   0  0  0  0  0  0
  -20.9302  -29.8841   21.7101 H   0  0  0  0  0  0
  -26.0171  -38.2816   24.1484 H   0  0  0  0  0  0
  -27.1165  -18.7790   19.3865 H   0  0  0  0  0  0
  -27.6563  -17.1283   19.4647 H   0  0  0  0  0  0
  -28.5534  -18.2877   18.4924 H   0  0  0  0  0  0
  -27.1225  -18.8789   21.8905 H   0  0  0  0  0  0
  -28.5469  -18.4768   22.8292 H   0  0  0  0  0  0
  -27.6689  -17.2202   21.9630 H   0  0  0  0  0  0
  -32.0797  -19.6289   20.9619 H   0  0  0  0  0  0
  -31.2567  -19.5577   22.5545 H   0  0  0  0  0  0
  -32.1447  -20.9953   22.0816 H   0  0  0  0  0  0
  -28.5305  -24.0827   21.8173 H   0  0  0  0  0  0
  -27.1510  -23.5882   20.9117 H   0  0  0  0  0  0
  -30.7422  -17.5852   21.5156 H   0  0  0  0  0  0
  -30.7198  -17.5594   19.7837 H   0  0  0  0  0  0
  -27.9560  -24.8134   18.8949 H   0  0  0  0  0  0
  -29.5391  -24.9165   19.5555 H   0  0  0  0  0  0
  -28.7884  -15.6822   20.8477 H   0  0  0  0  0  0
  1 25  1  0  0  0
  1 30  2  0  0  0
  1 83  1  0  0  0
  2  3  1  0  0  0
  2 25  1  0  0  0
  2 84  1  0  0  0
  2 85  1  0  0  0
  3  4  1  0  0  0
  3 86  1  0  0  0
  3 87  1  0  0  0
  4  5  1  0  0  0
  4 88  1  0  0  0
  4 89  1  0  0  0
  5  6  1  0  0  0
  5 26  1  0  0  0
  5 90  1  0  0  0
  6 25  1  0  0  0
  6 91  1  0  0  0
  6 92  1  0  0  0
  7  8  2  0  0  0
  7 26  1  0  0  0
  7 29  1  0  0  0
  8  9  1  0  0  0
  8 22  1  0  0  0
  9 10  1  0  0  0
  9 27  2  0  0  0
 10 11  2  0  0  0
 10 15  1  0  0  0
 11 12  1  0  0  0
 11 93  1  0  0  0
 12 13  2  0  0  0
 12 94  1  0  0  0
 13 14  1  0  0  0
 13 31  1  0  0  0
 14 15  2  0  0  0
 14 95  1  0  0  0
 15 96  1  0  0  0
 16 17  2  0  0  0
 16 21  1  0  0  0
 16 31  1  0  0  0
 17 18  1  0  0  0
 17 97  1  0  0  0
 18 19  2  0  0  0
 18 98  1  0  0  0
 19 20  1  0  0  0
 19 24  1  0  0  0
 20 21  2  0  0  0
 20 99  1  0  0  0
 21 23  1  0  0  0
 22 28  1  0  0  0
 22 32  2  0  0  0
 26 27  1  0  0  0
 28100  1  0  0  0
 28101  1  0  0  0
 29102  1  0  0  0
 29103  1  0  0  0
 33 34  1  0  0  0
 33 66  1  0  0  0
 33 70  2  0  0  0
 34 36  1  0  0  0
 34 59  1  0  0  0
 34104  1  0  0  0
 35 44  2  0  0  0
 35 45  1  0  0  0
 35 68  1  0  0  0
 36 56  1  0  0  0
 36105  1  0  0  0
 37 39  1  0  0  0
 37 47  1  0  0  0
 37 66  1  0  0  0
 37106  1  0  0  0
 38 43  2  0  0  0
 38 46  1  0  0  0
 38 47  1  0  0  0
 39 64  1  0  0  0
 39 67  2  0  0  0
 40 52  1  0  0  0
 40 53  2  0  0  0
 40 58  1  0  0  0
 41107  1  0  0  0
 41108  1  0  0  0
 41109  1  0  0  0
 41 48  1  0  0  0
 42 43  1  0  0  0
 42 66  1  0  0  0
 42110  1  0  0  0
 42111  1  0  0  0
 43 44  1  0  0  0
 44112  1  0  0  0
 45 46  2  0  0  0
 45113  1  0  0  0
 46114  1  0  0  0
 47115  1  0  0  0
 47116  1  0  0  0
 48 56  1  0  0  0
 48 65  1  0  0  0
 48117  1  0  0  0
 49 50  1  0  0  0
 49 53  1  0  0  0
 49 64  1  0  0  0
 49118  1  0  0  0
 50 51  1  0  0  0
 50119  1  0  0  0
 50120  1  0  0  0
 51 52  1  0  0  0
 51121  1  0  0  0
 51122  1  0  0  0
 52123  1  0  0  0
 52124  1  0  0  0
 53 54  1  0  0  0
 54 55  2  0  0  0
 54125  1  0  0  0
 55 57  1  0  0  0
 55126  1  0  0  0
 56 69  2  0  0  0
 57 58  2  0  0  0
 57127  1  0  0  0
 58128  1  0  0  0
 59 60  1  0  0  0
 59 61  1  0  0  0
 59 62  1  0  0  0
 60129  1  0  0  0
 60130  1  0  0  0
 60131  1  0  0  0
 61132  1  0  0  0
 61133  1  0  0  0
 61134  1  0  0  0
 62135  1  0  0  0
 62136  1  0  0  0
 62137  1  0  0  0
 63 65  1  0  0  0
 63138  1  0  0  0
 63139  1  0  0  0
 63140  1  0  0  0
 64141  1  0  0  0
 65142  1  0  0  0
 68 78  1  0  0  0
 71 76  1  0  0  0
 71 80  1  0  0  0
 71 81  2  0  0  0
 72 79  1  0  0  0
 72 80  2  0  0  0
 72 82  1  0  0  0
 73143  1  0  0  0
 73144  1  0  0  0
 73145  1  0  0  0
 73 79  1  0  0  0
 74 79  1  0  0  0
 74146  1  0  0  0
 74147  1  0  0  0
 74148  1  0  0  0
 75 82  1  0  0  0
 75149  1  0  0  0
 75150  1  0  0  0
 75151  1  0  0  0
 76 78  1  0  0  0
 76152  1  0  0  0
 76153  1  0  0  0
 77 79  1  0  0  0
 77 83  1  0  0  0
 77154  1  0  0  0
 77155  1  0  0  0
 78156  1  0  0  0
 78157  1  0  0  0
 81 82  1  0  0  0
 83158  1  0  0  0
M  ISO  4   1 100  68 101  78 101  83 100
M  END
> <chiral flag>
0

> <version>
0

> <s_m_source_file>
/data/baiqing/PycharmProjects/Reinvent-master-3.2/result/LINK_invent/BTK/process_docking_weight1_custom_sum_contain_oxygen_bond_distance_aromatic_linkinvent_7_9_3/rearranged_h_0056.sdf

> <i_m_source_file_index>
59

> <r_mmod_Potential_Energy-OPLS-2005>
125.333877563477

> <r_mmod_Stretch_Energy-OPLS-2005>
143.600601196289

> <r_mmod_Bend_Energy-OPLS-2005>
210.274887084961

> <r_mmod_Torsional_Energy-OPLS-2005>
206.484481811523

> <r_mmod_Improper_Torsional_Energy-OPLS-2005>
7.50362539291382

> <r_mmod_Van_der_Waal_Energy-OPLS-2005>
106.549575805664

> <r_mmod_Electrostatic_Energy-OPLS-2005>
-416.671661376953

> <r_mmod_Solvation_Energy-OPLS-2005>
-225.919281005859

> <b_mmod_Minimization_Converged-OPLS-2005>
0

> <r_mmod_RMS_Derivative-OPLS-2005>
5.71561813354492

$$$$
61
                    3D
 Structure written by MMmdl.
156164  0  0  1  0            999 V2000
  -30.5984  -14.7934   20.3679 C   0  0  0  0  0  0
  -30.4432  -12.4597   19.4729 C   0  0  0  0  0  0
  -29.5152  -12.3973   18.2386 C   0  0  0  0  0  0
  -28.0312  -12.2849   18.6551 C   0  0  0  0  0  0
  -27.6294  -13.2107   19.8370 C   0  0  2  0  0  0
  -28.6883  -13.2146   20.9583 C   0  0  0  0  0  0
  -25.2514  -13.8130   20.5747 C   0  0  0  0  0  0
  -24.1779  -13.0409   20.9236 C   0  0  0  0  0  0
  -24.6347  -11.6879   20.8791 C   0  0  0  0  0  0
  -23.9026  -10.4273   21.0434 C   0  0  0  0  0  0
  -24.3591   -9.4190   21.9201 C   0  0  0  0  0  0
  -23.6277   -8.2221   22.0756 C   0  0  0  0  0  0
  -22.4261   -8.0266   21.3543 C   0  0  0  0  0  0
  -21.9890   -9.0238   20.4647 C   0  0  0  0  0  0
  -22.7209  -10.2122   20.3069 C   0  0  0  0  0  0
  -21.6845   -6.0727   22.5280 C   0  0  0  0  0  0
  -21.4008   -6.5633   23.8212 C   0  0  0  0  0  0
  -21.3656   -5.6788   24.9176 C   0  0  0  0  0  0
  -21.6046   -4.3051   24.7228 C   0  0  0  0  0  0
  -21.8820   -3.8143   23.4350 C   0  0  0  0  0  0
  -21.9191   -4.6957   22.3405 C   0  0  0  0  0  0
  -22.7811  -13.5218   21.1880 C   0  0  0  0  0  0
  -22.1662   -4.2143   21.0982 F   0  0  0  0  0  0
  -21.5631   -3.4536   25.7741 F   0  0  0  0  0  0
  -29.9734  -13.5622   20.3396 N   0  0  0  0  0  0
  -26.2896  -12.9272   20.3323 N   0  0  0  0  0  0
  -25.9269  -11.6449   20.5826 N   0  0  0  0  0  0
  -22.0446  -12.8219   22.0433 N   0  0  0  0  0  0
  -25.4256  -15.1855   20.4189 N   0  0  0  0  0  0
  -31.8272  -14.8533   20.2693 O   0  0  0  0  0  0
  -21.6629   -6.8864   21.4239 O   0  0  0  0  0  0
  -22.3512  -14.5529   20.6722 O   0  0  0  0  0  0
  -24.6297  -31.8556   23.1979 C   0  0  0  0  0  0
  -25.9125  -32.4760   23.8328 C   0  0  1  0  0  0
  -27.2271  -27.2740   20.1403 C   0  0  0  0  0  0
  -25.5923  -33.8561   24.2255 N   0  0  0  0  0  0
  -23.4267  -30.4761   21.5411 C   0  0  2  0  0  0
  -24.8762  -28.9193   20.1152 C   0  0  0  0  0  0
  -22.7494  -29.4600   22.4921 C   0  0  0  0  0  0
  -18.0289  -28.1385   22.8484 C   0  0  0  0  0  0
  -24.1489  -36.7286   23.2640 C   0  0  0  0  0  0
  -25.9705  -30.7737   21.3747 C   0  0  0  0  0  0
  -26.0463  -29.3951   20.7212 C   0  0  0  0  0  0
  -27.2267  -28.5868   20.7174 C   0  0  0  0  0  0
  -26.0372  -26.8599   19.5052 C   0  0  0  0  0  0
  -24.8759  -27.6592   19.4953 C   0  0  0  0  0  0
  -23.6456  -29.8050   20.1591 C   0  0  0  0  0  0
  -25.4116  -36.3074   24.0326 C   0  0  1  0  0  0
  -20.5891  -28.3695   23.1274 C   0  0  2  0  0  0
  -20.6777  -26.9414   22.5409 C   0  0  0  0  0  0
  -19.5755  -26.6382   21.5211 C   0  0  0  0  0  0
  -18.1935  -26.7928   22.1624 C   0  0  0  0  0  0
  -19.1541  -28.8857   23.2874 C   0  0  0  0  0  0
  -18.9463  -30.1457   23.8896 C   0  0  0  0  0  0
  -17.6463  -30.6588   24.0560 C   0  0  0  0  0  0
  -25.9053  -34.9443   23.5095 C   0  0  0  0  0  0
  -16.5354  -29.9085   23.6330 C   0  0  0  0  0  0
  -16.7275  -28.6501   23.0356 C   0  0  0  0  0  0
  -26.4496  -31.6583   25.0715 C   0  0  0  0  0  0
  -25.3718  -31.3730   26.1434 C   0  0  0  0  0  0
  -27.0344  -30.3004   24.6192 C   0  0  0  0  0  0
  -27.6049  -32.4324   25.7491 C   0  0  0  0  0  0
  -27.5579  -37.1799   24.8465 C   0  0  0  0  0  0
  -21.4202  -29.3042   22.3665 N   0  0  0  0  0  0
  -26.4292  -37.3771   23.9407 N   0  0  0  0  0  0
  -24.6946  -31.0529   22.0948 N   0  0  0  0  0  0
  -23.4196  -28.8148   23.3024 O   0  0  0  0  0  0
  -28.3370  -26.4035   20.1528 O   0  0  0  0  0  0
  -26.5631  -34.8918   22.4667 O   0  0  0  0  0  0
  -23.5449  -32.1372   23.7282 O   0  0  0  0  0  0
  -29.7438  -20.6600   21.8793 C   0  0  0  0  0  0
  -29.3886  -20.1504   20.5980 C   0  0  0  0  0  0
  -29.6179  -22.0343   21.8132 C   0  0  0  0  0  0
  -29.9346  -23.0431   22.8676 C   0  0  0  0  0  0
  -29.2307  -16.0705   18.8371 C   0  0  0  0  0  0
  -29.2926  -18.6566   20.0744 C   0  0  0  0  0  0
  -29.0263  -23.7881   19.9135 C   0  0  0  0  0  0
  -30.0732  -17.3739   20.7338 C   0  0  0  0  0  0
  -28.1589  -24.9748   20.5887 C   0  0  0  0  0  0
  -29.0434  -21.2184   19.8214 N   0  0  0  0  0  0
  -29.1578  -22.3987   20.5507 N   0  0  0  0  0  0
  -29.8239  -15.9515   20.1783 N   0  0  0  0  0  0
  -31.4779  -12.6019   19.1561 H   0  0  0  0  0  0
  -30.4217  -11.5158   20.0199 H   0  0  0  0  0  0
  -29.7807  -11.5311   17.6308 H   0  0  0  0  0  0
  -29.6785  -13.2502   17.5842 H   0  0  0  0  0  0
  -27.8676  -11.2462   18.9435 H   0  0  0  0  0  0
  -27.3817  -12.4612   17.7968 H   0  0  0  0  0  0
  -27.5724  -14.2105   19.4257 H   0  0  0  0  0  0
  -28.7445  -12.2427   21.4501 H   0  0  0  0  0  0
  -28.4259  -13.9419   21.7286 H   0  0  0  0  0  0
  -25.2733   -9.5670   22.4777 H   0  0  0  0  0  0
  -23.9992   -7.4605   22.7463 H   0  0  0  0  0  0
  -21.0827   -8.8752   19.8944 H   0  0  0  0  0  0
  -22.3669  -10.9666   19.6184 H   0  0  0  0  0  0
  -21.1996   -7.6141   23.9713 H   0  0  0  0  0  0
  -21.1477   -6.0520   25.9078 H   0  0  0  0  0  0
  -22.0603   -2.7606   23.2852 H   0  0  0  0  0  0
  -22.4055  -11.9879   22.4824 H   0  0  0  0  0  0
  -21.1063  -13.1250   22.2629 H   0  0  0  0  0  0
  -24.6676  -15.8475   20.5442 H   0  0  0  0  0  0
  -26.2945  -15.6243   20.1425 H   0  0  0  0  0  0
  -26.7192  -32.5419   23.1073 H   0  0  0  0  0  0
  -25.0061  -33.9698   25.0394 H   0  0  0  0  0  0
  -22.7228  -31.2975   21.3928 H   0  0  0  0  0  0
  -23.3753  -35.9617   23.3303 H   0  0  0  0  0  0
  -24.3578  -36.8908   22.2054 H   0  0  0  0  0  0
  -23.7241  -37.6486   23.6665 H   0  0  0  0  0  0
  -26.1045  -31.5329   20.6029 H   0  0  0  0  0  0
  -26.8494  -30.8266   22.0055 H   0  0  0  0  0  0
  -28.1265  -28.9506   21.1936 H   0  0  0  0  0  0
  -25.9963  -25.8978   19.0149 H   0  0  0  0  0  0
  -23.9814  -27.2906   19.0121 H   0  0  0  0  0  0
  -23.7695  -30.5789   19.4007 H   0  0  0  0  0  0
  -22.7650  -29.2359   19.8558 H   0  0  0  0  0  0
  -25.1299  -36.1923   25.0819 H   0  0  0  0  0  0
  -20.9981  -28.3271   24.1396 H   0  0  0  0  0  0
  -20.5676  -26.2304   23.3612 H   0  0  0  0  0  0
  -21.6646  -26.7440   22.1204 H   0  0  0  0  0  0
  -19.6918  -25.6291   21.1248 H   0  0  0  0  0  0
  -19.6695  -27.3187   20.6737 H   0  0  0  0  0  0
  -17.4203  -26.6671   21.4027 H   0  0  0  0  0  0
  -18.0339  -26.0070   22.9022 H   0  0  0  0  0  0
  -19.7939  -30.7270   24.2268 H   0  0  0  0  0  0
  -17.5018  -31.6270   24.5158 H   0  0  0  0  0  0
  -15.5355  -30.2988   23.7652 H   0  0  0  0  0  0
  -15.8675  -28.0816   22.7079 H   0  0  0  0  0  0
  -24.5894  -30.7082   25.7756 H   0  0  0  0  0  0
  -24.8908  -32.2899   26.4851 H   0  0  0  0  0  0
  -25.8030  -30.8908   27.0216 H   0  0  0  0  0  0
  -26.2926  -29.6751   24.1208 H   0  0  0  0  0  0
  -27.4024  -29.7265   25.4707 H   0  0  0  0  0  0
  -27.8803  -30.4284   23.9434 H   0  0  0  0  0  0
  -27.2655  -33.3626   26.2061 H   0  0  0  0  0  0
  -28.3864  -32.6882   25.0323 H   0  0  0  0  0  0
  -28.0713  -31.8455   26.5414 H   0  0  0  0  0  0
  -28.2597  -38.0095   24.7510 H   0  0  0  0  0  0
  -28.1074  -36.2625   24.6297 H   0  0  0  0  0  0
  -27.2295  -37.1455   25.8868 H   0  0  0  0  0  0
  -20.9389  -29.8756   21.6861 H   0  0  0  0  0  0
  -26.0172  -38.2846   24.1405 H   0  0  0  0  0  0
  -30.0656  -20.0902   22.7400 H   0  0  0  0  0  0
  -30.5418  -22.6025   23.6581 H   0  0  0  0  0  0
  -29.0234  -23.4273   23.3256 H   0  0  0  0  0  0
  -30.4936  -23.8832   22.4554 H   0  0  0  0  0  0
  -28.2202  -16.4757   18.8813 H   0  0  0  0  0  0
  -29.1593  -15.1366   18.2950 H   0  0  0  0  0  0
  -29.8430  -16.7060   18.1974 H   0  0  0  0  0  0
  -29.5643  -18.7014   19.0209 H   0  0  0  0  0  0
  -28.2314  -18.4079   20.0777 H   0  0  0  0  0  0
  -30.0452  -24.1604   19.8071 H   0  0  0  0  0  0
  -28.6690  -23.6504   18.8929 H   0  0  0  0  0  0
  -29.8291  -17.3400   21.7958 H   0  0  0  0  0  0
  -31.1459  -17.5662   20.6869 H   0  0  0  0  0  0
  -28.3828  -24.9875   21.6536 H   0  0  0  0  0  0
  -27.1109  -24.6823   20.5401 H   0  0  0  0  0  0
  1 25  1  0  0  0
  1 30  2  0  0  0
  1 82  1  0  0  0
  2  3  1  0  0  0
  2 25  1  0  0  0
  2 83  1  0  0  0
  2 84  1  0  0  0
  3  4  1  0  0  0
  3 85  1  0  0  0
  3 86  1  0  0  0
  4  5  1  0  0  0
  4 87  1  0  0  0
  4 88  1  0  0  0
  5  6  1  0  0  0
  5 26  1  0  0  0
  5 89  1  0  0  0
  6 25  1  0  0  0
  6 90  1  0  0  0
  6 91  1  0  0  0
  7  8  2  0  0  0
  7 26  1  0  0  0
  7 29  1  0  0  0
  8  9  1  0  0  0
  8 22  1  0  0  0
  9 10  1  0  0  0
  9 27  2  0  0  0
 10 11  2  0  0  0
 10 15  1  0  0  0
 11 12  1  0  0  0
 11 92  1  0  0  0
 12 13  2  0  0  0
 12 93  1  0  0  0
 13 14  1  0  0  0
 13 31  1  0  0  0
 14 15  2  0  0  0
 14 94  1  0  0  0
 15 95  1  0  0  0
 16 17  2  0  0  0
 16 21  1  0  0  0
 16 31  1  0  0  0
 17 18  1  0  0  0
 17 96  1  0  0  0
 18 19  2  0  0  0
 18 97  1  0  0  0
 19 20  1  0  0  0
 19 24  1  0  0  0
 20 21  2  0  0  0
 20 98  1  0  0  0
 21 23  1  0  0  0
 22 28  1  0  0  0
 22 32  2  0  0  0
 26 27  1  0  0  0
 28 99  1  0  0  0
 28100  1  0  0  0
 29101  1  0  0  0
 29102  1  0  0  0
 33 34  1  0  0  0
 33 66  1  0  0  0
 33 70  2  0  0  0
 34 36  1  0  0  0
 34 59  1  0  0  0
 34103  1  0  0  0
 35 44  2  0  0  0
 35 45  1  0  0  0
 35 68  1  0  0  0
 36 56  1  0  0  0
 36104  1  0  0  0
 37 39  1  0  0  0
 37 47  1  0  0  0
 37 66  1  0  0  0
 37105  1  0  0  0
 38 43  2  0  0  0
 38 46  1  0  0  0
 38 47  1  0  0  0
 39 64  1  0  0  0
 39 67  2  0  0  0
 40 52  1  0  0  0
 40 53  2  0  0  0
 40 58  1  0  0  0
 41106  1  0  0  0
 41107  1  0  0  0
 41108  1  0  0  0
 41 48  1  0  0  0
 42 43  1  0  0  0
 42 66  1  0  0  0
 42109  1  0  0  0
 42110  1  0  0  0
 43 44  1  0  0  0
 44111  1  0  0  0
 45 46  2  0  0  0
 45112  1  0  0  0
 46113  1  0  0  0
 47114  1  0  0  0
 47115  1  0  0  0
 48 56  1  0  0  0
 48 65  1  0  0  0
 48116  1  0  0  0
 49 50  1  0  0  0
 49 53  1  0  0  0
 49 64  1  0  0  0
 49117  1  0  0  0
 50 51  1  0  0  0
 50118  1  0  0  0
 50119  1  0  0  0
 51 52  1  0  0  0
 51120  1  0  0  0
 51121  1  0  0  0
 52122  1  0  0  0
 52123  1  0  0  0
 53 54  1  0  0  0
 54 55  2  0  0  0
 54124  1  0  0  0
 55 57  1  0  0  0
 55125  1  0  0  0
 56 69  2  0  0  0
 57 58  2  0  0  0
 57126  1  0  0  0
 58127  1  0  0  0
 59 60  1  0  0  0
 59 61  1  0  0  0
 59 62  1  0  0  0
 60128  1  0  0  0
 60129  1  0  0  0
 60130  1  0  0  0
 61131  1  0  0  0
 61132  1  0  0  0
 61133  1  0  0  0
 62134  1  0  0  0
 62135  1  0  0  0
 62136  1  0  0  0
 63 65  1  0  0  0
 63137  1  0  0  0
 63138  1  0  0  0
 63139  1  0  0  0
 64140  1  0  0  0
 65141  1  0  0  0
 68 79  1  0  0  0
 71 72  1  0  0  0
 71 73  2  0  0  0
 71142  1  0  0  0
 72 76  1  0  0  0
 72 80  2  0  0  0
 73 74  1  0  0  0
 73 81  1  0  0  0
 74143  1  0  0  0
 74144  1  0  0  0
 74145  1  0  0  0
 75 82  1  0  0  0
 75146  1  0  0  0
 75147  1  0  0  0
 75148  1  0  0  0
 76 78  1  0  0  0
 76149  1  0  0  0
 76150  1  0  0  0
 77 79  1  0  0  0
 77 81  1  0  0  0
 77151  1  0  0  0
 77152  1  0  0  0
 78 82  1  0  0  0
 78153  1  0  0  0
 78154  1  0  0  0
 79155  1  0  0  0
 79156  1  0  0  0
 80 81  1  0  0  0
M  ISO  4   1 100  68 101  79 101  82 100
M  END
> <chiral flag>
0

> <version>
0

> <s_m_source_file>
/data/baiqing/PycharmProjects/Reinvent-master-3.2/result/LINK_invent/BTK/process_docking_weight1_custom_sum_contain_oxygen_bond_distance_aromatic_linkinvent_7_9_3/rearranged_h_0056.sdf

> <i_m_source_file_index>
60

> <r_mmod_Potential_Energy-OPLS-2005>
334.077392578125

> <r_mmod_Stretch_Energy-OPLS-2005>
128.899963378906

> <r_mmod_Bend_Energy-OPLS-2005>
176.413467407227

> <r_mmod_Torsional_Energy-OPLS-2005>
324.572113037109

> <r_mmod_Improper_Torsional_Energy-OPLS-2005>
11.7255916595459

> <r_mmod_Van_der_Waal_Energy-OPLS-2005>
125.722305297852

> <r_mmod_Electrostatic_Energy-OPLS-2005>
-322.051696777344

> <r_mmod_Solvation_Energy-OPLS-2005>
-214.322998046875

> <b_mmod_Minimization_Converged-OPLS-2005>
0

> <r_mmod_RMS_Derivative-OPLS-2005>
0.345359951257706

$$$$
62
                    3D
 Structure written by MMmdl.
151159  0  0  1  0            999 V2000
  -30.4756  -15.2584   20.3883 C   0  0  0  0  0  0
  -30.4479  -12.8097   19.5130 C   0  0  0  0  0  0
  -29.5364  -12.5749   18.2816 C   0  0  0  0  0  0
  -28.0855  -12.2925   18.7117 C   0  0  0  0  0  0
  -27.6175  -13.2588   19.8258 C   0  0  2  0  0  0
  -28.6646  -13.4005   20.9543 C   0  0  0  0  0  0
  -25.2331  -13.8151   20.5644 C   0  0  0  0  0  0
  -24.1716  -13.0366   20.9268 C   0  0  0  0  0  0
  -24.6394  -11.6883   20.8800 C   0  0  0  0  0  0
  -23.9088  -10.4263   21.0437 C   0  0  0  0  0  0
  -24.3632   -9.4182   21.9210 C   0  0  0  0  0  0
  -23.6302   -8.2219   22.0756 C   0  0  0  0  0  0
  -22.4286   -8.0270   21.3534 C   0  0  0  0  0  0
  -21.9926   -9.0256   20.4640 C   0  0  0  0  0  0
  -22.7267  -10.2127   20.3071 C   0  0  0  0  0  0
  -21.6856   -6.0732   22.5272 C   0  0  0  0  0  0
  -21.4018   -6.5640   23.8205 C   0  0  0  0  0  0
  -21.3654   -5.6793   24.9166 C   0  0  0  0  0  0
  -21.6044   -4.3055   24.7221 C   0  0  0  0  0  0
  -21.8823   -3.8145   23.4343 C   0  0  0  0  0  0
  -21.9200   -4.6961   22.3398 C   0  0  0  0  0  0
  -22.7736  -13.5148   21.1922 C   0  0  0  0  0  0
  -22.1670   -4.2146   21.0977 F   0  0  0  0  0  0
  -21.5623   -3.4538   25.7735 F   0  0  0  0  0  0
  -29.8885  -13.9526   20.3303 N   0  0  0  0  0  0
  -26.2827  -12.9446   20.3222 N   0  0  0  0  0  0
  -25.9332  -11.6566   20.5765 N   0  0  0  0  0  0
  -22.0381  -12.8149   22.0482 N   0  0  0  0  0  0
  -25.3693  -15.1860   20.3872 N   0  0  0  0  0  0
  -31.6900  -15.2316   20.1363 O   0  0  0  0  0  0
  -21.6648   -6.8870   21.4229 O   0  0  0  0  0  0
  -22.3430  -14.5454   20.6760 O   0  0  0  0  0  0
  -24.6583  -31.8268   23.1726 C   0  0  0  0  0  0
  -25.9301  -32.4588   23.8159 C   0  0  1  0  0  0
  -27.2227  -26.9630   20.1708 C   0  0  0  0  0  0
  -25.5987  -33.8405   24.2056 N   0  0  0  0  0  0
  -23.4705  -30.4405   21.5227 C   0  0  2  0  0  0
  -24.9249  -28.8388   20.1095 C   0  0  0  0  0  0
  -22.7647  -29.4452   22.4794 C   0  0  0  0  0  0
  -18.0318  -28.1399   22.8464 C   0  0  0  0  0  0
  -24.1504  -36.7195   23.2649 C   0  0  0  0  0  0
  -26.0398  -30.6436   21.4008 C   0  0  0  0  0  0
  -26.1097  -29.2402   20.7395 C   0  0  0  0  0  0
  -27.2544  -28.3254   20.7448 C   0  0  0  0  0  0
  -26.0057  -26.7100   19.4955 C   0  0  0  0  0  0
  -24.8971  -27.5921   19.4674 C   0  0  0  0  0  0
  -23.7082  -29.7616   20.1472 C   0  0  0  0  0  0
  -25.4140  -36.2952   24.0293 C   0  0  1  0  0  0
  -20.5946  -28.3733   23.1204 C   0  0  2  0  0  0
  -20.6800  -26.9418   22.5408 C   0  0  0  0  0  0
  -19.5778  -26.6356   21.5220 C   0  0  0  0  0  0
  -18.1951  -26.7933   22.1612 C   0  0  0  0  0  0
  -19.1579  -28.8885   23.2819 C   0  0  0  0  0  0
  -18.9498  -30.1486   23.8841 C   0  0  0  0  0  0
  -17.6490  -30.6594   24.0550 C   0  0  0  0  0  0
  -25.9107  -34.9348   23.4986 C   0  0  0  0  0  0
  -16.5380  -29.9078   23.6353 C   0  0  0  0  0  0
  -16.7299  -28.6503   23.0360 C   0  0  0  0  0  0
  -26.4548  -31.6538   25.0694 C   0  0  0  0  0  0
  -25.3674  -31.3840   26.1361 C   0  0  0  0  0  0
  -27.0424  -30.2877   24.6465 C   0  0  0  0  0  0
  -27.6040  -32.4358   25.7482 C   0  0  0  0  0  0
  -27.5565  -37.1750   24.8466 C   0  0  0  0  0  0
  -21.4317  -29.3033   22.3561 N   0  0  0  0  0  0
  -26.4272  -37.3691   23.9417 N   0  0  0  0  0  0
  -24.7437  -30.9968   22.0848 N   0  0  0  0  0  0
  -23.4217  -28.8020   23.3013 O   0  0  0  0  0  0
  -28.2213  -25.8598   20.2517 O   0  0  0  0  0  0
  -26.5712  -34.8890   22.4578 O   0  0  0  0  0  0
  -23.5665  -32.1229   23.6841 O   0  0  0  0  0  0
  -29.2727  -21.9459   19.1482 C   0  0  0  0  0  0
  -28.6542  -22.7344   20.1978 C   0  0  0  0  0  0
  -28.5154  -21.7534   21.2696 C   0  0  0  0  0  0
  -29.4916  -19.7185   20.2232 C   0  0  0  0  0  0
  -27.7925  -22.1662   22.5339 C   0  0  0  0  0  0
  -28.4511  -16.6005   21.1046 C   0  0  0  0  0  0
  -27.8633  -24.2842   20.0196 C   0  0  0  0  0  0
  -30.2413  -18.1394   20.2737 C   0  0  0  0  0  0
  -29.6658  -20.5802   19.1719 N   0  0  0  0  0  0
  -28.9317  -20.3885   21.2792 N   0  0  0  0  0  0
  -29.7664  -16.5694   20.4852 N   0  0  0  0  0  0
  -31.4614  -13.0171   19.1662 H   0  0  0  0  0  0
  -30.5328  -11.9017   20.1122 H   0  0  0  0  0  0
  -29.9177  -11.7477   17.6814 H   0  0  0  0  0  0
  -29.5621  -13.4568   17.6391 H   0  0  0  0  0  0
  -28.0458  -11.2670   19.0806 H   0  0  0  0  0  0
  -27.4153  -12.3385   17.8529 H   0  0  0  0  0  0
  -27.5334  -14.2209   19.3239 H   0  0  0  0  0  0
  -28.8489  -12.4356   21.4292 H   0  0  0  0  0  0
  -28.2973  -14.0394   21.7543 H   0  0  0  0  0  0
  -25.2762   -9.5666   22.4804 H   0  0  0  0  0  0
  -24.0006   -7.4605   22.7466 H   0  0  0  0  0  0
  -21.0859   -8.8799   19.8933 H   0  0  0  0  0  0
  -22.3735  -10.9689   19.6196 H   0  0  0  0  0  0
  -21.2013   -7.6150   23.9705 H   0  0  0  0  0  0
  -21.1464   -6.0522   25.9066 H   0  0  0  0  0  0
  -22.0602   -2.7607   23.2848 H   0  0  0  0  0  0
  -22.4024  -11.9867   22.4949 H   0  0  0  0  0  0
  -21.0963  -13.1120   22.2623 H   0  0  0  0  0  0
  -24.5702  -15.8040   20.4739 H   0  0  0  0  0  0
  -26.1780  -15.6386   19.9830 H   0  0  0  0  0  0
  -26.7362  -32.5121   23.0865 H   0  0  0  0  0  0
  -25.0114  -33.9495   25.0190 H   0  0  0  0  0  0
  -22.7801  -31.2708   21.3572 H   0  0  0  0  0  0
  -23.3778  -35.9515   23.3267 H   0  0  0  0  0  0
  -24.3572  -36.8880   22.2069 H   0  0  0  0  0  0
  -23.7247  -37.6361   23.6734 H   0  0  0  0  0  0
  -26.2282  -31.3929   20.6307 H   0  0  0  0  0  0
  -26.8958  -30.6860   22.0628 H   0  0  0  0  0  0
  -28.1505  -28.6361   21.2644 H   0  0  0  0  0  0
  -25.8659  -25.7596   19.0025 H   0  0  0  0  0  0
  -23.9975  -27.2766   18.9577 H   0  0  0  0  0  0
  -23.8577  -30.5352   19.3929 H   0  0  0  0  0  0
  -22.8180  -29.2164   19.8276 H   0  0  0  0  0  0
  -25.1338  -36.1723   25.0778 H   0  0  0  0  0  0
  -21.0021  -28.3333   24.1333 H   0  0  0  0  0  0
  -20.5680  -26.2346   23.3640 H   0  0  0  0  0  0
  -21.6665  -26.7398   22.1218 H   0  0  0  0  0  0
  -19.6949  -25.6253   21.1279 H   0  0  0  0  0  0
  -19.6732  -27.3148   20.6742 H   0  0  0  0  0  0
  -17.4225  -26.6677   21.4012 H   0  0  0  0  0  0
  -18.0345  -26.0082   22.9014 H   0  0  0  0  0  0
  -19.7979  -30.7317   24.2165 H   0  0  0  0  0  0
  -17.5051  -31.6274   24.5153 H   0  0  0  0  0  0
  -15.5382  -30.2962   23.7723 H   0  0  0  0  0  0
  -15.8697  -28.0810   22.7103 H   0  0  0  0  0  0
  -24.5842  -30.7200   25.7676 H   0  0  0  0  0  0
  -24.8895  -32.3079   26.4633 H   0  0  0  0  0  0
  -25.7893  -30.9084   27.0228 H   0  0  0  0  0  0
  -26.3088  -29.6554   24.1449 H   0  0  0  0  0  0
  -27.3893  -29.7247   25.5143 H   0  0  0  0  0  0
  -27.9060  -30.4000   23.9909 H   0  0  0  0  0  0
  -27.2614  -33.3749   26.1837 H   0  0  0  0  0  0
  -28.3954  -32.6766   25.0372 H   0  0  0  0  0  0
  -28.0584  -31.8623   26.5569 H   0  0  0  0  0  0
  -28.2557  -38.0070   24.7497 H   0  0  0  0  0  0
  -28.1075  -36.2585   24.6291 H   0  0  0  0  0  0
  -27.2282  -37.1393   25.8871 H   0  0  0  0  0  0
  -20.9556  -29.8706   21.6689 H   0  0  0  0  0  0
  -26.0104  -38.2736   24.1444 H   0  0  0  0  0  0
  -29.4186  -22.4219   18.1898 H   0  0  0  0  0  0
  -28.2179  -23.0838   22.9398 H   0  0  0  0  0  0
  -27.8631  -21.3945   23.3015 H   0  0  0  0  0  0
  -26.7364  -22.3362   22.3242 H   0  0  0  0  0  0
  -27.7583  -16.0277   20.5062 H   0  0  0  0  0  0
  -28.0379  -17.6067   21.1845 H   0  0  0  0  0  0
  -28.4913  -16.1932   22.1139 H   0  0  0  0  0  0
  -26.9289  -24.1553   20.5657 H   0  0  0  0  0  0
  -27.5599  -24.2613   18.9729 H   0  0  0  0  0  0
  -30.9999  -18.2600   21.0471 H   0  0  0  0  0  0
  -30.8244  -18.1004   19.3529 H   0  0  0  0  0  0
  1 25  1  0  0  0
  1 30  2  0  0  0
  1 81  1  0  0  0
  2  3  1  0  0  0
  2 25  1  0  0  0
  2 82  1  0  0  0
  2 83  1  0  0  0
  3  4  1  0  0  0
  3 84  1  0  0  0
  3 85  1  0  0  0
  4  5  1  0  0  0
  4 86  1  0  0  0
  4 87  1  0  0  0
  5  6  1  0  0  0
  5 26  1  0  0  0
  5 88  1  0  0  0
  6 25  1  0  0  0
  6 89  1  0  0  0
  6 90  1  0  0  0
  7  8  2  0  0  0
  7 26  1  0  0  0
  7 29  1  0  0  0
  8  9  1  0  0  0
  8 22  1  0  0  0
  9 10  1  0  0  0
  9 27  2  0  0  0
 10 11  2  0  0  0
 10 15  1  0  0  0
 11 12  1  0  0  0
 11 91  1  0  0  0
 12 13  2  0  0  0
 12 92  1  0  0  0
 13 14  1  0  0  0
 13 31  1  0  0  0
 14 15  2  0  0  0
 14 93  1  0  0  0
 15 94  1  0  0  0
 16 17  2  0  0  0
 16 21  1  0  0  0
 16 31  1  0  0  0
 17 18  1  0  0  0
 17 95  1  0  0  0
 18 19  2  0  0  0
 18 96  1  0  0  0
 19 20  1  0  0  0
 19 24  1  0  0  0
 20 21  2  0  0  0
 20 97  1  0  0  0
 21 23  1  0  0  0
 22 28  1  0  0  0
 22 32  2  0  0  0
 26 27  1  0  0  0
 28 98  1  0  0  0
 28 99  1  0  0  0
 29100  1  0  0  0
 29101  1  0  0  0
 33 34  1  0  0  0
 33 66  1  0  0  0
 33 70  2  0  0  0
 34 36  1  0  0  0
 34 59  1  0  0  0
 34102  1  0  0  0
 35 44  2  0  0  0
 35 45  1  0  0  0
 35 68  1  0  0  0
 36 56  1  0  0  0
 36103  1  0  0  0
 37 39  1  0  0  0
 37 47  1  0  0  0
 37 66  1  0  0  0
 37104  1  0  0  0
 38 43  2  0  0  0
 38 46  1  0  0  0
 38 47  1  0  0  0
 39 64  1  0  0  0
 39 67  2  0  0  0
 40 52  1  0  0  0
 40 53  2  0  0  0
 40 58  1  0  0  0
 41105  1  0  0  0
 41106  1  0  0  0
 41107  1  0  0  0
 41 48  1  0  0  0
 42 43  1  0  0  0
 42 66  1  0  0  0
 42108  1  0  0  0
 42109  1  0  0  0
 43 44  1  0  0  0
 44110  1  0  0  0
 45 46  2  0  0  0
 45111  1  0  0  0
 46112  1  0  0  0
 47113  1  0  0  0
 47114  1  0  0  0
 48 56  1  0  0  0
 48 65  1  0  0  0
 48115  1  0  0  0
 49 50  1  0  0  0
 49 53  1  0  0  0
 49 64  1  0  0  0
 49116  1  0  0  0
 50 51  1  0  0  0
 50117  1  0  0  0
 50118  1  0  0  0
 51 52  1  0  0  0
 51119  1  0  0  0
 51120  1  0  0  0
 52121  1  0  0  0
 52122  1  0  0  0
 53 54  1  0  0  0
 54 55  2  0  0  0
 54123  1  0  0  0
 55 57  1  0  0  0
 55124  1  0  0  0
 56 69  2  0  0  0
 57 58  2  0  0  0
 57125  1  0  0  0
 58126  1  0  0  0
 59 60  1  0  0  0
 59 61  1  0  0  0
 59 62  1  0  0  0
 60127  1  0  0  0
 60128  1  0  0  0
 60129  1  0  0  0
 61130  1  0  0  0
 61131  1  0  0  0
 61132  1  0  0  0
 62133  1  0  0  0
 62134  1  0  0  0
 62135  1  0  0  0
 63 65  1  0  0  0
 63136  1  0  0  0
 63137  1  0  0  0
 63138  1  0  0  0
 64139  1  0  0  0
 65140  1  0  0  0
 68 77  1  0  0  0
 71 72  2  0  0  0
 71 79  1  0  0  0
 71141  1  0  0  0
 72 73  1  0  0  0
 72 77  1  0  0  0
 73 75  1  0  0  0
 73 80  2  0  0  0
 74 78  1  0  0  0
 74 79  2  0  0  0
 74 80  1  0  0  0
 75142  1  0  0  0
 75143  1  0  0  0
 75144  1  0  0  0
 76 81  1  0  0  0
 76145  1  0  0  0
 76146  1  0  0  0
 76147  1  0  0  0
 77148  1  0  0  0
 77149  1  0  0  0
 78 81  1  0  0  0
 78150  1  0  0  0
 78151  1  0  0  0
M  ISO  4   1 100  68 101  77 101  81 100
M  END
> <chiral flag>
0

> <version>
0

> <s_m_source_file>
/data/baiqing/PycharmProjects/Reinvent-master-3.2/result/LINK_invent/BTK/process_docking_weight1_custom_sum_contain_oxygen_bond_distance_aromatic_linkinvent_7_9_3/rearranged_h_0056.sdf

> <i_m_source_file_index>
61

> <r_mmod_Potential_Energy-OPLS-2005>
787.467834472656

> <r_mmod_Stretch_Energy-OPLS-2005>
490.661315917969

> <r_mmod_Bend_Energy-OPLS-2005>
444.36865234375

> <r_mmod_Torsional_Energy-OPLS-2005>
257.941772460938

> <r_mmod_Improper_Torsional_Energy-OPLS-2005>
11.888237953186

> <r_mmod_Van_der_Waal_Energy-OPLS-2005>
144.494827270508

> <r_mmod_Electrostatic_Energy-OPLS-2005>
-747.37744140625

> <r_mmod_Solvation_Energy-OPLS-2005>
-237.682998657227

> <b_mmod_Minimization_Converged-OPLS-2005>
0

> <r_mmod_RMS_Derivative-OPLS-2005>
2.07425761222839

$$$$
63
                    3D
 Structure written by MMmdl.
175183  0  0  1  0            999 V2000
  -30.7935  -14.3275   20.7069 C   0  0  0  0  0  0
  -30.4126  -12.2823   19.3829 C   0  0  0  0  0  0
  -29.4778  -12.5287   18.1860 C   0  0  0  0  0  0
  -28.0043  -12.3803   18.6064 C   0  0  0  0  0  0
  -27.6662  -13.1998   19.8781 C   0  0  2  0  0  0
  -28.7049  -12.9378   20.9912 C   0  0  0  0  0  0
  -25.2614  -13.8161   20.5669 C   0  0  0  0  0  0
  -24.1856  -13.0445   20.9166 C   0  0  0  0  0  0
  -24.6396  -11.6906   20.8730 C   0  0  0  0  0  0
  -23.9058  -10.4296   21.0405 C   0  0  0  0  0  0
  -24.3613   -9.4211   21.9180 C   0  0  0  0  0  0
  -23.6289   -8.2246   22.0753 C   0  0  0  0  0  0
  -22.4272   -8.0282   21.3544 C   0  0  0  0  0  0
  -21.9904   -9.0257   20.4648 C   0  0  0  0  0  0
  -22.7231  -10.2136   20.3054 C   0  0  0  0  0  0
  -21.6852   -6.0736   22.5279 C   0  0  0  0  0  0
  -21.4015   -6.5640   23.8213 C   0  0  0  0  0  0
  -21.3658   -5.6794   24.9175 C   0  0  0  0  0  0
  -21.6044   -4.3056   24.7225 C   0  0  0  0  0  0
  -21.8819   -3.8147   23.4348 C   0  0  0  0  0  0
  -21.9194   -4.6964   22.3403 C   0  0  0  0  0  0
  -22.7882  -13.5254   21.1837 C   0  0  0  0  0  0
  -22.1662   -4.2151   21.0980 F   0  0  0  0  0  0
  -21.5628   -3.4538   25.7737 F   0  0  0  0  0  0
  -30.0502  -13.2191   20.4551 N   0  0  0  0  0  0
  -26.3047  -12.9316   20.3374 N   0  0  0  0  0  0
  -25.9321  -11.6481   20.5761 N   0  0  0  0  0  0
  -22.0515  -12.8244   22.0388 N   0  0  0  0  0  0
  -25.4355  -15.1874   20.4063 N   0  0  0  0  0  0
  -31.8130  -14.6211   20.0724 O   0  0  0  0  0  0
  -21.6637   -6.8878   21.4241 O   0  0  0  0  0  0
  -22.3571  -14.5563   20.6690 O   0  0  0  0  0  0
  -24.6125  -31.8715   23.2161 C   0  0  0  0  0  0
  -25.9028  -32.4843   23.8431 C   0  0  1  0  0  0
  -27.2304  -27.4622   20.0656 C   0  0  0  0  0  0
  -25.5900  -33.8645   24.2362 N   0  0  0  0  0  0
  -23.3966  -30.5005   21.5569 C   0  0  2  0  0  0
  -24.8385  -28.9739   20.1191 C   0  0  0  0  0  0
  -22.7383  -29.4692   22.5012 C   0  0  0  0  0  0
  -18.0255  -28.1382   22.8490 C   0  0  0  0  0  0
  -24.1477  -36.7314   23.2640 C   0  0  0  0  0  0
  -25.9261  -30.8410   21.3697 C   0  0  0  0  0  0
  -25.9990  -29.4768   20.7199 C   0  0  0  0  0  0
  -27.1916  -28.7207   20.7072 C   0  0  0  0  0  0
  -26.0433  -26.9764   19.4649 C   0  0  0  0  0  0
  -24.8515  -27.7165   19.4995 C   0  0  0  0  0  0
  -23.6034  -29.8400   20.1691 C   0  0  0  0  0  0
  -25.4098  -36.3118   24.0346 C   0  0  1  0  0  0
  -20.5850  -28.3667   23.1328 C   0  0  2  0  0  0
  -20.6762  -26.9416   22.5412 C   0  0  0  0  0  0
  -19.5739  -26.6391   21.5208 C   0  0  0  0  0  0
  -18.1912  -26.7930   22.1622 C   0  0  0  0  0  0
  -19.1509  -28.8838   23.2908 C   0  0  0  0  0  0
  -18.9442  -30.1439   23.8924 C   0  0  0  0  0  0
  -17.6452  -30.6590   24.0558 C   0  0  0  0  0  0
  -25.9024  -34.9490   23.5147 C   0  0  0  0  0  0
  -16.5340  -29.9100   23.6325 C   0  0  0  0  0  0
  -16.7246  -28.6511   23.0351 C   0  0  0  0  0  0
  -26.4475  -31.6607   25.0738 C   0  0  0  0  0  0
  -25.3761  -31.3697   26.1495 C   0  0  0  0  0  0
  -27.0296  -30.3053   24.6096 C   0  0  0  0  0  0
  -27.6059  -32.4318   25.7482 C   0  0  0  0  0  0
  -27.5573  -37.1810   24.8465 C   0  0  0  0  0  0
  -21.4119  -29.3036   22.3738 N   0  0  0  0  0  0
  -26.4284  -37.3801   23.9413 N   0  0  0  0  0  0
  -24.6629  -31.0846   22.1057 N   0  0  0  0  0  0
  -23.4171  -28.8227   23.3031 O   0  0  0  0  0  0
  -28.4218  -26.7630   20.0468 O   0  0  0  0  0  0
  -26.5567  -34.8931   22.4699 O   0  0  0  0  0  0
  -23.5325  -32.1465   23.7574 O   0  0  0  0  0  0
  -28.6479  -18.4228   19.2279 C   0  0  0  0  0  0
  -27.8033  -19.4879   18.9064 C   0  0  0  0  0  0
  -29.2577  -18.4510   20.4858 C   0  0  0  0  0  0
  -28.1777  -20.3981   20.9763 C   0  0  0  0  0  0
  -27.8715  -21.4906   21.9773 C   0  0  0  0  0  0
  -31.3331  -15.1235   22.9381 C   0  0  0  0  0  0
  -25.2414  -22.9393   19.2970 C   0  0  0  0  0  0
  -27.1758  -19.5794   17.5222 C   0  0  0  0  0  0
  -30.2335  -17.3689   20.8939 C   0  0  0  0  0  0
  -25.8373  -20.3433   17.4447 C   0  0  0  0  0  0
  -27.9587  -24.4114   19.3961 C   0  0  0  0  0  0
  -29.5448  -16.2005   21.6293 C   0  0  0  0  0  0
  -26.0068  -21.8619   17.2282 C   0  0  0  0  0  0
  -27.3242  -23.7259   18.1619 C   0  0  0  0  0  0
  -28.6082  -25.7679   19.0367 C   0  0  0  0  0  0
  -27.6003  -20.5001   19.7783 N   0  0  0  0  0  0
  -28.9971  -19.4296   21.3695 N   0  0  0  0  0  0
  -30.4264  -15.0364   21.7929 N   0  0  0  0  0  0
  -26.4167  -22.5828   18.4618 N   0  3  1  0  0  0
  -31.4548  -12.3807   19.0740 H   0  0  0  0  0  0
  -30.3090  -11.2575   19.7422 H   0  0  0  0  0  0
  -29.7073  -11.8315   17.3792 H   0  0  0  0  0  0
  -29.6471  -13.5287   17.7840 H   0  0  0  0  0  0
  -27.8123  -11.3216   18.7847 H   0  0  0  0  0  0
  -27.3482  -12.6734   17.7860 H   0  0  0  0  0  0
  -27.7243  -14.2526   19.6035 H   0  0  0  0  0  0
  -28.6617  -11.8960   21.3109 H   0  0  0  0  0  0
  -28.4573  -13.5194   21.8793 H   0  0  0  0  0  0
  -25.2760   -9.5687   22.4749 H   0  0  0  0  0  0
  -24.0003   -7.4638   22.7469 H   0  0  0  0  0  0
  -21.0835   -8.8773   19.8953 H   0  0  0  0  0  0
  -22.3691  -10.9673   19.6160 H   0  0  0  0  0  0
  -21.2005   -7.6149   23.9718 H   0  0  0  0  0  0
  -21.1481   -6.0522   25.9079 H   0  0  0  0  0  0
  -22.0599   -2.7608   23.2846 H   0  0  0  0  0  0
  -22.4124  -11.9901   22.4768 H   0  0  0  0  0  0
  -21.1137  -13.1276   22.2596 H   0  0  0  0  0  0
  -24.6696  -15.8437   20.5127 H   0  0  0  0  0  0
  -26.2903  -15.6240   20.0857 H   0  0  0  0  0  0
  -26.7096  -32.5549   23.1192 H   0  0  0  0  0  0
  -25.0062  -33.9811   25.0514 H   0  0  0  0  0  0
  -22.6820  -31.3160   21.4222 H   0  0  0  0  0  0
  -23.3734  -35.9650   23.3317 H   0  0  0  0  0  0
  -24.3569  -36.8912   22.2050 H   0  0  0  0  0  0
  -23.7247  -37.6535   23.6639 H   0  0  0  0  0  0
  -26.0395  -31.6067   20.6005 H   0  0  0  0  0  0
  -26.8152  -30.8926   21.9871 H   0  0  0  0  0  0
  -28.0889  -29.1089   21.1704 H   0  0  0  0  0  0
  -26.0004  -26.0324   18.9543 H   0  0  0  0  0  0
  -23.9588  -27.3236   19.0322 H   0  0  0  0  0  0
  -23.7131  -30.6161   19.4112 H   0  0  0  0  0  0
  -22.7266  -29.2620   19.8701 H   0  0  0  0  0  0
  -25.1281  -36.1982   25.0841 H   0  0  0  0  0  0
  -20.9933  -28.3233   24.1452 H   0  0  0  0  0  0
  -20.5681  -26.2275   23.3594 H   0  0  0  0  0  0
  -21.6632  -26.7465   22.1206 H   0  0  0  0  0  0
  -19.6903  -25.6303   21.1238 H   0  0  0  0  0  0
  -19.6688  -27.3197   20.6745 H   0  0  0  0  0  0
  -17.4192  -26.6658   21.4023 H   0  0  0  0  0  0
  -18.0319  -26.0065   22.9023 H   0  0  0  0  0  0
  -19.7917  -30.7232   24.2323 H   0  0  0  0  0  0
  -17.5015  -31.6281   24.5144 H   0  0  0  0  0  0
  -15.5348  -30.3021   23.7636 H   0  0  0  0  0  0
  -15.8640  -28.0838   22.7083 H   0  0  0  0  0  0
  -24.5912  -30.7070   25.7832 H   0  0  0  0  0  0
  -24.8969  -32.2842   26.4988 H   0  0  0  0  0  0
  -25.8123  -30.8825   27.0224 H   0  0  0  0  0  0
  -26.2826  -29.6821   24.1157 H   0  0  0  0  0  0
  -27.4086  -29.7288   25.4545 H   0  0  0  0  0  0
  -27.8665  -30.4380   23.9238 H   0  0  0  0  0  0
  -27.2686  -33.3607   26.2099 H   0  0  0  0  0  0
  -28.3837  -32.6902   25.0282 H   0  0  0  0  0  0
  -28.0766  -31.8422   26.5358 H   0  0  0  0  0  0
  -28.2606  -38.0097   24.7506 H   0  0  0  0  0  0
  -28.1056  -36.2627   24.6291 H   0  0  0  0  0  0
  -27.2288  -37.1477   25.8870 H   0  0  0  0  0  0
  -20.9275  -29.8761   21.6970 H   0  0  0  0  0  0
  -26.0169  -38.2880   24.1412 H   0  0  0  0  0  0
  -28.8503  -17.6294   18.5204 H   0  0  0  0  0  0
  -26.8123  -21.7438   21.9566 H   0  0  0  0  0  0
  -28.4435  -22.3883   21.7493 H   0  0  0  0  0  0
  -28.1184  -21.1787   22.9924 H   0  0  0  0  0  0
  -30.7779  -15.3004   23.8596 H   0  0  0  0  0  0
  -32.0511  -15.9340   22.8073 H   0  0  0  0  0  0
  -31.8963  -14.1973   23.0708 H   0  0  0  0  0  0
  -25.5279  -23.2732   20.2921 H   0  0  0  0  0  0
  -24.5946  -22.0745   19.4454 H   0  0  0  0  0  0
  -24.6466  -23.7253   18.8302 H   0  0  0  0  0  0
  -26.9909  -18.5556   17.1922 H   0  0  0  0  0  0
  -27.9030  -19.9860   16.8192 H   0  0  0  0  0  0
  -31.0128  -17.8038   21.5213 H   0  0  0  0  0  0
  -30.7347  -17.0301   19.9877 H   0  0  0  0  0  0
  -25.1932  -20.1069   18.2923 H   0  0  0  0  0  0
  -25.3071  -19.9671   16.5688 H   0  0  0  0  0  0
  -27.2263  -24.5810   20.1810 H   0  0  0  0  0  0
  -28.7078  -23.7535   19.8369 H   0  0  0  0  0  0
  -28.6637  -15.8967   21.0627 H   0  0  0  0  0  0
  -29.1703  -16.5381   22.5962 H   0  0  0  0  0  0
  -25.0789  -22.2925   16.8502 H   0  0  0  0  0  0
  -26.7336  -22.0154   16.4293 H   0  0  0  0  0  0
  -28.1407  -23.3757   17.5289 H   0  0  0  0  0  0
  -26.7687  -24.4469   17.5615 H   0  0  0  0  0  0
  -29.6800  -25.6227   18.8971 H   0  0  0  0  0  0
  -28.2451  -26.1525   18.0812 H   0  0  0  0  0  0
  -26.9546  -21.8923   18.9970 H   0  0  0  0  0  0
  1 25  1  0  0  0
  1 30  2  0  0  0
  1 88  1  0  0  0
  2  3  1  0  0  0
  2 25  1  0  0  0
  2 90  1  0  0  0
  2 91  1  0  0  0
  3  4  1  0  0  0
  3 92  1  0  0  0
  3 93  1  0  0  0
  4  5  1  0  0  0
  4 94  1  0  0  0
  4 95  1  0  0  0
  5  6  1  0  0  0
  5 26  1  0  0  0
  5 96  1  0  0  0
  6 25  1  0  0  0
  6 97  1  0  0  0
  6 98  1  0  0  0
  7  8  2  0  0  0
  7 26  1  0  0  0
  7 29  1  0  0  0
  8  9  1  0  0  0
  8 22  1  0  0  0
  9 10  1  0  0  0
  9 27  2  0  0  0
 10 11  2  0  0  0
 10 15  1  0  0  0
 11 12  1  0  0  0
 11 99  1  0  0  0
 12 13  2  0  0  0
 12100  1  0  0  0
 13 14  1  0  0  0
 13 31  1  0  0  0
 14 15  2  0  0  0
 14101  1  0  0  0
 15102  1  0  0  0
 16 17  2  0  0  0
 16 21  1  0  0  0
 16 31  1  0  0  0
 17 18  1  0  0  0
 17103  1  0  0  0
 18 19  2  0  0  0
 18104  1  0  0  0
 19 20  1  0  0  0
 19 24  1  0  0  0
 20 21  2  0  0  0
 20105  1  0  0  0
 21 23  1  0  0  0
 22 28  1  0  0  0
 22 32  2  0  0  0
 26 27  1  0  0  0
 28106  1  0  0  0
 28107  1  0  0  0
 29108  1  0  0  0
 29109  1  0  0  0
 33 34  1  0  0  0
 33 66  1  0  0  0
 33 70  2  0  0  0
 34 36  1  0  0  0
 34 59  1  0  0  0
 34110  1  0  0  0
 35 44  2  0  0  0
 35 45  1  0  0  0
 35 68  1  0  0  0
 36 56  1  0  0  0
 36111  1  0  0  0
 37 39  1  0  0  0
 37 47  1  0  0  0
 37 66  1  0  0  0
 37112  1  0  0  0
 38 43  2  0  0  0
 38 46  1  0  0  0
 38 47  1  0  0  0
 39 64  1  0  0  0
 39 67  2  0  0  0
 40 52  1  0  0  0
 40 53  2  0  0  0
 40 58  1  0  0  0
 41113  1  0  0  0
 41114  1  0  0  0
 41115  1  0  0  0
 41 48  1  0  0  0
 42 43  1  0  0  0
 42 66  1  0  0  0
 42116  1  0  0  0
 42117  1  0  0  0
 43 44  1  0  0  0
 44118  1  0  0  0
 45 46  2  0  0  0
 45119  1  0  0  0
 46120  1  0  0  0
 47121  1  0  0  0
 47122  1  0  0  0
 48 56  1  0  0  0
 48 65  1  0  0  0
 48123  1  0  0  0
 49 50  1  0  0  0
 49 53  1  0  0  0
 49 64  1  0  0  0
 49124  1  0  0  0
 50 51  1  0  0  0
 50125  1  0  0  0
 50126  1  0  0  0
 51 52  1  0  0  0
 51127  1  0  0  0
 51128  1  0  0  0
 52129  1  0  0  0
 52130  1  0  0  0
 53 54  1  0  0  0
 54 55  2  0  0  0
 54131  1  0  0  0
 55 57  1  0  0  0
 55132  1  0  0  0
 56 69  2  0  0  0
 57 58  2  0  0  0
 57133  1  0  0  0
 58134  1  0  0  0
 59 60  1  0  0  0
 59 61  1  0  0  0
 59 62  1  0  0  0
 60135  1  0  0  0
 60136  1  0  0  0
 60137  1  0  0  0
 61138  1  0  0  0
 61139  1  0  0  0
 61140  1  0  0  0
 62141  1  0  0  0
 62142  1  0  0  0
 62143  1  0  0  0
 63 65  1  0  0  0
 63144  1  0  0  0
 63145  1  0  0  0
 63146  1  0  0  0
 64147  1  0  0  0
 65148  1  0  0  0
 68 85  1  0  0  0
 71 72  2  0  0  0
 71 73  1  0  0  0
 71149  1  0  0  0
 72 78  1  0  0  0
 72 86  1  0  0  0
 73 79  1  0  0  0
 73 87  2  0  0  0
 74 75  1  0  0  0
 74 86  2  0  0  0
 74 87  1  0  0  0
 75150  1  0  0  0
 75151  1  0  0  0
 75152  1  0  0  0
 76 88  1  0  0  0
 76153  1  0  0  0
 76154  1  0  0  0
 76155  1  0  0  0
 77156  1  0  0  0
 77157  1  0  0  0
 77158  1  0  0  0
 77 89  1  0  0  0
 78 80  1  0  0  0
 78159  1  0  0  0
 78160  1  0  0  0
 79 82  1  0  0  0
 79161  1  0  0  0
 79162  1  0  0  0
 80 83  1  0  0  0
 80163  1  0  0  0
 80164  1  0  0  0
 81 84  1  0  0  0
 81 85  1  0  0  0
 81165  1  0  0  0
 81166  1  0  0  0
 82 88  1  0  0  0
 82167  1  0  0  0
 82168  1  0  0  0
 83 89  1  0  0  0
 83169  1  0  0  0
 83170  1  0  0  0
 84 89  1  0  0  0
 84171  1  0  0  0
 84172  1  0  0  0
 85173  1  0  0  0
 85174  1  0  0  0
 89175  1  0  0  0
M  CHG  1  89   1
M  ISO  4   1 100  68 101  85 101  88 100
M  END
> <chiral flag>
0

> <version>
0

> <s_m_source_file>
/data/baiqing/PycharmProjects/Reinvent-master-3.2/result/LINK_invent/BTK/process_docking_weight1_custom_sum_contain_oxygen_bond_distance_aromatic_linkinvent_7_9_3/rearranged_h_0056.sdf

> <i_m_source_file_index>
62

> <r_mmod_Potential_Energy-OPLS-2005>
-494.983764648438

> <r_mmod_Stretch_Energy-OPLS-2005>
34.3441162109375

> <r_mmod_Bend_Energy-OPLS-2005>
103.728378295898

> <r_mmod_Torsional_Energy-OPLS-2005>
300.322662353516

> <r_mmod_Improper_Torsional_Energy-OPLS-2005>
4.96108341217041

> <r_mmod_Van_der_Waal_Energy-OPLS-2005>
173.881134033203

> <r_mmod_Electrostatic_Energy-OPLS-2005>
-704.921752929688

> <r_mmod_Solvation_Energy-OPLS-2005>
-415.473999023438

> <b_mmod_Minimization_Converged-OPLS-2005>
0

> <r_mmod_RMS_Derivative-OPLS-2005>
1.64524912834167

$$$$
64
                    3D
 Structure written by MMmdl.
165173  0  0  1  0            999 V2000
  -30.5898  -14.7516   20.4536 C   0  0  0  0  0  0
  -30.4364  -12.4540   19.4864 C   0  0  0  0  0  0
  -29.5145  -12.5002   18.2467 C   0  0  0  0  0  0
  -28.0424  -12.3165   18.6613 C   0  0  0  0  0  0
  -27.6432  -13.2259   19.8536 C   0  0  2  0  0  0
  -28.6833  -13.1580   20.9945 C   0  0  0  0  0  0
  -25.2514  -13.8187   20.5694 C   0  0  0  0  0  0
  -24.1793  -13.0438   20.9206 C   0  0  0  0  0  0
  -24.6368  -11.6919   20.8734 C   0  0  0  0  0  0
  -23.9042  -10.4296   21.0398 C   0  0  0  0  0  0
  -24.3601   -9.4220   21.9179 C   0  0  0  0  0  0
  -23.6288   -8.2249   22.0750 C   0  0  0  0  0  0
  -22.4265   -8.0275   21.3538 C   0  0  0  0  0  0
  -21.9897   -9.0247   20.4638 C   0  0  0  0  0  0
  -22.7216  -10.2133   20.3049 C   0  0  0  0  0  0
  -21.6853   -6.0728   22.5273 C   0  0  0  0  0  0
  -21.4016   -6.5634   23.8212 C   0  0  0  0  0  0
  -21.3661   -5.6785   24.9171 C   0  0  0  0  0  0
  -21.6051   -4.3051   24.7224 C   0  0  0  0  0  0
  -21.8822   -3.8139   23.4343 C   0  0  0  0  0  0
  -21.9196   -4.6956   22.3400 C   0  0  0  0  0  0
  -22.7816  -13.5233   21.1869 C   0  0  0  0  0  0
  -22.1665   -4.2143   21.0977 F   0  0  0  0  0  0
  -21.5629   -3.4535   25.7736 F   0  0  0  0  0  0
  -29.9902  -13.5126   20.4228 N   0  0  0  0  0  0
  -26.2928  -12.9381   20.3285 N   0  0  0  0  0  0
  -25.9299  -11.6527   20.5744 N   0  0  0  0  0  0
  -22.0475  -12.8211   22.0427 N   0  0  0  0  0  0
  -25.4229  -15.1910   20.4110 N   0  0  0  0  0  0
  -31.7621  -14.8779   20.0864 O   0  0  0  0  0  0
  -21.6640   -6.8865   21.4231 O   0  0  0  0  0  0
  -22.3505  -14.5545   20.6730 O   0  0  0  0  0  0
  -24.6311  -31.8525   23.1963 C   0  0  0  0  0  0
  -25.9150  -32.4736   23.8308 C   0  0  1  0  0  0
  -27.2306  -27.2483   20.1427 C   0  0  0  0  0  0
  -25.5950  -33.8533   24.2249 N   0  0  0  0  0  0
  -23.4290  -30.4741   21.5394 C   0  0  2  0  0  0
  -24.8779  -28.9102   20.1192 C   0  0  0  0  0  0
  -22.7499  -29.4603   22.4885 C   0  0  0  0  0  0
  -18.0293  -28.1429   22.8420 C   0  0  0  0  0  0
  -24.1505  -36.7281   23.2630 C   0  0  0  0  0  0
  -25.9727  -30.7620   21.3766 C   0  0  0  0  0  0
  -26.0481  -29.3780   20.7308 C   0  0  0  0  0  0
  -27.2254  -28.5608   20.7283 C   0  0  0  0  0  0
  -26.0360  -26.8477   19.5033 C   0  0  0  0  0  0
  -24.8776  -27.6515   19.4945 C   0  0  0  0  0  0
  -23.6498  -29.8012   20.1582 C   0  0  0  0  0  0
  -25.4129  -36.3041   24.0300 C   0  0  1  0  0  0
  -20.5894  -28.3744   23.1238 C   0  0  2  0  0  0
  -20.6798  -26.9465   22.5382 C   0  0  0  0  0  0
  -19.5798  -26.6406   21.5173 C   0  0  0  0  0  0
  -18.1971  -26.7958   22.1571 C   0  0  0  0  0  0
  -19.1547  -28.8903   23.2824 C   0  0  0  0  0  0
  -18.9474  -30.1494   23.8851 C   0  0  0  0  0  0
  -17.6479  -30.6610   24.0576 C   0  0  0  0  0  0
  -25.9065  -34.9415   23.5075 C   0  0  0  0  0  0
  -16.5368  -29.9119   23.6338 C   0  0  0  0  0  0
  -16.7283  -28.6560   23.0303 C   0  0  0  0  0  0
  -26.4521  -31.6551   25.0685 C   0  0  0  0  0  0
  -25.3718  -31.3685   26.1383 C   0  0  0  0  0  0
  -27.0389  -30.2980   24.6160 C   0  0  0  0  0  0
  -27.6082  -32.4281   25.7457 C   0  0  0  0  0  0
  -27.5584  -37.1788   24.8459 C   0  0  0  0  0  0
  -21.4206  -29.3067   22.3611 N   0  0  0  0  0  0
  -26.4302  -37.3737   23.9393 N   0  0  0  0  0  0
  -24.6972  -31.0502   22.0932 N   0  0  0  0  0  0
  -23.4186  -28.8144   23.3001 O   0  0  0  0  0  0
  -28.3483  -26.3785   20.1577 O   0  0  0  0  0  0
  -26.5639  -34.8883   22.4645 O   0  0  0  0  0  0
  -23.5468  -32.1337   23.7274 O   0  0  0  0  0  0
  -29.7328  -21.2991   20.8010 C   0  0  0  0  0  0
  -28.0702  -21.5718   19.4851 C   0  0  0  0  0  0
  -29.2163  -20.0101   20.5342 C   0  0  0  0  0  0
  -31.9013  -23.6078   19.7614 C   0  0  0  0  0  0
  -28.2403  -18.1495   21.9302 C   0  0  0  0  0  0
  -30.6560  -18.6952   22.1562 C   0  0  0  0  0  0
  -29.2987  -24.0544   18.3370 C   0  0  0  0  0  0
  -30.6627  -24.2331   20.4410 C   0  0  0  0  0  0
  -29.9086  -17.3129   20.1735 C   0  0  0  0  0  0
  -28.1821  -24.8991   20.4299 C   0  0  0  0  0  0
  -29.5046  -18.5566   21.1441 C   0  0  0  0  0  0
  -29.2729  -23.8307   19.8668 C   0  0  1  0  0  0
  -28.1343  -20.2441   19.6791 N   0  0  0  0  0  0
  -29.0250  -22.3155   20.0758 N   0  0  0  0  0  0
  -29.7859  -15.8603   20.6690 N   0  0  0  0  0  0
  -31.4777  -12.5829   19.1866 H   0  0  0  0  0  0
  -30.3845  -11.4776   19.9709 H   0  0  0  0  0  0
  -29.8002  -11.7247   17.5349 H   0  0  0  0  0  0
  -29.6346  -13.4532   17.7302 H   0  0  0  0  0  0
  -27.9129  -11.2698   18.9417 H   0  0  0  0  0  0
  -27.3800  -12.4854   17.8114 H   0  0  0  0  0  0
  -27.6386  -14.2450   19.4661 H   0  0  0  0  0  0
  -28.7145  -12.1579   21.4300 H   0  0  0  0  0  0
  -28.4114  -13.8339   21.8064 H   0  0  0  0  0  0
  -25.2743   -9.5708   22.4755 H   0  0  0  0  0  0
  -24.0001   -7.4642   22.7469 H   0  0  0  0  0  0
  -21.0836   -8.8753   19.8942 H   0  0  0  0  0  0
  -22.3664  -10.9666   19.6160 H   0  0  0  0  0  0
  -21.2007   -7.6142   23.9708 H   0  0  0  0  0  0
  -21.1482   -6.0518   25.9075 H   0  0  0  0  0  0
  -22.0602   -2.7601   23.2846 H   0  0  0  0  0  0
  -22.4091  -11.9864   22.4790 H   0  0  0  0  0  0
  -21.1094  -13.1233   22.2647 H   0  0  0  0  0  0
  -24.6542  -15.8441   20.5132 H   0  0  0  0  0  0
  -26.2678  -15.6284   20.0676 H   0  0  0  0  0  0
  -26.7202  -32.5408   23.1041 H   0  0  0  0  0  0
  -25.0110  -33.9684   25.0407 H   0  0  0  0  0  0
  -22.7228  -31.2931   21.3897 H   0  0  0  0  0  0
  -23.3738  -35.9643   23.3295 H   0  0  0  0  0  0
  -24.3583  -36.8921   22.2043 H   0  0  0  0  0  0
  -23.7307  -37.6486   23.6681 H   0  0  0  0  0  0
  -26.1034  -31.5124   20.5949 H   0  0  0  0  0  0
  -26.8532  -30.8280   22.0034 H   0  0  0  0  0  0
  -28.1222  -28.9133   21.2165 H   0  0  0  0  0  0
  -25.9798  -25.8943   18.9992 H   0  0  0  0  0  0
  -23.9858  -27.2866   19.0040 H   0  0  0  0  0  0
  -23.7786  -30.5722   19.3973 H   0  0  0  0  0  0
  -22.7659  -29.2363   19.8561 H   0  0  0  0  0  0
  -25.1323  -36.1855   25.0788 H   0  0  0  0  0  0
  -20.9955  -28.3359   24.1376 H   0  0  0  0  0  0
  -20.5715  -26.2358   23.3587 H   0  0  0  0  0  0
  -21.6675  -26.7520   22.1190 H   0  0  0  0  0  0
  -19.6979  -25.6302   21.1253 H   0  0  0  0  0  0
  -19.6774  -27.3153   20.6655 H   0  0  0  0  0  0
  -17.4231  -26.6634   21.3989 H   0  0  0  0  0  0
  -18.0434  -26.0134   22.9009 H   0  0  0  0  0  0
  -19.7964  -30.7314   24.2184 H   0  0  0  0  0  0
  -17.5057  -31.6264   24.5219 H   0  0  0  0  0  0
  -15.5379  -30.3030   23.7705 H   0  0  0  0  0  0
  -15.8671  -28.0912   22.7008 H   0  0  0  0  0  0
  -24.5908  -30.7034   25.7676 H   0  0  0  0  0  0
  -24.8872  -32.2840   26.4770 H   0  0  0  0  0  0
  -25.7985  -30.8853   27.0184 H   0  0  0  0  0  0
  -26.2981  -29.6691   24.1201 H   0  0  0  0  0  0
  -27.4119  -29.7263   25.4669 H   0  0  0  0  0  0
  -27.8833  -30.4267   23.9382 H   0  0  0  0  0  0
  -27.2722  -33.3608   26.1998 H   0  0  0  0  0  0
  -28.3910  -32.6796   25.0283 H   0  0  0  0  0  0
  -28.0737  -31.8416   26.5382 H   0  0  0  0  0  0
  -28.2580  -38.0106   24.7511 H   0  0  0  0  0  0
  -28.1108  -36.2626   24.6297 H   0  0  0  0  0  0
  -27.2290  -37.1448   25.8861 H   0  0  0  0  0  0
  -20.9402  -29.8762   21.6779 H   0  0  0  0  0  0
  -26.0162  -38.2793   24.1415 H   0  0  0  0  0  0
  -30.5619  -21.5706   21.4403 H   0  0  0  0  0  0
  -27.3254  -22.0125   18.8379 H   0  0  0  0  0  0
  -32.8086  -23.8657   20.3095 H   0  0  0  0  0  0
  -32.0295  -23.9704   18.7401 H   0  0  0  0  0  0
  -31.8480  -22.5214   19.7159 H   0  0  0  0  0  0
  -27.9916  -18.8891   22.6922 H   0  0  0  0  0  0
  -28.3537  -17.1938   22.4404 H   0  0  0  0  0  0
  -27.3781  -18.0670   21.2673 H   0  0  0  0  0  0
  -30.4173  -19.4138   22.9410 H   0  0  0  0  0  0
  -31.5670  -19.0394   21.6645 H   0  0  0  0  0  0
  -30.8841  -17.7453   22.6399 H   0  0  0  0  0  0
  -29.7050  -25.0330   18.0805 H   0  0  0  0  0  0
  -28.2988  -24.0069   17.9049 H   0  0  0  0  0  0
  -29.9032  -23.3022   17.8257 H   0  0  0  0  0  0
  -30.7707  -25.3155   20.3679 H   0  0  0  0  0  0
  -30.6948  -24.0166   21.5086 H   0  0  0  0  0  0
  -30.9123  -17.4727   19.7765 H   0  0  0  0  0  0
  -29.2587  -17.3672   19.2990 H   0  0  0  0  0  0
  -28.1673  -24.8128   21.5165 H   0  0  0  0  0  0
  -27.1987  -24.5525   20.1220 H   0  0  0  0  0  0
  -28.8629  -15.6224   20.9993 H   0  0  0  0  0  0
  1 25  1  0  0  0
  1 30  2  0  0  0
  1 85  1  0  0  0
  2  3  1  0  0  0
  2 25  1  0  0  0
  2 86  1  0  0  0
  2 87  1  0  0  0
  3  4  1  0  0  0
  3 88  1  0  0  0
  3 89  1  0  0  0
  4  5  1  0  0  0
  4 90  1  0  0  0
  4 91  1  0  0  0
  5  6  1  0  0  0
  5 26  1  0  0  0
  5 92  1  0  0  0
  6 25  1  0  0  0
  6 93  1  0  0  0
  6 94  1  0  0  0
  7  8  2  0  0  0
  7 26  1  0  0  0
  7 29  1  0  0  0
  8  9  1  0  0  0
  8 22  1  0  0  0
  9 10  1  0  0  0
  9 27  2  0  0  0
 10 11  2  0  0  0
 10 15  1  0  0  0
 11 12  1  0  0  0
 11 95  1  0  0  0
 12 13  2  0  0  0
 12 96  1  0  0  0
 13 14  1  0  0  0
 13 31  1  0  0  0
 14 15  2  0  0  0
 14 97  1  0  0  0
 15 98  1  0  0  0
 16 17  2  0  0  0
 16 21  1  0  0  0
 16 31  1  0  0  0
 17 18  1  0  0  0
 17 99  1  0  0  0
 18 19  2  0  0  0
 18100  1  0  0  0
 19 20  1  0  0  0
 19 24  1  0  0  0
 20 21  2  0  0  0
 20101  1  0  0  0
 21 23  1  0  0  0
 22 28  1  0  0  0
 22 32  2  0  0  0
 26 27  1  0  0  0
 28102  1  0  0  0
 28103  1  0  0  0
 29104  1  0  0  0
 29105  1  0  0  0
 33 34  1  0  0  0
 33 66  1  0  0  0
 33 70  2  0  0  0
 34 36  1  0  0  0
 34 59  1  0  0  0
 34106  1  0  0  0
 35 44  2  0  0  0
 35 45  1  0  0  0
 35 68  1  0  0  0
 36 56  1  0  0  0
 36107  1  0  0  0
 37 39  1  0  0  0
 37 47  1  0  0  0
 37 66  1  0  0  0
 37108  1  0  0  0
 38 43  2  0  0  0
 38 46  1  0  0  0
 38 47  1  0  0  0
 39 64  1  0  0  0
 39 67  2  0  0  0
 40 52  1  0  0  0
 40 53  2  0  0  0
 40 58  1  0  0  0
 41109  1  0  0  0
 41110  1  0  0  0
 41111  1  0  0  0
 41 48  1  0  0  0
 42 43  1  0  0  0
 42 66  1  0  0  0
 42112  1  0  0  0
 42113  1  0  0  0
 43 44  1  0  0  0
 44114  1  0  0  0
 45 46  2  0  0  0
 45115  1  0  0  0
 46116  1  0  0  0
 47117  1  0  0  0
 47118  1  0  0  0
 48 56  1  0  0  0
 48 65  1  0  0  0
 48119  1  0  0  0
 49 50  1  0  0  0
 49 53  1  0  0  0
 49 64  1  0  0  0
 49120  1  0  0  0
 50 51  1  0  0  0
 50121  1  0  0  0
 50122  1  0  0  0
 51 52  1  0  0  0
 51123  1  0  0  0
 51124  1  0  0  0
 52125  1  0  0  0
 52126  1  0  0  0
 53 54  1  0  0  0
 54 55  2  0  0  0
 54127  1  0  0  0
 55 57  1  0  0  0
 55128  1  0  0  0
 56 69  2  0  0  0
 57 58  2  0  0  0
 57129  1  0  0  0
 58130  1  0  0  0
 59 60  1  0  0  0
 59 61  1  0  0  0
 59 62  1  0  0  0
 60131  1  0  0  0
 60132  1  0  0  0
 60133  1  0  0  0
 61134  1  0  0  0
 61135  1  0  0  0
 61136  1  0  0  0
 62137  1  0  0  0
 62138  1  0  0  0
 62139  1  0  0  0
 63 65  1  0  0  0
 63140  1  0  0  0
 63141  1  0  0  0
 63142  1  0  0  0
 64143  1  0  0  0
 65144  1  0  0  0
 68 80  1  0  0  0
 71 73  2  0  0  0
 71 84  1  0  0  0
 71145  1  0  0  0
 72 83  2  0  0  0
 72 84  1  0  0  0
 72146  1  0  0  0
 73 81  1  0  0  0
 73 83  1  0  0  0
 74 78  1  0  0  0
 74147  1  0  0  0
 74148  1  0  0  0
 74149  1  0  0  0
 75150  1  0  0  0
 75151  1  0  0  0
 75152  1  0  0  0
 75 81  1  0  0  0
 76 81  1  0  0  0
 76153  1  0  0  0
 76154  1  0  0  0
 76155  1  0  0  0
 77156  1  0  0  0
 77157  1  0  0  0
 77158  1  0  0  0
 77 82  1  0  0  0
 78 82  1  0  0  0
 78159  1  0  0  0
 78160  1  0  0  0
 79 81  1  0  0  0
 79 85  1  0  0  0
 79161  1  0  0  0
 79162  1  0  0  0
 80 82  1  0  0  0
 80163  1  0  0  0
 80164  1  0  0  0
 82 84  1  0  0  0
 85165  1  0  0  0
M  ISO  4   1 100  68 101  80 101  85 100
M  END
> <chiral flag>
0

> <version>
0

> <s_m_source_file>
/data/baiqing/PycharmProjects/Reinvent-master-3.2/result/LINK_invent/BTK/process_docking_weight1_custom_sum_contain_oxygen_bond_distance_aromatic_linkinvent_7_9_3/rearranged_h_0056.sdf

> <i_m_source_file_index>
63

> <r_mmod_Potential_Energy-OPLS-2005>
157.46907043457

> <r_mmod_Stretch_Energy-OPLS-2005>
137.897857666016

> <r_mmod_Bend_Energy-OPLS-2005>
185.230041503906

> <r_mmod_Torsional_Energy-OPLS-2005>
269.057678222656

> <r_mmod_Improper_Torsional_Energy-OPLS-2005>
7.32278490066528

> <r_mmod_Van_der_Waal_Energy-OPLS-2005>
117.909538269043

> <r_mmod_Electrostatic_Energy-OPLS-2005>
-438.656707763672

> <r_mmod_Solvation_Energy-OPLS-2005>
-208.632247924805

> <b_mmod_Minimization_Converged-OPLS-2005>
0

> <r_mmod_RMS_Derivative-OPLS-2005>
2.56107425689697

$$$$
65
                    3D
 Structure written by MMmdl.
153161  0  0  1  0            999 V2000
  -30.6314  -14.6990   20.5689 C   0  0  0  0  0  0
  -30.4307  -12.4476   19.4769 C   0  0  0  0  0  0
  -29.5079  -12.5278   18.2392 C   0  0  0  0  0  0
  -28.0328  -12.3427   18.6421 C   0  0  0  0  0  0
  -27.6453  -13.2192   19.8603 C   0  0  2  0  0  0
  -28.6795  -13.0889   20.9942 C   0  0  0  0  0  0
  -25.2510  -13.8163   20.5690 C   0  0  0  0  0  0
  -24.1781  -13.0417   20.9202 C   0  0  0  0  0  0
  -24.6361  -11.6890   20.8742 C   0  0  0  0  0  0
  -23.9021  -10.4272   21.0398 C   0  0  0  0  0  0
  -24.3590   -9.4205   21.9180 C   0  0  0  0  0  0
  -23.6274   -8.2232   22.0749 C   0  0  0  0  0  0
  -22.4255   -8.0262   21.3537 C   0  0  0  0  0  0
  -21.9887   -9.0220   20.4635 C   0  0  0  0  0  0
  -22.7199  -10.2112   20.3041 C   0  0  0  0  0  0
  -21.6841   -6.0718   22.5275 C   0  0  0  0  0  0
  -21.4010   -6.5635   23.8207 C   0  0  0  0  0  0
  -21.3667   -5.6787   24.9168 C   0  0  0  0  0  0
  -21.6040   -4.3050   24.7218 C   0  0  0  0  0  0
  -21.8825   -3.8138   23.4346 C   0  0  0  0  0  0
  -21.9193   -4.6949   22.3397 C   0  0  0  0  0  0
  -22.7810  -13.5216   21.1875 C   0  0  0  0  0  0
  -22.1654   -4.2142   21.0974 F   0  0  0  0  0  0
  -21.5624   -3.4531   25.7730 F   0  0  0  0  0  0
  -29.9912  -13.4792   20.4518 N   0  0  0  0  0  0
  -26.2913  -12.9335   20.3279 N   0  0  0  0  0  0
  -25.9280  -11.6488   20.5718 N   0  0  0  0  0  0
  -22.0469  -12.8171   22.0439 N   0  0  0  0  0  0
  -25.4236  -15.1877   20.4122 N   0  0  0  0  0  0
  -31.7516  -14.8436   20.0628 O   0  0  0  0  0  0
  -21.6626   -6.8860   21.4230 O   0  0  0  0  0  0
  -22.3494  -14.5532   20.6764 O   0  0  0  0  0  0
  -24.6336  -31.8645   23.2034 C   0  0  0  0  0  0
  -25.9172  -32.4819   23.8377 C   0  0  1  0  0  0
  -27.1942  -27.2562   20.1466 C   0  0  0  0  0  0
  -25.6018  -33.8630   24.2338 N   0  0  0  0  0  0
  -23.4294  -30.4973   21.5424 C   0  0  2  0  0  0
  -24.8695  -28.9573   20.0976 C   0  0  0  0  0  0
  -22.7545  -29.4712   22.4860 C   0  0  0  0  0  0
  -18.0351  -28.1414   22.8538 C   0  0  0  0  0  0
  -24.1480  -36.7275   23.2644 C   0  0  0  0  0  0
  -25.9738  -30.7814   21.3746 C   0  0  0  0  0  0
  -26.0400  -29.3993   20.7264 C   0  0  0  0  0  0
  -27.2021  -28.5597   20.7549 C   0  0  0  0  0  0
  -26.0129  -26.9222   19.4338 C   0  0  0  0  0  0
  -24.8629  -27.7264   19.4345 C   0  0  0  0  0  0
  -23.6411  -29.8451   20.1509 C   0  0  0  0  0  0
  -25.4102  -36.3123   24.0372 C   0  0  1  0  0  0
  -20.5963  -28.3780   23.1234 C   0  0  2  0  0  0
  -20.6847  -26.9495   22.5389 C   0  0  0  0  0  0
  -19.5780  -26.6400   21.5249 C   0  0  0  0  0  0
  -18.1966  -26.7965   22.1647 C   0  0  0  0  0  0
  -19.1607  -28.8901   23.2888 C   0  0  0  0  0  0
  -18.9516  -30.1491   23.8907 C   0  0  0  0  0  0
  -17.6507  -30.6602   24.0599 C   0  0  0  0  0  0
  -25.9067  -34.9495   23.5124 C   0  0  0  0  0  0
  -16.5402  -29.9113   23.6319 C   0  0  0  0  0  0
  -16.7336  -28.6527   23.0354 C   0  0  0  0  0  0
  -26.4495  -31.6614   25.0741 C   0  0  0  0  0  0
  -25.3721  -31.3849   26.1493 C   0  0  0  0  0  0
  -27.0285  -30.3046   24.6112 C   0  0  0  0  0  0
  -27.6083  -32.4318   25.7497 C   0  0  0  0  0  0
  -27.5574  -37.1799   24.8470 C   0  0  0  0  0  0
  -21.4262  -29.3124   22.3598 N   0  0  0  0  0  0
  -26.4246  -37.3830   23.9471 N   0  0  0  0  0  0
  -24.6998  -31.0647   22.0971 N   0  0  0  0  0  0
  -23.4255  -28.8199   23.2922 O   0  0  0  0  0  0
  -28.2368  -26.2961   20.2711 O   0  0  0  0  0  0
  -26.5553  -34.8972   22.4654 O   0  0  0  0  0  0
  -23.5477  -32.1415   23.7343 O   0  0  0  0  0  0
  -28.6514  -22.3268   19.7060 C   0  0  0  0  0  0
  -29.2068  -21.8799   21.7259 C   0  0  0  0  0  0
  -28.5884  -23.5420   20.4046 C   0  0  0  0  0  0
  -29.7523  -15.9155   22.5022 C   0  0  0  0  0  0
  -27.8776  -24.8732   19.9259 C   0  0  0  0  0  0
  -29.4796  -18.5621   21.1090 C   0  0  0  0  0  0
  -29.1485  -19.7895   20.1270 C   0  0  0  0  0  0
  -29.8615  -17.1722   20.3529 C   0  0  0  0  0  0
  -28.9638  -23.2115   21.7176 N   0  0  0  0  0  0
  -29.0275  -21.2504   20.5478 N   0  0  0  0  0  0
  -29.9343  -15.8103   21.0537 N   0  0  0  0  0  0
  -31.4720  -12.5729   19.1745 H   0  0  0  0  0  0
  -30.3747  -11.4553   19.9275 H   0  0  0  0  0  0
  -29.7914  -11.7716   17.5042 H   0  0  0  0  0  0
  -29.6334  -13.4939   17.7484 H   0  0  0  0  0  0
  -27.8841  -11.2887   18.8804 H   0  0  0  0  0  0
  -27.3759  -12.5549   17.7987 H   0  0  0  0  0  0
  -27.6607  -14.2545   19.5208 H   0  0  0  0  0  0
  -28.7177  -12.0621   21.3629 H   0  0  0  0  0  0
  -28.3577  -13.6920   21.8393 H   0  0  0  0  0  0
  -25.2734   -9.5678   22.4741 H   0  0  0  0  0  0
  -23.9990   -7.4618   22.7457 H   0  0  0  0  0  0
  -21.0826   -8.8705   19.8923 H   0  0  0  0  0  0
  -22.3648  -10.9627   19.6134 H   0  0  0  0  0  0
  -21.2004   -7.6144   23.9707 H   0  0  0  0  0  0
  -21.1480   -6.0523   25.9075 H   0  0  0  0  0  0
  -22.0606   -2.7593   23.2846 H   0  0  0  0  0  0
  -22.4103  -11.9794   22.4734 H   0  0  0  0  0  0
  -21.1101  -13.1152   22.2702 H   0  0  0  0  0  0
  -24.6614  -15.8463   20.5310 H   0  0  0  0  0  0
  -26.2816  -15.6260   20.1028 H   0  0  0  0  0  0
  -26.7261  -32.5494   23.1146 H   0  0  0  0  0  0
  -25.0432  -33.9792   25.0665 H   0  0  0  0  0  0
  -22.7301  -31.3253   21.4081 H   0  0  0  0  0  0
  -23.3794  -35.9538   23.3226 H   0  0  0  0  0  0
  -24.3622  -36.8919   22.2065 H   0  0  0  0  0  0
  -23.7083  -37.6419   23.6663 H   0  0  0  0  0  0
  -26.0951  -31.5313   20.5918 H   0  0  0  0  0  0
  -26.8637  -30.8488   21.9888 H   0  0  0  0  0  0
  -28.0811  -28.8823   21.2948 H   0  0  0  0  0  0
  -25.9207  -26.0039   18.8747 H   0  0  0  0  0  0
  -23.9777  -27.3973   18.9071 H   0  0  0  0  0  0
  -23.7598  -30.6313   19.4029 H   0  0  0  0  0  0
  -22.7563  -29.2832   19.8443 H   0  0  0  0  0  0
  -25.1233  -36.1986   25.0841 H   0  0  0  0  0  0
  -21.0136  -28.3376   24.1323 H   0  0  0  0  0  0
  -20.5836  -26.2427   23.3630 H   0  0  0  0  0  0
  -21.6701  -26.7546   22.1113 H   0  0  0  0  0  0
  -19.6955  -25.6311   21.1261 H   0  0  0  0  0  0
  -19.6659  -27.3236   20.6795 H   0  0  0  0  0  0
  -17.4271  -26.6830   21.4001 H   0  0  0  0  0  0
  -18.0285  -26.0076   22.8989 H   0  0  0  0  0  0
  -19.7992  -30.7330   24.2256 H   0  0  0  0  0  0
  -17.5061  -31.6284   24.5209 H   0  0  0  0  0  0
  -15.5398  -30.3021   23.7617 H   0  0  0  0  0  0
  -15.8754  -28.0836   22.7020 H   0  0  0  0  0  0
  -24.5831  -30.7248   25.7863 H   0  0  0  0  0  0
  -24.8997  -32.3082   26.4876 H   0  0  0  0  0  0
  -25.8009  -30.9050   27.0300 H   0  0  0  0  0  0
  -26.2815  -29.6880   24.1086 H   0  0  0  0  0  0
  -27.3997  -29.7206   25.4534 H   0  0  0  0  0  0
  -27.8712  -30.4383   23.9317 H   0  0  0  0  0  0
  -27.2754  -33.3731   26.1901 H   0  0  0  0  0  0
  -28.3990  -32.6653   25.0354 H   0  0  0  0  0  0
  -28.0624  -31.8512   26.5538 H   0  0  0  0  0  0
  -28.2538  -38.0154   24.7627 H   0  0  0  0  0  0
  -28.1087  -36.2684   24.6112 H   0  0  0  0  0  0
  -27.2348  -37.1259   25.8883 H   0  0  0  0  0  0
  -20.9437  -29.8944   21.6881 H   0  0  0  0  0  0
  -26.0122  -38.2890   24.1519 H   0  0  0  0  0  0
  -28.3832  -22.1218   18.6760 H   0  0  0  0  0  0
  -29.4869  -21.3452   22.6233 H   0  0  0  0  0  0
  -30.6294  -16.3706   22.9654 H   0  0  0  0  0  0
  -29.6019  -14.9536   22.9875 H   0  0  0  0  0  0
  -28.8775  -16.5158   22.7446 H   0  0  0  0  0  0
  -26.8546  -24.7127   20.2650 H   0  0  0  0  0  0
  -27.8438  -24.8408   18.8365 H   0  0  0  0  0  0
  -28.6002  -18.4198   21.7385 H   0  0  0  0  0  0
  -30.2808  -18.8415   21.7979 H   0  0  0  0  0  0
  -28.1962  -19.5450   19.6469 H   0  0  0  0  0  0
  -29.8837  -19.7546   19.3213 H   0  0  0  0  0  0
  -30.8025  -17.3398   19.8222 H   0  0  0  0  0  0
  -29.1169  -17.0378   19.5681 H   0  0  0  0  0  0
  1 25  1  0  0  0
  1 30  2  0  0  0
  1 81  1  0  0  0
  2  3  1  0  0  0
  2 25  1  0  0  0
  2 82  1  0  0  0
  2 83  1  0  0  0
  3  4  1  0  0  0
  3 84  1  0  0  0
  3 85  1  0  0  0
  4  5  1  0  0  0
  4 86  1  0  0  0
  4 87  1  0  0  0
  5  6  1  0  0  0
  5 26  1  0  0  0
  5 88  1  0  0  0
  6 25  1  0  0  0
  6 89  1  0  0  0
  6 90  1  0  0  0
  7  8  2  0  0  0
  7 26  1  0  0  0
  7 29  1  0  0  0
  8  9  1  0  0  0
  8 22  1  0  0  0
  9 10  1  0  0  0
  9 27  2  0  0  0
 10 11  2  0  0  0
 10 15  1  0  0  0
 11 12  1  0  0  0
 11 91  1  0  0  0
 12 13  2  0  0  0
 12 92  1  0  0  0
 13 14  1  0  0  0
 13 31  1  0  0  0
 14 15  2  0  0  0
 14 93  1  0  0  0
 15 94  1  0  0  0
 16 17  2  0  0  0
 16 21  1  0  0  0
 16 31  1  0  0  0
 17 18  1  0  0  0
 17 95  1  0  0  0
 18 19  2  0  0  0
 18 96  1  0  0  0
 19 20  1  0  0  0
 19 24  1  0  0  0
 20 21  2  0  0  0
 20 97  1  0  0  0
 21 23  1  0  0  0
 22 28  1  0  0  0
 22 32  2  0  0  0
 26 27  1  0  0  0
 28 98  1  0  0  0
 28 99  1  0  0  0
 29100  1  0  0  0
 29101  1  0  0  0
 33 34  1  0  0  0
 33 66  1  0  0  0
 33 70  2  0  0  0
 34 36  1  0  0  0
 34 59  1  0  0  0
 34102  1  0  0  0
 35 44  2  0  0  0
 35 45  1  0  0  0
 35 68  1  0  0  0
 36 56  1  0  0  0
 36103  1  0  0  0
 37 39  1  0  0  0
 37 47  1  0  0  0
 37 66  1  0  0  0
 37104  1  0  0  0
 38 43  2  0  0  0
 38 46  1  0  0  0
 38 47  1  0  0  0
 39 64  1  0  0  0
 39 67  2  0  0  0
 40 52  1  0  0  0
 40 53  2  0  0  0
 40 58  1  0  0  0
 41105  1  0  0  0
 41106  1  0  0  0
 41107  1  0  0  0
 41 48  1  0  0  0
 42 43  1  0  0  0
 42 66  1  0  0  0
 42108  1  0  0  0
 42109  1  0  0  0
 43 44  1  0  0  0
 44110  1  0  0  0
 45 46  2  0  0  0
 45111  1  0  0  0
 46112  1  0  0  0
 47113  1  0  0  0
 47114  1  0  0  0
 48 56  1  0  0  0
 48 65  1  0  0  0
 48115  1  0  0  0
 49 50  1  0  0  0
 49 53  1  0  0  0
 49 64  1  0  0  0
 49116  1  0  0  0
 50 51  1  0  0  0
 50117  1  0  0  0
 50118  1  0  0  0
 51 52  1  0  0  0
 51119  1  0  0  0
 51120  1  0  0  0
 52121  1  0  0  0
 52122  1  0  0  0
 53 54  1  0  0  0
 54 55  2  0  0  0
 54123  1  0  0  0
 55 57  1  0  0  0
 55124  1  0  0  0
 56 69  2  0  0  0
 57 58  2  0  0  0
 57125  1  0  0  0
 58126  1  0  0  0
 59 60  1  0  0  0
 59 61  1  0  0  0
 59 62  1  0  0  0
 60127  1  0  0  0
 60128  1  0  0  0
 60129  1  0  0  0
 61130  1  0  0  0
 61131  1  0  0  0
 61132  1  0  0  0
 62133  1  0  0  0
 62134  1  0  0  0
 62135  1  0  0  0
 63 65  1  0  0  0
 63136  1  0  0  0
 63137  1  0  0  0
 63138  1  0  0  0
 64139  1  0  0  0
 65140  1  0  0  0
 68 75  1  0  0  0
 71 73  2  0  0  0
 71 80  1  0  0  0
 71141  1  0  0  0
 72 79  2  0  0  0
 72 80  1  0  0  0
 72142  1  0  0  0
 73 75  1  0  0  0
 73 79  1  0  0  0
 74 81  1  0  0  0
 74143  1  0  0  0
 74144  1  0  0  0
 74145  1  0  0  0
 75146  1  0  0  0
 75147  1  0  0  0
 76 77  1  0  0  0
 76 78  1  0  0  0
 76148  1  0  0  0
 76149  1  0  0  0
 77 80  1  0  0  0
 77150  1  0  0  0
 77151  1  0  0  0
 78 81  1  0  0  0
 78152  1  0  0  0
 78153  1  0  0  0
M  ISO  4   1 100  68 101  75 101  81 100
M  END
> <chiral flag>
0

> <version>
0

> <s_m_source_file>
/data/baiqing/PycharmProjects/Reinvent-master-3.2/result/LINK_invent/BTK/process_docking_weight1_custom_sum_contain_oxygen_bond_distance_aromatic_linkinvent_7_9_3/rearranged_h_0056.sdf

> <i_m_source_file_index>
64

> <r_mmod_Potential_Energy-OPLS-2005>
375.05712890625

> <r_mmod_Stretch_Energy-OPLS-2005>
120.061210632324

> <r_mmod_Bend_Energy-OPLS-2005>
201.662673950195

> <r_mmod_Torsional_Energy-OPLS-2005>
298.787109375

> <r_mmod_Improper_Torsional_Energy-OPLS-2005>
8.89907169342041

> <r_mmod_Van_der_Waal_Energy-OPLS-2005>
133.160064697266

> <r_mmod_Electrostatic_Energy-OPLS-2005>
-246.493209838867

> <r_mmod_Solvation_Energy-OPLS-2005>
-225.64436340332

> <b_mmod_Minimization_Converged-OPLS-2005>
0

> <r_mmod_RMS_Derivative-OPLS-2005>
5.65674543380737

$$$$
66
                    3D
 Structure written by MMmdl.
151159  0  0  1  0            999 V2000
  -30.4407  -15.2248   20.4882 C   0  0  0  0  0  0
  -30.4487  -12.8007   19.5312 C   0  0  0  0  0  0
  -29.5444  -12.6286   18.2821 C   0  0  0  0  0  0
  -28.0704  -12.3870   18.6625 C   0  0  0  0  0  0
  -27.6233  -13.2830   19.8457 C   0  0  2  0  0  0
  -28.6681  -13.3201   20.9852 C   0  0  0  0  0  0
  -25.2397  -13.8251   20.5714 C   0  0  0  0  0  0
  -24.1760  -13.0436   20.9246 C   0  0  0  0  0  0
  -24.6433  -11.6946   20.8770 C   0  0  0  0  0  0
  -23.9129  -10.4310   21.0405 C   0  0  0  0  0  0
  -24.3673   -9.4212   21.9153 C   0  0  0  0  0  0
  -23.6322   -8.2263   22.0740 C   0  0  0  0  0  0
  -22.4296   -8.0285   21.3531 C   0  0  0  0  0  0
  -21.9940   -9.0269   20.4630 C   0  0  0  0  0  0
  -22.7309  -10.2128   20.3032 C   0  0  0  0  0  0
  -21.6867   -6.0730   22.5278 C   0  0  0  0  0  0
  -21.4023   -6.5626   23.8212 C   0  0  0  0  0  0
  -21.3675   -5.6773   24.9163 C   0  0  0  0  0  0
  -21.6045   -4.3035   24.7202 C   0  0  0  0  0  0
  -21.8832   -3.8134   23.4328 C   0  0  0  0  0  0
  -21.9215   -4.6952   22.3391 C   0  0  0  0  0  0
  -22.7766  -13.5182   21.1849 C   0  0  0  0  0  0
  -22.1688   -4.2165   21.0962 F   0  0  0  0  0  0
  -21.5640   -3.4515   25.7712 F   0  0  0  0  0  0
  -29.8862  -13.9055   20.3998 N   0  0  0  0  0  0
  -26.2859  -12.9554   20.3220 N   0  0  0  0  0  0
  -25.9357  -11.6651   20.5678 N   0  0  0  0  0  0
  -22.0380  -12.8250   22.0427 N   0  0  0  0  0  0
  -25.3977  -15.1984   20.4212 N   0  0  0  0  0  0
  -31.6355  -15.2395   20.1539 O   0  0  0  0  0  0
  -21.6643   -6.8894   21.4251 O   0  0  0  0  0  0
  -22.3453  -14.5432   20.6602 O   0  0  0  0  0  0
  -24.6546  -31.8267   23.1780 C   0  0  0  0  0  0
  -25.9229  -32.4613   23.8242 C   0  0  1  0  0  0
  -27.2329  -26.9602   20.2120 C   0  0  0  0  0  0
  -25.5906  -33.8431   24.2149 N   0  0  0  0  0  0
  -23.4744  -30.4382   21.5170 C   0  0  2  0  0  0
  -24.9401  -28.8334   20.1142 C   0  0  0  0  0  0
  -22.7630  -29.4477   22.4739 C   0  0  0  0  0  0
  -18.0298  -28.1440   22.8450 C   0  0  0  0  0  0
  -24.1485  -36.7234   23.2651 C   0  0  0  0  0  0
  -26.0375  -30.6502   21.4019 C   0  0  0  0  0  0
  -26.1164  -29.2383   20.7565 C   0  0  0  0  0  0
  -27.2562  -28.3199   20.7893 C   0  0  0  0  0  0
  -26.0338  -26.7094   19.5045 C   0  0  0  0  0  0
  -24.9263  -27.5907   19.4627 C   0  0  0  0  0  0
  -23.7202  -29.7523   20.1425 C   0  0  0  0  0  0
  -25.4114  -36.2980   24.0303 C   0  0  1  0  0  0
  -20.5925  -28.3789   23.1173 C   0  0  2  0  0  0
  -20.6778  -26.9476   22.5388 C   0  0  0  0  0  0
  -19.5771  -26.6408   21.5194 C   0  0  0  0  0  0
  -18.1956  -26.7976   22.1608 C   0  0  0  0  0  0
  -19.1562  -28.8930   23.2814 C   0  0  0  0  0  0
  -18.9487  -30.1506   23.8883 C   0  0  0  0  0  0
  -17.6491  -30.6642   24.0538 C   0  0  0  0  0  0
  -25.9054  -34.9351   23.5054 C   0  0  0  0  0  0
  -16.5379  -29.9115   23.6349 C   0  0  0  0  0  0
  -16.7278  -28.6519   23.0387 C   0  0  0  0  0  0
  -26.4528  -31.6538   25.0748 C   0  0  0  0  0  0
  -25.3667  -31.3785   26.1422 C   0  0  0  0  0  0
  -27.0402  -30.2909   24.6437 C   0  0  0  0  0  0
  -27.6065  -32.4305   25.7556 C   0  0  0  0  0  0
  -27.5572  -37.1764   24.8449 C   0  0  0  0  0  0
  -21.4306  -29.3090   22.3522 N   0  0  0  0  0  0
  -26.4258  -37.3705   23.9423 N   0  0  0  0  0  0
  -24.7431  -30.9973   22.0880 N   0  0  0  0  0  0
  -23.4189  -28.8017   23.2954 O   0  0  0  0  0  0
  -28.2229  -25.8565   20.3252 O   0  0  0  0  0  0
  -26.5674  -34.8872   22.4660 O   0  0  0  0  0  0
  -23.5623  -32.1186   23.6893 O   0  0  0  0  0  0
  -28.6010  -20.4191   21.3619 C   0  0  0  0  0  0
  -29.7951  -20.7577   19.4794 C   0  0  0  0  0  0
  -29.4279  -19.6991   20.4051 C   0  0  0  0  0  0
  -28.6366  -22.7303   20.4049 C   0  0  0  0  0  0
  -28.8682  -16.6400   23.0649 C   0  0  0  0  0  0
  -30.1011  -18.0814   20.3115 C   0  0  0  0  0  0
  -27.8494  -24.2732   20.1574 C   0  0  0  0  0  0
  -28.5173  -16.5959   21.5600 C   0  0  0  0  0  0
  -28.2280  -21.7954   21.3368 N   0  0  0  0  0  0
  -29.4246  -22.1249   19.4706 N   0  0  0  0  0  0
  -29.7042  -16.5160   20.6912 N   0  0  0  0  0  0
  -31.4682  -13.0173   19.2096 H   0  0  0  0  0  0
  -30.5376  -11.8629   20.0822 H   0  0  0  0  0  0
  -29.9112  -11.8224   17.6496 H   0  0  0  0  0  0
  -29.6124  -13.5343   17.6772 H   0  0  0  0  0  0
  -27.9610  -11.3362   18.9230 H   0  0  0  0  0  0
  -27.4330  -12.5661   17.7944 H   0  0  0  0  0  0
  -27.5723  -14.2920   19.4344 H   0  0  0  0  0  0
  -28.8477  -12.3115   21.3626 H   0  0  0  0  0  0
  -28.3292  -13.8709   21.8566 H   0  0  0  0  0  0
  -25.2832   -9.5709   22.4679 H   0  0  0  0  0  0
  -24.0056   -7.4680   22.7451 H   0  0  0  0  0  0
  -21.0868   -8.8768   19.8926 H   0  0  0  0  0  0
  -22.3771  -10.9631   19.6116 H   0  0  0  0  0  0
  -21.1983   -7.6121   23.9747 H   0  0  0  0  0  0
  -21.1487   -6.0456   25.9084 H   0  0  0  0  0  0
  -22.0602   -2.7590   23.2789 H   0  0  0  0  0  0
  -22.3979  -11.9980   22.4956 H   0  0  0  0  0  0
  -21.0926  -13.1252   22.2394 H   0  0  0  0  0  0
  -24.6261  -15.8436   20.5397 H   0  0  0  0  0  0
  -26.2404  -15.6480   20.0909 H   0  0  0  0  0  0
  -26.7306  -32.5202   23.0982 H   0  0  0  0  0  0
  -24.9921  -33.9519   25.0206 H   0  0  0  0  0  0
  -22.7869  -31.2680   21.3420 H   0  0  0  0  0  0
  -23.3738  -35.9566   23.3245 H   0  0  0  0  0  0
  -24.3576  -36.8933   22.2079 H   0  0  0  0  0  0
  -23.7231  -37.6410   23.6735 H   0  0  0  0  0  0
  -26.1930  -31.3881   20.6145 H   0  0  0  0  0  0
  -26.9051  -30.7320   22.0437 H   0  0  0  0  0  0
  -28.1375  -28.6224   21.3385 H   0  0  0  0  0  0
  -25.9136  -25.7651   18.9953 H   0  0  0  0  0  0
  -24.0422  -27.2850   18.9232 H   0  0  0  0  0  0
  -23.8668  -30.5174   19.3778 H   0  0  0  0  0  0
  -22.8372  -29.1926   19.8299 H   0  0  0  0  0  0
  -25.1310  -36.1801   25.0779 H   0  0  0  0  0  0
  -21.0017  -28.3412   24.1296 H   0  0  0  0  0  0
  -20.5666  -26.2422   23.3623 H   0  0  0  0  0  0
  -21.6643  -26.7460   22.1225 H   0  0  0  0  0  0
  -19.6947  -25.6299   21.1292 H   0  0  0  0  0  0
  -19.6733  -27.3139   20.6664 H   0  0  0  0  0  0
  -17.4222  -26.6669   21.4031 H   0  0  0  0  0  0
  -18.0395  -26.0147   22.9040 H   0  0  0  0  0  0
  -19.7964  -30.7295   24.2302 H   0  0  0  0  0  0
  -17.5049  -31.6330   24.5123 H   0  0  0  0  0  0
  -15.5390  -30.3027   23.7697 H   0  0  0  0  0  0
  -15.8655  -28.0815   22.7177 H   0  0  0  0  0  0
  -24.5861  -30.7115   25.7765 H   0  0  0  0  0  0
  -24.8817  -32.2964   26.4757 H   0  0  0  0  0  0
  -25.7887  -30.9043   27.0284 H   0  0  0  0  0  0
  -26.3042  -29.6638   24.1403 H   0  0  0  0  0  0
  -27.3896  -29.7250   25.5087 H   0  0  0  0  0  0
  -27.9014  -30.4128   23.9867 H   0  0  0  0  0  0
  -27.2683  -33.3636   26.2097 H   0  0  0  0  0  0
  -28.3931  -32.6799   25.0415 H   0  0  0  0  0  0
  -28.0673  -31.8426   26.5516 H   0  0  0  0  0  0
  -28.2527  -38.0123   24.7516 H   0  0  0  0  0  0
  -28.1122  -36.2635   24.6224 H   0  0  0  0  0  0
  -27.2292  -37.1348   25.8850 H   0  0  0  0  0  0
  -20.9549  -29.8768   21.6645 H   0  0  0  0  0  0
  -26.0114  -38.2765   24.1435 H   0  0  0  0  0  0
  -28.2044  -19.8715   22.2068 H   0  0  0  0  0  0
  -30.4580  -20.5006   18.6668 H   0  0  0  0  0  0
  -27.9852  -16.8499   23.6742 H   0  0  0  0  0  0
  -29.6059  -17.4147   23.2897 H   0  0  0  0  0  0
  -29.2648  -15.6897   23.4219 H   0  0  0  0  0  0
  -31.0635  -18.2026   20.8071 H   0  0  0  0  0  0
  -30.3652  -17.9930   19.2554 H   0  0  0  0  0  0
  -26.9122  -24.1633   20.7012 H   0  0  0  0  0  0
  -27.5660  -24.2089   19.1088 H   0  0  0  0  0  0
  -27.9502  -17.4927   21.3047 H   0  0  0  0  0  0
  -27.8077  -15.8040   21.3487 H   0  0  0  0  0  0
  1 25  1  0  0  0
  1 30  2  0  0  0
  1 81  1  0  0  0
  2  3  1  0  0  0
  2 25  1  0  0  0
  2 82  1  0  0  0
  2 83  1  0  0  0
  3  4  1  0  0  0
  3 84  1  0  0  0
  3 85  1  0  0  0
  4  5  1  0  0  0
  4 86  1  0  0  0
  4 87  1  0  0  0
  5  6  1  0  0  0
  5 26  1  0  0  0
  5 88  1  0  0  0
  6 25  1  0  0  0
  6 89  1  0  0  0
  6 90  1  0  0  0
  7  8  2  0  0  0
  7 26  1  0  0  0
  7 29  1  0  0  0
  8  9  1  0  0  0
  8 22  1  0  0  0
  9 10  1  0  0  0
  9 27  2  0  0  0
 10 11  2  0  0  0
 10 15  1  0  0  0
 11 12  1  0  0  0
 11 91  1  0  0  0
 12 13  2  0  0  0
 12 92  1  0  0  0
 13 14  1  0  0  0
 13 31  1  0  0  0
 14 15  2  0  0  0
 14 93  1  0  0  0
 15 94  1  0  0  0
 16 17  2  0  0  0
 16 21  1  0  0  0
 16 31  1  0  0  0
 17 18  1  0  0  0
 17 95  1  0  0  0
 18 19  2  0  0  0
 18 96  1  0  0  0
 19 20  1  0  0  0
 19 24  1  0  0  0
 20 21  2  0  0  0
 20 97  1  0  0  0
 21 23  1  0  0  0
 22 28  1  0  0  0
 22 32  2  0  0  0
 26 27  1  0  0  0
 28 98  1  0  0  0
 28 99  1  0  0  0
 29100  1  0  0  0
 29101  1  0  0  0
 33 34  1  0  0  0
 33 66  1  0  0  0
 33 70  2  0  0  0
 34 36  1  0  0  0
 34 59  1  0  0  0
 34102  1  0  0  0
 35 44  2  0  0  0
 35 45  1  0  0  0
 35 68  1  0  0  0
 36 56  1  0  0  0
 36103  1  0  0  0
 37 39  1  0  0  0
 37 47  1  0  0  0
 37 66  1  0  0  0
 37104  1  0  0  0
 38 43  2  0  0  0
 38 46  1  0  0  0
 38 47  1  0  0  0
 39 64  1  0  0  0
 39 67  2  0  0  0
 40 52  1  0  0  0
 40 53  2  0  0  0
 40 58  1  0  0  0
 41105  1  0  0  0
 41106  1  0  0  0
 41107  1  0  0  0
 41 48  1  0  0  0
 42 43  1  0  0  0
 42 66  1  0  0  0
 42108  1  0  0  0
 42109  1  0  0  0
 43 44  1  0  0  0
 44110  1  0  0  0
 45 46  2  0  0  0
 45111  1  0  0  0
 46112  1  0  0  0
 47113  1  0  0  0
 47114  1  0  0  0
 48 56  1  0  0  0
 48 65  1  0  0  0
 48115  1  0  0  0
 49 50  1  0  0  0
 49 53  1  0  0  0
 49 64  1  0  0  0
 49116  1  0  0  0
 50 51  1  0  0  0
 50117  1  0  0  0
 50118  1  0  0  0
 51 52  1  0  0  0
 51119  1  0  0  0
 51120  1  0  0  0
 52121  1  0  0  0
 52122  1  0  0  0
 53 54  1  0  0  0
 54 55  2  0  0  0
 54123  1  0  0  0
 55 57  1  0  0  0
 55124  1  0  0  0
 56 69  2  0  0  0
 57 58  2  0  0  0
 57125  1  0  0  0
 58126  1  0  0  0
 59 60  1  0  0  0
 59 61  1  0  0  0
 59 62  1  0  0  0
 60127  1  0  0  0
 60128  1  0  0  0
 60129  1  0  0  0
 61130  1  0  0  0
 61131  1  0  0  0
 61132  1  0  0  0
 62133  1  0  0  0
 62134  1  0  0  0
 62135  1  0  0  0
 63 65  1  0  0  0
 63136  1  0  0  0
 63137  1  0  0  0
 63138  1  0  0  0
 64139  1  0  0  0
 65140  1  0  0  0
 68 77  1  0  0  0
 71 73  2  0  0  0
 71 79  1  0  0  0
 71141  1  0  0  0
 72 73  1  0  0  0
 72 80  2  0  0  0
 72142  1  0  0  0
 73 76  1  0  0  0
 74 77  1  0  0  0
 74 79  2  0  0  0
 74 80  1  0  0  0
 75 78  1  0  0  0
 75143  1  0  0  0
 75144  1  0  0  0
 75145  1  0  0  0
 76 81  1  0  0  0
 76146  1  0  0  0
 76147  1  0  0  0
 77148  1  0  0  0
 77149  1  0  0  0
 78 81  1  0  0  0
 78150  1  0  0  0
 78151  1  0  0  0
M  ISO  4   1 100  68 101  77 101  81 100
M  END
> <chiral flag>
0

> <version>
0

> <s_m_source_file>
/data/baiqing/PycharmProjects/Reinvent-master-3.2/result/LINK_invent/BTK/process_docking_weight1_custom_sum_contain_oxygen_bond_distance_aromatic_linkinvent_7_9_3/rearranged_h_0056.sdf

> <i_m_source_file_index>
65

> <r_mmod_Potential_Energy-OPLS-2005>
976.658996582031

> <r_mmod_Stretch_Energy-OPLS-2005>
502.662109375

> <r_mmod_Bend_Energy-OPLS-2005>
467.451171875

> <r_mmod_Torsional_Energy-OPLS-2005>
257.465118408203

> <r_mmod_Improper_Torsional_Energy-OPLS-2005>
10.0993432998657

> <r_mmod_Van_der_Waal_Energy-OPLS-2005>
138.279632568359

> <r_mmod_Electrostatic_Energy-OPLS-2005>
-578.281921386719

> <r_mmod_Solvation_Energy-OPLS-2005>
-227.786697387695

> <b_mmod_Minimization_Converged-OPLS-2005>
0

> <r_mmod_RMS_Derivative-OPLS-2005>
6.10327386856079

$$$$
67
                    3D
 Structure written by MMmdl.
161169  0  0  1  0            999 V2000
  -30.6177  -14.7524   20.5163 C   0  0  0  0  0  0
  -30.4303  -12.4699   19.4847 C   0  0  0  0  0  0
  -29.5113  -12.5248   18.2445 C   0  0  0  0  0  0
  -28.0382  -12.3433   18.6541 C   0  0  0  0  0  0
  -27.6436  -13.2362   19.8603 C   0  0  2  0  0  0
  -28.6827  -13.1560   20.9994 C   0  0  0  0  0  0
  -25.2481  -13.8191   20.5674 C   0  0  0  0  0  0
  -24.1783  -13.0429   20.9196 C   0  0  0  0  0  0
  -24.6393  -11.6915   20.8747 C   0  0  0  0  0  0
  -23.9074  -10.4289   21.0407 C   0  0  0  0  0  0
  -24.3623   -9.4204   21.9185 C   0  0  0  0  0  0
  -23.6296   -8.2240   22.0753 C   0  0  0  0  0  0
  -22.4277   -8.0279   21.3545 C   0  0  0  0  0  0
  -21.9916   -9.0253   20.4646 C   0  0  0  0  0  0
  -22.7246  -10.2131   20.3056 C   0  0  0  0  0  0
  -21.6853   -6.0735   22.5280 C   0  0  0  0  0  0
  -21.4013   -6.5637   23.8213 C   0  0  0  0  0  0
  -21.3659   -5.6791   24.9175 C   0  0  0  0  0  0
  -21.6047   -4.3054   24.7226 C   0  0  0  0  0  0
  -21.8819   -3.8145   23.4347 C   0  0  0  0  0  0
  -21.9192   -4.6962   22.3403 C   0  0  0  0  0  0
  -22.7806  -13.5211   21.1860 C   0  0  0  0  0  0
  -22.1661   -4.2147   21.0981 F   0  0  0  0  0  0
  -21.5629   -3.4538   25.7740 F   0  0  0  0  0  0
  -29.9890  -13.5229   20.4351 N   0  0  0  0  0  0
  -26.2939  -12.9425   20.3320 N   0  0  0  0  0  0
  -25.9332  -11.6558   20.5776 N   0  0  0  0  0  0
  -22.0462  -12.8204   22.0428 N   0  0  0  0  0  0
  -25.4112  -15.1905   20.4043 N   0  0  0  0  0  0
  -31.7349  -14.8905   20.0057 O   0  0  0  0  0  0
  -21.6639   -6.8877   21.4241 O   0  0  0  0  0  0
  -22.3485  -14.5515   20.6711 O   0  0  0  0  0  0
  -24.6313  -31.8521   23.1944 C   0  0  0  0  0  0
  -25.9134  -32.4739   23.8298 C   0  0  1  0  0  0
  -27.2291  -27.2520   20.1302 C   0  0  0  0  0  0
  -25.5930  -33.8542   24.2233 N   0  0  0  0  0  0
  -23.4291  -30.4707   21.5364 C   0  0  2  0  0  0
  -24.8781  -28.9098   20.1047 C   0  0  0  0  0  0
  -22.7502  -29.4574   22.4894 C   0  0  0  0  0  0
  -18.0291  -28.1387   22.8484 C   0  0  0  0  0  0
  -24.1489  -36.7269   23.2641 C   0  0  0  0  0  0
  -25.9721  -30.7623   21.3730 C   0  0  0  0  0  0
  -26.0449  -29.3821   20.7170 C   0  0  0  0  0  0
  -27.2173  -28.5624   20.7206 C   0  0  0  0  0  0
  -26.0404  -26.8404   19.4917 C   0  0  0  0  0  0
  -24.8817  -27.6487   19.4815 C   0  0  0  0  0  0
  -23.6476  -29.7972   20.1536 C   0  0  0  0  0  0
  -25.4116  -36.3057   24.0329 C   0  0  1  0  0  0
  -20.5893  -28.3693   23.1270 C   0  0  2  0  0  0
  -20.6774  -26.9409   22.5411 C   0  0  0  0  0  0
  -19.5750  -26.6381   21.5213 C   0  0  0  0  0  0
  -18.1931  -26.7929   22.1624 C   0  0  0  0  0  0
  -19.1545  -28.8857   23.2873 C   0  0  0  0  0  0
  -18.9466  -30.1458   23.8893 C   0  0  0  0  0  0
  -17.6466  -30.6588   24.0558 C   0  0  0  0  0  0
  -25.9057  -34.9432   23.5083 C   0  0  0  0  0  0
  -16.5356  -29.9087   23.6331 C   0  0  0  0  0  0
  -16.7277  -28.6501   23.0358 C   0  0  0  0  0  0
  -26.4506  -31.6578   25.0700 C   0  0  0  0  0  0
  -25.3730  -31.3744   26.1424 C   0  0  0  0  0  0
  -27.0352  -30.2993   24.6196 C   0  0  0  0  0  0
  -27.6059  -32.4323   25.7474 C   0  0  0  0  0  0
  -27.5574  -37.1785   24.8466 C   0  0  0  0  0  0
  -21.4206  -29.3035   22.3652 N   0  0  0  0  0  0
  -26.4283  -37.3763   23.9413 N   0  0  0  0  0  0
  -24.6963  -31.0477   22.0911 N   0  0  0  0  0  0
  -23.4194  -28.8131   23.3010 O   0  0  0  0  0  0
  -28.3468  -26.3923   20.2385 O   0  0  0  0  0  0
  -26.5628  -34.8915   22.4653 O   0  0  0  0  0  0
  -23.5465  -32.1343   23.7244 O   0  0  0  0  0  0
  -27.6050  -17.3229   21.8243 C   0  0  0  0  0  0
  -26.4986  -17.8433   22.4826 C   0  0  0  0  0  0
  -28.5203  -18.1391   21.1167 C   0  0  0  0  0  0
  -28.1737  -19.5922   21.0364 C   0  0  0  0  0  0
  -26.9915  -19.9731   21.7521 C   0  0  0  0  0  0
  -26.4120  -21.3691   21.7700 C   0  0  0  0  0  0
  -30.3062  -15.9191   22.5470 C   0  0  0  0  0  0
  -28.8558  -20.7421   20.1445 C   0  0  0  0  0  0
  -29.7306  -17.2630   20.5347 C   0  0  0  0  0  0
  -29.0415  -22.3417   20.5408 C   0  0  0  0  0  0
  -28.0247  -23.5964   20.2195 C   0  0  0  0  0  0
  -28.4949  -25.0332   19.6076 C   0  0  0  0  0  0
  -26.2107  -19.1422   22.4630 N   0  0  0  0  0  0
  -29.9753  -15.8384   21.1137 N   0  0  0  0  0  0
  -31.4722  -12.5922   19.1842 H   0  0  0  0  0  0
  -30.3767  -11.4885   19.9590 H   0  0  0  0  0  0
  -29.7977  -11.7547   17.5271 H   0  0  0  0  0  0
  -29.6370  -13.4811   17.7348 H   0  0  0  0  0  0
  -27.8964  -11.2933   18.9123 H   0  0  0  0  0  0
  -27.3812  -12.5393   17.8060 H   0  0  0  0  0  0
  -27.6430  -14.2632   19.4934 H   0  0  0  0  0  0
  -28.7179  -12.1516   21.4238 H   0  0  0  0  0  0
  -28.3953  -13.8186   21.8155 H   0  0  0  0  0  0
  -25.2767   -9.5679   22.4761 H   0  0  0  0  0  0
  -24.0003   -7.4632   22.7472 H   0  0  0  0  0  0
  -21.0847   -8.8775   19.8954 H   0  0  0  0  0  0
  -22.3705  -10.9670   19.6165 H   0  0  0  0  0  0
  -21.2003   -7.6146   23.9714 H   0  0  0  0  0  0
  -21.1483   -6.0521   25.9078 H   0  0  0  0  0  0
  -22.0598   -2.7607   23.2848 H   0  0  0  0  0  0
  -22.4083  -11.9867   22.4817 H   0  0  0  0  0  0
  -21.1080  -13.1227   22.2639 H   0  0  0  0  0  0
  -24.6366  -15.8368   20.5004 H   0  0  0  0  0  0
  -26.2663  -15.6397   20.1026 H   0  0  0  0  0  0
  -26.7196  -32.5388   23.1034 H   0  0  0  0  0  0
  -25.0101  -33.9679   25.0395 H   0  0  0  0  0  0
  -22.7259  -31.2928   21.3868 H   0  0  0  0  0  0
  -23.3760  -35.9592   23.3299 H   0  0  0  0  0  0
  -24.3578  -36.8897   22.2055 H   0  0  0  0  0  0
  -23.7238  -37.6467   23.6668 H   0  0  0  0  0  0
  -26.1100  -31.5220   20.6022 H   0  0  0  0  0  0
  -26.8497  -30.8142   22.0059 H   0  0  0  0  0  0
  -28.1092  -28.9167   21.2187 H   0  0  0  0  0  0
  -25.9814  -25.8654   19.0310 H   0  0  0  0  0  0
  -23.9853  -27.2806   19.0014 H   0  0  0  0  0  0
  -23.7696  -30.5700   19.3936 H   0  0  0  0  0  0
  -22.7665  -29.2279   19.8521 H   0  0  0  0  0  0
  -25.1305  -36.1891   25.0823 H   0  0  0  0  0  0
  -20.9994  -28.3270   24.1388 H   0  0  0  0  0  0
  -20.5663  -26.2305   23.3618 H   0  0  0  0  0  0
  -21.6643  -26.7426   22.1211 H   0  0  0  0  0  0
  -19.6911  -25.6293   21.1246 H   0  0  0  0  0  0
  -19.6694  -27.3186   20.6738 H   0  0  0  0  0  0
  -17.4205  -26.6684   21.4021 H   0  0  0  0  0  0
  -18.0324  -26.0073   22.9020 H   0  0  0  0  0  0
  -19.7942  -30.7271   24.2265 H   0  0  0  0  0  0
  -17.5023  -31.6271   24.5157 H   0  0  0  0  0  0
  -15.5356  -30.2988   23.7659 H   0  0  0  0  0  0
  -15.8676  -28.0817   22.7083 H   0  0  0  0  0  0
  -24.5915  -30.7077   25.7763 H   0  0  0  0  0  0
  -24.8908  -32.2920   26.4803 H   0  0  0  0  0  0
  -25.8050  -30.8961   27.0223 H   0  0  0  0  0  0
  -26.2931  -29.6734   24.1224 H   0  0  0  0  0  0
  -27.4036  -29.7270   25.4718 H   0  0  0  0  0  0
  -27.8810  -30.4271   23.9437 H   0  0  0  0  0  0
  -27.2668  -33.3637   26.2021 H   0  0  0  0  0  0
  -28.3881  -32.6856   25.0307 H   0  0  0  0  0  0
  -28.0709  -31.8465   26.5413 H   0  0  0  0  0  0
  -28.2592  -38.0081   24.7512 H   0  0  0  0  0  0
  -28.1071  -36.2612   24.6293 H   0  0  0  0  0  0
  -27.2294  -37.1438   25.8870 H   0  0  0  0  0  0
  -20.9391  -29.8751   21.6852 H   0  0  0  0  0  0
  -26.0158  -38.2835   24.1421 H   0  0  0  0  0  0
  -27.7214  -16.2537   21.9013 H   0  0  0  0  0  0
  -25.8264  -17.2016   23.0330 H   0  0  0  0  0  0
  -26.2448  -21.7212   20.7556 H   0  0  0  0  0  0
  -27.0657  -22.0379   22.3260 H   0  0  0  0  0  0
  -25.4412  -21.4051   22.2669 H   0  0  0  0  0  0
  -29.9955  -16.8574   23.0063 H   0  0  0  0  0  0
  -31.3832  -15.8427   22.7118 H   0  0  0  0  0  0
  -29.8279  -15.1144   23.1062 H   0  0  0  0  0  0
  -28.3725  -20.7014   19.1677 H   0  0  0  0  0  0
  -29.8623  -20.3646   19.9599 H   0  0  0  0  0  0
  -30.6500  -17.8397   20.6429 H   0  0  0  0  0  0
  -29.5711  -17.1623   19.4604 H   0  0  0  0  0  0
  -29.9427  -22.6222   19.9947 H   0  0  0  0  0  0
  -29.3584  -22.4074   21.5818 H   0  0  0  0  0  0
  -27.4510  -23.8275   21.1153 H   0  0  0  0  0  0
  -27.2890  -23.2198   19.5095 H   0  0  0  0  0  0
  -28.0942  -25.1082   18.5960 H   0  0  0  0  0  0
  -29.5676  -24.9434   19.4368 H   0  0  0  0  0  0
  1 25  1  0  0  0
  1 30  2  0  0  0
  1 84  1  0  0  0
  2  3  1  0  0  0
  2 25  1  0  0  0
  2 85  1  0  0  0
  2 86  1  0  0  0
  3  4  1  0  0  0
  3 87  1  0  0  0
  3 88  1  0  0  0
  4  5  1  0  0  0
  4 89  1  0  0  0
  4 90  1  0  0  0
  5  6  1  0  0  0
  5 26  1  0  0  0
  5 91  1  0  0  0
  6 25  1  0  0  0
  6 92  1  0  0  0
  6 93  1  0  0  0
  7  8  2  0  0  0
  7 26  1  0  0  0
  7 29  1  0  0  0
  8  9  1  0  0  0
  8 22  1  0  0  0
  9 10  1  0  0  0
  9 27  2  0  0  0
 10 11  2  0  0  0
 10 15  1  0  0  0
 11 12  1  0  0  0
 11 94  1  0  0  0
 12 13  2  0  0  0
 12 95  1  0  0  0
 13 14  1  0  0  0
 13 31  1  0  0  0
 14 15  2  0  0  0
 14 96  1  0  0  0
 15 97  1  0  0  0
 16 17  2  0  0  0
 16 21  1  0  0  0
 16 31  1  0  0  0
 17 18  1  0  0  0
 17 98  1  0  0  0
 18 19  2  0  0  0
 18 99  1  0  0  0
 19 20  1  0  0  0
 19 24  1  0  0  0
 20 21  2  0  0  0
 20100  1  0  0  0
 21 23  1  0  0  0
 22 28  1  0  0  0
 22 32  2  0  0  0
 26 27  1  0  0  0
 28101  1  0  0  0
 28102  1  0  0  0
 29103  1  0  0  0
 29104  1  0  0  0
 33 34  1  0  0  0
 33 66  1  0  0  0
 33 70  2  0  0  0
 34 36  1  0  0  0
 34 59  1  0  0  0
 34105  1  0  0  0
 35 44  2  0  0  0
 35 45  1  0  0  0
 35 68  1  0  0  0
 36 56  1  0  0  0
 36106  1  0  0  0
 37 39  1  0  0  0
 37 47  1  0  0  0
 37 66  1  0  0  0
 37107  1  0  0  0
 38 43  2  0  0  0
 38 46  1  0  0  0
 38 47  1  0  0  0
 39 64  1  0  0  0
 39 67  2  0  0  0
 40 52  1  0  0  0
 40 53  2  0  0  0
 40 58  1  0  0  0
 41108  1  0  0  0
 41109  1  0  0  0
 41110  1  0  0  0
 41 48  1  0  0  0
 42 43  1  0  0  0
 42 66  1  0  0  0
 42111  1  0  0  0
 42112  1  0  0  0
 43 44  1  0  0  0
 44113  1  0  0  0
 45 46  2  0  0  0
 45114  1  0  0  0
 46115  1  0  0  0
 47116  1  0  0  0
 47117  1  0  0  0
 48 56  1  0  0  0
 48 65  1  0  0  0
 48118  1  0  0  0
 49 50  1  0  0  0
 49 53  1  0  0  0
 49 64  1  0  0  0
 49119  1  0  0  0
 50 51  1  0  0  0
 50120  1  0  0  0
 50121  1  0  0  0
 51 52  1  0  0  0
 51122  1  0  0  0
 51123  1  0  0  0
 52124  1  0  0  0
 52125  1  0  0  0
 53 54  1  0  0  0
 54 55  2  0  0  0
 54126  1  0  0  0
 55 57  1  0  0  0
 55127  1  0  0  0
 56 69  2  0  0  0
 57 58  2  0  0  0
 57128  1  0  0  0
 58129  1  0  0  0
 59 60  1  0  0  0
 59 61  1  0  0  0
 59 62  1  0  0  0
 60130  1  0  0  0
 60131  1  0  0  0
 60132  1  0  0  0
 61133  1  0  0  0
 61134  1  0  0  0
 61135  1  0  0  0
 62136  1  0  0  0
 62137  1  0  0  0
 62138  1  0  0  0
 63 65  1  0  0  0
 63139  1  0  0  0
 63140  1  0  0  0
 63141  1  0  0  0
 64142  1  0  0  0
 65143  1  0  0  0
 68 82  1  0  0  0
 71 72  2  0  0  0
 71 73  1  0  0  0
 71144  1  0  0  0
 72 83  1  0  0  0
 72145  1  0  0  0
 73 74  2  0  0  0
 73 79  1  0  0  0
 74 75  1  0  0  0
 74 78  1  0  0  0
 75 76  1  0  0  0
 75 83  2  0  0  0
 76146  1  0  0  0
 76147  1  0  0  0
 76148  1  0  0  0
 77 84  1  0  0  0
 77149  1  0  0  0
 77150  1  0  0  0
 77151  1  0  0  0
 78 80  1  0  0  0
 78152  1  0  0  0
 78153  1  0  0  0
 79 84  1  0  0  0
 79154  1  0  0  0
 79155  1  0  0  0
 80 81  1  0  0  0
 80156  1  0  0  0
 80157  1  0  0  0
 81 82  1  0  0  0
 81158  1  0  0  0
 81159  1  0  0  0
 82160  1  0  0  0
 82161  1  0  0  0
M  ISO  4   1 100  68 101  82 101  84 100
M  END
> <chiral flag>
0

> <version>
0

> <s_m_source_file>
/data/baiqing/PycharmProjects/Reinvent-master-3.2/result/LINK_invent/BTK/process_docking_weight1_custom_sum_contain_oxygen_bond_distance_aromatic_linkinvent_7_9_3/rearranged_h_0056.sdf

> <i_m_source_file_index>
66

> <r_mmod_Potential_Energy-OPLS-2005>
260.449401855469

> <r_mmod_Stretch_Energy-OPLS-2005>
173.132705688477

> <r_mmod_Bend_Energy-OPLS-2005>
267.906890869141

> <r_mmod_Torsional_Energy-OPLS-2005>
283.286163330078

> <r_mmod_Improper_Torsional_Energy-OPLS-2005>
5.86141920089722

> <r_mmod_Van_der_Waal_Energy-OPLS-2005>
151.653381347656

> <r_mmod_Electrostatic_Energy-OPLS-2005>
-503.711303710938

> <r_mmod_Solvation_Energy-OPLS-2005>
-205.306716918945

> <b_mmod_Minimization_Converged-OPLS-2005>
0

> <r_mmod_RMS_Derivative-OPLS-2005>
0.610843062400818

$$$$
68
                    3D
 Structure written by MMmdl.
153161  0  0  1  0            999 V2000
  -30.3162  -15.3457   20.2900 C   0  0  0  0  0  0
  -30.4371  -12.8420   19.5366 C   0  0  0  0  0  0
  -29.5310  -12.5626   18.3023 C   0  0  0  0  0  0
  -28.0722  -12.3009   18.7164 C   0  0  0  0  0  0
  -27.5970  -13.2526   19.8354 C   0  0  2  0  0  0
  -28.6356  -13.4486   20.9569 C   0  0  0  0  0  0
  -25.2332  -13.8184   20.5762 C   0  0  0  0  0  0
  -24.1677  -13.0414   20.9267 C   0  0  0  0  0  0
  -24.6315  -11.6897   20.8832 C   0  0  0  0  0  0
  -23.9026  -10.4269   21.0468 C   0  0  0  0  0  0
  -24.3610   -9.4190   21.9227 C   0  0  0  0  0  0
  -23.6304   -8.2215   22.0782 C   0  0  0  0  0  0
  -22.4284   -8.0279   21.3543 C   0  0  0  0  0  0
  -21.9910   -9.0258   20.4654 C   0  0  0  0  0  0
  -22.7236  -10.2145   20.3096 C   0  0  0  0  0  0
  -21.6854   -6.0753   22.5285 C   0  0  0  0  0  0
  -21.4010   -6.5664   23.8225 C   0  0  0  0  0  0
  -21.3642   -5.6815   24.9183 C   0  0  0  0  0  0
  -21.6018   -4.3064   24.7237 C   0  0  0  0  0  0
  -21.8804   -3.8165   23.4345 C   0  0  0  0  0  0
  -21.9189   -4.6981   22.3393 C   0  0  0  0  0  0
  -22.7687  -13.5163   21.1915 C   0  0  0  0  0  0
  -22.1666   -4.2172   21.0964 F   0  0  0  0  0  0
  -21.5648   -3.4528   25.7744 F   0  0  0  0  0  0
  -29.8569  -13.9871   20.3323 N   0  0  0  0  0  0
  -26.2714  -12.9386   20.3325 N   0  0  0  0  0  0
  -25.9246  -11.6528   20.5821 N   0  0  0  0  0  0
  -22.0387  -12.8154   22.0500 N   0  0  0  0  0  0
  -25.4006  -15.1930   20.4151 N   0  0  0  0  0  0
  -31.5450  -15.3824   20.1158 O   0  0  0  0  0  0
  -21.6658   -6.8898   21.4222 O   0  0  0  0  0  0
  -22.3365  -14.5458   20.6728 O   0  0  0  0  0  0
  -24.6625  -31.8259   23.1659 C   0  0  0  0  0  0
  -25.9307  -32.4572   23.8129 C   0  0  1  0  0  0
  -27.2169  -26.9231   20.1813 C   0  0  0  0  0  0
  -25.6007  -33.8403   24.2058 N   0  0  0  0  0  0
  -23.4739  -30.4334   21.5177 C   0  0  2  0  0  0
  -24.9237  -28.8187   20.1022 C   0  0  0  0  0  0
  -22.7640  -29.4466   22.4802 C   0  0  0  0  0  0
  -18.0310  -28.1408   22.8452 C   0  0  0  0  0  0
  -24.1495  -36.7238   23.2640 C   0  0  0  0  0  0
  -26.0411  -30.6284   21.3924 C   0  0  0  0  0  0
  -26.1054  -29.2170   20.7381 C   0  0  0  0  0  0
  -27.2386  -28.2898   20.7563 C   0  0  0  0  0  0
  -26.0085  -26.6777   19.4849 C   0  0  0  0  0  0
  -24.9038  -27.5704   19.4520 C   0  0  0  0  0  0
  -23.7056  -29.7437   20.1437 C   0  0  0  0  0  0
  -25.4140  -36.3004   24.0287 C   0  0  1  0  0  0
  -20.5926  -28.3763   23.1179 C   0  0  2  0  0  0
  -20.6812  -26.9456   22.5390 C   0  0  0  0  0  0
  -19.5809  -26.6383   21.5189 C   0  0  0  0  0  0
  -18.1973  -26.7934   22.1580 C   0  0  0  0  0  0
  -19.1567  -28.8909   23.2791 C   0  0  0  0  0  0
  -18.9484  -30.1492   23.8826 C   0  0  0  0  0  0
  -17.6480  -30.6600   24.0539 C   0  0  0  0  0  0
  -25.9124  -34.9363   23.4997 C   0  0  0  0  0  0
  -16.5384  -29.9095   23.6333 C   0  0  0  0  0  0
  -16.7287  -28.6515   23.0352 C   0  0  0  0  0  0
  -26.4559  -31.6520   25.0671 C   0  0  0  0  0  0
  -25.3669  -31.3774   26.1309 C   0  0  0  0  0  0
  -27.0448  -30.2881   24.6403 C   0  0  0  0  0  0
  -27.6059  -32.4327   25.7475 C   0  0  0  0  0  0
  -27.5575  -37.1782   24.8447 C   0  0  0  0  0  0
  -21.4320  -29.3055   22.3532 N   0  0  0  0  0  0
  -26.4299  -37.3722   23.9408 N   0  0  0  0  0  0
  -24.7476  -30.9888   22.0795 N   0  0  0  0  0  0
  -23.4174  -28.8059   23.3062 O   0  0  0  0  0  0
  -28.2322  -25.8370   20.3253 O   0  0  0  0  0  0
  -26.5729  -34.8885   22.4599 O   0  0  0  0  0  0
  -23.5704  -32.1273   23.6772 O   0  0  0  0  0  0
  -28.6451  -19.6674   20.8016 C   0  0  0  0  0  0
  -28.9722  -21.0148   20.3346 C   0  0  0  0  0  0
  -28.7249  -16.7662   18.7593 C   0  0  0  0  0  0
  -29.5685  -23.0612   21.8344 C   0  0  0  0  0  0
  -27.1658  -22.5376   21.5023 C   0  0  0  0  0  0
  -28.2765  -24.2354   19.8933 C   0  0  0  0  0  0
  -29.3168  -16.8335   20.1832 C   0  0  2  0  0  0
  -28.5228  -22.6764   20.7775 C   0  0  0  0  0  0
  -30.0801  -20.6099   19.5450 N   0  0  0  0  0  0
  -30.3145  -19.2726   19.4890 N   0  0  0  0  0  0
  -29.4796  -18.5264   20.2979 N   0  0  0  0  0  0
  -31.4516  -13.0524   19.2012 H   0  0  0  0  0  0
  -30.5231  -11.9469   20.1559 H   0  0  0  0  0  0
  -29.8996  -11.6984   17.7460 H   0  0  0  0  0  0
  -29.5617  -13.4071   17.6163 H   0  0  0  0  0  0
  -27.9987  -11.2668   19.0505 H   0  0  0  0  0  0
  -27.4106  -12.3808   17.8526 H   0  0  0  0  0  0
  -27.4804  -14.2074   19.3433 H   0  0  0  0  0  0
  -28.8315  -12.5096   21.4816 H   0  0  0  0  0  0
  -28.2657  -14.1441   21.7101 H   0  0  0  0  0  0
  -25.2767   -9.5708   22.4786 H   0  0  0  0  0  0
  -24.0036   -7.4596   22.7478 H   0  0  0  0  0  0
  -21.0862   -8.8759   19.8930 H   0  0  0  0  0  0
  -22.3702  -10.9688   19.6220 H   0  0  0  0  0  0
  -21.2019   -7.6197   23.9751 H   0  0  0  0  0  0
  -21.1477   -6.0559   25.9093 H   0  0  0  0  0  0
  -22.0592   -2.7619   23.2859 H   0  0  0  0  0  0
  -22.4089  -11.9842   22.4869 H   0  0  0  0  0  0
  -21.0999  -13.1112   22.2750 H   0  0  0  0  0  0
  -24.6284  -15.8379   20.5285 H   0  0  0  0  0  0
  -26.2372  -15.6328   20.0555 H   0  0  0  0  0  0
  -26.7407  -32.5097   23.0861 H   0  0  0  0  0  0
  -25.0095  -33.9489   25.0162 H   0  0  0  0  0  0
  -22.7859  -31.2672   21.3497 H   0  0  0  0  0  0
  -23.3773  -35.9554   23.3264 H   0  0  0  0  0  0
  -24.3585  -36.8936   22.2069 H   0  0  0  0  0  0
  -23.7222  -37.6399   23.6727 H   0  0  0  0  0  0
  -26.2168  -31.3681   20.6104 H   0  0  0  0  0  0
  -26.9027  -30.6890   22.0436 H   0  0  0  0  0  0
  -28.1262  -28.5935   21.2928 H   0  0  0  0  0  0
  -25.8783  -25.7221   19.0009 H   0  0  0  0  0  0
  -24.0030  -27.2598   18.9335 H   0  0  0  0  0  0
  -23.8510  -30.5146   19.3850 H   0  0  0  0  0  0
  -22.8103  -29.2003   19.8325 H   0  0  0  0  0  0
  -25.1330  -36.1828   25.0780 H   0  0  0  0  0  0
  -20.9979  -28.3405   24.1312 H   0  0  0  0  0  0
  -20.5717  -26.2402   23.3620 H   0  0  0  0  0  0
  -21.6681  -26.7470   22.1190 H   0  0  0  0  0  0
  -19.6996  -25.6276   21.1283 H   0  0  0  0  0  0
  -19.6758  -27.3130   20.6668 H   0  0  0  0  0  0
  -17.4237  -26.6631   21.3985 H   0  0  0  0  0  0
  -18.0407  -26.0092   22.9000 H   0  0  0  0  0  0
  -19.7980  -30.7322   24.2157 H   0  0  0  0  0  0
  -17.5053  -31.6265   24.5194 H   0  0  0  0  0  0
  -15.5388  -30.2984   23.7714 H   0  0  0  0  0  0
  -15.8672  -28.0815   22.7112 H   0  0  0  0  0  0
  -24.5838  -30.7158   25.7576 H   0  0  0  0  0  0
  -24.8877  -32.2983   26.4651 H   0  0  0  0  0  0
  -25.7881  -30.8960   27.0141 H   0  0  0  0  0  0
  -26.3104  -29.6535   24.1420 H   0  0  0  0  0  0
  -27.3978  -29.7278   25.5076 H   0  0  0  0  0  0
  -27.9047  -30.4040   23.9795 H   0  0  0  0  0  0
  -27.2622  -33.3661   26.1927 H   0  0  0  0  0  0
  -28.3910  -32.6825   25.0329 H   0  0  0  0  0  0
  -28.0653  -31.8531   26.5482 H   0  0  0  0  0  0
  -28.2560  -38.0107   24.7536 H   0  0  0  0  0  0
  -28.1117  -36.2648   24.6243 H   0  0  0  0  0  0
  -27.2306  -37.1360   25.8845 H   0  0  0  0  0  0
  -20.9605  -29.8718   21.6599 H   0  0  0  0  0  0
  -26.0158  -38.2801   24.1397 H   0  0  0  0  0  0
  -27.8488  -19.4279   21.4951 H   0  0  0  0  0  0
  -29.4828  -17.0513   18.0263 H   0  0  0  0  0  0
  -27.8909  -17.4657   18.6512 H   0  0  0  0  0  0
  -28.3679  -15.7913   18.4606 H   0  0  0  0  0  0
  -29.7688  -22.2256   22.5081 H   0  0  0  0  0  0
  -29.2391  -23.9098   22.4377 H   0  0  0  0  0  0
  -30.5096  -23.3333   21.3550 H   0  0  0  0  0  0
  -27.2364  -21.8686   22.3618 H   0  0  0  0  0  0
  -26.4028  -22.1448   20.8278 H   0  0  0  0  0  0
  -26.8003  -23.5001   21.8698 H   0  0  0  0  0  0
  -27.4536  -24.0849   19.1966 H   0  0  0  0  0  0
  -29.1487  -24.2521   19.2417 H   0  0  0  0  0  0
  -28.5028  -16.6085   20.8753 H   0  0  0  0  0  0
  1 25  1  0  0  0
  1 30  2  0  0  0
  1 77  1  0  0  0
  2  3  1  0  0  0
  2 25  1  0  0  0
  2 82  1  0  0  0
  2 83  1  0  0  0
  3  4  1  0  0  0
  3 84  1  0  0  0
  3 85  1  0  0  0
  4  5  1  0  0  0
  4 86  1  0  0  0
  4 87  1  0  0  0
  5  6  1  0  0  0
  5 26  1  0  0  0
  5 88  1  0  0  0
  6 25  1  0  0  0
  6 89  1  0  0  0
  6 90  1  0  0  0
  7  8  2  0  0  0
  7 26  1  0  0  0
  7 29  1  0  0  0
  8  9  1  0  0  0
  8 22  1  0  0  0
  9 10  1  0  0  0
  9 27  2  0  0  0
 10 11  2  0  0  0
 10 15  1  0  0  0
 11 12  1  0  0  0
 11 91  1  0  0  0
 12 13  2  0  0  0
 12 92  1  0  0  0
 13 14  1  0  0  0
 13 31  1  0  0  0
 14 15  2  0  0  0
 14 93  1  0  0  0
 15 94  1  0  0  0
 16 17  2  0  0  0
 16 21  1  0  0  0
 16 31  1  0  0  0
 17 18  1  0  0  0
 17 95  1  0  0  0
 18 19  2  0  0  0
 18 96  1  0  0  0
 19 20  1  0  0  0
 19 24  1  0  0  0
 20 21  2  0  0  0
 20 97  1  0  0  0
 21 23  1  0  0  0
 22 28  1  0  0  0
 22 32  2  0  0  0
 26 27  1  0  0  0
 28 98  1  0  0  0
 28 99  1  0  0  0
 29100  1  0  0  0
 29101  1  0  0  0
 33 34  1  0  0  0
 33 66  1  0  0  0
 33 70  2  0  0  0
 34 36  1  0  0  0
 34 59  1  0  0  0
 34102  1  0  0  0
 35 44  2  0  0  0
 35 45  1  0  0  0
 35 68  1  0  0  0
 36 56  1  0  0  0
 36103  1  0  0  0
 37 39  1  0  0  0
 37 47  1  0  0  0
 37 66  1  0  0  0
 37104  1  0  0  0
 38 43  2  0  0  0
 38 46  1  0  0  0
 38 47  1  0  0  0
 39 64  1  0  0  0
 39 67  2  0  0  0
 40 52  1  0  0  0
 40 53  2  0  0  0
 40 58  1  0  0  0
 41105  1  0  0  0
 41106  1  0  0  0
 41107  1  0  0  0
 41 48  1  0  0  0
 42 43  1  0  0  0
 42 66  1  0  0  0
 42108  1  0  0  0
 42109  1  0  0  0
 43 44  1  0  0  0
 44110  1  0  0  0
 45 46  2  0  0  0
 45111  1  0  0  0
 46112  1  0  0  0
 47113  1  0  0  0
 47114  1  0  0  0
 48 56  1  0  0  0
 48 65  1  0  0  0
 48115  1  0  0  0
 49 50  1  0  0  0
 49 53  1  0  0  0
 49 64  1  0  0  0
 49116  1  0  0  0
 50 51  1  0  0  0
 50117  1  0  0  0
 50118  1  0  0  0
 51 52  1  0  0  0
 51119  1  0  0  0
 51120  1  0  0  0
 52121  1  0  0  0
 52122  1  0  0  0
 53 54  1  0  0  0
 54 55  2  0  0  0
 54123  1  0  0  0
 55 57  1  0  0  0
 55124  1  0  0  0
 56 69  2  0  0  0
 57 58  2  0  0  0
 57125  1  0  0  0
 58126  1  0  0  0
 59 60  1  0  0  0
 59 61  1  0  0  0
 59 62  1  0  0  0
 60127  1  0  0  0
 60128  1  0  0  0
 60129  1  0  0  0
 61130  1  0  0  0
 61131  1  0  0  0
 61132  1  0  0  0
 62133  1  0  0  0
 62134  1  0  0  0
 62135  1  0  0  0
 63 65  1  0  0  0
 63136  1  0  0  0
 63137  1  0  0  0
 63138  1  0  0  0
 64139  1  0  0  0
 65140  1  0  0  0
 68 76  1  0  0  0
 71 72  2  0  0  0
 71 81  1  0  0  0
 71141  1  0  0  0
 72 78  1  0  0  0
 72 79  1  0  0  0
 73142  1  0  0  0
 73143  1  0  0  0
 73144  1  0  0  0
 73 77  1  0  0  0
 74145  1  0  0  0
 74146  1  0  0  0
 74147  1  0  0  0
 74 78  1  0  0  0
 75 78  1  0  0  0
 75148  1  0  0  0
 75149  1  0  0  0
 75150  1  0  0  0
 76 78  1  0  0  0
 76151  1  0  0  0
 76152  1  0  0  0
 77 81  1  0  0  0
 77153  1  0  0  0
 79 80  2  0  0  0
 80 81  1  0  0  0
M  ISO  4   1 100  68 101  76 101  77 100
M  END
> <chiral flag>
0

> <version>
0

> <s_m_source_file>
/data/baiqing/PycharmProjects/Reinvent-master-3.2/result/LINK_invent/BTK/process_docking_weight1_custom_sum_contain_oxygen_bond_distance_aromatic_linkinvent_7_9_3/rearranged_h_0056.sdf

> <i_m_source_file_index>
67

> <r_mmod_Potential_Energy-OPLS-2005>
1474.15087890625

> <r_mmod_Stretch_Energy-OPLS-2005>
633.899963378906

> <r_mmod_Bend_Energy-OPLS-2005>
520.37548828125

> <r_mmod_Torsional_Energy-OPLS-2005>
225.747116088867

> <r_mmod_Improper_Torsional_Energy-OPLS-2005>
9.73886108398438

> <r_mmod_Van_der_Waal_Energy-OPLS-2005>
104.231910705566

> <r_mmod_Electrostatic_Energy-OPLS-2005>
-319.82177734375

> <r_mmod_Solvation_Energy-OPLS-2005>
-217.887069702148

> <b_mmod_Minimization_Converged-OPLS-2005>
0

> <r_mmod_RMS_Derivative-OPLS-2005>
6.58135175704956

$$$$
69
                    3D
 Structure written by MMmdl.
154162  0  0  1  0            999 V2000
  -30.5890  -15.0345   20.2869 C   0  0  0  0  0  0
  -30.4457  -12.6277   19.5007 C   0  0  0  0  0  0
  -29.5218  -12.4776   18.2722 C   0  0  0  0  0  0
  -28.0687  -12.2306   18.7212 C   0  0  0  0  0  0
  -27.6148  -13.2001   19.8387 C   0  0  2  0  0  0
  -28.6789  -13.4005   20.9437 C   0  0  0  0  0  0
  -25.2473  -13.8001   20.5866 C   0  0  0  0  0  0
  -24.1749  -13.0315   20.9343 C   0  0  0  0  0  0
  -24.6332  -11.6786   20.8910 C   0  0  0  0  0  0
  -23.9008  -10.4202   21.0503 C   0  0  0  0  0  0
  -24.3572   -9.4102   21.9255 C   0  0  0  0  0  0
  -23.6248   -8.2148   22.0781 C   0  0  0  0  0  0
  -22.4234   -8.0226   21.3544 C   0  0  0  0  0  0
  -21.9876   -9.0209   20.4654 C   0  0  0  0  0  0
  -22.7212  -10.2084   20.3103 C   0  0  0  0  0  0
  -21.6825   -6.0687   22.5276 C   0  0  0  0  0  0
  -21.4000   -6.5605   23.8205 C   0  0  0  0  0  0
  -21.3664   -5.6774   24.9183 C   0  0  0  0  0  0
  -21.6052   -4.3037   24.7248 C   0  0  0  0  0  0
  -21.8820   -3.8111   23.4375 C   0  0  0  0  0  0
  -21.9178   -4.6913   22.3416 C   0  0  0  0  0  0
  -22.7776  -13.5150   21.1930 C   0  0  0  0  0  0
  -22.1649   -4.2091   21.0996 F   0  0  0  0  0  0
  -21.5646   -3.4533   25.7772 F   0  0  0  0  0  0
  -29.9459  -13.7861   20.2980 N   0  0  0  0  0  0
  -26.2872  -12.9140   20.3503 N   0  0  0  0  0  0
  -25.9264  -11.6328   20.5997 N   0  0  0  0  0  0
  -22.0377  -12.8163   22.0458 N   0  0  0  0  0  0
  -25.4103  -15.1740   20.4217 N   0  0  0  0  0  0
  -31.8208  -14.9526   20.3452 O   0  0  0  0  0  0
  -21.6599   -6.8828   21.4238 O   0  0  0  0  0  0
  -22.3506  -14.5471   20.6756 O   0  0  0  0  0  0
  -24.6404  -31.8454   23.1897 C   0  0  0  0  0  0
  -25.9186  -32.4701   23.8295 C   0  0  1  0  0  0
  -27.2343  -27.1583   20.1633 C   0  0  0  0  0  0
  -25.5948  -33.8516   24.2207 N   0  0  0  0  0  0
  -23.4472  -30.4633   21.5328 C   0  0  2  0  0  0
  -24.9031  -28.8949   20.1094 C   0  0  0  0  0  0
  -22.7573  -29.4540   22.4851 C   0  0  0  0  0  0
  -18.0310  -28.1419   22.8464 C   0  0  0  0  0  0
  -24.1495  -36.7264   23.2644 C   0  0  0  0  0  0
  -26.0011  -30.7293   21.3857 C   0  0  0  0  0  0
  -26.0769  -29.3421   20.7289 C   0  0  0  0  0  0
  -27.2417  -28.4891   20.7407 C   0  0  0  0  0  0
  -26.0358  -26.8106   19.4973 C   0  0  0  0  0  0
  -24.8952  -27.6421   19.4781 C   0  0  0  0  0  0
  -23.6755  -29.7924   20.1520 C   0  0  0  0  0  0
  -25.4129  -36.3039   24.0312 C   0  0  1  0  0  0
  -20.5925  -28.3729   23.1246 C   0  0  2  0  0  0
  -20.6809  -26.9437   22.5423 C   0  0  0  0  0  0
  -19.5779  -26.6396   21.5231 C   0  0  0  0  0  0
  -18.1954  -26.7951   22.1622 C   0  0  0  0  0  0
  -19.1567  -28.8895   23.2841 C   0  0  0  0  0  0
  -18.9474  -30.1491   23.8870 C   0  0  0  0  0  0
  -17.6472  -30.6606   24.0567 C   0  0  0  0  0  0
  -25.9077  -34.9409   23.5068 C   0  0  0  0  0  0
  -16.5367  -29.9100   23.6341 C   0  0  0  0  0  0
  -16.7291  -28.6527   23.0343 C   0  0  0  0  0  0
  -26.4521  -31.6564   25.0724 C   0  0  0  0  0  0
  -25.3706  -31.3745   26.1415 C   0  0  0  0  0  0
  -27.0393  -30.2966   24.6296 C   0  0  0  0  0  0
  -27.6062  -32.4328   25.7502 C   0  0  0  0  0  0
  -27.5574  -37.1790   24.8463 C   0  0  0  0  0  0
  -21.4268  -29.3039   22.3603 N   0  0  0  0  0  0
  -26.4293  -37.3744   23.9395 N   0  0  0  0  0  0
  -24.7160  -31.0334   22.0919 N   0  0  0  0  0  0
  -23.4224  -28.8076   23.2983 O   0  0  0  0  0  0
  -28.2992  -26.1900   20.2572 O   0  0  0  0  0  0
  -26.5659  -34.8892   22.4648 O   0  0  0  0  0  0
  -23.5526  -32.1325   23.7125 O   0  0  0  0  0  0
  -28.9267  -19.0744   19.9613 C   0  0  0  0  0  0
  -30.4388  -20.0656   21.0629 C   0  0  0  0  0  0
  -29.8435  -18.0276   20.2966 C   0  0  0  0  0  0
  -30.9884  -16.7855   18.4846 C   0  0  0  0  0  0
  -28.6610  -16.2518   18.9395 C   0  0  0  0  0  0
  -29.0154  -23.3516   20.4819 C   0  0  0  0  0  0
  -28.5520  -21.7721   20.1489 C   0  0  0  0  0  0
  -28.0413  -24.6705   20.0823 C   0  0  0  0  0  0
  -29.9956  -16.5045   19.6477 C   0  0  0  0  0  0
  -30.8070  -18.7511   21.0302 N   0  0  0  0  0  0
  -29.3083  -20.4010   20.4003 N   0  0  0  0  0  0
  -31.4752  -12.7751   19.1720 H   0  0  0  0  0  0
  -30.4570  -11.7172   20.1022 H   0  0  0  0  0  0
  -29.8641  -11.6555   17.6416 H   0  0  0  0  0  0
  -29.5791  -13.3747   17.6556 H   0  0  0  0  0  0
  -28.0126  -11.2040   19.0883 H   0  0  0  0  0  0
  -27.3886  -12.2933   17.8719 H   0  0  0  0  0  0
  -27.4701  -14.1240   19.3145 H   0  0  0  0  0  0
  -28.8082  -12.5007   21.5460 H   0  0  0  0  0  0
  -28.3689  -14.1890   21.6321 H   0  0  0  0  0  0
  -25.2706   -9.5557   22.4854 H   0  0  0  0  0  0
  -23.9947   -7.4508   22.7474 H   0  0  0  0  0  0
  -21.0822   -8.8737   19.8929 H   0  0  0  0  0  0
  -22.3700  -10.9657   19.6229 H   0  0  0  0  0  0
  -21.1984   -7.6110   23.9698 H   0  0  0  0  0  0
  -21.1503   -6.0511   25.9086 H   0  0  0  0  0  0
  -22.0603   -2.7572   23.2898 H   0  0  0  0  0  0
  -22.3991  -11.9828   22.4857 H   0  0  0  0  0  0
  -21.1005  -13.1225   22.2666 H   0  0  0  0  0  0
  -24.6340  -15.8180   20.5261 H   0  0  0  0  0  0
  -26.2473  -15.6184   20.0727 H   0  0  0  0  0  0
  -26.7247  -32.5315   23.1022 H   0  0  0  0  0  0
  -25.0064  -33.9651   25.0331 H   0  0  0  0  0  0
  -22.7464  -31.2859   21.3765 H   0  0  0  0  0  0
  -23.3757  -35.9595   23.3306 H   0  0  0  0  0  0
  -24.3587  -36.8912   22.2062 H   0  0  0  0  0  0
  -23.7250  -37.6457   23.6690 H   0  0  0  0  0  0
  -26.1542  -31.4852   20.6140 H   0  0  0  0  0  0
  -26.8714  -30.7827   22.0287 H   0  0  0  0  0  0
  -28.1323  -28.8268   21.2509 H   0  0  0  0  0  0
  -25.9485  -25.8525   19.0069 H   0  0  0  0  0  0
  -23.9997  -27.2954   18.9817 H   0  0  0  0  0  0
  -23.8081  -30.5672   19.3966 H   0  0  0  0  0  0
  -22.7927  -29.2300   19.8407 H   0  0  0  0  0  0
  -25.1314  -36.1880   25.0802 H   0  0  0  0  0  0
  -21.0002  -28.3331   24.1373 H   0  0  0  0  0  0
  -20.5772  -26.2320   23.3631 H   0  0  0  0  0  0
  -21.6660  -26.7489   22.1173 H   0  0  0  0  0  0
  -19.6963  -25.6306   21.1266 H   0  0  0  0  0  0
  -19.6743  -27.3197   20.6763 H   0  0  0  0  0  0
  -17.4233  -26.6693   21.4011 H   0  0  0  0  0  0
  -18.0334  -26.0125   22.9044 H   0  0  0  0  0  0
  -19.7958  -30.7321   24.2216 H   0  0  0  0  0  0
  -17.5030  -31.6275   24.5184 H   0  0  0  0  0  0
  -15.5364  -30.2993   23.7706 H   0  0  0  0  0  0
  -15.8683  -28.0857   22.7054 H   0  0  0  0  0  0
  -24.5882  -30.7103   25.7723 H   0  0  0  0  0  0
  -24.8890  -32.2919   26.4804 H   0  0  0  0  0  0
  -25.7980  -30.8930   27.0218 H   0  0  0  0  0  0
  -26.3011  -29.6675   24.1300 H   0  0  0  0  0  0
  -27.4015  -29.7275   25.4868 H   0  0  0  0  0  0
  -27.8910  -30.4219   23.9607 H   0  0  0  0  0  0
  -27.2672  -33.3657   26.2016 H   0  0  0  0  0  0
  -28.3892  -32.6847   25.0338 H   0  0  0  0  0  0
  -28.0694  -31.8489   26.5465 H   0  0  0  0  0  0
  -28.2576  -38.0098   24.7502 H   0  0  0  0  0  0
  -28.1083  -36.2627   24.6297 H   0  0  0  0  0  0
  -27.2290  -37.1439   25.8864 H   0  0  0  0  0  0
  -20.9493  -29.8722   21.6747 H   0  0  0  0  0  0
  -26.0164  -38.2815   24.1397 H   0  0  0  0  0  0
  -28.0320  -18.9976   19.3577 H   0  0  0  0  0  0
  -31.0353  -20.8141   21.5677 H   0  0  0  0  0  0
  -30.6151  -17.5450   17.7958 H   0  0  0  0  0  0
  -31.2086  -15.8987   17.8876 H   0  0  0  0  0  0
  -31.9383  -17.1585   18.8686 H   0  0  0  0  0  0
  -28.3813  -17.0591   18.2643 H   0  0  0  0  0  0
  -27.8647  -16.1653   19.6750 H   0  0  0  0  0  0
  -28.7134  -15.3797   18.2942 H   0  0  0  0  0  0
  -29.9895  -23.5116   20.0180 H   0  0  0  0  0  0
  -29.2067  -23.4099   21.5545 H   0  0  0  0  0  0
  -28.3267  -21.7700   19.0826 H   0  0  0  0  0  0
  -27.5802  -21.6480   20.6263 H   0  0  0  0  0  0
  -27.0911  -24.4824   20.5844 H   0  0  0  0  0  0
  -27.8271  -24.5558   19.0204 H   0  0  0  0  0  0
  1 25  1  0  0  0
  1 30  2  0  0  0
  1 79  1  0  0  0
  2  3  1  0  0  0
  2 25  1  0  0  0
  2 82  1  0  0  0
  2 83  1  0  0  0
  3  4  1  0  0  0
  3 84  1  0  0  0
  3 85  1  0  0  0
  4  5  1  0  0  0
  4 86  1  0  0  0
  4 87  1  0  0  0
  5  6  1  0  0  0
  5 26  1  0  0  0
  5 88  1  0  0  0
  6 25  1  0  0  0
  6 89  1  0  0  0
  6 90  1  0  0  0
  7  8  2  0  0  0
  7 26  1  0  0  0
  7 29  1  0  0  0
  8  9  1  0  0  0
  8 22  1  0  0  0
  9 10  1  0  0  0
  9 27  2  0  0  0
 10 11  2  0  0  0
 10 15  1  0  0  0
 11 12  1  0  0  0
 11 91  1  0  0  0
 12 13  2  0  0  0
 12 92  1  0  0  0
 13 14  1  0  0  0
 13 31  1  0  0  0
 14 15  2  0  0  0
 14 93  1  0  0  0
 15 94  1  0  0  0
 16 17  2  0  0  0
 16 21  1  0  0  0
 16 31  1  0  0  0
 17 18  1  0  0  0
 17 95  1  0  0  0
 18 19  2  0  0  0
 18 96  1  0  0  0
 19 20  1  0  0  0
 19 24  1  0  0  0
 20 21  2  0  0  0
 20 97  1  0  0  0
 21 23  1  0  0  0
 22 28  1  0  0  0
 22 32  2  0  0  0
 26 27  1  0  0  0
 28 98  1  0  0  0
 28 99  1  0  0  0
 29100  1  0  0  0
 29101  1  0  0  0
 33 34  1  0  0  0
 33 66  1  0  0  0
 33 70  2  0  0  0
 34 36  1  0  0  0
 34 59  1  0  0  0
 34102  1  0  0  0
 35 44  2  0  0  0
 35 45  1  0  0  0
 35 68  1  0  0  0
 36 56  1  0  0  0
 36103  1  0  0  0
 37 39  1  0  0  0
 37 47  1  0  0  0
 37 66  1  0  0  0
 37104  1  0  0  0
 38 43  2  0  0  0
 38 46  1  0  0  0
 38 47  1  0  0  0
 39 64  1  0  0  0
 39 67  2  0  0  0
 40 52  1  0  0  0
 40 53  2  0  0  0
 40 58  1  0  0  0
 41105  1  0  0  0
 41106  1  0  0  0
 41107  1  0  0  0
 41 48  1  0  0  0
 42 43  1  0  0  0
 42 66  1  0  0  0
 42108  1  0  0  0
 42109  1  0  0  0
 43 44  1  0  0  0
 44110  1  0  0  0
 45 46  2  0  0  0
 45111  1  0  0  0
 46112  1  0  0  0
 47113  1  0  0  0
 47114  1  0  0  0
 48 56  1  0  0  0
 48 65  1  0  0  0
 48115  1  0  0  0
 49 50  1  0  0  0
 49 53  1  0  0  0
 49 64  1  0  0  0
 49116  1  0  0  0
 50 51  1  0  0  0
 50117  1  0  0  0
 50118  1  0  0  0
 51 52  1  0  0  0
 51119  1  0  0  0
 51120  1  0  0  0
 52121  1  0  0  0
 52122  1  0  0  0
 53 54  1  0  0  0
 54 55  2  0  0  0
 54123  1  0  0  0
 55 57  1  0  0  0
 55124  1  0  0  0
 56 69  2  0  0  0
 57 58  2  0  0  0
 57125  1  0  0  0
 58126  1  0  0  0
 59 60  1  0  0  0
 59 61  1  0  0  0
 59 62  1  0  0  0
 60127  1  0  0  0
 60128  1  0  0  0
 60129  1  0  0  0
 61130  1  0  0  0
 61131  1  0  0  0
 61132  1  0  0  0
 62133  1  0  0  0
 62134  1  0  0  0
 62135  1  0  0  0
 63 65  1  0  0  0
 63136  1  0  0  0
 63137  1  0  0  0
 63138  1  0  0  0
 64139  1  0  0  0
 65140  1  0  0  0
 68 78  1  0  0  0
 71 73  2  0  0  0
 71 81  1  0  0  0
 71141  1  0  0  0
 72 80  2  0  0  0
 72 81  1  0  0  0
 72142  1  0  0  0
 73 79  1  0  0  0
 73 80  1  0  0  0
 74143  1  0  0  0
 74144  1  0  0  0
 74145  1  0  0  0
 74 79  1  0  0  0
 75 79  1  0  0  0
 75146  1  0  0  0
 75147  1  0  0  0
 75148  1  0  0  0
 76 77  1  0  0  0
 76 78  1  0  0  0
 76149  1  0  0  0
 76150  1  0  0  0
 77 81  1  0  0  0
 77151  1  0  0  0
 77152  1  0  0  0
 78153  1  0  0  0
 78154  1  0  0  0
M  ISO  4   1 100  68 101  78 101  79 100
M  END
> <chiral flag>
0

> <version>
0

> <s_m_source_file>
/data/baiqing/PycharmProjects/Reinvent-master-3.2/result/LINK_invent/BTK/process_docking_weight1_custom_sum_contain_oxygen_bond_distance_aromatic_linkinvent_7_9_3/rearranged_h_0056.sdf

> <i_m_source_file_index>
68

> <r_mmod_Potential_Energy-OPLS-2005>
732.991088867188

> <r_mmod_Stretch_Energy-OPLS-2005>
272.256683349609

> <r_mmod_Bend_Energy-OPLS-2005>
327.294372558594

> <r_mmod_Torsional_Energy-OPLS-2005>
235.475631713867

> <r_mmod_Improper_Torsional_Energy-OPLS-2005>
19.6576023101807

> <r_mmod_Van_der_Waal_Energy-OPLS-2005>
127.750144958496

> <r_mmod_Electrostatic_Energy-OPLS-2005>
-266.6884765625

> <r_mmod_Solvation_Energy-OPLS-2005>
-218.078186035156

> <b_mmod_Minimization_Converged-OPLS-2005>
0

> <r_mmod_RMS_Derivative-OPLS-2005>
2.63655948638916

$$$$
70
                    3D
 Structure written by MMmdl.
153161  0  0  1  0            999 V2000
  -30.5987  -14.7456   20.4546 C   0  0  0  0  0  0
  -30.4358  -12.4483   19.4612 C   0  0  0  0  0  0
  -29.5111  -12.5256   18.2252 C   0  0  0  0  0  0
  -28.0327  -12.3508   18.6296 C   0  0  0  0  0  0
  -27.6430  -13.2307   19.8468 C   0  0  2  0  0  0
  -28.6929  -13.1445   20.9761 C   0  0  0  0  0  0
  -25.2519  -13.8184   20.5695 C   0  0  0  0  0  0
  -24.1816  -13.0430   20.9210 C   0  0  0  0  0  0
  -24.6396  -11.6910   20.8723 C   0  0  0  0  0  0
  -23.9057  -10.4291   21.0371 C   0  0  0  0  0  0
  -24.3616   -9.4219   21.9159 C   0  0  0  0  0  0
  -23.6309   -8.2248   22.0725 C   0  0  0  0  0  0
  -22.4280   -8.0280   21.3524 C   0  0  0  0  0  0
  -21.9903   -9.0242   20.4626 C   0  0  0  0  0  0
  -22.7214  -10.2133   20.3040 C   0  0  0  0  0  0
  -21.6874   -6.0732   22.5272 C   0  0  0  0  0  0
  -21.4016   -6.5623   23.8201 C   0  0  0  0  0  0
  -21.3671   -5.6778   24.9160 C   0  0  0  0  0  0
  -21.6053   -4.3042   24.7214 C   0  0  0  0  0  0
  -21.8824   -3.8137   23.4330 C   0  0  0  0  0  0
  -21.9205   -4.6960   22.3389 C   0  0  0  0  0  0
  -22.7840  -13.5210   21.1896 C   0  0  0  0  0  0
  -22.1676   -4.2150   21.0971 F   0  0  0  0  0  0
  -21.5641   -3.4527   25.7723 F   0  0  0  0  0  0
  -29.9996  -13.5017   20.4063 N   0  0  0  0  0  0
  -26.2941  -12.9398   20.3238 N   0  0  0  0  0  0
  -25.9325  -11.6534   20.5702 N   0  0  0  0  0  0
  -22.0481  -12.8186   22.0451 N   0  0  0  0  0  0
  -25.4201  -15.1924   20.4119 N   0  0  0  0  0  0
  -31.7699  -14.8402   20.0807 O   0  0  0  0  0  0
  -21.6652   -6.8874   21.4234 O   0  0  0  0  0  0
  -22.3521  -14.5510   20.6746 O   0  0  0  0  0  0
  -24.6342  -31.8538   23.1956 C   0  0  0  0  0  0
  -25.9141  -32.4768   23.8340 C   0  0  1  0  0  0
  -27.2371  -27.2696   20.1299 C   0  0  0  0  0  0
  -25.5923  -33.8569   24.2281 N   0  0  0  0  0  0
  -23.4336  -30.4695   21.5399 C   0  0  2  0  0  0
  -24.8810  -28.9041   20.1231 C   0  0  0  0  0  0
  -22.7537  -29.4588   22.4950 C   0  0  0  0  0  0
  -18.0288  -28.1422   22.8465 C   0  0  0  0  0  0
  -24.1474  -36.7287   23.2641 C   0  0  0  0  0  0
  -25.9751  -30.7724   21.3668 C   0  0  0  0  0  0
  -26.0516  -29.3873   20.7214 C   0  0  0  0  0  0
  -27.2349  -28.5848   20.7043 C   0  0  0  0  0  0
  -26.0398  -26.8326   19.5309 C   0  0  0  0  0  0
  -24.8782  -27.6344   19.5183 C   0  0  0  0  0  0
  -23.6530  -29.7923   20.1612 C   0  0  0  0  0  0
  -25.4103  -36.3095   24.0340 C   0  0  1  0  0  0
  -20.5892  -28.3723   23.1278 C   0  0  2  0  0  0
  -20.6782  -26.9451   22.5414 C   0  0  0  0  0  0
  -19.5756  -26.6409   21.5222 C   0  0  0  0  0  0
  -18.1938  -26.7955   22.1621 C   0  0  0  0  0  0
  -19.1546  -28.8890   23.2856 C   0  0  0  0  0  0
  -18.9458  -30.1488   23.8881 C   0  0  0  0  0  0
  -17.6454  -30.6598   24.0579 C   0  0  0  0  0  0
  -25.9047  -34.9456   23.5119 C   0  0  0  0  0  0
  -16.5347  -29.9101   23.6325 C   0  0  0  0  0  0
  -16.7275  -28.6537   23.0313 C   0  0  0  0  0  0
  -26.4505  -31.6588   25.0731 C   0  0  0  0  0  0
  -25.3710  -31.3700   26.1437 C   0  0  0  0  0  0
  -27.0364  -30.3027   24.6184 C   0  0  0  0  0  0
  -27.6106  -32.4281   25.7485 C   0  0  0  0  0  0
  -27.5577  -37.1799   24.8467 C   0  0  0  0  0  0
  -21.4244  -29.3053   22.3686 N   0  0  0  0  0  0
  -26.4282  -37.3792   23.9420 N   0  0  0  0  0  0
  -24.7008  -31.0505   22.0915 N   0  0  0  0  0  0
  -23.4224  -28.8145   23.3074 O   0  0  0  0  0  0
  -28.3714  -26.4386   20.0628 O   0  0  0  0  0  0
  -26.5634  -34.8933   22.4700 O   0  0  0  0  0  0
  -23.5483  -32.1356   23.7233 O   0  0  0  0  0  0
  -30.8624  -19.6277   19.8584 C   0  0  0  0  0  0
  -29.5309  -19.8348   20.1094 C   0  0  0  0  0  0
  -30.0174  -17.5851   20.4224 C   0  0  0  0  0  0
  -32.4711  -17.7035   19.9208 C   0  0  0  0  0  0
  -29.7848  -16.0708   20.8901 C   0  0  0  0  0  0
  -28.3551  -23.6697   19.8040 C   0  0  0  0  0  0
  -28.3829  -25.0563   20.6450 C   0  0  0  0  0  0
  -29.2088  -22.3748   20.2999 C   0  0  0  0  0  0
  -31.1327  -18.2778   20.0619 N   0  0  0  0  0  0
  -29.0507  -18.5609   20.4267 N   0  3  0  0  0  0
  -28.7119  -21.0000   20.0124 O   0  0  0  0  0  0
  -31.4770  -12.5668   19.1595 H   0  0  0  0  0  0
  -30.3742  -11.4621   19.9244 H   0  0  0  0  0  0
  -29.7883  -11.7656   17.4936 H   0  0  0  0  0  0
  -29.6499  -13.4883   17.7299 H   0  0  0  0  0  0
  -27.8743  -11.2978   18.8666 H   0  0  0  0  0  0
  -27.3841  -12.5763   17.7819 H   0  0  0  0  0  0
  -27.6353  -14.2552   19.4789 H   0  0  0  0  0  0
  -28.7222  -12.1350   21.3890 H   0  0  0  0  0  0
  -28.4277  -13.8027   21.8042 H   0  0  0  0  0  0
  -25.2762   -9.5716   22.4721 H   0  0  0  0  0  0
  -24.0046   -7.4634   22.7417 H   0  0  0  0  0  0
  -21.0841   -8.8727   19.8919 H   0  0  0  0  0  0
  -22.3646  -10.9663   19.6152 H   0  0  0  0  0  0
  -21.1985   -7.6125   23.9706 H   0  0  0  0  0  0
  -21.1503   -6.0496   25.9067 H   0  0  0  0  0  0
  -22.0598   -2.7600   23.2818 H   0  0  0  0  0  0
  -22.4118  -11.9877   22.4878 H   0  0  0  0  0  0
  -21.1076  -13.1169   22.2617 H   0  0  0  0  0  0
  -24.6406  -15.8341   20.5051 H   0  0  0  0  0  0
  -26.2510  -15.6285   20.0378 H   0  0  0  0  0  0
  -26.7239  -32.5442   23.1122 H   0  0  0  0  0  0
  -25.0064  -33.9705   25.0421 H   0  0  0  0  0  0
  -22.7303  -31.2901   21.3878 H   0  0  0  0  0  0
  -23.3751  -35.9599   23.3289 H   0  0  0  0  0  0
  -24.3578  -36.8919   22.2061 H   0  0  0  0  0  0
  -23.7196  -37.6472   23.6665 H   0  0  0  0  0  0
  -26.0947  -31.5221   20.5833 H   0  0  0  0  0  0
  -26.8599  -30.8439   21.9892 H   0  0  0  0  0  0
  -28.1441  -28.9614   21.1495 H   0  0  0  0  0  0
  -26.0078  -25.8587   19.0626 H   0  0  0  0  0  0
  -23.9818  -27.2590   19.0451 H   0  0  0  0  0  0
  -23.7891  -30.5607   19.4003 H   0  0  0  0  0  0
  -22.7726  -29.2244   19.8564 H   0  0  0  0  0  0
  -25.1280  -36.1957   25.0831 H   0  0  0  0  0  0
  -20.9951  -28.3303   24.1410 H   0  0  0  0  0  0
  -20.5707  -26.2349   23.3625 H   0  0  0  0  0  0
  -21.6654  -26.7501   22.1206 H   0  0  0  0  0  0
  -19.6919  -25.6316   21.1264 H   0  0  0  0  0  0
  -19.6678  -27.3211   20.6748 H   0  0  0  0  0  0
  -17.4213  -26.6690   21.4021 H   0  0  0  0  0  0
  -18.0328  -26.0119   22.9040 H   0  0  0  0  0  0
  -19.7930  -30.7319   24.2244 H   0  0  0  0  0  0
  -17.4997  -31.6270   24.5207 H   0  0  0  0  0  0
  -15.5344  -30.2994   23.7657 H   0  0  0  0  0  0
  -15.8687  -28.0873   22.6986 H   0  0  0  0  0  0
  -24.5908  -30.7052   25.7714 H   0  0  0  0  0  0
  -24.8861  -32.2834   26.4883 H   0  0  0  0  0  0
  -25.7994  -30.8843   27.0212 H   0  0  0  0  0  0
  -26.2952  -29.6752   24.1230 H   0  0  0  0  0  0
  -27.4109  -29.7321   25.4693 H   0  0  0  0  0  0
  -27.8788  -30.4358   23.9396 H   0  0  0  0  0  0
  -27.2810  -33.3598   26.2087 H   0  0  0  0  0  0
  -28.3893  -32.6785   25.0269 H   0  0  0  0  0  0
  -28.0803  -31.8364   26.5354 H   0  0  0  0  0  0
  -28.2605  -38.0094   24.7558 H   0  0  0  0  0  0
  -28.1070  -36.2636   24.6238 H   0  0  0  0  0  0
  -27.2320  -37.1401   25.8879 H   0  0  0  0  0  0
  -20.9478  -29.8750   21.6843 H   0  0  0  0  0  0
  -26.0168  -38.2870   24.1410 H   0  0  0  0  0  0
  -31.6257  -20.3283   19.5510 H   0  0  0  0  0  0
  -32.7117  -17.1049   20.7983 H   0  0  0  0  0  0
  -33.2037  -18.5069   19.8385 H   0  0  0  0  0  0
  -32.5133  -17.1023   19.0124 H   0  0  0  0  0  0
  -28.7432  -15.8917   20.6362 H   0  0  0  0  0  0
  -29.8146  -16.1133   21.9782 H   0  0  0  0  0  0
  -28.6381  -23.8777   18.7728 H   0  0  0  0  0  0
  -27.3101  -23.3654   19.7409 H   0  0  0  0  0  0
  -29.3156  -25.0290   21.2074 H   0  0  0  0  0  0
  -27.6102  -25.0021   21.4144 H   0  0  0  0  0  0
  -29.3212  -22.4347   21.3814 H   0  0  0  0  0  0
  -30.2205  -22.4708   19.9005 H   0  0  0  0  0  0
  -28.0795  -18.3872   20.6533 H   0  0  0  0  0  0
  1 25  1  0  0  0
  1 30  2  0  0  0
  1 75  1  0  0  0
  2  3  1  0  0  0
  2 25  1  0  0  0
  2 82  1  0  0  0
  2 83  1  0  0  0
  3  4  1  0  0  0
  3 84  1  0  0  0
  3 85  1  0  0  0
  4  5  1  0  0  0
  4 86  1  0  0  0
  4 87  1  0  0  0
  5  6  1  0  0  0
  5 26  1  0  0  0
  5 88  1  0  0  0
  6 25  1  0  0  0
  6 89  1  0  0  0
  6 90  1  0  0  0
  7  8  2  0  0  0
  7 26  1  0  0  0
  7 29  1  0  0  0
  8  9  1  0  0  0
  8 22  1  0  0  0
  9 10  1  0  0  0
  9 27  2  0  0  0
 10 11  2  0  0  0
 10 15  1  0  0  0
 11 12  1  0  0  0
 11 91  1  0  0  0
 12 13  2  0  0  0
 12 92  1  0  0  0
 13 14  1  0  0  0
 13 31  1  0  0  0
 14 15  2  0  0  0
 14 93  1  0  0  0
 15 94  1  0  0  0
 16 17  2  0  0  0
 16 21  1  0  0  0
 16 31  1  0  0  0
 17 18  1  0  0  0
 17 95  1  0  0  0
 18 19  2  0  0  0
 18 96  1  0  0  0
 19 20  1  0  0  0
 19 24  1  0  0  0
 20 21  2  0  0  0
 20 97  1  0  0  0
 21 23  1  0  0  0
 22 28  1  0  0  0
 22 32  2  0  0  0
 26 27  1  0  0  0
 28 98  1  0  0  0
 28 99  1  0  0  0
 29100  1  0  0  0
 29101  1  0  0  0
 33 34  1  0  0  0
 33 66  1  0  0  0
 33 70  2  0  0  0
 34 36  1  0  0  0
 34 59  1  0  0  0
 34102  1  0  0  0
 35 44  2  0  0  0
 35 45  1  0  0  0
 35 68  1  0  0  0
 36 56  1  0  0  0
 36103  1  0  0  0
 37 39  1  0  0  0
 37 47  1  0  0  0
 37 66  1  0  0  0
 37104  1  0  0  0
 38 43  2  0  0  0
 38 46  1  0  0  0
 38 47  1  0  0  0
 39 64  1  0  0  0
 39 67  2  0  0  0
 40 52  1  0  0  0
 40 53  2  0  0  0
 40 58  1  0  0  0
 41105  1  0  0  0
 41106  1  0  0  0
 41107  1  0  0  0
 41 48  1  0  0  0
 42 43  1  0  0  0
 42 66  1  0  0  0
 42108  1  0  0  0
 42109  1  0  0  0
 43 44  1  0  0  0
 44110  1  0  0  0
 45 46  2  0  0  0
 45111  1  0  0  0
 46112  1  0  0  0
 47113  1  0  0  0
 47114  1  0  0  0
 48 56  1  0  0  0
 48 65  1  0  0  0
 48115  1  0  0  0
 49 50  1  0  0  0
 49 53  1  0  0  0
 49 64  1  0  0  0
 49116  1  0  0  0
 50 51  1  0  0  0
 50117  1  0  0  0
 50118  1  0  0  0
 51 52  1  0  0  0
 51119  1  0  0  0
 51120  1  0  0  0
 52121  1  0  0  0
 52122  1  0  0  0
 53 54  1  0  0  0
 54 55  2  0  0  0
 54123  1  0  0  0
 55 57  1  0  0  0
 55124  1  0  0  0
 56 69  2  0  0  0
 57 58  2  0  0  0
 57125  1  0  0  0
 58126  1  0  0  0
 59 60  1  0  0  0
 59 61  1  0  0  0
 59 62  1  0  0  0
 60127  1  0  0  0
 60128  1  0  0  0
 60129  1  0  0  0
 61130  1  0  0  0
 61131  1  0  0  0
 61132  1  0  0  0
 62133  1  0  0  0
 62134  1  0  0  0
 62135  1  0  0  0
 63 65  1  0  0  0
 63136  1  0  0  0
 63137  1  0  0  0
 63138  1  0  0  0
 64139  1  0  0  0
 65140  1  0  0  0
 68 77  1  0  0  0
 71 72  2  0  0  0
 71 79  1  0  0  0
 71141  1  0  0  0
 72 80  1  0  0  0
 72 81  1  0  0  0
 73 75  1  0  0  0
 73 79  1  0  0  0
 73 80  2  0  0  0
 74 79  1  0  0  0
 74142  1  0  0  0
 74143  1  0  0  0
 74144  1  0  0  0
 75145  1  0  0  0
 75146  1  0  0  0
 76 77  1  0  0  0
 76 78  1  0  0  0
 76147  1  0  0  0
 76148  1  0  0  0
 77149  1  0  0  0
 77150  1  0  0  0
 78 81  1  0  0  0
 78151  1  0  0  0
 78152  1  0  0  0
 80153  1  0  0  0
M  CHG  1  80   1
M  ISO  4   1 100  68 101  75 100  77 101
M  END
> <chiral flag>
0

> <version>
0

> <s_m_source_file>
/data/baiqing/PycharmProjects/Reinvent-master-3.2/result/LINK_invent/BTK/process_docking_weight1_custom_sum_contain_oxygen_bond_distance_aromatic_linkinvent_7_9_3/rearranged_h_0056.sdf

> <i_m_source_file_index>
69

> <r_mmod_Potential_Energy-OPLS-2005>
74.009895324707

> <r_mmod_Stretch_Energy-OPLS-2005>
123.783798217773

> <r_mmod_Bend_Energy-OPLS-2005>
202.351623535156

> <r_mmod_Torsional_Energy-OPLS-2005>
212.523666381836

> <r_mmod_Improper_Torsional_Energy-OPLS-2005>
3.25790357589722

> <r_mmod_Van_der_Waal_Energy-OPLS-2005>
111.737655639648

> <r_mmod_Electrostatic_Energy-OPLS-2005>
-240.407409667969

> <r_mmod_Solvation_Energy-OPLS-2005>
-413.986511230469

> <b_mmod_Minimization_Converged-OPLS-2005>
0

> <r_mmod_RMS_Derivative-OPLS-2005>
2.99354982376099

$$$$
71
                    3D
 Structure written by MMmdl.
160168  0  0  1  0            999 V2000
  -30.7088  -14.4966   20.6262 C   0  0  0  0  0  0
  -30.4297  -12.3406   19.4279 C   0  0  0  0  0  0
  -29.4968  -12.5274   18.2125 C   0  0  0  0  0  0
  -28.0184  -12.3768   18.6209 C   0  0  0  0  0  0
  -27.6628  -13.2106   19.8785 C   0  0  2  0  0  0
  -28.7012  -12.9816   20.9966 C   0  0  0  0  0  0
  -25.2579  -13.8170   20.5691 C   0  0  0  0  0  0
  -24.1838  -13.0439   20.9169 C   0  0  0  0  0  0
  -24.6401  -11.6904   20.8736 C   0  0  0  0  0  0
  -23.9070  -10.4289   21.0406 C   0  0  0  0  0  0
  -24.3617   -9.4201   21.9184 C   0  0  0  0  0  0
  -23.6285   -8.2244   22.0756 C   0  0  0  0  0  0
  -22.4270   -8.0281   21.3543 C   0  0  0  0  0  0
  -21.9910   -9.0261   20.4648 C   0  0  0  0  0  0
  -22.7244  -10.2135   20.3055 C   0  0  0  0  0  0
  -21.6854   -6.0731   22.5273 C   0  0  0  0  0  0
  -21.4023   -6.5638   23.8207 C   0  0  0  0  0  0
  -21.3654   -5.6789   24.9169 C   0  0  0  0  0  0
  -21.6042   -4.3051   24.7222 C   0  0  0  0  0  0
  -21.8821   -3.8143   23.4343 C   0  0  0  0  0  0
  -21.9196   -4.6958   22.3398 C   0  0  0  0  0  0
  -22.7857  -13.5230   21.1829 C   0  0  0  0  0  0
  -22.1662   -4.2146   21.0973 F   0  0  0  0  0  0
  -21.5618   -3.4533   25.7735 F   0  0  0  0  0  0
  -30.0368  -13.3142   20.4637 N   0  0  0  0  0  0
  -26.3026  -12.9351   20.3382 N   0  0  0  0  0  0
  -25.9327  -11.6500   20.5770 N   0  0  0  0  0  0
  -22.0507  -12.8233   22.0397 N   0  0  0  0  0  0
  -25.4299  -15.1888   20.4107 N   0  0  0  0  0  0
  -31.7645  -14.7389   20.0323 O   0  0  0  0  0  0
  -21.6635   -6.8876   21.4237 O   0  0  0  0  0  0
  -22.3540  -14.5533   20.6668 O   0  0  0  0  0  0
  -24.6203  -31.8652   23.2120 C   0  0  0  0  0  0
  -25.9081  -32.4806   23.8409 C   0  0  1  0  0  0
  -27.2159  -27.3757   20.1009 C   0  0  0  0  0  0
  -25.5919  -33.8608   24.2329 N   0  0  0  0  0  0
  -23.4087  -30.4945   21.5554 C   0  0  2  0  0  0
  -24.8513  -28.9656   20.1101 C   0  0  0  0  0  0
  -22.7429  -29.4655   22.4986 C   0  0  0  0  0  0
  -18.0262  -28.1379   22.8474 C   0  0  0  0  0  0
  -24.1482  -36.7308   23.2639 C   0  0  0  0  0  0
  -25.9478  -30.8126   21.3764 C   0  0  0  0  0  0
  -26.0186  -29.4483   20.7141 C   0  0  0  0  0  0
  -27.2034  -28.6623   20.7060 C   0  0  0  0  0  0
  -26.0280  -26.9456   19.4580 C   0  0  0  0  0  0
  -24.8544  -27.7165   19.4766 C   0  0  0  0  0  0
  -23.6163  -29.8377   20.1671 C   0  0  0  0  0  0
  -25.4099  -36.3102   24.0338 C   0  0  1  0  0  0
  -20.5863  -28.3669   23.1297 C   0  0  2  0  0  0
  -20.6752  -26.9408   22.5400 C   0  0  0  0  0  0
  -19.5736  -26.6385   21.5193 C   0  0  0  0  0  0
  -18.1913  -26.7922   22.1606 C   0  0  0  0  0  0
  -19.1517  -28.8838   23.2882 C   0  0  0  0  0  0
  -18.9451  -30.1443   23.8893 C   0  0  0  0  0  0
  -17.6458  -30.6589   24.0551 C   0  0  0  0  0  0
  -25.9037  -34.9467   23.5129 C   0  0  0  0  0  0
  -16.5342  -29.9079   23.6346 C   0  0  0  0  0  0
  -16.7252  -28.6500   23.0348 C   0  0  0  0  0  0
  -26.4495  -31.6591   25.0747 C   0  0  0  0  0  0
  -25.3749  -31.3693   26.1482 C   0  0  0  0  0  0
  -27.0344  -30.3021   24.6186 C   0  0  0  0  0  0
  -27.6078  -32.4319   25.7479 C   0  0  0  0  0  0
  -27.5579  -37.1791   24.8469 C   0  0  0  0  0  0
  -21.4153  -29.3030   22.3709 N   0  0  0  0  0  0
  -26.4285  -37.3789   23.9421 N   0  0  0  0  0  0
  -24.6779  -31.0714   22.1053 N   0  0  0  0  0  0
  -23.4179  -28.8175   23.3029 O   0  0  0  0  0  0
  -28.3455  -26.5564   20.1695 O   0  0  0  0  0  0
  -26.5603  -34.8925   22.4689 O   0  0  0  0  0  0
  -23.5384  -32.1438   23.7485 O   0  0  0  0  0  0
  -30.0450  -20.2972   20.0771 C   0  0  0  0  0  0
  -29.3536  -21.4181   20.5044 C   0  0  0  0  0  0
  -29.3695  -19.8791   22.1449 C   0  0  0  0  0  0
  -29.9758  -15.3756   22.7887 C   0  0  0  0  0  0
  -28.9249  -22.6814   19.7687 C   0  0  0  0  0  0
  -29.1326  -24.0788   20.4476 C   0  0  0  0  0  0
  -30.6608  -17.9964   21.0907 C   0  0  0  0  0  0
  -29.6973  -16.8060   20.7679 C   0  0  0  0  0  0
  -28.1620  -25.1450   19.8447 C   0  0  0  0  0  0
  -29.0946  -19.2538   23.4840 C   0  0  0  0  0  0
  -30.0292  -19.3568   21.0916 N   0  0  0  0  0  0
  -28.9605  -21.1065   21.7830 N   0  3  0  0  0  0
  -30.0709  -15.4745   21.3283 N   0  0  0  0  0  0
  -30.2324  -18.9093   24.0861 F   0  0  0  0  0  0
  -28.4507  -20.1244   24.2640 F   0  0  0  0  0  0
  -28.3309  -18.1710   23.3432 F   0  0  0  0  0  0
  -31.4710  -12.4563   19.1217 H   0  0  0  0  0  0
  -30.3509  -11.3253   19.8204 H   0  0  0  0  0  0
  -29.7426  -11.8041   17.4342 H   0  0  0  0  0  0
  -29.6570  -13.5145   17.7752 H   0  0  0  0  0  0
  -27.8321  -11.3200   18.8153 H   0  0  0  0  0  0
  -27.3663  -12.6532   17.7917 H   0  0  0  0  0  0
  -27.7100  -14.2622   19.5926 H   0  0  0  0  0  0
  -28.6855  -11.9399   21.3211 H   0  0  0  0  0  0
  -28.4208  -13.5571   21.8760 H   0  0  0  0  0  0
  -25.2761   -9.5670   22.4761 H   0  0  0  0  0  0
  -23.9985   -7.4637   22.7484 H   0  0  0  0  0  0
  -21.0834   -8.8785   19.8962 H   0  0  0  0  0  0
  -22.3703  -10.9674   19.6164 H   0  0  0  0  0  0
  -21.2032   -7.6150   23.9711 H   0  0  0  0  0  0
  -21.1468   -6.0518   25.9069 H   0  0  0  0  0  0
  -22.0611   -2.7608   23.2843 H   0  0  0  0  0  0
  -22.4114  -11.9883   22.4771 H   0  0  0  0  0  0
  -21.1136  -13.1273   22.2627 H   0  0  0  0  0  0
  -24.6663  -15.8465   20.5219 H   0  0  0  0  0  0
  -26.2888  -15.6274   20.1044 H   0  0  0  0  0  0
  -26.7139  -32.5496   23.1153 H   0  0  0  0  0  0
  -25.0037  -33.9773   25.0456 H   0  0  0  0  0  0
  -22.6983  -31.3135   21.4226 H   0  0  0  0  0  0
  -23.3749  -35.9635   23.3309 H   0  0  0  0  0  0
  -24.3582  -36.8936   22.2057 H   0  0  0  0  0  0
  -23.7245  -37.6515   23.6655 H   0  0  0  0  0  0
  -26.0744  -31.5819   20.6139 H   0  0  0  0  0  0
  -26.8307  -30.8538   22.0034 H   0  0  0  0  0  0
  -28.0986  -29.0246   21.1921 H   0  0  0  0  0  0
  -25.9661  -26.0022   18.9372 H   0  0  0  0  0  0
  -23.9607  -27.3435   18.9973 H   0  0  0  0  0  0
  -23.7253  -30.6202   19.4149 H   0  0  0  0  0  0
  -22.7358  -29.2664   19.8679 H   0  0  0  0  0  0
  -25.1278  -36.1951   25.0832 H   0  0  0  0  0  0
  -20.9943  -28.3239   24.1425 H   0  0  0  0  0  0
  -20.5648  -26.2282   23.3587 H   0  0  0  0  0  0
  -21.6624  -26.7439   22.1216 H   0  0  0  0  0  0
  -19.6903  -25.6291   21.1229 H   0  0  0  0  0  0
  -19.6690  -27.3177   20.6711 H   0  0  0  0  0  0
  -17.4186  -26.6655   21.4007 H   0  0  0  0  0  0
  -18.0335  -26.0061   22.9005 H   0  0  0  0  0  0
  -19.7935  -30.7250   24.2273 H   0  0  0  0  0  0
  -17.5018  -31.6280   24.5130 H   0  0  0  0  0  0
  -15.5338  -30.2971   23.7704 H   0  0  0  0  0  0
  -15.8649  -28.0823   22.7071 H   0  0  0  0  0  0
  -24.5954  -30.6996   25.7828 H   0  0  0  0  0  0
  -24.8875  -32.2828   26.4890 H   0  0  0  0  0  0
  -25.8100  -30.8908   27.0264 H   0  0  0  0  0  0
  -26.2919  -29.6726   24.1267 H   0  0  0  0  0  0
  -27.4124  -29.7310   25.4678 H   0  0  0  0  0  0
  -27.8745  -30.4327   23.9363 H   0  0  0  0  0  0
  -27.2745  -33.3652   26.2017 H   0  0  0  0  0  0
  -28.3890  -32.6812   25.0288 H   0  0  0  0  0  0
  -28.0732  -31.8461   26.5415 H   0  0  0  0  0  0
  -28.2595  -38.0090   24.7538 H   0  0  0  0  0  0
  -28.1084  -36.2627   24.6269 H   0  0  0  0  0  0
  -27.2310  -37.1437   25.8876 H   0  0  0  0  0  0
  -20.9315  -29.8753   21.6930 H   0  0  0  0  0  0
  -26.0177  -38.2870   24.1413 H   0  0  0  0  0  0
  -30.5166  -20.0961   19.1232 H   0  0  0  0  0  0
  -28.9815  -15.6617   23.1323 H   0  0  0  0  0  0
  -30.7067  -16.0197   23.2768 H   0  0  0  0  0  0
  -30.1654  -14.3623   23.1497 H   0  0  0  0  0  0
  -27.8658  -22.5559   19.5427 H   0  0  0  0  0  0
  -29.4234  -22.6927   18.7989 H   0  0  0  0  0  0
  -30.1705  -24.3923   20.3415 H   0  0  0  0  0  0
  -28.9386  -24.0060   21.5169 H   0  0  0  0  0  0
  -31.4799  -18.0133   20.3705 H   0  0  0  0  0  0
  -31.1401  -17.8607   22.0573 H   0  0  0  0  0  0
  -29.5927  -16.7258   19.6841 H   0  0  0  0  0  0
  -28.6937  -17.0364   21.1242 H   0  0  0  0  0  0
  -27.1795  -24.8108   20.1819 H   0  0  0  0  0  0
  -28.1708  -25.0591   18.7565 H   0  0  0  0  0  0
  -28.4104  -21.6964   22.3976 H   0  0  0  0  0  0
  1 25  1  0  0  0
  1 30  2  0  0  0
  1 83  1  0  0  0
  2  3  1  0  0  0
  2 25  1  0  0  0
  2 87  1  0  0  0
  2 88  1  0  0  0
  3  4  1  0  0  0
  3 89  1  0  0  0
  3 90  1  0  0  0
  4  5  1  0  0  0
  4 91  1  0  0  0
  4 92  1  0  0  0
  5  6  1  0  0  0
  5 26  1  0  0  0
  5 93  1  0  0  0
  6 25  1  0  0  0
  6 94  1  0  0  0
  6 95  1  0  0  0
  7  8  2  0  0  0
  7 26  1  0  0  0
  7 29  1  0  0  0
  8  9  1  0  0  0
  8 22  1  0  0  0
  9 10  1  0  0  0
  9 27  2  0  0  0
 10 11  2  0  0  0
 10 15  1  0  0  0
 11 12  1  0  0  0
 11 96  1  0  0  0
 12 13  2  0  0  0
 12 97  1  0  0  0
 13 14  1  0  0  0
 13 31  1  0  0  0
 14 15  2  0  0  0
 14 98  1  0  0  0
 15 99  1  0  0  0
 16 17  2  0  0  0
 16 21  1  0  0  0
 16 31  1  0  0  0
 17 18  1  0  0  0
 17100  1  0  0  0
 18 19  2  0  0  0
 18101  1  0  0  0
 19 20  1  0  0  0
 19 24  1  0  0  0
 20 21  2  0  0  0
 20102  1  0  0  0
 21 23  1  0  0  0
 22 28  1  0  0  0
 22 32  2  0  0  0
 26 27  1  0  0  0
 28103  1  0  0  0
 28104  1  0  0  0
 29105  1  0  0  0
 29106  1  0  0  0
 33 34  1  0  0  0
 33 66  1  0  0  0
 33 70  2  0  0  0
 34 36  1  0  0  0
 34 59  1  0  0  0
 34107  1  0  0  0
 35 44  2  0  0  0
 35 45  1  0  0  0
 35 68  1  0  0  0
 36 56  1  0  0  0
 36108  1  0  0  0
 37 39  1  0  0  0
 37 47  1  0  0  0
 37 66  1  0  0  0
 37109  1  0  0  0
 38 43  2  0  0  0
 38 46  1  0  0  0
 38 47  1  0  0  0
 39 64  1  0  0  0
 39 67  2  0  0  0
 40 52  1  0  0  0
 40 53  2  0  0  0
 40 58  1  0  0  0
 41110  1  0  0  0
 41111  1  0  0  0
 41112  1  0  0  0
 41 48  1  0  0  0
 42 43  1  0  0  0
 42 66  1  0  0  0
 42113  1  0  0  0
 42114  1  0  0  0
 43 44  1  0  0  0
 44115  1  0  0  0
 45 46  2  0  0  0
 45116  1  0  0  0
 46117  1  0  0  0
 47118  1  0  0  0
 47119  1  0  0  0
 48 56  1  0  0  0
 48 65  1  0  0  0
 48120  1  0  0  0
 49 50  1  0  0  0
 49 53  1  0  0  0
 49 64  1  0  0  0
 49121  1  0  0  0
 50 51  1  0  0  0
 50122  1  0  0  0
 50123  1  0  0  0
 51 52  1  0  0  0
 51124  1  0  0  0
 51125  1  0  0  0
 52126  1  0  0  0
 52127  1  0  0  0
 53 54  1  0  0  0
 54 55  2  0  0  0
 54128  1  0  0  0
 55 57  1  0  0  0
 55129  1  0  0  0
 56 69  2  0  0  0
 57 58  2  0  0  0
 57130  1  0  0  0
 58131  1  0  0  0
 59 60  1  0  0  0
 59 61  1  0  0  0
 59 62  1  0  0  0
 60132  1  0  0  0
 60133  1  0  0  0
 60134  1  0  0  0
 61135  1  0  0  0
 61136  1  0  0  0
 61137  1  0  0  0
 62138  1  0  0  0
 62139  1  0  0  0
 62140  1  0  0  0
 63 65  1  0  0  0
 63141  1  0  0  0
 63142  1  0  0  0
 63143  1  0  0  0
 64144  1  0  0  0
 65145  1  0  0  0
 68 79  1  0  0  0
 71 72  2  0  0  0
 71 81  1  0  0  0
 71146  1  0  0  0
 72 75  1  0  0  0
 72 82  1  0  0  0
 73 80  1  0  0  0
 73 81  1  0  0  0
 73 82  2  0  0  0
 74 83  1  0  0  0
 74147  1  0  0  0
 74148  1  0  0  0
 74149  1  0  0  0
 75 76  1  0  0  0
 75150  1  0  0  0
 75151  1  0  0  0
 76 79  1  0  0  0
 76152  1  0  0  0
 76153  1  0  0  0
 77 78  1  0  0  0
 77 81  1  0  0  0
 77154  1  0  0  0
 77155  1  0  0  0
 78 83  1  0  0  0
 78156  1  0  0  0
 78157  1  0  0  0
 79158  1  0  0  0
 79159  1  0  0  0
 80 84  1  0  0  0
 80 85  1  0  0  0
 80 86  1  0  0  0
 82160  1  0  0  0
M  CHG  1  82   1
M  ISO  4   1 100  68 101  79 101  83 100
M  END
> <chiral flag>
0

> <version>
0

> <s_m_source_file>
/data/baiqing/PycharmProjects/Reinvent-master-3.2/result/LINK_invent/BTK/process_docking_weight1_custom_sum_contain_oxygen_bond_distance_aromatic_linkinvent_7_9_3/rearranged_h_0056.sdf

> <i_m_source_file_index>
70

> <r_mmod_Potential_Energy-OPLS-2005>
68.9870452880859

> <r_mmod_Stretch_Energy-OPLS-2005>
52.1487808227539

> <r_mmod_Bend_Energy-OPLS-2005>
113.861869812012

> <r_mmod_Torsional_Energy-OPLS-2005>
304.014984130859

> <r_mmod_Improper_Torsional_Energy-OPLS-2005>
4.79463624954224

> <r_mmod_Van_der_Waal_Energy-OPLS-2005>
130.738754272461

> <r_mmod_Electrostatic_Energy-OPLS-2005>
-148.56282043457

> <r_mmod_Solvation_Energy-OPLS-2005>
-410.076080322266

> <b_mmod_Minimization_Converged-OPLS-2005>
0

> <r_mmod_RMS_Derivative-OPLS-2005>
1.82558441162109

$$$$
72
                    3D
 Structure written by MMmdl.
163171  0  0  1  0            999 V2000
  -30.6906  -14.5274   20.5432 C   0  0  0  0  0  0
  -30.4256  -12.3339   19.4384 C   0  0  0  0  0  0
  -29.5005  -12.5021   18.2143 C   0  0  0  0  0  0
  -28.0204  -12.3615   18.6241 C   0  0  0  0  0  0
  -27.6567  -13.2160   19.8691 C   0  0  2  0  0  0
  -28.6996  -13.0354   20.9947 C   0  0  0  0  0  0
  -25.2546  -13.8172   20.5675 C   0  0  0  0  0  0
  -24.1811  -13.0442   20.9190 C   0  0  0  0  0  0
  -24.6382  -11.6914   20.8746 C   0  0  0  0  0  0
  -23.9052  -10.4298   21.0411 C   0  0  0  0  0  0
  -24.3611   -9.4212   21.9181 C   0  0  0  0  0  0
  -23.6296   -8.2239   22.0750 C   0  0  0  0  0  0
  -22.4276   -8.0282   21.3542 C   0  0  0  0  0  0
  -21.9908   -9.0249   20.4638 C   0  0  0  0  0  0
  -22.7228  -10.2131   20.3060 C   0  0  0  0  0  0
  -21.6852   -6.0736   22.5277 C   0  0  0  0  0  0
  -21.4005   -6.5637   23.8209 C   0  0  0  0  0  0
  -21.3671   -5.6791   24.9173 C   0  0  0  0  0  0
  -21.6054   -4.3054   24.7227 C   0  0  0  0  0  0
  -21.8819   -3.8148   23.4345 C   0  0  0  0  0  0
  -21.9188   -4.6965   22.3402 C   0  0  0  0  0  0
  -22.7831  -13.5231   21.1866 C   0  0  0  0  0  0
  -22.1653   -4.2155   21.0981 F   0  0  0  0  0  0
  -21.5645   -3.4535   25.7735 F   0  0  0  0  0  0
  -30.0256  -13.3418   20.4352 N   0  0  0  0  0  0
  -26.2996  -12.9365   20.3342 N   0  0  0  0  0  0
  -25.9311  -11.6514   20.5755 N   0  0  0  0  0  0
  -22.0469  -12.8227   22.0421 N   0  0  0  0  0  0
  -25.4251  -15.1893   20.4072 N   0  0  0  0  0  0
  -31.8393  -14.6816   20.1226 O   0  0  0  0  0  0
  -21.6641   -6.8877   21.4238 O   0  0  0  0  0  0
  -22.3517  -14.5549   20.6731 O   0  0  0  0  0  0
  -24.6213  -31.8663   23.2102 C   0  0  0  0  0  0
  -25.9086  -32.4816   23.8396 C   0  0  1  0  0  0
  -27.2178  -27.3782   20.0930 C   0  0  0  0  0  0
  -25.5924  -33.8615   24.2325 N   0  0  0  0  0  0
  -23.4104  -30.4950   21.5529 C   0  0  2  0  0  0
  -24.8519  -28.9667   20.1126 C   0  0  0  0  0  0
  -22.7447  -29.4657   22.4972 C   0  0  0  0  0  0
  -18.0281  -28.1376   22.8496 C   0  0  0  0  0  0
  -24.1490  -36.7320   23.2635 C   0  0  0  0  0  0
  -25.9484  -30.8155   21.3729 C   0  0  0  0  0  0
  -26.0207  -29.4485   20.7151 C   0  0  0  0  0  0
  -27.2056  -28.6628   20.7037 C   0  0  0  0  0  0
  -26.0199  -26.9439   19.4684 C   0  0  0  0  0  0
  -24.8500  -27.7162   19.4850 C   0  0  0  0  0  0
  -23.6192  -29.8393   20.1648 C   0  0  0  0  0  0
  -25.4112  -36.3113   24.0334 C   0  0  1  0  0  0
  -20.5880  -28.3675   23.1301 C   0  0  2  0  0  0
  -20.6775  -26.9406   22.5412 C   0  0  0  0  0  0
  -19.5746  -26.6384   21.5216 C   0  0  0  0  0  0
  -18.1925  -26.7923   22.1630 C   0  0  0  0  0  0
  -19.1533  -28.8842   23.2899 C   0  0  0  0  0  0
  -18.9455  -30.1446   23.8910 C   0  0  0  0  0  0
  -17.6456  -30.6581   24.0564 C   0  0  0  0  0  0
  -25.9041  -34.9477   23.5127 C   0  0  0  0  0  0
  -16.5350  -29.9081   23.6324 C   0  0  0  0  0  0
  -16.7270  -28.6499   23.0347 C   0  0  0  0  0  0
  -26.4480  -31.6597   25.0737 C   0  0  0  0  0  0
  -25.3726  -31.3721   26.1470 C   0  0  0  0  0  0
  -27.0301  -30.3027   24.6140 C   0  0  0  0  0  0
  -27.6049  -32.4311   25.7507 C   0  0  0  0  0  0
  -27.5584  -37.1819   24.8462 C   0  0  0  0  0  0
  -21.4169  -29.3047   22.3710 N   0  0  0  0  0  0
  -26.4301  -37.3797   23.9400 N   0  0  0  0  0  0
  -24.6789  -31.0728   22.1026 N   0  0  0  0  0  0
  -23.4203  -28.8180   23.3010 O   0  0  0  0  0  0
  -28.3552  -26.5663   20.1309 O   0  0  0  0  0  0
  -26.5600  -34.8929   22.4685 O   0  0  0  0  0  0
  -23.5390  -32.1429   23.7467 O   0  0  0  0  0  0
  -28.8263  -20.6669   20.8198 C   0  0  0  0  0  0
  -29.6098  -19.5367   20.9696 C   0  0  0  0  0  0
  -30.8595  -21.3754   21.3239 C   0  0  0  0  0  0
  -32.0575  -22.2006   21.6691 C   0  0  0  0  0  0
  -30.6914  -24.8589   19.8820 C   0  0  0  0  0  0
  -29.3318  -23.2417   18.5634 C   0  0  0  0  0  0
  -29.2418  -18.0514   20.9113 C   0  0  0  0  0  0
  -29.1334  -23.2144   21.1077 C   0  0  0  0  0  0
  -30.4077  -17.0091   20.9696 C   0  0  0  0  0  0
  -28.1874  -25.1951   19.6649 C   0  0  0  0  0  0
  -29.3370  -24.1279   19.8327 C   0  0  0  0  0  0
  -29.6048  -21.7860   21.0566 N   0  0  0  0  0  0
  -30.8587  -20.0330   21.2618 N   0  3  0  0  0  0
  -29.9650  -15.5872   20.9688 N   0  0  0  0  0  0
  -31.4715  -12.4338   19.1405 H   0  0  0  0  0  0
  -30.3313  -11.3311   19.8581 H   0  0  0  0  0  0
  -29.7508  -11.7652   17.4496 H   0  0  0  0  0  0
  -29.6644  -13.4800   17.7598 H   0  0  0  0  0  0
  -27.8337  -11.3077   18.8323 H   0  0  0  0  0  0
  -27.3722  -12.6237   17.7872 H   0  0  0  0  0  0
  -27.6890  -14.2586   19.5520 H   0  0  0  0  0  0
  -28.6810  -12.0115   21.3693 H   0  0  0  0  0  0
  -28.4632  -13.6661   21.8529 H   0  0  0  0  0  0
  -25.2754   -9.5692   22.4748 H   0  0  0  0  0  0
  -24.0023   -7.4628   22.7460 H   0  0  0  0  0  0
  -21.0844   -8.8757   19.8933 H   0  0  0  0  0  0
  -22.3687  -10.9669   19.6174 H   0  0  0  0  0  0
  -21.1984   -7.6139   23.9717 H   0  0  0  0  0  0
  -21.1502   -6.0514   25.9078 H   0  0  0  0  0  0
  -22.0590   -2.7613   23.2837 H   0  0  0  0  0  0
  -22.4081  -11.9902   22.4836 H   0  0  0  0  0  0
  -21.1074  -13.1235   22.2603 H   0  0  0  0  0  0
  -24.6537  -15.8409   20.5023 H   0  0  0  0  0  0
  -26.2694  -15.6229   20.0570 H   0  0  0  0  0  0
  -26.7161  -32.5505   23.1155 H   0  0  0  0  0  0
  -25.0075  -33.9768   25.0472 H   0  0  0  0  0  0
  -22.7022  -31.3148   21.4179 H   0  0  0  0  0  0
  -23.3748  -35.9658   23.3303 H   0  0  0  0  0  0
  -24.3587  -36.8929   22.2049 H   0  0  0  0  0  0
  -23.7248  -37.6531   23.6642 H   0  0  0  0  0  0
  -26.0707  -31.5810   20.6052 H   0  0  0  0  0  0
  -26.8339  -30.8639   21.9951 H   0  0  0  0  0  0
  -28.1038  -29.0291   21.1813 H   0  0  0  0  0  0
  -25.9353  -25.9981   18.9565 H   0  0  0  0  0  0
  -23.9549  -27.3426   19.0067 H   0  0  0  0  0  0
  -23.7348  -30.6190   19.4110 H   0  0  0  0  0  0
  -22.7402  -29.2666   19.8629 H   0  0  0  0  0  0
  -25.1289  -36.1982   25.0829 H   0  0  0  0  0  0
  -20.9977  -28.3240   24.1419 H   0  0  0  0  0  0
  -20.5685  -26.2279   23.3604 H   0  0  0  0  0  0
  -21.6640  -26.7444   22.1196 H   0  0  0  0  0  0
  -19.6905  -25.6298   21.1234 H   0  0  0  0  0  0
  -19.6679  -27.3205   20.6754 H   0  0  0  0  0  0
  -17.4195  -26.6677   21.4029 H   0  0  0  0  0  0
  -18.0323  -26.0059   22.9020 H   0  0  0  0  0  0
  -19.7927  -30.7261   24.2286 H   0  0  0  0  0  0
  -17.5005  -31.6260   24.5164 H   0  0  0  0  0  0
  -15.5347  -30.2985   23.7636 H   0  0  0  0  0  0
  -15.8672  -28.0821   22.7051 H   0  0  0  0  0  0
  -24.5906  -30.7059   25.7807 H   0  0  0  0  0  0
  -24.8905  -32.2882   26.4894 H   0  0  0  0  0  0
  -25.8060  -30.8908   27.0245 H   0  0  0  0  0  0
  -26.2853  -29.6809   24.1158 H   0  0  0  0  0  0
  -27.4009  -29.7249   25.4616 H   0  0  0  0  0  0
  -27.8721  -30.4326   23.9338 H   0  0  0  0  0  0
  -27.2669  -33.3606   26.2101 H   0  0  0  0  0  0
  -28.3856  -32.6876   25.0335 H   0  0  0  0  0  0
  -28.0716  -31.8421   26.5412 H   0  0  0  0  0  0
  -28.2610  -38.0110   24.7506 H   0  0  0  0  0  0
  -28.1074  -36.2642   24.6295 H   0  0  0  0  0  0
  -27.2301  -37.1481   25.8866 H   0  0  0  0  0  0
  -20.9328  -29.8796   21.6957 H   0  0  0  0  0  0
  -26.0193  -38.2880   24.1384 H   0  0  0  0  0  0
  -27.7693  -20.7490   20.6013 H   0  0  0  0  0  0
  -32.6929  -22.2733   20.7868 H   0  0  0  0  0  0
  -32.5966  -21.7031   22.4748 H   0  0  0  0  0  0
  -31.7555  -23.1924   22.0000 H   0  0  0  0  0  0
  -31.5280  -24.1691   19.7876 H   0  0  0  0  0  0
  -30.8137  -25.4108   20.8152 H   0  0  0  0  0  0
  -30.7790  -25.5772   19.0656 H   0  0  0  0  0  0
  -30.1407  -22.5099   18.5655 H   0  0  0  0  0  0
  -29.4572  -23.8350   17.6568 H   0  0  0  0  0  0
  -28.3929  -22.6950   18.4644 H   0  0  0  0  0  0
  -28.6677  -17.8870   19.9989 H   0  0  0  0  0  0
  -28.5538  -17.8561   21.7339 H   0  0  0  0  0  0
  -28.0697  -23.1438   21.3334 H   0  0  0  0  0  0
  -29.5560  -23.6900   21.9935 H   0  0  0  0  0  0
  -30.9980  -17.1714   21.8715 H   0  0  0  0  0  0
  -31.0754  -17.1819   20.1233 H   0  0  0  0  0  0
  -27.2859  -24.7694   20.1073 H   0  0  0  0  0  0
  -27.9791  -25.2880   18.5978 H   0  0  0  0  0  0
  -31.6819  -19.4696   21.4420 H   0  0  0  0  0  0
  -29.0223  -15.3902   21.2693 H   0  0  0  0  0  0
  1 25  1  0  0  0
  1 30  2  0  0  0
  1 84  1  0  0  0
  2  3  1  0  0  0
  2 25  1  0  0  0
  2 85  1  0  0  0
  2 86  1  0  0  0
  3  4  1  0  0  0
  3 87  1  0  0  0
  3 88  1  0  0  0
  4  5  1  0  0  0
  4 89  1  0  0  0
  4 90  1  0  0  0
  5  6  1  0  0  0
  5 26  1  0  0  0
  5 91  1  0  0  0
  6 25  1  0  0  0
  6 92  1  0  0  0
  6 93  1  0  0  0
  7  8  2  0  0  0
  7 26  1  0  0  0
  7 29  1  0  0  0
  8  9  1  0  0  0
  8 22  1  0  0  0
  9 10  1  0  0  0
  9 27  2  0  0  0
 10 11  2  0  0  0
 10 15  1  0  0  0
 11 12  1  0  0  0
 11 94  1  0  0  0
 12 13  2  0  0  0
 12 95  1  0  0  0
 13 14  1  0  0  0
 13 31  1  0  0  0
 14 15  2  0  0  0
 14 96  1  0  0  0
 15 97  1  0  0  0
 16 17  2  0  0  0
 16 21  1  0  0  0
 16 31  1  0  0  0
 17 18  1  0  0  0
 17 98  1  0  0  0
 18 19  2  0  0  0
 18 99  1  0  0  0
 19 20  1  0  0  0
 19 24  1  0  0  0
 20 21  2  0  0  0
 20100  1  0  0  0
 21 23  1  0  0  0
 22 28  1  0  0  0
 22 32  2  0  0  0
 26 27  1  0  0  0
 28101  1  0  0  0
 28102  1  0  0  0
 29103  1  0  0  0
 29104  1  0  0  0
 33 34  1  0  0  0
 33 66  1  0  0  0
 33 70  2  0  0  0
 34 36  1  0  0  0
 34 59  1  0  0  0
 34105  1  0  0  0
 35 44  2  0  0  0
 35 45  1  0  0  0
 35 68  1  0  0  0
 36 56  1  0  0  0
 36106  1  0  0  0
 37 39  1  0  0  0
 37 47  1  0  0  0
 37 66  1  0  0  0
 37107  1  0  0  0
 38 43  2  0  0  0
 38 46  1  0  0  0
 38 47  1  0  0  0
 39 64  1  0  0  0
 39 67  2  0  0  0
 40 52  1  0  0  0
 40 53  2  0  0  0
 40 58  1  0  0  0
 41108  1  0  0  0
 41109  1  0  0  0
 41110  1  0  0  0
 41 48  1  0  0  0
 42 43  1  0  0  0
 42 66  1  0  0  0
 42111  1  0  0  0
 42112  1  0  0  0
 43 44  1  0  0  0
 44113  1  0  0  0
 45 46  2  0  0  0
 45114  1  0  0  0
 46115  1  0  0  0
 47116  1  0  0  0
 47117  1  0  0  0
 48 56  1  0  0  0
 48 65  1  0  0  0
 48118  1  0  0  0
 49 50  1  0  0  0
 49 53  1  0  0  0
 49 64  1  0  0  0
 49119  1  0  0  0
 50 51  1  0  0  0
 50120  1  0  0  0
 50121  1  0  0  0
 51 52  1  0  0  0
 51122  1  0  0  0
 51123  1  0  0  0
 52124  1  0  0  0
 52125  1  0  0  0
 53 54  1  0  0  0
 54 55  2  0  0  0
 54126  1  0  0  0
 55 57  1  0  0  0
 55127  1  0  0  0
 56 69  2  0  0  0
 57 58  2  0  0  0
 57128  1  0  0  0
 58129  1  0  0  0
 59 60  1  0  0  0
 59 61  1  0  0  0
 59 62  1  0  0  0
 60130  1  0  0  0
 60131  1  0  0  0
 60132  1  0  0  0
 61133  1  0  0  0
 61134  1  0  0  0
 61135  1  0  0  0
 62136  1  0  0  0
 62137  1  0  0  0
 62138  1  0  0  0
 63 65  1  0  0  0
 63139  1  0  0  0
 63140  1  0  0  0
 63141  1  0  0  0
 64142  1  0  0  0
 65143  1  0  0  0
 68 80  1  0  0  0
 71 72  2  0  0  0
 71 82  1  0  0  0
 71144  1  0  0  0
 72 77  1  0  0  0
 72 83  1  0  0  0
 73 74  1  0  0  0
 73 82  1  0  0  0
 73 83  2  0  0  0
 74145  1  0  0  0
 74146  1  0  0  0
 74147  1  0  0  0
 75148  1  0  0  0
 75149  1  0  0  0
 75150  1  0  0  0
 75 81  1  0  0  0
 76 81  1  0  0  0
 76151  1  0  0  0
 76152  1  0  0  0
 76153  1  0  0  0
 77 79  1  0  0  0
 77154  1  0  0  0
 77155  1  0  0  0
 78 81  1  0  0  0
 78 82  1  0  0  0
 78156  1  0  0  0
 78157  1  0  0  0
 79 84  1  0  0  0
 79158  1  0  0  0
 79159  1  0  0  0
 80 81  1  0  0  0
 80160  1  0  0  0
 80161  1  0  0  0
 83162  1  0  0  0
 84163  1  0  0  0
M  CHG  1  83   1
M  ISO  4   1 100  68 101  80 101  84 100
M  END
> <chiral flag>
0

> <version>
0

> <s_m_source_file>
/data/baiqing/PycharmProjects/Reinvent-master-3.2/result/LINK_invent/BTK/process_docking_weight1_custom_sum_contain_oxygen_bond_distance_aromatic_linkinvent_7_9_3/rearranged_h_0056.sdf

> <i_m_source_file_index>
71

> <r_mmod_Potential_Energy-OPLS-2005>
-66.8414459228516

> <r_mmod_Stretch_Energy-OPLS-2005>
53.7560501098633

> <r_mmod_Bend_Energy-OPLS-2005>
121.334976196289

> <r_mmod_Torsional_Energy-OPLS-2005>
223.486038208008

> <r_mmod_Improper_Torsional_Energy-OPLS-2005>
4.35923051834106

> <r_mmod_Van_der_Waal_Energy-OPLS-2005>
139.06071472168

> <r_mmod_Electrostatic_Energy-OPLS-2005>
-211.720672607422

> <r_mmod_Solvation_Energy-OPLS-2005>
-421.890258789062

> <b_mmod_Minimization_Converged-OPLS-2005>
0

> <r_mmod_RMS_Derivative-OPLS-2005>
1.373082280159

$$$$
73
                    3D
 Structure written by MMmdl.
153161  0  0  1  0            999 V2000
  -30.5194  -15.0408   20.3586 C   0  0  0  0  0  0
  -30.4374  -12.6473   19.4759 C   0  0  0  0  0  0
  -29.5422  -12.5979   18.2185 C   0  0  0  0  0  0
  -28.0532  -12.4151   18.6008 C   0  0  0  0  0  0
  -27.6327  -13.2783   19.8251 C   0  0  2  0  0  0
  -28.6856  -13.3136   20.9489 C   0  0  0  0  0  0
  -25.2520  -13.8252   20.5656 C   0  0  0  0  0  0
  -24.1875  -13.0419   20.9197 C   0  0  0  0  0  0
  -24.6550  -11.6899   20.8704 C   0  0  0  0  0  0
  -23.9205  -10.4291   21.0355 C   0  0  0  0  0  0
  -24.3726   -9.4226   21.9159 C   0  0  0  0  0  0
  -23.6403   -8.2261   22.0769 C   0  0  0  0  0  0
  -22.4376   -8.0309   21.3543 C   0  0  0  0  0  0
  -21.9998   -9.0278   20.4614 C   0  0  0  0  0  0
  -22.7354  -10.2156   20.3017 C   0  0  0  0  0  0
  -21.6900   -6.0755   22.5302 C   0  0  0  0  0  0
  -21.4033   -6.5663   23.8226 C   0  0  0  0  0  0
  -21.3660   -5.6807   24.9197 C   0  0  0  0  0  0
  -21.6054   -4.3072   24.7223 C   0  0  0  0  0  0
  -21.8787   -3.8154   23.4341 C   0  0  0  0  0  0
  -21.9220   -4.6981   22.3408 C   0  0  0  0  0  0
  -22.7900  -13.5190   21.1830 C   0  0  0  0  0  0
  -22.1667   -4.2150   21.0988 F   0  0  0  0  0  0
  -21.5637   -3.4549   25.7733 F   0  0  0  0  0  0
  -29.9371  -13.7653   20.3239 N   0  0  0  0  0  0
  -26.2958  -12.9533   20.3122 N   0  0  0  0  0  0
  -25.9489  -11.6608   20.5616 N   0  0  0  0  0  0
  -22.0498  -12.8199   22.0343 N   0  0  0  0  0  0
  -25.4026  -15.2010   20.4167 N   0  0  0  0  0  0
  -31.7456  -15.0808   20.2071 O   0  0  0  0  0  0
  -21.6697   -6.8929   21.4275 O   0  0  0  0  0  0
  -22.3586  -14.5513   20.6681 O   0  0  0  0  0  0
  -24.6503  -31.8389   23.1781 C   0  0  0  0  0  0
  -25.9260  -32.4643   23.8225 C   0  0  1  0  0  0
  -27.2310  -27.0823   20.0991 C   0  0  0  0  0  0
  -25.6000  -33.8457   24.2134 N   0  0  0  0  0  0
  -23.4569  -30.4518   21.5284 C   0  0  2  0  0  0
  -24.9024  -28.8638   20.0989 C   0  0  0  0  0  0
  -22.7616  -29.4508   22.4860 C   0  0  0  0  0  0
  -18.0297  -28.1380   22.8481 C   0  0  0  0  0  0
  -24.1475  -36.7210   23.2642 C   0  0  0  0  0  0
  -26.0170  -30.6827   21.3865 C   0  0  0  0  0  0
  -26.0819  -29.2892   20.7218 C   0  0  0  0  0  0
  -27.2391  -28.4131   20.7071 C   0  0  0  0  0  0
  -26.0197  -26.7695   19.4444 C   0  0  0  0  0  0
  -24.8865  -27.6167   19.4506 C   0  0  0  0  0  0
  -23.6827  -29.7747   20.1493 C   0  0  0  0  0  0
  -25.4117  -36.2994   24.0293 C   0  0  1  0  0  0
  -20.5923  -28.3703   23.1212 C   0  0  2  0  0  0
  -20.6775  -26.9412   22.5402 C   0  0  0  0  0  0
  -19.5761  -26.6351   21.5211 C   0  0  0  0  0  0
  -18.1927  -26.7925   22.1611 C   0  0  0  0  0  0
  -19.1563  -28.8866   23.2822 C   0  0  0  0  0  0
  -18.9480  -30.1456   23.8845 C   0  0  0  0  0  0
  -17.6486  -30.6581   24.0557 C   0  0  0  0  0  0
  -25.9094  -34.9369   23.5022 C   0  0  0  0  0  0
  -16.5364  -29.9071   23.6351 C   0  0  0  0  0  0
  -16.7291  -28.6480   23.0385 C   0  0  0  0  0  0
  -26.4565  -31.6548   25.0704 C   0  0  0  0  0  0
  -25.3716  -31.3759   26.1390 C   0  0  0  0  0  0
  -27.0474  -30.2952   24.6310 C   0  0  0  0  0  0
  -27.6078  -32.4338   25.7536 C   0  0  0  0  0  0
  -27.5554  -37.1762   24.8451 C   0  0  0  0  0  0
  -21.4292  -29.3013   22.3595 N   0  0  0  0  0  0
  -26.4264  -37.3721   23.9417 N   0  0  0  0  0  0
  -24.7306  -31.0141   22.0856 N   0  0  0  0  0  0
  -23.4232  -28.8079   23.3063 O   0  0  0  0  0  0
  -28.2857  -26.0820   20.1880 O   0  0  0  0  0  0
  -26.5683  -34.8905   22.4602 O   0  0  0  0  0  0
  -23.5607  -32.1347   23.6917 O   0  0  0  0  0  0
  -27.7088  -21.7815   21.7969 C   0  0  0  0  0  0
  -28.4647  -23.1228   20.1612 C   0  0  0  0  0  0
  -28.9754  -20.7191   20.2590 C   0  0  0  0  0  0
  -30.5302  -19.4166   18.6373 C   0  0  0  0  0  0
  -28.1770  -18.6804   18.8456 C   0  0  0  0  0  0
  -28.3988  -24.6631   19.4785 C   0  0  0  0  0  0
  -29.9463  -17.8385   20.5780 C   0  0  0  0  0  0
  -29.3873  -19.1884   19.6422 C   0  0  0  0  0  0
  -27.7768  -23.0121   21.2892 N   0  0  0  0  0  0
  -28.2496  -20.6404   21.3636 N   0  0  0  0  0  0
  -29.0558  -21.9654   19.5926 N   0  0  0  0  0  0
  -29.7292  -16.2460   20.3506 N   0  0  0  0  0  0
  -31.4861  -12.7798   19.2014 H   0  0  0  0  0  0
  -30.3897  -11.6958   20.0052 H   0  0  0  0  0  0
  -29.8696  -11.7956   17.5553 H   0  0  0  0  0  0
  -29.6641  -13.5217   17.6463 H   0  0  0  0  0  0
  -27.8806  -11.3578   18.7960 H   0  0  0  0  0  0
  -27.4314  -12.6761   17.7411 H   0  0  0  0  0  0
  -27.5825  -14.2973   19.4433 H   0  0  0  0  0  0
  -28.7941  -12.3323   21.4142 H   0  0  0  0  0  0
  -28.3877  -13.9888   21.7492 H   0  0  0  0  0  0
  -25.2844   -9.5749   22.4738 H   0  0  0  0  0  0
  -24.0089   -7.4694   22.7541 H   0  0  0  0  0  0
  -21.0883   -8.8830   19.8958 H   0  0  0  0  0  0
  -22.3799  -10.9711   19.6134 H   0  0  0  0  0  0
  -21.2006   -7.6152   23.9745 H   0  0  0  0  0  0
  -21.1528   -6.0525   25.9113 H   0  0  0  0  0  0
  -22.0560   -2.7605   23.2845 H   0  0  0  0  0  0
  -22.4144  -11.9918   22.4829 H   0  0  0  0  0  0
  -21.1076  -13.1200   22.2394 H   0  0  0  0  0  0
  -24.6041  -15.8197   20.5362 H   0  0  0  0  0  0
  -26.2133  -15.6654   20.0312 H   0  0  0  0  0  0
  -26.7323  -32.5201   23.0954 H   0  0  0  0  0  0
  -25.0190  -33.9572   25.0322 H   0  0  0  0  0  0
  -22.7602  -31.2778   21.3677 H   0  0  0  0  0  0
  -23.3756  -35.9521   23.3254 H   0  0  0  0  0  0
  -24.3572  -36.8902   22.2068 H   0  0  0  0  0  0
  -23.7195  -37.6366   23.6735 H   0  0  0  0  0  0
  -26.1824  -31.4317   20.6116 H   0  0  0  0  0  0
  -26.8876  -30.7355   22.0292 H   0  0  0  0  0  0
  -28.1393  -28.7380   21.2096 H   0  0  0  0  0  0
  -25.9089  -25.8190   18.9432 H   0  0  0  0  0  0
  -23.9854  -27.2884   18.9473 H   0  0  0  0  0  0
  -23.8112  -30.5502   19.3943 H   0  0  0  0  0  0
  -22.7971  -29.2145   19.8451 H   0  0  0  0  0  0
  -25.1302  -36.1799   25.0780 H   0  0  0  0  0  0
  -20.9997  -28.3270   24.1343 H   0  0  0  0  0  0
  -20.5596  -26.2362   23.3634 H   0  0  0  0  0  0
  -21.6640  -26.7357   22.1245 H   0  0  0  0  0  0
  -19.6923  -25.6246   21.1264 H   0  0  0  0  0  0
  -19.6679  -27.3132   20.6709 H   0  0  0  0  0  0
  -17.4217  -26.6676   21.3992 H   0  0  0  0  0  0
  -18.0293  -26.0062   22.8990 H   0  0  0  0  0  0
  -19.7957  -30.7282   24.2182 H   0  0  0  0  0  0
  -17.5040  -31.6255   24.5168 H   0  0  0  0  0  0
  -15.5373  -30.2967   23.7678 H   0  0  0  0  0  0
  -15.8690  -28.0775   22.7154 H   0  0  0  0  0  0
  -24.5903  -30.7118   25.7686 H   0  0  0  0  0  0
  -24.8922  -32.2953   26.4760 H   0  0  0  0  0  0
  -25.7984  -30.8958   27.0210 H   0  0  0  0  0  0
  -26.3124  -29.6658   24.1289 H   0  0  0  0  0  0
  -27.4085  -29.7268   25.4889 H   0  0  0  0  0  0
  -27.9028  -30.4222   23.9675 H   0  0  0  0  0  0
  -27.2678  -33.3699   26.1998 H   0  0  0  0  0  0
  -28.4000  -32.6789   25.0442 H   0  0  0  0  0  0
  -28.0656  -31.8539   26.5568 H   0  0  0  0  0  0
  -28.2508  -38.0112   24.7553 H   0  0  0  0  0  0
  -28.1100  -36.2636   24.6202 H   0  0  0  0  0  0
  -27.2298  -37.1328   25.8858 H   0  0  0  0  0  0
  -20.9528  -29.8756   21.6775 H   0  0  0  0  0  0
  -26.0084  -38.2765   24.1474 H   0  0  0  0  0  0
  -27.0988  -21.6973   22.6857 H   0  0  0  0  0  0
  -30.3056  -20.2206   17.9364 H   0  0  0  0  0  0
  -30.7247  -18.5216   18.0463 H   0  0  0  0  0  0
  -31.4552  -19.6798   19.1442 H   0  0  0  0  0  0
  -27.8641  -19.4198   18.1074 H   0  0  0  0  0  0
  -27.3321  -18.4910   19.5075 H   0  0  0  0  0  0
  -28.4086  -17.7601   18.3056 H   0  0  0  0  0  0
  -27.6838  -24.6107   18.6600 H   0  0  0  0  0  0
  -29.3577  -24.7400   18.9590 H   0  0  0  0  0  0
  -29.5048  -17.9947   21.5635 H   0  0  0  0  0  0
  -31.0133  -17.9891   20.7600 H   0  0  0  0  0  0
  -28.7498  -16.0054   20.3757 H   0  0  0  0  0  0
  1 25  1  0  0  0
  1 30  2  0  0  0
  1 82  1  0  0  0
  2  3  1  0  0  0
  2 25  1  0  0  0
  2 83  1  0  0  0
  2 84  1  0  0  0
  3  4  1  0  0  0
  3 85  1  0  0  0
  3 86  1  0  0  0
  4  5  1  0  0  0
  4 87  1  0  0  0
  4 88  1  0  0  0
  5  6  1  0  0  0
  5 26  1  0  0  0
  5 89  1  0  0  0
  6 25  1  0  0  0
  6 90  1  0  0  0
  6 91  1  0  0  0
  7  8  2  0  0  0
  7 26  1  0  0  0
  7 29  1  0  0  0
  8  9  1  0  0  0
  8 22  1  0  0  0
  9 10  1  0  0  0
  9 27  2  0  0  0
 10 11  2  0  0  0
 10 15  1  0  0  0
 11 12  1  0  0  0
 11 92  1  0  0  0
 12 13  2  0  0  0
 12 93  1  0  0  0
 13 14  1  0  0  0
 13 31  1  0  0  0
 14 15  2  0  0  0
 14 94  1  0  0  0
 15 95  1  0  0  0
 16 17  2  0  0  0
 16 21  1  0  0  0
 16 31  1  0  0  0
 17 18  1  0  0  0
 17 96  1  0  0  0
 18 19  2  0  0  0
 18 97  1  0  0  0
 19 20  1  0  0  0
 19 24  1  0  0  0
 20 21  2  0  0  0
 20 98  1  0  0  0
 21 23  1  0  0  0
 22 28  1  0  0  0
 22 32  2  0  0  0
 26 27  1  0  0  0
 28 99  1  0  0  0
 28100  1  0  0  0
 29101  1  0  0  0
 29102  1  0  0  0
 33 34  1  0  0  0
 33 66  1  0  0  0
 33 70  2  0  0  0
 34 36  1  0  0  0
 34 59  1  0  0  0
 34103  1  0  0  0
 35 44  2  0  0  0
 35 45  1  0  0  0
 35 68  1  0  0  0
 36 56  1  0  0  0
 36104  1  0  0  0
 37 39  1  0  0  0
 37 47  1  0  0  0
 37 66  1  0  0  0
 37105  1  0  0  0
 38 43  2  0  0  0
 38 46  1  0  0  0
 38 47  1  0  0  0
 39 64  1  0  0  0
 39 67  2  0  0  0
 40 52  1  0  0  0
 40 53  2  0  0  0
 40 58  1  0  0  0
 41106  1  0  0  0
 41107  1  0  0  0
 41108  1  0  0  0
 41 48  1  0  0  0
 42 43  1  0  0  0
 42 66  1  0  0  0
 42109  1  0  0  0
 42110  1  0  0  0
 43 44  1  0  0  0
 44111  1  0  0  0
 45 46  2  0  0  0
 45112  1  0  0  0
 46113  1  0  0  0
 47114  1  0  0  0
 47115  1  0  0  0
 48 56  1  0  0  0
 48 65  1  0  0  0
 48116  1  0  0  0
 49 50  1  0  0  0
 49 53  1  0  0  0
 49 64  1  0  0  0
 49117  1  0  0  0
 50 51  1  0  0  0
 50118  1  0  0  0
 50119  1  0  0  0
 51 52  1  0  0  0
 51120  1  0  0  0
 51121  1  0  0  0
 52122  1  0  0  0
 52123  1  0  0  0
 53 54  1  0  0  0
 54 55  2  0  0  0
 54124  1  0  0  0
 55 57  1  0  0  0
 55125  1  0  0  0
 56 69  2  0  0  0
 57 58  2  0  0  0
 57126  1  0  0  0
 58127  1  0  0  0
 59 60  1  0  0  0
 59 61  1  0  0  0
 59 62  1  0  0  0
 60128  1  0  0  0
 60129  1  0  0  0
 60130  1  0  0  0
 61131  1  0  0  0
 61132  1  0  0  0
 61133  1  0  0  0
 62134  1  0  0  0
 62135  1  0  0  0
 62136  1  0  0  0
 63 65  1  0  0  0
 63137  1  0  0  0
 63138  1  0  0  0
 63139  1  0  0  0
 64140  1  0  0  0
 65141  1  0  0  0
 68 76  1  0  0  0
 71 79  2  0  0  0
 71 80  1  0  0  0
 71142  1  0  0  0
 72 76  1  0  0  0
 72 79  1  0  0  0
 72 81  2  0  0  0
 73 78  1  0  0  0
 73 80  2  0  0  0
 73 81  1  0  0  0
 74143  1  0  0  0
 74144  1  0  0  0
 74145  1  0  0  0
 74 78  1  0  0  0
 75 78  1  0  0  0
 75146  1  0  0  0
 75147  1  0  0  0
 75148  1  0  0  0
 76149  1  0  0  0
 76150  1  0  0  0
 77 78  1  0  0  0
 77 82  1  0  0  0
 77151  1  0  0  0
 77152  1  0  0  0
 82153  1  0  0  0
M  ISO  4   1 100  68 101  76 101  82 100
M  END
> <chiral flag>
0

> <version>
0

> <s_m_source_file>
/data/baiqing/PycharmProjects/Reinvent-master-3.2/result/LINK_invent/BTK/process_docking_weight1_custom_sum_contain_oxygen_bond_distance_aromatic_linkinvent_7_9_3/rearranged_h_0056.sdf

> <i_m_source_file_index>
72

> <r_mmod_Potential_Energy-OPLS-2005>
85.2477035522461

> <r_mmod_Stretch_Energy-OPLS-2005>
358.169189453125

> <r_mmod_Bend_Energy-OPLS-2005>
337.568695068359

> <r_mmod_Torsional_Energy-OPLS-2005>
220.314422607422

> <r_mmod_Improper_Torsional_Energy-OPLS-2005>
8.12801456451416

> <r_mmod_Van_der_Waal_Energy-OPLS-2005>
139.063674926758

> <r_mmod_Electrostatic_Energy-OPLS-2005>
-990.410034179688

> <r_mmod_Solvation_Energy-OPLS-2005>
-240.982147216797

> <b_mmod_Minimization_Converged-OPLS-2005>
0

> <r_mmod_RMS_Derivative-OPLS-2005>
7.16432094573975

$$$$
74
                    3D
 Structure written by MMmdl.
161169  0  0  1  0            999 V2000
  -30.6154  -14.7572   20.5070 C   0  0  0  0  0  0
  -30.4354  -12.4768   19.4673 C   0  0  0  0  0  0
  -29.5073  -12.5227   18.2317 C   0  0  0  0  0  0
  -28.0379  -12.3294   18.6493 C   0  0  0  0  0  0
  -27.6436  -13.2249   19.8547 C   0  0  2  0  0  0
  -28.6881  -13.1380   20.9877 C   0  0  0  0  0  0
  -25.2509  -13.8204   20.5685 C   0  0  0  0  0  0
  -24.1793  -13.0444   20.9168 C   0  0  0  0  0  0
  -24.6360  -11.6912   20.8694 C   0  0  0  0  0  0
  -23.9025  -10.4297   21.0372 C   0  0  0  0  0  0
  -24.3585   -9.4214   21.9151 C   0  0  0  0  0  0
  -23.6278   -8.2248   22.0749 C   0  0  0  0  0  0
  -22.4265   -8.0269   21.3541 C   0  0  0  0  0  0
  -21.9873   -9.0219   20.4636 C   0  0  0  0  0  0
  -22.7188  -10.2106   20.3029 C   0  0  0  0  0  0
  -21.6864   -6.0714   22.5260 C   0  0  0  0  0  0
  -21.4023   -6.5608   23.8186 C   0  0  0  0  0  0
  -21.3657   -5.6773   24.9145 C   0  0  0  0  0  0
  -21.6059   -4.3038   24.7205 C   0  0  0  0  0  0
  -21.8830   -3.8120   23.4331 C   0  0  0  0  0  0
  -21.9191   -4.6940   22.3388 C   0  0  0  0  0  0
  -22.7810  -13.5205   21.1846 C   0  0  0  0  0  0
  -22.1672   -4.2126   21.0964 F   0  0  0  0  0  0
  -21.5624   -3.4518   25.7721 F   0  0  0  0  0  0
  -29.9861  -13.5282   20.4181 N   0  0  0  0  0  0
  -26.2931  -12.9388   20.3267 N   0  0  0  0  0  0
  -25.9287  -11.6531   20.5696 N   0  0  0  0  0  0
  -22.0471  -12.8204   22.0406 N   0  0  0  0  0  0
  -25.4200  -15.1937   20.4139 N   0  0  0  0  0  0
  -31.7677  -14.8643   20.0749 O   0  0  0  0  0  0
  -21.6658   -6.8852   21.4219 O   0  0  0  0  0  0
  -22.3462  -14.5490   20.6691 O   0  0  0  0  0  0
  -24.6317  -31.8540   23.1959 C   0  0  0  0  0  0
  -25.9135  -32.4756   23.8314 C   0  0  1  0  0  0
  -27.2228  -27.2521   20.1501 C   0  0  0  0  0  0
  -25.5925  -33.8558   24.2243 N   0  0  0  0  0  0
  -23.4305  -30.4749   21.5390 C   0  0  2  0  0  0
  -24.8818  -28.9204   20.1111 C   0  0  0  0  0  0
  -22.7495  -29.4601   22.4892 C   0  0  0  0  0  0
  -18.0292  -28.1390   22.8505 C   0  0  0  0  0  0
  -24.1488  -36.7288   23.2643 C   0  0  0  0  0  0
  -25.9769  -30.7658   21.3784 C   0  0  0  0  0  0
  -26.0522  -29.3870   20.7236 C   0  0  0  0  0  0
  -27.2292  -28.5674   20.7288 C   0  0  0  0  0  0
  -26.0352  -26.8597   19.4962 C   0  0  0  0  0  0
  -24.8797  -27.6651   19.4829 C   0  0  0  0  0  0
  -23.6509  -29.8071   20.1572 C   0  0  0  0  0  0
  -25.4118  -36.3078   24.0328 C   0  0  1  0  0  0
  -20.5900  -28.3712   23.1291 C   0  0  2  0  0  0
  -20.6785  -26.9425   22.5431 C   0  0  0  0  0  0
  -19.5766  -26.6423   21.5214 C   0  0  0  0  0  0
  -18.1950  -26.7937   22.1641 C   0  0  0  0  0  0
  -19.1541  -28.8868   23.2894 C   0  0  0  0  0  0
  -18.9454  -30.1479   23.8892 C   0  0  0  0  0  0
  -17.6445  -30.6596   24.0561 C   0  0  0  0  0  0
  -25.9053  -34.9445   23.5089 C   0  0  0  0  0  0
  -16.5339  -29.9081   23.6341 C   0  0  0  0  0  0
  -16.7277  -28.6500   23.0365 C   0  0  0  0  0  0
  -26.4493  -31.6584   25.0705 C   0  0  0  0  0  0
  -25.3683  -31.3746   26.1401 C   0  0  0  0  0  0
  -27.0364  -30.2997   24.6218 C   0  0  0  0  0  0
  -27.6043  -32.4325   25.7487 C   0  0  0  0  0  0
  -27.5581  -37.1804   24.8464 C   0  0  0  0  0  0
  -21.4198  -29.3066   22.3668 N   0  0  0  0  0  0
  -26.4300  -37.3770   23.9395 N   0  0  0  0  0  0
  -24.6988  -31.0496   22.0940 N   0  0  0  0  0  0
  -23.4198  -28.8135   23.2995 O   0  0  0  0  0  0
  -28.3070  -26.3421   20.1881 O   0  0  0  0  0  0
  -26.5642  -34.8926   22.4668 O   0  0  0  0  0  0
  -23.5465  -32.1377   23.7241 O   0  0  0  0  0  0
  -29.2469  -20.7938   20.6811 C   0  0  0  0  0  0
  -29.7534  -18.6501   20.4213 C   0  0  0  0  0  0
  -24.9185  -19.6664   19.3057 C   0  0  0  0  0  0
  -29.5113  -16.1848   22.1957 C   0  0  0  0  0  0
  -28.5353  -22.2019   20.9373 C   0  0  0  0  0  0
  -29.7782  -17.1446   19.8919 C   0  0  0  0  0  0
  -26.2519  -20.1974   19.8440 C   0  0  0  0  0  0
  -28.8946  -23.6130   20.2127 C   0  0  0  0  0  0
  -27.3837  -19.1607   19.7896 C   0  0  0  0  0  0
  -28.0467  -24.9301   20.6605 C   0  0  0  0  0  0
  -30.5277  -20.6187   21.0424 N   0  0  0  0  0  0
  -30.8451  -19.2707   20.8855 N   0  0  0  0  0  0
  -28.7088  -19.5598   20.2867 N   0  0  0  0  0  0
  -29.8731  -15.9084   20.8037 N   0  0  0  0  0  0
  -31.4713  -12.6124   19.1528 H   0  0  0  0  0  0
  -30.4033  -11.4941   19.9397 H   0  0  0  0  0  0
  -29.7892  -11.7547   17.5095 H   0  0  0  0  0  0
  -29.6233  -13.4793   17.7165 H   0  0  0  0  0  0
  -27.9076  -11.2789   18.9110 H   0  0  0  0  0  0
  -27.3754  -12.5118   17.8020 H   0  0  0  0  0  0
  -27.6471  -14.2524   19.4894 H   0  0  0  0  0  0
  -28.7436  -12.1257   21.3925 H   0  0  0  0  0  0
  -28.3941  -13.7742   21.8193 H   0  0  0  0  0  0
  -25.2727   -9.5712   22.4715 H   0  0  0  0  0  0
  -24.0000   -7.4643   22.7466 H   0  0  0  0  0  0
  -21.0814   -8.8690   19.8940 H   0  0  0  0  0  0
  -22.3615  -10.9618   19.6131 H   0  0  0  0  0  0
  -21.2050   -7.6127   23.9683 H   0  0  0  0  0  0
  -21.1463   -6.0503   25.9050 H   0  0  0  0  0  0
  -22.0625   -2.7582   23.2826 H   0  0  0  0  0  0
  -22.4083  -11.9874   22.4827 H   0  0  0  0  0  0
  -21.1072  -13.1200   22.2600 H   0  0  0  0  0  0
  -24.6455  -15.8401   20.5184 H   0  0  0  0  0  0
  -26.2750  -15.6422   20.1119 H   0  0  0  0  0  0
  -26.7204  -32.5417   23.1063 H   0  0  0  0  0  0
  -25.0040  -33.9678   25.0371 H   0  0  0  0  0  0
  -22.7269  -31.2969   21.3909 H   0  0  0  0  0  0
  -23.3752  -35.9619   23.3308 H   0  0  0  0  0  0
  -24.3573  -36.8900   22.2054 H   0  0  0  0  0  0
  -23.7240  -37.6491   23.6661 H   0  0  0  0  0  0
  -26.1153  -31.5267   20.6089 H   0  0  0  0  0  0
  -26.8551  -30.8167   22.0123 H   0  0  0  0  0  0
  -28.1255  -28.9184   21.2198 H   0  0  0  0  0  0
  -25.9880  -25.9026   18.9966 H   0  0  0  0  0  0
  -23.9899  -27.3043   18.9874 H   0  0  0  0  0  0
  -23.7742  -30.5827   19.4002 H   0  0  0  0  0  0
  -22.7701  -29.2391   19.8521 H   0  0  0  0  0  0
  -25.1301  -36.1934   25.0822 H   0  0  0  0  0  0
  -20.9994  -28.3293   24.1413 H   0  0  0  0  0  0
  -21.6660  -26.7432   22.1260 H   0  0  0  0  0  0
  -20.5638  -26.2320   23.3631 H   0  0  0  0  0  0
  -19.6938  -25.6356   21.1196 H   0  0  0  0  0  0
  -19.6691  -27.3284   20.6784 H   0  0  0  0  0  0
  -17.4213  -26.6691   21.4047 H   0  0  0  0  0  0
  -18.0357  -26.0076   22.9036 H   0  0  0  0  0  0
  -19.7921  -30.7315   24.2227 H   0  0  0  0  0  0
  -17.4987  -31.6293   24.5138 H   0  0  0  0  0  0
  -15.5338  -30.2969   23.7666 H   0  0  0  0  0  0
  -15.8681  -28.0825   22.7068 H   0  0  0  0  0  0
  -24.5868  -30.7096   25.7699 H   0  0  0  0  0  0
  -24.8867  -32.2924   26.4781 H   0  0  0  0  0  0
  -25.7965  -30.8936   27.0201 H   0  0  0  0  0  0
  -26.2973  -29.6722   24.1221 H   0  0  0  0  0  0
  -27.4007  -29.7284   25.4764 H   0  0  0  0  0  0
  -27.8858  -30.4261   23.9504 H   0  0  0  0  0  0
  -27.2647  -33.3624   26.2059 H   0  0  0  0  0  0
  -28.3865  -32.6877   25.0325 H   0  0  0  0  0  0
  -28.0700  -31.8445   26.5404 H   0  0  0  0  0  0
  -28.2608  -38.0094   24.7509 H   0  0  0  0  0  0
  -28.1073  -36.2624   24.6307 H   0  0  0  0  0  0
  -27.2292  -37.1469   25.8867 H   0  0  0  0  0  0
  -20.9363  -29.8762   21.6862 H   0  0  0  0  0  0
  -26.0188  -38.2850   24.1373 H   0  0  0  0  0  0
  -24.1709  -20.4611   19.2931 H   0  0  0  0  0  0
  -24.5277  -18.8583   19.9257 H   0  0  0  0  0  0
  -25.0222  -19.2871   18.2880 H   0  0  0  0  0  0
  -28.4705  -16.4991   22.2666 H   0  0  0  0  0  0
  -30.1352  -16.9816   22.6040 H   0  0  0  0  0  0
  -29.6474  -15.3242   22.8531 H   0  0  0  0  0  0
  -27.4603  -22.1049   20.9115 H   0  0  0  0  0  0
  -28.7156  -22.3912   21.9947 H   0  0  0  0  0  0
  -28.9071  -16.9900   19.2581 H   0  0  0  0  0  0
  -30.6141  -17.0943   19.1924 H   0  0  0  0  0  0
  -26.0906  -20.5100   20.8751 H   0  0  0  0  0  0
  -26.5251  -21.0707   19.2506 H   0  0  0  0  0  0
  -28.7728  -23.4841   19.1380 H   0  0  0  0  0  0
  -29.9535  -23.8154   20.3776 H   0  0  0  0  0  0
  -27.5071  -18.8261   18.7579 H   0  0  0  0  0  0
  -27.0721  -18.2831   20.3598 H   0  0  0  0  0  0
  -28.1313  -24.9866   21.7466 H   0  0  0  0  0  0
  -26.9995  -24.6799   20.5005 H   0  0  0  0  0  0
  1 25  1  0  0  0
  1 30  2  0  0  0
  1 84  1  0  0  0
  2  3  1  0  0  0
  2 25  1  0  0  0
  2 85  1  0  0  0
  2 86  1  0  0  0
  3  4  1  0  0  0
  3 87  1  0  0  0
  3 88  1  0  0  0
  4  5  1  0  0  0
  4 89  1  0  0  0
  4 90  1  0  0  0
  5  6  1  0  0  0
  5 26  1  0  0  0
  5 91  1  0  0  0
  6 25  1  0  0  0
  6 92  1  0  0  0
  6 93  1  0  0  0
  7  8  2  0  0  0
  7 26  1  0  0  0
  7 29  1  0  0  0
  8  9  1  0  0  0
  8 22  1  0  0  0
  9 10  1  0  0  0
  9 27  2  0  0  0
 10 11  2  0  0  0
 10 15  1  0  0  0
 11 12  1  0  0  0
 11 94  1  0  0  0
 12 13  2  0  0  0
 12 95  1  0  0  0
 13 14  1  0  0  0
 13 31  1  0  0  0
 14 15  2  0  0  0
 14 96  1  0  0  0
 15 97  1  0  0  0
 16 17  2  0  0  0
 16 21  1  0  0  0
 16 31  1  0  0  0
 17 18  1  0  0  0
 17 98  1  0  0  0
 18 19  2  0  0  0
 18 99  1  0  0  0
 19 20  1  0  0  0
 19 24  1  0  0  0
 20 21  2  0  0  0
 20100  1  0  0  0
 21 23  1  0  0  0
 22 28  1  0  0  0
 22 32  2  0  0  0
 26 27  1  0  0  0
 28101  1  0  0  0
 28102  1  0  0  0
 29103  1  0  0  0
 29104  1  0  0  0
 33 34  1  0  0  0
 33 66  1  0  0  0
 33 70  2  0  0  0
 34 36  1  0  0  0
 34 59  1  0  0  0
 34105  1  0  0  0
 35 44  2  0  0  0
 35 45  1  0  0  0
 35 68  1  0  0  0
 36 56  1  0  0  0
 36106  1  0  0  0
 37 39  1  0  0  0
 37 47  1  0  0  0
 37 66  1  0  0  0
 37107  1  0  0  0
 38 43  2  0  0  0
 38 46  1  0  0  0
 38 47  1  0  0  0
 39 64  1  0  0  0
 39 67  2  0  0  0
 40 52  1  0  0  0
 40 53  2  0  0  0
 40 58  1  0  0  0
 41108  1  0  0  0
 41109  1  0  0  0
 41110  1  0  0  0
 41 48  1  0  0  0
 42 43  1  0  0  0
 42 66  1  0  0  0
 42111  1  0  0  0
 42112  1  0  0  0
 43 44  1  0  0  0
 44113  1  0  0  0
 45 46  2  0  0  0
 45114  1  0  0  0
 46115  1  0  0  0
 47116  1  0  0  0
 47117  1  0  0  0
 48 56  1  0  0  0
 48 65  1  0  0  0
 48118  1  0  0  0
 49 50  1  0  0  0
 49 53  1  0  0  0
 49 64  1  0  0  0
 49119  1  0  0  0
 50 51  1  0  0  0
 50120  1  0  0  0
 50121  1  0  0  0
 51 52  1  0  0  0
 51122  1  0  0  0
 51123  1  0  0  0
 52124  1  0  0  0
 52125  1  0  0  0
 53 54  1  0  0  0
 54 55  2  0  0  0
 54126  1  0  0  0
 55 57  1  0  0  0
 55127  1  0  0  0
 56 69  2  0  0  0
 57 58  2  0  0  0
 57128  1  0  0  0
 58129  1  0  0  0
 59 60  1  0  0  0
 59 61  1  0  0  0
 59 62  1  0  0  0
 60130  1  0  0  0
 60131  1  0  0  0
 60132  1  0  0  0
 61133  1  0  0  0
 61134  1  0  0  0
 61135  1  0  0  0
 62136  1  0  0  0
 62137  1  0  0  0
 62138  1  0  0  0
 63 65  1  0  0  0
 63139  1  0  0  0
 63140  1  0  0  0
 63141  1  0  0  0
 64142  1  0  0  0
 65143  1  0  0  0
 68 80  1  0  0  0
 71 75  1  0  0  0
 71 81  2  0  0  0
 71 83  1  0  0  0
 72 76  1  0  0  0
 72 82  2  0  0  0
 72 83  1  0  0  0
 73 77  1  0  0  0
 73144  1  0  0  0
 73145  1  0  0  0
 73146  1  0  0  0
 74 84  1  0  0  0
 74147  1  0  0  0
 74148  1  0  0  0
 74149  1  0  0  0
 75 78  1  0  0  0
 75150  1  0  0  0
 75151  1  0  0  0
 76 84  1  0  0  0
 76152  1  0  0  0
 76153  1  0  0  0
 77 79  1  0  0  0
 77154  1  0  0  0
 77155  1  0  0  0
 78 80  1  0  0  0
 78156  1  0  0  0
 78157  1  0  0  0
 79 83  1  0  0  0
 79158  1  0  0  0
 79159  1  0  0  0
 80160  1  0  0  0
 80161  1  0  0  0
 81 82  1  0  0  0
M  ISO  4   1 100  68 101  80 101  84 100
M  END
> <chiral flag>
0

> <version>
0

> <s_m_source_file>
/data/baiqing/PycharmProjects/Reinvent-master-3.2/result/LINK_invent/BTK/process_docking_weight1_custom_sum_contain_oxygen_bond_distance_aromatic_linkinvent_7_9_3/rearranged_h_0056.sdf

> <i_m_source_file_index>
73

> <r_mmod_Potential_Energy-OPLS-2005>
284.276000976562

> <r_mmod_Stretch_Energy-OPLS-2005>
144.705413818359

> <r_mmod_Bend_Energy-OPLS-2005>
218.089141845703

> <r_mmod_Torsional_Energy-OPLS-2005>
293.473205566406

> <r_mmod_Improper_Torsional_Energy-OPLS-2005>
9.60544300079346

> <r_mmod_Van_der_Waal_Energy-OPLS-2005>
115.864814758301

> <r_mmod_Electrostatic_Energy-OPLS-2005>
-352.438171386719

> <r_mmod_Solvation_Energy-OPLS-2005>
-233.209167480469

> <b_mmod_Minimization_Converged-OPLS-2005>
0

> <r_mmod_RMS_Derivative-OPLS-2005>
3.07500100135803

$$$$
75
                    3D
 Structure written by MMmdl.
152160  0  0  1  0            999 V2000
  -30.5012  -15.0950   20.4165 C   0  0  0  0  0  0
  -30.4455  -12.7044   19.4796 C   0  0  0  0  0  0
  -29.5149  -12.5625   18.2492 C   0  0  0  0  0  0
  -28.0569  -12.3051   18.6776 C   0  0  0  0  0  0
  -27.6231  -13.2360   19.8361 C   0  0  2  0  0  0
  -28.6818  -13.2674   20.9591 C   0  0  0  0  0  0
  -25.2381  -13.8117   20.5695 C   0  0  0  0  0  0
  -24.1722  -13.0355   20.9251 C   0  0  0  0  0  0
  -24.6361  -11.6868   20.8760 C   0  0  0  0  0  0
  -23.9048  -10.4258   21.0389 C   0  0  0  0  0  0
  -24.3604   -9.4189   21.9176 C   0  0  0  0  0  0
  -23.6283   -8.2232   22.0752 C   0  0  0  0  0  0
  -22.4264   -8.0276   21.3548 C   0  0  0  0  0  0
  -21.9897   -9.0234   20.4648 C   0  0  0  0  0  0
  -22.7215  -10.2114   20.3043 C   0  0  0  0  0  0
  -21.6844   -6.0741   22.5281 C   0  0  0  0  0  0
  -21.4014   -6.5644   23.8215 C   0  0  0  0  0  0
  -21.3648   -5.6791   24.9173 C   0  0  0  0  0  0
  -21.6050   -4.3058   24.7219 C   0  0  0  0  0  0
  -21.8819   -3.8155   23.4334 C   0  0  0  0  0  0
  -21.9187   -4.6973   22.3394 C   0  0  0  0  0  0
  -22.7757  -13.5148   21.1902 C   0  0  0  0  0  0
  -22.1657   -4.2177   21.0965 F   0  0  0  0  0  0
  -21.5622   -3.4520   25.7711 F   0  0  0  0  0  0
  -29.9118  -13.8074   20.3482 N   0  0  0  0  0  0
  -26.2848  -12.9367   20.3286 N   0  0  0  0  0  0
  -25.9311  -11.6507   20.5789 N   0  0  0  0  0  0
  -22.0413  -12.8155   22.0473 N   0  0  0  0  0  0
  -25.3843  -15.1843   20.4080 N   0  0  0  0  0  0
  -31.7163  -15.1010   20.1763 O   0  0  0  0  0  0
  -21.6634   -6.8875   21.4240 O   0  0  0  0  0  0
  -22.3437  -14.5433   20.6719 O   0  0  0  0  0  0
  -24.6496  -31.8363   23.1824 C   0  0  0  0  0  0
  -25.9245  -32.4654   23.8236 C   0  0  1  0  0  0
  -27.2302  -27.0767   20.1583 C   0  0  0  0  0  0
  -25.5964  -33.8460   24.2154 N   0  0  0  0  0  0
  -23.4574  -30.4529   21.5274 C   0  0  2  0  0  0
  -24.9092  -28.8638   20.1104 C   0  0  0  0  0  0
  -22.7607  -29.4522   22.4834 C   0  0  0  0  0  0
  -18.0309  -28.1399   22.8461 C   0  0  0  0  0  0
  -24.1494  -36.7241   23.2644 C   0  0  0  0  0  0
  -26.0164  -30.6902   21.3891 C   0  0  0  0  0  0
  -26.0881  -29.2950   20.7312 C   0  0  0  0  0  0
  -27.2458  -28.4200   20.7336 C   0  0  0  0  0  0
  -26.0221  -26.7569   19.5001 C   0  0  0  0  0  0
  -24.8928  -27.6099   19.4772 C   0  0  0  0  0  0
  -23.6877  -29.7738   20.1506 C   0  0  0  0  0  0
  -25.4127  -36.3005   24.0312 C   0  0  1  0  0  0
  -20.5927  -28.3735   23.1210 C   0  0  2  0  0  0
  -20.6794  -26.9428   22.5402 C   0  0  0  0  0  0
  -19.5773  -26.6371   21.5211 C   0  0  0  0  0  0
  -18.1952  -26.7936   22.1614 C   0  0  0  0  0  0
  -19.1568  -28.8887   23.2823 C   0  0  0  0  0  0
  -18.9481  -30.1480   23.8854 C   0  0  0  0  0  0
  -17.6475  -30.6590   24.0555 C   0  0  0  0  0  0
  -25.9080  -34.9385   23.5045 C   0  0  0  0  0  0
  -16.5368  -29.9080   23.6338 C   0  0  0  0  0  0
  -16.7291  -28.6502   23.0350 C   0  0  0  0  0  0
  -26.4535  -31.6550   25.0713 C   0  0  0  0  0  0
  -25.3701  -31.3751   26.1396 C   0  0  0  0  0  0
  -27.0422  -30.2940   24.6353 C   0  0  0  0  0  0
  -27.6055  -32.4328   25.7503 C   0  0  0  0  0  0
  -27.5575  -37.1776   24.8461 C   0  0  0  0  0  0
  -21.4296  -29.3048   22.3578 N   0  0  0  0  0  0
  -26.4280  -37.3729   23.9403 N   0  0  0  0  0  0
  -24.7279  -31.0169   22.0878 N   0  0  0  0  0  0
  -23.4208  -28.8079   23.3026 O   0  0  0  0  0  0
  -28.2821  -26.0697   20.2336 O   0  0  0  0  0  0
  -26.5672  -34.8894   22.4626 O   0  0  0  0  0  0
  -23.5602  -32.1258   23.7013 O   0  0  0  0  0  0
  -29.5005  -19.3594   20.1671 C   0  0  0  0  0  0
  -28.3862  -19.7296   19.3193 C   0  0  0  0  0  0
  -28.3758  -16.4550   20.9031 C   0  0  0  0  0  0
  -30.3128  -17.8815   20.3419 C   0  0  0  0  0  0
  -29.1460  -23.2160   20.4269 C   0  0  0  0  0  0
  -28.0659  -24.5048   20.0547 C   0  0  0  0  0  0
  -27.6029  -18.8088   18.4121 C   0  0  0  0  0  0
  -29.8648  -20.5766   20.6824 N   0  0  0  0  0  0
  -28.0910  -21.0405   19.3667 N   0  0  0  0  0  0
  -28.9989  -21.6214   20.1954 N   0  0  0  0  0  0
  -29.7791  -16.3703   20.5037 N   0  0  0  0  0  0
  -28.3009  -17.7237   18.0817 F   0  0  0  0  0  0
  -26.4716  -18.4048   18.9911 F   0  0  0  0  0  0
  -27.2716  -19.4158   17.2717 F   0  0  0  0  0  0
  -31.4616  -12.9094   19.1393 H   0  0  0  0  0  0
  -30.5123  -11.7630   20.0279 H   0  0  0  0  0  0
  -29.8625  -11.7581   17.6017 H   0  0  0  0  0  0
  -29.5603  -13.4756   17.6531 H   0  0  0  0  0  0
  -27.9853  -11.2653   18.9971 H   0  0  0  0  0  0
  -27.3835  -12.4117   17.8263 H   0  0  0  0  0  0
  -27.5698  -14.2203   19.3814 H   0  0  0  0  0  0
  -28.8385  -12.2598   21.3466 H   0  0  0  0  0  0
  -28.3631  -13.8292   21.8300 H   0  0  0  0  0  0
  -25.2751   -9.5681   22.4741 H   0  0  0  0  0  0
  -24.0006   -7.4630   22.7463 H   0  0  0  0  0  0
  -21.0837   -8.8706   19.8957 H   0  0  0  0  0  0
  -22.3646  -10.9631   19.6139 H   0  0  0  0  0  0
  -21.2012   -7.6157   23.9712 H   0  0  0  0  0  0
  -21.1466   -6.0533   25.9071 H   0  0  0  0  0  0
  -22.0613   -2.7627   23.2796 H   0  0  0  0  0  0
  -22.4027  -11.9830   22.4871 H   0  0  0  0  0  0
  -21.1026  -13.1174   22.2661 H   0  0  0  0  0  0
  -24.6021  -15.8180   20.5301 H   0  0  0  0  0  0
  -26.2263  -15.6456   20.0942 H   0  0  0  0  0  0
  -26.7317  -32.5238   23.0962 H   0  0  0  0  0  0
  -25.0086  -33.9553   25.0286 H   0  0  0  0  0  0
  -22.7626  -31.2798   21.3675 H   0  0  0  0  0  0
  -23.3762  -35.9568   23.3280 H   0  0  0  0  0  0
  -24.3582  -36.8902   22.2067 H   0  0  0  0  0  0
  -23.7252  -37.6424   23.6705 H   0  0  0  0  0  0
  -26.1799  -31.4394   20.6132 H   0  0  0  0  0  0
  -26.8835  -30.7413   22.0363 H   0  0  0  0  0  0
  -28.1416  -28.7502   21.2394 H   0  0  0  0  0  0
  -25.9229  -25.7967   19.0160 H   0  0  0  0  0  0
  -23.9938  -27.2752   18.9771 H   0  0  0  0  0  0
  -23.8266  -30.5431   19.3907 H   0  0  0  0  0  0
  -22.8001  -29.2175   19.8430 H   0  0  0  0  0  0
  -25.1327  -36.1818   25.0806 H   0  0  0  0  0  0
  -21.0005  -28.3329   24.1340 H   0  0  0  0  0  0
  -20.5674  -26.2354   23.3632 H   0  0  0  0  0  0
  -21.6660  -26.7420   22.1208 H   0  0  0  0  0  0
  -19.6934  -25.6271   21.1266 H   0  0  0  0  0  0
  -19.6718  -27.3159   20.6725 H   0  0  0  0  0  0
  -17.4225  -26.6669   21.4012 H   0  0  0  0  0  0
  -18.0346  -26.0086   22.9019 H   0  0  0  0  0  0
  -19.7959  -30.7309   24.2195 H   0  0  0  0  0  0
  -17.5028  -31.6268   24.5169 H   0  0  0  0  0  0
  -15.5365  -30.2966   23.7695 H   0  0  0  0  0  0
  -15.8690  -28.0816   22.7078 H   0  0  0  0  0  0
  -24.5886  -30.7100   25.7704 H   0  0  0  0  0  0
  -24.8889  -32.2937   26.4759 H   0  0  0  0  0  0
  -25.7963  -30.8951   27.0215 H   0  0  0  0  0  0
  -26.3069  -29.6630   24.1351 H   0  0  0  0  0  0
  -27.3998  -29.7277   25.4962 H   0  0  0  0  0  0
  -27.8982  -30.4167   23.9719 H   0  0  0  0  0  0
  -27.2652  -33.3655   26.2008 H   0  0  0  0  0  0
  -28.3902  -32.6841   25.0360 H   0  0  0  0  0  0
  -28.0679  -31.8500   26.5473 H   0  0  0  0  0  0
  -28.2572  -38.0090   24.7514 H   0  0  0  0  0  0
  -28.1088  -36.2620   24.6278 H   0  0  0  0  0  0
  -27.2290  -37.1413   25.8860 H   0  0  0  0  0  0
  -20.9526  -29.8734   21.6726 H   0  0  0  0  0  0
  -26.0139  -38.2789   24.1408 H   0  0  0  0  0  0
  -28.0892  -17.4534   21.2293 H   0  0  0  0  0  0
  -28.1231  -15.8322   21.7531 H   0  0  0  0  0  0
  -27.7470  -16.2264   20.0509 H   0  0  0  0  0  0
  -30.9913  -17.9974   21.1882 H   0  0  0  0  0  0
  -30.9930  -17.8108   19.4930 H   0  0  0  0  0  0
  -29.3712  -23.3203   21.4879 H   0  0  0  0  0  0
  -30.0815  -23.4766   19.9334 H   0  0  0  0  0  0
  -27.1441  -24.2768   20.5927 H   0  0  0  0  0  0
  -27.8075  -24.3744   19.0043 H   0  0  0  0  0  0
  1 25  1  0  0  0
  1 30  2  0  0  0
  1 81  1  0  0  0
  2  3  1  0  0  0
  2 25  1  0  0  0
  2 85  1  0  0  0
  2 86  1  0  0  0
  3  4  1  0  0  0
  3 87  1  0  0  0
  3 88  1  0  0  0
  4  5  1  0  0  0
  4 89  1  0  0  0
  4 90  1  0  0  0
  5  6  1  0  0  0
  5 26  1  0  0  0
  5 91  1  0  0  0
  6 25  1  0  0  0
  6 92  1  0  0  0
  6 93  1  0  0  0
  7  8  2  0  0  0
  7 26  1  0  0  0
  7 29  1  0  0  0
  8  9  1  0  0  0
  8 22  1  0  0  0
  9 10  1  0  0  0
  9 27  2  0  0  0
 10 11  2  0  0  0
 10 15  1  0  0  0
 11 12  1  0  0  0
 11 94  1  0  0  0
 12 13  2  0  0  0
 12 95  1  0  0  0
 13 14  1  0  0  0
 13 31  1  0  0  0
 14 15  2  0  0  0
 14 96  1  0  0  0
 15 97  1  0  0  0
 16 17  2  0  0  0
 16 21  1  0  0  0
 16 31  1  0  0  0
 17 18  1  0  0  0
 17 98  1  0  0  0
 18 19  2  0  0  0
 18 99  1  0  0  0
 19 20  1  0  0  0
 19 24  1  0  0  0
 20 21  2  0  0  0
 20100  1  0  0  0
 21 23  1  0  0  0
 22 28  1  0  0  0
 22 32  2  0  0  0
 26 27  1  0  0  0
 28101  1  0  0  0
 28102  1  0  0  0
 29103  1  0  0  0
 29104  1  0  0  0
 33 34  1  0  0  0
 33 66  1  0  0  0
 33 70  2  0  0  0
 34 36  1  0  0  0
 34 59  1  0  0  0
 34105  1  0  0  0
 35 44  2  0  0  0
 35 45  1  0  0  0
 35 68  1  0  0  0
 36 56  1  0  0  0
 36106  1  0  0  0
 37 39  1  0  0  0
 37 47  1  0  0  0
 37 66  1  0  0  0
 37107  1  0  0  0
 38 43  2  0  0  0
 38 46  1  0  0  0
 38 47  1  0  0  0
 39 64  1  0  0  0
 39 67  2  0  0  0
 40 52  1  0  0  0
 40 53  2  0  0  0
 40 58  1  0  0  0
 41108  1  0  0  0
 41109  1  0  0  0
 41110  1  0  0  0
 41 48  1  0  0  0
 42 43  1  0  0  0
 42 66  1  0  0  0
 42111  1  0  0  0
 42112  1  0  0  0
 43 44  1  0  0  0
 44113  1  0  0  0
 45 46  2  0  0  0
 45114  1  0  0  0
 46115  1  0  0  0
 47116  1  0  0  0
 47117  1  0  0  0
 48 56  1  0  0  0
 48 65  1  0  0  0
 48118  1  0  0  0
 49 50  1  0  0  0
 49 53  1  0  0  0
 49 64  1  0  0  0
 49119  1  0  0  0
 50 51  1  0  0  0
 50120  1  0  0  0
 50121  1  0  0  0
 51 52  1  0  0  0
 51122  1  0  0  0
 51123  1  0  0  0
 52124  1  0  0  0
 52125  1  0  0  0
 53 54  1  0  0  0
 54 55  2  0  0  0
 54126  1  0  0  0
 55 57  1  0  0  0
 55127  1  0  0  0
 56 69  2  0  0  0
 57 58  2  0  0  0
 57128  1  0  0  0
 58129  1  0  0  0
 59 60  1  0  0  0
 59 61  1  0  0  0
 59 62  1  0  0  0
 60130  1  0  0  0
 60131  1  0  0  0
 60132  1  0  0  0
 61133  1  0  0  0
 61134  1  0  0  0
 61135  1  0  0  0
 62136  1  0  0  0
 62137  1  0  0  0
 62138  1  0  0  0
 63 65  1  0  0  0
 63139  1  0  0  0
 63140  1  0  0  0
 63141  1  0  0  0
 64142  1  0  0  0
 65143  1  0  0  0
 68 76  1  0  0  0
 71 72  1  0  0  0
 71 74  1  0  0  0
 71 78  2  0  0  0
 72 77  1  0  0  0
 72 79  2  0  0  0
 73 81  1  0  0  0
 73144  1  0  0  0
 73145  1  0  0  0
 73146  1  0  0  0
 74 81  1  0  0  0
 74147  1  0  0  0
 74148  1  0  0  0
 75 76  1  0  0  0
 75 80  1  0  0  0
 75149  1  0  0  0
 75150  1  0  0  0
 76151  1  0  0  0
 76152  1  0  0  0
 77 82  1  0  0  0
 77 83  1  0  0  0
 77 84  1  0  0  0
 78 80  1  0  0  0
 79 80  1  0  0  0
M  ISO  4   1 100  68 101  76 101  81 100
M  END
> <chiral flag>
0

> <version>
0

> <s_m_source_file>
/data/baiqing/PycharmProjects/Reinvent-master-3.2/result/LINK_invent/BTK/process_docking_weight1_custom_sum_contain_oxygen_bond_distance_aromatic_linkinvent_7_9_3/rearranged_h_0056.sdf

> <i_m_source_file_index>
74

> <r_mmod_Potential_Energy-OPLS-2005>
854.788208007812

> <r_mmod_Stretch_Energy-OPLS-2005>
357.001525878906

> <r_mmod_Bend_Energy-OPLS-2005>
330.089447021484

> <r_mmod_Torsional_Energy-OPLS-2005>
250.026229858398

> <r_mmod_Improper_Torsional_Energy-OPLS-2005>
6.14154243469238

> <r_mmod_Van_der_Waal_Energy-OPLS-2005>
116.818725585938

> <r_mmod_Electrostatic_Energy-OPLS-2005>
-269.016967773438

> <r_mmod_Solvation_Energy-OPLS-2005>
-206.45329284668

> <b_mmod_Minimization_Converged-OPLS-2005>
0

> <r_mmod_RMS_Derivative-OPLS-2005>
2.22511553764343

$$$$
76
                    3D
 Structure written by MMmdl.
157165  0  0  1  0            999 V2000
  -30.4571  -15.0488   20.4830 C   0  0  0  0  0  0
  -30.4445  -12.6747   19.4951 C   0  0  0  0  0  0
  -29.5229  -12.6045   18.2513 C   0  0  0  0  0  0
  -28.0505  -12.3843   18.6511 C   0  0  0  0  0  0
  -27.6275  -13.2616   19.8582 C   0  0  2  0  0  0
  -28.6765  -13.1978   20.9874 C   0  0  0  0  0  0
  -25.2310  -13.8220   20.5630 C   0  0  0  0  0  0
  -24.1700  -13.0406   20.9185 C   0  0  0  0  0  0
  -24.6376  -11.6896   20.8722 C   0  0  0  0  0  0
  -23.9101  -10.4253   21.0406 C   0  0  0  0  0  0
  -24.3664   -9.4161   21.9170 C   0  0  0  0  0  0
  -23.6322   -8.2208   22.0757 C   0  0  0  0  0  0
  -22.4290   -8.0252   21.3546 C   0  0  0  0  0  0
  -21.9936   -9.0229   20.4624 C   0  0  0  0  0  0
  -22.7282  -10.2091   20.3041 C   0  0  0  0  0  0
  -21.6853   -6.0701   22.5264 C   0  0  0  0  0  0
  -21.4036   -6.5620   23.8199 C   0  0  0  0  0  0
  -21.3676   -5.6780   24.9173 C   0  0  0  0  0  0
  -21.6072   -4.3046   24.7240 C   0  0  0  0  0  0
  -21.8850   -3.8126   23.4364 C   0  0  0  0  0  0
  -21.9206   -4.6929   22.3406 C   0  0  0  0  0  0
  -22.7700  -13.5089   21.1910 C   0  0  0  0  0  0
  -22.1648   -4.2094   21.0990 F   0  0  0  0  0  0
  -21.5644   -3.4540   25.7765 F   0  0  0  0  0  0
  -29.9235  -13.7422   20.4175 N   0  0  0  0  0  0
  -26.2840  -12.9505   20.3299 N   0  0  0  0  0  0
  -25.9315  -11.6605   20.5720 N   0  0  0  0  0  0
  -22.0466  -12.7980   22.0471 N   0  0  0  0  0  0
  -25.3849  -15.1951   20.3919 N   0  0  0  0  0  0
  -31.6266  -15.1416   20.0757 O   0  0  0  0  0  0
  -21.6657   -6.8845   21.4225 O   0  0  0  0  0  0
  -22.3308  -14.5408   20.6837 O   0  0  0  0  0  0
  -24.6456  -31.8416   23.1885 C   0  0  0  0  0  0
  -25.9190  -32.4723   23.8326 C   0  0  1  0  0  0
  -27.2129  -27.0939   20.2048 C   0  0  0  0  0  0
  -25.5928  -33.8531   24.2228 N   0  0  0  0  0  0
  -23.4535  -30.4531   21.5417 C   0  0  2  0  0  0
  -24.9030  -28.8703   20.1225 C   0  0  0  0  0  0
  -22.7606  -29.4455   22.4944 C   0  0  0  0  0  0
  -18.0307  -28.1388   22.8540 C   0  0  0  0  0  0
  -24.1458  -36.7226   23.2647 C   0  0  0  0  0  0
  -26.0079  -30.7040   21.3914 C   0  0  0  0  0  0
  -26.0780  -29.3068   20.7477 C   0  0  0  0  0  0
  -27.2352  -28.4376   20.7646 C   0  0  0  0  0  0
  -26.0131  -26.7564   19.5459 C   0  0  0  0  0  0
  -24.8859  -27.6100   19.5002 C   0  0  0  0  0  0
  -23.6803  -29.7788   20.1625 C   0  0  0  0  0  0
  -25.4103  -36.3068   24.0341 C   0  0  1  0  0  0
  -20.5920  -28.3667   23.1313 C   0  0  2  0  0  0
  -20.6759  -26.9379   22.5450 C   0  0  0  0  0  0
  -19.5717  -26.6379   21.5260 C   0  0  0  0  0  0
  -18.1902  -26.7943   22.1663 C   0  0  0  0  0  0
  -19.1566  -28.8858   23.2906 C   0  0  0  0  0  0
  -18.9464  -30.1473   23.8911 C   0  0  0  0  0  0
  -17.6445  -30.6583   24.0555 C   0  0  0  0  0  0
  -25.9069  -34.9439   23.5100 C   0  0  0  0  0  0
  -16.5343  -29.9062   23.6353 C   0  0  0  0  0  0
  -16.7285  -28.6472   23.0410 C   0  0  0  0  0  0
  -26.4488  -31.6633   25.0788 C   0  0  0  0  0  0
  -25.3652  -31.3792   26.1468 C   0  0  0  0  0  0
  -27.0366  -30.3073   24.6328 C   0  0  0  0  0  0
  -27.6053  -32.4369   25.7569 C   0  0  0  0  0  0
  -27.5600  -37.1756   24.8465 C   0  0  0  0  0  0
  -21.4309  -29.2980   22.3700 N   0  0  0  0  0  0
  -26.4265  -37.3794   23.9476 N   0  0  0  0  0  0
  -24.7237  -31.0225   22.0954 N   0  0  0  0  0  0
  -23.4239  -28.8015   23.3103 O   0  0  0  0  0  0
  -28.2750  -26.1095   20.2396 O   0  0  0  0  0  0
  -26.5671  -34.8915   22.4690 O   0  0  0  0  0  0
  -23.5555  -32.1296   23.7074 O   0  0  0  0  0  0
  -29.7136  -19.3591   22.1836 C   0  0  0  0  0  0
  -29.4693  -19.2152   20.8110 C   0  0  0  0  0  0
  -29.5907  -20.6250   22.8029 C   0  0  0  0  0  0
  -29.0085  -21.6943   20.8073 C   0  0  0  0  0  0
  -28.7550  -17.6444   18.8630 C   0  0  0  0  0  0
  -28.6687  -16.2072   21.8195 C   0  0  0  0  0  0
  -28.8916  -23.2071   20.0969 C   0  0  0  0  0  0
  -28.0745  -24.5989   20.6550 C   0  0  0  0  0  0
  -29.7048  -17.7174   20.0770 C   0  0  2  0  0  0
  -29.8902  -20.7991   24.3036 C   0  0  0  0  0  0
  -29.1519  -20.4507   20.1543 N   0  0  0  0  0  0
  -29.2426  -21.7470   22.1125 N   0  0  0  0  0  0
  -29.6681  -16.2465   20.7394 N   0  0  0  0  0  0
  -30.2247  -19.6403   24.8807 F   0  0  0  0  0  0
  -30.9025  -21.6523   24.4818 F   0  0  0  0  0  0
  -28.8202  -21.2783   24.9431 F   0  0  0  0  0  0
  -31.4706  -12.8658   19.1707 H   0  0  0  0  0  0
  -30.4807  -11.7071   19.9938 H   0  0  0  0  0  0
  -29.8503  -11.8151   17.5703 H   0  0  0  0  0  0
  -29.6020  -13.5373   17.6894 H   0  0  0  0  0  0
  -27.9152  -11.3292   18.8951 H   0  0  0  0  0  0
  -27.4076  -12.5894   17.7935 H   0  0  0  0  0  0
  -27.6055  -14.2864   19.4849 H   0  0  0  0  0  0
  -28.7979  -12.1605   21.3076 H   0  0  0  0  0  0
  -28.3580  -13.7029   21.8927 H   0  0  0  0  0  0
  -25.2819   -9.5639   22.4710 H   0  0  0  0  0  0
  -24.0036   -7.4610   22.7464 H   0  0  0  0  0  0
  -21.0896   -8.8784   19.8876 H   0  0  0  0  0  0
  -22.3794  -10.9660   19.6153 H   0  0  0  0  0  0
  -21.2026   -7.6119   23.9696 H   0  0  0  0  0  0
  -21.1463   -6.0499   25.9071 H   0  0  0  0  0  0
  -22.0621   -2.7574   23.2901 H   0  0  0  0  0  0
  -22.4166  -11.9624   22.4787 H   0  0  0  0  0  0
  -21.1084  -13.0919   22.2807 H   0  0  0  0  0  0
  -24.6095  -15.8407   20.4865 H   0  0  0  0  0  0
  -26.2194  -15.6349   20.0328 H   0  0  0  0  0  0
  -26.7274  -32.5314   23.1083 H   0  0  0  0  0  0
  -25.0073  -33.9676   25.0378 H   0  0  0  0  0  0
  -22.7546  -31.2777   21.3902 H   0  0  0  0  0  0
  -23.3804  -35.9459   23.3200 H   0  0  0  0  0  0
  -24.3559  -36.8960   22.2081 H   0  0  0  0  0  0
  -23.7043  -37.6322   23.6729 H   0  0  0  0  0  0
  -26.1548  -31.4420   20.6026 H   0  0  0  0  0  0
  -26.8839  -30.7727   22.0262 H   0  0  0  0  0  0
  -28.1317  -28.7657   21.2741 H   0  0  0  0  0  0
  -25.9246  -25.7842   19.0800 H   0  0  0  0  0  0
  -23.9877  -27.2726   18.9994 H   0  0  0  0  0  0
  -23.8150  -30.5528   19.4064 H   0  0  0  0  0  0
  -22.7929  -29.2230   19.8534 H   0  0  0  0  0  0
  -25.1251  -36.1931   25.0822 H   0  0  0  0  0  0
  -20.9989  -28.3204   24.1444 H   0  0  0  0  0  0
  -20.5654  -26.2255   23.3645 H   0  0  0  0  0  0
  -21.6610  -26.7361   22.1232 H   0  0  0  0  0  0
  -19.6832  -25.6291   21.1267 H   0  0  0  0  0  0
  -19.6650  -27.3210   20.6808 H   0  0  0  0  0  0
  -17.4174  -26.6765   21.4049 H   0  0  0  0  0  0
  -18.0238  -26.0086   22.9047 H   0  0  0  0  0  0
  -19.7921  -30.7318   24.2274 H   0  0  0  0  0  0
  -17.4967  -31.6270   24.5134 H   0  0  0  0  0  0
  -15.5326  -30.2936   23.7654 H   0  0  0  0  0  0
  -15.8711  -28.0750   22.7149 H   0  0  0  0  0  0
  -24.5862  -30.7118   25.7751 H   0  0  0  0  0  0
  -24.8775  -32.2941   26.4856 H   0  0  0  0  0  0
  -25.7903  -30.8992   27.0298 H   0  0  0  0  0  0
  -26.2993  -29.6856   24.1231 H   0  0  0  0  0  0
  -27.3920  -29.7326   25.4893 H   0  0  0  0  0  0
  -27.8919  -30.4403   23.9696 H   0  0  0  0  0  0
  -27.2729  -33.3730   26.2083 H   0  0  0  0  0  0
  -28.3906  -32.6827   25.0402 H   0  0  0  0  0  0
  -28.0678  -31.8518   26.5540 H   0  0  0  0  0  0
  -28.2518  -38.0160   24.7705 H   0  0  0  0  0  0
  -28.1202  -36.2704   24.6050 H   0  0  0  0  0  0
  -27.2373  -37.1116   25.8876 H   0  0  0  0  0  0
  -20.9521  -29.8698   21.6885 H   0  0  0  0  0  0
  -26.0144  -38.2840   24.1597 H   0  0  0  0  0  0
  -30.0290  -18.5114   22.7740 H   0  0  0  0  0  0
  -28.9421  -18.4565   18.1565 H   0  0  0  0  0  0
  -27.7106  -17.7153   19.1757 H   0  0  0  0  0  0
  -28.8666  -16.7130   18.3072 H   0  0  0  0  0  0
  -28.3243  -17.1829   22.1494 H   0  0  0  0  0  0
  -29.0627  -15.6912   22.6967 H   0  0  0  0  0  0
  -27.7637  -15.7023   21.4938 H   0  0  0  0  0  0
  -28.5395  -23.0401   19.0790 H   0  0  0  0  0  0
  -29.9298  -23.5149   19.9825 H   0  0  0  0  0  0
  -28.2932  -24.6150   21.7247 H   0  0  0  0  0  0
  -27.0088  -24.3831   20.6180 H   0  0  0  0  0  0
  -30.7183  -17.7937   19.6751 H   0  0  0  0  0  0
  1 25  1  0  0  0
  1 30  2  0  0  0
  1 83  1  0  0  0
  2  3  1  0  0  0
  2 25  1  0  0  0
  2 87  1  0  0  0
  2 88  1  0  0  0
  3  4  1  0  0  0
  3 89  1  0  0  0
  3 90  1  0  0  0
  4  5  1  0  0  0
  4 91  1  0  0  0
  4 92  1  0  0  0
  5  6  1  0  0  0
  5 26  1  0  0  0
  5 93  1  0  0  0
  6 25  1  0  0  0
  6 94  1  0  0  0
  6 95  1  0  0  0
  7  8  2  0  0  0
  7 26  1  0  0  0
  7 29  1  0  0  0
  8  9  1  0  0  0
  8 22  1  0  0  0
  9 10  1  0  0  0
  9 27  2  0  0  0
 10 11  2  0  0  0
 10 15  1  0  0  0
 11 12  1  0  0  0
 11 96  1  0  0  0
 12 13  2  0  0  0
 12 97  1  0  0  0
 13 14  1  0  0  0
 13 31  1  0  0  0
 14 15  2  0  0  0
 14 98  1  0  0  0
 15 99  1  0  0  0
 16 17  2  0  0  0
 16 21  1  0  0  0
 16 31  1  0  0  0
 17 18  1  0  0  0
 17100  1  0  0  0
 18 19  2  0  0  0
 18101  1  0  0  0
 19 20  1  0  0  0
 19 24  1  0  0  0
 20 21  2  0  0  0
 20102  1  0  0  0
 21 23  1  0  0  0
 22 28  1  0  0  0
 22 32  2  0  0  0
 26 27  1  0  0  0
 28103  1  0  0  0
 28104  1  0  0  0
 29105  1  0  0  0
 29106  1  0  0  0
 33 34  1  0  0  0
 33 66  1  0  0  0
 33 70  2  0  0  0
 34 36  1  0  0  0
 34 59  1  0  0  0
 34107  1  0  0  0
 35 44  2  0  0  0
 35 45  1  0  0  0
 35 68  1  0  0  0
 36 56  1  0  0  0
 36108  1  0  0  0
 37 39  1  0  0  0
 37 47  1  0  0  0
 37 66  1  0  0  0
 37109  1  0  0  0
 38 43  2  0  0  0
 38 46  1  0  0  0
 38 47  1  0  0  0
 39 64  1  0  0  0
 39 67  2  0  0  0
 40 52  1  0  0  0
 40 53  2  0  0  0
 40 58  1  0  0  0
 41110  1  0  0  0
 41111  1  0  0  0
 41112  1  0  0  0
 41 48  1  0  0  0
 42 43  1  0  0  0
 42 66  1  0  0  0
 42113  1  0  0  0
 42114  1  0  0  0
 43 44  1  0  0  0
 44115  1  0  0  0
 45 46  2  0  0  0
 45116  1  0  0  0
 46117  1  0  0  0
 47118  1  0  0  0
 47119  1  0  0  0
 48 56  1  0  0  0
 48 65  1  0  0  0
 48120  1  0  0  0
 49 50  1  0  0  0
 49 53  1  0  0  0
 49 64  1  0  0  0
 49121  1  0  0  0
 50 51  1  0  0  0
 50122  1  0  0  0
 50123  1  0  0  0
 51 52  1  0  0  0
 51124  1  0  0  0
 51125  1  0  0  0
 52126  1  0  0  0
 52127  1  0  0  0
 53 54  1  0  0  0
 54 55  2  0  0  0
 54128  1  0  0  0
 55 57  1  0  0  0
 55129  1  0  0  0
 56 69  2  0  0  0
 57 58  2  0  0  0
 57130  1  0  0  0
 58131  1  0  0  0
 59 60  1  0  0  0
 59 61  1  0  0  0
 59 62  1  0  0  0
 60132  1  0  0  0
 60133  1  0  0  0
 60134  1  0  0  0
 61135  1  0  0  0
 61136  1  0  0  0
 61137  1  0  0  0
 62138  1  0  0  0
 62139  1  0  0  0
 62140  1  0  0  0
 63 65  1  0  0  0
 63141  1  0  0  0
 63142  1  0  0  0
 63143  1  0  0  0
 64144  1  0  0  0
 65145  1  0  0  0
 68 78  1  0  0  0
 71 72  2  0  0  0
 71 73  1  0  0  0
 71146  1  0  0  0
 72 79  1  0  0  0
 72 81  1  0  0  0
 73 80  1  0  0  0
 73 82  2  0  0  0
 74 77  1  0  0  0
 74 81  2  0  0  0
 74 82  1  0  0  0
 75147  1  0  0  0
 75148  1  0  0  0
 75149  1  0  0  0
 75 79  1  0  0  0
 76 83  1  0  0  0
 76150  1  0  0  0
 76151  1  0  0  0
 76152  1  0  0  0
 77 78  1  0  0  0
 77153  1  0  0  0
 77154  1  0  0  0
 78155  1  0  0  0
 78156  1  0  0  0
 79 83  1  0  0  0
 79157  1  0  0  0
 80 84  1  0  0  0
 80 85  1  0  0  0
 80 86  1  0  0  0
M  ISO  4   1 100  68 101  78 101  83 100
M  END
> <chiral flag>
0

> <version>
0

> <s_m_source_file>
/data/baiqing/PycharmProjects/Reinvent-master-3.2/result/LINK_invent/BTK/process_docking_weight1_custom_sum_contain_oxygen_bond_distance_aromatic_linkinvent_7_9_3/rearranged_h_0056.sdf

> <i_m_source_file_index>
75

> <r_mmod_Potential_Energy-OPLS-2005>
398.304168701172

> <r_mmod_Stretch_Energy-OPLS-2005>
330.896881103516

> <r_mmod_Bend_Energy-OPLS-2005>
304.117462158203

> <r_mmod_Torsional_Energy-OPLS-2005>
273.0400390625

> <r_mmod_Improper_Torsional_Energy-OPLS-2005>
7.89558839797974

> <r_mmod_Van_der_Waal_Energy-OPLS-2005>
140.222091674805

> <r_mmod_Electrostatic_Energy-OPLS-2005>
-685.130249023438

> <r_mmod_Solvation_Energy-OPLS-2005>
-216.021041870117

> <b_mmod_Minimization_Converged-OPLS-2005>
0

> <r_mmod_RMS_Derivative-OPLS-2005>
5.595627784729

$$$$
77
                    3D
 Structure written by MMmdl.
163171  0  0  1  0            999 V2000
  -30.7461  -14.6330   20.3952 C   0  0  0  0  0  0
  -30.4016  -12.3749   19.4612 C   0  0  0  0  0  0
  -29.4869  -12.4456   18.2229 C   0  0  0  0  0  0
  -28.0195  -12.2546   18.6464 C   0  0  0  0  0  0
  -27.6171  -13.1800   19.8194 C   0  0  2  0  0  0
  -28.6798  -13.2256   20.9453 C   0  0  0  0  0  0
  -25.2488  -13.8031   20.5721 C   0  0  0  0  0  0
  -24.1750  -13.0345   20.9264 C   0  0  0  0  0  0
  -24.6292  -11.6817   20.8809 C   0  0  0  0  0  0
  -23.8968  -10.4234   21.0452 C   0  0  0  0  0  0
  -24.3549   -9.4155   21.9210 C   0  0  0  0  0  0
  -23.6245   -8.2188   22.0754 C   0  0  0  0  0  0
  -22.4231   -8.0233   21.3541 C   0  0  0  0  0  0
  -21.9858   -9.0201   20.4647 C   0  0  0  0  0  0
  -22.7161  -10.2090   20.3075 C   0  0  0  0  0  0
  -21.6831   -6.0699   22.5280 C   0  0  0  0  0  0
  -21.3995   -6.5612   23.8207 C   0  0  0  0  0  0
  -21.3663   -5.6774   24.9178 C   0  0  0  0  0  0
  -21.6049   -4.3038   24.7237 C   0  0  0  0  0  0
  -21.8817   -3.8121   23.4360 C   0  0  0  0  0  0
  -21.9184   -4.6932   22.3411 C   0  0  0  0  0  0
  -22.7791  -13.5188   21.1903 C   0  0  0  0  0  0
  -22.1654   -4.2116   21.0990 F   0  0  0  0  0  0
  -21.5647   -3.4528   25.7755 F   0  0  0  0  0  0
  -30.0003  -13.4810   20.3547 N   0  0  0  0  0  0
  -26.2821  -12.9110   20.3253 N   0  0  0  0  0  0
  -25.9193  -11.6325   20.5801 N   0  0  0  0  0  0
  -22.0415  -12.8205   22.0465 N   0  0  0  0  0  0
  -25.4200  -15.1743   20.4111 N   0  0  0  0  0  0
  -31.9664  -14.5354   20.2801 O   0  0  0  0  0  0
  -21.6606   -6.8832   21.4235 O   0  0  0  0  0  0
  -22.3512  -14.5494   20.6730 O   0  0  0  0  0  0
  -24.6185  -31.8653   23.2059 C   0  0  0  0  0  0
  -25.9053  -32.4806   23.8380 C   0  0  1  0  0  0
  -27.2337  -27.3875   20.1118 C   0  0  0  0  0  0
  -25.5897  -33.8607   24.2318 N   0  0  0  0  0  0
  -23.4086  -30.4868   21.5481 C   0  0  2  0  0  0
  -24.8527  -28.9436   20.1151 C   0  0  0  0  0  0
  -22.7435  -29.4645   22.4983 C   0  0  0  0  0  0
  -18.0287  -28.1368   22.8505 C   0  0  0  0  0  0
  -24.1485  -36.7308   23.2643 C   0  0  0  0  0  0
  -25.9401  -30.8166   21.3637 C   0  0  0  0  0  0
  -26.0134  -29.4465   20.7128 C   0  0  0  0  0  0
  -27.2030  -28.6771   20.7034 C   0  0  0  0  0  0
  -26.0472  -26.9026   19.5143 C   0  0  0  0  0  0
  -24.8675  -27.6738   19.5114 C   0  0  0  0  0  0
  -23.6167  -29.8160   20.1633 C   0  0  0  0  0  0
  -25.4107  -36.3109   24.0345 C   0  0  1  0  0  0
  -20.5880  -28.3661   23.1318 C   0  0  2  0  0  0
  -20.6769  -26.9394   22.5419 C   0  0  0  0  0  0
  -19.5739  -26.6380   21.5222 C   0  0  0  0  0  0
  -18.1922  -26.7919   22.1637 C   0  0  0  0  0  0
  -19.1535  -28.8833   23.2910 C   0  0  0  0  0  0
  -18.9458  -30.1441   23.8914 C   0  0  0  0  0  0
  -17.6454  -30.6572   24.0566 C   0  0  0  0  0  0
  -25.9036  -34.9471   23.5133 C   0  0  0  0  0  0
  -16.5350  -29.9071   23.6320 C   0  0  0  0  0  0
  -16.7276  -28.6488   23.0352 C   0  0  0  0  0  0
  -26.4464  -31.6590   25.0719 C   0  0  0  0  0  0
  -25.3725  -31.3693   26.1464 C   0  0  0  0  0  0
  -27.0294  -30.3034   24.6095 C   0  0  0  0  0  0
  -27.6045  -32.4312   25.7472 C   0  0  0  0  0  0
  -27.5584  -37.1809   24.8470 C   0  0  0  0  0  0
  -21.4158  -29.3028   22.3720 N   0  0  0  0  0  0
  -26.4298  -37.3792   23.9412 N   0  0  0  0  0  0
  -24.6744  -31.0725   22.0971 N   0  0  0  0  0  0
  -23.4198  -28.8194   23.3039 O   0  0  0  0  0  0
  -28.4217  -26.6693   20.1414 O   0  0  0  0  0  0
  -26.5609  -34.8926   22.4701 O   0  0  0  0  0  0
  -23.5365  -32.1425   23.7421 O   0  0  0  0  0  0
  -27.5626  -22.0148   22.8344 C   0  0  0  0  0  0
  -28.0784  -19.9420   22.8948 C   0  0  0  0  0  0
  -28.3011  -21.7630   21.6963 C   0  0  0  0  0  0
  -28.8610  -16.2179   19.4765 C   0  0  0  0  0  0
  -31.2013  -16.8442   19.2528 C   0  0  0  0  0  0
  -28.6373  -22.7561   20.5902 C   0  0  0  0  0  0
  -28.2346  -24.2472   20.8854 C   0  0  0  0  0  0
  -30.4078  -18.5282   21.5289 C   0  0  0  0  0  0
  -30.1196  -16.9720   21.5474 C   0  0  0  0  0  0
  -29.4096  -19.5328   20.8423 C   0  0  0  0  0  0
  -28.5062  -25.2760   19.7451 C   0  0  0  0  0  0
  -30.2024  -16.1324   20.2153 C   0  0  0  0  0  0
  -27.4209  -20.8576   23.5924 N   0  0  0  0  0  0
  -28.6572  -20.3917   21.7704 N   0  0  0  0  0  0
  -31.4456  -12.4311   19.1487 H   0  0  0  0  0  0
  -30.2937  -11.4161   19.9714 H   0  0  0  0  0  0
  -29.7699  -11.6767   17.5024 H   0  0  0  0  0  0
  -29.6126  -13.4023   17.7143 H   0  0  0  0  0  0
  -27.8963  -11.2111   18.9387 H   0  0  0  0  0  0
  -27.3554  -12.4109   17.7953 H   0  0  0  0  0  0
  -27.5258  -14.1382   19.3425 H   0  0  0  0  0  0
  -28.7006  -12.2820   21.4922 H   0  0  0  0  0  0
  -28.4316  -14.0009   21.6719 H   0  0  0  0  0  0
  -25.2692   -9.5628   22.4788 H   0  0  0  0  0  0
  -23.9958   -7.4567   22.7450 H   0  0  0  0  0  0
  -21.0802   -8.8693   19.8945 H   0  0  0  0  0  0
  -22.3611  -10.9629   19.6190 H   0  0  0  0  0  0
  -21.1969   -7.6117   23.9694 H   0  0  0  0  0  0
  -21.1501   -6.0515   25.9079 H   0  0  0  0  0  0
  -22.0600   -2.7583   23.2868 H   0  0  0  0  0  0
  -22.4013  -11.9869   22.4874 H   0  0  0  0  0  0
  -21.1032  -13.1247   22.2645 H   0  0  0  0  0  0
  -24.6567  -15.8312   20.5312 H   0  0  0  0  0  0
  -26.2711  -15.6110   20.0835 H   0  0  0  0  0  0
  -26.7124  -32.5501   23.1141 H   0  0  0  0  0  0
  -25.0031  -33.9765   25.0452 H   0  0  0  0  0  0
  -22.7002  -31.3052   21.4068 H   0  0  0  0  0  0
  -23.3748  -35.9642   23.3313 H   0  0  0  0  0  0
  -24.3578  -36.8910   22.2057 H   0  0  0  0  0  0
  -23.7233  -37.6515   23.6646 H   0  0  0  0  0  0
  -26.0595  -31.5789   20.5920 H   0  0  0  0  0  0
  -26.8267  -30.8707   21.9840 H   0  0  0  0  0  0
  -28.0998  -29.0652   21.1659 H   0  0  0  0  0  0
  -26.0036  -25.9292   19.0509 H   0  0  0  0  0  0
  -23.9734  -27.2792   19.0490 H   0  0  0  0  0  0
  -23.7261  -30.5901   19.4029 H   0  0  0  0  0  0
  -22.7392  -29.2374   19.8690 H   0  0  0  0  0  0
  -25.1279  -36.1982   25.0840 H   0  0  0  0  0  0
  -20.9993  -28.3218   24.1433 H   0  0  0  0  0  0
  -20.5672  -26.2267   23.3609 H   0  0  0  0  0  0
  -21.6635  -26.7420   22.1207 H   0  0  0  0  0  0
  -19.6889  -25.6298   21.1231 H   0  0  0  0  0  0
  -19.6666  -27.3207   20.6766 H   0  0  0  0  0  0
  -17.4196  -26.6698   21.4033 H   0  0  0  0  0  0
  -18.0303  -26.0050   22.9021 H   0  0  0  0  0  0
  -19.7930  -30.7261   24.2288 H   0  0  0  0  0  0
  -17.5002  -31.6254   24.5161 H   0  0  0  0  0  0
  -15.5348  -30.2973   23.7618 H   0  0  0  0  0  0
  -15.8688  -28.0801   22.7055 H   0  0  0  0  0  0
  -24.5903  -30.7034   25.7796 H   0  0  0  0  0  0
  -24.8904  -32.2844   26.4919 H   0  0  0  0  0  0
  -25.8075  -30.8859   27.0221 H   0  0  0  0  0  0
  -26.2837  -29.6805   24.1140 H   0  0  0  0  0  0
  -27.4060  -29.7255   25.4543 H   0  0  0  0  0  0
  -27.8673  -30.4357   23.9246 H   0  0  0  0  0  0
  -27.2671  -33.3608   26.2068 H   0  0  0  0  0  0
  -28.3832  -32.6880   25.0279 H   0  0  0  0  0  0
  -28.0737  -31.8429   26.5367 H   0  0  0  0  0  0
  -28.2613  -38.0095   24.7510 H   0  0  0  0  0  0
  -28.1069  -36.2628   24.6301 H   0  0  0  0  0  0
  -27.2306  -37.1468   25.8875 H   0  0  0  0  0  0
  -20.9322  -29.8756   21.6945 H   0  0  0  0  0  0
  -26.0190  -38.2877   24.1391 H   0  0  0  0  0  0
  -27.1067  -22.9411   23.1555 H   0  0  0  0  0  0
  -28.1458  -18.9104   23.2122 H   0  0  0  0  0  0
  -28.8495  -15.5568   18.6114 H   0  0  0  0  0  0
  -28.0321  -16.0058   20.1459 H   0  0  0  0  0  0
  -28.6700  -17.2070   19.0681 H   0  0  0  0  0  0
  -30.8436  -17.8200   18.9241 H   0  0  0  0  0  0
  -31.3685  -16.2608   18.3459 H   0  0  0  0  0  0
  -32.1760  -17.0043   19.7164 H   0  0  0  0  0  0
  -28.1466  -22.4368   19.6699 H   0  0  0  0  0  0
  -29.7068  -22.7130   20.3848 H   0  0  0  0  0  0
  -28.7712  -24.5753   21.7761 H   0  0  0  0  0  0
  -27.1756  -24.2963   21.1368 H   0  0  0  0  0  0
  -30.5497  -18.8433   22.5636 H   0  0  0  0  0  0
  -31.3960  -18.7001   21.1037 H   0  0  0  0  0  0
  -29.1536  -16.8050   22.0242 H   0  0  0  0  0  0
  -30.8446  -16.5387   22.2389 H   0  0  0  0  0  0
  -28.6876  -19.0120   20.2190 H   0  0  0  0  0  0
  -29.9690  -20.1844   20.1709 H   0  0  0  0  0  0
  -27.9107  -25.0517   18.8613 H   0  0  0  0  0  0
  -29.5365  -25.1346   19.4201 H   0  0  0  0  0  0
  1 25  1  0  0  0
  1 30  2  0  0  0
  1 82  1  0  0  0
  2  3  1  0  0  0
  2 25  1  0  0  0
  2 85  1  0  0  0
  2 86  1  0  0  0
  3  4  1  0  0  0
  3 87  1  0  0  0
  3 88  1  0  0  0
  4  5  1  0  0  0
  4 89  1  0  0  0
  4 90  1  0  0  0
  5  6  1  0  0  0
  5 26  1  0  0  0
  5 91  1  0  0  0
  6 25  1  0  0  0
  6 92  1  0  0  0
  6 93  1  0  0  0
  7  8  2  0  0  0
  7 26  1  0  0  0
  7 29  1  0  0  0
  8  9  1  0  0  0
  8 22  1  0  0  0
  9 10  1  0  0  0
  9 27  2  0  0  0
 10 11  2  0  0  0
 10 15  1  0  0  0
 11 12  1  0  0  0
 11 94  1  0  0  0
 12 13  2  0  0  0
 12 95  1  0  0  0
 13 14  1  0  0  0
 13 31  1  0  0  0
 14 15  2  0  0  0
 14 96  1  0  0  0
 15 97  1  0  0  0
 16 17  2  0  0  0
 16 21  1  0  0  0
 16 31  1  0  0  0
 17 18  1  0  0  0
 17 98  1  0  0  0
 18 19  2  0  0  0
 18 99  1  0  0  0
 19 20  1  0  0  0
 19 24  1  0  0  0
 20 21  2  0  0  0
 20100  1  0  0  0
 21 23  1  0  0  0
 22 28  1  0  0  0
 22 32  2  0  0  0
 26 27  1  0  0  0
 28101  1  0  0  0
 28102  1  0  0  0
 29103  1  0  0  0
 29104  1  0  0  0
 33 34  1  0  0  0
 33 66  1  0  0  0
 33 70  2  0  0  0
 34 36  1  0  0  0
 34 59  1  0  0  0
 34105  1  0  0  0
 35 44  2  0  0  0
 35 45  1  0  0  0
 35 68  1  0  0  0
 36 56  1  0  0  0
 36106  1  0  0  0
 37 39  1  0  0  0
 37 47  1  0  0  0
 37 66  1  0  0  0
 37107  1  0  0  0
 38 43  2  0  0  0
 38 46  1  0  0  0
 38 47  1  0  0  0
 39 64  1  0  0  0
 39 67  2  0  0  0
 40 52  1  0  0  0
 40 53  2  0  0  0
 40 58  1  0  0  0
 41108  1  0  0  0
 41109  1  0  0  0
 41110  1  0  0  0
 41 48  1  0  0  0
 42 43  1  0  0  0
 42 66  1  0  0  0
 42111  1  0  0  0
 42112  1  0  0  0
 43 44  1  0  0  0
 44113  1  0  0  0
 45 46  2  0  0  0
 45114  1  0  0  0
 46115  1  0  0  0
 47116  1  0  0  0
 47117  1  0  0  0
 48 56  1  0  0  0
 48 65  1  0  0  0
 48118  1  0  0  0
 49 50  1  0  0  0
 49 53  1  0  0  0
 49 64  1  0  0  0
 49119  1  0  0  0
 50 51  1  0  0  0
 50120  1  0  0  0
 50121  1  0  0  0
 51 52  1  0  0  0
 51122  1  0  0  0
 51123  1  0  0  0
 52124  1  0  0  0
 52125  1  0  0  0
 53 54  1  0  0  0
 54 55  2  0  0  0
 54126  1  0  0  0
 55 57  1  0  0  0
 55127  1  0  0  0
 56 69  2  0  0  0
 57 58  2  0  0  0
 57128  1  0  0  0
 58129  1  0  0  0
 59 60  1  0  0  0
 59 61  1  0  0  0
 59 62  1  0  0  0
 60130  1  0  0  0
 60131  1  0  0  0
 60132  1  0  0  0
 61133  1  0  0  0
 61134  1  0  0  0
 61135  1  0  0  0
 62136  1  0  0  0
 62137  1  0  0  0
 62138  1  0  0  0
 63 65  1  0  0  0
 63139  1  0  0  0
 63140  1  0  0  0
 63141  1  0  0  0
 64142  1  0  0  0
 65143  1  0  0  0
 68 81  1  0  0  0
 71 73  2  0  0  0
 71 83  1  0  0  0
 71144  1  0  0  0
 72 83  2  0  0  0
 72 84  1  0  0  0
 72145  1  0  0  0
 73 76  1  0  0  0
 73 84  1  0  0  0
 74146  1  0  0  0
 74147  1  0  0  0
 74148  1  0  0  0
 74 82  1  0  0  0
 75 82  1  0  0  0
 75149  1  0  0  0
 75150  1  0  0  0
 75151  1  0  0  0
 76 77  1  0  0  0
 76152  1  0  0  0
 76153  1  0  0  0
 77 81  1  0  0  0
 77154  1  0  0  0
 77155  1  0  0  0
 78 79  1  0  0  0
 78 80  1  0  0  0
 78156  1  0  0  0
 78157  1  0  0  0
 79 82  1  0  0  0
 79158  1  0  0  0
 79159  1  0  0  0
 80 84  1  0  0  0
 80160  1  0  0  0
 80161  1  0  0  0
 81162  1  0  0  0
 81163  1  0  0  0
M  ISO  4   1 100  68 101  81 101  82 100
M  END
> <chiral flag>
0

> <version>
0

> <s_m_source_file>
/data/baiqing/PycharmProjects/Reinvent-master-3.2/result/LINK_invent/BTK/process_docking_weight1_custom_sum_contain_oxygen_bond_distance_aromatic_linkinvent_7_9_3/rearranged_h_0056.sdf

> <i_m_source_file_index>
76

> <r_mmod_Potential_Energy-OPLS-2005>
174.519592285156

> <r_mmod_Stretch_Energy-OPLS-2005>
61.7301254272461

> <r_mmod_Bend_Energy-OPLS-2005>
162.907913208008

> <r_mmod_Torsional_Energy-OPLS-2005>
237.292144775391

> <r_mmod_Improper_Torsional_Energy-OPLS-2005>
8.1611795425415

> <r_mmod_Van_der_Waal_Energy-OPLS-2005>
140.382339477539

> <r_mmod_Electrostatic_Energy-OPLS-2005>
-289.136260986328

> <r_mmod_Solvation_Energy-OPLS-2005>
-206.569732666016

> <b_mmod_Minimization_Converged-OPLS-2005>
0

> <r_mmod_RMS_Derivative-OPLS-2005>
1.27730226516724

$$$$
78
                    3D
 Structure written by MMmdl.
156164  0  0  1  0            999 V2000
  -30.6503  -14.5851   20.4054 C   0  0  0  0  0  0
  -30.4282  -12.3166   19.4560 C   0  0  0  0  0  0
  -29.5006  -12.3756   18.2226 C   0  0  0  0  0  0
  -28.0093  -12.3156   18.6293 C   0  0  0  0  0  0
  -27.6387  -13.1846   19.8647 C   0  0  2  0  0  0
  -28.6996  -13.0979   20.9817 C   0  0  0  0  0  0
  -25.2554  -13.8071   20.5760 C   0  0  0  0  0  0
  -24.1789  -13.0371   20.9184 C   0  0  0  0  0  0
  -24.6308  -11.6839   20.8756 C   0  0  0  0  0  0
  -23.8980  -10.4248   21.0411 C   0  0  0  0  0  0
  -24.3562   -9.4177   21.9190 C   0  0  0  0  0  0
  -23.6261   -8.2210   22.0765 C   0  0  0  0  0  0
  -22.4257   -8.0220   21.3536 C   0  0  0  0  0  0
  -21.9858   -9.0200   20.4649 C   0  0  0  0  0  0
  -22.7153  -10.2097   20.3064 C   0  0  0  0  0  0
  -21.6861   -6.0683   22.5282 C   0  0  0  0  0  0
  -21.4008   -6.5621   23.8185 C   0  0  0  0  0  0
  -21.3643   -5.6790   24.9164 C   0  0  0  0  0  0
  -21.6052   -4.3061   24.7232 C   0  0  0  0  0  0
  -21.8828   -3.8126   23.4364 C   0  0  0  0  0  0
  -21.9195   -4.6922   22.3395 C   0  0  0  0  0  0
  -22.7839  -13.5220   21.1819 C   0  0  0  0  0  0
  -22.1670   -4.2093   21.0978 F   0  0  0  0  0  0
  -21.5609   -3.4558   25.7757 F   0  0  0  0  0  0
  -30.0102  -13.3795   20.3811 N   0  0  0  0  0  0
  -26.2923  -12.9143   20.3450 N   0  0  0  0  0  0
  -25.9238  -11.6340   20.5890 N   0  0  0  0  0  0
  -22.0513  -12.8259   22.0419 N   0  0  0  0  0  0
  -25.4330  -15.1792   20.4187 N   0  0  0  0  0  0
  -31.8645  -14.6944   20.2178 O   0  0  0  0  0  0
  -21.6633   -6.8823   21.4234 O   0  0  0  0  0  0
  -22.3557  -14.5525   20.6655 O   0  0  0  0  0  0
  -24.6175  -31.8636   23.2074 C   0  0  0  0  0  0
  -25.9039  -32.4806   23.8387 C   0  0  1  0  0  0
  -27.2231  -27.3871   20.1157 C   0  0  0  0  0  0
  -25.5893  -33.8608   24.2317 N   0  0  0  0  0  0
  -23.4098  -30.4852   21.5481 C   0  0  2  0  0  0
  -24.8561  -28.9426   20.1194 C   0  0  0  0  0  0
  -22.7419  -29.4619   22.4966 C   0  0  0  0  0  0
  -18.0253  -28.1389   22.8460 C   0  0  0  0  0  0
  -24.1480  -36.7312   23.2630 C   0  0  0  0  0  0
  -25.9413  -30.8149   21.3658 C   0  0  0  0  0  0
  -26.0199  -29.4434   20.7190 C   0  0  0  0  0  0
  -27.2096  -28.6734   20.7152 C   0  0  0  0  0  0
  -26.0460  -26.9095   19.5085 C   0  0  0  0  0  0
  -24.8662  -27.6751   19.5116 C   0  0  0  0  0  0
  -23.6222  -29.8170   20.1640 C   0  0  0  0  0  0
  -25.4103  -36.3103   24.0340 C   0  0  1  0  0  0
  -20.5847  -28.3667   23.1307 C   0  0  2  0  0  0
  -20.6752  -26.9406   22.5407 C   0  0  0  0  0  0
  -19.5739  -26.6396   21.5191 C   0  0  0  0  0  0
  -18.1909  -26.7929   22.1598 C   0  0  0  0  0  0
  -19.1512  -28.8848   23.2875 C   0  0  0  0  0  0
  -18.9434  -30.1438   23.8920 C   0  0  0  0  0  0
  -17.6454  -30.6590   24.0569 C   0  0  0  0  0  0
  -25.9042  -34.9464   23.5135 C   0  0  0  0  0  0
  -16.5338  -29.9099   23.6342 C   0  0  0  0  0  0
  -16.7255  -28.6516   23.0354 C   0  0  0  0  0  0
  -26.4471  -31.6601   25.0721 C   0  0  0  0  0  0
  -25.3752  -31.3736   26.1495 C   0  0  0  0  0  0
  -27.0281  -30.3042   24.6096 C   0  0  0  0  0  0
  -27.6065  -32.4310   25.7463 C   0  0  0  0  0  0
  -27.5586  -37.1791   24.8459 C   0  0  0  0  0  0
  -21.4145  -29.3032   22.3727 N   0  0  0  0  0  0
  -26.4290  -37.3803   23.9422 N   0  0  0  0  0  0
  -24.6745  -31.0696   22.0993 N   0  0  0  0  0  0
  -23.4154  -28.8149   23.3027 O   0  0  0  0  0  0
  -28.3511  -26.5923   20.0958 O   0  0  0  0  0  0
  -26.5587  -34.8917   22.4681 O   0  0  0  0  0  0
  -23.5354  -32.1389   23.7454 O   0  0  0  0  0  0
  -27.8211  -20.7632   20.8840 C   0  0  0  0  0  0
  -29.4559  -19.4832   20.7622 C   0  0  0  0  0  0
  -29.3796  -15.9807   18.8766 C   0  0  0  0  0  0
  -30.3025  -18.2565   20.4573 C   0  0  0  0  0  0
  -29.0254  -22.9713   21.3547 C   0  0  0  0  0  0
  -29.8401  -16.8919   21.1099 C   0  0  0  0  0  0
  -28.3370  -25.4685   21.0112 C   0  0  0  0  0  0
  -28.3364  -24.0178   20.4048 C   0  0  2  0  0  0
  -28.0912  -19.4780   20.6535 N   0  0  0  0  0  0
  -29.9921  -20.6977   20.9701 N   0  0  0  0  0  0
  -28.9040  -21.5327   21.0254 N   0  0  0  0  0  0
  -29.8406  -15.6756   20.2423 N   0  0  0  0  0  0
  -26.9932  -23.6255   20.1444 O   0  0  0  0  0  0
  -31.4744  -12.4100   19.1568 H   0  0  0  0  0  0
  -30.3428  -11.3488   19.9504 H   0  0  0  0  0  0
  -29.7175  -11.5261   17.5731 H   0  0  0  0  0  0
  -29.7140  -13.2531   17.6149 H   0  0  0  0  0  0
  -27.7820  -11.2729   18.8452 H   0  0  0  0  0  0
  -27.3788  -12.5783   17.7796 H   0  0  0  0  0  0
  -27.6016  -14.2060   19.5252 H   0  0  0  0  0  0
  -28.7026  -12.1135   21.4485 H   0  0  0  0  0  0
  -28.4780  -13.8146   21.7750 H   0  0  0  0  0  0
  -25.2707   -9.5658   22.4768 H   0  0  0  0  0  0
  -23.9955   -7.4614   22.7515 H   0  0  0  0  0  0
  -21.0755   -8.8689   19.8997 H   0  0  0  0  0  0
  -22.3564  -10.9622   19.6182 H   0  0  0  0  0  0
  -21.2023   -7.6141   23.9662 H   0  0  0  0  0  0
  -21.1449   -6.0540   25.9048 H   0  0  0  0  0  0
  -22.0628   -2.7587   23.2911 H   0  0  0  0  0  0
  -22.4181  -11.9934   22.4793 H   0  0  0  0  0  0
  -21.1134  -13.1292   22.2660 H   0  0  0  0  0  0
  -24.6841  -15.8478   20.5584 H   0  0  0  0  0  0
  -26.3095  -15.6168   20.1657 H   0  0  0  0  0  0
  -26.7092  -32.5515   23.1134 H   0  0  0  0  0  0
  -25.0060  -33.9764   25.0476 H   0  0  0  0  0  0
  -22.7014  -31.3034   21.4077 H   0  0  0  0  0  0
  -23.3758  -35.9628   23.3266 H   0  0  0  0  0  0
  -24.3583  -36.8956   22.2049 H   0  0  0  0  0  0
  -23.7206  -37.6500   23.6665 H   0  0  0  0  0  0
  -26.0440  -31.5692   20.5846 H   0  0  0  0  0  0
  -26.8320  -30.8786   21.9803 H   0  0  0  0  0  0
  -28.1053  -29.0485   21.1904 H   0  0  0  0  0  0
  -26.0383  -25.9383   19.0368 H   0  0  0  0  0  0
  -23.9720  -27.2831   19.0474 H   0  0  0  0  0  0
  -23.7383  -30.5922   19.4058 H   0  0  0  0  0  0
  -22.7446  -29.2409   19.8665 H   0  0  0  0  0  0
  -25.1264  -36.1972   25.0839 H   0  0  0  0  0  0
  -20.9918  -28.3226   24.1434 H   0  0  0  0  0  0
  -20.5651  -26.2263   23.3575 H   0  0  0  0  0  0
  -21.6618  -26.7443   22.1200 H   0  0  0  0  0  0
  -19.6916  -25.6314   21.1189 H   0  0  0  0  0  0
  -19.6711  -27.3226   20.6733 H   0  0  0  0  0  0
  -17.4182  -26.6654   21.4004 H   0  0  0  0  0  0
  -18.0333  -26.0081   22.9008 H   0  0  0  0  0  0
  -19.7929  -30.7212   24.2322 H   0  0  0  0  0  0
  -17.5029  -31.6278   24.5140 H   0  0  0  0  0  0
  -15.5351  -30.3013   23.7678 H   0  0  0  0  0  0
  -15.8632  -28.0852   22.7079 H   0  0  0  0  0  0
  -24.5889  -30.7107   25.7874 H   0  0  0  0  0  0
  -24.8973  -32.2898   26.4979 H   0  0  0  0  0  0
  -25.8104  -30.8894   27.0244 H   0  0  0  0  0  0
  -26.2803  -29.6811   24.1173 H   0  0  0  0  0  0
  -27.4074  -29.7282   25.4548 H   0  0  0  0  0  0
  -27.8639  -30.4370   23.9218 H   0  0  0  0  0  0
  -27.2713  -33.3626   26.2048 H   0  0  0  0  0  0
  -28.3862  -32.6842   25.0261 H   0  0  0  0  0  0
  -28.0739  -31.8414   26.5365 H   0  0  0  0  0  0
  -28.2581  -38.0109   24.7541 H   0  0  0  0  0  0
  -28.1088  -36.2638   24.6231 H   0  0  0  0  0  0
  -27.2297  -37.1391   25.8857 H   0  0  0  0  0  0
  -20.9308  -29.8789   21.6980 H   0  0  0  0  0  0
  -26.0173  -38.2867   24.1490 H   0  0  0  0  0  0
  -26.8148  -21.1532   20.9517 H   0  0  0  0  0  0
  -28.5532  -16.6939   18.8856 H   0  0  0  0  0  0
  -29.0163  -15.1164   18.3366 H   0  0  0  0  0  0
  -30.1881  -16.3790   18.2623 H   0  0  0  0  0  0
  -31.3212  -18.4548   20.7913 H   0  0  0  0  0  0
  -30.3984  -18.2139   19.3762 H   0  0  0  0  0  0
  -28.6369  -23.1000   22.3653 H   0  0  0  0  0  0
  -30.0854  -23.2102   21.4213 H   0  0  0  0  0  0
  -28.8153  -16.9983   21.4630 H   0  0  0  0  0  0
  -30.4259  -16.7120   22.0106 H   0  0  0  0  0  0
  -29.2674  -25.5791   21.5663 H   0  0  0  0  0  0
  -27.5523  -25.5727   21.7648 H   0  0  0  0  0  0
  -28.8717  -24.0199   19.4550 H   0  0  0  0  0  0
  -26.6896  -24.1171   19.3918 H   0  0  0  0  0  0
  1 25  1  0  0  0
  1 30  2  0  0  0
  1 82  1  0  0  0
  2  3  1  0  0  0
  2 25  1  0  0  0
  2 84  1  0  0  0
  2 85  1  0  0  0
  3  4  1  0  0  0
  3 86  1  0  0  0
  3 87  1  0  0  0
  4  5  1  0  0  0
  4 88  1  0  0  0
  4 89  1  0  0  0
  5  6  1  0  0  0
  5 26  1  0  0  0
  5 90  1  0  0  0
  6 25  1  0  0  0
  6 91  1  0  0  0
  6 92  1  0  0  0
  7  8  2  0  0  0
  7 26  1  0  0  0
  7 29  1  0  0  0
  8  9  1  0  0  0
  8 22  1  0  0  0
  9 10  1  0  0  0
  9 27  2  0  0  0
 10 11  2  0  0  0
 10 15  1  0  0  0
 11 12  1  0  0  0
 11 93  1  0  0  0
 12 13  2  0  0  0
 12 94  1  0  0  0
 13 14  1  0  0  0
 13 31  1  0  0  0
 14 15  2  0  0  0
 14 95  1  0  0  0
 15 96  1  0  0  0
 16 17  2  0  0  0
 16 21  1  0  0  0
 16 31  1  0  0  0
 17 18  1  0  0  0
 17 97  1  0  0  0
 18 19  2  0  0  0
 18 98  1  0  0  0
 19 20  1  0  0  0
 19 24  1  0  0  0
 20 21  2  0  0  0
 20 99  1  0  0  0
 21 23  1  0  0  0
 22 28  1  0  0  0
 22 32  2  0  0  0
 26 27  1  0  0  0
 28100  1  0  0  0
 28101  1  0  0  0
 29102  1  0  0  0
 29103  1  0  0  0
 33 34  1  0  0  0
 33 66  1  0  0  0
 33 70  2  0  0  0
 34 36  1  0  0  0
 34 59  1  0  0  0
 34104  1  0  0  0
 35 44  2  0  0  0
 35 45  1  0  0  0
 35 68  1  0  0  0
 36 56  1  0  0  0
 36105  1  0  0  0
 37 39  1  0  0  0
 37 47  1  0  0  0
 37 66  1  0  0  0
 37106  1  0  0  0
 38 43  2  0  0  0
 38 46  1  0  0  0
 38 47  1  0  0  0
 39 64  1  0  0  0
 39 67  2  0  0  0
 40 52  1  0  0  0
 40 53  2  0  0  0
 40 58  1  0  0  0
 41107  1  0  0  0
 41108  1  0  0  0
 41109  1  0  0  0
 41 48  1  0  0  0
 42 43  1  0  0  0
 42 66  1  0  0  0
 42110  1  0  0  0
 42111  1  0  0  0
 43 44  1  0  0  0
 44112  1  0  0  0
 45 46  2  0  0  0
 45113  1  0  0  0
 46114  1  0  0  0
 47115  1  0  0  0
 47116  1  0  0  0
 48 56  1  0  0  0
 48 65  1  0  0  0
 48117  1  0  0  0
 49 50  1  0  0  0
 49 53  1  0  0  0
 49 64  1  0  0  0
 49118  1  0  0  0
 50 51  1  0  0  0
 50119  1  0  0  0
 50120  1  0  0  0
 51 52  1  0  0  0
 51121  1  0  0  0
 51122  1  0  0  0
 52123  1  0  0  0
 52124  1  0  0  0
 53 54  1  0  0  0
 54 55  2  0  0  0
 54125  1  0  0  0
 55 57  1  0  0  0
 55126  1  0  0  0
 56 69  2  0  0  0
 57 58  2  0  0  0
 57127  1  0  0  0
 58128  1  0  0  0
 59 60  1  0  0  0
 59 61  1  0  0  0
 59 62  1  0  0  0
 60129  1  0  0  0
 60130  1  0  0  0
 60131  1  0  0  0
 61132  1  0  0  0
 61133  1  0  0  0
 61134  1  0  0  0
 62135  1  0  0  0
 62136  1  0  0  0
 62137  1  0  0  0
 63 65  1  0  0  0
 63138  1  0  0  0
 63139  1  0  0  0
 63140  1  0  0  0
 64141  1  0  0  0
 65142  1  0  0  0
 68 77  1  0  0  0
 71 79  2  0  0  0
 71 81  1  0  0  0
 71143  1  0  0  0
 72 74  1  0  0  0
 72 79  1  0  0  0
 72 80  2  0  0  0
 73 82  1  0  0  0
 73144  1  0  0  0
 73145  1  0  0  0
 73146  1  0  0  0
 74 76  1  0  0  0
 74147  1  0  0  0
 74148  1  0  0  0
 75 78  1  0  0  0
 75 81  1  0  0  0
 75149  1  0  0  0
 75150  1  0  0  0
 76 82  1  0  0  0
 76151  1  0  0  0
 76152  1  0  0  0
 77 78  1  0  0  0
 77153  1  0  0  0
 77154  1  0  0  0
 78 83  1  0  0  0
 78155  1  0  0  0
 80 81  1  0  0  0
 83156  1  0  0  0
M  ISO  4   1 100  68 101  77 101  82 100
M  END
> <chiral flag>
0

> <version>
0

> <s_m_source_file>
/data/baiqing/PycharmProjects/Reinvent-master-3.2/result/LINK_invent/BTK/process_docking_weight1_custom_sum_contain_oxygen_bond_distance_aromatic_linkinvent_7_9_3/rearranged_h_0056.sdf

> <i_m_source_file_index>
77

> <r_mmod_Potential_Energy-OPLS-2005>
188.325668334961

> <r_mmod_Stretch_Energy-OPLS-2005>
51.79638671875

> <r_mmod_Bend_Energy-OPLS-2005>
118.816177368164

> <r_mmod_Torsional_Energy-OPLS-2005>
354.744171142578

> <r_mmod_Improper_Torsional_Energy-OPLS-2005>
13.6743221282959

> <r_mmod_Van_der_Waal_Energy-OPLS-2005>
130.593765258789

> <r_mmod_Electrostatic_Energy-OPLS-2005>
-295.482360839844

> <r_mmod_Solvation_Energy-OPLS-2005>
-225.245452880859

> <b_mmod_Minimization_Converged-OPLS-2005>
0

> <r_mmod_RMS_Derivative-OPLS-2005>
5.62345695495605

$$$$
79
                    3D
 Structure written by MMmdl.
163171  0  0  1  0            999 V2000
  -30.7041  -14.6587   20.4155 C   0  0  0  0  0  0
  -30.4156  -12.3830   19.4691 C   0  0  0  0  0  0
  -29.5085  -12.4322   18.2241 C   0  0  0  0  0  0
  -28.0244  -12.3203   18.6316 C   0  0  0  0  0  0
  -27.6386  -13.2285   19.8338 C   0  0  2  0  0  0
  -28.6938  -13.1952   20.9619 C   0  0  0  0  0  0
  -25.2534  -13.8164   20.5685 C   0  0  0  0  0  0
  -24.1840  -13.0431   20.9200 C   0  0  0  0  0  0
  -24.6403  -11.6904   20.8721 C   0  0  0  0  0  0
  -23.9075  -10.4289   21.0384 C   0  0  0  0  0  0
  -24.3623   -9.4197   21.9176 C   0  0  0  0  0  0
  -23.6292   -8.2240   22.0737 C   0  0  0  0  0  0
  -22.4275   -8.0277   21.3535 C   0  0  0  0  0  0
  -21.9914   -9.0247   20.4639 C   0  0  0  0  0  0
  -22.7235  -10.2125   20.3041 C   0  0  0  0  0  0
  -21.6849   -6.0728   22.5287 C   0  0  0  0  0  0
  -21.4019   -6.5635   23.8216 C   0  0  0  0  0  0
  -21.3659   -5.6786   24.9182 C   0  0  0  0  0  0
  -21.6043   -4.3045   24.7238 C   0  0  0  0  0  0
  -21.8819   -3.8144   23.4353 C   0  0  0  0  0  0
  -21.9185   -4.6960   22.3407 C   0  0  0  0  0  0
  -22.7857  -13.5193   21.1876 C   0  0  0  0  0  0
  -22.1641   -4.2142   21.0977 F   0  0  0  0  0  0
  -21.5642   -3.4528   25.7746 F   0  0  0  0  0  0
  -29.9991  -13.4828   20.3606 N   0  0  0  0  0  0
  -26.2952  -12.9371   20.3245 N   0  0  0  0  0  0
  -25.9332  -11.6513   20.5751 N   0  0  0  0  0  0
  -22.0506  -12.8198   22.0429 N   0  0  0  0  0  0
  -25.4217  -15.1904   20.4096 N   0  0  0  0  0  0
  -31.9167  -14.6526   20.2024 O   0  0  0  0  0  0
  -21.6635   -6.8874   21.4248 O   0  0  0  0  0  0
  -22.3519  -14.5484   20.6689 O   0  0  0  0  0  0
  -24.6234  -31.8624   23.2136 C   0  0  0  0  0  0
  -25.9104  -32.4783   23.8416 C   0  0  1  0  0  0
  -27.1915  -27.3367   20.1136 C   0  0  0  0  0  0
  -25.5939  -33.8577   24.2339 N   0  0  0  0  0  0
  -23.4142  -30.4960   21.5551 C   0  0  2  0  0  0
  -24.8517  -28.9715   20.1060 C   0  0  0  0  0  0
  -22.7438  -29.4632   22.4935 C   0  0  0  0  0  0
  -18.0274  -28.1394   22.8493 C   0  0  0  0  0  0
  -24.1490  -36.7307   23.2643 C   0  0  0  0  0  0
  -25.9564  -30.8017   21.3835 C   0  0  0  0  0  0
  -26.0234  -29.4357   20.7178 C   0  0  0  0  0  0
  -27.1975  -28.6273   20.7217 C   0  0  0  0  0  0
  -26.0024  -26.9424   19.4512 C   0  0  0  0  0  0
  -24.8420  -27.7290   19.4633 C   0  0  0  0  0  0
  -23.6233  -29.8512   20.1624 C   0  0  0  0  0  0
  -25.4106  -36.3097   24.0347 C   0  0  1  0  0  0
  -20.5880  -28.3680   23.1291 C   0  0  2  0  0  0
  -20.6779  -26.9407   22.5418 C   0  0  0  0  0  0
  -19.5757  -26.6397   21.5214 C   0  0  0  0  0  0
  -18.1925  -26.7951   22.1610 C   0  0  0  0  0  0
  -19.1534  -28.8849   23.2893 C   0  0  0  0  0  0
  -18.9457  -30.1463   23.8901 C   0  0  0  0  0  0
  -17.6453  -30.6599   24.0558 C   0  0  0  0  0  0
  -25.9038  -34.9458   23.5138 C   0  0  0  0  0  0
  -16.5346  -29.9099   23.6336 C   0  0  0  0  0  0
  -16.7259  -28.6513   23.0371 C   0  0  0  0  0  0
  -26.4505  -31.6569   25.0760 C   0  0  0  0  0  0
  -25.3774  -31.3624   26.1506 C   0  0  0  0  0  0
  -27.0359  -30.3012   24.6188 C   0  0  0  0  0  0
  -27.6111  -32.4255   25.7504 C   0  0  0  0  0  0
  -27.5586  -37.1798   24.8465 C   0  0  0  0  0  0
  -21.4159  -29.3037   22.3679 N   0  0  0  0  0  0
  -26.4282  -37.3788   23.9428 N   0  0  0  0  0  0
  -24.6839  -31.0694   22.1068 N   0  0  0  0  0  0
  -23.4186  -28.8134   23.2961 O   0  0  0  0  0  0
  -28.2752  -26.4492   20.2027 O   0  0  0  0  0  0
  -26.5572  -34.8898   22.4683 O   0  0  0  0  0  0
  -23.5415  -32.1380   23.7512 O   0  0  0  0  0  0
  -30.1419  -20.7001   20.4509 C   0  0  0  0  0  0
  -28.0100  -19.9913   21.1599 C   0  0  0  0  0  0
  -28.8037  -21.0618   20.7013 C   0  0  0  0  0  0
  -29.7542  -18.4765   21.0476 C   0  0  0  0  0  0
  -31.7188  -17.0812   21.8899 C   0  0  0  0  0  0
  -28.2805  -17.0435   18.8474 C   0  0  0  0  0  0
  -30.7249  -16.8360   18.0980 C   0  0  0  0  0  0
  -28.1405  -22.4415   20.3821 C   0  0  0  0  0  0
  -28.8443  -23.8416   20.6046 C   0  0  0  0  0  0
  -27.9230  -25.0198   20.0956 C   0  0  0  0  0  0
  -30.2783  -17.0110   21.3165 C   0  0  2  0  0  0
  -29.5904  -16.2402   18.9569 C   0  0  0  0  0  0
  -30.5940  -19.4223   20.6022 N   0  0  0  0  0  0
  -28.4902  -18.7431   21.3720 N   0  0  0  0  0  0
  -30.0217  -15.8644   20.3377 N   0  0  0  0  0  0
  -31.4634  -12.4487   19.1730 H   0  0  0  0  0  0
  -30.3155  -11.4247   19.9790 H   0  0  0  0  0  0
  -29.7632  -11.6158   17.5454 H   0  0  0  0  0  0
  -29.6864  -13.3443   17.6575 H   0  0  0  0  0  0
  -27.8445  -11.2760   18.8885 H   0  0  0  0  0  0
  -27.3834  -12.5285   17.7744 H   0  0  0  0  0  0
  -27.6125  -14.2439   19.4448 H   0  0  0  0  0  0
  -28.7102  -12.2235   21.4559 H   0  0  0  0  0  0
  -28.4568  -13.9355   21.7277 H   0  0  0  0  0  0
  -25.2749   -9.5680   22.4773 H   0  0  0  0  0  0
  -24.0000   -7.4616   22.7433 H   0  0  0  0  0  0
  -21.0854   -8.8770   19.8920 H   0  0  0  0  0  0
  -22.3689  -10.9686   19.6171 H   0  0  0  0  0  0
  -21.2017   -7.6141   23.9742 H   0  0  0  0  0  0
  -21.1482   -6.0499   25.9085 H   0  0  0  0  0  0
  -22.0602   -2.7611   23.2856 H   0  0  0  0  0  0
  -22.4119  -11.9837   22.4807 H   0  0  0  0  0  0
  -21.1115  -13.1229   22.2640 H   0  0  0  0  0  0
  -24.6618  -15.8473   20.5387 H   0  0  0  0  0  0
  -26.2779  -15.6287   20.0988 H   0  0  0  0  0  0
  -26.7163  -32.5446   23.1157 H   0  0  0  0  0  0
  -25.0159  -33.9719   25.0540 H   0  0  0  0  0  0
  -22.7091  -31.3194   21.4244 H   0  0  0  0  0  0
  -23.3759  -35.9633   23.3288 H   0  0  0  0  0  0
  -24.3596  -36.8937   22.2063 H   0  0  0  0  0  0
  -23.7216  -37.6498   23.6650 H   0  0  0  0  0  0
  -26.0898  -31.5719   20.6231 H   0  0  0  0  0  0
  -26.8371  -30.8415   22.0128 H   0  0  0  0  0  0
  -28.0882  -28.9659   21.2331 H   0  0  0  0  0  0
  -25.9195  -26.0022   18.9298 H   0  0  0  0  0  0
  -23.9464  -27.3734   18.9727 H   0  0  0  0  0  0
  -23.7438  -30.6396   19.4184 H   0  0  0  0  0  0
  -22.7359  -29.2950   19.8530 H   0  0  0  0  0  0
  -25.1278  -36.1963   25.0835 H   0  0  0  0  0  0
  -20.9992  -28.3282   24.1402 H   0  0  0  0  0  0
  -20.5689  -26.2286   23.3622 H   0  0  0  0  0  0
  -21.6645  -26.7441   22.1206 H   0  0  0  0  0  0
  -19.6925  -25.6310   21.1247 H   0  0  0  0  0  0
  -19.6726  -27.3203   20.6751 H   0  0  0  0  0  0
  -17.4211  -26.6706   21.4003 H   0  0  0  0  0  0
  -18.0298  -26.0077   22.8981 H   0  0  0  0  0  0
  -19.7931  -30.7283   24.2273 H   0  0  0  0  0  0
  -17.5010  -31.6280   24.5165 H   0  0  0  0  0  0
  -15.5356  -30.3009   23.7682 H   0  0  0  0  0  0
  -15.8654  -28.0844   22.7111 H   0  0  0  0  0  0
  -24.6062  -30.6805   25.7888 H   0  0  0  0  0  0
  -24.8801  -32.2716   26.4883 H   0  0  0  0  0  0
  -25.8182  -30.8913   27.0305 H   0  0  0  0  0  0
  -26.2918  -29.6726   24.1279 H   0  0  0  0  0  0
  -27.4158  -29.7275   25.4653 H   0  0  0  0  0  0
  -27.8748  -30.4335   23.9355 H   0  0  0  0  0  0
  -27.2828  -33.3614   26.2027 H   0  0  0  0  0  0
  -28.3969  -32.6686   25.0340 H   0  0  0  0  0  0
  -28.0718  -31.8360   26.5441 H   0  0  0  0  0  0
  -28.2587  -38.0120   24.7563 H   0  0  0  0  0  0
  -28.1096  -36.2642   24.6236 H   0  0  0  0  0  0
  -27.2294  -37.1405   25.8865 H   0  0  0  0  0  0
  -20.9303  -29.8777   21.6940 H   0  0  0  0  0  0
  -26.0179  -38.2862   24.1434 H   0  0  0  0  0  0
  -30.8472  -21.4375   20.0946 H   0  0  0  0  0  0
  -26.9501  -20.1239   21.3245 H   0  0  0  0  0  0
  -31.7708  -17.8001   22.7074 H   0  0  0  0  0  0
  -32.4283  -17.4034   21.1269 H   0  0  0  0  0  0
  -32.0675  -16.1331   22.2970 H   0  0  0  0  0  0
  -27.7694  -16.8377   17.9083 H   0  0  0  0  0  0
  -28.4686  -18.1152   18.8328 H   0  0  0  0  0  0
  -27.5874  -16.8177   19.6568 H   0  0  0  0  0  0
  -30.3734  -17.0724   17.0914 H   0  0  0  0  0  0
  -31.5536  -16.1363   17.9859 H   0  0  0  0  0  0
  -31.1307  -17.7513   18.5269 H   0  0  0  0  0  0
  -27.2067  -22.4751   20.9497 H   0  0  0  0  0  0
  -27.8266  -22.3889   19.3378 H   0  0  0  0  0  0
  -29.7953  -23.8801   20.0764 H   0  0  0  0  0  0
  -29.0604  -23.9787   21.6669 H   0  0  0  0  0  0
  -26.9836  -24.8769   20.6362 H   0  0  0  0  0  0
  -27.7178  -24.8150   19.0421 H   0  0  0  0  0  0
  -29.6788  -16.6963   22.1709 H   0  0  0  0  0  0
  -29.3226  -15.3150   18.4532 H   0  0  0  0  0  0
  1 25  1  0  0  0
  1 30  2  0  0  0
  1 85  1  0  0  0
  2  3  1  0  0  0
  2 25  1  0  0  0
  2 86  1  0  0  0
  2 87  1  0  0  0
  3  4  1  0  0  0
  3 88  1  0  0  0
  3 89  1  0  0  0
  4  5  1  0  0  0
  4 90  1  0  0  0
  4 91  1  0  0  0
  5  6  1  0  0  0
  5 26  1  0  0  0
  5 92  1  0  0  0
  6 25  1  0  0  0
  6 93  1  0  0  0
  6 94  1  0  0  0
  7  8  2  0  0  0
  7 26  1  0  0  0
  7 29  1  0  0  0
  8  9  1  0  0  0
  8 22  1  0  0  0
  9 10  1  0  0  0
  9 27  2  0  0  0
 10 11  2  0  0  0
 10 15  1  0  0  0
 11 12  1  0  0  0
 11 95  1  0  0  0
 12 13  2  0  0  0
 12 96  1  0  0  0
 13 14  1  0  0  0
 13 31  1  0  0  0
 14 15  2  0  0  0
 14 97  1  0  0  0
 15 98  1  0  0  0
 16 17  2  0  0  0
 16 21  1  0  0  0
 16 31  1  0  0  0
 17 18  1  0  0  0
 17 99  1  0  0  0
 18 19  2  0  0  0
 18100  1  0  0  0
 19 20  1  0  0  0
 19 24  1  0  0  0
 20 21  2  0  0  0
 20101  1  0  0  0
 21 23  1  0  0  0
 22 28  1  0  0  0
 22 32  2  0  0  0
 26 27  1  0  0  0
 28102  1  0  0  0
 28103  1  0  0  0
 29104  1  0  0  0
 29105  1  0  0  0
 33 34  1  0  0  0
 33 66  1  0  0  0
 33 70  2  0  0  0
 34 36  1  0  0  0
 34 59  1  0  0  0
 34106  1  0  0  0
 35 44  2  0  0  0
 35 45  1  0  0  0
 35 68  1  0  0  0
 36 56  1  0  0  0
 36107  1  0  0  0
 37 39  1  0  0  0
 37 47  1  0  0  0
 37 66  1  0  0  0
 37108  1  0  0  0
 38 43  2  0  0  0
 38 46  1  0  0  0
 38 47  1  0  0  0
 39 64  1  0  0  0
 39 67  2  0  0  0
 40 52  1  0  0  0
 40 53  2  0  0  0
 40 58  1  0  0  0
 41109  1  0  0  0
 41110  1  0  0  0
 41111  1  0  0  0
 41 48  1  0  0  0
 42 43  1  0  0  0
 42 66  1  0  0  0
 42112  1  0  0  0
 42113  1  0  0  0
 43 44  1  0  0  0
 44114  1  0  0  0
 45 46  2  0  0  0
 45115  1  0  0  0
 46116  1  0  0  0
 47117  1  0  0  0
 47118  1  0  0  0
 48 56  1  0  0  0
 48 65  1  0  0  0
 48119  1  0  0  0
 49 50  1  0  0  0
 49 53  1  0  0  0
 49 64  1  0  0  0
 49120  1  0  0  0
 50 51  1  0  0  0
 50121  1  0  0  0
 50122  1  0  0  0
 51 52  1  0  0  0
 51123  1  0  0  0
 51124  1  0  0  0
 52125  1  0  0  0
 52126  1  0  0  0
 53 54  1  0  0  0
 54 55  2  0  0  0
 54127  1  0  0  0
 55 57  1  0  0  0
 55128  1  0  0  0
 56 69  2  0  0  0
 57 58  2  0  0  0
 57129  1  0  0  0
 58130  1  0  0  0
 59 60  1  0  0  0
 59 61  1  0  0  0
 59 62  1  0  0  0
 60131  1  0  0  0
 60132  1  0  0  0
 60133  1  0  0  0
 61134  1  0  0  0
 61135  1  0  0  0
 61136  1  0  0  0
 62137  1  0  0  0
 62138  1  0  0  0
 62139  1  0  0  0
 63 65  1  0  0  0
 63140  1  0  0  0
 63141  1  0  0  0
 63142  1  0  0  0
 64143  1  0  0  0
 65144  1  0  0  0
 68 80  1  0  0  0
 71 73  2  0  0  0
 71 83  1  0  0  0
 71145  1  0  0  0
 72 73  1  0  0  0
 72 84  2  0  0  0
 72146  1  0  0  0
 73 78  1  0  0  0
 74 81  1  0  0  0
 74 83  2  0  0  0
 74 84  1  0  0  0
 75147  1  0  0  0
 75148  1  0  0  0
 75149  1  0  0  0
 75 81  1  0  0  0
 76150  1  0  0  0
 76151  1  0  0  0
 76152  1  0  0  0
 76 82  1  0  0  0
 77 82  1  0  0  0
 77153  1  0  0  0
 77154  1  0  0  0
 77155  1  0  0  0
 78 79  1  0  0  0
 78156  1  0  0  0
 78157  1  0  0  0
 79 80  1  0  0  0
 79158  1  0  0  0
 79159  1  0  0  0
 80160  1  0  0  0
 80161  1  0  0  0
 81 85  1  0  0  0
 81162  1  0  0  0
 82 85  1  0  0  0
 82163  1  0  0  0
M  ISO  4   1 100  68 101  80 101  85 100
M  END
> <chiral flag>
0

> <version>
0

> <s_m_source_file>
/data/baiqing/PycharmProjects/Reinvent-master-3.2/result/LINK_invent/BTK/process_docking_weight1_custom_sum_contain_oxygen_bond_distance_aromatic_linkinvent_7_9_3/rearranged_h_0056.sdf

> <i_m_source_file_index>
78

> <r_mmod_Potential_Energy-OPLS-2005>
-110.906730651855

> <r_mmod_Stretch_Energy-OPLS-2005>
79.7435836791992

> <r_mmod_Bend_Energy-OPLS-2005>
172.147247314453

> <r_mmod_Torsional_Energy-OPLS-2005>
323.340057373047

> <r_mmod_Improper_Torsional_Energy-OPLS-2005>
12.3195285797119

> <r_mmod_Van_der_Waal_Energy-OPLS-2005>
168.145141601562

> <r_mmod_Electrostatic_Energy-OPLS-2005>
-732.416625976562

> <r_mmod_Solvation_Energy-OPLS-2005>
-201.219802856445

> <b_mmod_Minimization_Converged-OPLS-2005>
0

> <r_mmod_RMS_Derivative-OPLS-2005>
4.29836893081665

$$$$
80
                    3D
 Structure written by MMmdl.
143151  0  0  1  0            999 V2000
  -30.2894  -15.5303   20.3410 C   0  0  0  0  0  0
  -30.4475  -12.9874   19.5547 C   0  0  0  0  0  0
  -29.5604  -12.6379   18.3238 C   0  0  0  0  0  0
  -28.1203  -12.3033   18.7490 C   0  0  0  0  0  0
  -27.6064  -13.2960   19.8163 C   0  0  2  0  0  0
  -28.6248  -13.5577   20.9474 C   0  0  0  0  0  0
  -25.2376  -13.8272   20.5759 C   0  0  0  0  0  0
  -24.1743  -13.0438   20.9251 C   0  0  0  0  0  0
  -24.6424  -11.6942   20.8739 C   0  0  0  0  0  0
  -23.9119  -10.4296   21.0390 C   0  0  0  0  0  0
  -24.3653   -9.4210   21.9175 C   0  0  0  0  0  0
  -23.6314   -8.2251   22.0753 C   0  0  0  0  0  0
  -22.4293   -8.0291   21.3545 C   0  0  0  0  0  0
  -21.9938   -9.0266   20.4644 C   0  0  0  0  0  0
  -22.7282  -10.2137   20.3046 C   0  0  0  0  0  0
  -21.6860   -6.0743   22.5279 C   0  0  0  0  0  0
  -21.4019   -6.5645   23.8213 C   0  0  0  0  0  0
  -21.3660   -5.6796   24.9174 C   0  0  0  0  0  0
  -21.6044   -4.3058   24.7224 C   0  0  0  0  0  0
  -21.8818   -3.8152   23.4344 C   0  0  0  0  0  0
  -21.9194   -4.6970   22.3401 C   0  0  0  0  0  0
  -22.7757  -13.5177   21.1906 C   0  0  0  0  0  0
  -22.1661   -4.2155   21.0978 F   0  0  0  0  0  0
  -21.5627   -3.4541   25.7735 F   0  0  0  0  0  0
  -29.8346  -14.1470   20.3336 N   0  0  0  0  0  0
  -26.2813  -12.9579   20.3189 N   0  0  0  0  0  0
  -25.9368  -11.6664   20.5672 N   0  0  0  0  0  0
  -22.0424  -12.8152   22.0462 N   0  0  0  0  0  0
  -25.4007  -15.2013   20.4244 N   0  0  0  0  0  0
  -31.5140  -15.5312   20.1016 O   0  0  0  0  0  0
  -21.6650   -6.8891   21.4243 O   0  0  0  0  0  0
  -22.3424  -14.5476   20.6750 O   0  0  0  0  0  0
  -24.6790  -31.8058   23.1560 C   0  0  0  0  0  0
  -25.9394  -32.4497   23.8087 C   0  0  1  0  0  0
  -27.2274  -26.7591   20.2081 C   0  0  0  0  0  0
  -25.5993  -33.8319   24.1980 N   0  0  0  0  0  0
  -23.5027  -30.4101   21.5087 C   0  0  2  0  0  0
  -24.9604  -28.7633   20.1171 C   0  0  0  0  0  0
  -22.7745  -29.4347   22.4725 C   0  0  0  0  0  0
  -18.0336  -28.1419   22.8461 C   0  0  0  0  0  0
  -24.1493  -36.7164   23.2651 C   0  0  0  0  0  0
  -26.0812  -30.5577   21.4123 C   0  0  0  0  0  0
  -26.1487  -29.1288   20.7612 C   0  0  0  0  0  0
  -27.2702  -28.1536   20.7754 C   0  0  0  0  0  0
  -26.0067  -26.5907   19.5080 C   0  0  0  0  0  0
  -24.9253  -27.5186   19.4670 C   0  0  0  0  0  0
  -23.7538  -29.7113   20.1422 C   0  0  0  0  0  0
  -25.4142  -36.2912   24.0287 C   0  0  1  0  0  0
  -20.5971  -28.3775   23.1151 C   0  0  2  0  0  0
  -20.6804  -26.9439   22.5402 C   0  0  0  0  0  0
  -19.5777  -26.6375   21.5216 C   0  0  0  0  0  0
  -18.1961  -26.7949   22.1622 C   0  0  0  0  0  0
  -19.1603  -28.8922   23.2789 C   0  0  0  0  0  0
  -18.9508  -30.1507   23.8832 C   0  0  0  0  0  0
  -17.6499  -30.6605   24.0552 C   0  0  0  0  0  0
  -25.9120  -34.9301   23.4966 C   0  0  0  0  0  0
  -16.5388  -29.9087   23.6350 C   0  0  0  0  0  0
  -16.7317  -28.6508   23.0369 C   0  0  0  0  0  0
  -26.4590  -31.6510   25.0685 C   0  0  0  0  0  0
  -25.3670  -31.3812   26.1310 C   0  0  0  0  0  0
  -27.0514  -30.2854   24.6545 C   0  0  0  0  0  0
  -27.6047  -32.4359   25.7502 C   0  0  0  0  0  0
  -27.5564  -37.1739   24.8467 C   0  0  0  0  0  0
  -21.4397  -29.3033   22.3476 N   0  0  0  0  0  0
  -26.4271  -37.3668   23.9411 N   0  0  0  0  0  0
  -24.7771  -30.9559   22.0784 N   0  0  0  0  0  0
  -23.4214  -28.7941   23.3045 O   0  0  0  0  0  0
  -28.1917  -25.5600   20.2816 O   0  0  0  0  0  0
  -26.5751  -34.8869   22.4578 O   0  0  0  0  0  0
  -23.5821  -32.1103   23.6550 O   0  0  0  0  0  0
  -28.9240  -21.2997   21.4158 C   0  0  0  0  0  0
  -29.0801  -19.8372   19.2307 C   0  0  0  0  0  0
  -28.6624  -22.1990   20.2618 C   0  0  0  0  0  0
  -29.3688  -18.9417   20.3822 C   0  0  0  0  0  0
  -27.8683  -23.8656   20.1573 C   0  0  0  0  0  0
  -29.3256  -17.0979   20.5428 C   0  0  0  0  0  0
  -28.7705  -21.2698   19.1819 N   0  0  0  0  0  0
  -29.2346  -19.8689   21.4636 N   0  0  0  0  0  0
  -28.9019  -17.0090   21.8043 F   0  0  0  0  0  0
  -28.2435  -16.8617   19.7997 F   0  0  0  0  0  0
  -31.4504  -13.2377   19.2072 H   0  0  0  0  0  0
  -30.5780  -12.1143   20.1962 H   0  0  0  0  0  0
  -29.9919  -11.8053   17.7671 H   0  0  0  0  0  0
  -29.5472  -13.4888   17.6412 H   0  0  0  0  0  0
  -28.1207  -11.2936   19.1613 H   0  0  0  0  0  0
  -27.4563  -12.2831   17.8839 H   0  0  0  0  0  0
  -27.4921  -14.2377   19.2783 H   0  0  0  0  0  0
  -28.8449  -12.6478   21.5079 H   0  0  0  0  0  0
  -28.2098  -14.2660   21.6659 H   0  0  0  0  0  0
  -25.2796   -9.5684   22.4755 H   0  0  0  0  0  0
  -24.0016   -7.4645   22.7479 H   0  0  0  0  0  0
  -21.0867   -8.8793   19.8953 H   0  0  0  0  0  0
  -22.3741  -10.9676   19.6156 H   0  0  0  0  0  0
  -21.2015   -7.6153   23.9718 H   0  0  0  0  0  0
  -21.1481   -6.0525   25.9077 H   0  0  0  0  0  0
  -22.0596   -2.7613   23.2842 H   0  0  0  0  0  0
  -22.4066  -11.9824   22.4849 H   0  0  0  0  0  0
  -21.1035  -13.1151   22.2673 H   0  0  0  0  0  0
  -24.6321  -15.8505   20.5509 H   0  0  0  0  0  0
  -26.2519  -15.6517   20.1143 H   0  0  0  0  0  0
  -26.7474  -32.4987   23.0801 H   0  0  0  0  0  0
  -25.0064  -33.9366   25.0081 H   0  0  0  0  0  0
  -22.8251  -31.2462   21.3230 H   0  0  0  0  0  0
  -23.3771  -35.9476   23.3269 H   0  0  0  0  0  0
  -24.3563  -36.8865   22.2074 H   0  0  0  0  0  0
  -23.7235  -37.6328   23.6750 H   0  0  0  0  0  0
  -26.2789  -31.2869   20.6254 H   0  0  0  0  0  0
  -26.9342  -30.6231   22.0755 H   0  0  0  0  0  0
  -28.1652  -28.4383   21.3106 H   0  0  0  0  0  0
  -25.8466  -25.6473   19.0067 H   0  0  0  0  0  0
  -24.0276  -27.2312   18.9365 H   0  0  0  0  0  0
  -23.9234  -30.4731   19.3803 H   0  0  0  0  0  0
  -22.8600  -29.1741   19.8200 H   0  0  0  0  0  0
  -25.1348  -36.1680   25.0776 H   0  0  0  0  0  0
  -21.0057  -28.3395   24.1276 H   0  0  0  0  0  0
  -20.5668  -26.2399   23.3660 H   0  0  0  0  0  0
  -21.6665  -26.7386   22.1219 H   0  0  0  0  0  0
  -19.6931  -25.6269   21.1288 H   0  0  0  0  0  0
  -19.6718  -27.3150   20.6718 H   0  0  0  0  0  0
  -17.4229  -26.6694   21.4028 H   0  0  0  0  0  0
  -18.0350  -26.0108   22.9034 H   0  0  0  0  0  0
  -19.7983  -30.7343   24.2170 H   0  0  0  0  0  0
  -17.5049  -31.6277   24.5168 H   0  0  0  0  0  0
  -15.5385  -30.2968   23.7712 H   0  0  0  0  0  0
  -15.8718  -28.0803   22.7123 H   0  0  0  0  0  0
  -24.5879  -30.7136   25.7615 H   0  0  0  0  0  0
  -24.8833  -32.3028   26.4553 H   0  0  0  0  0  0
  -25.7861  -30.9098   27.0209 H   0  0  0  0  0  0
  -26.3221  -29.6484   24.1531 H   0  0  0  0  0  0
  -27.3957  -29.7280   25.5267 H   0  0  0  0  0  0
  -27.9195  -30.3993   24.0051 H   0  0  0  0  0  0
  -27.2593  -33.3725   26.1891 H   0  0  0  0  0  0
  -28.3955  -32.6817   25.0403 H   0  0  0  0  0  0
  -28.0606  -31.8613   26.5575 H   0  0  0  0  0  0
  -28.2552  -38.0062   24.7519 H   0  0  0  0  0  0
  -28.1089  -36.2586   24.6289 H   0  0  0  0  0  0
  -27.2279  -37.1369   25.8868 H   0  0  0  0  0  0
  -20.9689  -29.8692   21.6555 H   0  0  0  0  0  0
  -26.0101  -38.2716   24.1427 H   0  0  0  0  0  0
  -28.8059  -21.7336   22.3982 H   0  0  0  0  0  0
  -29.0116  -19.3635   18.2622 H   0  0  0  0  0  0
  -27.0449  -23.7516   20.8622 H   0  0  0  0  0  0
  -27.3809  -23.8060   19.1847 H   0  0  0  0  0  0
  1 25  1  0  0  0
  1 30  2  0  0  0
  1 76  1  0  0  0
  2  3  1  0  0  0
  2 25  1  0  0  0
  2 81  1  0  0  0
  2 82  1  0  0  0
  3  4  1  0  0  0
  3 83  1  0  0  0
  3 84  1  0  0  0
  4  5  1  0  0  0
  4 85  1  0  0  0
  4 86  1  0  0  0
  5  6  1  0  0  0
  5 26  1  0  0  0
  5 87  1  0  0  0
  6 25  1  0  0  0
  6 88  1  0  0  0
  6 89  1  0  0  0
  7  8  2  0  0  0
  7 26  1  0  0  0
  7 29  1  0  0  0
  8  9  1  0  0  0
  8 22  1  0  0  0
  9 10  1  0  0  0
  9 27  2  0  0  0
 10 11  2  0  0  0
 10 15  1  0  0  0
 11 12  1  0  0  0
 11 90  1  0  0  0
 12 13  2  0  0  0
 12 91  1  0  0  0
 13 14  1  0  0  0
 13 31  1  0  0  0
 14 15  2  0  0  0
 14 92  1  0  0  0
 15 93  1  0  0  0
 16 17  2  0  0  0
 16 21  1  0  0  0
 16 31  1  0  0  0
 17 18  1  0  0  0
 17 94  1  0  0  0
 18 19  2  0  0  0
 18 95  1  0  0  0
 19 20  1  0  0  0
 19 24  1  0  0  0
 20 21  2  0  0  0
 20 96  1  0  0  0
 21 23  1  0  0  0
 22 28  1  0  0  0
 22 32  2  0  0  0
 26 27  1  0  0  0
 28 97  1  0  0  0
 28 98  1  0  0  0
 29 99  1  0  0  0
 29100  1  0  0  0
 33 34  1  0  0  0
 33 66  1  0  0  0
 33 70  2  0  0  0
 34 36  1  0  0  0
 34 59  1  0  0  0
 34101  1  0  0  0
 35 44  2  0  0  0
 35 45  1  0  0  0
 35 68  1  0  0  0
 36 56  1  0  0  0
 36102  1  0  0  0
 37 39  1  0  0  0
 37 47  1  0  0  0
 37 66  1  0  0  0
 37103  1  0  0  0
 38 43  2  0  0  0
 38 46  1  0  0  0
 38 47  1  0  0  0
 39 64  1  0  0  0
 39 67  2  0  0  0
 40 52  1  0  0  0
 40 53  2  0  0  0
 40 58  1  0  0  0
 41104  1  0  0  0
 41105  1  0  0  0
 41106  1  0  0  0
 41 48  1  0  0  0
 42 43  1  0  0  0
 42 66  1  0  0  0
 42107  1  0  0  0
 42108  1  0  0  0
 43 44  1  0  0  0
 44109  1  0  0  0
 45 46  2  0  0  0
 45110  1  0  0  0
 46111  1  0  0  0
 47112  1  0  0  0
 47113  1  0  0  0
 48 56  1  0  0  0
 48 65  1  0  0  0
 48114  1  0  0  0
 49 50  1  0  0  0
 49 53  1  0  0  0
 49 64  1  0  0  0
 49115  1  0  0  0
 50 51  1  0  0  0
 50116  1  0  0  0
 50117  1  0  0  0
 51 52  1  0  0  0
 51118  1  0  0  0
 51119  1  0  0  0
 52120  1  0  0  0
 52121  1  0  0  0
 53 54  1  0  0  0
 54 55  2  0  0  0
 54122  1  0  0  0
 55 57  1  0  0  0
 55123  1  0  0  0
 56 69  2  0  0  0
 57 58  2  0  0  0
 57124  1  0  0  0
 58125  1  0  0  0
 59 60  1  0  0  0
 59 61  1  0  0  0
 59 62  1  0  0  0
 60126  1  0  0  0
 60127  1  0  0  0
 60128  1  0  0  0
 61129  1  0  0  0
 61130  1  0  0  0
 61131  1  0  0  0
 62132  1  0  0  0
 62133  1  0  0  0
 62134  1  0  0  0
 63 65  1  0  0  0
 63135  1  0  0  0
 63136  1  0  0  0
 63137  1  0  0  0
 64138  1  0  0  0
 65139  1  0  0  0
 68 75  1  0  0  0
 71 73  2  0  0  0
 71 78  1  0  0  0
 71140  1  0  0  0
 72 74  1  0  0  0
 72 77  2  0  0  0
 72141  1  0  0  0
 73 75  1  0  0  0
 73 77  1  0  0  0
 74 76  1  0  0  0
 74 78  2  0  0  0
 75142  1  0  0  0
 75143  1  0  0  0
 76 79  1  0  0  0
 76 80  1  0  0  0
M  ISO  4   1 100  68 101  75 101  76 100
M  END
> <chiral flag>
0

> <version>
0

> <s_m_source_file>
/data/baiqing/PycharmProjects/Reinvent-master-3.2/result/LINK_invent/BTK/process_docking_weight1_custom_sum_contain_oxygen_bond_distance_aromatic_linkinvent_7_9_3/rearranged_h_0056.sdf

> <i_m_source_file_index>
79

> <r_mmod_Potential_Energy-OPLS-2005>
2309.0244140625

> <r_mmod_Stretch_Energy-OPLS-2005>
892.621887207031

> <r_mmod_Bend_Energy-OPLS-2005>
645.411926269531

> <r_mmod_Torsional_Energy-OPLS-2005>
207.605529785156

> <r_mmod_Improper_Torsional_Energy-OPLS-2005>
8.04601669311523

> <r_mmod_Van_der_Waal_Energy-OPLS-2005>
130.911880493164

> <r_mmod_Electrostatic_Energy-OPLS-2005>
-134.979705810547

> <r_mmod_Solvation_Energy-OPLS-2005>
-209.231170654297

> <b_mmod_Minimization_Converged-OPLS-2005>
0

> <r_mmod_RMS_Derivative-OPLS-2005>
0.289856463670731

$$$$
81
                    3D
 Structure written by MMmdl.
163171  0  0  1  0            999 V2000
  -30.6777  -14.6678   20.5215 C   0  0  0  0  0  0
  -30.4287  -12.4172   19.4721 C   0  0  0  0  0  0
  -29.5087  -12.5022   18.2350 C   0  0  0  0  0  0
  -28.0357  -12.3351   18.6498 C   0  0  0  0  0  0
  -27.6489  -13.2304   19.8557 C   0  0  2  0  0  0
  -28.6914  -13.1332   20.9933 C   0  0  0  0  0  0
  -25.2526  -13.8203   20.5718 C   0  0  0  0  0  0
  -24.1797  -13.0466   20.9196 C   0  0  0  0  0  0
  -24.6381  -11.6933   20.8744 C   0  0  0  0  0  0
  -23.9064  -10.4320   21.0417 C   0  0  0  0  0  0
  -24.3617   -9.4233   21.9197 C   0  0  0  0  0  0
  -23.6290   -8.2267   22.0772 C   0  0  0  0  0  0
  -22.4276   -8.0300   21.3555 C   0  0  0  0  0  0
  -21.9915   -9.0266   20.4649 C   0  0  0  0  0  0
  -22.7239  -10.2146   20.3067 C   0  0  0  0  0  0
  -21.6848   -6.0755   22.5278 C   0  0  0  0  0  0
  -21.4013   -6.5649   23.8215 C   0  0  0  0  0  0
  -21.3659   -5.6798   24.9174 C   0  0  0  0  0  0
  -21.6051   -4.3063   24.7213 C   0  0  0  0  0  0
  -21.8813   -3.8156   23.4330 C   0  0  0  0  0  0
  -21.9195   -4.6983   22.3395 C   0  0  0  0  0  0
  -22.7816  -13.5259   21.1841 C   0  0  0  0  0  0
  -22.1656   -4.2174   21.0974 F   0  0  0  0  0  0
  -21.5628   -3.4543   25.7723 F   0  0  0  0  0  0
  -30.0141  -13.4626   20.4346 N   0  0  0  0  0  0
  -26.2961  -12.9414   20.3293 N   0  0  0  0  0  0
  -25.9309  -11.6561   20.5750 N   0  0  0  0  0  0
  -22.0443  -12.8279   22.0398 N   0  0  0  0  0  0
  -25.4262  -15.1923   20.4151 N   0  0  0  0  0  0
  -31.7783  -14.8126   19.9852 O   0  0  0  0  0  0
  -21.6637   -6.8897   21.4244 O   0  0  0  0  0  0
  -22.3517  -14.5584   20.6695 O   0  0  0  0  0  0
  -24.6277  -31.8531   23.2033 C   0  0  0  0  0  0
  -25.9110  -32.4730   23.8373 C   0  0  1  0  0  0
  -27.2339  -27.3082   20.1091 C   0  0  0  0  0  0
  -25.5902  -33.8541   24.2276 N   0  0  0  0  0  0
  -23.4224  -30.4754   21.5446 C   0  0  2  0  0  0
  -24.8675  -28.9202   20.1142 C   0  0  0  0  0  0
  -22.7485  -29.4555   22.4945 C   0  0  0  0  0  0
  -18.0268  -28.1353   22.8447 C   0  0  0  0  0  0
  -24.1457  -36.7331   23.2632 C   0  0  0  0  0  0
  -25.9643  -30.7788   21.3722 C   0  0  0  0  0  0
  -26.0341  -29.4049   20.7152 C   0  0  0  0  0  0
  -27.2178  -28.6111   20.6971 C   0  0  0  0  0  0
  -26.0383  -26.8658   19.4995 C   0  0  0  0  0  0
  -24.8713  -27.6592   19.4975 C   0  0  0  0  0  0
  -23.6377  -29.8050   20.1606 C   0  0  0  0  0  0
  -25.4079  -36.3071   24.0310 C   0  0  1  0  0  0
  -20.5865  -28.3641   23.1270 C   0  0  2  0  0  0
  -20.6729  -26.9367   22.5380 C   0  0  0  0  0  0
  -19.5725  -26.6355   21.5162 C   0  0  0  0  0  0
  -18.1917  -26.7895   22.1592 C   0  0  0  0  0  0
  -19.1519  -28.8817   23.2843 C   0  0  0  0  0  0
  -18.9449  -30.1421   23.8856 C   0  0  0  0  0  0
  -17.6448  -30.6549   24.0537 C   0  0  0  0  0  0
  -25.9021  -34.9430   23.5100 C   0  0  0  0  0  0
  -16.5335  -29.9056   23.6310 C   0  0  0  0  0  0
  -16.7256  -28.6475   23.0331 C   0  0  0  0  0  0
  -26.4489  -31.6552   25.0754 C   0  0  0  0  0  0
  -25.3755  -31.3673   26.1513 C   0  0  0  0  0  0
  -27.0332  -30.2955   24.6255 C   0  0  0  0  0  0
  -27.6041  -32.4328   25.7513 C   0  0  0  0  0  0
  -27.5573  -37.1802   24.8450 C   0  0  0  0  0  0
  -21.4190  -29.3020   22.3708 N   0  0  0  0  0  0
  -26.4264  -37.3764   23.9412 N   0  0  0  0  0  0
  -24.6907  -31.0537   22.0974 N   0  0  0  0  0  0
  -23.4206  -28.8103   23.3018 O   0  0  0  0  0  0
  -28.3928  -26.5157   20.1548 O   0  0  0  0  0  0
  -26.5621  -34.8897   22.4682 O   0  0  0  0  0  0
  -23.5428  -32.1327   23.7349 O   0  0  0  0  0  0
  -29.1629  -21.8316   19.3252 C   0  0  0  0  0  0
  -28.8904  -22.4626   20.5708 C   0  0  0  0  0  0
  -29.4919  -20.4142   21.6053 C   0  0  0  0  0  0
  -29.7948  -19.7707   20.3590 C   0  0  0  0  0  0
  -29.6999  -19.7565   22.9571 C   0  0  0  0  0  0
  -31.8076  -18.2757   20.9918 C   0  0  0  0  0  0
  -30.9084  -18.1152   18.7338 C   0  0  0  0  0  0
  -30.0783  -15.7542   22.6043 C   0  0  0  0  0  0
  -28.4009  -23.9519   20.8082 C   0  0  0  0  0  0
  -29.5331  -17.0464   20.5428 C   0  0  0  0  0  0
  -28.4769  -25.0985   19.7075 C   0  0  0  0  0  0
  -30.4716  -18.3139   20.2084 C   0  0  0  0  0  0
  -29.5955  -20.5265   19.2283 N   0  0  0  0  0  0
  -29.0497  -21.7092   21.6961 N   0  0  0  0  0  0
  -30.0544  -15.7365   21.1363 N   0  0  0  0  0  0
  -31.4729  -12.5206   19.1721 H   0  0  0  0  0  0
  -30.3493  -11.4337   19.9373 H   0  0  0  0  0  0
  -29.7818  -11.7294   17.5136 H   0  0  0  0  0  0
  -29.6432  -13.4593   17.7289 H   0  0  0  0  0  0
  -27.8912  -11.2857   18.9137 H   0  0  0  0  0  0
  -27.3763  -12.5342   17.8034 H   0  0  0  0  0  0
  -27.6533  -14.2569   19.4858 H   0  0  0  0  0  0
  -28.7044  -12.1320   21.4253 H   0  0  0  0  0  0
  -28.4068  -13.8073   21.8002 H   0  0  0  0  0  0
  -25.2766   -9.5718   22.4768 H   0  0  0  0  0  0
  -23.9991   -7.4688   22.7519 H   0  0  0  0  0  0
  -21.0837   -8.8781   19.8964 H   0  0  0  0  0  0
  -22.3694  -10.9681   19.6169 H   0  0  0  0  0  0
  -21.2004   -7.6155   23.9713 H   0  0  0  0  0  0
  -21.1484   -6.0533   25.9080 H   0  0  0  0  0  0
  -22.0593   -2.7616   23.2810 H   0  0  0  0  0  0
  -22.4011  -11.9933   22.4805 H   0  0  0  0  0  0
  -21.1058  -13.1321   22.2581 H   0  0  0  0  0  0
  -24.6741  -15.8577   20.5542 H   0  0  0  0  0  0
  -26.2956  -15.6299   20.1378 H   0  0  0  0  0  0
  -26.7186  -32.5339   23.1123 H   0  0  0  0  0  0
  -24.9969  -33.9635   25.0375 H   0  0  0  0  0  0
  -22.7154  -31.2937   21.3990 H   0  0  0  0  0  0
  -23.3671  -35.9704   23.3267 H   0  0  0  0  0  0
  -24.3532  -36.9016   22.2053 H   0  0  0  0  0  0
  -23.7275  -37.6547   23.6683 H   0  0  0  0  0  0
  -26.0971  -31.5366   20.5980 H   0  0  0  0  0  0
  -26.8464  -30.8293   21.9999 H   0  0  0  0  0  0
  -28.1207  -28.9822   21.1592 H   0  0  0  0  0  0
  -25.9689  -25.8965   19.0305 H   0  0  0  0  0  0
  -23.9769  -27.2777   19.0261 H   0  0  0  0  0  0
  -23.7691  -30.5774   19.4028 H   0  0  0  0  0  0
  -22.7553  -29.2423   19.8523 H   0  0  0  0  0  0
  -25.1261  -36.1914   25.0800 H   0  0  0  0  0  0
  -20.9928  -28.3195   24.1399 H   0  0  0  0  0  0
  -20.5570  -26.2253   23.3576 H   0  0  0  0  0  0
  -21.6613  -26.7356   22.1236 H   0  0  0  0  0  0
  -19.6876  -25.6266   21.1205 H   0  0  0  0  0  0
  -19.6678  -27.3127   20.6675 H   0  0  0  0  0  0
  -17.4179  -26.6576   21.4015 H   0  0  0  0  0  0
  -18.0357  -26.0043   22.9005 H   0  0  0  0  0  0
  -19.7924  -30.7232   24.2224 H   0  0  0  0  0  0
  -17.5005  -31.6221   24.5161 H   0  0  0  0  0  0
  -15.5331  -30.2958   23.7653 H   0  0  0  0  0  0
  -15.8648  -28.0798   22.7078 H   0  0  0  0  0  0
  -24.5953  -30.6957   25.7902 H   0  0  0  0  0  0
  -24.8876  -32.2801   26.4940 H   0  0  0  0  0  0
  -25.8147  -30.8916   27.0292 H   0  0  0  0  0  0
  -26.2909  -29.6672   24.1301 H   0  0  0  0  0  0
  -27.4010  -29.7249   25.4790 H   0  0  0  0  0  0
  -27.8790  -30.4195   23.9493 H   0  0  0  0  0  0
  -27.2650  -33.3641   26.2052 H   0  0  0  0  0  0
  -28.3865  -32.6883   25.0357 H   0  0  0  0  0  0
  -28.0687  -31.8499   26.5463 H   0  0  0  0  0  0
  -28.2573  -38.0126   24.7528 H   0  0  0  0  0  0
  -28.1120  -36.2660   24.6245 H   0  0  0  0  0  0
  -27.2304  -37.1447   25.8862 H   0  0  0  0  0  0
  -20.9364  -29.8824   21.6988 H   0  0  0  0  0  0
  -26.0136  -38.2825   24.1444 H   0  0  0  0  0  0
  -29.0492  -22.3706   18.3953 H   0  0  0  0  0  0
  -29.6147  -18.6739   22.9180 H   0  0  0  0  0  0
  -28.9711  -20.1109   23.6868 H   0  0  0  0  0  0
  -30.6901  -20.0171   23.3322 H   0  0  0  0  0  0
  -32.4504  -19.1072   20.6991 H   0  0  0  0  0  0
  -32.3686  -17.3620   20.7915 H   0  0  0  0  0  0
  -31.6922  -18.3307   22.0698 H   0  0  0  0  0  0
  -31.6068  -18.8883   18.4076 H   0  0  0  0  0  0
  -30.0540  -18.1458   18.0565 H   0  0  0  0  0  0
  -31.4012  -17.1553   18.5829 H   0  0  0  0  0  0
  -30.8841  -16.3910   22.9669 H   0  0  0  0  0  0
  -30.2451  -14.7625   23.0299 H   0  0  0  0  0  0
  -29.1396  -16.1252   23.0162 H   0  0  0  0  0  0
  -28.9725  -24.3103   21.6638 H   0  0  0  0  0  0
  -27.3724  -23.8968   21.1652 H   0  0  0  0  0  0
  -28.9629  -16.7891   19.6491 H   0  0  0  0  0  0
  -28.7559  -17.4022   21.2164 H   0  0  0  0  0  0
  -27.8077  -24.8785   18.8787 H   0  0  0  0  0  0
  -29.4689  -25.0260   19.2658 H   0  0  0  0  0  0
  1 25  1  0  0  0
  1 30  2  0  0  0
  1 85  1  0  0  0
  2  3  1  0  0  0
  2 25  1  0  0  0
  2 86  1  0  0  0
  2 87  1  0  0  0
  3  4  1  0  0  0
  3 88  1  0  0  0
  3 89  1  0  0  0
  4  5  1  0  0  0
  4 90  1  0  0  0
  4 91  1  0  0  0
  5  6  1  0  0  0
  5 26  1  0  0  0
  5 92  1  0  0  0
  6 25  1  0  0  0
  6 93  1  0  0  0
  6 94  1  0  0  0
  7  8  2  0  0  0
  7 26  1  0  0  0
  7 29  1  0  0  0
  8  9  1  0  0  0
  8 22  1  0  0  0
  9 10  1  0  0  0
  9 27  2  0  0  0
 10 11  2  0  0  0
 10 15  1  0  0  0
 11 12  1  0  0  0
 11 95  1  0  0  0
 12 13  2  0  0  0
 12 96  1  0  0  0
 13 14  1  0  0  0
 13 31  1  0  0  0
 14 15  2  0  0  0
 14 97  1  0  0  0
 15 98  1  0  0  0
 16 17  2  0  0  0
 16 21  1  0  0  0
 16 31  1  0  0  0
 17 18  1  0  0  0
 17 99  1  0  0  0
 18 19  2  0  0  0
 18100  1  0  0  0
 19 20  1  0  0  0
 19 24  1  0  0  0
 20 21  2  0  0  0
 20101  1  0  0  0
 21 23  1  0  0  0
 22 28  1  0  0  0
 22 32  2  0  0  0
 26 27  1  0  0  0
 28102  1  0  0  0
 28103  1  0  0  0
 29104  1  0  0  0
 29105  1  0  0  0
 33 34  1  0  0  0
 33 66  1  0  0  0
 33 70  2  0  0  0
 34 36  1  0  0  0
 34 59  1  0  0  0
 34106  1  0  0  0
 35 44  2  0  0  0
 35 45  1  0  0  0
 35 68  1  0  0  0
 36 56  1  0  0  0
 36107  1  0  0  0
 37 39  1  0  0  0
 37 47  1  0  0  0
 37 66  1  0  0  0
 37108  1  0  0  0
 38 43  2  0  0  0
 38 46  1  0  0  0
 38 47  1  0  0  0
 39 64  1  0  0  0
 39 67  2  0  0  0
 40 52  1  0  0  0
 40 53  2  0  0  0
 40 58  1  0  0  0
 41109  1  0  0  0
 41110  1  0  0  0
 41111  1  0  0  0
 41 48  1  0  0  0
 42 43  1  0  0  0
 42 66  1  0  0  0
 42112  1  0  0  0
 42113  1  0  0  0
 43 44  1  0  0  0
 44114  1  0  0  0
 45 46  2  0  0  0
 45115  1  0  0  0
 46116  1  0  0  0
 47117  1  0  0  0
 47118  1  0  0  0
 48 56  1  0  0  0
 48 65  1  0  0  0
 48119  1  0  0  0
 49 50  1  0  0  0
 49 53  1  0  0  0
 49 64  1  0  0  0
 49120  1  0  0  0
 50 51  1  0  0  0
 50121  1  0  0  0
 50122  1  0  0  0
 51 52  1  0  0  0
 51123  1  0  0  0
 51124  1  0  0  0
 52125  1  0  0  0
 52126  1  0  0  0
 53 54  1  0  0  0
 54 55  2  0  0  0
 54127  1  0  0  0
 55 57  1  0  0  0
 55128  1  0  0  0
 56 69  2  0  0  0
 57 58  2  0  0  0
 57129  1  0  0  0
 58130  1  0  0  0
 59 60  1  0  0  0
 59 61  1  0  0  0
 59 62  1  0  0  0
 60131  1  0  0  0
 60132  1  0  0  0
 60133  1  0  0  0
 61134  1  0  0  0
 61135  1  0  0  0
 61136  1  0  0  0
 62137  1  0  0  0
 62138  1  0  0  0
 62139  1  0  0  0
 63 65  1  0  0  0
 63140  1  0  0  0
 63141  1  0  0  0
 63142  1  0  0  0
 64143  1  0  0  0
 65144  1  0  0  0
 68 81  1  0  0  0
 71 72  2  0  0  0
 71 83  1  0  0  0
 71145  1  0  0  0
 72 79  1  0  0  0
 72 84  1  0  0  0
 73 74  1  0  0  0
 73 75  1  0  0  0
 73 84  2  0  0  0
 74 82  1  0  0  0
 74 83  2  0  0  0
 75146  1  0  0  0
 75147  1  0  0  0
 75148  1  0  0  0
 76149  1  0  0  0
 76150  1  0  0  0
 76151  1  0  0  0
 76 82  1  0  0  0
 77 82  1  0  0  0
 77152  1  0  0  0
 77153  1  0  0  0
 77154  1  0  0  0
 78 85  1  0  0  0
 78155  1  0  0  0
 78156  1  0  0  0
 78157  1  0  0  0
 79 81  1  0  0  0
 79158  1  0  0  0
 79159  1  0  0  0
 80 82  1  0  0  0
 80 85  1  0  0  0
 80160  1  0  0  0
 80161  1  0  0  0
 81162  1  0  0  0
 81163  1  0  0  0
M  ISO  4   1 100  68 101  81 101  85 100
M  END
> <chiral flag>
0

> <version>
0

> <s_m_source_file>
/data/baiqing/PycharmProjects/Reinvent-master-3.2/result/LINK_invent/BTK/process_docking_weight1_custom_sum_contain_oxygen_bond_distance_aromatic_linkinvent_7_9_3/rearranged_h_0056.sdf

> <i_m_source_file_index>
80

> <r_mmod_Potential_Energy-OPLS-2005>
318.072937011719

> <r_mmod_Stretch_Energy-OPLS-2005>
109.751075744629

> <r_mmod_Bend_Energy-OPLS-2005>
193.642593383789

> <r_mmod_Torsional_Energy-OPLS-2005>
301.485046386719

> <r_mmod_Improper_Torsional_Energy-OPLS-2005>
2.98791909217834

> <r_mmod_Van_der_Waal_Energy-OPLS-2005>
144.450897216797

> <r_mmod_Electrostatic_Energy-OPLS-2005>
-284.342163085938

> <r_mmod_Solvation_Energy-OPLS-2005>
-203.322738647461

> <b_mmod_Minimization_Converged-OPLS-2005>
0

> <r_mmod_RMS_Derivative-OPLS-2005>
3.44963431358337

$$$$
82
                    3D
 Structure written by MMmdl.
151159  0  0  1  0            999 V2000
  -30.3743  -15.4432   20.3303 C   0  0  0  0  0  0
  -30.4361  -12.9461   19.5048 C   0  0  0  0  0  0
  -29.5346  -12.5724   18.2943 C   0  0  0  0  0  0
  -28.1160  -12.2176   18.7723 C   0  0  0  0  0  0
  -27.5985  -13.2470   19.7972 C   0  0  2  0  0  0
  -28.6256  -13.5407   20.9163 C   0  0  0  0  0  0
  -25.2395  -13.8079   20.5631 C   0  0  0  0  0  0
  -24.1743  -13.0352   20.9257 C   0  0  0  0  0  0
  -24.6369  -11.6836   20.8827 C   0  0  0  0  0  0
  -23.9051  -10.4227   21.0464 C   0  0  0  0  0  0
  -24.3585   -9.4152   21.9254 C   0  0  0  0  0  0
  -23.6257   -8.2185   22.0795 C   0  0  0  0  0  0
  -22.4269   -8.0216   21.3530 C   0  0  0  0  0  0
  -21.9871   -9.0226   20.4687 C   0  0  0  0  0  0
  -22.7207  -10.2099   20.3126 C   0  0  0  0  0  0
  -21.6833   -6.0713   22.5277 C   0  0  0  0  0  0
  -21.4007   -6.5667   23.8204 C   0  0  0  0  0  0
  -21.3634   -5.6828   24.9167 C   0  0  0  0  0  0
  -21.6016   -4.3086   24.7234 C   0  0  0  0  0  0
  -21.8823   -3.8152   23.4380 C   0  0  0  0  0  0
  -21.9196   -4.6940   22.3415 C   0  0  0  0  0  0
  -22.7774  -13.5141   21.1896 C   0  0  0  0  0  0
  -22.1664   -4.2114   21.0986 F   0  0  0  0  0  0
  -21.5610   -3.4599   25.7766 F   0  0  0  0  0  0
  -29.8194  -14.1121   20.2560 N   0  0  0  0  0  0
  -26.2774  -12.9294   20.3136 N   0  0  0  0  0  0
  -25.9285  -11.6438   20.5736 N   0  0  0  0  0  0
  -22.0474  -12.8163   22.0504 N   0  0  0  0  0  0
  -25.4035  -15.1741   20.3743 N   0  0  0  0  0  0
  -31.6106  -15.3902   20.2291 O   0  0  0  0  0  0
  -21.6638   -6.8820   21.4216 O   0  0  0  0  0  0
  -22.3493  -14.5448   20.6719 O   0  0  0  0  0  0
  -24.6730  -31.8122   23.1629 C   0  0  0  0  0  0
  -25.9381  -32.4534   23.8124 C   0  0  1  0  0  0
  -27.2309  -26.8516   20.1991 C   0  0  0  0  0  0
  -25.5974  -33.8345   24.1996 N   0  0  0  0  0  0
  -23.4935  -30.4193   21.5133 C   0  0  2  0  0  0
  -24.9491  -28.7891   20.1239 C   0  0  0  0  0  0
  -22.7732  -29.4361   22.4749 C   0  0  0  0  0  0
  -18.0332  -28.1396   22.8473 C   0  0  0  0  0  0
  -24.1488  -36.7189   23.2652 C   0  0  0  0  0  0
  -26.0693  -30.6002   21.3975 C   0  0  0  0  0  0
  -26.1425  -29.1790   20.7464 C   0  0  0  0  0  0
  -27.2789  -28.2410   20.7436 C   0  0  0  0  0  0
  -25.9999  -26.6263   19.5423 C   0  0  0  0  0  0
  -24.9079  -27.5315   19.4964 C   0  0  0  0  0  0
  -23.7393  -29.7248   20.1451 C   0  0  0  0  0  0
  -25.4124  -36.2914   24.0281 C   0  0  1  0  0  0
  -20.5960  -28.3710   23.1173 C   0  0  2  0  0  0
  -20.6801  -26.9361   22.5447 C   0  0  0  0  0  0
  -19.5789  -26.6334   21.5247 C   0  0  0  0  0  0
  -18.1968  -26.7933   22.1648 C   0  0  0  0  0  0
  -19.1591  -28.8895   23.2785 C   0  0  0  0  0  0
  -18.9480  -30.1508   23.8809 C   0  0  0  0  0  0
  -17.6446  -30.6606   24.0474 C   0  0  0  0  0  0
  -25.9105  -34.9317   23.4970 C   0  0  0  0  0  0
  -16.5345  -29.9051   23.6319 C   0  0  0  0  0  0
  -16.7289  -28.6448   23.0388 C   0  0  0  0  0  0
  -26.4587  -31.6553   25.0723 C   0  0  0  0  0  0
  -25.3696  -31.3852   26.1369 C   0  0  0  0  0  0
  -27.0484  -30.2900   24.6536 C   0  0  0  0  0  0
  -27.6032  -32.4384   25.7562 C   0  0  0  0  0  0
  -27.5535  -37.1743   24.8458 C   0  0  0  0  0  0
  -21.4375  -29.2989   22.3518 N   0  0  0  0  0  0
  -26.4253  -37.3659   23.9402 N   0  0  0  0  0  0
  -24.7693  -30.9710   22.0789 N   0  0  0  0  0  0
  -23.4250  -28.7948   23.3029 O   0  0  0  0  0  0
  -28.2270  -25.7172   20.1833 O   0  0  0  0  0  0
  -26.5715  -34.8872   22.4578 O   0  0  0  0  0  0
  -23.5780  -32.1093   23.6672 O   0  0  0  0  0  0
  -28.5127  -21.8375   18.8476 C   0  0  0  0  0  0
  -28.5822  -22.4865   20.0821 C   0  0  0  0  0  0
  -29.2646  -20.0129   20.1264 C   0  0  0  0  0  0
  -28.9508  -19.5967   17.7100 C   0  0  0  0  0  0
  -28.1805  -16.7466   20.1656 C   0  0  0  0  0  0
  -27.9808  -24.0971   20.5728 C   0  0  0  0  0  0
  -30.0096  -18.4262   20.5305 C   0  0  0  0  0  0
  -28.9013  -20.4690   18.8937 N   0  0  0  0  0  0
  -29.0530  -21.2715   20.8198 N   0  3  0  0  0  0
  -29.6302  -16.7805   20.3271 N   0  0  0  0  0  0
  -31.4326  -13.2066   19.1398 H   0  0  0  0  0  0
  -30.5883  -12.0924   20.1675 H   0  0  0  0  0  0
  -29.9706  -11.7339   17.7487 H   0  0  0  0  0  0
  -29.4828  -13.4073   17.5920 H   0  0  0  0  0  0
  -28.1695  -11.2422   19.2603 H   0  0  0  0  0  0
  -27.4263  -12.1101   17.9330 H   0  0  0  0  0  0
  -27.4631  -14.1441   19.1980 H   0  0  0  0  0  0
  -28.8614  -12.6494   21.5017 H   0  0  0  0  0  0
  -28.2146  -14.2576   21.6276 H   0  0  0  0  0  0
  -25.2722   -9.5652   22.4852 H   0  0  0  0  0  0
  -23.9982   -7.4559   22.7503 H   0  0  0  0  0  0
  -21.0817   -8.8732   19.8980 H   0  0  0  0  0  0
  -22.3656  -10.9649   19.6266 H   0  0  0  0  0  0
  -21.2020   -7.6181   23.9680 H   0  0  0  0  0  0
  -21.1431   -6.0582   25.9063 H   0  0  0  0  0  0
  -22.0640   -2.7619   23.2889 H   0  0  0  0  0  0
  -22.4043  -11.9751   22.4765 H   0  0  0  0  0  0
  -21.1115  -13.1187   22.2747 H   0  0  0  0  0  0
  -24.6277  -15.8299   20.4165 H   0  0  0  0  0  0
  -26.2326  -15.5660   19.9448 H   0  0  0  0  0  0
  -26.7489  -32.5066   23.0865 H   0  0  0  0  0  0
  -25.0033  -33.9406   25.0075 H   0  0  0  0  0  0
  -22.8112  -31.2525   21.3309 H   0  0  0  0  0  0
  -23.3730  -35.9545   23.3298 H   0  0  0  0  0  0
  -24.3557  -36.8874   22.2076 H   0  0  0  0  0  0
  -23.7297  -37.6390   23.6733 H   0  0  0  0  0  0
  -26.2470  -31.3350   20.6109 H   0  0  0  0  0  0
  -26.9287  -30.6665   22.0554 H   0  0  0  0  0  0
  -28.1931  -28.5458   21.2352 H   0  0  0  0  0  0
  -25.8575  -25.6630   19.0728 H   0  0  0  0  0  0
  -24.0051  -27.2190   18.9858 H   0  0  0  0  0  0
  -23.9019  -30.4824   19.3775 H   0  0  0  0  0  0
  -22.8518  -29.1763   19.8267 H   0  0  0  0  0  0
  -25.1340  -36.1682   25.0769 H   0  0  0  0  0  0
  -21.0043  -28.3379   24.1293 H   0  0  0  0  0  0
  -20.5631  -26.2332   23.3700 H   0  0  0  0  0  0
  -21.6668  -26.7260   22.1285 H   0  0  0  0  0  0
  -19.6919  -25.6239   21.1280 H   0  0  0  0  0  0
  -19.6794  -27.3153   20.6796 H   0  0  0  0  0  0
  -17.4230  -26.6630   21.4067 H   0  0  0  0  0  0
  -18.0377  -26.0133   22.9084 H   0  0  0  0  0  0
  -19.7936  -30.7346   24.2197 H   0  0  0  0  0  0
  -17.4955  -31.6279   24.5077 H   0  0  0  0  0  0
  -15.5322  -30.2915   23.7651 H   0  0  0  0  0  0
  -15.8701  -28.0727   22.7160 H   0  0  0  0  0  0
  -24.5862  -30.7204   25.7700 H   0  0  0  0  0  0
  -24.8920  -32.3090   26.4652 H   0  0  0  0  0  0
  -25.7935  -30.9129   27.0246 H   0  0  0  0  0  0
  -26.3178  -29.6560   24.1495 H   0  0  0  0  0  0
  -27.3906  -29.7297   25.5254 H   0  0  0  0  0  0
  -27.9172  -30.4028   24.0039 H   0  0  0  0  0  0
  -27.2525  -33.3685   26.2034 H   0  0  0  0  0  0
  -28.3926  -32.6947   25.0489 H   0  0  0  0  0  0
  -28.0599  -31.8599   26.5599 H   0  0  0  0  0  0
  -28.2538  -38.0035   24.7437 H   0  0  0  0  0  0
  -28.1025  -36.2562   24.6348 H   0  0  0  0  0  0
  -27.2241  -37.1475   25.8852 H   0  0  0  0  0  0
  -20.9663  -29.8764   21.6682 H   0  0  0  0  0  0
  -26.0080  -38.2708   24.1414 H   0  0  0  0  0  0
  -28.1796  -22.2576   17.9101 H   0  0  0  0  0  0
  -28.6742  -20.1669   16.8223 H   0  0  0  0  0  0
  -28.2403  -18.7763   17.8115 H   0  0  0  0  0  0
  -29.9616  -19.2072   17.5762 H   0  0  0  0  0  0
  -27.7047  -16.3065   21.0424 H   0  0  0  0  0  0
  -27.7586  -17.7439   20.0752 H   0  0  0  0  0  0
  -27.8870  -16.2302   19.2515 H   0  0  0  0  0  0
  -26.8973  -23.9932   20.4872 H   0  0  0  0  0  0
  -28.1331  -24.1032   21.6536 H   0  0  0  0  0  0
  -31.0232  -18.5264   20.1437 H   0  0  0  0  0  0
  -30.1308  -18.5052   21.6113 H   0  0  0  0  0  0
  -29.2348  -21.3308   21.8158 H   0  0  0  0  0  0
  1 25  1  0  0  0
  1 30  2  0  0  0
  1 80  1  0  0  0
  2  3  1  0  0  0
  2 25  1  0  0  0
  2 81  1  0  0  0
  2 82  1  0  0  0
  3  4  1  0  0  0
  3 83  1  0  0  0
  3 84  1  0  0  0
  4  5  1  0  0  0
  4 85  1  0  0  0
  4 86  1  0  0  0
  5  6  1  0  0  0
  5 26  1  0  0  0
  5 87  1  0  0  0
  6 25  1  0  0  0
  6 88  1  0  0  0
  6 89  1  0  0  0
  7  8  2  0  0  0
  7 26  1  0  0  0
  7 29  1  0  0  0
  8  9  1  0  0  0
  8 22  1  0  0  0
  9 10  1  0  0  0
  9 27  2  0  0  0
 10 11  2  0  0  0
 10 15  1  0  0  0
 11 12  1  0  0  0
 11 90  1  0  0  0
 12 13  2  0  0  0
 12 91  1  0  0  0
 13 14  1  0  0  0
 13 31  1  0  0  0
 14 15  2  0  0  0
 14 92  1  0  0  0
 15 93  1  0  0  0
 16 17  2  0  0  0
 16 21  1  0  0  0
 16 31  1  0  0  0
 17 18  1  0  0  0
 17 94  1  0  0  0
 18 19  2  0  0  0
 18 95  1  0  0  0
 19 20  1  0  0  0
 19 24  1  0  0  0
 20 21  2  0  0  0
 20 96  1  0  0  0
 21 23  1  0  0  0
 22 28  1  0  0  0
 22 32  2  0  0  0
 26 27  1  0  0  0
 28 97  1  0  0  0
 28 98  1  0  0  0
 29 99  1  0  0  0
 29100  1  0  0  0
 33 34  1  0  0  0
 33 66  1  0  0  0
 33 70  2  0  0  0
 34 36  1  0  0  0
 34 59  1  0  0  0
 34101  1  0  0  0
 35 44  2  0  0  0
 35 45  1  0  0  0
 35 68  1  0  0  0
 36 56  1  0  0  0
 36102  1  0  0  0
 37 39  1  0  0  0
 37 47  1  0  0  0
 37 66  1  0  0  0
 37103  1  0  0  0
 38 43  2  0  0  0
 38 46  1  0  0  0
 38 47  1  0  0  0
 39 64  1  0  0  0
 39 67  2  0  0  0
 40 52  1  0  0  0
 40 53  2  0  0  0
 40 58  1  0  0  0
 41104  1  0  0  0
 41105  1  0  0  0
 41106  1  0  0  0
 41 48  1  0  0  0
 42 43  1  0  0  0
 42 66  1  0  0  0
 42107  1  0  0  0
 42108  1  0  0  0
 43 44  1  0  0  0
 44109  1  0  0  0
 45 46  2  0  0  0
 45110  1  0  0  0
 46111  1  0  0  0
 47112  1  0  0  0
 47113  1  0  0  0
 48 56  1  0  0  0
 48 65  1  0  0  0
 48114  1  0  0  0
 49 50  1  0  0  0
 49 53  1  0  0  0
 49 64  1  0  0  0
 49115  1  0  0  0
 50 51  1  0  0  0
 50116  1  0  0  0
 50117  1  0  0  0
 51 52  1  0  0  0
 51118  1  0  0  0
 51119  1  0  0  0
 52120  1  0  0  0
 52121  1  0  0  0
 53 54  1  0  0  0
 54 55  2  0  0  0
 54122  1  0  0  0
 55 57  1  0  0  0
 55123  1  0  0  0
 56 69  2  0  0  0
 57 58  2  0  0  0
 57124  1  0  0  0
 58125  1  0  0  0
 59 60  1  0  0  0
 59 61  1  0  0  0
 59 62  1  0  0  0
 60126  1  0  0  0
 60127  1  0  0  0
 60128  1  0  0  0
 61129  1  0  0  0
 61130  1  0  0  0
 61131  1  0  0  0
 62132  1  0  0  0
 62133  1  0  0  0
 62134  1  0  0  0
 63 65  1  0  0  0
 63135  1  0  0  0
 63136  1  0  0  0
 63137  1  0  0  0
 64138  1  0  0  0
 65139  1  0  0  0
 68 76  1  0  0  0
 71 72  2  0  0  0
 71 78  1  0  0  0
 71140  1  0  0  0
 72 76  1  0  0  0
 72 79  1  0  0  0
 73 77  1  0  0  0
 73 78  1  0  0  0
 73 79  2  0  0  0
 74 78  1  0  0  0
 74141  1  0  0  0
 74142  1  0  0  0
 74143  1  0  0  0
 75 80  1  0  0  0
 75144  1  0  0  0
 75145  1  0  0  0
 75146  1  0  0  0
 76147  1  0  0  0
 76148  1  0  0  0
 77 80  1  0  0  0
 77149  1  0  0  0
 77150  1  0  0  0
 79151  1  0  0  0
M  CHG  1  79   1
M  ISO  4   1 100  68 101  76 101  80 100
M  END
> <chiral flag>
0

> <version>
0

> <s_m_source_file>
/data/baiqing/PycharmProjects/Reinvent-master-3.2/result/LINK_invent/BTK/process_docking_weight1_custom_sum_contain_oxygen_bond_distance_aromatic_linkinvent_7_9_3/rearranged_h_0056.sdf

> <i_m_source_file_index>
81

> <r_mmod_Potential_Energy-OPLS-2005>
1585.47790527344

> <r_mmod_Stretch_Energy-OPLS-2005>
704.734741210938

> <r_mmod_Bend_Energy-OPLS-2005>
497.4208984375

> <r_mmod_Torsional_Energy-OPLS-2005>
272.610931396484

> <r_mmod_Improper_Torsional_Energy-OPLS-2005>
6.91695976257324

> <r_mmod_Van_der_Waal_Energy-OPLS-2005>
109.127662658691

> <r_mmod_Electrostatic_Energy-OPLS-2005>
-202.738571166992

> <r_mmod_Solvation_Energy-OPLS-2005>
-433.038513183594

> <b_mmod_Minimization_Converged-OPLS-2005>
0

> <r_mmod_RMS_Derivative-OPLS-2005>
7.19376182556152

$$$$
83
                    3D
 Structure written by MMmdl.
162170  0  0  1  0            999 V2000
  -30.6142  -14.7427   20.5328 C   0  0  0  0  0  0
  -30.4413  -12.4673   19.4804 C   0  0  0  0  0  0
  -29.5210  -12.5308   18.2405 C   0  0  0  0  0  0
  -28.0425  -12.3519   18.6399 C   0  0  0  0  0  0
  -27.6476  -13.2296   19.8564 C   0  0  2  0  0  0
  -28.6839  -13.1211   20.9925 C   0  0  0  0  0  0
  -25.2547  -13.8189   20.5693 C   0  0  0  0  0  0
  -24.1823  -13.0441   20.9176 C   0  0  0  0  0  0
  -24.6402  -11.6913   20.8716 C   0  0  0  0  0  0
  -23.9070  -10.4286   21.0386 C   0  0  0  0  0  0
  -24.3623   -9.4206   21.9165 C   0  0  0  0  0  0
  -23.6307   -8.2243   22.0743 C   0  0  0  0  0  0
  -22.4289   -8.0277   21.3533 C   0  0  0  0  0  0
  -21.9913   -9.0241   20.4632 C   0  0  0  0  0  0
  -22.7240  -10.2119   20.3042 C   0  0  0  0  0  0
  -21.6872   -6.0734   22.5275 C   0  0  0  0  0  0
  -21.4022   -6.5645   23.8202 C   0  0  0  0  0  0
  -21.3659   -5.6798   24.9165 C   0  0  0  0  0  0
  -21.6052   -4.3064   24.7219 C   0  0  0  0  0  0
  -21.8824   -3.8156   23.4346 C   0  0  0  0  0  0
  -21.9203   -4.6966   22.3402 C   0  0  0  0  0  0
  -22.7849  -13.5221   21.1861 C   0  0  0  0  0  0
  -22.1662   -4.2161   21.0975 F   0  0  0  0  0  0
  -21.5633   -3.4529   25.7719 F   0  0  0  0  0  0
  -29.9930  -13.5075   20.4413 N   0  0  0  0  0  0
  -26.2961  -12.9384   20.3275 N   0  0  0  0  0  0
  -25.9338  -11.6527   20.5734 N   0  0  0  0  0  0
  -22.0521  -12.8170   22.0410 N   0  0  0  0  0  0
  -25.4298  -15.1915   20.4148 N   0  0  0  0  0  0
  -31.7363  -14.8909   20.0362 O   0  0  0  0  0  0
  -21.6665   -6.8861   21.4228 O   0  0  0  0  0  0
  -22.3504  -14.5526   20.6721 O   0  0  0  0  0  0
  -24.6319  -31.8554   23.1979 C   0  0  0  0  0  0
  -25.9139  -32.4762   23.8334 C   0  0  1  0  0  0
  -27.2264  -27.2626   20.1259 C   0  0  0  0  0  0
  -25.5927  -33.8563   24.2256 N   0  0  0  0  0  0
  -23.4286  -30.4764   21.5418 C   0  0  2  0  0  0
  -24.8762  -28.9221   20.1131 C   0  0  0  0  0  0
  -22.7507  -29.4604   22.4927 C   0  0  0  0  0  0
  -18.0291  -28.1389   22.8474 C   0  0  0  0  0  0
  -24.1487  -36.7284   23.2639 C   0  0  0  0  0  0
  -25.9739  -30.7703   21.3756 C   0  0  0  0  0  0
  -26.0491  -29.3925   20.7166 C   0  0  0  0  0  0
  -27.2268  -28.5767   20.7080 C   0  0  0  0  0  0
  -26.0256  -26.8597   19.4994 C   0  0  0  0  0  0
  -24.8699  -27.6633   19.4948 C   0  0  0  0  0  0
  -23.6470  -29.8083   20.1587 C   0  0  0  0  0  0
  -25.4113  -36.3073   24.0327 C   0  0  1  0  0  0
  -20.5896  -28.3701   23.1269 C   0  0  2  0  0  0
  -20.6782  -26.9414   22.5413 C   0  0  0  0  0  0
  -19.5760  -26.6381   21.5215 C   0  0  0  0  0  0
  -18.1936  -26.7933   22.1614 C   0  0  0  0  0  0
  -19.1546  -28.8852   23.2872 C   0  0  0  0  0  0
  -18.9464  -30.1455   23.8897 C   0  0  0  0  0  0
  -17.6460  -30.6580   24.0557 C   0  0  0  0  0  0
  -25.9055  -34.9449   23.5088 C   0  0  0  0  0  0
  -16.5347  -29.9077   23.6331 C   0  0  0  0  0  0
  -16.7278  -28.6494   23.0349 C   0  0  0  0  0  0
  -26.4494  -31.6590   25.0726 C   0  0  0  0  0  0
  -25.3705  -31.3726   26.1425 C   0  0  0  0  0  0
  -27.0358  -30.3016   24.6215 C   0  0  0  0  0  0
  -27.6045  -32.4327   25.7503 C   0  0  0  0  0  0
  -27.5580  -37.1795   24.8452 C   0  0  0  0  0  0
  -21.4212  -29.3051   22.3661 N   0  0  0  0  0  0
  -26.4284  -37.3772   23.9408 N   0  0  0  0  0  0
  -24.6975  -31.0517   22.0952 N   0  0  0  0  0  0
  -23.4199  -28.8135   23.3026 O   0  0  0  0  0  0
  -28.3370  -26.3846   20.1636 O   0  0  0  0  0  0
  -26.5619  -34.8916   22.4663 O   0  0  0  0  0  0
  -23.5472  -32.1370   23.7265 O   0  0  0  0  0  0
  -27.9554  -21.5046   20.3704 C   0  0  0  0  0  0
  -30.0852  -21.2595   20.5111 C   0  0  0  0  0  0
  -29.1516  -22.2907   20.3706 C   0  0  0  0  0  0
  -31.6189  -18.6712   21.0121 C   0  0  0  0  0  0
  -30.2114  -24.1049   18.9805 C   0  0  0  0  0  0
  -30.2259  -24.3121   21.4728 C   0  0  0  0  0  0
  -29.6626  -15.9280   22.4475 C   0  0  0  0  0  0
  -29.6462  -17.2065   20.3058 C   0  0  0  0  0  0
  -28.1214  -24.8904   20.1736 C   0  0  0  0  0  0
  -30.0839  -18.6085   21.0115 C   0  0  2  0  0  0
  -29.3844  -23.8763   20.2578 C   0  0  0  0  0  0
  -28.1553  -20.1765   20.5077 N   0  0  0  0  0  0
  -29.4950  -19.9709   20.5910 N   0  0  0  0  0  0
  -29.8948  -15.8481   21.0002 N   0  0  0  0  0  0
  -31.4808  -12.6025   19.1772 H   0  0  0  0  0  0
  -30.3947  -11.4787   19.9410 H   0  0  0  0  0  0
  -29.8042  -11.7636   17.5182 H   0  0  0  0  0  0
  -29.6557  -13.4904   17.7388 H   0  0  0  0  0  0
  -27.8932  -11.2977   18.8790 H   0  0  0  0  0  0
  -27.3918  -12.5698   17.7909 H   0  0  0  0  0  0
  -27.6545  -14.2620   19.5070 H   0  0  0  0  0  0
  -28.7198  -12.1044   21.3876 H   0  0  0  0  0  0
  -28.3719  -13.7453   21.8255 H   0  0  0  0  0  0
  -25.2775   -9.5708   22.4729 H   0  0  0  0  0  0
  -24.0033   -7.4651   22.7473 H   0  0  0  0  0  0
  -21.0841   -8.8750   19.8939 H   0  0  0  0  0  0
  -22.3683  -10.9659   19.6157 H   0  0  0  0  0  0
  -21.1991   -7.6147   23.9695 H   0  0  0  0  0  0
  -21.1494   -6.0533   25.9066 H   0  0  0  0  0  0
  -22.0600   -2.7617   23.2846 H   0  0  0  0  0  0
  -22.4152  -11.9828   22.4789 H   0  0  0  0  0  0
  -21.1130  -13.1175   22.2613 H   0  0  0  0  0  0
  -24.6771  -15.8581   20.5443 H   0  0  0  0  0  0
  -26.2957  -15.6286   20.1235 H   0  0  0  0  0  0
  -26.7203  -32.5399   23.1078 H   0  0  0  0  0  0
  -25.0067  -33.9706   25.0390 H   0  0  0  0  0  0
  -22.7258  -31.2989   21.3938 H   0  0  0  0  0  0
  -23.3767  -35.9595   23.3269 H   0  0  0  0  0  0
  -24.3579  -36.8941   22.2059 H   0  0  0  0  0  0
  -23.7214  -37.6464   23.6686 H   0  0  0  0  0  0
  -26.1108  -31.5317   20.6065 H   0  0  0  0  0  0
  -26.8521  -30.8208   22.0074 H   0  0  0  0  0  0
  -28.1264  -28.9364   21.1867 H   0  0  0  0  0  0
  -25.9454  -25.9027   19.0086 H   0  0  0  0  0  0
  -23.9698  -27.2994   19.0177 H   0  0  0  0  0  0
  -23.7699  -30.5834   19.4013 H   0  0  0  0  0  0
  -22.7659  -29.2404   19.8547 H   0  0  0  0  0  0
  -25.1306  -36.1921   25.0818 H   0  0  0  0  0  0
  -20.9983  -28.3272   24.1393 H   0  0  0  0  0  0
  -20.5678  -26.2308   23.3621 H   0  0  0  0  0  0
  -21.6646  -26.7435   22.1205 H   0  0  0  0  0  0
  -19.6922  -25.6288   21.1255 H   0  0  0  0  0  0
  -19.6710  -27.3184   20.6743 H   0  0  0  0  0  0
  -17.4213  -26.6682   21.4008 H   0  0  0  0  0  0
  -18.0327  -26.0076   22.9012 H   0  0  0  0  0  0
  -19.7932  -30.7276   24.2274 H   0  0  0  0  0  0
  -17.5005  -31.6265   24.5152 H   0  0  0  0  0  0
  -15.5353  -30.2973   23.7658 H   0  0  0  0  0  0
  -15.8678  -28.0814   22.7076 H   0  0  0  0  0  0
  -24.5883  -30.7093   25.7713 H   0  0  0  0  0  0
  -24.8901  -32.2895   26.4858 H   0  0  0  0  0  0
  -25.8003  -30.8869   27.0196 H   0  0  0  0  0  0
  -26.2959  -29.6746   24.1228 H   0  0  0  0  0  0
  -27.4035  -29.7296   25.4746 H   0  0  0  0  0  0
  -27.8832  -30.4303   23.9473 H   0  0  0  0  0  0
  -27.2655  -33.3620   26.2094 H   0  0  0  0  0  0
  -28.3855  -32.6897   25.0333 H   0  0  0  0  0  0
  -28.0718  -31.8446   26.5410 H   0  0  0  0  0  0
  -28.2572  -38.0120   24.7537 H   0  0  0  0  0  0
  -28.1107  -36.2654   24.6238 H   0  0  0  0  0  0
  -27.2301  -37.1385   25.8854 H   0  0  0  0  0  0
  -20.9400  -29.8769   21.6858 H   0  0  0  0  0  0
  -26.0166  -38.2840   24.1438 H   0  0  0  0  0  0
  -26.9379  -21.8631   20.2971 H   0  0  0  0  0  0
  -31.1576  -21.3550   20.5944 H   0  0  0  0  0  0
  -32.0520  -17.7357   21.3653 H   0  0  0  0  0  0
  -31.9918  -19.4610   21.6633 H   0  0  0  0  0  0
  -32.0001  -18.8469   20.0057 H   0  0  0  0  0  0
  -31.1270  -23.5133   18.9786 H   0  0  0  0  0  0
  -30.5001  -25.1503   18.8677 H   0  0  0  0  0  0
  -29.6420  -23.8274   18.0915 H   0  0  0  0  0  0
  -31.1613  -23.7567   21.5433 H   0  0  0  0  0  0
  -29.6807  -24.1579   22.4039 H   0  0  0  0  0  0
  -30.4875  -25.3693   21.4194 H   0  0  0  0  0  0
  -30.4035  -16.5755   22.9172 H   0  0  0  0  0  0
  -29.7509  -14.9698   22.9615 H   0  0  0  0  0  0
  -28.6707  -16.3315   22.6548 H   0  0  0  0  0  0
  -30.0963  -17.1641   19.3111 H   0  0  0  0  0  0
  -28.5738  -17.2563   20.1190 H   0  0  0  0  0  0
  -27.4574  -24.6742   21.0114 H   0  0  0  0  0  0
  -27.5727  -24.6073   19.2772 H   0  0  0  0  0  0
  -29.7756  -18.5353   22.0523 H   0  0  0  0  0  0
  1 25  1  0  0  0
  1 30  2  0  0  0
  1 84  1  0  0  0
  2  3  1  0  0  0
  2 25  1  0  0  0
  2 85  1  0  0  0
  2 86  1  0  0  0
  3  4  1  0  0  0
  3 87  1  0  0  0
  3 88  1  0  0  0
  4  5  1  0  0  0
  4 89  1  0  0  0
  4 90  1  0  0  0
  5  6  1  0  0  0
  5 26  1  0  0  0
  5 91  1  0  0  0
  6 25  1  0  0  0
  6 92  1  0  0  0
  6 93  1  0  0  0
  7  8  2  0  0  0
  7 26  1  0  0  0
  7 29  1  0  0  0
  8  9  1  0  0  0
  8 22  1  0  0  0
  9 10  1  0  0  0
  9 27  2  0  0  0
 10 11  2  0  0  0
 10 15  1  0  0  0
 11 12  1  0  0  0
 11 94  1  0  0  0
 12 13  2  0  0  0
 12 95  1  0  0  0
 13 14  1  0  0  0
 13 31  1  0  0  0
 14 15  2  0  0  0
 14 96  1  0  0  0
 15 97  1  0  0  0
 16 17  2  0  0  0
 16 21  1  0  0  0
 16 31  1  0  0  0
 17 18  1  0  0  0
 17 98  1  0  0  0
 18 19  2  0  0  0
 18 99  1  0  0  0
 19 20  1  0  0  0
 19 24  1  0  0  0
 20 21  2  0  0  0
 20100  1  0  0  0
 21 23  1  0  0  0
 22 28  1  0  0  0
 22 32  2  0  0  0
 26 27  1  0  0  0
 28101  1  0  0  0
 28102  1  0  0  0
 29103  1  0  0  0
 29104  1  0  0  0
 33 34  1  0  0  0
 33 66  1  0  0  0
 33 70  2  0  0  0
 34 36  1  0  0  0
 34 59  1  0  0  0
 34105  1  0  0  0
 35 44  2  0  0  0
 35 45  1  0  0  0
 35 68  1  0  0  0
 36 56  1  0  0  0
 36106  1  0  0  0
 37 39  1  0  0  0
 37 47  1  0  0  0
 37 66  1  0  0  0
 37107  1  0  0  0
 38 43  2  0  0  0
 38 46  1  0  0  0
 38 47  1  0  0  0
 39 64  1  0  0  0
 39 67  2  0  0  0
 40 52  1  0  0  0
 40 53  2  0  0  0
 40 58  1  0  0  0
 41108  1  0  0  0
 41109  1  0  0  0
 41110  1  0  0  0
 41 48  1  0  0  0
 42 43  1  0  0  0
 42 66  1  0  0  0
 42111  1  0  0  0
 42112  1  0  0  0
 43 44  1  0  0  0
 44113  1  0  0  0
 45 46  2  0  0  0
 45114  1  0  0  0
 46115  1  0  0  0
 47116  1  0  0  0
 47117  1  0  0  0
 48 56  1  0  0  0
 48 65  1  0  0  0
 48118  1  0  0  0
 49 50  1  0  0  0
 49 53  1  0  0  0
 49 64  1  0  0  0
 49119  1  0  0  0
 50 51  1  0  0  0
 50120  1  0  0  0
 50121  1  0  0  0
 51 52  1  0  0  0
 51122  1  0  0  0
 51123  1  0  0  0
 52124  1  0  0  0
 52125  1  0  0  0
 53 54  1  0  0  0
 54 55  2  0  0  0
 54126  1  0  0  0
 55 57  1  0  0  0
 55127  1  0  0  0
 56 69  2  0  0  0
 57 58  2  0  0  0
 57128  1  0  0  0
 58129  1  0  0  0
 59 60  1  0  0  0
 59 61  1  0  0  0
 59 62  1  0  0  0
 60130  1  0  0  0
 60131  1  0  0  0
 60132  1  0  0  0
 61133  1  0  0  0
 61134  1  0  0  0
 61135  1  0  0  0
 62136  1  0  0  0
 62137  1  0  0  0
 62138  1  0  0  0
 63 65  1  0  0  0
 63139  1  0  0  0
 63140  1  0  0  0
 63141  1  0  0  0
 64142  1  0  0  0
 65143  1  0  0  0
 68 79  1  0  0  0
 71 73  1  0  0  0
 71 82  2  0  0  0
 71144  1  0  0  0
 72 73  2  0  0  0
 72 83  1  0  0  0
 72145  1  0  0  0
 73 81  1  0  0  0
 74146  1  0  0  0
 74147  1  0  0  0
 74148  1  0  0  0
 74 80  1  0  0  0
 75149  1  0  0  0
 75150  1  0  0  0
 75151  1  0  0  0
 75 81  1  0  0  0
 76 81  1  0  0  0
 76152  1  0  0  0
 76153  1  0  0  0
 76154  1  0  0  0
 77 84  1  0  0  0
 77155  1  0  0  0
 77156  1  0  0  0
 77157  1  0  0  0
 78 80  1  0  0  0
 78 84  1  0  0  0
 78158  1  0  0  0
 78159  1  0  0  0
 79 81  1  0  0  0
 79160  1  0  0  0
 79161  1  0  0  0
 80 83  1  0  0  0
 80162  1  0  0  0
 82 83  1  0  0  0
M  ISO  4   1 100  68 101  79 101  84 100
M  END
> <chiral flag>
0

> <version>
0

> <s_m_source_file>
/data/baiqing/PycharmProjects/Reinvent-master-3.2/result/LINK_invent/BTK/process_docking_weight1_custom_sum_contain_oxygen_bond_distance_aromatic_linkinvent_7_9_3/rearranged_h_0056.sdf

> <i_m_source_file_index>
82

> <r_mmod_Potential_Energy-OPLS-2005>
318.361846923828

> <r_mmod_Stretch_Energy-OPLS-2005>
135.762252807617

> <r_mmod_Bend_Energy-OPLS-2005>
178.956390380859

> <r_mmod_Torsional_Energy-OPLS-2005>
319.655822753906

> <r_mmod_Improper_Torsional_Energy-OPLS-2005>
6.52951812744141

> <r_mmod_Van_der_Waal_Energy-OPLS-2005>
117.861259460449

> <r_mmod_Electrostatic_Energy-OPLS-2005>
-322.373443603516

> <r_mmod_Solvation_Energy-OPLS-2005>
-197.356262207031

> <b_mmod_Minimization_Converged-OPLS-2005>
0

> <r_mmod_RMS_Derivative-OPLS-2005>
2.53393340110779

$$$$
84
                    3D
 Structure written by MMmdl.
155163  0  0  1  0            999 V2000
  -30.5214  -15.0280   20.4031 C   0  0  0  0  0  0
  -30.4427  -12.6441   19.5008 C   0  0  0  0  0  0
  -29.5257  -12.5389   18.2594 C   0  0  0  0  0  0
  -28.0608  -12.3122   18.6797 C   0  0  0  0  0  0
  -27.6252  -13.2562   19.8306 C   0  0  2  0  0  0
  -28.6678  -13.3240   20.9656 C   0  0  0  0  0  0
  -25.2447  -13.8231   20.5717 C   0  0  0  0  0  0
  -24.1772  -13.0445   20.9242 C   0  0  0  0  0  0
  -24.6400  -11.6931   20.8752 C   0  0  0  0  0  0
  -23.9090  -10.4293   21.0397 C   0  0  0  0  0  0
  -24.3632   -9.4211   21.9182 C   0  0  0  0  0  0
  -23.6304   -8.2248   22.0755 C   0  0  0  0  0  0
  -22.4287   -8.0289   21.3543 C   0  0  0  0  0  0
  -21.9925   -9.0265   20.4649 C   0  0  0  0  0  0
  -22.7257  -10.2141   20.3052 C   0  0  0  0  0  0
  -21.6853   -6.0740   22.5273 C   0  0  0  0  0  0
  -21.4015   -6.5638   23.8209 C   0  0  0  0  0  0
  -21.3662   -5.6793   24.9174 C   0  0  0  0  0  0
  -21.6046   -4.3053   24.7224 C   0  0  0  0  0  0
  -21.8819   -3.8151   23.4340 C   0  0  0  0  0  0
  -21.9190   -4.6967   22.3398 C   0  0  0  0  0  0
  -22.7785  -13.5209   21.1885 C   0  0  0  0  0  0
  -22.1662   -4.2154   21.0974 F   0  0  0  0  0  0
  -21.5632   -3.4535   25.7735 F   0  0  0  0  0  0
  -29.9322  -13.7583   20.3558 N   0  0  0  0  0  0
  -26.2872  -12.9476   20.3224 N   0  0  0  0  0  0
  -25.9338  -11.6597   20.5731 N   0  0  0  0  0  0
  -22.0432  -12.8202   22.0437 N   0  0  0  0  0  0
  -25.4116  -15.1959   20.4118 N   0  0  0  0  0  0
  -31.7339  -15.0754   20.1682 O   0  0  0  0  0  0
  -21.6646   -6.8888   21.4235 O   0  0  0  0  0  0
  -22.3455  -14.5513   20.6736 O   0  0  0  0  0  0
  -24.6505  -31.8387   23.1842 C   0  0  0  0  0  0
  -25.9248  -32.4667   23.8252 C   0  0  1  0  0  0
  -27.2124  -27.0692   20.1587 C   0  0  0  0  0  0
  -25.5970  -33.8473   24.2163 N   0  0  0  0  0  0
  -23.4581  -30.4579   21.5313 C   0  0  2  0  0  0
  -24.9095  -28.8782   20.1114 C   0  0  0  0  0  0
  -22.7611  -29.4522   22.4833 C   0  0  0  0  0  0
  -18.0319  -28.1410   22.8475 C   0  0  0  0  0  0
  -24.1493  -36.7243   23.2643 C   0  0  0  0  0  0
  -26.0208  -30.6892   21.3974 C   0  0  0  0  0  0
  -26.0906  -29.2947   20.7400 C   0  0  0  0  0  0
  -27.2426  -28.4069   20.7480 C   0  0  0  0  0  0
  -26.0113  -26.7895   19.4675 C   0  0  0  0  0  0
  -24.8874  -27.6410   19.4570 C   0  0  0  0  0  0
  -23.6900  -29.7874   20.1519 C   0  0  0  0  0  0
  -25.4124  -36.3013   24.0311 C   0  0  1  0  0  0
  -20.5935  -28.3741   23.1213 C   0  0  2  0  0  0
  -20.6802  -26.9436   22.5399 C   0  0  0  0  0  0
  -19.5767  -26.6388   21.5218 C   0  0  0  0  0  0
  -18.1952  -26.7943   22.1628 C   0  0  0  0  0  0
  -19.1576  -28.8895   23.2834 C   0  0  0  0  0  0
  -18.9491  -30.1493   23.8860 C   0  0  0  0  0  0
  -17.6484  -30.6598   24.0565 C   0  0  0  0  0  0
  -25.9079  -34.9393   23.5045 C   0  0  0  0  0  0
  -16.5375  -29.9090   23.6347 C   0  0  0  0  0  0
  -16.7303  -28.6513   23.0358 C   0  0  0  0  0  0
  -26.4535  -31.6560   25.0726 C   0  0  0  0  0  0
  -25.3692  -31.3780   26.1406 C   0  0  0  0  0  0
  -27.0414  -30.2943   24.6369 C   0  0  0  0  0  0
  -27.6054  -32.4338   25.7514 C   0  0  0  0  0  0
  -27.5574  -37.1780   24.8462 C   0  0  0  0  0  0
  -21.4295  -29.3051   22.3576 N   0  0  0  0  0  0
  -26.4281  -37.3738   23.9409 N   0  0  0  0  0  0
  -24.7301  -31.0182   22.0918 N   0  0  0  0  0  0
  -23.4218  -28.8070   23.3007 O   0  0  0  0  0  0
  -28.2166  -26.0063   20.2233 O   0  0  0  0  0  0
  -26.5672  -34.8898   22.4630 O   0  0  0  0  0  0
  -23.5607  -32.1291   23.7018 O   0  0  0  0  0  0
  -28.0617  -21.7153   20.1858 C   0  0  0  0  0  0
  -28.5891  -23.0286   20.3367 C   0  0  0  0  0  0
  -27.2504  -24.5382   21.9261 C   0  0  0  0  0  0
  -27.7148  -18.6812   21.1465 C   0  0  0  0  0  0
  -28.4347  -18.7867   18.7708 C   0  0  0  0  0  0
  -30.0528  -17.8143   20.5151 C   0  0  0  0  0  0
  -27.7805  -24.4994   20.4842 C   0  0  1  0  0  0
  -28.8899  -19.0402   20.2187 C   0  0  0  0  0  0
  -29.9445  -22.6964   20.5850 N   0  0  0  0  0  0
  -30.1936  -21.3697   20.5432 N   0  0  0  0  0  0
  -29.0414  -20.6543   20.3309 N   0  0  0  0  0  0
  -29.7440  -16.2319   20.5101 N   0  0  0  0  0  0
  -31.4726  -12.8158   19.1830 H   0  0  0  0  0  0
  -30.4572  -11.7054   20.0573 H   0  0  0  0  0  0
  -29.8607  -11.7300   17.6091 H   0  0  0  0  0  0
  -29.5983  -13.4556   17.6719 H   0  0  0  0  0  0
  -27.9674  -11.2743   19.0005 H   0  0  0  0  0  0
  -27.3965  -12.4232   17.8217 H   0  0  0  0  0  0
  -27.5763  -14.2506   19.3840 H   0  0  0  0  0  0
  -28.7754  -12.3605   21.4653 H   0  0  0  0  0  0
  -28.3536  -14.0352   21.7318 H   0  0  0  0  0  0
  -25.2772   -9.5694   22.4757 H   0  0  0  0  0  0
  -24.0017   -7.4639   22.7471 H   0  0  0  0  0  0
  -21.0862   -8.8787   19.8945 H   0  0  0  0  0  0
  -22.3717  -10.9686   19.6163 H   0  0  0  0  0  0
  -21.2006   -7.6148   23.9714 H   0  0  0  0  0  0
  -21.1486   -6.0521   25.9079 H   0  0  0  0  0  0
  -22.0596   -2.7615   23.2831 H   0  0  0  0  0  0
  -22.4064  -11.9882   22.4836 H   0  0  0  0  0  0
  -21.1042  -13.1213   22.2634 H   0  0  0  0  0  0
  -24.6423  -15.8468   20.5256 H   0  0  0  0  0  0
  -26.2459  -15.6312   20.0426 H   0  0  0  0  0  0
  -26.7321  -32.5251   23.0981 H   0  0  0  0  0  0
  -25.0091  -33.9569   25.0292 H   0  0  0  0  0  0
  -22.7653  -31.2870   21.3735 H   0  0  0  0  0  0
  -23.3761  -35.9569   23.3278 H   0  0  0  0  0  0
  -24.3580  -36.8904   22.2064 H   0  0  0  0  0  0
  -23.7242  -37.6427   23.6698 H   0  0  0  0  0  0
  -26.1881  -31.4387   20.6222 H   0  0  0  0  0  0
  -26.8859  -30.7398   22.0464 H   0  0  0  0  0  0
  -28.1356  -28.7168   21.2724 H   0  0  0  0  0  0
  -25.8984  -25.8642   18.9263 H   0  0  0  0  0  0
  -23.9943  -27.3226   18.9373 H   0  0  0  0  0  0
  -23.8351  -30.5610   19.3970 H   0  0  0  0  0  0
  -22.8027  -29.2352   19.8364 H   0  0  0  0  0  0
  -25.1318  -36.1828   25.0803 H   0  0  0  0  0  0
  -21.0038  -28.3339   24.1330 H   0  0  0  0  0  0
  -20.5708  -26.2353   23.3627 H   0  0  0  0  0  0
  -21.6663  -26.7443   22.1193 H   0  0  0  0  0  0
  -19.6925  -25.6292   21.1269 H   0  0  0  0  0  0
  -19.6700  -27.3178   20.6730 H   0  0  0  0  0  0
  -17.4223  -26.6696   21.4031 H   0  0  0  0  0  0
  -18.0347  -26.0096   22.9035 H   0  0  0  0  0  0
  -19.7964  -30.7332   24.2196 H   0  0  0  0  0  0
  -17.5034  -31.6271   24.5185 H   0  0  0  0  0  0
  -15.5373  -30.2982   23.7691 H   0  0  0  0  0  0
  -15.8702  -28.0827   22.7077 H   0  0  0  0  0  0
  -24.5866  -30.7137   25.7722 H   0  0  0  0  0  0
  -24.8888  -32.2977   26.4756 H   0  0  0  0  0  0
  -25.7948  -30.8997   27.0236 H   0  0  0  0  0  0
  -26.3058  -29.6647   24.1353 H   0  0  0  0  0  0
  -27.3969  -29.7269   25.4979 H   0  0  0  0  0  0
  -27.8990  -30.4154   23.9747 H   0  0  0  0  0  0
  -27.2639  -33.3663   26.2014 H   0  0  0  0  0  0
  -28.3904  -32.6856   25.0373 H   0  0  0  0  0  0
  -28.0676  -31.8516   26.5494 H   0  0  0  0  0  0
  -28.2580  -38.0090   24.7525 H   0  0  0  0  0  0
  -28.1084  -36.2622   24.6271 H   0  0  0  0  0  0
  -27.2296  -37.1407   25.8867 H   0  0  0  0  0  0
  -20.9520  -29.8753   21.6736 H   0  0  0  0  0  0
  -26.0138  -38.2801   24.1417 H   0  0  0  0  0  0
  -27.0275  -21.4478   20.0184 H   0  0  0  0  0  0
  -26.7305  -23.6124   22.1745 H   0  0  0  0  0  0
  -26.5438  -25.3514   22.0901 H   0  0  0  0  0  0
  -28.0701  -24.6565   22.6345 H   0  0  0  0  0  0
  -27.4482  -17.6267   21.0791 H   0  0  0  0  0  0
  -26.8157  -19.2462   20.9010 H   0  0  0  0  0  0
  -27.9634  -18.8915   22.1867 H   0  0  0  0  0  0
  -28.1469  -17.7477   18.6111 H   0  0  0  0  0  0
  -29.2348  -19.0196   18.0681 H   0  0  0  0  0  0
  -27.5771  -19.4045   18.5019 H   0  0  0  0  0  0
  -30.4849  -18.0195   21.4955 H   0  0  0  0  0  0
  -30.8782  -17.9696   19.8199 H   0  0  0  0  0  0
  -26.9122  -24.3456   19.8517 H   0  0  0  0  0  0
  -28.7636  -16.0293   20.6287 H   0  0  0  0  0  0
  1 25  1  0  0  0
  1 30  2  0  0  0
  1 82  1  0  0  0
  2  3  1  0  0  0
  2 25  1  0  0  0
  2 83  1  0  0  0
  2 84  1  0  0  0
  3  4  1  0  0  0
  3 85  1  0  0  0
  3 86  1  0  0  0
  4  5  1  0  0  0
  4 87  1  0  0  0
  4 88  1  0  0  0
  5  6  1  0  0  0
  5 26  1  0  0  0
  5 89  1  0  0  0
  6 25  1  0  0  0
  6 90  1  0  0  0
  6 91  1  0  0  0
  7  8  2  0  0  0
  7 26  1  0  0  0
  7 29  1  0  0  0
  8  9  1  0  0  0
  8 22  1  0  0  0
  9 10  1  0  0  0
  9 27  2  0  0  0
 10 11  2  0  0  0
 10 15  1  0  0  0
 11 12  1  0  0  0
 11 92  1  0  0  0
 12 13  2  0  0  0
 12 93  1  0  0  0
 13 14  1  0  0  0
 13 31  1  0  0  0
 14 15  2  0  0  0
 14 94  1  0  0  0
 15 95  1  0  0  0
 16 17  2  0  0  0
 16 21  1  0  0  0
 16 31  1  0  0  0
 17 18  1  0  0  0
 17 96  1  0  0  0
 18 19  2  0  0  0
 18 97  1  0  0  0
 19 20  1  0  0  0
 19 24  1  0  0  0
 20 21  2  0  0  0
 20 98  1  0  0  0
 21 23  1  0  0  0
 22 28  1  0  0  0
 22 32  2  0  0  0
 26 27  1  0  0  0
 28 99  1  0  0  0
 28100  1  0  0  0
 29101  1  0  0  0
 29102  1  0  0  0
 33 34  1  0  0  0
 33 66  1  0  0  0
 33 70  2  0  0  0
 34 36  1  0  0  0
 34 59  1  0  0  0
 34103  1  0  0  0
 35 44  2  0  0  0
 35 45  1  0  0  0
 35 68  1  0  0  0
 36 56  1  0  0  0
 36104  1  0  0  0
 37 39  1  0  0  0
 37 47  1  0  0  0
 37 66  1  0  0  0
 37105  1  0  0  0
 38 43  2  0  0  0
 38 46  1  0  0  0
 38 47  1  0  0  0
 39 64  1  0  0  0
 39 67  2  0  0  0
 40 52  1  0  0  0
 40 53  2  0  0  0
 40 58  1  0  0  0
 41106  1  0  0  0
 41107  1  0  0  0
 41108  1  0  0  0
 41 48  1  0  0  0
 42 43  1  0  0  0
 42 66  1  0  0  0
 42109  1  0  0  0
 42110  1  0  0  0
 43 44  1  0  0  0
 44111  1  0  0  0
 45 46  2  0  0  0
 45112  1  0  0  0
 46113  1  0  0  0
 47114  1  0  0  0
 47115  1  0  0  0
 48 56  1  0  0  0
 48 65  1  0  0  0
 48116  1  0  0  0
 49 50  1  0  0  0
 49 53  1  0  0  0
 49 64  1  0  0  0
 49117  1  0  0  0
 50 51  1  0  0  0
 50118  1  0  0  0
 50119  1  0  0  0
 51 52  1  0  0  0
 51120  1  0  0  0
 51121  1  0  0  0
 52122  1  0  0  0
 52123  1  0  0  0
 53 54  1  0  0  0
 54 55  2  0  0  0
 54124  1  0  0  0
 55 57  1  0  0  0
 55125  1  0  0  0
 56 69  2  0  0  0
 57 58  2  0  0  0
 57126  1  0  0  0
 58127  1  0  0  0
 59 60  1  0  0  0
 59 61  1  0  0  0
 59 62  1  0  0  0
 60128  1  0  0  0
 60129  1  0  0  0
 60130  1  0  0  0
 61131  1  0  0  0
 61132  1  0  0  0
 61133  1  0  0  0
 62134  1  0  0  0
 62135  1  0  0  0
 62136  1  0  0  0
 63 65  1  0  0  0
 63137  1  0  0  0
 63138  1  0  0  0
 63139  1  0  0  0
 64140  1  0  0  0
 65141  1  0  0  0
 68 77  1  0  0  0
 71 72  2  0  0  0
 71 81  1  0  0  0
 71142  1  0  0  0
 72 77  1  0  0  0
 72 79  1  0  0  0
 73143  1  0  0  0
 73144  1  0  0  0
 73145  1  0  0  0
 73 77  1  0  0  0
 74146  1  0  0  0
 74147  1  0  0  0
 74148  1  0  0  0
 74 78  1  0  0  0
 75 78  1  0  0  0
 75149  1  0  0  0
 75150  1  0  0  0
 75151  1  0  0  0
 76 78  1  0  0  0
 76 82  1  0  0  0
 76152  1  0  0  0
 76153  1  0  0  0
 77154  1  0  0  0
 78 81  1  0  0  0
 79 80  2  0  0  0
 80 81  1  0  0  0
 82155  1  0  0  0
M  ISO  4   1 100  68 101  77 101  82 100
M  END
> <chiral flag>
0

> <version>
0

> <s_m_source_file>
/data/baiqing/PycharmProjects/Reinvent-master-3.2/result/LINK_invent/BTK/process_docking_weight1_custom_sum_contain_oxygen_bond_distance_aromatic_linkinvent_7_9_3/rearranged_h_0056.sdf

> <i_m_source_file_index>
83

> <r_mmod_Potential_Energy-OPLS-2005>
632.752197265625

> <r_mmod_Stretch_Energy-OPLS-2005>
329.802093505859

> <r_mmod_Bend_Energy-OPLS-2005>
326.809143066406

> <r_mmod_Torsional_Energy-OPLS-2005>
251.071029663086

> <r_mmod_Improper_Torsional_Energy-OPLS-2005>
5.44292593002319

> <r_mmod_Van_der_Waal_Energy-OPLS-2005>
108.755798339844

> <r_mmod_Electrostatic_Energy-OPLS-2005>
-418.935180664062

> <r_mmod_Solvation_Energy-OPLS-2005>
-231.815322875977

> <b_mmod_Minimization_Converged-OPLS-2005>
0

> <r_mmod_RMS_Derivative-OPLS-2005>
1.44533348083496

$$$$
85
                    3D
 Structure written by MMmdl.
151159  0  0  1  0            999 V2000
  -30.3868  -15.3704   20.3327 C   0  0  0  0  0  0
  -30.4249  -12.8733   19.5403 C   0  0  0  0  0  0
  -29.5302  -12.5995   18.3030 C   0  0  0  0  0  0
  -28.0910  -12.2961   18.7437 C   0  0  0  0  0  0
  -27.6078  -13.2841   19.8332 C   0  0  2  0  0  0
  -28.6359  -13.5060   20.9643 C   0  0  0  0  0  0
  -25.2363  -13.8273   20.5788 C   0  0  0  0  0  0
  -24.1737  -13.0448   20.9284 C   0  0  0  0  0  0
  -24.6397  -11.6948   20.8796 C   0  0  0  0  0  0
  -23.9103  -10.4306   21.0435 C   0  0  0  0  0  0
  -24.3643   -9.4210   21.9202 C   0  0  0  0  0  0
  -23.6313   -8.2247   22.0759 C   0  0  0  0  0  0
  -22.4293   -8.0282   21.3548 C   0  0  0  0  0  0
  -21.9946   -9.0273   20.4652 C   0  0  0  0  0  0
  -22.7282  -10.2147   20.3076 C   0  0  0  0  0  0
  -21.6855   -6.0741   22.5278 C   0  0  0  0  0  0
  -21.4021   -6.5653   23.8207 C   0  0  0  0  0  0
  -21.3654   -5.6798   24.9174 C   0  0  0  0  0  0
  -21.6037   -4.3064   24.7228 C   0  0  0  0  0  0
  -21.8817   -3.8155   23.4353 C   0  0  0  0  0  0
  -21.9198   -4.6976   22.3399 C   0  0  0  0  0  0
  -22.7756  -13.5180   21.1939 C   0  0  0  0  0  0
  -22.1668   -4.2160   21.0986 F   0  0  0  0  0  0
  -21.5627   -3.4547   25.7745 F   0  0  0  0  0  0
  -29.8515  -14.0377   20.3273 N   0  0  0  0  0  0
  -26.2808  -12.9560   20.3315 N   0  0  0  0  0  0
  -25.9340  -11.6655   20.5799 N   0  0  0  0  0  0
  -22.0447  -12.8123   22.0488 N   0  0  0  0  0  0
  -25.3982  -15.2010   20.4219 N   0  0  0  0  0  0
  -31.6042  -15.3564   20.0901 O   0  0  0  0  0  0
  -21.6644   -6.8891   21.4239 O   0  0  0  0  0  0
  -22.3427  -14.5504   20.6823 O   0  0  0  0  0  0
  -24.6680  -31.8132   23.1638 C   0  0  0  0  0  0
  -25.9314  -32.4542   23.8140 C   0  0  1  0  0  0
  -27.2186  -26.8419   20.1931 C   0  0  0  0  0  0
  -25.5936  -33.8371   24.2015 N   0  0  0  0  0  0
  -23.4903  -30.4202   21.5128 C   0  0  2  0  0  0
  -24.9460  -28.7921   20.1083 C   0  0  0  0  0  0
  -22.7706  -29.4392   22.4762 C   0  0  0  0  0  0
  -18.0313  -28.1414   22.8489 C   0  0  0  0  0  0
  -24.1499  -36.7195   23.2651 C   0  0  0  0  0  0
  -26.0632  -30.5900   21.4125 C   0  0  0  0  0  0
  -26.1270  -29.1709   20.7584 C   0  0  0  0  0  0
  -27.2471  -28.2130   20.7846 C   0  0  0  0  0  0
  -26.0152  -26.6414   19.4787 C   0  0  0  0  0  0
  -24.9199  -27.5500   19.4516 C   0  0  0  0  0  0
  -23.7369  -29.7297   20.1405 C   0  0  0  0  0  0
  -25.4141  -36.2949   24.0288 C   0  0  1  0  0  0
  -20.5950  -28.3787   23.1169 C   0  0  2  0  0  0
  -20.6819  -26.9472   22.5379 C   0  0  0  0  0  0
  -19.5762  -26.6415   21.5226 C   0  0  0  0  0  0
  -18.1975  -26.7915   22.1712 C   0  0  0  0  0  0
  -19.1577  -28.8926   23.2797 C   0  0  0  0  0  0
  -18.9485  -30.1527   23.8796 C   0  0  0  0  0  0
  -17.6483  -30.6638   24.0504 C   0  0  0  0  0  0
  -25.9104  -34.9328   23.4984 C   0  0  0  0  0  0
  -16.5368  -29.9101   23.6351 C   0  0  0  0  0  0
  -16.7295  -28.6511   23.0398 C   0  0  0  0  0  0
  -26.4541  -31.6545   25.0714 C   0  0  0  0  0  0
  -25.3644  -31.3834   26.1358 C   0  0  0  0  0  0
  -27.0431  -30.2897   24.6525 C   0  0  0  0  0  0
  -27.6015  -32.4373   25.7517 C   0  0  0  0  0  0
  -27.5566  -37.1749   24.8452 C   0  0  0  0  0  0
  -21.4361  -29.3066   22.3516 N   0  0  0  0  0  0
  -26.4276  -37.3693   23.9395 N   0  0  0  0  0  0
  -24.7625  -30.9707   22.0829 N   0  0  0  0  0  0
  -23.4208  -28.7971   23.3047 O   0  0  0  0  0  0
  -28.1878  -25.6903   20.3528 O   0  0  0  0  0  0
  -26.5765  -34.8873   22.4611 O   0  0  0  0  0  0
  -23.5720  -32.1151   23.6642 O   0  0  0  0  0  0
  -27.3660  -22.0493   21.3029 C   0  0  0  0  0  0
  -27.1826  -20.6944   21.6868 C   0  0  0  0  0  0
  -28.3643  -22.4394   20.3933 C   0  0  0  0  0  0
  -28.9495  -19.8230   20.4253 C   0  0  0  0  0  0
  -26.0190  -20.3402   22.5907 C   0  0  0  0  0  0
  -29.8549  -18.3206   18.4689 C   0  0  0  0  0  0
  -28.2738  -24.1138   19.7511 C   0  0  0  0  0  0
  -29.8081  -18.3140   20.0084 C   0  0  2  0  0  0
  -27.9373  -19.6411   21.2679 N   0  0  0  0  0  0
  -29.1346  -21.2198   19.9898 N   0  0  0  0  0  0
  -29.6182  -16.6642   20.4055 N   0  0  0  0  0  0
  -31.4408  -13.0753   19.2003 H   0  0  0  0  0  0
  -30.5001  -11.9768   20.1597 H   0  0  0  0  0  0
  -29.9220  -11.7670   17.7176 H   0  0  0  0  0  0
  -29.5380  -13.4688   17.6419 H   0  0  0  0  0  0
  -28.0826  -11.2845   19.1476 H   0  0  0  0  0  0
  -27.4058  -12.2894   17.8954 H   0  0  0  0  0  0
  -27.5085  -14.2384   19.3157 H   0  0  0  0  0  0
  -28.8264  -12.5950   21.5330 H   0  0  0  0  0  0
  -28.2577  -14.2433   21.6730 H   0  0  0  0  0  0
  -25.2791   -9.5689   22.4789 H   0  0  0  0  0  0
  -24.0020   -7.4647   22.7493 H   0  0  0  0  0  0
  -21.0867   -8.8803   19.8966 H   0  0  0  0  0  0
  -22.3747  -10.9693   19.6199 H   0  0  0  0  0  0
  -21.2010   -7.6165   23.9717 H   0  0  0  0  0  0
  -21.1475   -6.0533   25.9067 H   0  0  0  0  0  0
  -22.0600   -2.7621   23.2847 H   0  0  0  0  0  0
  -22.4072  -11.9727   22.4761 H   0  0  0  0  0  0
  -21.1081  -13.1152   22.2800 H   0  0  0  0  0  0
  -24.6269  -15.8486   20.5410 H   0  0  0  0  0  0
  -26.2392  -15.6479   20.0824 H   0  0  0  0  0  0
  -26.7390  -32.5049   23.0857 H   0  0  0  0  0  0
  -24.9936  -33.9455   25.0059 H   0  0  0  0  0  0
  -22.8063  -31.2522   21.3331 H   0  0  0  0  0  0
  -23.3771  -35.9516   23.3278 H   0  0  0  0  0  0
  -24.3581  -36.8884   22.2076 H   0  0  0  0  0  0
  -23.7253  -37.6361   23.6749 H   0  0  0  0  0  0
  -26.2527  -31.3254   20.6291 H   0  0  0  0  0  0
  -26.9200  -30.6524   22.0720 H   0  0  0  0  0  0
  -28.1272  -28.4900   21.3487 H   0  0  0  0  0  0
  -25.8703  -25.6927   18.9833 H   0  0  0  0  0  0
  -24.0226  -27.2514   18.9267 H   0  0  0  0  0  0
  -23.9037  -30.4958   19.3824 H   0  0  0  0  0  0
  -22.8452  -29.1868   19.8224 H   0  0  0  0  0  0
  -25.1357  -36.1730   25.0782 H   0  0  0  0  0  0
  -21.0008  -28.3409   24.1309 H   0  0  0  0  0  0
  -20.5757  -26.2400   23.3610 H   0  0  0  0  0  0
  -21.6666  -26.7464   22.1139 H   0  0  0  0  0  0
  -19.6929  -25.6334   21.1246 H   0  0  0  0  0  0
  -19.6623  -27.3250   20.6778 H   0  0  0  0  0  0
  -17.4209  -26.6555   21.4178 H   0  0  0  0  0  0
  -18.0488  -26.0111   22.9179 H   0  0  0  0  0  0
  -19.7970  -30.7373   24.2097 H   0  0  0  0  0  0
  -17.5029  -31.6339   24.5057 H   0  0  0  0  0  0
  -15.5371  -30.2992   23.7691 H   0  0  0  0  0  0
  -15.8686  -28.0800   22.7188 H   0  0  0  0  0  0
  -24.5872  -30.7124   25.7688 H   0  0  0  0  0  0
  -24.8770  -32.3042   26.4568 H   0  0  0  0  0  0
  -25.7862  -30.9160   27.0271 H   0  0  0  0  0  0
  -26.3126  -29.6566   24.1480 H   0  0  0  0  0  0
  -27.3868  -29.7276   25.5219 H   0  0  0  0  0  0
  -27.9115  -30.4043   24.0037 H   0  0  0  0  0  0
  -27.2588  -33.3732   26.1947 H   0  0  0  0  0  0
  -28.3922  -32.6833   25.0417 H   0  0  0  0  0  0
  -28.0607  -31.8595   26.5548 H   0  0  0  0  0  0
  -28.2539  -38.0078   24.7501 H   0  0  0  0  0  0
  -28.1092  -36.2595   24.6278 H   0  0  0  0  0  0
  -27.2277  -37.1410   25.8849 H   0  0  0  0  0  0
  -20.9639  -29.8752   21.6631 H   0  0  0  0  0  0
  -26.0102  -38.2736   24.1411 H   0  0  0  0  0  0
  -26.6758  -22.8025   21.6625 H   0  0  0  0  0  0
  -26.0503  -19.2984   22.9111 H   0  0  0  0  0  0
  -25.0815  -20.4981   22.0577 H   0  0  0  0  0  0
  -26.0126  -20.9702   23.4806 H   0  0  0  0  0  0
  -30.3214  -19.2376   18.1082 H   0  0  0  0  0  0
  -28.8516  -18.2788   18.0435 H   0  0  0  0  0  0
  -30.4306  -17.4863   18.0672 H   0  0  0  0  0  0
  -27.4826  -24.0654   19.0040 H   0  0  0  0  0  0
  -29.1802  -24.1616   19.1476 H   0  0  0  0  0  0
  -30.8240  -18.5116   20.3495 H   0  0  0  0  0  0
  -28.6616  -16.4973   20.6811 H   0  0  0  0  0  0
  1 25  1  0  0  0
  1 30  2  0  0  0
  1 81  1  0  0  0
  2  3  1  0  0  0
  2 25  1  0  0  0
  2 82  1  0  0  0
  2 83  1  0  0  0
  3  4  1  0  0  0
  3 84  1  0  0  0
  3 85  1  0  0  0
  4  5  1  0  0  0
  4 86  1  0  0  0
  4 87  1  0  0  0
  5  6  1  0  0  0
  5 26  1  0  0  0
  5 88  1  0  0  0
  6 25  1  0  0  0
  6 89  1  0  0  0
  6 90  1  0  0  0
  7  8  2  0  0  0
  7 26  1  0  0  0
  7 29  1  0  0  0
  8  9  1  0  0  0
  8 22  1  0  0  0
  9 10  1  0  0  0
  9 27  2  0  0  0
 10 11  2  0  0  0
 10 15  1  0  0  0
 11 12  1  0  0  0
 11 91  1  0  0  0
 12 13  2  0  0  0
 12 92  1  0  0  0
 13 14  1  0  0  0
 13 31  1  0  0  0
 14 15  2  0  0  0
 14 93  1  0  0  0
 15 94  1  0  0  0
 16 17  2  0  0  0
 16 21  1  0  0  0
 16 31  1  0  0  0
 17 18  1  0  0  0
 17 95  1  0  0  0
 18 19  2  0  0  0
 18 96  1  0  0  0
 19 20  1  0  0  0
 19 24  1  0  0  0
 20 21  2  0  0  0
 20 97  1  0  0  0
 21 23  1  0  0  0
 22 28  1  0  0  0
 22 32  2  0  0  0
 26 27  1  0  0  0
 28 98  1  0  0  0
 28 99  1  0  0  0
 29100  1  0  0  0
 29101  1  0  0  0
 33 34  1  0  0  0
 33 66  1  0  0  0
 33 70  2  0  0  0
 34 36  1  0  0  0
 34 59  1  0  0  0
 34102  1  0  0  0
 35 44  2  0  0  0
 35 45  1  0  0  0
 35 68  1  0  0  0
 36 56  1  0  0  0
 36103  1  0  0  0
 37 39  1  0  0  0
 37 47  1  0  0  0
 37 66  1  0  0  0
 37104  1  0  0  0
 38 43  2  0  0  0
 38 46  1  0  0  0
 38 47  1  0  0  0
 39 64  1  0  0  0
 39 67  2  0  0  0
 40 52  1  0  0  0
 40 53  2  0  0  0
 40 58  1  0  0  0
 41105  1  0  0  0
 41106  1  0  0  0
 41107  1  0  0  0
 41 48  1  0  0  0
 42 43  1  0  0  0
 42 66  1  0  0  0
 42108  1  0  0  0
 42109  1  0  0  0
 43 44  1  0  0  0
 44110  1  0  0  0
 45 46  2  0  0  0
 45111  1  0  0  0
 46112  1  0  0  0
 47113  1  0  0  0
 47114  1  0  0  0
 48 56  1  0  0  0
 48 65  1  0  0  0
 48115  1  0  0  0
 49 50  1  0  0  0
 49 53  1  0  0  0
 49 64  1  0  0  0
 49116  1  0  0  0
 50 51  1  0  0  0
 50117  1  0  0  0
 50118  1  0  0  0
 51 52  1  0  0  0
 51119  1  0  0  0
 51120  1  0  0  0
 52121  1  0  0  0
 52122  1  0  0  0
 53 54  1  0  0  0
 54 55  2  0  0  0
 54123  1  0  0  0
 55 57  1  0  0  0
 55124  1  0  0  0
 56 69  2  0  0  0
 57 58  2  0  0  0
 57125  1  0  0  0
 58126  1  0  0  0
 59 60  1  0  0  0
 59 61  1  0  0  0
 59 62  1  0  0  0
 60127  1  0  0  0
 60128  1  0  0  0
 60129  1  0  0  0
 61130  1  0  0  0
 61131  1  0  0  0
 61132  1  0  0  0
 62133  1  0  0  0
 62134  1  0  0  0
 62135  1  0  0  0
 63 65  1  0  0  0
 63136  1  0  0  0
 63137  1  0  0  0
 63138  1  0  0  0
 64139  1  0  0  0
 65140  1  0  0  0
 68 77  1  0  0  0
 71 72  2  0  0  0
 71 73  1  0  0  0
 71141  1  0  0  0
 72 75  1  0  0  0
 72 79  1  0  0  0
 73 77  1  0  0  0
 73 80  2  0  0  0
 74 78  1  0  0  0
 74 79  2  0  0  0
 74 80  1  0  0  0
 75142  1  0  0  0
 75143  1  0  0  0
 75144  1  0  0  0
 76145  1  0  0  0
 76146  1  0  0  0
 76147  1  0  0  0
 76 78  1  0  0  0
 77148  1  0  0  0
 77149  1  0  0  0
 78 81  1  0  0  0
 78150  1  0  0  0
 81151  1  0  0  0
M  ISO  4   1 100  68 101  77 101  81 100
M  END
> <chiral flag>
0

> <version>
0

> <s_m_source_file>
/data/baiqing/PycharmProjects/Reinvent-master-3.2/result/LINK_invent/BTK/process_docking_weight1_custom_sum_contain_oxygen_bond_distance_aromatic_linkinvent_7_9_3/rearranged_h_0056.sdf

> <i_m_source_file_index>
84

> <r_mmod_Potential_Energy-OPLS-2005>
1022.78527832031

> <r_mmod_Stretch_Energy-OPLS-2005>
705.739196777344

> <r_mmod_Bend_Energy-OPLS-2005>
505.6103515625

> <r_mmod_Torsional_Energy-OPLS-2005>
209.361557006836

> <r_mmod_Improper_Torsional_Energy-OPLS-2005>
6.38819313049316

> <r_mmod_Van_der_Waal_Energy-OPLS-2005>
126.087867736816

> <r_mmod_Electrostatic_Energy-OPLS-2005>
-877.269775390625

> <r_mmod_Solvation_Energy-OPLS-2005>
-244.511169433594

> <b_mmod_Minimization_Converged-OPLS-2005>
0

> <r_mmod_RMS_Derivative-OPLS-2005>
3.34662318229675

$$$$
87
                    3D
 Structure written by MMmdl.
163171  0  0  1  0            999 V2000
  -30.5964  -14.9238   20.3785 C   0  0  0  0  0  0
  -30.4374  -12.5718   19.4755 C   0  0  0  0  0  0
  -29.5111  -12.4924   18.2423 C   0  0  0  0  0  0
  -28.0493  -12.2718   18.6779 C   0  0  0  0  0  0
  -27.6193  -13.2154   19.8293 C   0  0  2  0  0  0
  -28.6776  -13.3054   20.9517 C   0  0  0  0  0  0
  -25.2470  -13.8099   20.5769 C   0  0  0  0  0  0
  -24.1757  -13.0373   20.9258 C   0  0  0  0  0  0
  -24.6344  -11.6850   20.8800 C   0  0  0  0  0  0
  -23.9032  -10.4248   21.0440 C   0  0  0  0  0  0
  -24.3594   -9.4164   21.9208 C   0  0  0  0  0  0
  -23.6269   -8.2204   22.0766 C   0  0  0  0  0  0
  -22.4254   -8.0258   21.3546 C   0  0  0  0  0  0
  -21.9888   -9.0234   20.4651 C   0  0  0  0  0  0
  -22.7218  -10.2109   20.3069 C   0  0  0  0  0  0
  -21.6836   -6.0721   22.5275 C   0  0  0  0  0  0
  -21.4007   -6.5629   23.8208 C   0  0  0  0  0  0
  -21.3655   -5.6785   24.9172 C   0  0  0  0  0  0
  -21.6048   -4.3048   24.7227 C   0  0  0  0  0  0
  -21.8820   -3.8137   23.4348 C   0  0  0  0  0  0
  -21.9185   -4.6951   22.3401 C   0  0  0  0  0  0
  -22.7789  -13.5190   21.1881 C   0  0  0  0  0  0
  -22.1653   -4.2137   21.0977 F   0  0  0  0  0  0
  -21.5634   -3.4531   25.7739 F   0  0  0  0  0  0
  -29.9493  -13.6909   20.3235 N   0  0  0  0  0  0
  -26.2852  -12.9258   20.3309 N   0  0  0  0  0  0
  -25.9265  -11.6430   20.5809 N   0  0  0  0  0  0
  -22.0415  -12.8210   22.0438 N   0  0  0  0  0  0
  -25.4155  -15.1825   20.4214 N   0  0  0  0  0  0
  -31.8264  -14.9197   20.2706 O   0  0  0  0  0  0
  -21.6619   -6.8858   21.4235 O   0  0  0  0  0  0
  -22.3498  -14.5489   20.6691 O   0  0  0  0  0  0
  -24.6403  -31.8489   23.1920 C   0  0  0  0  0  0
  -25.9194  -32.4719   23.8299 C   0  0  1  0  0  0
  -27.2189  -27.1744   20.1384 C   0  0  0  0  0  0
  -25.5956  -33.8526   24.2220 N   0  0  0  0  0  0
  -23.4409  -30.4691   21.5398 C   0  0  2  0  0  0
  -24.8872  -28.9036   20.1131 C   0  0  0  0  0  0
  -22.7558  -29.4563   22.4907 C   0  0  0  0  0  0
  -18.0305  -28.1397   22.8494 C   0  0  0  0  0  0
  -24.1490  -36.7258   23.2641 C   0  0  0  0  0  0
  -25.9944  -30.7350   21.3840 C   0  0  0  0  0  0
  -26.0656  -29.3505   20.7232 C   0  0  0  0  0  0
  -27.2322  -28.5022   20.7169 C   0  0  0  0  0  0
  -26.0060  -26.8167   19.5072 C   0  0  0  0  0  0
  -24.8682  -27.6480   19.4913 C   0  0  0  0  0  0
  -23.6627  -29.8009   20.1584 C   0  0  0  0  0  0
  -25.4124  -36.3050   24.0322 C   0  0  1  0  0  0
  -20.5916  -28.3712   23.1264 C   0  0  2  0  0  0
  -20.6798  -26.9425   22.5409 C   0  0  0  0  0  0
  -19.5762  -26.6390   21.5226 C   0  0  0  0  0  0
  -18.1946  -26.7940   22.1638 C   0  0  0  0  0  0
  -19.1561  -28.8879   23.2868 C   0  0  0  0  0  0
  -18.9472  -30.1484   23.8878 C   0  0  0  0  0  0
  -17.6466  -30.6597   24.0569 C   0  0  0  0  0  0
  -25.9075  -34.9424   23.5082 C   0  0  0  0  0  0
  -16.5360  -29.9088   23.6339 C   0  0  0  0  0  0
  -16.7288  -28.6509   23.0359 C   0  0  0  0  0  0
  -26.4523  -31.6562   25.0722 C   0  0  0  0  0  0
  -25.3710  -31.3731   26.1415 C   0  0  0  0  0  0
  -27.0379  -30.2964   24.6270 C   0  0  0  0  0  0
  -27.6071  -32.4314   25.7503 C   0  0  0  0  0  0
  -27.5580  -37.1787   24.8467 C   0  0  0  0  0  0
  -21.4255  -29.3042   22.3649 N   0  0  0  0  0  0
  -26.4292  -37.3760   23.9411 N   0  0  0  0  0  0
  -24.7118  -31.0379   22.0941 N   0  0  0  0  0  0
  -23.4221  -28.8117   23.3045 O   0  0  0  0  0  0
  -28.3006  -26.2285   20.2021 O   0  0  0  0  0  0
  -26.5656  -34.8911   22.4656 O   0  0  0  0  0  0
  -23.5527  -32.1355   23.7157 O   0  0  0  0  0  0
  -30.2136  -21.2465   19.5728 C   0  0  0  0  0  0
  -29.2335  -21.9419   20.3713 C   0  0  0  0  0  0
  -28.7956  -19.7423   21.2883 C   0  0  0  0  0  0
  -29.7989  -19.0589   20.5101 C   0  0  0  0  0  0
  -31.1494  -21.9977   18.6447 C   0  0  0  0  0  0
  -28.5787  -19.2303   23.7618 C   0  0  0  0  0  0
  -27.9969  -24.4909   18.4349 C   0  0  0  0  0  0
  -28.8752  -16.3546   19.3009 C   0  0  0  0  0  0
  -28.0122  -18.9970   22.3544 C   0  0  0  0  0  0
  -29.1811  -23.5763   20.5830 C   0  0  0  0  0  0
  -30.4130  -17.5582   20.7992 C   0  0  0  0  0  0
  -28.1344  -24.7071   19.9542 C   0  0  1  0  0  0
  -30.4686  -19.8796   19.6368 N   0  0  0  0  0  0
  -28.5240  -21.1108   21.2103 N   0  0  0  0  0  0
  -29.8856  -16.1615   20.3435 N   0  0  0  0  0  0
  -31.4682  -12.7236   19.1522 H   0  0  0  0  0  0
  -30.4313  -11.6348   20.0345 H   0  0  0  0  0  0
  -29.8312  -11.6838   17.5836 H   0  0  0  0  0  0
  -29.5900  -13.4093   17.6567 H   0  0  0  0  0  0
  -27.9611  -11.2359   19.0058 H   0  0  0  0  0  0
  -27.3774  -12.3782   17.8253 H   0  0  0  0  0  0
  -27.5318  -14.1843   19.3589 H   0  0  0  0  0  0
  -28.7752  -12.3570   21.4824 H   0  0  0  0  0  0
  -28.3826  -14.0497   21.6932 H   0  0  0  0  0  0
  -25.2738   -9.5634   22.4792 H   0  0  0  0  0  0
  -23.9973   -7.4584   22.7482 H   0  0  0  0  0  0
  -21.0821   -8.8760   19.8953 H   0  0  0  0  0  0
  -22.3690  -10.9660   19.6185 H   0  0  0  0  0  0
  -21.2004   -7.6140   23.9708 H   0  0  0  0  0  0
  -21.1476   -6.0516   25.9071 H   0  0  0  0  0  0
  -22.0606   -2.7603   23.2847 H   0  0  0  0  0  0
  -22.4015  -11.9881   22.4859 H   0  0  0  0  0  0
  -21.1034  -13.1257   22.2613 H   0  0  0  0  0  0
  -24.6499  -15.8369   20.5425 H   0  0  0  0  0  0
  -26.2718  -15.6246   20.1163 H   0  0  0  0  0  0
  -26.7262  -32.5343   23.1031 H   0  0  0  0  0  0
  -25.0078  -33.9647   25.0352 H   0  0  0  0  0  0
  -22.7407  -31.2936   21.3886 H   0  0  0  0  0  0
  -23.3769  -35.9574   23.3299 H   0  0  0  0  0  0
  -24.3562  -36.8892   22.2053 H   0  0  0  0  0  0
  -23.7229  -37.6447   23.6676 H   0  0  0  0  0  0
  -26.1442  -31.4936   20.6146 H   0  0  0  0  0  0
  -26.8676  -30.7836   22.0237 H   0  0  0  0  0  0
  -28.1335  -28.8405   21.2086 H   0  0  0  0  0  0
  -25.8907  -25.8550   19.0385 H   0  0  0  0  0  0
  -23.9655  -27.2975   19.0102 H   0  0  0  0  0  0
  -23.7948  -30.5761   19.4029 H   0  0  0  0  0  0
  -22.7778  -29.2413   19.8501 H   0  0  0  0  0  0
  -25.1307  -36.1887   25.0814 H   0  0  0  0  0  0
  -21.0003  -28.3292   24.1388 H   0  0  0  0  0  0
  -20.5724  -26.2318   23.3615 H   0  0  0  0  0  0
  -21.6660  -26.7461   22.1182 H   0  0  0  0  0  0
  -19.6926  -25.6300   21.1262 H   0  0  0  0  0  0
  -19.6697  -27.3199   20.6754 H   0  0  0  0  0  0
  -17.4215  -26.6704   21.4037 H   0  0  0  0  0  0
  -18.0335  -26.0080   22.9029 H   0  0  0  0  0  0
  -19.7942  -30.7325   24.2225 H   0  0  0  0  0  0
  -17.5008  -31.6269   24.5184 H   0  0  0  0  0  0
  -15.5359  -30.2980   23.7671 H   0  0  0  0  0  0
  -15.8690  -28.0822   22.7073 H   0  0  0  0  0  0
  -24.5895  -30.7079   25.7721 H   0  0  0  0  0  0
  -24.8884  -32.2900   26.4809 H   0  0  0  0  0  0
  -25.7989  -30.8916   27.0215 H   0  0  0  0  0  0
  -26.2981  -29.6702   24.1267 H   0  0  0  0  0  0
  -27.3994  -29.7249   25.4828 H   0  0  0  0  0  0
  -27.8892  -30.4213   23.9576 H   0  0  0  0  0  0
  -27.2683  -33.3635   26.2037 H   0  0  0  0  0  0
  -28.3902  -32.6841   25.0343 H   0  0  0  0  0  0
  -28.0715  -31.8462   26.5448 H   0  0  0  0  0  0
  -28.2599  -38.0083   24.7518 H   0  0  0  0  0  0
  -28.1079  -36.2615   24.6299 H   0  0  0  0  0  0
  -27.2291  -37.1435   25.8868 H   0  0  0  0  0  0
  -20.9474  -29.8722   21.6797 H   0  0  0  0  0  0
  -26.0168  -38.2833   24.1414 H   0  0  0  0  0  0
  -32.0234  -22.3498   19.1927 H   0  0  0  0  0  0
  -30.6649  -22.8566   18.1871 H   0  0  0  0  0  0
  -31.4959  -21.3556   17.8346 H   0  0  0  0  0  0
  -29.6164  -18.9036   23.8287 H   0  0  0  0  0  0
  -28.0081  -18.6785   24.5080 H   0  0  0  0  0  0
  -28.5432  -20.2869   24.0297 H   0  0  0  0  0  0
  -26.9924  -24.1603   18.1707 H   0  0  0  0  0  0
  -28.6715  -23.7251   18.0633 H   0  0  0  0  0  0
  -28.2091  -25.4024   17.8763 H   0  0  0  0  0  0
  -28.9041  -15.5755   18.5399 H   0  0  0  0  0  0
  -27.8804  -16.4058   19.7386 H   0  0  0  0  0  0
  -29.0343  -17.2786   18.7457 H   0  0  0  0  0  0
  -28.0048  -17.9301   22.1289 H   0  0  0  0  0  0
  -26.9704  -19.3174   22.3170 H   0  0  0  0  0  0
  -30.1796  -23.9304   20.3287 H   0  0  0  0  0  0
  -29.1352  -23.7100   21.6636 H   0  0  0  0  0  0
  -30.5075  -17.4877   21.8826 H   0  0  0  0  0  0
  -31.4461  -17.6027   20.4531 H   0  0  0  0  0  0
  -27.1728  -24.4491   20.4002 H   0  0  0  0  0  0
  1 25  1  0  0  0
  1 30  2  0  0  0
  1 85  1  0  0  0
  2  3  1  0  0  0
  2 25  1  0  0  0
  2 86  1  0  0  0
  2 87  1  0  0  0
  3  4  1  0  0  0
  3 88  1  0  0  0
  3 89  1  0  0  0
  4  5  1  0  0  0
  4 90  1  0  0  0
  4 91  1  0  0  0
  5  6  1  0  0  0
  5 26  1  0  0  0
  5 92  1  0  0  0
  6 25  1  0  0  0
  6 93  1  0  0  0
  6 94  1  0  0  0
  7  8  2  0  0  0
  7 26  1  0  0  0
  7 29  1  0  0  0
  8  9  1  0  0  0
  8 22  1  0  0  0
  9 10  1  0  0  0
  9 27  2  0  0  0
 10 11  2  0  0  0
 10 15  1  0  0  0
 11 12  1  0  0  0
 11 95  1  0  0  0
 12 13  2  0  0  0
 12 96  1  0  0  0
 13 14  1  0  0  0
 13 31  1  0  0  0
 14 15  2  0  0  0
 14 97  1  0  0  0
 15 98  1  0  0  0
 16 17  2  0  0  0
 16 21  1  0  0  0
 16 31  1  0  0  0
 17 18  1  0  0  0
 17 99  1  0  0  0
 18 19  2  0  0  0
 18100  1  0  0  0
 19 20  1  0  0  0
 19 24  1  0  0  0
 20 21  2  0  0  0
 20101  1  0  0  0
 21 23  1  0  0  0
 22 28  1  0  0  0
 22 32  2  0  0  0
 26 27  1  0  0  0
 28102  1  0  0  0
 28103  1  0  0  0
 29104  1  0  0  0
 29105  1  0  0  0
 33 34  1  0  0  0
 33 66  1  0  0  0
 33 70  2  0  0  0
 34 36  1  0  0  0
 34 59  1  0  0  0
 34106  1  0  0  0
 35 44  2  0  0  0
 35 45  1  0  0  0
 35 68  1  0  0  0
 36 56  1  0  0  0
 36107  1  0  0  0
 37 39  1  0  0  0
 37 47  1  0  0  0
 37 66  1  0  0  0
 37108  1  0  0  0
 38 43  2  0  0  0
 38 46  1  0  0  0
 38 47  1  0  0  0
 39 64  1  0  0  0
 39 67  2  0  0  0
 40 52  1  0  0  0
 40 53  2  0  0  0
 40 58  1  0  0  0
 41109  1  0  0  0
 41110  1  0  0  0
 41111  1  0  0  0
 41 48  1  0  0  0
 42 43  1  0  0  0
 42 66  1  0  0  0
 42112  1  0  0  0
 42113  1  0  0  0
 43 44  1  0  0  0
 44114  1  0  0  0
 45 46  2  0  0  0
 45115  1  0  0  0
 46116  1  0  0  0
 47117  1  0  0  0
 47118  1  0  0  0
 48 56  1  0  0  0
 48 65  1  0  0  0
 48119  1  0  0  0
 49 50  1  0  0  0
 49 53  1  0  0  0
 49 64  1  0  0  0
 49120  1  0  0  0
 50 51  1  0  0  0
 50121  1  0  0  0
 50122  1  0  0  0
 51 52  1  0  0  0
 51123  1  0  0  0
 51124  1  0  0  0
 52125  1  0  0  0
 52126  1  0  0  0
 53 54  1  0  0  0
 54 55  2  0  0  0
 54127  1  0  0  0
 55 57  1  0  0  0
 55128  1  0  0  0
 56 69  2  0  0  0
 57 58  2  0  0  0
 57129  1  0  0  0
 58130  1  0  0  0
 59 60  1  0  0  0
 59 61  1  0  0  0
 59 62  1  0  0  0
 60131  1  0  0  0
 60132  1  0  0  0
 60133  1  0  0  0
 61134  1  0  0  0
 61135  1  0  0  0
 61136  1  0  0  0
 62137  1  0  0  0
 62138  1  0  0  0
 62139  1  0  0  0
 63 65  1  0  0  0
 63140  1  0  0  0
 63141  1  0  0  0
 63142  1  0  0  0
 64143  1  0  0  0
 65144  1  0  0  0
 68 82  1  0  0  0
 71 72  2  0  0  0
 71 75  1  0  0  0
 71 83  1  0  0  0
 72 80  1  0  0  0
 72 84  1  0  0  0
 73 74  1  0  0  0
 73 79  1  0  0  0
 73 84  2  0  0  0
 74 81  1  0  0  0
 74 83  2  0  0  0
 75145  1  0  0  0
 75146  1  0  0  0
 75147  1  0  0  0
 76 79  1  0  0  0
 76148  1  0  0  0
 76149  1  0  0  0
 76150  1  0  0  0
 77151  1  0  0  0
 77152  1  0  0  0
 77153  1  0  0  0
 77 82  1  0  0  0
 78 85  1  0  0  0
 78154  1  0  0  0
 78155  1  0  0  0
 78156  1  0  0  0
 79157  1  0  0  0
 79158  1  0  0  0
 80 82  1  0  0  0
 80159  1  0  0  0
 80160  1  0  0  0
 81 85  1  0  0  0
 81161  1  0  0  0
 81162  1  0  0  0
 82163  1  0  0  0
M  ISO  4   1 100  68 101  82 101  85 100
M  END
> <chiral flag>
0

> <version>
0

> <s_m_source_file>
/data/baiqing/PycharmProjects/Reinvent-master-3.2/result/LINK_invent/BTK/process_docking_weight1_custom_sum_contain_oxygen_bond_distance_aromatic_linkinvent_7_9_3/rearranged_h_0056.sdf

> <i_m_source_file_index>
85

> <r_mmod_Potential_Energy-OPLS-2005>
541.053833007812

> <r_mmod_Stretch_Energy-OPLS-2005>
215.173080444336

> <r_mmod_Bend_Energy-OPLS-2005>
248.270812988281

> <r_mmod_Torsional_Energy-OPLS-2005>
275.746795654297

> <r_mmod_Improper_Torsional_Energy-OPLS-2005>
10.2809619903564

> <r_mmod_Van_der_Waal_Energy-OPLS-2005>
138.44856262207

> <r_mmod_Electrostatic_Energy-OPLS-2005>
-307.242828369141

> <r_mmod_Solvation_Energy-OPLS-2005>
-213.111434936523

> <b_mmod_Minimization_Converged-OPLS-2005>
0

> <r_mmod_RMS_Derivative-OPLS-2005>
1.09554350376129

$$$$
88
                    3D
 Structure written by MMmdl.
159167  0  0  1  0            999 V2000
  -30.5631  -14.7682   20.5547 C   0  0  0  0  0  0
  -30.4600  -12.4992   19.4585 C   0  0  0  0  0  0
  -29.5177  -12.5576   18.2289 C   0  0  0  0  0  0
  -28.0366  -12.3731   18.6279 C   0  0  0  0  0  0
  -27.6528  -13.2179   19.8711 C   0  0  2  0  0  0
  -28.7014  -13.0054   20.9804 C   0  0  0  0  0  0
  -25.2537  -13.8175   20.5663 C   0  0  0  0  0  0
  -24.1806  -13.0439   20.9173 C   0  0  0  0  0  0
  -24.6368  -11.6912   20.8706 C   0  0  0  0  0  0
  -23.9028  -10.4303   21.0370 C   0  0  0  0  0  0
  -24.3591   -9.4233   21.9154 C   0  0  0  0  0  0
  -23.6280   -8.2267   22.0743 C   0  0  0  0  0  0
  -22.4263   -8.0280   21.3535 C   0  0  0  0  0  0
  -21.9883   -9.0243   20.4639 C   0  0  0  0  0  0
  -22.7194  -10.2129   20.3026 C   0  0  0  0  0  0
  -21.6862   -6.0735   22.5274 C   0  0  0  0  0  0
  -21.4023   -6.5638   23.8208 C   0  0  0  0  0  0
  -21.3661   -5.6789   24.9168 C   0  0  0  0  0  0
  -21.6038   -4.3048   24.7213 C   0  0  0  0  0  0
  -21.8832   -3.8142   23.4335 C   0  0  0  0  0  0
  -21.9198   -4.6963   22.3393 C   0  0  0  0  0  0
  -22.7832  -13.5238   21.1845 C   0  0  0  0  0  0
  -22.1667   -4.2156   21.0964 F   0  0  0  0  0  0
  -21.5623   -3.4521   25.7722 F   0  0  0  0  0  0
  -29.9879  -13.5020   20.4534 N   0  0  0  0  0  0
  -26.2970  -12.9353   20.3320 N   0  0  0  0  0  0
  -25.9300  -11.6506   20.5726 N   0  0  0  0  0  0
  -22.0471  -12.8239   22.0407 N   0  0  0  0  0  0
  -25.4214  -15.1906   20.4088 N   0  0  0  0  0  0
  -31.6914  -14.9315   20.0732 O   0  0  0  0  0  0
  -21.6641   -6.8871   21.4233 O   0  0  0  0  0  0
  -22.3517  -14.5541   20.6687 O   0  0  0  0  0  0
  -24.6326  -31.8529   23.1967 C   0  0  0  0  0  0
  -25.9142  -32.4742   23.8319 C   0  0  1  0  0  0
  -27.2281  -27.2490   20.1256 C   0  0  0  0  0  0
  -25.5935  -33.8544   24.2244 N   0  0  0  0  0  0
  -23.4311  -30.4725   21.5415 C   0  0  2  0  0  0
  -24.8791  -28.9153   20.1111 C   0  0  0  0  0  0
  -22.7523  -29.4571   22.4921 C   0  0  0  0  0  0
  -18.0293  -28.1383   22.8479 C   0  0  0  0  0  0
  -24.1492  -36.7281   23.2639 C   0  0  0  0  0  0
  -25.9780  -30.7585   21.3795 C   0  0  0  0  0  0
  -26.0516  -29.3805   20.7204 C   0  0  0  0  0  0
  -27.2268  -28.5604   20.7150 C   0  0  0  0  0  0
  -26.0301  -26.8545   19.4869 C   0  0  0  0  0  0
  -24.8746  -27.6604   19.4841 C   0  0  0  0  0  0
  -23.6503  -29.8033   20.1591 C   0  0  0  0  0  0
  -25.4117  -36.3064   24.0325 C   0  0  1  0  0  0
  -20.5898  -28.3690   23.1272 C   0  0  2  0  0  0
  -20.6781  -26.9404   22.5413 C   0  0  0  0  0  0
  -19.5758  -26.6375   21.5215 C   0  0  0  0  0  0
  -18.1937  -26.7925   22.1620 C   0  0  0  0  0  0
  -19.1548  -28.8857   23.2863 C   0  0  0  0  0  0
  -18.9466  -30.1460   23.8875 C   0  0  0  0  0  0
  -17.6467  -30.6583   24.0556 C   0  0  0  0  0  0
  -25.9060  -34.9432   23.5089 C   0  0  0  0  0  0
  -16.5354  -29.9076   23.6333 C   0  0  0  0  0  0
  -16.7280  -28.6492   23.0349 C   0  0  0  0  0  0
  -26.4506  -31.6573   25.0716 C   0  0  0  0  0  0
  -25.3730  -31.3720   26.1439 C   0  0  0  0  0  0
  -27.0365  -30.2994   24.6211 C   0  0  0  0  0  0
  -27.6054  -32.4323   25.7493 C   0  0  0  0  0  0
  -27.5581  -37.1791   24.8459 C   0  0  0  0  0  0
  -21.4225  -29.3030   22.3667 N   0  0  0  0  0  0
  -26.4291  -37.3763   23.9407 N   0  0  0  0  0  0
  -24.6999  -31.0469   22.0956 N   0  0  0  0  0  0
  -23.4209  -28.8117   23.3032 O   0  0  0  0  0  0
  -28.3276  -26.3543   20.1864 O   0  0  0  0  0  0
  -26.5636  -34.8910   22.4662 O   0  0  0  0  0  0
  -23.5473  -32.1363   23.7246 O   0  0  0  0  0  0
  -28.3837  -20.2271   19.4732 C   0  0  0  0  0  0
  -28.1367  -21.5862   19.4132 C   0  0  0  0  0  0
  -29.5029  -20.0415   20.3407 C   0  0  0  0  0  0
  -30.3440  -18.7164   22.3286 C   0  0  0  0  0  0
  -31.6786  -18.7332   20.2353 C   0  0  0  0  0  0
  -28.9273  -15.7980   22.1346 C   0  0  0  0  0  0
  -29.2364  -23.7755   20.4361 C   0  0  0  0  0  0
  -29.6058  -17.2623   20.2681 C   0  0  0  0  0  0
  -28.1145  -24.8680   19.9994 C   0  0  0  0  0  0
  -30.2421  -18.6843   20.7892 C   0  0  0  0  0  0
  -29.8860  -21.2933   20.7512 N   0  0  0  0  0  0
  -29.0446  -22.2664   20.2076 N   0  0  0  0  0  0
  -29.7938  -15.8823   20.9514 N   0  0  0  0  0  0
  -31.4883  -12.6832   19.1422 H   0  0  0  0  0  0
  -30.4726  -11.4951   19.8861 H   0  0  0  0  0  0
  -29.8064  -11.8019   17.4976 H   0  0  0  0  0  0
  -29.6372  -13.5211   17.7310 H   0  0  0  0  0  0
  -27.8783  -11.3158   18.8422 H   0  0  0  0  0  0
  -27.3845  -12.6117   17.7864 H   0  0  0  0  0  0
  -27.6823  -14.2654   19.5677 H   0  0  0  0  0  0
  -28.7724  -11.9395   21.2050 H   0  0  0  0  0  0
  -28.3966  -13.4163   21.9345 H   0  0  0  0  0  0
  -25.2739   -9.5746   22.4714 H   0  0  0  0  0  0
  -24.0005   -7.4682   22.7468 H   0  0  0  0  0  0
  -21.0817   -8.8725   19.8961 H   0  0  0  0  0  0
  -22.3614  -10.9644   19.6125 H   0  0  0  0  0  0
  -21.2017   -7.6148   23.9717 H   0  0  0  0  0  0
  -21.1468   -6.0507   25.9072 H   0  0  0  0  0  0
  -22.0606   -2.7603   23.2822 H   0  0  0  0  0  0
  -22.4062  -11.9895   22.4799 H   0  0  0  0  0  0
  -21.1086  -13.1274   22.2598 H   0  0  0  0  0  0
  -24.6534  -15.8419   20.5280 H   0  0  0  0  0  0
  -26.2762  -15.6363   20.1029 H   0  0  0  0  0  0
  -26.7202  -32.5377   23.1049 H   0  0  0  0  0  0
  -25.0066  -33.9679   25.0382 H   0  0  0  0  0  0
  -22.7275  -31.2941   21.3932 H   0  0  0  0  0  0
  -23.3762  -35.9606   23.3287 H   0  0  0  0  0  0
  -24.3583  -36.8925   22.2058 H   0  0  0  0  0  0
  -23.7245  -37.6474   23.6680 H   0  0  0  0  0  0
  -26.1197  -31.5160   20.6080 H   0  0  0  0  0  0
  -26.8550  -30.8072   22.0136 H   0  0  0  0  0  0
  -28.1232  -28.9107   21.2071 H   0  0  0  0  0  0
  -25.9567  -25.8966   18.9945 H   0  0  0  0  0  0
  -23.9768  -27.2976   19.0016 H   0  0  0  0  0  0
  -23.7767  -30.5785   19.4026 H   0  0  0  0  0  0
  -22.7687  -29.2366   19.8535 H   0  0  0  0  0  0
  -25.1303  -36.1903   25.0819 H   0  0  0  0  0  0
  -20.9977  -28.3261   24.1398 H   0  0  0  0  0  0
  -20.5685  -26.2295   23.3616 H   0  0  0  0  0  0
  -21.6647  -26.7429   22.1201 H   0  0  0  0  0  0
  -19.6920  -25.6287   21.1243 H   0  0  0  0  0  0
  -19.6704  -27.3187   20.6748 H   0  0  0  0  0  0
  -17.4213  -26.6678   21.4017 H   0  0  0  0  0  0
  -18.0324  -26.0067   22.9015 H   0  0  0  0  0  0
  -19.7943  -30.7283   24.2230 H   0  0  0  0  0  0
  -17.5017  -31.6262   24.5160 H   0  0  0  0  0  0
  -15.5354  -30.2964   23.7676 H   0  0  0  0  0  0
  -15.8679  -28.0809   22.7070 H   0  0  0  0  0  0
  -24.5897  -30.7082   25.7762 H   0  0  0  0  0  0
  -24.8934  -32.2889   26.4874 H   0  0  0  0  0  0
  -25.8048  -30.8883   27.0211 H   0  0  0  0  0  0
  -26.2954  -29.6727   24.1237 H   0  0  0  0  0  0
  -27.4057  -29.7264   25.4726 H   0  0  0  0  0  0
  -27.8824  -30.4277   23.9454 H   0  0  0  0  0  0
  -27.2654  -33.3618   26.2067 H   0  0  0  0  0  0
  -28.3866  -32.6891   25.0328 H   0  0  0  0  0  0
  -28.0722  -31.8456   26.5415 H   0  0  0  0  0  0
  -28.2582  -38.0104   24.7521 H   0  0  0  0  0  0
  -28.1099  -36.2636   24.6269 H   0  0  0  0  0  0
  -27.2298  -37.1410   25.8861 H   0  0  0  0  0  0
  -20.9428  -29.8749   21.6861 H   0  0  0  0  0  0
  -26.0169  -38.2834   24.1422 H   0  0  0  0  0  0
  -27.8293  -19.4600   18.9506 H   0  0  0  0  0  0
  -27.3834  -22.1270   18.8582 H   0  0  0  0  0  0
  -30.9102  -19.5842   22.6697 H   0  0  0  0  0  0
  -30.8524  -17.8369   22.7221 H   0  0  0  0  0  0
  -29.3627  -18.7953   22.7960 H   0  0  0  0  0  0
  -32.2222  -19.6009   20.6120 H   0  0  0  0  0  0
  -31.6805  -18.7981   19.1471 H   0  0  0  0  0  0
  -32.2473  -17.8446   20.5119 H   0  0  0  0  0  0
  -29.3361  -15.1211   22.8869 H   0  0  0  0  0  0
  -27.9256  -15.4788   21.8524 H   0  0  0  0  0  0
  -28.7754  -16.7448   22.6387 H   0  0  0  0  0  0
  -29.4296  -23.9128   21.4999 H   0  0  0  0  0  0
  -30.1674  -24.0453   19.9391 H   0  0  0  0  0  0
  -29.8527  -17.1380   19.2127 H   0  0  0  0  0  0
  -28.5256  -17.4152   20.2542 H   0  0  0  0  0  0
  -27.1978  -24.5972   20.5258 H   0  0  0  0  0  0
  -27.9094  -24.7087   18.9402 H   0  0  0  0  0  0
  1 25  1  0  0  0
  1 30  2  0  0  0
  1 83  1  0  0  0
  2  3  1  0  0  0
  2 25  1  0  0  0
  2 84  1  0  0  0
  2 85  1  0  0  0
  3  4  1  0  0  0
  3 86  1  0  0  0
  3 87  1  0  0  0
  4  5  1  0  0  0
  4 88  1  0  0  0
  4 89  1  0  0  0
  5  6  1  0  0  0
  5 26  1  0  0  0
  5 90  1  0  0  0
  6 25  1  0  0  0
  6 91  1  0  0  0
  6 92  1  0  0  0
  7  8  2  0  0  0
  7 26  1  0  0  0
  7 29  1  0  0  0
  8  9  1  0  0  0
  8 22  1  0  0  0
  9 10  1  0  0  0
  9 27  2  0  0  0
 10 11  2  0  0  0
 10 15  1  0  0  0
 11 12  1  0  0  0
 11 93  1  0  0  0
 12 13  2  0  0  0
 12 94  1  0  0  0
 13 14  1  0  0  0
 13 31  1  0  0  0
 14 15  2  0  0  0
 14 95  1  0  0  0
 15 96  1  0  0  0
 16 17  2  0  0  0
 16 21  1  0  0  0
 16 31  1  0  0  0
 17 18  1  0  0  0
 17 97  1  0  0  0
 18 19  2  0  0  0
 18 98  1  0  0  0
 19 20  1  0  0  0
 19 24  1  0  0  0
 20 21  2  0  0  0
 20 99  1  0  0  0
 21 23  1  0  0  0
 22 28  1  0  0  0
 22 32  2  0  0  0
 26 27  1  0  0  0
 28100  1  0  0  0
 28101  1  0  0  0
 29102  1  0  0  0
 29103  1  0  0  0
 33 34  1  0  0  0
 33 66  1  0  0  0
 33 70  2  0  0  0
 34 36  1  0  0  0
 34 59  1  0  0  0
 34104  1  0  0  0
 35 44  2  0  0  0
 35 45  1  0  0  0
 35 68  1  0  0  0
 36 56  1  0  0  0
 36105  1  0  0  0
 37 39  1  0  0  0
 37 47  1  0  0  0
 37 66  1  0  0  0
 37106  1  0  0  0
 38 43  2  0  0  0
 38 46  1  0  0  0
 38 47  1  0  0  0
 39 64  1  0  0  0
 39 67  2  0  0  0
 40 52  1  0  0  0
 40 53  2  0  0  0
 40 58  1  0  0  0
 41107  1  0  0  0
 41108  1  0  0  0
 41109  1  0  0  0
 41 48  1  0  0  0
 42 43  1  0  0  0
 42 66  1  0  0  0
 42110  1  0  0  0
 42111  1  0  0  0
 43 44  1  0  0  0
 44112  1  0  0  0
 45 46  2  0  0  0
 45113  1  0  0  0
 46114  1  0  0  0
 47115  1  0  0  0
 47116  1  0  0  0
 48 56  1  0  0  0
 48 65  1  0  0  0
 48117  1  0  0  0
 49 50  1  0  0  0
 49 53  1  0  0  0
 49 64  1  0  0  0
 49118  1  0  0  0
 50 51  1  0  0  0
 50119  1  0  0  0
 50120  1  0  0  0
 51 52  1  0  0  0
 51121  1  0  0  0
 51122  1  0  0  0
 52123  1  0  0  0
 52124  1  0  0  0
 53 54  1  0  0  0
 54 55  2  0  0  0
 54125  1  0  0  0
 55 57  1  0  0  0
 55126  1  0  0  0
 56 69  2  0  0  0
 57 58  2  0  0  0
 57127  1  0  0  0
 58128  1  0  0  0
 59 60  1  0  0  0
 59 61  1  0  0  0
 59 62  1  0  0  0
 60129  1  0  0  0
 60130  1  0  0  0
 60131  1  0  0  0
 61132  1  0  0  0
 61133  1  0  0  0
 61134  1  0  0  0
 62135  1  0  0  0
 62136  1  0  0  0
 62137  1  0  0  0
 63 65  1  0  0  0
 63138  1  0  0  0
 63139  1  0  0  0
 63140  1  0  0  0
 64141  1  0  0  0
 65142  1  0  0  0
 68 79  1  0  0  0
 71 72  2  0  0  0
 71 73  1  0  0  0
 71143  1  0  0  0
 72 82  1  0  0  0
 72144  1  0  0  0
 73 80  1  0  0  0
 73 81  2  0  0  0
 74145  1  0  0  0
 74146  1  0  0  0
 74147  1  0  0  0
 74 80  1  0  0  0
 75 80  1  0  0  0
 75148  1  0  0  0
 75149  1  0  0  0
 75150  1  0  0  0
 76 83  1  0  0  0
 76151  1  0  0  0
 76152  1  0  0  0
 76153  1  0  0  0
 77 79  1  0  0  0
 77 82  1  0  0  0
 77154  1  0  0  0
 77155  1  0  0  0
 78 80  1  0  0  0
 78 83  1  0  0  0
 78156  1  0  0  0
 78157  1  0  0  0
 79158  1  0  0  0
 79159  1  0  0  0
 81 82  1  0  0  0
M  ISO  4   1 100  68 101  79 101  83 100
M  END
> <chiral flag>
0

> <version>
0

> <s_m_source_file>
/data/baiqing/PycharmProjects/Reinvent-master-3.2/result/LINK_invent/BTK/process_docking_weight1_custom_sum_contain_oxygen_bond_distance_aromatic_linkinvent_7_9_3/rearranged_h_0056.sdf

> <i_m_source_file_index>
86

> <r_mmod_Potential_Energy-OPLS-2005>
303.763793945312

> <r_mmod_Stretch_Energy-OPLS-2005>
152.719680786133

> <r_mmod_Bend_Energy-OPLS-2005>
200.693374633789

> <r_mmod_Torsional_Energy-OPLS-2005>
283.413238525391

> <r_mmod_Improper_Torsional_Energy-OPLS-2005>
6.07769536972046

> <r_mmod_Van_der_Waal_Energy-OPLS-2005>
130.055389404297

> <r_mmod_Electrostatic_Energy-OPLS-2005>
-347.888763427734

> <r_mmod_Solvation_Energy-OPLS-2005>
-210.15983581543

> <b_mmod_Minimization_Converged-OPLS-2005>
0

> <r_mmod_RMS_Derivative-OPLS-2005>
1.75885200500488

$$$$
89
                    3D
 Structure written by MMmdl.
161169  0  0  1  0            999 V2000
  -30.2410  -15.7377   20.3444 C   0  0  0  0  0  0
  -30.4340  -13.1569   19.5332 C   0  0  0  0  0  0
  -29.5611  -12.6891   18.3261 C   0  0  0  0  0  0
  -28.1335  -12.2819   18.7418 C   0  0  0  0  0  0
  -27.6084  -13.2765   19.8015 C   0  0  2  0  0  0
  -28.6312  -13.5652   20.9268 C   0  0  0  0  0  0
  -25.2462  -13.8139   20.5415 C   0  0  0  0  0  0
  -24.1777  -13.0259   20.9251 C   0  0  0  0  0  0
  -24.6454  -11.6844   20.8793 C   0  0  0  0  0  0
  -23.9064  -10.4224   21.0395 C   0  0  0  0  0  0
  -24.3733   -9.4056   21.9137 C   0  0  0  0  0  0
  -23.6376   -8.2091   22.0723 C   0  0  0  0  0  0
  -22.4296   -8.0135   21.3605 C   0  0  0  0  0  0
  -21.9893   -9.0111   20.4770 C   0  0  0  0  0  0
  -22.7173  -10.1959   20.3098 C   0  0  0  0  0  0
  -21.6765   -6.0647   22.5276 C   0  0  0  0  0  0
  -21.3792   -6.5617   23.8204 C   0  0  0  0  0  0
  -21.3804   -5.6788   24.9189 C   0  0  0  0  0  0
  -21.6146   -4.3052   24.7321 C   0  0  0  0  0  0
  -21.8753   -3.8112   23.4402 C   0  0  0  0  0  0
  -21.9145   -4.6906   22.3447 C   0  0  0  0  0  0
  -22.7914  -13.4944   21.1964 C   0  0  0  0  0  0
  -22.1593   -4.2086   21.1017 F   0  0  0  0  0  0
  -21.5900   -3.4563   25.7849 F   0  0  0  0  0  0
  -29.7864  -14.3165   20.3158 N   0  0  0  0  0  0
  -26.2846  -12.9437   20.3128 N   0  0  0  0  0  0
  -25.9409  -11.6525   20.5854 N   0  0  0  0  0  0
  -22.0726  -12.8019   22.0733 N   0  0  0  0  0  0
  -25.3804  -15.1757   20.3215 N   0  0  0  0  0  0
  -31.4620  -15.6609   20.0261 O   0  0  0  0  0  0
  -21.6534   -6.8786   21.4306 O   0  0  0  0  0  0
  -22.3392  -14.5111   20.6684 O   0  0  0  0  0  0
  -24.6902  -31.8057   23.1445 C   0  0  0  0  0  0
  -25.9474  -32.4448   23.7997 C   0  0  1  0  0  0
  -27.2375  -26.6719   20.2067 C   0  0  0  0  0  0
  -25.6138  -33.8288   24.1930 N   0  0  0  0  0  0
  -23.5183  -30.3942   21.5088 C   0  0  2  0  0  0
  -24.9802  -28.7370   20.1122 C   0  0  0  0  0  0
  -22.7725  -29.4264   22.4700 C   0  0  0  0  0  0
  -18.0287  -28.1378   22.8458 C   0  0  0  0  0  0
  -24.1520  -36.7026   23.2621 C   0  0  0  0  0  0
  -26.0967  -30.5380   21.4016 C   0  0  0  0  0  0
  -26.1692  -29.0970   20.7557 C   0  0  0  0  0  0
  -27.2914  -28.0922   20.7584 C   0  0  0  0  0  0
  -26.0025  -26.5411   19.5251 C   0  0  0  0  0  0
  -24.9385  -27.4954   19.4658 C   0  0  0  0  0  0
  -23.7738  -29.6926   20.1414 C   0  0  0  0  0  0
  -25.4145  -36.2809   24.0258 C   0  0  1  0  0  0
  -20.5905  -28.3769   23.1089 C   0  0  2  0  0  0
  -20.6717  -26.9378   22.5397 C   0  0  0  0  0  0
  -19.5723  -26.6323   21.5179 C   0  0  0  0  0  0
  -18.1895  -26.7906   22.1542 C   0  0  0  0  0  0
  -19.1540  -28.8865   23.2815 C   0  0  0  0  0  0
  -18.9489  -30.1438   23.8883 C   0  0  0  0  0  0
  -17.6498  -30.6621   24.0439 C   0  0  0  0  0  0
  -25.9130  -34.9233   23.4849 C   0  0  0  0  0  0
  -16.5399  -29.9077   23.6275 C   0  0  0  0  0  0
  -16.7259  -28.6439   23.0398 C   0  0  0  0  0  0
  -26.4678  -31.6433   25.0582 C   0  0  0  0  0  0
  -25.3792  -31.3799   26.1217 C   0  0  0  0  0  0
  -27.0571  -30.2748   24.6423 C   0  0  0  0  0  0
  -27.6146  -32.4203   25.7481 C   0  0  0  0  0  0
  -27.5512  -37.1613   24.8466 C   0  0  0  0  0  0
  -21.4338  -29.3062   22.3425 N   0  0  0  0  0  0
  -26.4240  -37.3550   23.9414 N   0  0  0  0  0  0
  -24.7865  -30.9394   22.0734 N   0  0  0  0  0  0
  -23.4223  -28.7831   23.2975 O   0  0  0  0  0  0
  -28.1899  -25.4190   20.2528 O   0  0  0  0  0  0
  -26.5727  -34.8779   22.4448 O   0  0  0  0  0  0
  -23.5857  -32.1194   23.6313 O   0  0  0  0  0  0
  -29.7583  -21.4550   19.2015 C   0  0  0  0  0  0
  -28.7804  -21.9511   20.1001 C   0  0  0  0  0  0
  -29.3530  -19.3189   20.2442 C   0  0  0  0  0  0
  -30.5082  -17.7563   21.9674 C   0  0  0  0  0  0
  -31.1012  -19.3733   18.4324 C   0  0  0  0  0  0
  -26.0585  -17.0092   22.7488 C   0  0  0  0  0  0
  -28.2013  -16.6670   23.8714 C   0  0  0  0  0  0
  -27.9083  -23.6535   20.2315 C   0  0  0  0  0  0
  -28.1094  -17.1028   21.3120 C   0  0  0  0  0  0
  -29.5436  -17.4759   20.8036 C   0  0  2  0  0  0
  -30.0664  -20.0286   19.2928 N   0  0  0  0  0  0
  -28.5937  -20.5369   20.7159 N   0  3  0  0  0  0
  -27.5355  -17.3047   22.6884 N   0  3  0  0  0  0
  -31.4088  -13.4376   19.1228 H   0  0  0  0  0  0
  -30.6555  -12.3042   20.1850 H   0  0  0  0  0  0
  -30.0583  -11.8507   17.8409 H   0  0  0  0  0  0
  -29.4920  -13.4883   17.5877 H   0  0  0  0  0  0
  -28.1466  -11.2808   19.1689 H   0  0  0  0  0  0
  -27.4879  -12.2176   17.8630 H   0  0  0  0  0  0
  -27.4791  -14.2024   19.2433 H   0  0  0  0  0  0
  -28.9470  -12.6284   21.3953 H   0  0  0  0  0  0
  -28.1389  -14.0689   21.7553 H   0  0  0  0  0  0
  -25.2948   -9.5591   22.4494 H   0  0  0  0  0  0
  -24.0203   -7.4504   22.7303 H   0  0  0  0  0  0
  -21.0679   -8.8621   19.9332 H   0  0  0  0  0  0
  -22.3432  -10.9528   19.6333 H   0  0  0  0  0  0
  -21.1336   -7.5994   23.9662 H   0  0  0  0  0  0
  -21.1908   -6.0578   25.9108 H   0  0  0  0  0  0
  -22.0366   -2.7546   23.2905 H   0  0  0  0  0  0
  -22.4794  -12.0184   22.5746 H   0  0  0  0  0  0
  -21.1362  -13.0908   22.2955 H   0  0  0  0  0  0
  -24.5132  -15.6857   20.1932 H   0  0  0  0  0  0
  -26.0977  -15.4715   19.6735 H   0  0  0  0  0  0
  -26.7531  -32.4820   23.0676 H   0  0  0  0  0  0
  -25.0344  -33.9381   25.0121 H   0  0  0  0  0  0
  -22.8514  -31.2351   21.3157 H   0  0  0  0  0  0
  -23.3790  -35.9334   23.3271 H   0  0  0  0  0  0
  -24.3542  -36.8729   22.2026 H   0  0  0  0  0  0
  -23.7292  -37.6180   23.6758 H   0  0  0  0  0  0
  -26.2698  -31.2870   20.6326 H   0  0  0  0  0  0
  -26.9644  -30.6120   22.0576 H   0  0  0  0  0  0
  -28.1929  -28.3849   21.2684 H   0  0  0  0  0  0
  -25.8157  -25.5840   19.0593 H   0  0  0  0  0  0
  -24.0339  -27.2288   18.9313 H   0  0  0  0  0  0
  -23.9335  -30.4673   19.3969 H   0  0  0  0  0  0
  -22.8923  -29.1533   19.8014 H   0  0  0  0  0  0
  -25.1321  -36.1485   25.0728 H   0  0  0  0  0  0
  -21.0019  -28.3384   24.1199 H   0  0  0  0  0  0
  -20.5379  -26.2387   23.3662 H   0  0  0  0  0  0
  -21.6571  -26.7182   22.1264 H   0  0  0  0  0  0
  -19.6944  -25.6227   21.1220 H   0  0  0  0  0  0
  -19.6690  -27.3085   20.6678 H   0  0  0  0  0  0
  -17.4094  -26.6607   21.4003 H   0  0  0  0  0  0
  -18.0362  -26.0080   22.8974 H   0  0  0  0  0  0
  -19.8027  -30.7150   24.2374 H   0  0  0  0  0  0
  -17.5096  -31.6289   24.5028 H   0  0  0  0  0  0
  -15.5392  -30.2976   23.7660 H   0  0  0  0  0  0
  -15.8657  -28.0698   22.7323 H   0  0  0  0  0  0
  -24.6104  -30.6993   25.7557 H   0  0  0  0  0  0
  -24.8858  -32.3024   26.4250 H   0  0  0  0  0  0
  -25.8044  -30.9291   27.0187 H   0  0  0  0  0  0
  -26.3341  -29.6385   24.1322 H   0  0  0  0  0  0
  -27.4014  -29.7115   25.5090 H   0  0  0  0  0  0
  -27.9262  -30.3825   23.9940 H   0  0  0  0  0  0
  -27.2802  -33.3605   26.1816 H   0  0  0  0  0  0
  -28.4198  -32.6543   25.0545 H   0  0  0  0  0  0
  -28.0495  -31.8451   26.5635 H   0  0  0  0  0  0
  -28.2401  -37.9993   24.7384 H   0  0  0  0  0  0
  -28.1109  -36.2470   24.6426 H   0  0  0  0  0  0
  -27.2176  -37.1344   25.8852 H   0  0  0  0  0  0
  -20.9688  -29.8831   21.6542 H   0  0  0  0  0  0
  -26.0021  -38.2528   24.1597 H   0  0  0  0  0  0
  -30.2894  -22.0254   18.4432 H   0  0  0  0  0  0
  -30.0626  -18.4121   22.7102 H   0  0  0  0  0  0
  -31.3910  -18.2682   21.5791 H   0  0  0  0  0  0
  -30.8439  -16.8508   22.4752 H   0  0  0  0  0  0
  -31.3463  -20.0203   17.5687 H   0  0  0  0  0  0
  -30.7138  -18.4295   18.0125 H   0  0  0  0  0  0
  -32.0350  -19.2173   19.0034 H   0  0  0  0  0  0
  -25.6231  -17.3665   23.6928 H   0  0  0  0  0  0
  -25.8635  -15.9278   22.6768 H   0  0  0  0  0  0
  -25.4823  -17.5051   21.9582 H   0  0  0  0  0  0
  -27.6602  -16.9960   24.7639 H   0  0  0  0  0  0
  -29.2341  -16.9716   24.0233 H   0  0  0  0  0  0
  -28.1731  -15.5698   23.8499 H   0  0  0  0  0  0
  -27.2784  -23.5524   21.1169 H   0  0  0  0  0  0
  -27.1809  -23.5775   19.4191 H   0  0  0  0  0  0
  -27.6211  -18.0738   21.4447 H   0  0  0  0  0  0
  -28.0550  -16.0825   21.6748 H   0  0  0  0  0  0
  -27.9302  -20.4700   21.4798 H   0  0  0  0  0  0
  -27.5938  -18.2937   22.8718 H   0  0  0  0  0  0
  1 25  1  0  0  0
  1 30  2  0  0  0
  1 80  1  0  0  0
  2  3  1  0  0  0
  2 25  1  0  0  0
  2 84  1  0  0  0
  2 85  1  0  0  0
  3  4  1  0  0  0
  3 86  1  0  0  0
  3 87  1  0  0  0
  4  5  1  0  0  0
  4 88  1  0  0  0
  4 89  1  0  0  0
  5  6  1  0  0  0
  5 26  1  0  0  0
  5 90  1  0  0  0
  6 25  1  0  0  0
  6 91  1  0  0  0
  6 92  1  0  0  0
  7  8  2  0  0  0
  7 26  1  0  0  0
  7 29  1  0  0  0
  8  9  1  0  0  0
  8 22  1  0  0  0
  9 10  1  0  0  0
  9 27  2  0  0  0
 10 11  2  0  0  0
 10 15  1  0  0  0
 11 12  1  0  0  0
 11 93  1  0  0  0
 12 13  2  0  0  0
 12 94  1  0  0  0
 13 14  1  0  0  0
 13 31  1  0  0  0
 14 15  2  0  0  0
 14 95  1  0  0  0
 15 96  1  0  0  0
 16 17  2  0  0  0
 16 21  1  0  0  0
 16 31  1  0  0  0
 17 18  1  0  0  0
 17 97  1  0  0  0
 18 19  2  0  0  0
 18 98  1  0  0  0
 19 20  1  0  0  0
 19 24  1  0  0  0
 20 21  2  0  0  0
 20 99  1  0  0  0
 21 23  1  0  0  0
 22 28  1  0  0  0
 22 32  2  0  0  0
 26 27  1  0  0  0
 28100  1  0  0  0
 28101  1  0  0  0
 29102  1  0  0  0
 29103  1  0  0  0
 33 34  1  0  0  0
 33 66  1  0  0  0
 33 70  2  0  0  0
 34 36  1  0  0  0
 34 59  1  0  0  0
 34104  1  0  0  0
 35 44  2  0  0  0
 35 45  1  0  0  0
 35 68  1  0  0  0
 36 56  1  0  0  0
 36105  1  0  0  0
 37 39  1  0  0  0
 37 47  1  0  0  0
 37 66  1  0  0  0
 37106  1  0  0  0
 38 43  2  0  0  0
 38 46  1  0  0  0
 38 47  1  0  0  0
 39 64  1  0  0  0
 39 67  2  0  0  0
 40 52  1  0  0  0
 40 53  2  0  0  0
 40 58  1  0  0  0
 41107  1  0  0  0
 41108  1  0  0  0
 41109  1  0  0  0
 41 48  1  0  0  0
 42 43  1  0  0  0
 42 66  1  0  0  0
 42110  1  0  0  0
 42111  1  0  0  0
 43 44  1  0  0  0
 44112  1  0  0  0
 45 46  2  0  0  0
 45113  1  0  0  0
 46114  1  0  0  0
 47115  1  0  0  0
 47116  1  0  0  0
 48 56  1  0  0  0
 48 65  1  0  0  0
 48117  1  0  0  0
 49 50  1  0  0  0
 49 53  1  0  0  0
 49 64  1  0  0  0
 49118  1  0  0  0
 50 51  1  0  0  0
 50119  1  0  0  0
 50120  1  0  0  0
 51 52  1  0  0  0
 51121  1  0  0  0
 51122  1  0  0  0
 52123  1  0  0  0
 52124  1  0  0  0
 53 54  1  0  0  0
 54 55  2  0  0  0
 54125  1  0  0  0
 55 57  1  0  0  0
 55126  1  0  0  0
 56 69  2  0  0  0
 57 58  2  0  0  0
 57127  1  0  0  0
 58128  1  0  0  0
 59 60  1  0  0  0
 59 61  1  0  0  0
 59 62  1  0  0  0
 60129  1  0  0  0
 60130  1  0  0  0
 60131  1  0  0  0
 61132  1  0  0  0
 61133  1  0  0  0
 61134  1  0  0  0
 62135  1  0  0  0
 62136  1  0  0  0
 62137  1  0  0  0
 63 65  1  0  0  0
 63138  1  0  0  0
 63139  1  0  0  0
 63140  1  0  0  0
 64141  1  0  0  0
 65142  1  0  0  0
 68 78  1  0  0  0
 71 72  2  0  0  0
 71 81  1  0  0  0
 71143  1  0  0  0
 72 78  1  0  0  0
 72 82  1  0  0  0
 73 80  1  0  0  0
 73 81  1  0  0  0
 73 82  2  0  0  0
 74144  1  0  0  0
 74145  1  0  0  0
 74146  1  0  0  0
 74 80  1  0  0  0
 75 81  1  0  0  0
 75147  1  0  0  0
 75148  1  0  0  0
 75149  1  0  0  0
 76150  1  0  0  0
 76151  1  0  0  0
 76152  1  0  0  0
 76 83  1  0  0  0
 77 83  1  0  0  0
 77153  1  0  0  0
 77154  1  0  0  0
 77155  1  0  0  0
 78156  1  0  0  0
 78157  1  0  0  0
 79 80  1  0  0  0
 79 83  1  0  0  0
 79158  1  0  0  0
 79159  1  0  0  0
 82160  1  0  0  0
 83161  1  0  0  0
M  CHG  2  82   1  83   1
M  ISO  4   1 100  68 101  78 101  80 100
M  END
> <chiral flag>
0

> <version>
0

> <s_m_source_file>
/data/baiqing/PycharmProjects/Reinvent-master-3.2/result/LINK_invent/BTK/process_docking_weight1_custom_sum_contain_oxygen_bond_distance_aromatic_linkinvent_7_9_3/rearranged_h_0056.sdf

> <i_m_source_file_index>
87

> <r_mmod_Potential_Energy-OPLS-2005>
2856.3720703125

> <r_mmod_Stretch_Energy-OPLS-2005>
1302.50317382812

> <r_mmod_Bend_Energy-OPLS-2005>
931.819580078125

> <r_mmod_Torsional_Energy-OPLS-2005>
252.5595703125

> <r_mmod_Improper_Torsional_Energy-OPLS-2005>
7.64841032028198

> <r_mmod_Van_der_Waal_Energy-OPLS-2005>
135.450088500977

> <r_mmod_Electrostatic_Energy-OPLS-2005>
169.097305297852

> <r_mmod_Solvation_Energy-OPLS-2005>
-936.548583984375

> <b_mmod_Minimization_Converged-OPLS-2005>
0

> <r_mmod_RMS_Derivative-OPLS-2005>
23.4299869537354

$$$$
90
                    3D
 Structure written by MMmdl.
151159  0  0  1  0            999 V2000
  -30.3652  -15.3022   20.3776 C   0  0  0  0  0  0
  -30.4537  -12.8267   19.5423 C   0  0  0  0  0  0
  -29.5512  -12.5926   18.3010 C   0  0  0  0  0  0
  -28.0968  -12.3062   18.7167 C   0  0  0  0  0  0
  -27.6152  -13.2741   19.8246 C   0  0  2  0  0  0
  -28.6419  -13.4344   20.9636 C   0  0  0  0  0  0
  -25.2398  -13.8235   20.5712 C   0  0  0  0  0  0
  -24.1740  -13.0437   20.9240 C   0  0  0  0  0  0
  -24.6392  -11.6938   20.8740 C   0  0  0  0  0  0
  -23.9079  -10.4297   21.0390 C   0  0  0  0  0  0
  -24.3624   -9.4211   21.9173 C   0  0  0  0  0  0
  -23.6300   -8.2243   22.0746 C   0  0  0  0  0  0
  -22.4280   -8.0281   21.3538 C   0  0  0  0  0  0
  -21.9922   -9.0254   20.4638 C   0  0  0  0  0  0
  -22.7246  -10.2132   20.3044 C   0  0  0  0  0  0
  -21.6860   -6.0734   22.5279 C   0  0  0  0  0  0
  -21.4020   -6.5639   23.8210 C   0  0  0  0  0  0
  -21.3662   -5.6783   24.9170 C   0  0  0  0  0  0
  -21.6047   -4.3044   24.7219 C   0  0  0  0  0  0
  -21.8820   -3.8139   23.4340 C   0  0  0  0  0  0
  -21.9196   -4.6963   22.3401 C   0  0  0  0  0  0
  -22.7754  -13.5198   21.1888 C   0  0  0  0  0  0
  -22.1661   -4.2152   21.0973 F   0  0  0  0  0  0
  -21.5636   -3.4526   25.7729 F   0  0  0  0  0  0
  -29.8831  -13.9572   20.3663 N   0  0  0  0  0  0
  -26.2818  -12.9506   20.3176 N   0  0  0  0  0  0
  -25.9334  -11.6610   20.5696 N   0  0  0  0  0  0
  -22.0410  -12.8193   22.0453 N   0  0  0  0  0  0
  -25.4034  -15.1969   20.4130 N   0  0  0  0  0  0
  -31.5675  -15.3516   20.0703 O   0  0  0  0  0  0
  -21.6640   -6.8882   21.4234 O   0  0  0  0  0  0
  -22.3432  -14.5481   20.6709 O   0  0  0  0  0  0
  -24.6645  -31.8210   23.1683 C   0  0  0  0  0  0
  -25.9321  -32.4575   23.8153 C   0  0  1  0  0  0
  -27.2231  -26.9124   20.1883 C   0  0  0  0  0  0
  -25.5977  -33.8394   24.2071 N   0  0  0  0  0  0
  -23.4806  -30.4287   21.5190 C   0  0  2  0  0  0
  -24.9355  -28.8110   20.1139 C   0  0  0  0  0  0
  -22.7685  -29.4406   22.4793 C   0  0  0  0  0  0
  -18.0315  -28.1401   22.8461 C   0  0  0  0  0  0
  -24.1496  -36.7204   23.2640 C   0  0  0  0  0  0
  -26.0497  -30.6223   21.4005 C   0  0  0  0  0  0
  -26.1190  -29.2093   20.7474 C   0  0  0  0  0  0
  -27.2563  -28.2809   20.7591 C   0  0  0  0  0  0
  -26.0131  -26.6694   19.5003 C   0  0  0  0  0  0
  -24.9085  -27.5633   19.4685 C   0  0  0  0  0  0
  -23.7220  -29.7394   20.1471 C   0  0  0  0  0  0
  -25.4141  -36.2970   24.0292 C   0  0  1  0  0  0
  -20.5946  -28.3736   23.1194 C   0  0  2  0  0  0
  -20.6792  -26.9419   22.5401 C   0  0  0  0  0  0
  -19.5767  -26.6365   21.5214 C   0  0  0  0  0  0
  -18.1949  -26.7930   22.1619 C   0  0  0  0  0  0
  -19.1579  -28.8897   23.2807 C   0  0  0  0  0  0
  -18.9485  -30.1490   23.8833 C   0  0  0  0  0  0
  -17.6481  -30.6590   24.0545 C   0  0  0  0  0  0
  -25.9103  -34.9344   23.5011 C   0  0  0  0  0  0
  -16.5371  -29.9070   23.6342 C   0  0  0  0  0  0
  -16.7298  -28.6492   23.0358 C   0  0  0  0  0  0
  -26.4573  -31.6521   25.0685 C   0  0  0  0  0  0
  -25.3701  -31.3769   26.1343 C   0  0  0  0  0  0
  -27.0453  -30.2877   24.6423 C   0  0  0  0  0  0
  -27.6062  -32.4325   25.7492 C   0  0  0  0  0  0
  -27.5583  -37.1760   24.8465 C   0  0  0  0  0  0
  -21.4353  -29.3022   22.3550 N   0  0  0  0  0  0
  -26.4291  -37.3710   23.9407 N   0  0  0  0  0  0
  -24.7529  -30.9848   22.0830 N   0  0  0  0  0  0
  -23.4228  -28.7982   23.3042 O   0  0  0  0  0  0
  -28.2282  -25.8078   20.2858 O   0  0  0  0  0  0
  -26.5714  -34.8879   22.4605 O   0  0  0  0  0  0
  -23.5709  -32.1185   23.6764 O   0  0  0  0  0  0
  -29.2177  -19.7332   21.0295 C   0  0  0  0  0  0
  -29.3778  -19.0164   19.0771 C   0  0  0  0  0  0
  -29.0327  -20.9809   20.2596 C   0  0  0  0  0  0
  -30.4589  -23.1527   20.2555 C   0  0  0  0  0  0
  -28.8426  -22.8003   22.1123 C   0  0  0  0  0  0
  -29.4705  -16.7861   20.7403 C   0  0  0  0  0  0
  -28.0526  -24.1692   20.0523 C   0  0  0  0  0  0
  -29.0196  -22.7270   20.5875 C   0  0  0  0  0  0
  -29.1834  -20.3795   18.9853 N   0  0  0  0  0  0
  -29.4404  -18.4258   20.3009 N   0  0  0  0  0  0
  -31.4694  -13.0517   19.2131 H   0  0  0  0  0  0
  -30.5395  -11.9156   20.1373 H   0  0  0  0  0  0
  -29.9407  -11.7745   17.6934 H   0  0  0  0  0  0
  -29.5771  -13.4834   17.6722 H   0  0  0  0  0  0
  -28.0536  -11.2799   19.0805 H   0  0  0  0  0  0
  -27.4339  -12.3534   17.8523 H   0  0  0  0  0  0
  -27.5362  -14.2448   19.3331 H   0  0  0  0  0  0
  -28.8053  -12.4910   21.4866 H   0  0  0  0  0  0
  -28.2699  -14.1422   21.7061 H   0  0  0  0  0  0
  -25.2775   -9.5699   22.4742 H   0  0  0  0  0  0
  -24.0030   -7.4629   22.7461 H   0  0  0  0  0  0
  -21.0859   -8.8756   19.8941 H   0  0  0  0  0  0
  -22.3696  -10.9663   19.6149 H   0  0  0  0  0  0
  -21.2013   -7.6145   23.9719 H   0  0  0  0  0  0
  -21.1488   -6.0507   25.9073 H   0  0  0  0  0  0
  -22.0601   -2.7605   23.2831 H   0  0  0  0  0  0
  -22.4039  -11.9898   22.4908 H   0  0  0  0  0  0
  -21.1007  -13.1196   22.2602 H   0  0  0  0  0  0
  -24.6307  -15.8450   20.5205 H   0  0  0  0  0  0
  -26.2432  -15.6388   20.0631 H   0  0  0  0  0  0
  -26.7389  -32.5120   23.0866 H   0  0  0  0  0  0
  -25.0089  -33.9473   25.0200 H   0  0  0  0  0  0
  -22.7943  -31.2596   21.3457 H   0  0  0  0  0  0
  -23.3783  -35.9514   23.3272 H   0  0  0  0  0  0
  -24.3566  -36.8883   22.2063 H   0  0  0  0  0  0
  -23.7242  -37.6374   23.6720 H   0  0  0  0  0  0
  -26.2299  -31.3621   20.6195 H   0  0  0  0  0  0
  -26.9106  -30.6817   22.0551 H   0  0  0  0  0  0
  -28.1526  -28.5813   21.2857 H   0  0  0  0  0  0
  -25.8873  -25.7153   19.0094 H   0  0  0  0  0  0
  -24.0111  -27.2550   18.9502 H   0  0  0  0  0  0
  -23.8758  -30.5047   19.3855 H   0  0  0  0  0  0
  -22.8331  -29.1909   19.8311 H   0  0  0  0  0  0
  -25.1347  -36.1762   25.0786 H   0  0  0  0  0  0
  -21.0016  -28.3329   24.1329 H   0  0  0  0  0  0
  -20.5682  -26.2348   23.3637 H   0  0  0  0  0  0
  -21.6653  -26.7389   22.1210 H   0  0  0  0  0  0
  -19.6921  -25.6263   21.1274 H   0  0  0  0  0  0
  -19.6708  -27.3152   20.6727 H   0  0  0  0  0  0
  -17.4219  -26.6665   21.4026 H   0  0  0  0  0  0
  -18.0337  -26.0091   22.9034 H   0  0  0  0  0  0
  -19.7964  -30.7322   24.2176 H   0  0  0  0  0  0
  -17.5024  -31.6265   24.5152 H   0  0  0  0  0  0
  -15.5370  -30.2944   23.7703 H   0  0  0  0  0  0
  -15.8700  -28.0789   22.7108 H   0  0  0  0  0  0
  -24.5895  -30.7109   25.7646 H   0  0  0  0  0  0
  -24.8881  -32.2967   26.4662 H   0  0  0  0  0  0
  -25.7927  -30.9001   27.0195 H   0  0  0  0  0  0
  -26.3102  -29.6562   24.1420 H   0  0  0  0  0  0
  -27.3959  -29.7235   25.5077 H   0  0  0  0  0  0
  -27.9066  -30.4041   23.9843 H   0  0  0  0  0  0
  -27.2634  -33.3670   26.1946 H   0  0  0  0  0  0
  -28.3945  -32.6816   25.0375 H   0  0  0  0  0  0
  -28.0660  -31.8541   26.5520 H   0  0  0  0  0  0
  -28.2570  -38.0082   24.7533 H   0  0  0  0  0  0
  -28.1105  -36.2611   24.6273 H   0  0  0  0  0  0
  -27.2286  -37.1376   25.8858 H   0  0  0  0  0  0
  -20.9624  -29.8709   21.6670 H   0  0  0  0  0  0
  -26.0135  -38.2763   24.1427 H   0  0  0  0  0  0
  -29.2182  -19.6766   22.1094 H   0  0  0  0  0  0
  -29.4415  -18.4113   18.1831 H   0  0  0  0  0  0
  -31.1895  -22.5126   20.7498 H   0  0  0  0  0  0
  -30.6609  -24.1797   20.5629 H   0  0  0  0  0  0
  -30.6417  -23.0816   19.1835 H   0  0  0  0  0  0
  -29.5882  -22.2035   22.6387 H   0  0  0  0  0  0
  -27.8602  -22.4222   22.3968 H   0  0  0  0  0  0
  -28.9210  -23.8242   22.4814 H   0  0  0  0  0  0
  -28.4536  -16.4699   20.5099 H   0  0  0  0  0  0
  -29.4821  -16.8086   21.8294 H   0  0  0  0  0  0
  -27.0345  -23.9660   20.3826 H   0  0  0  0  0  0
  -28.0027  -24.0786   18.9675 H   0  0  0  0  0  0
  1 25  1  0  0  0
  1 30  2  0  0  0
  1 76  1  0  0  0
  2  3  1  0  0  0
  2 25  1  0  0  0
  2 81  1  0  0  0
  2 82  1  0  0  0
  3  4  1  0  0  0
  3 83  1  0  0  0
  3 84  1  0  0  0
  4  5  1  0  0  0
  4 85  1  0  0  0
  4 86  1  0  0  0
  5  6  1  0  0  0
  5 26  1  0  0  0
  5 87  1  0  0  0
  6 25  1  0  0  0
  6 88  1  0  0  0
  6 89  1  0  0  0
  7  8  2  0  0  0
  7 26  1  0  0  0
  7 29  1  0  0  0
  8  9  1  0  0  0
  8 22  1  0  0  0
  9 10  1  0  0  0
  9 27  2  0  0  0
 10 11  2  0  0  0
 10 15  1  0  0  0
 11 12  1  0  0  0
 11 90  1  0  0  0
 12 13  2  0  0  0
 12 91  1  0  0  0
 13 14  1  0  0  0
 13 31  1  0  0  0
 14 15  2  0  0  0
 14 92  1  0  0  0
 15 93  1  0  0  0
 16 17  2  0  0  0
 16 21  1  0  0  0
 16 31  1  0  0  0
 17 18  1  0  0  0
 17 94  1  0  0  0
 18 19  2  0  0  0
 18 95  1  0  0  0
 19 20  1  0  0  0
 19 24  1  0  0  0
 20 21  2  0  0  0
 20 96  1  0  0  0
 21 23  1  0  0  0
 22 28  1  0  0  0
 22 32  2  0  0  0
 26 27  1  0  0  0
 28 97  1  0  0  0
 28 98  1  0  0  0
 29 99  1  0  0  0
 29100  1  0  0  0
 33 34  1  0  0  0
 33 66  1  0  0  0
 33 70  2  0  0  0
 34 36  1  0  0  0
 34 59  1  0  0  0
 34101  1  0  0  0
 35 44  2  0  0  0
 35 45  1  0  0  0
 35 68  1  0  0  0
 36 56  1  0  0  0
 36102  1  0  0  0
 37 39  1  0  0  0
 37 47  1  0  0  0
 37 66  1  0  0  0
 37103  1  0  0  0
 38 43  2  0  0  0
 38 46  1  0  0  0
 38 47  1  0  0  0
 39 64  1  0  0  0
 39 67  2  0  0  0
 40 52  1  0  0  0
 40 53  2  0  0  0
 40 58  1  0  0  0
 41104  1  0  0  0
 41105  1  0  0  0
 41106  1  0  0  0
 41 48  1  0  0  0
 42 43  1  0  0  0
 42 66  1  0  0  0
 42107  1  0  0  0
 42108  1  0  0  0
 43 44  1  0  0  0
 44109  1  0  0  0
 45 46  2  0  0  0
 45110  1  0  0  0
 46111  1  0  0  0
 47112  1  0  0  0
 47113  1  0  0  0
 48 56  1  0  0  0
 48 65  1  0  0  0
 48114  1  0  0  0
 49 50  1  0  0  0
 49 53  1  0  0  0
 49 64  1  0  0  0
 49115  1  0  0  0
 50 51  1  0  0  0
 50116  1  0  0  0
 50117  1  0  0  0
 51 52  1  0  0  0
 51118  1  0  0  0
 51119  1  0  0  0
 52120  1  0  0  0
 52121  1  0  0  0
 53 54  1  0  0  0
 54 55  2  0  0  0
 54122  1  0  0  0
 55 57  1  0  0  0
 55123  1  0  0  0
 56 69  2  0  0  0
 57 58  2  0  0  0
 57124  1  0  0  0
 58125  1  0  0  0
 59 60  1  0  0  0
 59 61  1  0  0  0
 59 62  1  0  0  0
 60126  1  0  0  0
 60127  1  0  0  0
 60128  1  0  0  0
 61129  1  0  0  0
 61130  1  0  0  0
 61131  1  0  0  0
 62132  1  0  0  0
 62133  1  0  0  0
 62134  1  0  0  0
 63 65  1  0  0  0
 63135  1  0  0  0
 63136  1  0  0  0
 63137  1  0  0  0
 64138  1  0  0  0
 65139  1  0  0  0
 68 77  1  0  0  0
 71 73  2  0  0  0
 71 80  1  0  0  0
 71140  1  0  0  0
 72 79  2  0  0  0
 72 80  1  0  0  0
 72141  1  0  0  0
 73 78  1  0  0  0
 73 79  1  0  0  0
 74142  1  0  0  0
 74143  1  0  0  0
 74144  1  0  0  0
 74 78  1  0  0  0
 75 78  1  0  0  0
 75145  1  0  0  0
 75146  1  0  0  0
 75147  1  0  0  0
 76 80  1  0  0  0
 76148  1  0  0  0
 76149  1  0  0  0
 77 78  1  0  0  0
 77150  1  0  0  0
 77151  1  0  0  0
M  ISO  4   1 100  68 101  76 100  77 101
M  END
> <chiral flag>
0

> <version>
0

> <s_m_source_file>
/data/baiqing/PycharmProjects/Reinvent-master-3.2/result/LINK_invent/BTK/process_docking_weight1_custom_sum_contain_oxygen_bond_distance_aromatic_linkinvent_7_9_3/rearranged_h_0056.sdf

> <i_m_source_file_index>
88

> <r_mmod_Potential_Energy-OPLS-2005>
1341.64074707031

> <r_mmod_Stretch_Energy-OPLS-2005>
626.048034667969

> <r_mmod_Bend_Energy-OPLS-2005>
480.046264648438

> <r_mmod_Torsional_Energy-OPLS-2005>
185.745315551758

> <r_mmod_Improper_Torsional_Energy-OPLS-2005>
5.0250358581543

> <r_mmod_Van_der_Waal_Energy-OPLS-2005>
102.550399780273

> <r_mmod_Electrostatic_Energy-OPLS-2005>
-331.039733886719

> <r_mmod_Solvation_Energy-OPLS-2005>
-220.588119506836

> <b_mmod_Minimization_Converged-OPLS-2005>
0

> <r_mmod_RMS_Derivative-OPLS-2005>
2.34045648574829

$$$$
91
                    3D
 Structure written by MMmdl.
157165  0  0  1  0            999 V2000
  -30.5123  -15.0588   20.4209 C   0  0  0  0  0  0
  -30.4314  -12.6691   19.5068 C   0  0  0  0  0  0
  -29.5188  -12.5353   18.2649 C   0  0  0  0  0  0
  -28.0577  -12.3039   18.6880 C   0  0  0  0  0  0
  -27.6141  -13.2594   19.8243 C   0  0  2  0  0  0
  -28.6511  -13.3518   20.9610 C   0  0  0  0  0  0
  -25.2383  -13.8224   20.5717 C   0  0  0  0  0  0
  -24.1734  -13.0419   20.9249 C   0  0  0  0  0  0
  -24.6372  -11.6916   20.8752 C   0  0  0  0  0  0
  -23.9063  -10.4293   21.0411 C   0  0  0  0  0  0
  -24.3619   -9.4210   21.9185 C   0  0  0  0  0  0
  -23.6307   -8.2237   22.0739 C   0  0  0  0  0  0
  -22.4285   -8.0271   21.3526 C   0  0  0  0  0  0
  -21.9909   -9.0247   20.4635 C   0  0  0  0  0  0
  -22.7234  -10.2136   20.3058 C   0  0  0  0  0  0
  -21.6850   -6.0739   22.5286 C   0  0  0  0  0  0
  -21.4030   -6.5640   23.8230 C   0  0  0  0  0  0
  -21.3670   -5.6782   24.9184 C   0  0  0  0  0  0
  -21.6050   -4.3044   24.7228 C   0  0  0  0  0  0
  -21.8812   -3.8138   23.4344 C   0  0  0  0  0  0
  -21.9187   -4.6965   22.3408 C   0  0  0  0  0  0
  -22.7749  -13.5176   21.1898 C   0  0  0  0  0  0
  -22.1644   -4.2147   21.0983 F   0  0  0  0  0  0
  -21.5620   -3.4529   25.7743 F   0  0  0  0  0  0
  -29.9083  -13.7951   20.3442 N   0  0  0  0  0  0
  -26.2798  -12.9478   20.3185 N   0  0  0  0  0  0
  -25.9301  -11.6594   20.5699 N   0  0  0  0  0  0
  -22.0385  -12.8199   22.0471 N   0  0  0  0  0  0
  -25.3966  -15.1967   20.4183 N   0  0  0  0  0  0
  -31.7318  -15.0584   20.2167 O   0  0  0  0  0  0
  -21.6632   -6.8883   21.4247 O   0  0  0  0  0  0
  -22.3441  -14.5479   20.6732 O   0  0  0  0  0  0
  -24.5545  -31.8383   23.1921 C   0  0  0  0  0  0
  -25.7452  -32.4776   23.9746 C   0  0  1  0  0  0
  -27.2279  -27.0892   20.2079 C   0  0  0  0  0  0
  -25.6138  -33.9089   24.2211 N   0  0  0  0  0  0
  -23.4462  -30.4428   21.5165 C   0  0  2  0  0  0
  -24.9150  -28.8605   20.1352 C   0  0  0  0  0  0
  -22.7535  -29.4367   22.4727 C   0  0  0  0  0  0
  -18.0289  -28.1376   22.8478 C   0  0  0  0  0  0
  -24.1750  -36.7314   23.2381 C   0  0  0  0  0  0
  -25.9954  -30.7310   21.4017 C   0  0  0  0  0  0
  -26.0869  -29.3139   20.7620 C   0  0  0  0  0  0
  -27.2473  -28.4429   20.7625 C   0  0  0  0  0  0
  -26.0252  -26.7433   19.5609 C   0  0  0  0  0  0
  -24.8956  -27.5952   19.5252 C   0  0  0  0  0  0
  -23.6942  -29.7635   20.1484 C   0  0  0  0  0  0
  -25.4502  -36.3152   23.9898 C   0  0  1  0  0  0
  -20.5893  -28.3673   23.1238 C   0  0  2  0  0  0
  -20.6744  -26.9367   22.5426 C   0  0  0  0  0  0
  -19.5745  -26.6341   21.5211 C   0  0  0  0  0  0
  -18.1918  -26.7913   22.1607 C   0  0  0  0  0  0
  -19.1549  -28.8845   23.2842 C   0  0  0  0  0  0
  -18.9475  -30.1443   23.8860 C   0  0  0  0  0  0
  -17.6478  -30.6578   24.0548 C   0  0  0  0  0  0
  -25.9501  -34.9504   23.4712 C   0  0  0  0  0  0
  -16.5364  -29.9074   23.6343 C   0  0  0  0  0  0
  -16.7274  -28.6488   23.0368 C   0  0  0  0  0  0
  -26.4707  -31.6218   25.0956 C   0  0  0  0  0  0
  -25.5003  -31.1967   26.2428 C   0  0  0  0  0  0
  -27.0892  -30.3168   24.5526 C   0  0  0  0  0  0
  -27.6198  -32.4376   25.7281 C   0  0  0  0  0  0
  -27.5701  -37.1913   24.8402 C   0  0  0  0  0  0
  -21.4219  -29.2933   22.3534 N   0  0  0  0  0  0
  -26.4596  -37.3874   23.9117 N   0  0  0  0  0  0
  -24.7006  -31.0302   22.0940 N   0  0  0  0  0  0
  -23.4159  -28.7970   23.2943 O   0  0  0  0  0  0
  -28.3265  -26.1415   20.1589 O   0  0  0  0  0  0
  -26.5915  -34.8555   22.4257 O   0  0  0  0  0  0
  -23.4170  -32.1054   23.6158 O   0  0  0  0  0  0
  -28.5675  -20.7450   18.7780 C   0  0  0  0  0  0
  -28.6518  -21.5444   19.9066 C   0  0  0  0  0  0
  -29.3426  -19.2250   20.2950 C   0  0  0  0  0  0
  -29.9418  -17.9038   22.4306 C   0  0  0  0  0  0
  -31.5982  -18.0724   20.5998 C   0  0  0  0  0  0
  -28.9788  -18.3545   18.0252 C   0  0  0  0  0  0
  -28.0864  -23.1426   19.8724 C   0  0  0  0  0  0
  -28.4250  -24.6272   20.6425 C   0  0  0  0  0  0
  -30.1028  -17.8418   20.9005 C   0  0  0  0  0  0
  -28.9556  -19.4259   19.0236 N   0  0  0  0  0  0
  -29.1450  -20.5309   20.8279 N   0  3  0  0  0  0
  -29.7611  -16.2955   20.5354 N   0  0  0  0  0  0
  -31.4607  -12.8383   19.1856 H   0  0  0  0  0  0
  -30.4508  -11.7409   20.0800 H   0  0  0  0  0  0
  -29.8575  -11.7168   17.6289 H   0  0  0  0  0  0
  -29.5881  -13.4404   17.6606 H   0  0  0  0  0  0
  -27.9773  -11.2694   19.0271 H   0  0  0  0  0  0
  -27.3928  -12.3956   17.8289 H   0  0  0  0  0  0
  -27.5582  -14.2455   19.3623 H   0  0  0  0  0  0
  -28.7653  -12.3959   21.4712 H   0  0  0  0  0  0
  -28.3278  -14.0723   21.7140 H   0  0  0  0  0  0
  -25.2756   -9.5694   22.4768 H   0  0  0  0  0  0
  -24.0007   -7.4625   22.7463 H   0  0  0  0  0  0
  -21.0819   -8.8769   19.8960 H   0  0  0  0  0  0
  -22.3659  -10.9674   19.6173 H   0  0  0  0  0  0
  -21.2035   -7.6146   23.9739 H   0  0  0  0  0  0
  -21.1491   -6.0509   25.9092 H   0  0  0  0  0  0
  -22.0579   -2.7597   23.2842 H   0  0  0  0  0  0
  -22.3983  -11.9883   22.4924 H   0  0  0  0  0  0
  -21.0983  -13.1225   22.2617 H   0  0  0  0  0  0
  -24.6172  -15.8333   20.5471 H   0  0  0  0  0  0
  -26.2207  -15.6524   20.0528 H   0  0  0  0  0  0
  -25.0414  -32.7263   24.7565 H   0  0  0  0  0  0
  -25.0768  -34.1390   25.0448 H   0  0  0  0  0  0
  -22.7377  -31.2524   21.3334 H   0  0  0  0  0  0
  -23.4090  -35.9571   23.3083 H   0  0  0  0  0  0
  -24.3718  -36.9008   22.1784 H   0  0  0  0  0  0
  -23.7482  -37.6459   23.6514 H   0  0  0  0  0  0
  -26.0967  -31.4565   20.5936 H   0  0  0  0  0  0
  -26.8576  -30.9093   22.0326 H   0  0  0  0  0  0
  -28.1538  -28.7933   21.2352 H   0  0  0  0  0  0
  -25.9490  -25.7762   19.0822 H   0  0  0  0  0  0
  -23.9965  -27.2506   19.0314 H   0  0  0  0  0  0
  -23.8412  -30.5278   19.3846 H   0  0  0  0  0  0
  -22.8150  -29.1972   19.8339 H   0  0  0  0  0  0
  -25.1686  -36.1999   25.0394 H   0  0  0  0  0  0
  -20.9987  -28.3279   24.1357 H   0  0  0  0  0  0
  -20.5592  -26.2291   23.3647 H   0  0  0  0  0  0
  -21.6624  -26.7323   22.1263 H   0  0  0  0  0  0
  -19.6884  -25.6235   21.1263 H   0  0  0  0  0  0
  -19.6703  -27.3136   20.6736 H   0  0  0  0  0  0
  -17.4194  -26.6679   21.3994 H   0  0  0  0  0  0
  -18.0293  -26.0052   22.8996 H   0  0  0  0  0  0
  -19.7962  -30.7267   24.2197 H   0  0  0  0  0  0
  -17.5045  -31.6263   24.5144 H   0  0  0  0  0  0
  -15.5365  -30.2967   23.7686 H   0  0  0  0  0  0
  -15.8681  -28.0794   22.7104 H   0  0  0  0  0  0
  -24.6543  -30.6197   25.8661 H   0  0  0  0  0  0
  -25.1014  -32.0491   26.7957 H   0  0  0  0  0  0
  -26.0070  -30.5697   26.9780 H   0  0  0  0  0  0
  -26.3534  -29.6829   24.0572 H   0  0  0  0  0  0
  -27.5211  -29.7196   25.3575 H   0  0  0  0  0  0
  -27.9060  -30.5149   23.8596 H   0  0  0  0  0  0
  -27.2532  -33.3207   26.2514 H   0  0  0  0  0  0
  -28.3264  -32.7771   24.9702 H   0  0  0  0  0  0
  -28.1789  -31.8475   26.4550 H   0  0  0  0  0  0
  -28.2742  -38.0202   24.7563 H   0  0  0  0  0  0
  -28.1231  -36.2740   24.6355 H   0  0  0  0  0  0
  -27.2237  -37.1593   25.8745 H   0  0  0  0  0  0
  -20.9410  -29.8635   21.6719 H   0  0  0  0  0  0
  -26.0402  -38.2922   24.1075 H   0  0  0  0  0  0
  -28.2253  -21.0330   17.7938 H   0  0  0  0  0  0
  -30.3374  -18.8336   22.8402 H   0  0  0  0  0  0
  -30.4725  -17.0882   22.9237 H   0  0  0  0  0  0
  -28.8921  -17.8424   22.7192 H   0  0  0  0  0  0
  -31.9145  -19.0696   20.9060 H   0  0  0  0  0  0
  -31.8131  -17.9716   19.5355 H   0  0  0  0  0  0
  -32.2411  -17.3750   21.1349 H   0  0  0  0  0  0
  -28.5193  -18.7063   17.1011 H   0  0  0  0  0  0
  -28.4181  -17.4943   18.3946 H   0  0  0  0  0  0
  -30.0114  -18.0702   17.8228 H   0  0  0  0  0  0
  -27.0030  -23.0439   19.9563 H   0  0  0  0  0  0
  -28.2252  -23.4162   18.8272 H   0  0  0  0  0  0
  -27.9534  -24.5897   21.6244 H   0  0  0  0  0  0
  -29.4895  -24.5545   20.8697 H   0  0  0  0  0  0
  -29.3515  -20.7414   21.7966 H   0  0  0  0  0  0
  -28.7680  -16.1191   20.5427 H   0  0  0  0  0  0
  1 25  1  0  0  0
  1 30  2  0  0  0
  1 82  1  0  0  0
  2  3  1  0  0  0
  2 25  1  0  0  0
  2 83  1  0  0  0
  2 84  1  0  0  0
  3  4  1  0  0  0
  3 85  1  0  0  0
  3 86  1  0  0  0
  4  5  1  0  0  0
  4 87  1  0  0  0
  4 88  1  0  0  0
  5  6  1  0  0  0
  5 26  1  0  0  0
  5 89  1  0  0  0
  6 25  1  0  0  0
  6 90  1  0  0  0
  6 91  1  0  0  0
  7  8  2  0  0  0
  7 26  1  0  0  0
  7 29  1  0  0  0
  8  9  1  0  0  0
  8 22  1  0  0  0
  9 10  1  0  0  0
  9 27  2  0  0  0
 10 11  2  0  0  0
 10 15  1  0  0  0
 11 12  1  0  0  0
 11 92  1  0  0  0
 12 13  2  0  0  0
 12 93  1  0  0  0
 13 14  1  0  0  0
 13 31  1  0  0  0
 14 15  2  0  0  0
 14 94  1  0  0  0
 15 95  1  0  0  0
 16 17  2  0  0  0
 16 21  1  0  0  0
 16 31  1  0  0  0
 17 18  1  0  0  0
 17 96  1  0  0  0
 18 19  2  0  0  0
 18 97  1  0  0  0
 19 20  1  0  0  0
 19 24  1  0  0  0
 20 21  2  0  0  0
 20 98  1  0  0  0
 21 23  1  0  0  0
 22 28  1  0  0  0
 22 32  2  0  0  0
 26 27  1  0  0  0
 28 99  1  0  0  0
 28100  1  0  0  0
 29101  1  0  0  0
 29102  1  0  0  0
 33 34  1  0  0  0
 33 66  1  0  0  0
 33 70  2  0  0  0
 34 36  1  0  0  0
 34 59  1  0  0  0
 34103  1  0  0  0
 35 44  2  0  0  0
 35 45  1  0  0  0
 35 68  1  0  0  0
 36 56  1  0  0  0
 36104  1  0  0  0
 37 39  1  0  0  0
 37 47  1  0  0  0
 37 66  1  0  0  0
 37105  1  0  0  0
 38 43  2  0  0  0
 38 46  1  0  0  0
 38 47  1  0  0  0
 39 64  1  0  0  0
 39 67  2  0  0  0
 40 52  1  0  0  0
 40 53  2  0  0  0
 40 58  1  0  0  0
 41106  1  0  0  0
 41107  1  0  0  0
 41108  1  0  0  0
 41 48  1  0  0  0
 42 43  1  0  0  0
 42 66  1  0  0  0
 42109  1  0  0  0
 42110  1  0  0  0
 43 44  1  0  0  0
 44111  1  0  0  0
 45 46  2  0  0  0
 45112  1  0  0  0
 46113  1  0  0  0
 47114  1  0  0  0
 47115  1  0  0  0
 48 56  1  0  0  0
 48 65  1  0  0  0
 48116  1  0  0  0
 49 50  1  0  0  0
 49 53  1  0  0  0
 49 64  1  0  0  0
 49117  1  0  0  0
 50 51  1  0  0  0
 50118  1  0  0  0
 50119  1  0  0  0
 51 52  1  0  0  0
 51120  1  0  0  0
 51121  1  0  0  0
 52122  1  0  0  0
 52123  1  0  0  0
 53 54  1  0  0  0
 54 55  2  0  0  0
 54124  1  0  0  0
 55 57  1  0  0  0
 55125  1  0  0  0
 56 69  2  0  0  0
 57 58  2  0  0  0
 57126  1  0  0  0
 58127  1  0  0  0
 59 60  1  0  0  0
 59 61  1  0  0  0
 59 62  1  0  0  0
 60128  1  0  0  0
 60129  1  0  0  0
 60130  1  0  0  0
 61131  1  0  0  0
 61132  1  0  0  0
 61133  1  0  0  0
 62134  1  0  0  0
 62135  1  0  0  0
 62136  1  0  0  0
 63 65  1  0  0  0
 63137  1  0  0  0
 63138  1  0  0  0
 63139  1  0  0  0
 64140  1  0  0  0
 65141  1  0  0  0
 68 78  1  0  0  0
 71 72  2  0  0  0
 71 80  1  0  0  0
 71142  1  0  0  0
 72 77  1  0  0  0
 72 81  1  0  0  0
 73 79  1  0  0  0
 73 80  1  0  0  0
 73 81  2  0  0  0
 74143  1  0  0  0
 74144  1  0  0  0
 74145  1  0  0  0
 74 79  1  0  0  0
 75 79  1  0  0  0
 75146  1  0  0  0
 75147  1  0  0  0
 75148  1  0  0  0
 76 80  1  0  0  0
 76149  1  0  0  0
 76150  1  0  0  0
 76151  1  0  0  0
 77 78  1  0  0  0
 77152  1  0  0  0
 77153  1  0  0  0
 78154  1  0  0  0
 78155  1  0  0  0
 79 82  1  0  0  0
 81156  1  0  0  0
 82157  1  0  0  0
M  CHG  1  81   1
M  ISO  4   1 100  68 101  78 101  82 100
M  END
> <chiral flag>
0

> <version>
0

> <s_m_source_file>
/data/baiqing/PycharmProjects/Reinvent-master-3.2/result/LINK_invent/BTK/process_docking_weight1_custom_sum_contain_oxygen_bond_distance_aromatic_linkinvent_7_9_3/rearranged_h_0056.sdf

> <i_m_source_file_index>
89

> <r_mmod_Potential_Energy-OPLS-2005>
938.533325195312

> <r_mmod_Stretch_Energy-OPLS-2005>
361.626129150391

> <r_mmod_Bend_Energy-OPLS-2005>
575.826782226562

> <r_mmod_Torsional_Energy-OPLS-2005>
258.001983642578

> <r_mmod_Improper_Torsional_Energy-OPLS-2005>
6.17270183563232

> <r_mmod_Van_der_Waal_Energy-OPLS-2005>
118.123901367188

> <r_mmod_Electrostatic_Energy-OPLS-2005>
-210.347366333008

> <r_mmod_Solvation_Energy-OPLS-2005>
-430.431549072266

> <b_mmod_Minimization_Converged-OPLS-2005>
0

> <r_mmod_RMS_Derivative-OPLS-2005>
2.76779627799988

$$$$
92
                    3D
 Structure written by MMmdl.
154162  0  0  1  0            999 V2000
  -30.5807  -14.8864   20.5009 C   0  0  0  0  0  0
  -30.4463  -12.5649   19.4855 C   0  0  0  0  0  0
  -29.5186  -12.5461   18.2463 C   0  0  0  0  0  0
  -28.0465  -12.3402   18.6538 C   0  0  0  0  0  0
  -27.6397  -13.2367   19.8513 C   0  0  2  0  0  0
  -28.6851  -13.1616   20.9802 C   0  0  0  0  0  0
  -25.2498  -13.8194   20.5693 C   0  0  0  0  0  0
  -24.1793  -13.0432   20.9192 C   0  0  0  0  0  0
  -24.6393  -11.6913   20.8732 C   0  0  0  0  0  0
  -23.9069  -10.4290   21.0399 C   0  0  0  0  0  0
  -24.3621   -9.4208   21.9179 C   0  0  0  0  0  0
  -23.6293   -8.2246   22.0755 C   0  0  0  0  0  0
  -22.4276   -8.0281   21.3545 C   0  0  0  0  0  0
  -21.9912   -9.0250   20.4646 C   0  0  0  0  0  0
  -22.7238  -10.2129   20.3052 C   0  0  0  0  0  0
  -21.6854   -6.0735   22.5275 C   0  0  0  0  0  0
  -21.4014   -6.5638   23.8208 C   0  0  0  0  0  0
  -21.3661   -5.6789   24.9168 C   0  0  0  0  0  0
  -21.6046   -4.3053   24.7218 C   0  0  0  0  0  0
  -21.8819   -3.8146   23.4338 C   0  0  0  0  0  0
  -21.9192   -4.6963   22.3396 C   0  0  0  0  0  0
  -22.7815  -13.5212   21.1856 C   0  0  0  0  0  0
  -22.1660   -4.2147   21.0975 F   0  0  0  0  0  0
  -21.5631   -3.4540   25.7732 F   0  0  0  0  0  0
  -29.9648  -13.6308   20.4150 N   0  0  0  0  0  0
  -26.2925  -12.9406   20.3273 N   0  0  0  0  0  0
  -25.9325  -11.6544   20.5733 N   0  0  0  0  0  0
  -22.0471  -12.8204   22.0422 N   0  0  0  0  0  0
  -25.4188  -15.1922   20.4140 N   0  0  0  0  0  0
  -31.7412  -14.9647   20.0795 O   0  0  0  0  0  0
  -21.6642   -6.8879   21.4238 O   0  0  0  0  0  0
  -22.3492  -14.5513   20.6696 O   0  0  0  0  0  0
  -24.6407  -31.8486   23.1939 C   0  0  0  0  0  0
  -25.9194  -32.4723   23.8311 C   0  0  1  0  0  0
  -27.2144  -27.1704   20.1288 C   0  0  0  0  0  0
  -25.5959  -33.8528   24.2216 N   0  0  0  0  0  0
  -23.4419  -30.4736   21.5390 C   0  0  2  0  0  0
  -24.8901  -28.9153   20.1088 C   0  0  0  0  0  0
  -22.7557  -29.4578   22.4865 C   0  0  0  0  0  0
  -18.0307  -28.1401   22.8484 C   0  0  0  0  0  0
  -24.1483  -36.7263   23.2642 C   0  0  0  0  0  0
  -25.9990  -30.7307   21.3928 C   0  0  0  0  0  0
  -26.0693  -29.3480   20.7289 C   0  0  0  0  0  0
  -27.2320  -28.4911   20.7284 C   0  0  0  0  0  0
  -26.0049  -26.8462   19.4648 C   0  0  0  0  0  0
  -24.8688  -27.6745   19.4646 C   0  0  0  0  0  0
  -23.6674  -29.8145   20.1549 C   0  0  0  0  0  0
  -25.4119  -36.3050   24.0317 C   0  0  1  0  0  0
  -20.5916  -28.3721   23.1240 C   0  0  2  0  0  0
  -20.6796  -26.9428   22.5399 C   0  0  0  0  0  0
  -19.5767  -26.6385   21.5211 C   0  0  0  0  0  0
  -18.1947  -26.7941   22.1621 C   0  0  0  0  0  0
  -19.1564  -28.8877   23.2854 C   0  0  0  0  0  0
  -18.9484  -30.1475   23.8880 C   0  0  0  0  0  0
  -17.6482  -30.6598   24.0564 C   0  0  0  0  0  0
  -25.9069  -34.9425   23.5066 C   0  0  0  0  0  0
  -16.5370  -29.9096   23.6344 C   0  0  0  0  0  0
  -16.7290  -28.6511   23.0363 C   0  0  0  0  0  0
  -26.4526  -31.6580   25.0742 C   0  0  0  0  0  0
  -25.3711  -31.3766   26.1433 C   0  0  0  0  0  0
  -27.0394  -30.2978   24.6325 C   0  0  0  0  0  0
  -27.6061  -32.4340   25.7529 C   0  0  0  0  0  0
  -27.5573  -37.1796   24.8472 C   0  0  0  0  0  0
  -21.4252  -29.3054   22.3618 N   0  0  0  0  0  0
  -26.4287  -37.3763   23.9413 N   0  0  0  0  0  0
  -24.7134  -31.0375   22.0967 N   0  0  0  0  0  0
  -23.4220  -28.8112   23.2988 O   0  0  0  0  0  0
  -28.2546  -26.1738   20.1995 O   0  0  0  0  0  0
  -26.5646  -34.8919   22.4637 O   0  0  0  0  0  0
  -23.5530  -32.1343   23.7172 O   0  0  0  0  0  0
  -29.0703  -21.1345   19.0888 C   0  0  0  0  0  0
  -29.2021  -20.4085   20.3178 C   0  0  0  0  0  0
  -28.8652  -22.5784   21.3444 C   0  0  0  0  0  0
  -28.6701  -23.2924   20.1090 C   0  0  0  0  0  0
  -28.6858  -23.2988   22.6656 C   0  0  0  0  0  0
  -29.1159  -16.0911   22.0841 C   0  0  0  0  0  0
  -29.0499  -18.7779   20.4449 C   0  0  0  0  0  0
  -27.8618  -24.7089   19.9157 C   0  0  0  0  0  0
  -30.2107  -17.5787   20.4587 C   0  0  0  0  0  0
  -28.8187  -22.4986   18.9915 N   0  0  0  0  0  0
  -29.1281  -21.2077   21.4407 N   0  0  0  0  0  0
  -29.8661  -16.0819   20.8222 N   0  0  0  0  0  0
  -31.4772  -12.7261   19.1664 H   0  0  0  0  0  0
  -30.4507  -11.5924   19.9798 H   0  0  0  0  0  0
  -29.8277  -11.7633   17.5522 H   0  0  0  0  0  0
  -29.6167  -13.4895   17.7066 H   0  0  0  0  0  0
  -27.9201  -11.2901   18.9204 H   0  0  0  0  0  0
  -27.3877  -12.5196   17.8035 H   0  0  0  0  0  0
  -27.6321  -14.2617   19.4793 H   0  0  0  0  0  0
  -28.7772  -12.1364   21.3414 H   0  0  0  0  0  0
  -28.3521  -13.7199   21.8467 H   0  0  0  0  0  0
  -25.2769   -9.5682   22.4750 H   0  0  0  0  0  0
  -23.9999   -7.4642   22.7478 H   0  0  0  0  0  0
  -21.0845   -8.8764   19.8956 H   0  0  0  0  0  0
  -22.3693  -10.9664   19.6161 H   0  0  0  0  0  0
  -21.2010   -7.6146   23.9706 H   0  0  0  0  0  0
  -21.1485   -6.0524   25.9069 H   0  0  0  0  0  0
  -22.0600   -2.7609   23.2836 H   0  0  0  0  0  0
  -22.4097  -11.9865   22.4801 H   0  0  0  0  0  0
  -21.1087  -13.1221   22.2635 H   0  0  0  0  0  0
  -24.6535  -15.8470   20.5320 H   0  0  0  0  0  0
  -26.2755  -15.6350   20.1075 H   0  0  0  0  0  0
  -26.7260  -32.5343   23.1045 H   0  0  0  0  0  0
  -25.0125  -33.9660   25.0376 H   0  0  0  0  0  0
  -22.7419  -31.2987   21.3910 H   0  0  0  0  0  0
  -23.3756  -35.9584   23.3299 H   0  0  0  0  0  0
  -24.3569  -36.8894   22.2059 H   0  0  0  0  0  0
  -23.7224  -37.6455   23.6674 H   0  0  0  0  0  0
  -26.1558  -31.4899   20.6255 H   0  0  0  0  0  0
  -26.8685  -30.7745   22.0365 H   0  0  0  0  0  0
  -28.1249  -28.8168   21.2438 H   0  0  0  0  0  0
  -25.8755  -25.9110   18.9452 H   0  0  0  0  0  0
  -23.9696  -27.3398   18.9651 H   0  0  0  0  0  0
  -23.8086  -30.5946   19.4059 H   0  0  0  0  0  0
  -22.7822  -29.2609   19.8372 H   0  0  0  0  0  0
  -25.1302  -36.1886   25.0810 H   0  0  0  0  0  0
  -21.0008  -28.3306   24.1359 H   0  0  0  0  0  0
  -20.5701  -26.2332   23.3612 H   0  0  0  0  0  0
  -21.6664  -26.7448   22.1191 H   0  0  0  0  0  0
  -19.6929  -25.6289   21.1256 H   0  0  0  0  0  0
  -19.6710  -27.3186   20.6731 H   0  0  0  0  0  0
  -17.4218  -26.6688   21.4020 H   0  0  0  0  0  0
  -18.0349  -26.0088   22.9020 H   0  0  0  0  0  0
  -19.7957  -30.7300   24.2238 H   0  0  0  0  0  0
  -17.5035  -31.6281   24.5164 H   0  0  0  0  0  0
  -15.5371  -30.2993   23.7679 H   0  0  0  0  0  0
  -15.8686  -28.0823   22.7093 H   0  0  0  0  0  0
  -24.5906  -30.7095   25.7758 H   0  0  0  0  0  0
  -24.8885  -32.2950   26.4789 H   0  0  0  0  0  0
  -25.8002  -30.8993   27.0249 H   0  0  0  0  0  0
  -26.3014  -29.6707   24.1319 H   0  0  0  0  0  0
  -27.3994  -29.7284   25.4902 H   0  0  0  0  0  0
  -27.8929  -30.4222   23.9661 H   0  0  0  0  0  0
  -27.2660  -33.3664   26.2048 H   0  0  0  0  0  0
  -28.3917  -32.6858   25.0390 H   0  0  0  0  0  0
  -28.0679  -31.8498   26.5497 H   0  0  0  0  0  0
  -28.2597  -38.0090   24.7519 H   0  0  0  0  0  0
  -28.1061  -36.2622   24.6293 H   0  0  0  0  0  0
  -27.2294  -37.1437   25.8878 H   0  0  0  0  0  0
  -20.9446  -29.8777   21.6819 H   0  0  0  0  0  0
  -26.0151  -38.2830   24.1421 H   0  0  0  0  0  0
  -29.0595  -20.5952   18.1523 H   0  0  0  0  0  0
  -29.1593  -24.2809   22.6344 H   0  0  0  0  0  0
  -29.1326  -22.7413   23.4893 H   0  0  0  0  0  0
  -27.6265  -23.4377   22.8808 H   0  0  0  0  0  0
  -28.0495  -15.9631   21.8971 H   0  0  0  0  0  0
  -29.2415  -17.0208   22.6394 H   0  0  0  0  0  0
  -29.4544  -15.3156   22.7730 H   0  0  0  0  0  0
  -28.3563  -18.5061   19.6485 H   0  0  0  0  0  0
  -28.4532  -18.6547   21.3471 H   0  0  0  0  0  0
  -26.9302  -24.5355   20.4556 H   0  0  0  0  0  0
  -27.5997  -24.6960   18.8573 H   0  0  0  0  0  0
  -30.9919  -17.8879   21.1548 H   0  0  0  0  0  0
  -30.6965  -17.5732   19.4823 H   0  0  0  0  0  0
  1 25  1  0  0  0
  1 30  2  0  0  0
  1 82  1  0  0  0
  2  3  1  0  0  0
  2 25  1  0  0  0
  2 83  1  0  0  0
  2 84  1  0  0  0
  3  4  1  0  0  0
  3 85  1  0  0  0
  3 86  1  0  0  0
  4  5  1  0  0  0
  4 87  1  0  0  0
  4 88  1  0  0  0
  5  6  1  0  0  0
  5 26  1  0  0  0
  5 89  1  0  0  0
  6 25  1  0  0  0
  6 90  1  0  0  0
  6 91  1  0  0  0
  7  8  2  0  0  0
  7 26  1  0  0  0
  7 29  1  0  0  0
  8  9  1  0  0  0
  8 22  1  0  0  0
  9 10  1  0  0  0
  9 27  2  0  0  0
 10 11  2  0  0  0
 10 15  1  0  0  0
 11 12  1  0  0  0
 11 92  1  0  0  0
 12 13  2  0  0  0
 12 93  1  0  0  0
 13 14  1  0  0  0
 13 31  1  0  0  0
 14 15  2  0  0  0
 14 94  1  0  0  0
 15 95  1  0  0  0
 16 17  2  0  0  0
 16 21  1  0  0  0
 16 31  1  0  0  0
 17 18  1  0  0  0
 17 96  1  0  0  0
 18 19  2  0  0  0
 18 97  1  0  0  0
 19 20  1  0  0  0
 19 24  1  0  0  0
 20 21  2  0  0  0
 20 98  1  0  0  0
 21 23  1  0  0  0
 22 28  1  0  0  0
 22 32  2  0  0  0
 26 27  1  0  0  0
 28 99  1  0  0  0
 28100  1  0  0  0
 29101  1  0  0  0
 29102  1  0  0  0
 33 34  1  0  0  0
 33 66  1  0  0  0
 33 70  2  0  0  0
 34 36  1  0  0  0
 34 59  1  0  0  0
 34103  1  0  0  0
 35 44  2  0  0  0
 35 45  1  0  0  0
 35 68  1  0  0  0
 36 56  1  0  0  0
 36104  1  0  0  0
 37 39  1  0  0  0
 37 47  1  0  0  0
 37 66  1  0  0  0
 37105  1  0  0  0
 38 43  2  0  0  0
 38 46  1  0  0  0
 38 47  1  0  0  0
 39 64  1  0  0  0
 39 67  2  0  0  0
 40 52  1  0  0  0
 40 53  2  0  0  0
 40 58  1  0  0  0
 41106  1  0  0  0
 41107  1  0  0  0
 41108  1  0  0  0
 41 48  1  0  0  0
 42 43  1  0  0  0
 42 66  1  0  0  0
 42109  1  0  0  0
 42110  1  0  0  0
 43 44  1  0  0  0
 44111  1  0  0  0
 45 46  2  0  0  0
 45112  1  0  0  0
 46113  1  0  0  0
 47114  1  0  0  0
 47115  1  0  0  0
 48 56  1  0  0  0
 48 65  1  0  0  0
 48116  1  0  0  0
 49 50  1  0  0  0
 49 53  1  0  0  0
 49 64  1  0  0  0
 49117  1  0  0  0
 50 51  1  0  0  0
 50118  1  0  0  0
 50119  1  0  0  0
 51 52  1  0  0  0
 51120  1  0  0  0
 51121  1  0  0  0
 52122  1  0  0  0
 52123  1  0  0  0
 53 54  1  0  0  0
 54 55  2  0  0  0
 54124  1  0  0  0
 55 57  1  0  0  0
 55125  1  0  0  0
 56 69  2  0  0  0
 57 58  2  0  0  0
 57126  1  0  0  0
 58127  1  0  0  0
 59 60  1  0  0  0
 59 61  1  0  0  0
 59 62  1  0  0  0
 60128  1  0  0  0
 60129  1  0  0  0
 60130  1  0  0  0
 61131  1  0  0  0
 61132  1  0  0  0
 61133  1  0  0  0
 62134  1  0  0  0
 62135  1  0  0  0
 62136  1  0  0  0
 63 65  1  0  0  0
 63137  1  0  0  0
 63138  1  0  0  0
 63139  1  0  0  0
 64140  1  0  0  0
 65141  1  0  0  0
 68 78  1  0  0  0
 71 72  2  0  0  0
 71 80  1  0  0  0
 71142  1  0  0  0
 72 77  1  0  0  0
 72 81  1  0  0  0
 73 74  1  0  0  0
 73 75  1  0  0  0
 73 81  2  0  0  0
 74 78  1  0  0  0
 74 80  2  0  0  0
 75143  1  0  0  0
 75144  1  0  0  0
 75145  1  0  0  0
 76 82  1  0  0  0
 76146  1  0  0  0
 76147  1  0  0  0
 76148  1  0  0  0
 77 79  1  0  0  0
 77149  1  0  0  0
 77150  1  0  0  0
 78151  1  0  0  0
 78152  1  0  0  0
 79 82  1  0  0  0
 79153  1  0  0  0
 79154  1  0  0  0
M  ISO  4   1 100  68 101  78 101  82 100
M  END
> <chiral flag>
0

> <version>
0

> <s_m_source_file>
/data/baiqing/PycharmProjects/Reinvent-master-3.2/result/LINK_invent/BTK/process_docking_weight1_custom_sum_contain_oxygen_bond_distance_aromatic_linkinvent_7_9_3/rearranged_h_0056.sdf

> <i_m_source_file_index>
90

> <r_mmod_Potential_Energy-OPLS-2005>
643.623840332031

> <r_mmod_Stretch_Energy-OPLS-2005>
221.665435791016

> <r_mmod_Bend_Energy-OPLS-2005>
263.584747314453

> <r_mmod_Torsional_Energy-OPLS-2005>
279.110656738281

> <r_mmod_Improper_Torsional_Energy-OPLS-2005>
13.3164873123169

> <r_mmod_Van_der_Waal_Energy-OPLS-2005>
153.483444213867

> <r_mmod_Electrostatic_Energy-OPLS-2005>
-222.560516357422

> <r_mmod_Solvation_Energy-OPLS-2005>
-217.109664916992

> <b_mmod_Minimization_Converged-OPLS-2005>
0

> <r_mmod_RMS_Derivative-OPLS-2005>
0.979922115802765

$$$$
93
                    3D
 Structure written by MMmdl.
160168  0  0  1  0            999 V2000
  -30.6134  -14.7504   20.5407 C   0  0  0  0  0  0
  -30.4309  -12.4871   19.4677 C   0  0  0  0  0  0
  -29.5067  -12.5544   18.2316 C   0  0  0  0  0  0
  -28.0310  -12.3672   18.6368 C   0  0  0  0  0  0
  -27.6410  -13.2332   19.8653 C   0  0  2  0  0  0
  -28.6844  -13.0851   20.9901 C   0  0  0  0  0  0
  -25.2432  -13.8130   20.5651 C   0  0  0  0  0  0
  -24.1763  -13.0350   20.9173 C   0  0  0  0  0  0
  -24.6372  -11.6862   20.8692 C   0  0  0  0  0  0
  -23.9045  -10.4248   21.0360 C   0  0  0  0  0  0
  -24.3587   -9.4191   21.9165 C   0  0  0  0  0  0
  -23.6275   -8.2215   22.0741 C   0  0  0  0  0  0
  -22.4254   -8.0242   21.3529 C   0  0  0  0  0  0
  -21.9875   -9.0210   20.4641 C   0  0  0  0  0  0
  -22.7198  -10.2089   20.3033 C   0  0  0  0  0  0
  -21.6845   -6.0690   22.5281 C   0  0  0  0  0  0
  -21.4007   -6.5605   23.8209 C   0  0  0  0  0  0
  -21.3667   -5.6765   24.9178 C   0  0  0  0  0  0
  -21.6046   -4.3030   24.7235 C   0  0  0  0  0  0
  -21.8827   -3.8109   23.4365 C   0  0  0  0  0  0
  -21.9201   -4.6920   22.3411 C   0  0  0  0  0  0
  -22.7795  -13.5137   21.1846 C   0  0  0  0  0  0
  -22.1653   -4.2092   21.0989 F   0  0  0  0  0  0
  -21.5650   -3.4522   25.7757 F   0  0  0  0  0  0
  -29.9736  -13.5245   20.4332 N   0  0  0  0  0  0
  -26.2909  -12.9375   20.3297 N   0  0  0  0  0  0
  -25.9312  -11.6509   20.5712 N   0  0  0  0  0  0
  -22.0423  -12.8190   22.0439 N   0  0  0  0  0  0
  -25.3998  -15.1850   20.4096 N   0  0  0  0  0  0
  -31.7784  -14.8247   20.1324 O   0  0  0  0  0  0
  -21.6634   -6.8821   21.4233 O   0  0  0  0  0  0
  -22.3492  -14.5413   20.6663 O   0  0  0  0  0  0
  -24.6319  -31.8530   23.1975 C   0  0  0  0  0  0
  -25.9158  -32.4719   23.8340 C   0  0  1  0  0  0
  -27.2261  -27.2635   20.1255 C   0  0  0  0  0  0
  -25.5958  -33.8530   24.2238 N   0  0  0  0  0  0
  -23.4276  -30.4780   21.5351 C   0  0  2  0  0  0
  -24.8718  -28.9105   20.1103 C   0  0  0  0  0  0
  -22.7520  -29.4645   22.4873 C   0  0  0  0  0  0
  -18.0325  -28.1383   22.8484 C   0  0  0  0  0  0
  -24.1497  -36.7243   23.2643 C   0  0  0  0  0  0
  -25.9754  -30.7594   21.3849 C   0  0  0  0  0  0
  -26.0404  -29.3866   20.7155 C   0  0  0  0  0  0
  -27.2151  -28.5726   20.7126 C   0  0  0  0  0  0
  -26.0295  -26.8358   19.5119 C   0  0  0  0  0  0
  -24.8676  -27.6401   19.5081 C   0  0  0  0  0  0
  -23.6437  -29.8015   20.1540 C   0  0  0  0  0  0
  -25.4128  -36.3035   24.0324 C   0  0  1  0  0  0
  -20.5938  -28.3714   23.1238 C   0  0  2  0  0  0
  -20.6815  -26.9425   22.5392 C   0  0  0  0  0  0
  -19.5781  -26.6372   21.5212 C   0  0  0  0  0  0
  -18.1961  -26.7928   22.1621 C   0  0  0  0  0  0
  -19.1578  -28.8864   23.2859 C   0  0  0  0  0  0
  -18.9503  -30.1471   23.8867 C   0  0  0  0  0  0
  -17.6496  -30.6581   24.0573 C   0  0  0  0  0  0
  -25.9074  -34.9409   23.5080 C   0  0  0  0  0  0
  -16.5388  -29.9079   23.6339 C   0  0  0  0  0  0
  -16.7313  -28.6501   23.0355 C   0  0  0  0  0  0
  -26.4505  -31.6607   25.0788 C   0  0  0  0  0  0
  -25.3719  -31.3800   26.1513 C   0  0  0  0  0  0
  -27.0393  -30.3012   24.6401 C   0  0  0  0  0  0
  -27.6043  -32.4402   25.7535 C   0  0  0  0  0  0
  -27.5578  -37.1774   24.8469 C   0  0  0  0  0  0
  -21.4226  -29.3054   22.3608 N   0  0  0  0  0  0
  -26.4284  -37.3746   23.9415 N   0  0  0  0  0  0
  -24.6959  -31.0527   22.0916 N   0  0  0  0  0  0
  -23.4224  -28.8209   23.2989 O   0  0  0  0  0  0
  -28.3544  -26.4217   20.2247 O   0  0  0  0  0  0
  -26.5652  -34.8890   22.4652 O   0  0  0  0  0  0
  -23.5474  -32.1356   23.7278 O   0  0  0  0  0  0
  -28.0140  -20.1783   19.7285 C   0  0  0  0  0  0
  -29.0959  -20.9256   20.1444 C   0  0  0  0  0  0
  -29.6024  -18.6389   20.2185 C   0  0  0  0  0  0
  -29.6874  -15.7206   23.3144 C   0  0  0  0  0  0
  -27.4787  -17.7468   19.3088 C   0  0  0  0  0  0
  -29.3795  -22.4857   20.1660 C   0  0  0  0  0  0
  -30.4520  -17.2923   20.2831 C   0  0  0  0  0  0
  -28.2291  -23.6306   20.2230 C   0  0  0  0  0  0
  -29.0258  -16.1204   21.9805 C   0  0  0  0  0  0
  -28.5159  -25.0870   19.5612 C   0  0  0  0  0  0
  -28.3495  -18.8319   19.7605 N   0  0  0  0  0  0
  -30.0410  -19.9207   20.4395 N   0  3  0  0  0  0
  -29.9140  -15.9471   20.8101 N   0  0  0  0  0  0
  -31.4698  -12.6200   19.1621 H   0  0  0  0  0  0
  -30.3891  -11.4928   19.9125 H   0  0  0  0  0  0
  -29.7952  -11.7988   17.4998 H   0  0  0  0  0  0
  -29.6317  -13.5180   17.7365 H   0  0  0  0  0  0
  -27.8819  -11.3126   18.8745 H   0  0  0  0  0  0
  -27.3761  -12.5856   17.7919 H   0  0  0  0  0  0
  -27.6515  -14.2720   19.5343 H   0  0  0  0  0  0
  -28.7372  -12.0407   21.2977 H   0  0  0  0  0  0
  -28.3984  -13.5968   21.9013 H   0  0  0  0  0  0
  -25.2705   -9.5694   22.4774 H   0  0  0  0  0  0
  -23.9973   -7.4606   22.7474 H   0  0  0  0  0  0
  -21.0785   -8.8725   19.8969 H   0  0  0  0  0  0
  -22.3619  -10.9624   19.6159 H   0  0  0  0  0  0
  -21.1963   -7.6108   23.9703 H   0  0  0  0  0  0
  -21.1489   -6.0489   25.9077 H   0  0  0  0  0  0
  -22.0601   -2.7572   23.2890 H   0  0  0  0  0  0
  -22.3979  -11.9870   22.4901 H   0  0  0  0  0  0
  -21.1028  -13.1267   22.2529 H   0  0  0  0  0  0
  -24.6135  -15.8170   20.5080 H   0  0  0  0  0  0
  -26.2473  -15.6451   20.1113 H   0  0  0  0  0  0
  -26.7235  -32.5317   23.1077 H   0  0  0  0  0  0
  -25.0146  -33.9679   25.0412 H   0  0  0  0  0  0
  -22.7272  -31.3039   21.3835 H   0  0  0  0  0  0
  -23.3774  -35.9564   23.3301 H   0  0  0  0  0  0
  -24.3570  -36.8868   22.2058 H   0  0  0  0  0  0
  -23.7240  -37.6435   23.6672 H   0  0  0  0  0  0
  -26.1573  -31.5330   20.6379 H   0  0  0  0  0  0
  -26.8320  -30.7705   22.0465 H   0  0  0  0  0  0
  -28.1092  -28.9302   21.2029 H   0  0  0  0  0  0
  -25.9658  -25.8496   19.0762 H   0  0  0  0  0  0
  -23.9573  -27.2590   19.0622 H   0  0  0  0  0  0
  -23.7702  -30.5701   19.3902 H   0  0  0  0  0  0
  -22.7611  -29.2360   19.8496 H   0  0  0  0  0  0
  -25.1310  -36.1856   25.0815 H   0  0  0  0  0  0
  -21.0058  -28.3287   24.1351 H   0  0  0  0  0  0
  -20.5729  -26.2332   23.3609 H   0  0  0  0  0  0
  -21.6674  -26.7436   22.1180 H   0  0  0  0  0  0
  -19.6950  -25.6283   21.1252 H   0  0  0  0  0  0
  -19.6709  -27.3176   20.6741 H   0  0  0  0  0  0
  -17.4248  -26.6713   21.4011 H   0  0  0  0  0  0
  -18.0343  -26.0048   22.8990 H   0  0  0  0  0  0
  -19.7980  -30.7312   24.2193 H   0  0  0  0  0  0
  -17.5049  -31.6254   24.5191 H   0  0  0  0  0  0
  -15.5390  -30.2978   23.7662 H   0  0  0  0  0  0
  -15.8718  -28.0812   22.7072 H   0  0  0  0  0  0
  -24.5879  -30.7160   25.7847 H   0  0  0  0  0  0
  -24.8955  -32.2999   26.4921 H   0  0  0  0  0  0
  -25.8027  -30.8989   27.0309 H   0  0  0  0  0  0
  -26.3051  -29.6732   24.1352 H   0  0  0  0  0  0
  -27.3931  -29.7310   25.5002 H   0  0  0  0  0  0
  -27.8972  -30.4247   23.9786 H   0  0  0  0  0  0
  -27.2628  -33.3695   26.2098 H   0  0  0  0  0  0
  -28.3832  -32.6996   25.0353 H   0  0  0  0  0  0
  -28.0762  -31.8591   26.5464 H   0  0  0  0  0  0
  -28.2583  -38.0084   24.7515 H   0  0  0  0  0  0
  -28.1077  -36.2609   24.6275 H   0  0  0  0  0  0
  -27.2298  -37.1392   25.8872 H   0  0  0  0  0  0
  -20.9440  -29.8720   21.6739 H   0  0  0  0  0  0
  -26.0151  -38.2809   24.1422 H   0  0  0  0  0  0
  -27.0529  -20.5019   19.3559 H   0  0  0  0  0  0
  -29.0046  -15.8802   24.1500 H   0  0  0  0  0  0
  -30.5720  -16.3283   23.5005 H   0  0  0  0  0  0
  -29.9973  -14.6760   23.3422 H   0  0  0  0  0  0
  -28.0634  -16.8783   19.0067 H   0  0  0  0  0  0
  -26.8913  -18.0877   18.4542 H   0  0  0  0  0  0
  -26.8086  -17.4875   20.1259 H   0  0  0  0  0  0
  -29.9846  -22.6881   19.2814 H   0  0  0  0  0  0
  -30.0418  -22.6793   21.0086 H   0  0  0  0  0  0
  -31.3610  -17.5296   20.8364 H   0  0  0  0  0  0
  -30.7642  -17.1380   19.2499 H   0  0  0  0  0  0
  -27.9099  -23.7546   21.2581 H   0  0  0  0  0  0
  -27.3523  -23.2399   19.7081 H   0  0  0  0  0  0
  -28.7348  -17.1612   22.0940 H   0  0  0  0  0  0
  -28.0703  -15.6223   21.8378 H   0  0  0  0  0  0
  -28.0373  -25.1198   18.5813 H   0  0  0  0  0  0
  -29.5793  -25.0798   19.3152 H   0  0  0  0  0  0
  -30.9902  -20.1252   20.7329 H   0  0  0  0  0  0
  1 25  1  0  0  0
  1 30  2  0  0  0
  1 83  1  0  0  0
  2  3  1  0  0  0
  2 25  1  0  0  0
  2 84  1  0  0  0
  2 85  1  0  0  0
  3  4  1  0  0  0
  3 86  1  0  0  0
  3 87  1  0  0  0
  4  5  1  0  0  0
  4 88  1  0  0  0
  4 89  1  0  0  0
  5  6  1  0  0  0
  5 26  1  0  0  0
  5 90  1  0  0  0
  6 25  1  0  0  0
  6 91  1  0  0  0
  6 92  1  0  0  0
  7  8  2  0  0  0
  7 26  1  0  0  0
  7 29  1  0  0  0
  8  9  1  0  0  0
  8 22  1  0  0  0
  9 10  1  0  0  0
  9 27  2  0  0  0
 10 11  2  0  0  0
 10 15  1  0  0  0
 11 12  1  0  0  0
 11 93  1  0  0  0
 12 13  2  0  0  0
 12 94  1  0  0  0
 13 14  1  0  0  0
 13 31  1  0  0  0
 14 15  2  0  0  0
 14 95  1  0  0  0
 15 96  1  0  0  0
 16 17  2  0  0  0
 16 21  1  0  0  0
 16 31  1  0  0  0
 17 18  1  0  0  0
 17 97  1  0  0  0
 18 19  2  0  0  0
 18 98  1  0  0  0
 19 20  1  0  0  0
 19 24  1  0  0  0
 20 21  2  0  0  0
 20 99  1  0  0  0
 21 23  1  0  0  0
 22 28  1  0  0  0
 22 32  2  0  0  0
 26 27  1  0  0  0
 28100  1  0  0  0
 28101  1  0  0  0
 29102  1  0  0  0
 29103  1  0  0  0
 33 34  1  0  0  0
 33 66  1  0  0  0
 33 70  2  0  0  0
 34 36  1  0  0  0
 34 59  1  0  0  0
 34104  1  0  0  0
 35 44  2  0  0  0
 35 45  1  0  0  0
 35 68  1  0  0  0
 36 56  1  0  0  0
 36105  1  0  0  0
 37 39  1  0  0  0
 37 47  1  0  0  0
 37 66  1  0  0  0
 37106  1  0  0  0
 38 43  2  0  0  0
 38 46  1  0  0  0
 38 47  1  0  0  0
 39 64  1  0  0  0
 39 67  2  0  0  0
 40 52  1  0  0  0
 40 53  2  0  0  0
 40 58  1  0  0  0
 41107  1  0  0  0
 41108  1  0  0  0
 41109  1  0  0  0
 41 48  1  0  0  0
 42 43  1  0  0  0
 42 66  1  0  0  0
 42110  1  0  0  0
 42111  1  0  0  0
 43 44  1  0  0  0
 44112  1  0  0  0
 45 46  2  0  0  0
 45113  1  0  0  0
 46114  1  0  0  0
 47115  1  0  0  0
 47116  1  0  0  0
 48 56  1  0  0  0
 48 65  1  0  0  0
 48117  1  0  0  0
 49 50  1  0  0  0
 49 53  1  0  0  0
 49 64  1  0  0  0
 49118  1  0  0  0
 50 51  1  0  0  0
 50119  1  0  0  0
 50120  1  0  0  0
 51 52  1  0  0  0
 51121  1  0  0  0
 51122  1  0  0  0
 52123  1  0  0  0
 52124  1  0  0  0
 53 54  1  0  0  0
 54 55  2  0  0  0
 54125  1  0  0  0
 55 57  1  0  0  0
 55126  1  0  0  0
 56 69  2  0  0  0
 57 58  2  0  0  0
 57127  1  0  0  0
 58128  1  0  0  0
 59 60  1  0  0  0
 59 61  1  0  0  0
 59 62  1  0  0  0
 60129  1  0  0  0
 60130  1  0  0  0
 60131  1  0  0  0
 61132  1  0  0  0
 61133  1  0  0  0
 61134  1  0  0  0
 62135  1  0  0  0
 62136  1  0  0  0
 62137  1  0  0  0
 63 65  1  0  0  0
 63138  1  0  0  0
 63139  1  0  0  0
 63140  1  0  0  0
 64141  1  0  0  0
 65142  1  0  0  0
 68 80  1  0  0  0
 71 72  2  0  0  0
 71 81  1  0  0  0
 71143  1  0  0  0
 72 76  1  0  0  0
 72 82  1  0  0  0
 73 77  1  0  0  0
 73 81  1  0  0  0
 73 82  2  0  0  0
 74 79  1  0  0  0
 74144  1  0  0  0
 74145  1  0  0  0
 74146  1  0  0  0
 75 81  1  0  0  0
 75147  1  0  0  0
 75148  1  0  0  0
 75149  1  0  0  0
 76 78  1  0  0  0
 76150  1  0  0  0
 76151  1  0  0  0
 77 83  1  0  0  0
 77152  1  0  0  0
 77153  1  0  0  0
 78 80  1  0  0  0
 78154  1  0  0  0
 78155  1  0  0  0
 79 83  1  0  0  0
 79156  1  0  0  0
 79157  1  0  0  0
 80158  1  0  0  0
 80159  1  0  0  0
 82160  1  0  0  0
M  CHG  1  82   1
M  ISO  4   1 100  68 101  80 101  83 100
M  END
> <chiral flag>
0

> <version>
0

> <s_m_source_file>
/data/baiqing/PycharmProjects/Reinvent-master-3.2/result/LINK_invent/BTK/process_docking_weight1_custom_sum_contain_oxygen_bond_distance_aromatic_linkinvent_7_9_3/rearranged_h_0056.sdf

> <i_m_source_file_index>
91

> <r_mmod_Potential_Energy-OPLS-2005>
255.275909423828

> <r_mmod_Stretch_Energy-OPLS-2005>
134.043807983398

> <r_mmod_Bend_Energy-OPLS-2005>
221.07014465332

> <r_mmod_Torsional_Energy-OPLS-2005>
259.218017578125

> <r_mmod_Improper_Torsional_Energy-OPLS-2005>
9.90793514251709

> <r_mmod_Van_der_Waal_Energy-OPLS-2005>
116.842735290527

> <r_mmod_Electrostatic_Energy-OPLS-2005>
-160.81591796875

> <r_mmod_Solvation_Energy-OPLS-2005>
-404.688201904297

> <b_mmod_Minimization_Converged-OPLS-2005>
0

> <r_mmod_RMS_Derivative-OPLS-2005>
3.90990567207336

$$$$
94
                    3D
 Structure written by MMmdl.
171180  0  0  1  0            999 V2000
  -30.7172  -14.4732   20.4075 C   0  0  0  0  0  0
  -30.4390  -12.2738   19.3905 C   0  0  0  0  0  0
  -29.5006  -12.4541   18.1814 C   0  0  0  0  0  0
  -28.0070  -12.3901   18.5936 C   0  0  0  0  0  0
  -27.6621  -13.2221   19.8560 C   0  0  2  0  0  0
  -28.7282  -13.0176   20.9558 C   0  0  0  0  0  0
  -25.2568  -13.8244   20.5681 C   0  0  0  0  0  0
  -24.1819  -13.0489   20.9208 C   0  0  0  0  0  0
  -24.6406  -11.6963   20.8809 C   0  0  0  0  0  0
  -23.9070  -10.4318   21.0424 C   0  0  0  0  0  0
  -24.3600   -9.4229   21.9196 C   0  0  0  0  0  0
  -23.6279   -8.2254   22.0731 C   0  0  0  0  0  0
  -22.4253   -8.0283   21.3546 C   0  0  0  0  0  0
  -21.9932   -9.0271   20.4680 C   0  0  0  0  0  0
  -22.7248  -10.2145   20.3079 C   0  0  0  0  0  0
  -21.6868   -6.0737   22.5286 C   0  0  0  0  0  0
  -21.4011   -6.5613   23.8207 C   0  0  0  0  0  0
  -21.3669   -5.6756   24.9164 C   0  0  0  0  0  0
  -21.6056   -4.3013   24.7238 C   0  0  0  0  0  0
  -21.8803   -3.8111   23.4355 C   0  0  0  0  0  0
  -21.9171   -4.6954   22.3415 C   0  0  0  0  0  0
  -22.7791  -13.5257   21.1859 C   0  0  0  0  0  0
  -22.1616   -4.2114   21.1000 F   0  0  0  0  0  0
  -21.5693   -3.4505   25.7772 F   0  0  0  0  0  0
  -30.0473  -13.2907   20.3684 N   0  0  0  0  0  0
  -26.3036  -12.9438   20.3332 N   0  0  0  0  0  0
  -25.9356  -11.6578   20.5773 N   0  0  0  0  0  0
  -22.0373  -12.8293   22.0442 N   0  0  0  0  0  0
  -25.4318  -15.1969   20.4041 N   0  0  0  0  0  0
  -31.9411  -14.5478   20.2612 O   0  0  0  0  0  0
  -21.6610   -6.8894   21.4238 O   0  0  0  0  0  0
  -22.3466  -14.5518   20.6641 O   0  0  0  0  0  0
  -24.6207  -31.8753   23.2128 C   0  0  0  0  0  0
  -25.9135  -32.4798   23.8429 C   0  0  1  0  0  0
  -27.1855  -27.4225   20.0498 C   0  0  0  0  0  0
  -25.6026  -33.8580   24.2407 N   0  0  0  0  0  0
  -23.3984  -30.5091   21.5630 C   0  0  2  0  0  0
  -24.8233  -28.9990   20.1106 C   0  0  0  0  0  0
  -22.7443  -29.4683   22.4999 C   0  0  0  0  0  0
  -18.0268  -28.1399   22.8466 C   0  0  0  0  0  0
  -24.1454  -36.7234   23.2617 C   0  0  0  0  0  0
  -25.9345  -30.8301   21.3656 C   0  0  0  0  0  0
  -26.0019  -29.4656   20.7131 C   0  0  0  0  0  0
  -27.1888  -28.6839   20.6966 C   0  0  0  0  0  0
  -25.9701  -27.0162   19.4276 C   0  0  0  0  0  0
  -24.8048  -27.7662   19.4648 C   0  0  0  0  0  0
  -23.6024  -29.8763   20.1676 C   0  0  0  0  0  0
  -25.4067  -36.3079   24.0363 C   0  0  1  0  0  0
  -20.5846  -28.3655   23.1297 C   0  0  2  0  0  0
  -20.6767  -26.9401   22.5434 C   0  0  0  0  0  0
  -19.5768  -26.6408   21.5204 C   0  0  0  0  0  0
  -18.1922  -26.7920   22.1601 C   0  0  0  0  0  0
  -19.1524  -28.8833   23.2855 C   0  0  0  0  0  0
  -18.9469  -30.1440   23.8852 C   0  0  0  0  0  0
  -17.6483  -30.6588   24.0561 C   0  0  0  0  0  0
  -25.9080  -34.9442   23.5159 C   0  0  0  0  0  0
  -16.5357  -29.9110   23.6297 C   0  0  0  0  0  0
  -16.7250  -28.6542   23.0240 C   0  0  0  0  0  0
  -26.4574  -31.6431   25.0645 C   0  0  0  0  0  0
  -25.3920  -31.3385   26.1411 C   0  0  0  0  0  0
  -27.0366  -30.2951   24.5793 C   0  0  0  0  0  0
  -27.6210  -32.4050   25.7392 C   0  0  0  0  0  0
  -27.5532  -37.1775   24.8512 C   0  0  0  0  0  0
  -21.4155  -29.2992   22.3749 N   0  0  0  0  0  0
  -26.4225  -37.3798   23.9456 N   0  0  0  0  0  0
  -24.6716  -31.0859   22.1061 N   0  0  0  0  0  0
  -23.4257  -28.8141   23.2937 O   0  0  0  0  0  0
  -28.2951  -26.5453   20.0703 O   0  0  0  0  0  0
  -26.5615  -34.8914   22.4718 O   0  0  0  0  0  0
  -23.5390  -32.1427   23.7622 O   0  0  0  0  0  0
  -30.0455  -18.0053   16.9150 C   0  0  0  0  0  0
  -28.7430  -22.7389   19.2960 C   0  0  0  0  0  0
  -30.8274  -16.8565   17.0001 C   0  0  0  0  0  0
  -29.1442  -18.2348   17.9632 C   0  0  0  0  0  0
  -27.9642  -23.8236   19.6025 C   0  0  0  0  0  0
  -26.7866  -21.9218   20.0132 C   0  0  0  0  0  0
  -29.8853  -16.3061   19.0309 C   0  0  0  0  0  0
  -31.9108  -16.5738   15.9906 C   0  0  0  0  0  0
  -25.6084  -21.0439   20.3708 C   0  0  0  0  0  0
  -26.7872  -19.0170   17.9141 C   0  0  0  0  0  0
  -28.5033  -20.4552   16.8361 C   0  0  0  0  0  0
  -29.4235  -16.2050   21.4524 C   0  0  0  0  0  0
  -28.1582  -25.3159   19.2694 C   0  0  0  0  0  0
  -28.5267  -20.2142   19.3895 C   0  0  0  0  0  0
  -28.2467  -19.4902   18.0287 C   0  0  0  0  0  0
  -30.7197  -16.0102   18.0358 N   0  0  0  0  0  0
  -29.0643  -17.3635   18.9953 N   0  0  0  0  0  0
  -28.0131  -21.5945   19.5593 N   0  0  0  0  0  0
  -26.7627  -23.2611   20.0489 N   0  3  0  0  0  0
  -29.9433  -15.5777   20.2329 N   0  0  0  0  0  0
  -31.4725  -12.3930   19.0514 H   0  0  0  0  0  0
  -30.3635  -11.2734   19.8187 H   0  0  0  0  0  0
  -29.7066  -11.6965   17.4258 H   0  0  0  0  0  0
  -29.7042  -13.4117   17.7072 H   0  0  0  0  0  0
  -27.7608  -11.3401   18.7650 H   0  0  0  0  0  0
  -27.3790  -12.7255   17.7631 H   0  0  0  0  0  0
  -27.6963  -14.2705   19.5601 H   0  0  0  0  0  0
  -28.7025  -11.9914   21.3212 H   0  0  0  0  0  0
  -28.5379  -13.6642   21.8124 H   0  0  0  0  0  0
  -25.2746   -9.5688   22.4750 H   0  0  0  0  0  0
  -24.0039   -7.4641   22.7407 H   0  0  0  0  0  0
  -21.0865   -8.8785   19.9011 H   0  0  0  0  0  0
  -22.3705  -10.9682   19.6168 H   0  0  0  0  0  0
  -21.1933   -7.6094   23.9713 H   0  0  0  0  0  0
  -21.1549   -6.0468   25.9076 H   0  0  0  0  0  0
  -22.0572   -2.7598   23.2834 H   0  0  0  0  0  0
  -22.3873  -11.9992   22.5047 H   0  0  0  0  0  0
  -21.0983  -13.1406   22.2505 H   0  0  0  0  0  0
  -24.6848  -15.8701   20.5256 H   0  0  0  0  0  0
  -26.2991  -15.6364   20.1228 H   0  0  0  0  0  0
  -26.7158  -32.5522   23.1127 H   0  0  0  0  0  0
  -25.0292  -33.9783   25.0634 H   0  0  0  0  0  0
  -22.6790  -31.3213   21.4394 H   0  0  0  0  0  0
  -23.3766  -35.9536   23.3320 H   0  0  0  0  0  0
  -24.3568  -36.8819   22.2039 H   0  0  0  0  0  0
  -23.7192  -37.6435   23.6604 H   0  0  0  0  0  0
  -26.0465  -31.5852   20.5870 H   0  0  0  0  0  0
  -26.8308  -30.8957   21.9686 H   0  0  0  0  0  0
  -28.0840  -29.0360   21.1910 H   0  0  0  0  0  0
  -25.8380  -26.0813   18.9126 H   0  0  0  0  0  0
  -23.9103  -27.3894   18.9909 H   0  0  0  0  0  0
  -23.7307  -30.6649   19.4258 H   0  0  0  0  0  0
  -22.7245  -29.3186   19.8496 H   0  0  0  0  0  0
  -25.1247  -36.1921   25.0866 H   0  0  0  0  0  0
  -20.9879  -28.3196   24.1428 H   0  0  0  0  0  0
  -20.5631  -26.2272   23.3617 H   0  0  0  0  0  0
  -21.6626  -26.7444   22.1246 H   0  0  0  0  0  0
  -19.6956  -25.6330   21.1166 H   0  0  0  0  0  0
  -19.6669  -27.3245   20.6729 H   0  0  0  0  0  0
  -17.4179  -26.6536   21.4000 H   0  0  0  0  0  0
  -18.0369  -26.0102   22.9031 H   0  0  0  0  0  0
  -19.7960  -30.7243   24.2190 H   0  0  0  0  0  0
  -17.5053  -31.6249   24.5227 H   0  0  0  0  0  0
  -15.5349  -30.3055   23.7647 H   0  0  0  0  0  0
  -15.8611  -28.0939   22.6919 H   0  0  0  0  0  0
  -24.6278  -30.6505   25.7741 H   0  0  0  0  0  0
  -24.8847  -32.2400   26.4849 H   0  0  0  0  0  0
  -25.8424  -30.8643   27.0136 H   0  0  0  0  0  0
  -26.2785  -29.6676   24.1084 H   0  0  0  0  0  0
  -27.4555  -29.7158   25.4018 H   0  0  0  0  0  0
  -27.8422  -30.4365   23.8603 H   0  0  0  0  0  0
  -27.3011  -33.3436   26.1922 H   0  0  0  0  0  0
  -28.4084  -32.6424   25.0217 H   0  0  0  0  0  0
  -28.0765  -31.8115   26.5336 H   0  0  0  0  0  0
  -28.2615  -37.9999   24.7588 H   0  0  0  0  0  0
  -28.0992  -36.2603   24.6322 H   0  0  0  0  0  0
  -27.2319  -37.1391   25.8929 H   0  0  0  0  0  0
  -20.9365  -29.8806   21.7009 H   0  0  0  0  0  0
  -26.0128  -38.2847   24.1561 H   0  0  0  0  0  0
  -30.1767  -18.6854   16.0829 H   0  0  0  0  0  0
  -29.7330  -22.7165   18.8560 H   0  0  0  0  0  0
  -31.4961  -16.3593   15.0082 H   0  0  0  0  0  0
  -32.5382  -15.7387   16.3026 H   0  0  0  0  0  0
  -32.5442  -17.4531   15.8907 H   0  0  0  0  0  0
  -24.8965  -21.0570   19.5419 H   0  0  0  0  0  0
  -25.1122  -21.4515   21.2587 H   0  0  0  0  0  0
  -25.9330  -20.0227   20.5750 H   0  0  0  0  0  0
  -26.6660  -18.4120   17.0066 H   0  0  0  0  0  0
  -26.0834  -19.8482   17.8591 H   0  0  0  0  0  0
  -26.5206  -18.3870   18.7669 H   0  0  0  0  0  0
  -28.2976  -19.9643   15.8886 H   0  0  0  0  0  0
  -29.5374  -20.8119   16.8258 H   0  0  0  0  0  0
  -27.8678  -21.3336   16.8711 H   0  0  0  0  0  0
  -28.3324  -16.1797   21.4476 H   0  0  0  0  0  0
  -29.7444  -17.2464   21.5066 H   0  0  0  0  0  0
  -29.7805  -15.7324   22.3676 H   0  0  0  0  0  0
  -27.3604  -25.2876   19.9695 H   0  0  0  0  0  0
  -27.8113  -25.5174   18.2530 H   0  0  0  0  0  0
  -29.6080  -20.2894   19.5311 H   0  0  0  0  0  0
  -28.1758  -19.6033   20.2194 H   0  0  0  0  0  0
  -25.9379  -23.7922   20.3252 H   0  0  0  0  0  0
  1 25  1  0  0  0
  1 30  2  0  0  0
  1 90  1  0  0  0
  2  3  1  0  0  0
  2 25  1  0  0  0
  2 91  1  0  0  0
  2 92  1  0  0  0
  3  4  1  0  0  0
  3 93  1  0  0  0
  3 94  1  0  0  0
  4  5  1  0  0  0
  4 95  1  0  0  0
  4 96  1  0  0  0
  5  6  1  0  0  0
  5 26  1  0  0  0
  5 97  1  0  0  0
  6 25  1  0  0  0
  6 98  1  0  0  0
  6 99  1  0  0  0
  7  8  2  0  0  0
  7 26  1  0  0  0
  7 29  1  0  0  0
  8  9  1  0  0  0
  8 22  1  0  0  0
  9 10  1  0  0  0
  9 27  2  0  0  0
 10 11  2  0  0  0
 10 15  1  0  0  0
 11 12  1  0  0  0
 11100  1  0  0  0
 12 13  2  0  0  0
 12101  1  0  0  0
 13 14  1  0  0  0
 13 31  1  0  0  0
 14 15  2  0  0  0
 14102  1  0  0  0
 15103  1  0  0  0
 16 17  2  0  0  0
 16 21  1  0  0  0
 16 31  1  0  0  0
 17 18  1  0  0  0
 17104  1  0  0  0
 18 19  2  0  0  0
 18105  1  0  0  0
 19 20  1  0  0  0
 19 24  1  0  0  0
 20 21  2  0  0  0
 20106  1  0  0  0
 21 23  1  0  0  0
 22 28  1  0  0  0
 22 32  2  0  0  0
 26 27  1  0  0  0
 28107  1  0  0  0
 28108  1  0  0  0
 29109  1  0  0  0
 29110  1  0  0  0
 33 34  1  0  0  0
 33 66  1  0  0  0
 33 70  2  0  0  0
 34 36  1  0  0  0
 34 59  1  0  0  0
 34111  1  0  0  0
 35 44  2  0  0  0
 35 45  1  0  0  0
 35 68  1  0  0  0
 36 56  1  0  0  0
 36112  1  0  0  0
 37 39  1  0  0  0
 37 47  1  0  0  0
 37 66  1  0  0  0
 37113  1  0  0  0
 38 43  2  0  0  0
 38 46  1  0  0  0
 38 47  1  0  0  0
 39 64  1  0  0  0
 39 67  2  0  0  0
 40 52  1  0  0  0
 40 53  2  0  0  0
 40 58  1  0  0  0
 41114  1  0  0  0
 41115  1  0  0  0
 41116  1  0  0  0
 41 48  1  0  0  0
 42 43  1  0  0  0
 42 66  1  0  0  0
 42117  1  0  0  0
 42118  1  0  0  0
 43 44  1  0  0  0
 44119  1  0  0  0
 45 46  2  0  0  0
 45120  1  0  0  0
 46121  1  0  0  0
 47122  1  0  0  0
 47123  1  0  0  0
 48 56  1  0  0  0
 48 65  1  0  0  0
 48124  1  0  0  0
 49 50  1  0  0  0
 49 53  1  0  0  0
 49 64  1  0  0  0
 49125  1  0  0  0
 50 51  1  0  0  0
 50126  1  0  0  0
 50127  1  0  0  0
 51 52  1  0  0  0
 51128  1  0  0  0
 51129  1  0  0  0
 52130  1  0  0  0
 52131  1  0  0  0
 53 54  1  0  0  0
 54 55  2  0  0  0
 54132  1  0  0  0
 55 57  1  0  0  0
 55133  1  0  0  0
 56 69  2  0  0  0
 57 58  2  0  0  0
 57134  1  0  0  0
 58135  1  0  0  0
 59 60  1  0  0  0
 59 61  1  0  0  0
 59 62  1  0  0  0
 60136  1  0  0  0
 60137  1  0  0  0
 60138  1  0  0  0
 61139  1  0  0  0
 61140  1  0  0  0
 61141  1  0  0  0
 62142  1  0  0  0
 62143  1  0  0  0
 62144  1  0  0  0
 63 65  1  0  0  0
 63145  1  0  0  0
 63146  1  0  0  0
 63147  1  0  0  0
 64148  1  0  0  0
 65149  1  0  0  0
 68 83  1  0  0  0
 71 73  2  0  0  0
 71 74  1  0  0  0
 71150  1  0  0  0
 72 75  2  0  0  0
 72 88  1  0  0  0
 72151  1  0  0  0
 73 78  1  0  0  0
 73 86  1  0  0  0
 74 85  1  0  0  0
 74 87  2  0  0  0
 75 83  1  0  0  0
 75 89  1  0  0  0
 76 79  1  0  0  0
 76 88  1  0  0  0
 76 89  2  0  0  0
 77 86  2  0  0  0
 77 87  1  0  0  0
 77 90  1  0  0  0
 78152  1  0  0  0
 78153  1  0  0  0
 78154  1  0  0  0
 79155  1  0  0  0
 79156  1  0  0  0
 79157  1  0  0  0
 80158  1  0  0  0
 80159  1  0  0  0
 80160  1  0  0  0
 80 85  1  0  0  0
 81 85  1  0  0  0
 81161  1  0  0  0
 81162  1  0  0  0
 81163  1  0  0  0
 82 90  1  0  0  0
 82164  1  0  0  0
 82165  1  0  0  0
 82166  1  0  0  0
 83167  1  0  0  0
 83168  1  0  0  0
 84 85  1  0  0  0
 84 88  1  0  0  0
 84169  1  0  0  0
 84170  1  0  0  0
 89171  1  0  0  0
M  CHG  1  89   1
M  ISO  4   1 100  68 101  83 101  90 100
M  END
> <chiral flag>
0

> <version>
0

> <s_m_source_file>
/data/baiqing/PycharmProjects/Reinvent-master-3.2/result/LINK_invent/BTK/process_docking_weight1_custom_sum_contain_oxygen_bond_distance_aromatic_linkinvent_7_9_3/rearranged_h_0056.sdf

> <i_m_source_file_index>
92

> <r_mmod_Potential_Energy-OPLS-2005>
-141.369476318359

> <r_mmod_Stretch_Energy-OPLS-2005>
60.8053283691406

> <r_mmod_Bend_Energy-OPLS-2005>
301.505798339844

> <r_mmod_Torsional_Energy-OPLS-2005>
285.557952880859

> <r_mmod_Improper_Torsional_Energy-OPLS-2005>
12.9694204330444

> <r_mmod_Van_der_Waal_Energy-OPLS-2005>
224.024490356445

> <r_mmod_Electrostatic_Energy-OPLS-2005>
-636.195007324219

> <r_mmod_Solvation_Energy-OPLS-2005>
-427.952911376953

> <b_mmod_Minimization_Converged-OPLS-2005>
0

> <r_mmod_RMS_Derivative-OPLS-2005>
9.67211246490479

$$$$
95
                    3D
 Structure written by MMmdl.
180188  0  0  1  0            999 V2000
  -30.7482  -14.4404   20.5083 C   0  0  0  0  0  0
  -30.4047  -12.2864   19.3965 C   0  0  0  0  0  0
  -29.4804  -12.4992   18.1837 C   0  0  0  0  0  0
  -27.9997  -12.3847   18.6026 C   0  0  0  0  0  0
  -27.6556  -13.2102   19.8742 C   0  0  2  0  0  0
  -28.7112  -12.9714   20.9756 C   0  0  0  0  0  0
  -25.2557  -13.8171   20.5728 C   0  0  0  0  0  0
  -24.1809  -13.0435   20.9197 C   0  0  0  0  0  0
  -24.6379  -11.6908   20.8752 C   0  0  0  0  0  0
  -23.9063  -10.4282   21.0407 C   0  0  0  0  0  0
  -24.3624   -9.4212   21.9187 C   0  0  0  0  0  0
  -23.6304   -8.2241   22.0765 C   0  0  0  0  0  0
  -22.4284   -8.0268   21.3550 C   0  0  0  0  0  0
  -21.9917   -9.0234   20.4639 C   0  0  0  0  0  0
  -22.7237  -10.2119   20.3064 C   0  0  0  0  0  0
  -21.6850   -6.0752   22.5285 C   0  0  0  0  0  0
  -21.3996   -6.5654   23.8211 C   0  0  0  0  0  0
  -21.3674   -5.6804   24.9165 C   0  0  0  0  0  0
  -21.6067   -4.3070   24.7222 C   0  0  0  0  0  0
  -21.8818   -3.8169   23.4334 C   0  0  0  0  0  0
  -21.9180   -4.6985   22.3396 C   0  0  0  0  0  0
  -22.7819  -13.5206   21.1838 C   0  0  0  0  0  0
  -22.1638   -4.2182   21.0974 F   0  0  0  0  0  0
  -21.5651   -3.4552   25.7732 F   0  0  0  0  0  0
  -30.0186  -13.2974   20.3926 N   0  0  0  0  0  0
  -26.2996  -12.9345   20.3428 N   0  0  0  0  0  0
  -25.9314  -11.6501   20.5822 N   0  0  0  0  0  0
  -22.0468  -12.8189   22.0395 N   0  0  0  0  0  0
  -25.4296  -15.1889   20.4133 N   0  0  0  0  0  0
  -31.9603  -14.4260   20.2786 O   0  0  0  0  0  0
  -21.6625   -6.8894   21.4252 O   0  0  0  0  0  0
  -22.3497  -14.5504   20.6684 O   0  0  0  0  0  0
  -24.6120  -31.8704   23.2111 C   0  0  0  0  0  0
  -25.9021  -32.4834   23.8401 C   0  0  1  0  0  0
  -27.2335  -27.4613   20.0939 C   0  0  0  0  0  0
  -25.5900  -33.8628   24.2345 N   0  0  0  0  0  0
  -23.3970  -30.4936   21.5523 C   0  0  2  0  0  0
  -24.8420  -28.9617   20.1181 C   0  0  0  0  0  0
  -22.7384  -29.4671   22.5016 C   0  0  0  0  0  0
  -18.0266  -28.1376   22.8505 C   0  0  0  0  0  0
  -24.1478  -36.7308   23.2638 C   0  0  0  0  0  0
  -25.9228  -30.8459   21.3584 C   0  0  0  0  0  0
  -26.0010  -29.4815   20.7075 C   0  0  0  0  0  0
  -27.2005  -28.7400   20.6881 C   0  0  0  0  0  0
  -26.0591  -26.9512   19.4957 C   0  0  0  0  0  0
  -24.8642  -27.6947   19.5104 C   0  0  0  0  0  0
  -23.6015  -29.8232   20.1680 C   0  0  0  0  0  0
  -25.4097  -36.3111   24.0343 C   0  0  1  0  0  0
  -20.5856  -28.3661   23.1328 C   0  0  2  0  0  0
  -20.6760  -26.9398   22.5416 C   0  0  0  0  0  0
  -19.5731  -26.6387   21.5215 C   0  0  0  0  0  0
  -18.1907  -26.7926   22.1620 C   0  0  0  0  0  0
  -19.1521  -28.8836   23.2912 C   0  0  0  0  0  0
  -18.9447  -30.1453   23.8912 C   0  0  0  0  0  0
  -17.6450  -30.6588   24.0570 C   0  0  0  0  0  0
  -25.9042  -34.9476   23.5138 C   0  0  0  0  0  0
  -16.5344  -29.9088   23.6330 C   0  0  0  0  0  0
  -16.7264  -28.6502   23.0359 C   0  0  0  0  0  0
  -26.4456  -31.6601   25.0716 C   0  0  0  0  0  0
  -25.3733  -31.3688   26.1473 C   0  0  0  0  0  0
  -27.0290  -30.3055   24.6065 C   0  0  0  0  0  0
  -27.6034  -32.4315   25.7485 C   0  0  0  0  0  0
  -27.5580  -37.1793   24.8461 C   0  0  0  0  0  0
  -21.4124  -29.3036   22.3748 N   0  0  0  0  0  0
  -26.4280  -37.3799   23.9429 N   0  0  0  0  0  0
  -24.6617  -31.0831   22.0994 N   0  0  0  0  0  0
  -23.4171  -28.8220   23.3057 O   0  0  0  0  0  0
  -28.4124  -26.7558   20.0766 O   0  0  0  0  0  0
  -26.5599  -34.8920   22.4702 O   0  0  0  0  0  0
  -23.5319  -32.1437   23.7538 O   0  0  0  0  0  0
  -28.7720  -18.1845   18.5567 C   0  0  0  0  0  0
  -30.8410  -18.8402   18.2885 C   0  0  0  0  0  0
  -30.1225  -17.7924   18.7944 C   0  0  0  0  0  0
  -28.6012  -26.4462   15.1715 C   0  0  0  0  0  0
  -30.9270  -16.2847   23.2233 C   0  0  0  0  0  0
  -28.8691  -17.7379   23.2891 C   0  0  0  0  0  0
  -30.7708  -16.5353   19.3394 C   0  0  0  0  0  0
  -28.1599  -25.3549   16.1569 C   0  0  0  0  0  0
  -30.2001  -22.2695   17.8067 C   0  0  0  0  0  0
  -30.2995  -20.9546   17.0113 C   0  0  0  0  0  0
  -29.1946  -16.2384   21.2922 C   0  0  0  0  0  0
  -29.1080  -25.2289   17.3657 C   0  0  0  0  0  0
  -28.7560  -22.8026   17.9335 C   0  0  0  0  0  0
  -29.2221  -24.4682   19.7319 C   0  0  0  0  0  0
  -28.3548  -25.4185   20.5789 C   0  0  0  0  0  0
  -29.9142  -17.0785   22.3749 C   0  0  0  0  0  0
  -28.6811  -19.3704   17.9551 N   0  0  0  0  0  0
  -29.9625  -19.7597   17.7702 N   0  0  0  0  0  0
  -30.0888  -15.6186   20.2961 N   0  0  0  0  0  0
  -28.6549  -24.2265   18.3748 N   0  3  1  0  0  0
  -31.4497  -12.3544   19.0860 H   0  0  0  0  0  0
  -30.2819  -11.2800   19.8021 H   0  0  0  0  0  0
  -29.7038  -11.7721   17.4026 H   0  0  0  0  0  0
  -29.6665  -13.4821   17.7469 H   0  0  0  0  0  0
  -27.7863  -11.3297   18.7781 H   0  0  0  0  0  0
  -27.3547  -12.6887   17.7776 H   0  0  0  0  0  0
  -27.6979  -14.2590   19.5863 H   0  0  0  0  0  0
  -28.6983  -11.9208   21.2694 H   0  0  0  0  0  0
  -28.5031  -13.5007   21.8996 H   0  0  0  0  0  0
  -25.2765   -9.5689   22.4763 H   0  0  0  0  0  0
  -24.0027   -7.4632   22.7482 H   0  0  0  0  0  0
  -21.0860   -8.8721   19.8919 H   0  0  0  0  0  0
  -22.3679  -10.9656   19.6186 H   0  0  0  0  0  0
  -21.1973   -7.6154   23.9718 H   0  0  0  0  0  0
  -21.1507   -6.0532   25.9069 H   0  0  0  0  0  0
  -22.0590   -2.7636   23.2816 H   0  0  0  0  0  0
  -22.4047  -11.9852   22.4822 H   0  0  0  0  0  0
  -21.1083  -13.1215   22.2582 H   0  0  0  0  0  0
  -24.6704  -15.8508   20.5296 H   0  0  0  0  0  0
  -26.2931  -15.6209   20.1121 H   0  0  0  0  0  0
  -26.7100  -32.5559   23.1178 H   0  0  0  0  0  0
  -25.0033  -33.9791   25.0477 H   0  0  0  0  0  0
  -22.6846  -31.3096   21.4144 H   0  0  0  0  0  0
  -23.3749  -35.9634   23.3282 H   0  0  0  0  0  0
  -24.3568  -36.8941   22.2056 H   0  0  0  0  0  0
  -23.7206  -37.6497   23.6662 H   0  0  0  0  0  0
  -26.0266  -31.6120   20.5882 H   0  0  0  0  0  0
  -26.8143  -30.9023   21.9715 H   0  0  0  0  0  0
  -28.0990  -29.1413   21.1348 H   0  0  0  0  0  0
  -26.0554  -25.9873   19.0102 H   0  0  0  0  0  0
  -23.9731  -27.2896   19.0514 H   0  0  0  0  0  0
  -23.7043  -30.5967   19.4058 H   0  0  0  0  0  0
  -22.7264  -29.2398   19.8762 H   0  0  0  0  0  0
  -25.1267  -36.1976   25.0835 H   0  0  0  0  0  0
  -20.9941  -28.3214   24.1450 H   0  0  0  0  0  0
  -20.5675  -26.2262   23.3593 H   0  0  0  0  0  0
  -21.6629  -26.7438   22.1207 H   0  0  0  0  0  0
  -19.6892  -25.6304   21.1235 H   0  0  0  0  0  0
  -19.6671  -27.3214   20.6759 H   0  0  0  0  0  0
  -17.4175  -26.6689   21.4018 H   0  0  0  0  0  0
  -18.0298  -26.0062   22.9009 H   0  0  0  0  0  0
  -19.7926  -30.7275   24.2263 H   0  0  0  0  0  0
  -17.5004  -31.6269   24.5177 H   0  0  0  0  0  0
  -15.5347  -30.3000   23.7647 H   0  0  0  0  0  0
  -15.8655  -28.0835   22.7060 H   0  0  0  0  0  0
  -24.5906  -30.7037   25.7805 H   0  0  0  0  0  0
  -24.8931  -32.2843   26.4948 H   0  0  0  0  0  0
  -25.8101  -30.8832   27.0213 H   0  0  0  0  0  0
  -26.2827  -29.6813   24.1140 H   0  0  0  0  0  0
  -27.4104  -29.7286   25.4501 H   0  0  0  0  0  0
  -27.8639  -30.4395   23.9177 H   0  0  0  0  0  0
  -27.2660  -33.3619   26.2069 H   0  0  0  0  0  0
  -28.3845  -32.6868   25.0310 H   0  0  0  0  0  0
  -28.0697  -31.8431   26.5396 H   0  0  0  0  0  0
  -28.2570  -38.0119   24.7564 H   0  0  0  0  0  0
  -28.1104  -36.2653   24.6223 H   0  0  0  0  0  0
  -27.2302  -37.1372   25.8862 H   0  0  0  0  0  0
  -20.9278  -29.8750   21.6968 H   0  0  0  0  0  0
  -26.0166  -38.2872   24.1472 H   0  0  0  0  0  0
  -27.8642  -17.6366   18.7670 H   0  0  0  0  0  0
  -31.9096  -18.9814   18.2063 H   0  0  0  0  0  0
  -27.8896  -26.5393   14.3500 H   0  0  0  0  0  0
  -29.5750  -26.2183   14.7365 H   0  0  0  0  0  0
  -28.6709  -27.4205   15.6578 H   0  0  0  0  0  0
  -31.3585  -16.9124   24.0034 H   0  0  0  0  0  0
  -31.7670  -15.9203   22.6328 H   0  0  0  0  0  0
  -30.4597  -15.4273   23.7118 H   0  0  0  0  0  0
  -29.3355  -18.4334   23.9866 H   0  0  0  0  0  0
  -28.3269  -16.9937   23.8767 H   0  0  0  0  0  0
  -28.1381  -18.3031   22.7108 H   0  0  0  0  0  0
  -31.7179  -16.8286   19.7999 H   0  0  0  0  0  0
  -31.0575  -15.9350   18.4718 H   0  0  0  0  0  0
  -28.1011  -24.4133   15.6121 H   0  0  0  0  0  0
  -27.1508  -25.5802   16.5035 H   0  0  0  0  0  0
  -30.8216  -22.9935   17.2833 H   0  0  0  0  0  0
  -30.6537  -22.1500   18.7916 H   0  0  0  0  0  0
  -31.3292  -20.8361   16.6679 H   0  0  0  0  0  0
  -29.6909  -20.9919   16.1055 H   0  0  0  0  0  0
  -28.4592  -16.8541   20.7822 H   0  0  0  0  0  0
  -28.5834  -15.5064   21.8027 H   0  0  0  0  0  0
  -29.1725  -26.2108   17.8314 H   0  0  0  0  0  0
  -30.1224  -25.0172   17.0314 H   0  0  0  0  0  0
  -28.2043  -22.1738   18.6349 H   0  0  0  0  0  0
  -28.2377  -22.6838   16.9824 H   0  0  0  0  0  0
  -29.2687  -23.5244   20.2770 H   0  0  0  0  0  0
  -30.2500  -24.8256   19.6682 H   0  0  0  0  0  0
  -28.7509  -25.4467   21.5941 H   0  0  0  0  0  0
  -27.3436  -25.0213   20.6777 H   0  0  0  0  0  0
  -30.4562  -17.8823   21.8751 H   0  0  0  0  0  0
  -27.6624  -24.3811   18.4754 H   0  0  0  0  0  0
  1 25  1  0  0  0
  1 30  2  0  0  0
  1 89  1  0  0  0
  2  3  1  0  0  0
  2 25  1  0  0  0
  2 91  1  0  0  0
  2 92  1  0  0  0
  3  4  1  0  0  0
  3 93  1  0  0  0
  3 94  1  0  0  0
  4  5  1  0  0  0
  4 95  1  0  0  0
  4 96  1  0  0  0
  5  6  1  0  0  0
  5 26  1  0  0  0
  5 97  1  0  0  0
  6 25  1  0  0  0
  6 98  1  0  0  0
  6 99  1  0  0  0
  7  8  2  0  0  0
  7 26  1  0  0  0
  7 29  1  0  0  0
  8  9  1  0  0  0
  8 22  1  0  0  0
  9 10  1  0  0  0
  9 27  2  0  0  0
 10 11  2  0  0  0
 10 15  1  0  0  0
 11 12  1  0  0  0
 11100  1  0  0  0
 12 13  2  0  0  0
 12101  1  0  0  0
 13 14  1  0  0  0
 13 31  1  0  0  0
 14 15  2  0  0  0
 14102  1  0  0  0
 15103  1  0  0  0
 16 17  2  0  0  0
 16 21  1  0  0  0
 16 31  1  0  0  0
 17 18  1  0  0  0
 17104  1  0  0  0
 18 19  2  0  0  0
 18105  1  0  0  0
 19 20  1  0  0  0
 19 24  1  0  0  0
 20 21  2  0  0  0
 20106  1  0  0  0
 21 23  1  0  0  0
 22 28  1  0  0  0
 22 32  2  0  0  0
 26 27  1  0  0  0
 28107  1  0  0  0
 28108  1  0  0  0
 29109  1  0  0  0
 29110  1  0  0  0
 33 34  1  0  0  0
 33 66  1  0  0  0
 33 70  2  0  0  0
 34 36  1  0  0  0
 34 59  1  0  0  0
 34111  1  0  0  0
 35 44  2  0  0  0
 35 45  1  0  0  0
 35 68  1  0  0  0
 36 56  1  0  0  0
 36112  1  0  0  0
 37 39  1  0  0  0
 37 47  1  0  0  0
 37 66  1  0  0  0
 37113  1  0  0  0
 38 43  2  0  0  0
 38 46  1  0  0  0
 38 47  1  0  0  0
 39 64  1  0  0  0
 39 67  2  0  0  0
 40 52  1  0  0  0
 40 53  2  0  0  0
 40 58  1  0  0  0
 41114  1  0  0  0
 41115  1  0  0  0
 41116  1  0  0  0
 41 48  1  0  0  0
 42 43  1  0  0  0
 42 66  1  0  0  0
 42117  1  0  0  0
 42118  1  0  0  0
 43 44  1  0  0  0
 44119  1  0  0  0
 45 46  2  0  0  0
 45120  1  0  0  0
 46121  1  0  0  0
 47122  1  0  0  0
 47123  1  0  0  0
 48 56  1  0  0  0
 48 65  1  0  0  0
 48124  1  0  0  0
 49 50  1  0  0  0
 49 53  1  0  0  0
 49 64  1  0  0  0
 49125  1  0  0  0
 50 51  1  0  0  0
 50126  1  0  0  0
 50127  1  0  0  0
 51 52  1  0  0  0
 51128  1  0  0  0
 51129  1  0  0  0
 52130  1  0  0  0
 52131  1  0  0  0
 53 54  1  0  0  0
 54 55  2  0  0  0
 54132  1  0  0  0
 55 57  1  0  0  0
 55133  1  0  0  0
 56 69  2  0  0  0
 57 58  2  0  0  0
 57134  1  0  0  0
 58135  1  0  0  0
 59 60  1  0  0  0
 59 61  1  0  0  0
 59 62  1  0  0  0
 60136  1  0  0  0
 60137  1  0  0  0
 60138  1  0  0  0
 61139  1  0  0  0
 61140  1  0  0  0
 61141  1  0  0  0
 62142  1  0  0  0
 62143  1  0  0  0
 62144  1  0  0  0
 63 65  1  0  0  0
 63145  1  0  0  0
 63146  1  0  0  0
 63147  1  0  0  0
 64148  1  0  0  0
 65149  1  0  0  0
 68 85  1  0  0  0
 71 73  1  0  0  0
 71 87  2  0  0  0
 71150  1  0  0  0
 72 73  2  0  0  0
 72 88  1  0  0  0
 72151  1  0  0  0
 73 77  1  0  0  0
 74 78  1  0  0  0
 74152  1  0  0  0
 74153  1  0  0  0
 74154  1  0  0  0
 75155  1  0  0  0
 75156  1  0  0  0
 75157  1  0  0  0
 75 86  1  0  0  0
 76 86  1  0  0  0
 76158  1  0  0  0
 76159  1  0  0  0
 76160  1  0  0  0
 77 89  1  0  0  0
 77161  1  0  0  0
 77162  1  0  0  0
 78 82  1  0  0  0
 78163  1  0  0  0
 78164  1  0  0  0
 79 80  1  0  0  0
 79 83  1  0  0  0
 79165  1  0  0  0
 79166  1  0  0  0
 80 88  1  0  0  0
 80167  1  0  0  0
 80168  1  0  0  0
 81 86  1  0  0  0
 81 89  1  0  0  0
 81169  1  0  0  0
 81170  1  0  0  0
 82171  1  0  0  0
 82172  1  0  0  0
 82 90  1  0  0  0
 83 90  1  0  0  0
 83173  1  0  0  0
 83174  1  0  0  0
 84 85  1  0  0  0
 84 90  1  0  0  0
 84175  1  0  0  0
 84176  1  0  0  0
 85177  1  0  0  0
 85178  1  0  0  0
 86179  1  0  0  0
 87 88  1  0  0  0
 90180  1  0  0  0
M  CHG  1  90   1
M  ISO  4   1 100  68 101  85 101  89 100
M  END
> <chiral flag>
0

> <version>
0

> <s_m_source_file>
/data/baiqing/PycharmProjects/Reinvent-master-3.2/result/LINK_invent/BTK/process_docking_weight1_custom_sum_contain_oxygen_bond_distance_aromatic_linkinvent_7_9_3/rearranged_h_0056.sdf

> <i_m_source_file_index>
93

> <r_mmod_Potential_Energy-OPLS-2005>
99.7705535888672

> <r_mmod_Stretch_Energy-OPLS-2005>
38.992015838623

> <r_mmod_Bend_Energy-OPLS-2005>
137.403732299805

> <r_mmod_Torsional_Energy-OPLS-2005>
330.188781738281

> <r_mmod_Improper_Torsional_Energy-OPLS-2005>
22.1870193481445

> <r_mmod_Van_der_Waal_Energy-OPLS-2005>
134.266891479492

> <r_mmod_Electrostatic_Energy-OPLS-2005>
-198.796371459961

> <r_mmod_Solvation_Energy-OPLS-2005>
-390.080047607422

> <b_mmod_Minimization_Converged-OPLS-2005>
0

> <r_mmod_RMS_Derivative-OPLS-2005>
2.64807319641113

$$$$
96
                    3D
 Structure written by MMmdl.
149157  0  0  1  0            999 V2000
  -30.4233  -15.3346   20.4007 C   0  0  0  0  0  0
  -30.4446  -12.8676   19.5217 C   0  0  0  0  0  0
  -29.5364  -12.6050   18.2904 C   0  0  0  0  0  0
  -28.0870  -12.3111   18.7165 C   0  0  0  0  0  0
  -27.6141  -13.2728   19.8329 C   0  0  2  0  0  0
  -28.6586  -13.4175   20.9635 C   0  0  0  0  0  0
  -25.2289  -13.8187   20.5659 C   0  0  0  0  0  0
  -24.1694  -13.0375   20.9254 C   0  0  0  0  0  0
  -24.6397  -11.6895   20.8789 C   0  0  0  0  0  0
  -23.9100  -10.4262   21.0420 C   0  0  0  0  0  0
  -24.3638   -9.4175   21.9196 C   0  0  0  0  0  0
  -23.6299   -8.2219   22.0758 C   0  0  0  0  0  0
  -22.4283   -8.0269   21.3544 C   0  0  0  0  0  0
  -21.9931   -9.0247   20.4647 C   0  0  0  0  0  0
  -22.7274  -10.2115   20.3062 C   0  0  0  0  0  0
  -21.6847   -6.0734   22.5282 C   0  0  0  0  0  0
  -21.4012   -6.5638   23.8216 C   0  0  0  0  0  0
  -21.3658   -5.6790   24.9178 C   0  0  0  0  0  0
  -21.6044   -4.3053   24.7228 C   0  0  0  0  0  0
  -21.8818   -3.8146   23.4350 C   0  0  0  0  0  0
  -21.9190   -4.6963   22.3405 C   0  0  0  0  0  0
  -22.7710  -13.5126   21.1902 C   0  0  0  0  0  0
  -22.1658   -4.2149   21.0983 F   0  0  0  0  0  0
  -21.5631   -3.4538   25.7741 F   0  0  0  0  0  0
  -29.8681  -14.0058   20.3434 N   0  0  0  0  0  0
  -26.2809  -12.9507   20.3263 N   0  0  0  0  0  0
  -25.9348  -11.6612   20.5785 N   0  0  0  0  0  0
  -22.0383  -12.8126   22.0478 N   0  0  0  0  0  0
  -25.3655  -15.1903   20.3897 N   0  0  0  0  0  0
  -31.6332  -15.3192   20.1199 O   0  0  0  0  0  0
  -21.6632   -6.8877   21.4244 O   0  0  0  0  0  0
  -22.3383  -14.5428   20.6744 O   0  0  0  0  0  0
  -24.6655  -31.8205   23.1679 C   0  0  0  0  0  0
  -25.9323  -32.4574   23.8158 C   0  0  1  0  0  0
  -27.2270  -26.9024   20.1911 C   0  0  0  0  0  0
  -25.5975  -33.8390   24.2058 N   0  0  0  0  0  0
  -23.4823  -30.4302   21.5177 C   0  0  2  0  0  0
  -24.9378  -28.8093   20.1168 C   0  0  0  0  0  0
  -22.7682  -29.4425   22.4776 C   0  0  0  0  0  0
  -18.0323  -28.1410   22.8462 C   0  0  0  0  0  0
  -24.1494  -36.7203   23.2649 C   0  0  0  0  0  0
  -26.0529  -30.6192   21.4022 C   0  0  0  0  0  0
  -26.1227  -29.2054   20.7492 C   0  0  0  0  0  0
  -27.2614  -28.2751   20.7577 C   0  0  0  0  0  0
  -26.0094  -26.6635   19.5127 C   0  0  0  0  0  0
  -24.9078  -27.5592   19.4776 C   0  0  0  0  0  0
  -23.7252  -29.7410   20.1464 C   0  0  0  0  0  0
  -25.4138  -36.2960   24.0295 C   0  0  1  0  0  0
  -20.5951  -28.3758   23.1179 C   0  0  2  0  0  0
  -20.6800  -26.9436   22.5400 C   0  0  0  0  0  0
  -19.5774  -26.6376   21.5212 C   0  0  0  0  0  0
  -18.1957  -26.7943   22.1620 C   0  0  0  0  0  0
  -19.1587  -28.8906   23.2806 C   0  0  0  0  0  0
  -18.9497  -30.1493   23.8844 C   0  0  0  0  0  0
  -17.6491  -30.6600   24.0553 C   0  0  0  0  0  0
  -25.9101  -34.9342   23.5003 C   0  0  0  0  0  0
  -16.5380  -29.9086   23.6343 C   0  0  0  0  0  0
  -16.7306  -28.6508   23.0362 C   0  0  0  0  0  0
  -26.4564  -31.6532   25.0701 C   0  0  0  0  0  0
  -25.3681  -31.3792   26.1350 C   0  0  0  0  0  0
  -27.0466  -30.2894   24.6461 C   0  0  0  0  0  0
  -27.6044  -32.4354   25.7511 C   0  0  0  0  0  0
  -27.5568  -37.1765   24.8468 C   0  0  0  0  0  0
  -21.4348  -29.3043   22.3524 N   0  0  0  0  0  0
  -26.4283  -37.3697   23.9401 N   0  0  0  0  0  0
  -24.7551  -30.9843   22.0829 N   0  0  0  0  0  0
  -23.4213  -28.7999   23.3035 O   0  0  0  0  0  0
  -28.2359  -25.7926   20.2468 O   0  0  0  0  0  0
  -26.5718  -34.8883   22.4601 O   0  0  0  0  0  0
  -23.5717  -32.1184   23.6752 O   0  0  0  0  0  0
  -31.2963  -22.5736   20.0694 C   0  0  0  0  0  0
  -29.2024  -22.9254   20.2135 C   0  0  0  0  0  0
  -28.4460  -16.5982   21.3091 C   0  0  0  0  0  0
  -27.9650  -24.1458   20.2287 C   0  0  0  0  0  0
  -28.9988  -19.8261   20.4037 C   0  0  0  0  0  0
  -29.9950  -18.2897   20.2767 C   0  0  0  0  0  0
  -30.3712  -23.5641   20.0973 N   0  0  0  0  0  0
  -30.8474  -21.3330   20.1604 N   0  0  0  0  0  0
  -29.4950  -21.4244   20.2597 N   0  0  0  0  0  0
  -29.6814  -16.6481   20.5386 N   0  0  0  0  0  0
  -31.4514  -13.0958   19.1701 H   0  0  0  0  0  0
  -30.5567  -11.9636   20.1222 H   0  0  0  0  0  0
  -29.9291  -11.7794   17.6958 H   0  0  0  0  0  0
  -29.5502  -13.4825   17.6419 H   0  0  0  0  0  0
  -28.0482  -11.2834   19.0796 H   0  0  0  0  0  0
  -27.4178  -12.3594   17.8566 H   0  0  0  0  0  0
  -27.5305  -14.2426   19.3426 H   0  0  0  0  0  0
  -28.8625  -12.4513   21.4274 H   0  0  0  0  0  0
  -28.2814  -14.0369   21.7731 H   0  0  0  0  0  0
  -25.2777   -9.5645   22.4780 H   0  0  0  0  0  0
  -23.9996   -7.4608   22.7480 H   0  0  0  0  0  0
  -21.0864   -8.8780   19.8950 H   0  0  0  0  0  0
  -22.3744  -10.9660   19.6174 H   0  0  0  0  0  0
  -21.2002   -7.6146   23.9720 H   0  0  0  0  0  0
  -21.1481   -6.0520   25.9081 H   0  0  0  0  0  0
  -22.0599   -2.7609   23.2850 H   0  0  0  0  0  0
  -22.4021  -11.9805   22.4881 H   0  0  0  0  0  0
  -21.1001  -13.1143   22.2693 H   0  0  0  0  0  0
  -24.5783  -15.8217   20.4901 H   0  0  0  0  0  0
  -26.1914  -15.6427   20.0216 H   0  0  0  0  0  0
  -26.7395  -32.5106   23.0875 H   0  0  0  0  0  0
  -25.0061  -33.9464   25.0168 H   0  0  0  0  0  0
  -22.7971  -31.2622   21.3427 H   0  0  0  0  0  0
  -23.3761  -35.9529   23.3297 H   0  0  0  0  0  0
  -24.3560  -36.8869   22.2064 H   0  0  0  0  0  0
  -23.7254  -37.6389   23.6719 H   0  0  0  0  0  0
  -26.2346  -31.3578   20.6203 H   0  0  0  0  0  0
  -26.9116  -30.6784   22.0587 H   0  0  0  0  0  0
  -28.1597  -28.5798   21.2758 H   0  0  0  0  0  0
  -25.8768  -25.7119   19.0193 H   0  0  0  0  0  0
  -24.0088  -27.2494   18.9628 H   0  0  0  0  0  0
  -23.8857  -30.5069   19.3868 H   0  0  0  0  0  0
  -22.8343  -29.1977   19.8269 H   0  0  0  0  0  0
  -25.1342  -36.1753   25.0788 H   0  0  0  0  0  0
  -21.0034  -28.3371   24.1304 H   0  0  0  0  0  0
  -20.5676  -26.2382   23.3647 H   0  0  0  0  0  0
  -21.6665  -26.7409   22.1213 H   0  0  0  0  0  0
  -19.6936  -25.6273   21.1278 H   0  0  0  0  0  0
  -19.6713  -27.3155   20.6717 H   0  0  0  0  0  0
  -17.4226  -26.6680   21.4024 H   0  0  0  0  0  0
  -18.0353  -26.0098   22.9028 H   0  0  0  0  0  0
  -19.7973  -30.7319   24.2197 H   0  0  0  0  0  0
  -17.5044  -31.6275   24.5164 H   0  0  0  0  0  0
  -15.5379  -30.2971   23.7701 H   0  0  0  0  0  0
  -15.8707  -28.0808   22.7109 H   0  0  0  0  0  0
  -24.5872  -30.7136   25.7659 H   0  0  0  0  0  0
  -24.8859  -32.2995   26.4655 H   0  0  0  0  0  0
  -25.7898  -30.9036   27.0212 H   0  0  0  0  0  0
  -26.3138  -29.6560   24.1446 H   0  0  0  0  0  0
  -27.3961  -29.7275   25.5133 H   0  0  0  0  0  0
  -27.9097  -30.4069   23.9904 H   0  0  0  0  0  0
  -27.2600  -33.3696   26.1960 H   0  0  0  0  0  0
  -28.3922  -32.6852   25.0392 H   0  0  0  0  0  0
  -28.0639  -31.8570   26.5536 H   0  0  0  0  0  0
  -28.2579  -38.0066   24.7493 H   0  0  0  0  0  0
  -28.1071  -36.2589   24.6325 H   0  0  0  0  0  0
  -27.2276  -37.1444   25.8869 H   0  0  0  0  0  0
  -20.9615  -29.8730   21.6642 H   0  0  0  0  0  0
  -26.0128  -38.2758   24.1395 H   0  0  0  0  0  0
  -32.3542  -22.7777   19.9794 H   0  0  0  0  0  0
  -27.9823  -17.5705   21.4602 H   0  0  0  0  0  0
  -28.6255  -16.1791   22.3000 H   0  0  0  0  0  0
  -27.7167  -15.9934   20.7897 H   0  0  0  0  0  0
  -27.3306  -23.9301   21.0882 H   0  0  0  0  0  0
  -27.3392  -23.9450   19.3599 H   0  0  0  0  0  0
  -28.5163  -19.7887   21.3804 H   0  0  0  0  0  0
  -28.1755  -19.7166   19.6974 H   0  0  0  0  0  0
  -30.8602  -18.4723   20.9143 H   0  0  0  0  0  0
  -30.4112  -18.3098   19.2691 H   0  0  0  0  0  0
  1 25  1  0  0  0
  1 30  2  0  0  0
  1 80  1  0  0  0
  2  3  1  0  0  0
  2 25  1  0  0  0
  2 81  1  0  0  0
  2 82  1  0  0  0
  3  4  1  0  0  0
  3 83  1  0  0  0
  3 84  1  0  0  0
  4  5  1  0  0  0
  4 85  1  0  0  0
  4 86  1  0  0  0
  5  6  1  0  0  0
  5 26  1  0  0  0
  5 87  1  0  0  0
  6 25  1  0  0  0
  6 88  1  0  0  0
  6 89  1  0  0  0
  7  8  2  0  0  0
  7 26  1  0  0  0
  7 29  1  0  0  0
  8  9  1  0  0  0
  8 22  1  0  0  0
  9 10  1  0  0  0
  9 27  2  0  0  0
 10 11  2  0  0  0
 10 15  1  0  0  0
 11 12  1  0  0  0
 11 90  1  0  0  0
 12 13  2  0  0  0
 12 91  1  0  0  0
 13 14  1  0  0  0
 13 31  1  0  0  0
 14 15  2  0  0  0
 14 92  1  0  0  0
 15 93  1  0  0  0
 16 17  2  0  0  0
 16 21  1  0  0  0
 16 31  1  0  0  0
 17 18  1  0  0  0
 17 94  1  0  0  0
 18 19  2  0  0  0
 18 95  1  0  0  0
 19 20  1  0  0  0
 19 24  1  0  0  0
 20 21  2  0  0  0
 20 96  1  0  0  0
 21 23  1  0  0  0
 22 28  1  0  0  0
 22 32  2  0  0  0
 26 27  1  0  0  0
 28 97  1  0  0  0
 28 98  1  0  0  0
 29 99  1  0  0  0
 29100  1  0  0  0
 33 34  1  0  0  0
 33 66  1  0  0  0
 33 70  2  0  0  0
 34 36  1  0  0  0
 34 59  1  0  0  0
 34101  1  0  0  0
 35 44  2  0  0  0
 35 45  1  0  0  0
 35 68  1  0  0  0
 36 56  1  0  0  0
 36102  1  0  0  0
 37 39  1  0  0  0
 37 47  1  0  0  0
 37 66  1  0  0  0
 37103  1  0  0  0
 38 43  2  0  0  0
 38 46  1  0  0  0
 38 47  1  0  0  0
 39 64  1  0  0  0
 39 67  2  0  0  0
 40 52  1  0  0  0
 40 53  2  0  0  0
 40 58  1  0  0  0
 41104  1  0  0  0
 41105  1  0  0  0
 41106  1  0  0  0
 41 48  1  0  0  0
 42 43  1  0  0  0
 42 66  1  0  0  0
 42107  1  0  0  0
 42108  1  0  0  0
 43 44  1  0  0  0
 44109  1  0  0  0
 45 46  2  0  0  0
 45110  1  0  0  0
 46111  1  0  0  0
 47112  1  0  0  0
 47113  1  0  0  0
 48 56  1  0  0  0
 48 65  1  0  0  0
 48114  1  0  0  0
 49 50  1  0  0  0
 49 53  1  0  0  0
 49 64  1  0  0  0
 49115  1  0  0  0
 50 51  1  0  0  0
 50116  1  0  0  0
 50117  1  0  0  0
 51 52  1  0  0  0
 51118  1  0  0  0
 51119  1  0  0  0
 52120  1  0  0  0
 52121  1  0  0  0
 53 54  1  0  0  0
 54 55  2  0  0  0
 54122  1  0  0  0
 55 57  1  0  0  0
 55123  1  0  0  0
 56 69  2  0  0  0
 57 58  2  0  0  0
 57124  1  0  0  0
 58125  1  0  0  0
 59 60  1  0  0  0
 59 61  1  0  0  0
 59 62  1  0  0  0
 60126  1  0  0  0
 60127  1  0  0  0
 60128  1  0  0  0
 61129  1  0  0  0
 61130  1  0  0  0
 61131  1  0  0  0
 62132  1  0  0  0
 62133  1  0  0  0
 62134  1  0  0  0
 63 65  1  0  0  0
 63135  1  0  0  0
 63136  1  0  0  0
 63137  1  0  0  0
 64138  1  0  0  0
 65139  1  0  0  0
 68 74  1  0  0  0
 71 77  1  0  0  0
 71 78  2  0  0  0
 71140  1  0  0  0
 72 74  1  0  0  0
 72 77  2  0  0  0
 72 79  1  0  0  0
 73 80  1  0  0  0
 73141  1  0  0  0
 73142  1  0  0  0
 73143  1  0  0  0
 74144  1  0  0  0
 74145  1  0  0  0
 75 76  1  0  0  0
 75 79  1  0  0  0
 75146  1  0  0  0
 75147  1  0  0  0
 76 80  1  0  0  0
 76148  1  0  0  0
 76149  1  0  0  0
 78 79  1  0  0  0
M  ISO  4   1 100  68 101  74 101  80 100
M  END
> <chiral flag>
0

> <version>
0

> <s_m_source_file>
/data/baiqing/PycharmProjects/Reinvent-master-3.2/result/LINK_invent/BTK/process_docking_weight1_custom_sum_contain_oxygen_bond_distance_aromatic_linkinvent_7_9_3/rearranged_h_0056.sdf

> <i_m_source_file_index>
94

> <r_mmod_Potential_Energy-OPLS-2005>
1609.23547363281

> <r_mmod_Stretch_Energy-OPLS-2005>
694.28125

> <r_mmod_Bend_Energy-OPLS-2005>
521.062866210938

> <r_mmod_Torsional_Energy-OPLS-2005>
268.556793212891

> <r_mmod_Improper_Torsional_Energy-OPLS-2005>
5.18878841400146

> <r_mmod_Van_der_Waal_Energy-OPLS-2005>
116.137702941895

> <r_mmod_Electrostatic_Energy-OPLS-2005>
-256.800201416016

> <r_mmod_Solvation_Energy-OPLS-2005>
-241.996795654297

> <b_mmod_Minimization_Converged-OPLS-2005>
0

> <r_mmod_RMS_Derivative-OPLS-2005>
0.571039915084839

$$$$
97
                    3D
 Structure written by MMmdl.
148156  0  0  1  0            999 V2000
  -30.4714  -15.2178   20.3767 C   0  0  0  0  0  0
  -30.4364  -12.7754   19.5235 C   0  0  0  0  0  0
  -29.5346  -12.5670   18.2818 C   0  0  0  0  0  0
  -28.0804  -12.3000   18.7071 C   0  0  0  0  0  0
  -27.6143  -13.2724   19.8197 C   0  0  2  0  0  0
  -28.6478  -13.4347   20.9556 C   0  0  0  0  0  0
  -25.2408  -13.8240   20.5714 C   0  0  0  0  0  0
  -24.1756  -13.0440   20.9248 C   0  0  0  0  0  0
  -24.6408  -11.6936   20.8767 C   0  0  0  0  0  0
  -23.9105  -10.4297   21.0414 C   0  0  0  0  0  0
  -24.3653   -9.4206   21.9190 C   0  0  0  0  0  0
  -23.6319   -8.2241   22.0756 C   0  0  0  0  0  0
  -22.4297   -8.0289   21.3551 C   0  0  0  0  0  0
  -21.9937   -9.0259   20.4649 C   0  0  0  0  0  0
  -22.7274  -10.2132   20.3064 C   0  0  0  0  0  0
  -21.6852   -6.0752   22.5288 C   0  0  0  0  0  0
  -21.4008   -6.5655   23.8225 C   0  0  0  0  0  0
  -21.3658   -5.6799   24.9179 C   0  0  0  0  0  0
  -21.6041   -4.3064   24.7222 C   0  0  0  0  0  0
  -21.8820   -3.8160   23.4344 C   0  0  0  0  0  0
  -21.9186   -4.6977   22.3402 C   0  0  0  0  0  0
  -22.7776  -13.5200   21.1895 C   0  0  0  0  0  0
  -22.1662   -4.2167   21.0978 F   0  0  0  0  0  0
  -21.5622   -3.4543   25.7737 F   0  0  0  0  0  0
  -29.8875  -13.9234   20.3336 N   0  0  0  0  0  0
  -26.2834  -12.9507   20.3182 N   0  0  0  0  0  0
  -25.9346  -11.6622   20.5711 N   0  0  0  0  0  0
  -22.0433  -12.8190   22.0443 N   0  0  0  0  0  0
  -25.4062  -15.1960   20.4137 N   0  0  0  0  0  0
  -31.6916  -15.1998   20.1655 O   0  0  0  0  0  0
  -21.6645   -6.8897   21.4255 O   0  0  0  0  0  0
  -22.3463  -14.5496   20.6718 O   0  0  0  0  0  0
  -24.6620  -31.8263   23.1721 C   0  0  0  0  0  0
  -25.9314  -32.4611   23.8180 C   0  0  1  0  0  0
  -27.2094  -26.9472   20.1816 C   0  0  0  0  0  0
  -25.5989  -33.8423   24.2090 N   0  0  0  0  0  0
  -23.4755  -30.4426   21.5198 C   0  0  2  0  0  0
  -24.9267  -28.8382   20.1101 C   0  0  0  0  0  0
  -22.7665  -29.4476   22.4763 C   0  0  0  0  0  0
  -18.0324  -28.1418   22.8475 C   0  0  0  0  0  0
  -24.1488  -36.7212   23.2645 C   0  0  0  0  0  0
  -26.0456  -30.6406   21.3992 C   0  0  0  0  0  0
  -26.1113  -29.2330   20.7447 C   0  0  0  0  0  0
  -27.2485  -28.3086   20.7584 C   0  0  0  0  0  0
  -25.9961  -26.7064   19.4953 C   0  0  0  0  0  0
  -24.8946  -27.5950   19.4650 C   0  0  0  0  0  0
  -23.7137  -29.7646   20.1438 C   0  0  0  0  0  0
  -25.4124  -36.2979   24.0314 C   0  0  1  0  0  0
  -20.5959  -28.3767   23.1180 C   0  0  2  0  0  0
  -20.6807  -26.9447   22.5393 C   0  0  0  0  0  0
  -19.5769  -26.6382   21.5219 C   0  0  0  0  0  0
  -18.1952  -26.7956   22.1625 C   0  0  0  0  0  0
  -19.1590  -28.8907   23.2820 C   0  0  0  0  0  0
  -18.9498  -30.1496   23.8862 C   0  0  0  0  0  0
  -17.6492  -30.6609   24.0554 C   0  0  0  0  0  0
  -25.9093  -34.9365   23.5013 C   0  0  0  0  0  0
  -16.5381  -29.9104   23.6340 C   0  0  0  0  0  0
  -16.7309  -28.6519   23.0372 C   0  0  0  0  0  0
  -26.4558  -31.6548   25.0703 C   0  0  0  0  0  0
  -25.3683  -31.3841   26.1358 C   0  0  0  0  0  0
  -27.0423  -30.2908   24.6440 C   0  0  0  0  0  0
  -27.6067  -32.4348   25.7485 C   0  0  0  0  0  0
  -27.5578  -37.1736   24.8448 C   0  0  0  0  0  0
  -21.4333  -29.3065   22.3525 N   0  0  0  0  0  0
  -26.4253  -37.3727   23.9448 N   0  0  0  0  0  0
  -24.7493  -30.9969   22.0835 N   0  0  0  0  0  0
  -23.4228  -28.8032   23.2985 O   0  0  0  0  0  0
  -28.1916  -25.8284   20.2647 O   0  0  0  0  0  0
  -26.5688  -34.8901   22.4606 O   0  0  0  0  0  0
  -23.5693  -32.1211   23.6816 O   0  0  0  0  0  0
  -27.9447  -21.4998   19.5071 C   0  0  0  0  0  0
  -29.9399  -20.8282   21.0765 C   0  0  0  0  0  0
  -28.5069  -22.6657   20.1942 C   0  0  0  0  0  0
  -29.3768  -19.6619   20.3742 C   0  0  0  0  0  0
  -30.7831  -18.1536   18.8081 C   0  0  0  0  0  0
  -27.7792  -24.2548   20.0833 C   0  0  0  0  0  0
  -30.1369  -18.0967   20.2034 C   0  0  2  0  0  0
  -29.5367  -22.2038   21.0186 N   0  0  0  0  0  0
  -28.3409  -20.1305   19.5696 N   0  0  0  0  0  0
  -29.7378  -16.5018   20.4422 N   0  0  0  0  0  0
  -31.4607  -12.9606   19.1985 H   0  0  0  0  0  0
  -30.4837  -11.8659   20.1237 H   0  0  0  0  0  0
  -29.9084  -11.7406   17.6758 H   0  0  0  0  0  0
  -29.5746  -13.4545   17.6488 H   0  0  0  0  0  0
  -28.0302  -11.2744   19.0748 H   0  0  0  0  0  0
  -27.4121  -12.3503   17.8460 H   0  0  0  0  0  0
  -27.5333  -14.2418   19.3266 H   0  0  0  0  0  0
  -28.8026  -12.4968   21.4908 H   0  0  0  0  0  0
  -28.2926  -14.1596   21.6901 H   0  0  0  0  0  0
  -25.2801   -9.5669   22.4762 H   0  0  0  0  0  0
  -24.0024   -7.4630   22.7479 H   0  0  0  0  0  0
  -21.0863   -8.8781   19.8960 H   0  0  0  0  0  0
  -22.3740  -10.9670   19.6171 H   0  0  0  0  0  0
  -21.2005   -7.6168   23.9729 H   0  0  0  0  0  0
  -21.1476   -6.0532   25.9081 H   0  0  0  0  0  0
  -22.0596   -2.7625   23.2830 H   0  0  0  0  0  0
  -22.4065  -11.9868   22.4848 H   0  0  0  0  0  0
  -21.1043  -13.1193   22.2639 H   0  0  0  0  0  0
  -24.6340  -15.8467   20.5122 H   0  0  0  0  0  0
  -26.2462  -15.6318   20.0554 H   0  0  0  0  0  0
  -26.7387  -32.5139   23.0900 H   0  0  0  0  0  0
  -25.0128  -33.9512   25.0239 H   0  0  0  0  0  0
  -22.7896  -31.2751   21.3518 H   0  0  0  0  0  0
  -23.3778  -35.9503   23.3214 H   0  0  0  0  0  0
  -24.3601  -36.8940   22.2077 H   0  0  0  0  0  0
  -23.7176  -37.6359   23.6740 H   0  0  0  0  0  0
  -26.2262  -31.3807   20.6186 H   0  0  0  0  0  0
  -26.9065  -30.6948   22.0540 H   0  0  0  0  0  0
  -28.1431  -28.6064   21.2867 H   0  0  0  0  0  0
  -25.8489  -25.7627   18.9939 H   0  0  0  0  0  0
  -23.9969  -27.2896   18.9452 H   0  0  0  0  0  0
  -23.8682  -30.5339   19.3857 H   0  0  0  0  0  0
  -22.8229  -29.2209   19.8251 H   0  0  0  0  0  0
  -25.1302  -36.1766   25.0797 H   0  0  0  0  0  0
  -21.0047  -28.3361   24.1306 H   0  0  0  0  0  0
  -20.5683  -26.2395   23.3644 H   0  0  0  0  0  0
  -21.6665  -26.7424   22.1189 H   0  0  0  0  0  0
  -19.6922  -25.6277   21.1288 H   0  0  0  0  0  0
  -19.6697  -27.3163   20.6729 H   0  0  0  0  0  0
  -17.4217  -26.6705   21.4031 H   0  0  0  0  0  0
  -18.0332  -26.0121   22.9035 H   0  0  0  0  0  0
  -19.7974  -30.7314   24.2223 H   0  0  0  0  0  0
  -17.5051  -31.6288   24.5154 H   0  0  0  0  0  0
  -15.5379  -30.2992   23.7696 H   0  0  0  0  0  0
  -15.8708  -28.0816   22.7127 H   0  0  0  0  0  0
  -24.5840  -30.7223   25.7675 H   0  0  0  0  0  0
  -24.8899  -32.3062   26.4670 H   0  0  0  0  0  0
  -25.7887  -30.9060   27.0215 H   0  0  0  0  0  0
  -26.3071  -29.6610   24.1424 H   0  0  0  0  0  0
  -27.3916  -29.7275   25.5108 H   0  0  0  0  0  0
  -27.9042  -30.4090   23.9874 H   0  0  0  0  0  0
  -27.2670  -33.3717   26.1926 H   0  0  0  0  0  0
  -28.3942  -32.6801   25.0343 H   0  0  0  0  0  0
  -28.0669  -31.8554   26.5509 H   0  0  0  0  0  0
  -28.2493  -38.0130   24.7612 H   0  0  0  0  0  0
  -28.1157  -36.2666   24.6084 H   0  0  0  0  0  0
  -27.2333  -37.1146   25.8850 H   0  0  0  0  0  0
  -20.9575  -29.8800   21.6695 H   0  0  0  0  0  0
  -26.0090  -38.2760   24.1541 H   0  0  0  0  0  0
  -27.0987  -21.6715   18.8567 H   0  0  0  0  0  0
  -30.8130  -20.6614   21.6919 H   0  0  0  0  0  0
  -31.3166  -19.0928   18.6599 H   0  0  0  0  0  0
  -30.0220  -18.0873   18.0305 H   0  0  0  0  0  0
  -31.5029  -17.3532   18.6403 H   0  0  0  0  0  0
  -26.8901  -24.1537   20.7052 H   0  0  0  0  0  0
  -27.3997  -24.2271   19.0631 H   0  0  0  0  0  0
  -30.9628  -18.1974   20.9088 H   0  0  0  0  0  0
  -28.7517  -16.3716   20.6112 H   0  0  0  0  0  0
  1 25  1  0  0  0
  1 30  2  0  0  0
  1 80  1  0  0  0
  2  3  1  0  0  0
  2 25  1  0  0  0
  2 81  1  0  0  0
  2 82  1  0  0  0
  3  4  1  0  0  0
  3 83  1  0  0  0
  3 84  1  0  0  0
  4  5  1  0  0  0
  4 85  1  0  0  0
  4 86  1  0  0  0
  5  6  1  0  0  0
  5 26  1  0  0  0
  5 87  1  0  0  0
  6 25  1  0  0  0
  6 88  1  0  0  0
  6 89  1  0  0  0
  7  8  2  0  0  0
  7 26  1  0  0  0
  7 29  1  0  0  0
  8  9  1  0  0  0
  8 22  1  0  0  0
  9 10  1  0  0  0
  9 27  2  0  0  0
 10 11  2  0  0  0
 10 15  1  0  0  0
 11 12  1  0  0  0
 11 90  1  0  0  0
 12 13  2  0  0  0
 12 91  1  0  0  0
 13 14  1  0  0  0
 13 31  1  0  0  0
 14 15  2  0  0  0
 14 92  1  0  0  0
 15 93  1  0  0  0
 16 17  2  0  0  0
 16 21  1  0  0  0
 16 31  1  0  0  0
 17 18  1  0  0  0
 17 94  1  0  0  0
 18 19  2  0  0  0
 18 95  1  0  0  0
 19 20  1  0  0  0
 19 24  1  0  0  0
 20 21  2  0  0  0
 20 96  1  0  0  0
 21 23  1  0  0  0
 22 28  1  0  0  0
 22 32  2  0  0  0
 26 27  1  0  0  0
 28 97  1  0  0  0
 28 98  1  0  0  0
 29 99  1  0  0  0
 29100  1  0  0  0
 33 34  1  0  0  0
 33 66  1  0  0  0
 33 70  2  0  0  0
 34 36  1  0  0  0
 34 59  1  0  0  0
 34101  1  0  0  0
 35 44  2  0  0  0
 35 45  1  0  0  0
 35 68  1  0  0  0
 36 56  1  0  0  0
 36102  1  0  0  0
 37 39  1  0  0  0
 37 47  1  0  0  0
 37 66  1  0  0  0
 37103  1  0  0  0
 38 43  2  0  0  0
 38 46  1  0  0  0
 38 47  1  0  0  0
 39 64  1  0  0  0
 39 67  2  0  0  0
 40 52  1  0  0  0
 40 53  2  0  0  0
 40 58  1  0  0  0
 41104  1  0  0  0
 41105  1  0  0  0
 41106  1  0  0  0
 41 48  1  0  0  0
 42 43  1  0  0  0
 42 66  1  0  0  0
 42107  1  0  0  0
 42108  1  0  0  0
 43 44  1  0  0  0
 44109  1  0  0  0
 45 46  2  0  0  0
 45110  1  0  0  0
 46111  1  0  0  0
 47112  1  0  0  0
 47113  1  0  0  0
 48 56  1  0  0  0
 48 65  1  0  0  0
 48114  1  0  0  0
 49 50  1  0  0  0
 49 53  1  0  0  0
 49 64  1  0  0  0
 49115  1  0  0  0
 50 51  1  0  0  0
 50116  1  0  0  0
 50117  1  0  0  0
 51 52  1  0  0  0
 51118  1  0  0  0
 51119  1  0  0  0
 52120  1  0  0  0
 52121  1  0  0  0
 53 54  1  0  0  0
 54 55  2  0  0  0
 54122  1  0  0  0
 55 57  1  0  0  0
 55123  1  0  0  0
 56 69  2  0  0  0
 57 58  2  0  0  0
 57124  1  0  0  0
 58125  1  0  0  0
 59 60  1  0  0  0
 59 61  1  0  0  0
 59 62  1  0  0  0
 60126  1  0  0  0
 60127  1  0  0  0
 60128  1  0  0  0
 61129  1  0  0  0
 61130  1  0  0  0
 61131  1  0  0  0
 62132  1  0  0  0
 62133  1  0  0  0
 62134  1  0  0  0
 63 65  1  0  0  0
 63135  1  0  0  0
 63136  1  0  0  0
 63137  1  0  0  0
 64138  1  0  0  0
 65139  1  0  0  0
 68 76  1  0  0  0
 71 73  2  0  0  0
 71 79  1  0  0  0
 71140  1  0  0  0
 72 74  1  0  0  0
 72 78  2  0  0  0
 72141  1  0  0  0
 73 76  1  0  0  0
 73 78  1  0  0  0
 74 77  1  0  0  0
 74 79  2  0  0  0
 75142  1  0  0  0
 75143  1  0  0  0
 75144  1  0  0  0
 75 77  1  0  0  0
 76145  1  0  0  0
 76146  1  0  0  0
 77 80  1  0  0  0
 77147  1  0  0  0
 80148  1  0  0  0
M  ISO  4   1 100  68 101  76 101  80 100
M  END
> <chiral flag>
0

> <version>
0

> <s_m_source_file>
/data/baiqing/PycharmProjects/Reinvent-master-3.2/result/LINK_invent/BTK/process_docking_weight1_custom_sum_contain_oxygen_bond_distance_aromatic_linkinvent_7_9_3/rearranged_h_0056.sdf

> <i_m_source_file_index>
95

> <r_mmod_Potential_Energy-OPLS-2005>
1181.44128417969

> <r_mmod_Stretch_Energy-OPLS-2005>
500.701019287109

> <r_mmod_Bend_Energy-OPLS-2005>
444.829254150391

> <r_mmod_Torsional_Energy-OPLS-2005>
206.243377685547

> <r_mmod_Improper_Torsional_Energy-OPLS-2005>
7.70886373519897

> <r_mmod_Van_der_Waal_Energy-OPLS-2005>
135.286590576172

> <r_mmod_Electrostatic_Energy-OPLS-2005>
-301.779327392578

> <r_mmod_Solvation_Energy-OPLS-2005>
-232.690002441406

> <b_mmod_Minimization_Converged-OPLS-2005>
0

> <r_mmod_RMS_Derivative-OPLS-2005>
1.96933960914612

$$$$
