0
                    3D
 Structure written by MMmdl.
173183  0  0  1  0            999 V2000
  -30.6723  -14.5115   20.5297 C   0  0  0  0  0  0
  -30.4249  -12.3203   19.4225 C   0  0  0  0  0  0
  -29.4911  -12.4887   18.2057 C   0  0  0  0  0  0
  -28.0145  -12.3358   18.6242 C   0  0  0  0  0  0
  -27.6510  -13.1887   19.8681 C   0  0  2  0  0  0
  -28.7001  -13.0153   20.9904 C   0  0  0  0  0  0
  -25.2569  -13.8089   20.5705 C   0  0  0  0  0  0
  -24.1817  -13.0387   20.9201 C   0  0  0  0  0  0
  -24.6362  -11.6853   20.8770 C   0  0  0  0  0  0
  -23.9035  -10.4255   21.0425 C   0  0  0  0  0  0
  -24.3603   -9.4166   21.9192 C   0  0  0  0  0  0
  -23.6281   -8.2210   22.0755 C   0  0  0  0  0  0
  -22.4260   -8.0267   21.3550 C   0  0  0  0  0  0
  -21.9895   -9.0232   20.4647 C   0  0  0  0  0  0
  -22.7218  -10.2113   20.3063 C   0  0  0  0  0  0
  -21.6844   -6.0735   22.5286 C   0  0  0  0  0  0
  -21.4006   -6.5645   23.8219 C   0  0  0  0  0  0
  -21.3658   -5.6798   24.9184 C   0  0  0  0  0  0
  -21.6044   -4.3064   24.7231 C   0  0  0  0  0  0
  -21.8822   -3.8154   23.4351 C   0  0  0  0  0  0
  -21.9185   -4.6966   22.3405 C   0  0  0  0  0  0
  -22.7850  -13.5196   21.1867 C   0  0  0  0  0  0
  -22.1654   -4.2156   21.0983 F   0  0  0  0  0  0
  -21.5629   -3.4541   25.7743 F   0  0  0  0  0  0
  -30.0228  -13.3199   20.4218 N   0  0  0  0  0  0
  -26.2966  -12.9216   20.3369 N   0  0  0  0  0  0
  -25.9275  -11.6401   20.5791 N   0  0  0  0  0  0
  -22.0499  -12.8193   22.0437 N   0  0  0  0  0  0
  -25.4316  -15.1810   20.4142 N   0  0  0  0  0  0
  -31.8425  -14.6718   20.1667 O   0  0  0  0  0  0
  -21.6627   -6.8867   21.4245 O   0  0  0  0  0  0
  -22.3550  -14.5513   20.6722 O   0  0  0  0  0  0
  -24.6143  -31.8686   23.2096 C   0  0  0  0  0  0
  -25.9040  -32.4824   23.8390 C   0  0  1  0  0  0
  -27.2354  -27.4270   20.0907 C   0  0  0  0  0  0
  -25.5903  -33.8624   24.2324 N   0  0  0  0  0  0
  -23.4005  -30.4921   21.5521 C   0  0  2  0  0  0
  -24.8447  -28.9550   20.1185 C   0  0  0  0  0  0
  -22.7388  -29.4672   22.5007 C   0  0  0  0  0  0
  -18.0274  -28.1381   22.8495 C   0  0  0  0  0  0
  -24.1491  -36.7313   23.2642 C   0  0  0  0  0  0
  -25.9306  -30.8305   21.3634 C   0  0  0  0  0  0
  -26.0056  -29.4637   20.7117 C   0  0  0  0  0  0
  -27.2000  -28.7067   20.6957 C   0  0  0  0  0  0
  -26.0449  -26.9261   19.5114 C   0  0  0  0  0  0
  -24.8584  -27.6843   19.5193 C   0  0  0  0  0  0
  -23.6068  -29.8226   20.1678 C   0  0  0  0  0  0
  -25.4114  -36.3113   24.0339 C   0  0  1  0  0  0
  -20.5857  -28.3667   23.1330 C   0  0  2  0  0  0
  -20.6765  -26.9403   22.5434 C   0  0  0  0  0  0
  -19.5754  -26.6384   21.5217 C   0  0  0  0  0  0
  -18.1920  -26.7939   22.1603 C   0  0  0  0  0  0
  -19.1519  -28.8840   23.2910 C   0  0  0  0  0  0
  -18.9445  -30.1449   23.8916 C   0  0  0  0  0  0
  -17.6448  -30.6589   24.0565 C   0  0  0  0  0  0
  -25.9046  -34.9482   23.5127 C   0  0  0  0  0  0
  -16.5344  -29.9087   23.6328 C   0  0  0  0  0  0
  -16.7262  -28.6502   23.0351 C   0  0  0  0  0  0
  -26.4461  -31.6602   25.0718 C   0  0  0  0  0  0
  -25.3723  -31.3705   26.1463 C   0  0  0  0  0  0
  -27.0284  -30.3036   24.6103 C   0  0  0  0  0  0
  -27.6046  -32.4314   25.7471 C   0  0  0  0  0  0
  -27.5599  -37.1808   24.8462 C   0  0  0  0  0  0
  -21.4121  -29.3029   22.3732 N   0  0  0  0  0  0
  -26.4303  -37.3797   23.9415 N   0  0  0  0  0  0
  -24.6671  -31.0784   22.1001 N   0  0  0  0  0  0
  -23.4156  -28.8231   23.3066 O   0  0  0  0  0  0
  -28.4315  -26.7295   20.0931 O   0  0  0  0  0  0
  -26.5606  -34.8930   22.4688 O   0  0  0  0  0  0
  -23.5340  -32.1458   23.7490 O   0  0  0  0  0  0
  -32.6668  -21.3233   19.6903 C   0  0  0  0  0  0
  -30.7285  -19.9327   20.2475 C   0  0  0  0  0  0
  -30.4518  -22.3641   19.6355 C   0  0  0  0  0  0
  -32.1329  -20.0782   20.0515 C   0  0  0  0  0  0
  -31.8636  -22.4507   19.4691 C   0  0  0  0  0  0
  -29.8965  -21.0856   20.0000 C   0  0  0  0  0  0
  -29.9182  -17.6444   19.3888 C   0  0  0  0  0  0
  -30.7357  -17.7356   21.7882 C   0  0  0  0  0  0
  -28.4530  -24.1832   20.2441 C   0  0  0  0  0  0
  -29.9695  -25.0610   19.1427 C   0  0  0  0  0  0
  -29.2078  -16.3225   19.7372 C   0  0  0  0  0  0
  -30.0183  -16.3831   22.0415 C   0  0  0  0  0  0
  -30.0992  -18.5501   20.6236 C   0  0  0  0  0  0
  -29.5318  -23.5797   19.3001 C   0  0  1  0  0  0
  -28.5233  -25.4748   19.4015 C   0  0  2  0  0  0
  -33.1469  -18.9480   20.1596 C   0  0  0  0  0  0
  -32.5983  -23.6945   18.9886 C   0  0  0  0  0  0
  -28.3747  -20.9301   20.0625 C   0  0  0  0  0  0
  -29.8814  -15.5787   20.8162 N   0  0  0  0  0  0
  -31.4676  -12.4300   19.1186 H   0  0  0  0  0  0
  -30.3388  -11.3170   19.8416 H   0  0  0  0  0  0
  -29.7366  -11.7528   17.4386 H   0  0  0  0  0  0
  -29.6445  -13.4686   17.7499 H   0  0  0  0  0  0
  -27.8394  -11.2808   18.8387 H   0  0  0  0  0  0
  -27.3581  -12.5883   17.7911 H   0  0  0  0  0  0
  -27.6614  -14.2222   19.5403 H   0  0  0  0  0  0
  -28.6906  -11.9934   21.3730 H   0  0  0  0  0  0
  -28.4663  -13.6562   21.8421 H   0  0  0  0  0  0
  -25.2748   -9.5644   22.4758 H   0  0  0  0  0  0
  -24.0006   -7.4598   22.7462 H   0  0  0  0  0  0
  -21.0834   -8.8746   19.8938 H   0  0  0  0  0  0
  -22.3680  -10.9666   19.6186 H   0  0  0  0  0  0
  -21.2004   -7.6157   23.9728 H   0  0  0  0  0  0
  -21.1480   -6.0528   25.9089 H   0  0  0  0  0  0
  -22.0606   -2.7611   23.2850 H   0  0  0  0  0  0
  -22.4115  -11.9841   22.4804 H   0  0  0  0  0  0
  -21.1123  -13.1225   22.2665 H   0  0  0  0  0  0
  -24.6681  -15.8384   20.5282 H   0  0  0  0  0  0
  -26.2920  -15.6185   20.1153 H   0  0  0  0  0  0
  -26.7114  -32.5530   23.1164 H   0  0  0  0  0  0
  -25.0040  -33.9787   25.0462 H   0  0  0  0  0  0
  -22.6894  -31.3091   21.4131 H   0  0  0  0  0  0
  -23.3768  -35.9630   23.3283 H   0  0  0  0  0  0
  -24.3582  -36.8957   22.2056 H   0  0  0  0  0  0
  -23.7223  -37.6505   23.6670 H   0  0  0  0  0  0
  -26.0456  -31.5956   20.5944 H   0  0  0  0  0  0
  -26.8177  -30.8820   21.9831 H   0  0  0  0  0  0
  -28.0990  -29.1015   21.1481 H   0  0  0  0  0  0
  -25.9989  -25.9484   19.0558 H   0  0  0  0  0  0
  -23.9614  -27.2802   19.0700 H   0  0  0  0  0  0
  -23.7116  -30.5966   19.4066 H   0  0  0  0  0  0
  -22.7295  -29.2418   19.8759 H   0  0  0  0  0  0
  -25.1286  -36.1984   25.0833 H   0  0  0  0  0  0
  -20.9946  -28.3251   24.1452 H   0  0  0  0  0  0
  -20.5669  -26.2275   23.3620 H   0  0  0  0  0  0
  -21.6644  -26.7452   22.1244 H   0  0  0  0  0  0
  -19.6921  -25.6299   21.1238 H   0  0  0  0  0  0
  -19.6706  -27.3195   20.6752 H   0  0  0  0  0  0
  -17.4209  -26.6728   21.3982 H   0  0  0  0  0  0
  -18.0279  -26.0058   22.8967 H   0  0  0  0  0  0
  -19.7919  -30.7256   24.2297 H   0  0  0  0  0  0
  -17.5005  -31.6272   24.5164 H   0  0  0  0  0  0
  -15.5345  -30.2993   23.7640 H   0  0  0  0  0  0
  -15.8667  -28.0820   22.7063 H   0  0  0  0  0  0
  -24.5943  -30.6986   25.7821 H   0  0  0  0  0  0
  -24.8845  -32.2840   26.4863 H   0  0  0  0  0  0
  -25.8084  -30.8940   27.0248 H   0  0  0  0  0  0
  -26.2819  -29.6800   24.1160 H   0  0  0  0  0  0
  -27.4046  -29.7273   25.4566 H   0  0  0  0  0  0
  -27.8661  -30.4344   23.9249 H   0  0  0  0  0  0
  -27.2690  -33.3626   26.2043 H   0  0  0  0  0  0
  -28.3846  -32.6846   25.0283 H   0  0  0  0  0  0
  -28.0713  -31.8430   26.5381 H   0  0  0  0  0  0
  -28.2608  -38.0115   24.7531 H   0  0  0  0  0  0
  -28.1099  -36.2646   24.6250 H   0  0  0  0  0  0
  -27.2320  -37.1436   25.8866 H   0  0  0  0  0  0
  -20.9283  -29.8727   21.6937 H   0  0  0  0  0  0
  -26.0194  -38.2876   24.1423 H   0  0  0  0  0  0
  -33.7348  -21.4071   19.5412 H   0  0  0  0  0  0
  -29.3366  -18.1718   18.6318 H   0  0  0  0  0  0
  -30.8747  -17.4202   18.9195 H   0  0  0  0  0  0
  -31.7714  -17.4777   21.6105 H   0  0  0  0  0  0
  -30.7249  -18.3340   22.7006 H   0  0  0  0  0  0
  -28.8097  -24.3217   21.2671 H   0  0  0  0  0  0
  -27.4783  -23.6984   20.2312 H   0  0  0  0  0  0
  -30.3318  -25.3454   18.1560 H   0  0  0  0  0  0
  -30.6282  -25.4204   19.9352 H   0  0  0  0  0  0
  -29.1369  -15.7194   18.8302 H   0  0  0  0  0  0
  -28.1842  -16.5335   20.0478 H   0  0  0  0  0  0
  -29.0198  -16.5589   22.4446 H   0  0  0  0  0  0
  -30.5546  -15.8198   22.8083 H   0  0  0  0  0  0
  -29.1036  -18.7403   21.0171 H   0  0  0  0  0  0
  -29.0517  -23.2909   18.3616 H   0  0  0  0  0  0
  -27.9664  -25.4268   18.4636 H   0  0  0  0  0  0
  -34.0580  -19.1820   19.6063 H   0  0  0  0  0  0
  -32.7810  -18.0121   19.7441 H   0  0  0  0  0  0
  -33.4438  -18.7973   21.1967 H   0  0  0  0  0  0
  -33.6433  -23.4813   18.7589 H   0  0  0  0  0  0
  -32.6035  -24.4705   19.7529 H   0  0  0  0  0  0
  -32.1658  -24.0783   18.0657 H   0  0  0  0  0  0
  -28.0461  -19.9768   19.6518 H   0  0  0  0  0  0
  -27.8383  -21.6587   19.4610 H   0  0  0  0  0  0
  -28.0227  -21.0065   21.0929 H   0  0  0  0  0  0
  1 25  1  0  0  0
  1 30  2  0  0  0
  1 89  1  0  0  0
  2  3  1  0  0  0
  2 25  1  0  0  0
  2 90  1  0  0  0
  2 91  1  0  0  0
  3  4  1  0  0  0
  3 92  1  0  0  0
  3 93  1  0  0  0
  4  5  1  0  0  0
  4 94  1  0  0  0
  4 95  1  0  0  0
  5  6  1  0  0  0
  5 26  1  0  0  0
  5 96  1  0  0  0
  6 25  1  0  0  0
  6 97  1  0  0  0
  6 98  1  0  0  0
  7  8  2  0  0  0
  7 26  1  0  0  0
  7 29  1  0  0  0
  8  9  1  0  0  0
  8 22  1  0  0  0
  9 10  1  0  0  0
  9 27  2  0  0  0
 10 11  2  0  0  0
 10 15  1  0  0  0
 11 12  1  0  0  0
 11 99  1  0  0  0
 12 13  2  0  0  0
 12100  1  0  0  0
 13 14  1  0  0  0
 13 31  1  0  0  0
 14 15  2  0  0  0
 14101  1  0  0  0
 15102  1  0  0  0
 16 17  2  0  0  0
 16 21  1  0  0  0
 16 31  1  0  0  0
 17 18  1  0  0  0
 17103  1  0  0  0
 18 19  2  0  0  0
 18104  1  0  0  0
 19 20  1  0  0  0
 19 24  1  0  0  0
 20 21  2  0  0  0
 20105  1  0  0  0
 21 23  1  0  0  0
 22 28  1  0  0  0
 22 32  2  0  0  0
 26 27  1  0  0  0
 28106  1  0  0  0
 28107  1  0  0  0
 29108  1  0  0  0
 29109  1  0  0  0
 33 34  1  0  0  0
 33 66  1  0  0  0
 33 70  2  0  0  0
 34 36  1  0  0  0
 34 59  1  0  0  0
 34110  1  0  0  0
 35 44  2  0  0  0
 35 45  1  0  0  0
 35 68  1  0  0  0
 36 56  1  0  0  0
 36111  1  0  0  0
 37 39  1  0  0  0
 37 47  1  0  0  0
 37 66  1  0  0  0
 37112  1  0  0  0
 38 43  2  0  0  0
 38 46  1  0  0  0
 38 47  1  0  0  0
 39 64  1  0  0  0
 39 67  2  0  0  0
 40 52  1  0  0  0
 40 53  2  0  0  0
 40 58  1  0  0  0
 41113  1  0  0  0
 41114  1  0  0  0
 41115  1  0  0  0
 41 48  1  0  0  0
 42 43  1  0  0  0
 42 66  1  0  0  0
 42116  1  0  0  0
 42117  1  0  0  0
 43 44  1  0  0  0
 44118  1  0  0  0
 45 46  2  0  0  0
 45119  1  0  0  0
 46120  1  0  0  0
 47121  1  0  0  0
 47122  1  0  0  0
 48 56  1  0  0  0
 48 65  1  0  0  0
 48123  1  0  0  0
 49 50  1  0  0  0
 49 53  1  0  0  0
 49 64  1  0  0  0
 49124  1  0  0  0
 50 51  1  0  0  0
 50125  1  0  0  0
 50126  1  0  0  0
 51 52  1  0  0  0
 51127  1  0  0  0
 51128  1  0  0  0
 52129  1  0  0  0
 52130  1  0  0  0
 53 54  1  0  0  0
 54 55  2  0  0  0
 54131  1  0  0  0
 55 57  1  0  0  0
 55132  1  0  0  0
 56 69  2  0  0  0
 57 58  2  0  0  0
 57133  1  0  0  0
 58134  1  0  0  0
 59 60  1  0  0  0
 59 61  1  0  0  0
 59 62  1  0  0  0
 60135  1  0  0  0
 60136  1  0  0  0
 60137  1  0  0  0
 61138  1  0  0  0
 61139  1  0  0  0
 61140  1  0  0  0
 62141  1  0  0  0
 62142  1  0  0  0
 62143  1  0  0  0
 63 65  1  0  0  0
 63144  1  0  0  0
 63145  1  0  0  0
 63146  1  0  0  0
 64147  1  0  0  0
 65148  1  0  0  0
 68 85  1  0  0  0
 71 74  2  0  0  0
 71 75  1  0  0  0
 71149  1  0  0  0
 72 74  1  0  0  0
 72 76  2  0  0  0
 72 83  1  0  0  0
 73 75  2  0  0  0
 73 76  1  0  0  0
 73 84  1  0  0  0
 74 86  1  0  0  0
 75 87  1  0  0  0
 76 88  1  0  0  0
 77 81  1  0  0  0
 77 83  1  0  0  0
 77150  1  0  0  0
 77151  1  0  0  0
 78 82  1  0  0  0
 78 83  1  0  0  0
 78152  1  0  0  0
 78153  1  0  0  0
 79 84  1  0  0  0
 79 85  1  0  0  0
 79154  1  0  0  0
 79155  1  0  0  0
 80 84  1  0  0  0
 80 85  1  0  0  0
 80156  1  0  0  0
 80157  1  0  0  0
 81 89  1  0  0  0
 81158  1  0  0  0
 81159  1  0  0  0
 82 89  1  0  0  0
 82160  1  0  0  0
 82161  1  0  0  0
 83162  1  0  0  0
 84163  1  0  0  0
 85164  1  0  0  0
 86165  1  0  0  0
 86166  1  0  0  0
 86167  1  0  0  0
 87168  1  0  0  0
 87169  1  0  0  0
 87170  1  0  0  0
 88171  1  0  0  0
 88172  1  0  0  0
 88173  1  0  0  0
M  ISO  4   1 100  68 101  85 101  89 100
M  END
> <chiral flag>
0

> <version>
0

> <s_m_source_file>
/data/baiqing/PycharmProjects/Reinvent-master-3.2/result/LINK_invent/BTK/process_docking_weight1_custom_sum_contain_oxygen_bond_distance_aromatic_linkinvent_7_9_3/rearranged_h_0165.sdf

> <i_m_source_file_index>
1

> <r_mmod_Potential_Energy-OPLS-2005>
232.976104736328

> <r_mmod_Stretch_Energy-OPLS-2005>
54.8562965393066

> <r_mmod_Bend_Energy-OPLS-2005>
149.142303466797

> <r_mmod_Torsional_Energy-OPLS-2005>
339.057769775391

> <r_mmod_Improper_Torsional_Energy-OPLS-2005>
7.85161018371582

> <r_mmod_Van_der_Waal_Energy-OPLS-2005>
180.319213867188

> <r_mmod_Electrostatic_Energy-OPLS-2005>
-321.948486328125

> <r_mmod_Solvation_Energy-OPLS-2005>
-194.371444702148

> <b_mmod_Minimization_Converged-OPLS-2005>
0

> <r_mmod_RMS_Derivative-OPLS-2005>
1.75223755836487

$$$$
1
                    3D
 Structure written by MMmdl.
170180  0  0  1  0            999 V2000
  -30.6165  -14.8651   20.4235 C   0  0  0  0  0  0
  -30.4202  -12.5359   19.4852 C   0  0  0  0  0  0
  -29.5074  -12.5138   18.2417 C   0  0  0  0  0  0
  -28.0386  -12.3229   18.6612 C   0  0  0  0  0  0
  -27.6272  -13.2518   19.8352 C   0  0  2  0  0  0
  -28.6735  -13.2755   20.9687 C   0  0  0  0  0  0
  -25.2463  -13.8242   20.5735 C   0  0  0  0  0  0
  -24.1777  -13.0453   20.9220 C   0  0  0  0  0  0
  -24.6394  -11.6936   20.8749 C   0  0  0  0  0  0
  -23.9082  -10.4300   21.0399 C   0  0  0  0  0  0
  -24.3635   -9.4218   21.9176 C   0  0  0  0  0  0
  -23.6308   -8.2252   22.0749 C   0  0  0  0  0  0
  -22.4289   -8.0286   21.3540 C   0  0  0  0  0  0
  -21.9922   -9.0261   20.4641 C   0  0  0  0  0  0
  -22.7252  -10.2141   20.3048 C   0  0  0  0  0  0
  -21.6859   -6.0737   22.5277 C   0  0  0  0  0  0
  -21.4018   -6.5640   23.8211 C   0  0  0  0  0  0
  -21.3666   -5.6793   24.9175 C   0  0  0  0  0  0
  -21.6048   -4.3056   24.7222 C   0  0  0  0  0  0
  -21.8821   -3.8147   23.4345 C   0  0  0  0  0  0
  -21.9197   -4.6964   22.3401 C   0  0  0  0  0  0
  -22.7800  -13.5220   21.1877 C   0  0  0  0  0  0
  -22.1662   -4.2148   21.0976 F   0  0  0  0  0  0
  -21.5631   -3.4538   25.7733 F   0  0  0  0  0  0
  -29.9514  -13.6486   20.3555 N   0  0  0  0  0  0
  -26.2883  -12.9478   20.3263 N   0  0  0  0  0  0
  -25.9329  -11.6602   20.5750 N   0  0  0  0  0  0
  -22.0459  -12.8201   22.0435 N   0  0  0  0  0  0
  -25.4162  -15.1968   20.4196 N   0  0  0  0  0  0
  -31.8293  -14.8454   20.1855 O   0  0  0  0  0  0
  -21.6653   -6.8881   21.4238 O   0  0  0  0  0  0
  -22.3475  -14.5520   20.6718 O   0  0  0  0  0  0
  -24.6403  -31.8477   23.1916 C   0  0  0  0  0  0
  -25.9191  -32.4711   23.8292 C   0  0  1  0  0  0
  -27.2101  -27.1724   20.1373 C   0  0  0  0  0  0
  -25.5955  -33.8517   24.2208 N   0  0  0  0  0  0
  -23.4407  -30.4702   21.5374 C   0  0  2  0  0  0
  -24.8865  -28.9052   20.1104 C   0  0  0  0  0  0
  -22.7546  -29.4571   22.4873 C   0  0  0  0  0  0
  -18.0303  -28.1392   22.8477 C   0  0  0  0  0  0
  -24.1491  -36.7265   23.2641 C   0  0  0  0  0  0
  -25.9952  -30.7324   21.3853 C   0  0  0  0  0  0
  -26.0648  -29.3483   20.7241 C   0  0  0  0  0  0
  -27.2296  -28.4979   20.7203 C   0  0  0  0  0  0
  -26.0031  -26.8221   19.4910 C   0  0  0  0  0  0
  -24.8661  -27.6537   19.4803 C   0  0  0  0  0  0
  -23.6632  -29.8040   20.1550 C   0  0  0  0  0  0
  -25.4122  -36.3040   24.0314 C   0  0  1  0  0  0
  -20.5913  -28.3716   23.1240 C   0  0  2  0  0  0
  -20.6787  -26.9422   22.5402 C   0  0  0  0  0  0
  -19.5760  -26.6379   21.5212 C   0  0  0  0  0  0
  -18.1942  -26.7931   22.1623 C   0  0  0  0  0  0
  -19.1558  -28.8871   23.2853 C   0  0  0  0  0  0
  -18.9476  -30.1469   23.8877 C   0  0  0  0  0  0
  -17.6473  -30.6588   24.0561 C   0  0  0  0  0  0
  -25.9073  -34.9416   23.5066 C   0  0  0  0  0  0
  -16.5364  -29.9081   23.6337 C   0  0  0  0  0  0
  -16.7289  -28.6501   23.0355 C   0  0  0  0  0  0
  -26.4522  -31.6568   25.0723 C   0  0  0  0  0  0
  -25.3713  -31.3757   26.1423 C   0  0  0  0  0  0
  -27.0382  -30.2962   24.6291 C   0  0  0  0  0  0
  -27.6049  -32.4333   25.7513 C   0  0  0  0  0  0
  -27.5576  -37.1790   24.8462 C   0  0  0  0  0  0
  -21.4243  -29.3051   22.3619 N   0  0  0  0  0  0
  -26.4288  -37.3749   23.9405 N   0  0  0  0  0  0
  -24.7120  -31.0367   22.0934 N   0  0  0  0  0  0
  -23.4207  -28.8112   23.3004 O   0  0  0  0  0  0
  -28.2691  -26.2061   20.1965 O   0  0  0  0  0  0
  -26.5652  -34.8907   22.4642 O   0  0  0  0  0  0
  -23.5532  -32.1339   23.7160 O   0  0  0  0  0  0
  -30.3901  -23.9694   20.3623 C   0  0  0  0  0  0
  -28.8816  -22.0458   20.2646 C   0  0  0  0  0  0
  -31.4381  -23.0440   20.4327 C   0  0  0  0  0  0
  -29.9680  -21.0365   20.3521 C   0  0  0  0  0  0
  -31.2726  -21.6472   20.4054 C   0  0  0  0  0  0
  -29.0677  -23.5251   20.2562 C   0  0  0  0  0  0
  -32.8728  -23.4711   20.5328 C   0  0  0  0  0  0
  -33.6434  -22.1921   20.2249 C   0  0  0  0  0  0
  -29.1022  -18.5009   21.3934 C   0  0  0  0  0  0
  -29.7729  -18.5384   19.0889 C   0  0  0  0  0  0
  -29.6004  -16.9623   21.5387 C   0  0  0  0  0  0
  -30.2991  -17.0257   19.1830 C   0  0  0  0  0  0
  -29.9051  -19.3849   20.3862 C   0  0  0  0  0  0
  -32.6770  -20.9980   20.4578 C   0  0  0  0  0  0
  -32.9841  -20.4263   21.8609 C   0  0  0  0  0  0
  -32.9763  -19.9689   19.3420 C   0  0  0  0  0  0
  -27.9553  -24.6970   20.0988 C   0  0  0  0  0  0
  -29.9307  -16.1119   20.3311 N   0  0  0  0  0  0
  -31.4598  -12.6521   19.1767 H   0  0  0  0  0  0
  -30.3744  -11.5843   20.0170 H   0  0  0  0  0  0
  -29.8098  -11.7162   17.5616 H   0  0  0  0  0  0
  -29.6142  -13.4483   17.6883 H   0  0  0  0  0  0
  -27.9174  -11.2796   18.9550 H   0  0  0  0  0  0
  -27.3784  -12.4752   17.8064 H   0  0  0  0  0  0
  -27.5927  -14.2571   19.4132 H   0  0  0  0  0  0
  -28.7435  -12.3066   21.4650 H   0  0  0  0  0  0
  -28.3920  -14.0010   21.7331 H   0  0  0  0  0  0
  -25.2777   -9.5703   22.4758 H   0  0  0  0  0  0
  -24.0019   -7.4648   22.7473 H   0  0  0  0  0  0
  -21.0853   -8.8781   19.8946 H   0  0  0  0  0  0
  -22.3705  -10.9683   19.6164 H   0  0  0  0  0  0
  -21.2003   -7.6146   23.9714 H   0  0  0  0  0  0
  -21.1489   -6.0521   25.9079 H   0  0  0  0  0  0
  -22.0591   -2.7606   23.2846 H   0  0  0  0  0  0
  -22.4094  -11.9870   22.4824 H   0  0  0  0  0  0
  -21.1068  -13.1203   22.2633 H   0  0  0  0  0  0
  -24.6556  -15.8557   20.5450 H   0  0  0  0  0  0
  -26.2800  -15.6391   20.1310 H   0  0  0  0  0  0
  -26.7255  -32.5321   23.1022 H   0  0  0  0  0  0
  -25.0077  -33.9638   25.0339 H   0  0  0  0  0  0
  -22.7414  -31.2955   21.3870 H   0  0  0  0  0  0
  -23.3754  -35.9595   23.3290 H   0  0  0  0  0  0
  -24.3579  -36.8911   22.2058 H   0  0  0  0  0  0
  -23.7243  -37.6458   23.6686 H   0  0  0  0  0  0
  -26.1485  -31.4897   20.6156 H   0  0  0  0  0  0
  -26.8668  -30.7785   22.0265 H   0  0  0  0  0  0
  -28.1290  -28.8323   21.2185 H   0  0  0  0  0  0
  -25.8961  -25.8688   18.9984 H   0  0  0  0  0  0
  -23.9649  -27.3096   18.9917 H   0  0  0  0  0  0
  -23.7978  -30.5803   19.4007 H   0  0  0  0  0  0
  -22.7780  -29.2455   19.8454 H   0  0  0  0  0  0
  -25.1309  -36.1873   25.0806 H   0  0  0  0  0  0
  -21.0010  -28.3305   24.1360 H   0  0  0  0  0  0
  -20.5678  -26.2331   23.3620 H   0  0  0  0  0  0
  -21.6653  -26.7428   22.1200 H   0  0  0  0  0  0
  -19.6920  -25.6284   21.1254 H   0  0  0  0  0  0
  -19.6697  -27.3178   20.6732 H   0  0  0  0  0  0
  -17.4211  -26.6679   21.4028 H   0  0  0  0  0  0
  -18.0344  -26.0077   22.9024 H   0  0  0  0  0  0
  -19.7952  -30.7291   24.2235 H   0  0  0  0  0  0
  -17.5026  -31.6268   24.5163 H   0  0  0  0  0  0
  -15.5362  -30.2975   23.7672 H   0  0  0  0  0  0
  -15.8691  -28.0811   22.7080 H   0  0  0  0  0  0
  -24.5889  -30.7108   25.7747 H   0  0  0  0  0  0
  -24.8909  -32.2941   26.4801 H   0  0  0  0  0  0
  -25.7999  -30.8959   27.0229 H   0  0  0  0  0  0
  -26.2995  -29.6691   24.1285 H   0  0  0  0  0  0
  -27.3982  -29.7253   25.4861 H   0  0  0  0  0  0
  -27.8909  -30.4194   23.9611 H   0  0  0  0  0  0
  -27.2631  -33.3641   26.2049 H   0  0  0  0  0  0
  -28.3887  -32.6882   25.0368 H   0  0  0  0  0  0
  -28.0688  -31.8491   26.5469 H   0  0  0  0  0  0
  -28.2582  -38.0098   24.7509 H   0  0  0  0  0  0
  -28.1085  -36.2625   24.6288 H   0  0  0  0  0  0
  -27.2296  -37.1434   25.8867 H   0  0  0  0  0  0
  -20.9443  -29.8773   21.6813 H   0  0  0  0  0  0
  -26.0156  -38.2816   24.1410 H   0  0  0  0  0  0
  -30.6054  -25.0290   20.3701 H   0  0  0  0  0  0
  -27.8681  -21.6760   20.1915 H   0  0  0  0  0  0
  -33.0760  -23.8187   21.5462 H   0  0  0  0  0  0
  -33.1113  -24.2744   19.8343 H   0  0  0  0  0  0
  -34.5874  -22.1199   20.7672 H   0  0  0  0  0  0
  -33.9095  -22.2439   19.1675 H   0  0  0  0  0  0
  -29.1561  -18.9650   22.3788 H   0  0  0  0  0  0
  -28.0455  -18.5212   21.1235 H   0  0  0  0  0  0
  -28.7330  -18.5483   18.7590 H   0  0  0  0  0  0
  -30.3279  -19.0355   18.2926 H   0  0  0  0  0  0
  -28.8620  -16.4193   22.1293 H   0  0  0  0  0  0
  -30.5016  -16.9747   22.1546 H   0  0  0  0  0  0
  -31.3875  -17.0739   19.1403 H   0  0  0  0  0  0
  -30.0096  -16.5125   18.2647 H   0  0  0  0  0  0
  -30.8910  -19.1432   20.7397 H   0  0  0  0  0  0
  -32.9064  -21.2028   22.6230 H   0  0  0  0  0  0
  -33.9995  -20.0309   21.9076 H   0  0  0  0  0  0
  -32.3213  -19.6210   22.1683 H   0  0  0  0  0  0
  -32.6651  -20.3402   18.3651 H   0  0  0  0  0  0
  -32.5199  -18.9972   19.4877 H   0  0  0  0  0  0
  -34.0476  -19.7707   19.2843 H   0  0  0  0  0  0
  -27.1658  -24.4777   20.8184 H   0  0  0  0  0  0
  -27.5270  -24.5149   19.1140 H   0  0  0  0  0  0
  1 25  1  0  0  0
  1 30  2  0  0  0
  1 88  1  0  0  0
  2  3  1  0  0  0
  2 25  1  0  0  0
  2 89  1  0  0  0
  2 90  1  0  0  0
  3  4  1  0  0  0
  3 91  1  0  0  0
  3 92  1  0  0  0
  4  5  1  0  0  0
  4 93  1  0  0  0
  4 94  1  0  0  0
  5  6  1  0  0  0
  5 26  1  0  0  0
  5 95  1  0  0  0
  6 25  1  0  0  0
  6 96  1  0  0  0
  6 97  1  0  0  0
  7  8  2  0  0  0
  7 26  1  0  0  0
  7 29  1  0  0  0
  8  9  1  0  0  0
  8 22  1  0  0  0
  9 10  1  0  0  0
  9 27  2  0  0  0
 10 11  2  0  0  0
 10 15  1  0  0  0
 11 12  1  0  0  0
 11 98  1  0  0  0
 12 13  2  0  0  0
 12 99  1  0  0  0
 13 14  1  0  0  0
 13 31  1  0  0  0
 14 15  2  0  0  0
 14100  1  0  0  0
 15101  1  0  0  0
 16 17  2  0  0  0
 16 21  1  0  0  0
 16 31  1  0  0  0
 17 18  1  0  0  0
 17102  1  0  0  0
 18 19  2  0  0  0
 18103  1  0  0  0
 19 20  1  0  0  0
 19 24  1  0  0  0
 20 21  2  0  0  0
 20104  1  0  0  0
 21 23  1  0  0  0
 22 28  1  0  0  0
 22 32  2  0  0  0
 26 27  1  0  0  0
 28105  1  0  0  0
 28106  1  0  0  0
 29107  1  0  0  0
 29108  1  0  0  0
 33 34  1  0  0  0
 33 66  1  0  0  0
 33 70  2  0  0  0
 34 36  1  0  0  0
 34 59  1  0  0  0
 34109  1  0  0  0
 35 44  2  0  0  0
 35 45  1  0  0  0
 35 68  1  0  0  0
 36 56  1  0  0  0
 36110  1  0  0  0
 37 39  1  0  0  0
 37 47  1  0  0  0
 37 66  1  0  0  0
 37111  1  0  0  0
 38 43  2  0  0  0
 38 46  1  0  0  0
 38 47  1  0  0  0
 39 64  1  0  0  0
 39 67  2  0  0  0
 40 52  1  0  0  0
 40 53  2  0  0  0
 40 58  1  0  0  0
 41112  1  0  0  0
 41113  1  0  0  0
 41114  1  0  0  0
 41 48  1  0  0  0
 42 43  1  0  0  0
 42 66  1  0  0  0
 42115  1  0  0  0
 42116  1  0  0  0
 43 44  1  0  0  0
 44117  1  0  0  0
 45 46  2  0  0  0
 45118  1  0  0  0
 46119  1  0  0  0
 47120  1  0  0  0
 47121  1  0  0  0
 48 56  1  0  0  0
 48 65  1  0  0  0
 48122  1  0  0  0
 49 50  1  0  0  0
 49 53  1  0  0  0
 49 64  1  0  0  0
 49123  1  0  0  0
 50 51  1  0  0  0
 50124  1  0  0  0
 50125  1  0  0  0
 51 52  1  0  0  0
 51126  1  0  0  0
 51127  1  0  0  0
 52128  1  0  0  0
 52129  1  0  0  0
 53 54  1  0  0  0
 54 55  2  0  0  0
 54130  1  0  0  0
 55 57  1  0  0  0
 55131  1  0  0  0
 56 69  2  0  0  0
 57 58  2  0  0  0
 57132  1  0  0  0
 58133  1  0  0  0
 59 60  1  0  0  0
 59 61  1  0  0  0
 59 62  1  0  0  0
 60134  1  0  0  0
 60135  1  0  0  0
 60136  1  0  0  0
 61137  1  0  0  0
 61138  1  0  0  0
 61139  1  0  0  0
 62140  1  0  0  0
 62141  1  0  0  0
 62142  1  0  0  0
 63 65  1  0  0  0
 63143  1  0  0  0
 63144  1  0  0  0
 63145  1  0  0  0
 64146  1  0  0  0
 65147  1  0  0  0
 68 87  1  0  0  0
 71 73  2  0  0  0
 71 76  1  0  0  0
 71148  1  0  0  0
 72 74  1  0  0  0
 72 76  2  0  0  0
 72149  1  0  0  0
 73 75  1  0  0  0
 73 77  1  0  0  0
 74 75  2  0  0  0
 74 83  1  0  0  0
 75 84  1  0  0  0
 76 87  1  0  0  0
 77 78  1  0  0  0
 77150  1  0  0  0
 77151  1  0  0  0
 78 84  1  0  0  0
 78152  1  0  0  0
 78153  1  0  0  0
 79 81  1  0  0  0
 79 83  1  0  0  0
 79154  1  0  0  0
 79155  1  0  0  0
 80 82  1  0  0  0
 80 83  1  0  0  0
 80156  1  0  0  0
 80157  1  0  0  0
 81 88  1  0  0  0
 81158  1  0  0  0
 81159  1  0  0  0
 82 88  1  0  0  0
 82160  1  0  0  0
 82161  1  0  0  0
 83162  1  0  0  0
 84 85  1  0  0  0
 84 86  1  0  0  0
 85163  1  0  0  0
 85164  1  0  0  0
 85165  1  0  0  0
 86166  1  0  0  0
 86167  1  0  0  0
 86168  1  0  0  0
 87169  1  0  0  0
 87170  1  0  0  0
M  ISO  4   1 100  68 101  87 101  88 100
M  END
> <chiral flag>
0

> <version>
0

> <s_m_source_file>
/data/baiqing/PycharmProjects/Reinvent-master-3.2/result/LINK_invent/BTK/process_docking_weight1_custom_sum_contain_oxygen_bond_distance_aromatic_linkinvent_7_9_3/rearranged_h_0165.sdf

> <i_m_source_file_index>
2

> <r_mmod_Potential_Energy-OPLS-2005>
675.868225097656

> <r_mmod_Stretch_Energy-OPLS-2005>
208.135223388672

> <r_mmod_Bend_Energy-OPLS-2005>
308.026672363281

> <r_mmod_Torsional_Energy-OPLS-2005>
352.246124267578

> <r_mmod_Improper_Torsional_Energy-OPLS-2005>
15.4595108032227

> <r_mmod_Van_der_Waal_Energy-OPLS-2005>
141.538070678711

> <r_mmod_Electrostatic_Energy-OPLS-2005>
-314.436492919922

> <r_mmod_Solvation_Energy-OPLS-2005>
-186.189483642578

> <b_mmod_Minimization_Converged-OPLS-2005>
0

> <r_mmod_RMS_Derivative-OPLS-2005>
0.802543759346008

$$$$
2
                    3D
 Structure written by MMmdl.
158167  0  0  1  0            999 V2000
  -30.5924  -14.7847   20.4483 C   0  0  0  0  0  0
  -30.4370  -12.4814   19.4754 C   0  0  0  0  0  0
  -29.5094  -12.4960   18.2385 C   0  0  0  0  0  0
  -28.0385  -12.3052   18.6575 C   0  0  0  0  0  0
  -27.6339  -13.2255   19.8386 C   0  0  2  0  0  0
  -28.6779  -13.1881   20.9762 C   0  0  0  0  0  0
  -25.2487  -13.8156   20.5687 C   0  0  0  0  0  0
  -24.1791  -13.0426   20.9251 C   0  0  0  0  0  0
  -24.6365  -11.6895   20.8772 C   0  0  0  0  0  0
  -23.9043  -10.4278   21.0430 C   0  0  0  0  0  0
  -24.3601   -9.4192   21.9202 C   0  0  0  0  0  0
  -23.6281   -8.2223   22.0753 C   0  0  0  0  0  0
  -22.4261   -8.0268   21.3544 C   0  0  0  0  0  0
  -21.9896   -9.0242   20.4649 C   0  0  0  0  0  0
  -22.7217  -10.2127   20.3078 C   0  0  0  0  0  0
  -21.6847   -6.0730   22.5278 C   0  0  0  0  0  0
  -21.4011   -6.5642   23.8213 C   0  0  0  0  0  0
  -21.3659   -5.6795   24.9180 C   0  0  0  0  0  0
  -21.6040   -4.3056   24.7233 C   0  0  0  0  0  0
  -21.8816   -3.8145   23.4354 C   0  0  0  0  0  0
  -21.9186   -4.6958   22.3407 C   0  0  0  0  0  0
  -22.7818  -13.5223   21.1885 C   0  0  0  0  0  0
  -22.1656   -4.2145   21.0988 F   0  0  0  0  0  0
  -21.5630   -3.4543   25.7747 F   0  0  0  0  0  0
  -29.9749  -13.5516   20.3913 N   0  0  0  0  0  0
  -26.2880  -12.9354   20.3203 N   0  0  0  0  0  0
  -25.9287  -11.6507   20.5733 N   0  0  0  0  0  0
  -22.0454  -12.8228   22.0431 N   0  0  0  0  0  0
  -25.4145  -15.1875   20.4012 N   0  0  0  0  0  0
  -31.7921  -14.8906   20.1649 O   0  0  0  0  0  0
  -21.6633   -6.8864   21.4236 O   0  0  0  0  0  0
  -22.3520  -14.5524   20.6699 O   0  0  0  0  0  0
  -24.6329  -31.8524   23.1964 C   0  0  0  0  0  0
  -25.9141  -32.4749   23.8325 C   0  0  1  0  0  0
  -27.2243  -27.2431   20.1451 C   0  0  0  0  0  0
  -25.5927  -33.8550   24.2248 N   0  0  0  0  0  0
  -23.4327  -30.4729   21.5392 C   0  0  2  0  0  0
  -24.8824  -28.9110   20.1179 C   0  0  0  0  0  0
  -22.7504  -29.4596   22.4896 C   0  0  0  0  0  0
  -18.0294  -28.1407   22.8470 C   0  0  0  0  0  0
  -24.1490  -36.7276   23.2639 C   0  0  0  0  0  0
  -25.9790  -30.7605   21.3802 C   0  0  0  0  0  0
  -26.0540  -29.3783   20.7278 C   0  0  0  0  0  0
  -27.2292  -28.5569   20.7275 C   0  0  0  0  0  0
  -26.0332  -26.8473   19.5010 C   0  0  0  0  0  0
  -24.8765  -27.6532   19.4952 C   0  0  0  0  0  0
  -23.6555  -29.8004   20.1589 C   0  0  0  0  0  0
  -25.4121  -36.3069   24.0323 C   0  0  1  0  0  0
  -20.5898  -28.3730   23.1251 C   0  0  2  0  0  0
  -20.6780  -26.9443   22.5408 C   0  0  0  0  0  0
  -19.5758  -26.6393   21.5206 C   0  0  0  0  0  0
  -18.1938  -26.7947   22.1618 C   0  0  0  0  0  0
  -19.1547  -28.8883   23.2853 C   0  0  0  0  0  0
  -18.9465  -30.1479   23.8880 C   0  0  0  0  0  0
  -17.6462  -30.6598   24.0574 C   0  0  0  0  0  0
  -25.9056  -34.9437   23.5090 C   0  0  0  0  0  0
  -16.5354  -29.9101   23.6337 C   0  0  0  0  0  0
  -16.7280  -28.6527   23.0344 C   0  0  0  0  0  0
  -26.4495  -31.6582   25.0724 C   0  0  0  0  0  0
  -25.3698  -31.3749   26.1431 C   0  0  0  0  0  0
  -27.0336  -30.2989   24.6235 C   0  0  0  0  0  0
  -27.6057  -32.4316   25.7490 C   0  0  0  0  0  0
  -27.5581  -37.1796   24.8459 C   0  0  0  0  0  0
  -21.4212  -29.3060   22.3623 N   0  0  0  0  0  0
  -26.4294  -37.3763   23.9403 N   0  0  0  0  0  0
  -24.7005  -31.0467   22.0957 N   0  0  0  0  0  0
  -23.4183  -28.8137   23.3010 O   0  0  0  0  0  0
  -28.3207  -26.3466   20.1572 O   0  0  0  0  0  0
  -26.5631  -34.8910   22.4663 O   0  0  0  0  0  0
  -23.5473  -32.1341   23.7251 O   0  0  0  0  0  0
  -29.3977  -24.0278   18.5787 C   0  0  0  0  0  0
  -30.0311  -23.0506   17.7996 C   0  0  0  0  0  0
  -29.0106  -22.3167   20.2938 C   0  0  0  0  0  0
  -29.6725  -21.2745   19.5023 C   0  0  0  0  0  0
  -28.8650  -23.7119   19.8384 C   0  0  0  0  0  0
  -30.1690  -21.7238   18.2455 C   0  0  0  0  0  0
  -30.1066  -17.3913   20.3953 C   0  0  0  0  0  0
  -31.5384  -17.8700   20.3344 C   0  0  0  0  0  0
  -31.4449  -19.4242   20.3965 C   0  0  0  0  0  0
  -30.0635  -19.7278   19.8274 C   0  0  2  0  0  0
  -27.8084  -18.5034   20.2391 C   0  0  0  0  0  0
  -28.1092  -24.9071   20.5790 C   0  0  0  0  0  0
  -29.2750  -18.5054   20.2483 N   0  0  0  0  0  0
  -29.7452  -16.0336   20.5408 N   0  3  0  0  0  0
  -30.8332  -20.8746   17.4248 F   0  0  0  0  0  0
  -31.4741  -12.6262   19.1665 H   0  0  0  0  0  0
  -30.4038  -11.5127   19.9740 H   0  0  0  0  0  0
  -29.8014  -11.7103   17.5398 H   0  0  0  0  0  0
  -29.6195  -13.4391   17.7007 H   0  0  0  0  0  0
  -27.9142  -11.2602   18.9465 H   0  0  0  0  0  0
  -27.3748  -12.4609   17.8061 H   0  0  0  0  0  0
  -27.6158  -14.2368   19.4318 H   0  0  0  0  0  0
  -28.7232  -12.1963   21.4285 H   0  0  0  0  0  0
  -28.4005  -13.8754   21.7776 H   0  0  0  0  0  0
  -25.2740   -9.5679   22.4776 H   0  0  0  0  0  0
  -23.9995   -7.4615   22.7468 H   0  0  0  0  0  0
  -21.0825   -8.8747   19.8958 H   0  0  0  0  0  0
  -22.3653  -10.9666   19.6197 H   0  0  0  0  0  0
  -21.2003   -7.6148   23.9713 H   0  0  0  0  0  0
  -21.1486   -6.0534   25.9082 H   0  0  0  0  0  0
  -22.0592   -2.7602   23.2857 H   0  0  0  0  0  0
  -22.4073  -11.9904   22.4854 H   0  0  0  0  0  0
  -21.1076  -13.1250   22.2636 H   0  0  0  0  0  0
  -24.5995  -15.7914   20.4399 H   0  0  0  0  0  0
  -26.1545  -15.5702   19.8302 H   0  0  0  0  0  0
  -26.7215  -32.5391   23.1072 H   0  0  0  0  0  0
  -25.0058  -33.9672   25.0390 H   0  0  0  0  0  0
  -22.7331  -31.2966   21.3859 H   0  0  0  0  0  0
  -23.3760  -35.9599   23.3298 H   0  0  0  0  0  0
  -24.3581  -36.8903   22.2051 H   0  0  0  0  0  0
  -23.7235  -37.6474   23.6667 H   0  0  0  0  0  0
  -26.1152  -31.5165   20.6061 H   0  0  0  0  0  0
  -26.8577  -30.8153   22.0122 H   0  0  0  0  0  0
  -28.1287  -28.9073   21.2149 H   0  0  0  0  0  0
  -25.9849  -25.8888   19.0058 H   0  0  0  0  0  0
  -23.9784  -27.2912   19.0127 H   0  0  0  0  0  0
  -23.7899  -30.5707   19.3989 H   0  0  0  0  0  0
  -22.7741  -29.2344   19.8523 H   0  0  0  0  0  0
  -25.1308  -36.1912   25.0815 H   0  0  0  0  0  0
  -20.9990  -28.3328   24.1371 H   0  0  0  0  0  0
  -20.5677  -26.2339   23.3614 H   0  0  0  0  0  0
  -21.6646  -26.7450   22.1204 H   0  0  0  0  0  0
  -19.6921  -25.6295   21.1254 H   0  0  0  0  0  0
  -19.6713  -27.3185   20.6720 H   0  0  0  0  0  0
  -17.4205  -26.6681   21.4033 H   0  0  0  0  0  0
  -18.0361  -26.0102   22.9029 H   0  0  0  0  0  0
  -19.7937  -30.7305   24.2240 H   0  0  0  0  0  0
  -17.5016  -31.6275   24.5190 H   0  0  0  0  0  0
  -15.5360  -30.3005   23.7663 H   0  0  0  0  0  0
  -15.8677  -28.0849   22.7059 H   0  0  0  0  0  0
  -24.5899  -30.7070   25.7755 H   0  0  0  0  0  0
  -24.8850  -32.2912   26.4796 H   0  0  0  0  0  0
  -25.7982  -30.8970   27.0245 H   0  0  0  0  0  0
  -26.2928  -29.6749   24.1216 H   0  0  0  0  0  0
  -27.3952  -29.7249   25.4777 H   0  0  0  0  0  0
  -27.8836  -30.4256   23.9527 H   0  0  0  0  0  0
  -27.2690  -33.3633   26.2042 H   0  0  0  0  0  0
  -28.3869  -32.6834   25.0311 H   0  0  0  0  0  0
  -28.0716  -31.8449   26.5414 H   0  0  0  0  0  0
  -28.2590  -38.0100   24.7508 H   0  0  0  0  0  0
  -28.1083  -36.2625   24.6290 H   0  0  0  0  0  0
  -27.2288  -37.1451   25.8859 H   0  0  0  0  0  0
  -20.9412  -29.8773   21.6809 H   0  0  0  0  0  0
  -26.0174  -38.2833   24.1422 H   0  0  0  0  0  0
  -29.3143  -25.0353   18.1970 H   0  0  0  0  0  0
  -30.4258  -23.3280   16.8330 H   0  0  0  0  0  0
  -28.6191  -22.0519   21.2660 H   0  0  0  0  0  0
  -31.9896  -17.5435   19.3961 H   0  0  0  0  0  0
  -32.1282  -17.4715   21.1593 H   0  0  0  0  0  0
  -32.2386  -19.8841   19.8092 H   0  0  0  0  0  0
  -31.5217  -19.7950   21.4186 H   0  0  0  0  0  0
  -30.1585  -19.3650   18.8071 H   0  0  0  0  0  0
  -27.4201  -17.7508   20.9232 H   0  0  0  0  0  0
  -27.4378  -18.2984   19.2347 H   0  0  0  0  0  0
  -27.4227  -19.4726   20.5540 H   0  0  0  0  0  0
  -28.3792  -24.8524   21.6346 H   0  0  0  0  0  0
  -27.0496  -24.6573   20.5531 H   0  0  0  0  0  0
  -28.7582  -15.9186   20.6842 H   0  0  0  0  0  0
  1 25  1  0  0  0
  1 30  2  0  0  0
  1 84  1  0  0  0
  2  3  1  0  0  0
  2 25  1  0  0  0
  2 86  1  0  0  0
  2 87  1  0  0  0
  3  4  1  0  0  0
  3 88  1  0  0  0
  3 89  1  0  0  0
  4  5  1  0  0  0
  4 90  1  0  0  0
  4 91  1  0  0  0
  5  6  1  0  0  0
  5 26  1  0  0  0
  5 92  1  0  0  0
  6 25  1  0  0  0
  6 93  1  0  0  0
  6 94  1  0  0  0
  7  8  2  0  0  0
  7 26  1  0  0  0
  7 29  1  0  0  0
  8  9  1  0  0  0
  8 22  1  0  0  0
  9 10  1  0  0  0
  9 27  2  0  0  0
 10 11  2  0  0  0
 10 15  1  0  0  0
 11 12  1  0  0  0
 11 95  1  0  0  0
 12 13  2  0  0  0
 12 96  1  0  0  0
 13 14  1  0  0  0
 13 31  1  0  0  0
 14 15  2  0  0  0
 14 97  1  0  0  0
 15 98  1  0  0  0
 16 17  2  0  0  0
 16 21  1  0  0  0
 16 31  1  0  0  0
 17 18  1  0  0  0
 17 99  1  0  0  0
 18 19  2  0  0  0
 18100  1  0  0  0
 19 20  1  0  0  0
 19 24  1  0  0  0
 20 21  2  0  0  0
 20101  1  0  0  0
 21 23  1  0  0  0
 22 28  1  0  0  0
 22 32  2  0  0  0
 26 27  1  0  0  0
 28102  1  0  0  0
 28103  1  0  0  0
 29104  1  0  0  0
 29105  1  0  0  0
 33 34  1  0  0  0
 33 66  1  0  0  0
 33 70  2  0  0  0
 34 36  1  0  0  0
 34 59  1  0  0  0
 34106  1  0  0  0
 35 44  2  0  0  0
 35 45  1  0  0  0
 35 68  1  0  0  0
 36 56  1  0  0  0
 36107  1  0  0  0
 37 39  1  0  0  0
 37 47  1  0  0  0
 37 66  1  0  0  0
 37108  1  0  0  0
 38 43  2  0  0  0
 38 46  1  0  0  0
 38 47  1  0  0  0
 39 64  1  0  0  0
 39 67  2  0  0  0
 40 52  1  0  0  0
 40 53  2  0  0  0
 40 58  1  0  0  0
 41109  1  0  0  0
 41110  1  0  0  0
 41111  1  0  0  0
 41 48  1  0  0  0
 42 43  1  0  0  0
 42 66  1  0  0  0
 42112  1  0  0  0
 42113  1  0  0  0
 43 44  1  0  0  0
 44114  1  0  0  0
 45 46  2  0  0  0
 45115  1  0  0  0
 46116  1  0  0  0
 47117  1  0  0  0
 47118  1  0  0  0
 48 56  1  0  0  0
 48 65  1  0  0  0
 48119  1  0  0  0
 49 50  1  0  0  0
 49 53  1  0  0  0
 49 64  1  0  0  0
 49120  1  0  0  0
 50 51  1  0  0  0
 50121  1  0  0  0
 50122  1  0  0  0
 51 52  1  0  0  0
 51123  1  0  0  0
 51124  1  0  0  0
 52125  1  0  0  0
 52126  1  0  0  0
 53 54  1  0  0  0
 54 55  2  0  0  0
 54127  1  0  0  0
 55 57  1  0  0  0
 55128  1  0  0  0
 56 69  2  0  0  0
 57 58  2  0  0  0
 57129  1  0  0  0
 58130  1  0  0  0
 59 60  1  0  0  0
 59 61  1  0  0  0
 59 62  1  0  0  0
 60131  1  0  0  0
 60132  1  0  0  0
 60133  1  0  0  0
 61134  1  0  0  0
 61135  1  0  0  0
 61136  1  0  0  0
 62137  1  0  0  0
 62138  1  0  0  0
 62139  1  0  0  0
 63 65  1  0  0  0
 63140  1  0  0  0
 63141  1  0  0  0
 63142  1  0  0  0
 64143  1  0  0  0
 65144  1  0  0  0
 68 82  1  0  0  0
 71 72  2  0  0  0
 71 75  1  0  0  0
 71145  1  0  0  0
 72 76  1  0  0  0
 72146  1  0  0  0
 73 74  1  0  0  0
 73 75  2  0  0  0
 73147  1  0  0  0
 74 76  2  0  0  0
 74 80  1  0  0  0
 75 82  1  0  0  0
 76 85  1  0  0  0
 77 78  1  0  0  0
 77 83  1  0  0  0
 77 84  2  0  0  0
 78 79  1  0  0  0
 78148  1  0  0  0
 78149  1  0  0  0
 79 80  1  0  0  0
 79150  1  0  0  0
 79151  1  0  0  0
 80 83  1  0  0  0
 80152  1  0  0  0
 81 83  1  0  0  0
 81153  1  0  0  0
 81154  1  0  0  0
 81155  1  0  0  0
 82156  1  0  0  0
 82157  1  0  0  0
 84158  1  0  0  0
M  CHG  1  84   1
M  ISO  4   1 100  68 101  82 101  84 100
M  END
> <chiral flag>
0

> <version>
0

> <s_m_source_file>
/data/baiqing/PycharmProjects/Reinvent-master-3.2/result/LINK_invent/BTK/process_docking_weight1_custom_sum_contain_oxygen_bond_distance_aromatic_linkinvent_7_9_3/rearranged_h_0165.sdf

> <i_m_source_file_index>
3

> <r_mmod_Potential_Energy-OPLS-2005>
218.652648925781

> <r_mmod_Stretch_Energy-OPLS-2005>
142.570114135742

> <r_mmod_Bend_Energy-OPLS-2005>
268.867065429688

> <r_mmod_Torsional_Energy-OPLS-2005>
254.216079711914

> <r_mmod_Improper_Torsional_Energy-OPLS-2005>
9.6749210357666

> <r_mmod_Van_der_Waal_Energy-OPLS-2005>
133.03498840332

> <r_mmod_Electrostatic_Energy-OPLS-2005>
-260.278472900391

> <r_mmod_Solvation_Energy-OPLS-2005>
-430.563690185547

> <b_mmod_Minimization_Converged-OPLS-2005>
0

> <r_mmod_RMS_Derivative-OPLS-2005>
2.14492726325989

$$$$
3
                    3D
 Structure written by MMmdl.
182192  0  0  1  0            999 V2000
  -30.7281  -14.4964   20.4447 C   0  0  0  0  0  0
  -30.4038  -12.2854   19.4441 C   0  0  0  0  0  0
  -29.5029  -12.4759   18.2079 C   0  0  0  0  0  0
  -28.0216  -12.3343   18.6117 C   0  0  0  0  0  0
  -27.6511  -13.1955   19.8484 C   0  0  2  0  0  0
  -28.6963  -13.0746   20.9788 C   0  0  0  0  0  0
  -25.2584  -13.8048   20.5648 C   0  0  0  0  0  0
  -24.1820  -13.0346   20.9109 C   0  0  0  0  0  0
  -24.6355  -11.6846   20.8601 C   0  0  0  0  0  0
  -23.8992  -10.4273   21.0332 C   0  0  0  0  0  0
  -24.3603   -9.4250   21.9137 C   0  0  0  0  0  0
  -23.6334   -8.2253   22.0729 C   0  0  0  0  0  0
  -22.4298   -8.0251   21.3525 C   0  0  0  0  0  0
  -21.9884   -9.0186   20.4608 C   0  0  0  0  0  0
  -22.7159  -10.2099   20.3005 C   0  0  0  0  0  0
  -21.6869   -6.0738   22.5272 C   0  0  0  0  0  0
  -21.3997   -6.5645   23.8202 C   0  0  0  0  0  0
  -21.3647   -5.6795   24.9153 C   0  0  0  0  0  0
  -21.6057   -4.3061   24.7194 C   0  0  0  0  0  0
  -21.8844   -3.8145   23.4314 C   0  0  0  0  0  0
  -21.9231   -4.6966   22.3379 C   0  0  0  0  0  0
  -22.7886  -13.5229   21.1819 C   0  0  0  0  0  0
  -22.1716   -4.2157   21.0944 F   0  0  0  0  0  0
  -21.5640   -3.4560   25.7698 F   0  0  0  0  0  0
  -30.0172  -13.3346   20.3948 N   0  0  0  0  0  0
  -26.2975  -12.9224   20.3216 N   0  0  0  0  0  0
  -25.9279  -11.6388   20.5607 N   0  0  0  0  0  0
  -22.0526  -12.8221   22.0370 N   0  0  0  0  0  0
  -25.4273  -15.1741   20.4211 N   0  0  0  0  0  0
  -31.9518  -14.5001   20.3022 O   0  0  0  0  0  0
  -21.6673   -6.8860   21.4215 O   0  0  0  0  0  0
  -22.3587  -14.5564   20.6717 O   0  0  0  0  0  0
  -24.6060  -31.8776   23.2116 C   0  0  0  0  0  0
  -25.8976  -32.4869   23.8417 C   0  0  1  0  0  0
  -27.2277  -27.4849   20.1073 C   0  0  0  0  0  0
  -25.5846  -33.8665   24.2369 N   0  0  0  0  0  0
  -23.3852  -30.4968   21.5550 C   0  0  2  0  0  0
  -24.8332  -28.9572   20.1274 C   0  0  0  0  0  0
  -22.7345  -29.4728   22.5100 C   0  0  0  0  0  0
  -18.0234  -28.1355   22.8534 C   0  0  0  0  0  0
  -24.1477  -36.7342   23.2632 C   0  0  0  0  0  0
  -25.9052  -30.8581   21.3524 C   0  0  0  0  0  0
  -25.9874  -29.4890   20.7167 C   0  0  0  0  0  0
  -27.1904  -28.7559   20.7112 C   0  0  0  0  0  0
  -26.0634  -26.9468   19.5310 C   0  0  0  0  0  0
  -24.8631  -27.6839   19.5293 C   0  0  0  0  0  0
  -23.5850  -29.8084   20.1777 C   0  0  0  0  0  0
  -25.4105  -36.3163   24.0348 C   0  0  1  0  0  0
  -20.5827  -28.3626   23.1374 C   0  0  2  0  0  0
  -20.6739  -26.9378   22.5440 C   0  0  0  0  0  0
  -19.5710  -26.6371   21.5249 C   0  0  0  0  0  0
  -18.1880  -26.7929   22.1643 C   0  0  0  0  0  0
  -19.1483  -28.8810   23.2962 C   0  0  0  0  0  0
  -18.9406  -30.1421   23.8961 C   0  0  0  0  0  0
  -17.6420  -30.6580   24.0544 C   0  0  0  0  0  0
  -25.9016  -34.9514   23.5163 C   0  0  0  0  0  0
  -16.5311  -29.9082   23.6321 C   0  0  0  0  0  0
  -16.7235  -28.6481   23.0380 C   0  0  0  0  0  0
  -26.4408  -31.6616   25.0723 C   0  0  0  0  0  0
  -25.3676  -31.3699   26.1476 C   0  0  0  0  0  0
  -27.0216  -30.3055   24.6059 C   0  0  0  0  0  0
  -27.6009  -32.4308   25.7497 C   0  0  0  0  0  0
  -27.5592  -37.1816   24.8459 C   0  0  0  0  0  0
  -21.4083  -29.3019   22.3812 N   0  0  0  0  0  0
  -26.4298  -37.3848   23.9412 N   0  0  0  0  0  0
  -24.6499  -31.0940   22.0995 N   0  0  0  0  0  0
  -23.4152  -28.8300   23.3149 O   0  0  0  0  0  0
  -28.3866  -26.7642   20.0342 O   0  0  0  0  0  0
  -26.5617  -34.8945   22.4738 O   0  0  0  0  0  0
  -23.5282  -32.1538   23.7536 O   0  0  0  0  0  0
  -32.3663  -18.1129   18.3748 C   0  0  0  0  0  0
  -33.0625  -19.2849   18.7225 C   0  0  0  0  0  0
  -31.3993  -17.5757   19.2486 C   0  0  0  0  0  0
  -31.1461  -18.2061   20.4899 C   0  0  0  0  0  0
  -32.8183  -19.9369   19.9518 C   0  0  0  0  0  0
  -31.8604  -19.3853   20.8524 C   0  0  0  0  0  0
  -30.0991  -17.6074   21.4364 C   0  0  0  0  0  0
  -30.6240  -16.3248   18.8427 C   0  0  0  0  0  0
  -33.5749  -24.6838   18.9572 C   0  0  0  0  0  0
  -32.2670  -24.3580   21.0844 C   0  0  0  0  0  0
  -32.2942  -25.1711   18.2679 C   0  0  0  0  0  0
  -31.0068  -24.9135   20.3739 C   0  0  0  0  0  0
  -33.2901  -23.7189   20.1179 C   0  0  1  0  0  0
  -29.2383  -16.4684   20.8390 C   0  0  1  0  0  0
  -31.5591  -20.0378   22.2027 C   0  0  0  0  0  0
  -28.0308  -17.0565   20.0734 C   0  0  0  0  0  0
  -33.5851  -21.2338   20.2325 C   0  0  0  0  0  0
  -30.1482  -26.3032   18.4871 C   0  0  0  0  0  0
  -29.3816  -27.3974   19.2405 C   0  0  0  0  0  0
  -30.0491  -15.5821   19.9833 N   0  0  0  0  0  0
  -31.3434  -25.8022   19.2190 N   0  3  2  0  0  0
  -32.8692  -22.3780   19.6363 N   0  3  0  0  0  0
  -31.4603  -12.3304   19.1704 H   0  0  0  0  0  0
  -30.2460  -11.2950   19.8793 H   0  0  0  0  0  0
  -29.7591  -11.7436   17.4418 H   0  0  0  0  0  0
  -29.6727  -13.4576   17.7651 H   0  0  0  0  0  0
  -27.8448  -11.2815   18.8256 H   0  0  0  0  0  0
  -27.3758  -12.5831   17.7699 H   0  0  0  0  0  0
  -27.6646  -14.2192   19.4925 H   0  0  0  0  0  0
  -28.6664  -12.0788   21.4199 H   0  0  0  0  0  0
  -28.4708  -13.7590   21.7941 H   0  0  0  0  0  0
  -25.2744   -9.5821   22.4699 H   0  0  0  0  0  0
  -24.0088   -7.4673   22.7473 H   0  0  0  0  0  0
  -21.0813   -8.8641   19.8940 H   0  0  0  0  0  0
  -22.3542  -10.9630   19.6128 H   0  0  0  0  0  0
  -21.1944   -7.6145   23.9697 H   0  0  0  0  0  0
  -21.1460   -6.0507   25.9062 H   0  0  0  0  0  0
  -22.0640   -2.7611   23.2766 H   0  0  0  0  0  0
  -22.4176  -11.9887   22.4733 H   0  0  0  0  0  0
  -21.1126  -13.1230   22.2551 H   0  0  0  0  0  0
  -24.6687  -15.8356   20.5385 H   0  0  0  0  0  0
  -26.3117  -15.6123   20.1964 H   0  0  0  0  0  0
  -26.7057  -32.5619   23.1219 H   0  0  0  0  0  0
  -24.9935  -33.9876   25.0461 H   0  0  0  0  0  0
  -22.6669  -31.3079   21.4146 H   0  0  0  0  0  0
  -23.3752  -35.9646   23.3287 H   0  0  0  0  0  0
  -24.3567  -36.8959   22.2036 H   0  0  0  0  0  0
  -23.7190  -37.6523   23.6663 H   0  0  0  0  0  0
  -26.0060  -31.6108   20.5705 H   0  0  0  0  0  0
  -26.8010  -30.9265   21.9613 H   0  0  0  0  0  0
  -28.0797  -29.1730   21.1607 H   0  0  0  0  0  0
  -26.0988  -25.9700   19.0653 H   0  0  0  0  0  0
  -23.9787  -27.2679   19.0713 H   0  0  0  0  0  0
  -23.6553  -30.5656   19.3975 H   0  0  0  0  0  0
  -22.7204  -29.1996   19.9124 H   0  0  0  0  0  0
  -25.1279  -36.2038   25.0840 H   0  0  0  0  0  0
  -20.9895  -28.3177   24.1518 H   0  0  0  0  0  0
  -20.5616  -26.2266   23.3609 H   0  0  0  0  0  0
  -21.6596  -26.7450   22.1213 H   0  0  0  0  0  0
  -19.6835  -25.6298   21.1242 H   0  0  0  0  0  0
  -19.6625  -27.3194   20.6771 H   0  0  0  0  0  0
  -17.4155  -26.6688   21.4031 H   0  0  0  0  0  0
  -18.0238  -26.0062   22.9006 H   0  0  0  0  0  0
  -19.7884  -30.7192   24.2370 H   0  0  0  0  0  0
  -17.4983  -31.6281   24.5098 H   0  0  0  0  0  0
  -15.5316  -30.2972   23.7663 H   0  0  0  0  0  0
  -15.8621  -28.0787   22.7125 H   0  0  0  0  0  0
  -24.5825  -30.7108   25.7759 H   0  0  0  0  0  0
  -24.8898  -32.2845   26.4987 H   0  0  0  0  0  0
  -25.7992  -30.8780   27.0200 H   0  0  0  0  0  0
  -26.2736  -29.6873   24.1087 H   0  0  0  0  0  0
  -27.3930  -29.7251   25.4508 H   0  0  0  0  0  0
  -27.8594  -30.4357   23.9216 H   0  0  0  0  0  0
  -27.2616  -33.3562   26.2177 H   0  0  0  0  0  0
  -28.3766  -32.6945   25.0293 H   0  0  0  0  0  0
  -28.0755  -31.8380   26.5342 H   0  0  0  0  0  0
  -28.2607  -38.0124   24.7573 H   0  0  0  0  0  0
  -28.1102  -36.2671   24.6215 H   0  0  0  0  0  0
  -27.2337  -37.1342   25.8867 H   0  0  0  0  0  0
  -20.9220  -29.8722   21.7033 H   0  0  0  0  0  0
  -26.0210  -38.2934   24.1394 H   0  0  0  0  0  0
  -32.5786  -17.6354   17.4281 H   0  0  0  0  0  0
  -33.7880  -19.6896   18.0246 H   0  0  0  0  0  0
  -29.4428  -18.3996   21.7977 H   0  0  0  0  0  0
  -30.6278  -17.2261   22.3092 H   0  0  0  0  0  0
  -31.2638  -15.6856   18.2276 H   0  0  0  0  0  0
  -29.8202  -16.6261   18.1723 H   0  0  0  0  0  0
  -34.1184  -25.5471   19.3456 H   0  0  0  0  0  0
  -34.2420  -24.2193   18.2283 H   0  0  0  0  0  0
  -31.9853  -23.6423   21.8613 H   0  0  0  0  0  0
  -32.7547  -25.1779   21.6147 H   0  0  0  0  0  0
  -31.8047  -24.3393   17.7611 H   0  0  0  0  0  0
  -32.5698  -25.8830   17.4898 H   0  0  0  0  0  0
  -30.4145  -25.4629   21.1078 H   0  0  0  0  0  0
  -30.3769  -24.0917   20.0351 H   0  0  0  0  0  0
  -34.2310  -23.5951   20.6582 H   0  0  0  0  0  0
  -28.8302  -15.9020   21.6768 H   0  0  0  0  0  0
  -30.6455  -20.6285   22.1377 H   0  0  0  0  0  0
  -32.3455  -20.6812   22.5821 H   0  0  0  0  0  0
  -31.4180  -19.2904   22.9819 H   0  0  0  0  0  0
  -28.3255  -17.8981   19.4447 H   0  0  0  0  0  0
  -27.2682  -17.4336   20.7562 H   0  0  0  0  0  0
  -27.5662  -16.3347   19.4085 H   0  0  0  0  0  0
  -34.5901  -21.1728   19.8134 H   0  0  0  0  0  0
  -33.7507  -21.3999   21.2932 H   0  0  0  0  0  0
  -30.4786  -26.7496   17.5476 H   0  0  0  0  0  0
  -29.4859  -25.4816   18.1970 H   0  0  0  0  0  0
  -28.9202  -28.0593   18.5057 H   0  0  0  0  0  0
  -30.0389  -28.0194   19.8530 H   0  0  0  0  0  0
  -31.8149  -26.6188   19.5902 H   0  0  0  0  0  0
  -33.0146  -22.3182   18.6410 H   0  0  0  0  0  0
  -31.8873  -22.2364   19.8022 H   0  0  0  0  0  0
  1 25  1  0  0  0
  1 30  2  0  0  0
  1 90  1  0  0  0
  2  3  1  0  0  0
  2 25  1  0  0  0
  2 93  1  0  0  0
  2 94  1  0  0  0
  3  4  1  0  0  0
  3 95  1  0  0  0
  3 96  1  0  0  0
  4  5  1  0  0  0
  4 97  1  0  0  0
  4 98  1  0  0  0
  5  6  1  0  0  0
  5 26  1  0  0  0
  5 99  1  0  0  0
  6 25  1  0  0  0
  6100  1  0  0  0
  6101  1  0  0  0
  7  8  2  0  0  0
  7 26  1  0  0  0
  7 29  1  0  0  0
  8  9  1  0  0  0
  8 22  1  0  0  0
  9 10  1  0  0  0
  9 27  2  0  0  0
 10 11  2  0  0  0
 10 15  1  0  0  0
 11 12  1  0  0  0
 11102  1  0  0  0
 12 13  2  0  0  0
 12103  1  0  0  0
 13 14  1  0  0  0
 13 31  1  0  0  0
 14 15  2  0  0  0
 14104  1  0  0  0
 15105  1  0  0  0
 16 17  2  0  0  0
 16 21  1  0  0  0
 16 31  1  0  0  0
 17 18  1  0  0  0
 17106  1  0  0  0
 18 19  2  0  0  0
 18107  1  0  0  0
 19 20  1  0  0  0
 19 24  1  0  0  0
 20 21  2  0  0  0
 20108  1  0  0  0
 21 23  1  0  0  0
 22 28  1  0  0  0
 22 32  2  0  0  0
 26 27  1  0  0  0
 28109  1  0  0  0
 28110  1  0  0  0
 29111  1  0  0  0
 29112  1  0  0  0
 33 34  1  0  0  0
 33 66  1  0  0  0
 33 70  2  0  0  0
 34 36  1  0  0  0
 34 59  1  0  0  0
 34113  1  0  0  0
 35 44  2  0  0  0
 35 45  1  0  0  0
 35 68  1  0  0  0
 36 56  1  0  0  0
 36114  1  0  0  0
 37 39  1  0  0  0
 37 47  1  0  0  0
 37 66  1  0  0  0
 37115  1  0  0  0
 38 43  2  0  0  0
 38 46  1  0  0  0
 38 47  1  0  0  0
 39 64  1  0  0  0
 39 67  2  0  0  0
 40 52  1  0  0  0
 40 53  2  0  0  0
 40 58  1  0  0  0
 41116  1  0  0  0
 41117  1  0  0  0
 41118  1  0  0  0
 41 48  1  0  0  0
 42 43  1  0  0  0
 42 66  1  0  0  0
 42119  1  0  0  0
 42120  1  0  0  0
 43 44  1  0  0  0
 44121  1  0  0  0
 45 46  2  0  0  0
 45122  1  0  0  0
 46123  1  0  0  0
 47124  1  0  0  0
 47125  1  0  0  0
 48 56  1  0  0  0
 48 65  1  0  0  0
 48126  1  0  0  0
 49 50  1  0  0  0
 49 53  1  0  0  0
 49 64  1  0  0  0
 49127  1  0  0  0
 50 51  1  0  0  0
 50128  1  0  0  0
 50129  1  0  0  0
 51 52  1  0  0  0
 51130  1  0  0  0
 51131  1  0  0  0
 52132  1  0  0  0
 52133  1  0  0  0
 53 54  1  0  0  0
 54 55  2  0  0  0
 54134  1  0  0  0
 55 57  1  0  0  0
 55135  1  0  0  0
 56 69  2  0  0  0
 57 58  2  0  0  0
 57136  1  0  0  0
 58137  1  0  0  0
 59 60  1  0  0  0
 59 61  1  0  0  0
 59 62  1  0  0  0
 60138  1  0  0  0
 60139  1  0  0  0
 60140  1  0  0  0
 61141  1  0  0  0
 61142  1  0  0  0
 61143  1  0  0  0
 62144  1  0  0  0
 62145  1  0  0  0
 62146  1  0  0  0
 63 65  1  0  0  0
 63147  1  0  0  0
 63148  1  0  0  0
 63149  1  0  0  0
 64150  1  0  0  0
 65151  1  0  0  0
 68 89  1  0  0  0
 71 72  2  0  0  0
 71 73  1  0  0  0
 71152  1  0  0  0
 72 75  1  0  0  0
 72153  1  0  0  0
 73 74  2  0  0  0
 73 78  1  0  0  0
 74 76  1  0  0  0
 74 77  1  0  0  0
 75 76  2  0  0  0
 75 87  1  0  0  0
 76 85  1  0  0  0
 77 84  1  0  0  0
 77154  1  0  0  0
 77155  1  0  0  0
 78 90  1  0  0  0
 78156  1  0  0  0
 78157  1  0  0  0
 79 81  1  0  0  0
 79 83  1  0  0  0
 79158  1  0  0  0
 79159  1  0  0  0
 80 82  1  0  0  0
 80 83  1  0  0  0
 80160  1  0  0  0
 80161  1  0  0  0
 81 91  1  0  0  0
 81162  1  0  0  0
 81163  1  0  0  0
 82 91  1  0  0  0
 82164  1  0  0  0
 82165  1  0  0  0
 83 92  1  0  0  0
 83166  1  0  0  0
 84 86  1  0  0  0
 84 90  1  0  0  0
 84167  1  0  0  0
 85168  1  0  0  0
 85169  1  0  0  0
 85170  1  0  0  0
 86171  1  0  0  0
 86172  1  0  0  0
 86173  1  0  0  0
 87 92  1  0  0  0
 87174  1  0  0  0
 87175  1  0  0  0
 88 89  1  0  0  0
 88176  1  0  0  0
 88177  1  0  0  0
 88 91  1  0  0  0
 89178  1  0  0  0
 89179  1  0  0  0
 91180  1  0  0  0
 92181  1  0  0  0
 92182  1  0  0  0
M  CHG  2  91   1  92   1
M  ISO  4   1 100  68 101  89 101  90 100
M  END
> <chiral flag>
0

> <version>
0

> <s_m_source_file>
/data/baiqing/PycharmProjects/Reinvent-master-3.2/result/LINK_invent/BTK/process_docking_weight1_custom_sum_contain_oxygen_bond_distance_aromatic_linkinvent_7_9_3/rearranged_h_0165.sdf

> <i_m_source_file_index>
4

> <r_mmod_Potential_Energy-OPLS-2005>
-39.715145111084

> <r_mmod_Stretch_Energy-OPLS-2005>
41.1404724121094

> <r_mmod_Bend_Energy-OPLS-2005>
108.617401123047

> <r_mmod_Torsional_Energy-OPLS-2005>
386.034637451172

> <r_mmod_Improper_Torsional_Energy-OPLS-2005>
26.6688251495361

> <r_mmod_Van_der_Waal_Energy-OPLS-2005>
169.314880371094

> <r_mmod_Electrostatic_Energy-OPLS-2005>
144.093200683594

> <r_mmod_Solvation_Energy-OPLS-2005>
-945.427429199219

> <b_mmod_Minimization_Converged-OPLS-2005>
0

> <r_mmod_RMS_Derivative-OPLS-2005>
5.42066621780396

$$$$
4
                    3D
 Structure written by MMmdl.
166175  0  0  1  0            999 V2000
  -30.6904  -14.7482   20.4612 C   0  0  0  0  0  0
  -30.4083  -12.4757   19.4588 C   0  0  0  0  0  0
  -29.4903  -12.5008   18.2221 C   0  0  0  0  0  0
  -28.0218  -12.3261   18.6492 C   0  0  0  0  0  0
  -27.6312  -13.2396   19.8427 C   0  0  2  0  0  0
  -28.6860  -13.2067   20.9693 C   0  0  0  0  0  0
  -25.2467  -13.8216   20.5716 C   0  0  0  0  0  0
  -24.1774  -13.0445   20.9228 C   0  0  0  0  0  0
  -24.6383  -11.6928   20.8770 C   0  0  0  0  0  0
  -23.9071  -10.4296   21.0418 C   0  0  0  0  0  0
  -24.3624   -9.4208   21.9190 C   0  0  0  0  0  0
  -23.6300   -8.2242   22.0754 C   0  0  0  0  0  0
  -22.4283   -8.0280   21.3544 C   0  0  0  0  0  0
  -21.9920   -9.0254   20.4647 C   0  0  0  0  0  0
  -22.7247  -10.2135   20.3061 C   0  0  0  0  0  0
  -21.6856   -6.0736   22.5277 C   0  0  0  0  0  0
  -21.4017   -6.5639   23.8209 C   0  0  0  0  0  0
  -21.3661   -5.6793   24.9171 C   0  0  0  0  0  0
  -21.6046   -4.3055   24.7225 C   0  0  0  0  0  0
  -21.8820   -3.8146   23.4347 C   0  0  0  0  0  0
  -21.9197   -4.6963   22.3403 C   0  0  0  0  0  0
  -22.7793  -13.5214   21.1880 C   0  0  0  0  0  0
  -22.1664   -4.2149   21.0981 F   0  0  0  0  0  0
  -21.5631   -3.4538   25.7739 F   0  0  0  0  0  0
  -29.9627  -13.5777   20.3506 N   0  0  0  0  0  0
  -26.2896  -12.9440   20.3309 N   0  0  0  0  0  0
  -25.9317  -11.6574   20.5790 N   0  0  0  0  0  0
  -22.0452  -12.8191   22.0437 N   0  0  0  0  0  0
  -25.4126  -15.1935   20.4094 N   0  0  0  0  0  0
  -31.9026  -14.6635   20.2385 O   0  0  0  0  0  0
  -21.6643   -6.8880   21.4240 O   0  0  0  0  0  0
  -22.3470  -14.5516   20.6727 O   0  0  0  0  0  0
  -24.6314  -31.8550   23.1984 C   0  0  0  0  0  0
  -25.9141  -32.4755   23.8331 C   0  0  1  0  0  0
  -27.2175  -27.2625   20.1110 C   0  0  0  0  0  0
  -25.5932  -33.8557   24.2252 N   0  0  0  0  0  0
  -23.4276  -30.4792   21.5417 C   0  0  2  0  0  0
  -24.8723  -28.9292   20.1065 C   0  0  0  0  0  0
  -22.7500  -29.4608   22.4903 C   0  0  0  0  0  0
  -18.0290  -28.1387   22.8485 C   0  0  0  0  0  0
  -24.1489  -36.7284   23.2641 C   0  0  0  0  0  0
  -25.9745  -30.7680   21.3778 C   0  0  0  0  0  0
  -26.0448  -29.3919   20.7153 C   0  0  0  0  0  0
  -27.2165  -28.5689   20.7104 C   0  0  0  0  0  0
  -26.0099  -26.8594   19.4962 C   0  0  0  0  0  0
  -24.8596  -27.6704   19.4895 C   0  0  0  0  0  0
  -23.6440  -29.8157   20.1569 C   0  0  0  0  0  0
  -25.4118  -36.3071   24.0324 C   0  0  1  0  0  0
  -20.5895  -28.3703   23.1262 C   0  0  2  0  0  0
  -20.6777  -26.9418   22.5407 C   0  0  0  0  0  0
  -19.5756  -26.6385   21.5211 C   0  0  0  0  0  0
  -18.1935  -26.7931   22.1621 C   0  0  0  0  0  0
  -19.1543  -28.8859   23.2872 C   0  0  0  0  0  0
  -18.9468  -30.1457   23.8896 C   0  0  0  0  0  0
  -17.6467  -30.6590   24.0561 C   0  0  0  0  0  0
  -25.9057  -34.9442   23.5093 C   0  0  0  0  0  0
  -16.5357  -29.9088   23.6329 C   0  0  0  0  0  0
  -16.7276  -28.6501   23.0358 C   0  0  0  0  0  0
  -26.4502  -31.6586   25.0727 C   0  0  0  0  0  0
  -25.3717  -31.3738   26.1440 C   0  0  0  0  0  0
  -27.0357  -30.3003   24.6230 C   0  0  0  0  0  0
  -27.6052  -32.4330   25.7502 C   0  0  0  0  0  0
  -27.5579  -37.1798   24.8463 C   0  0  0  0  0  0
  -21.4206  -29.3050   22.3648 N   0  0  0  0  0  0
  -26.4293  -37.3771   23.9405 N   0  0  0  0  0  0
  -24.6969  -31.0519   22.0954 N   0  0  0  0  0  0
  -23.4200  -28.8143   23.3001 O   0  0  0  0  0  0
  -28.3170  -26.3756   20.2076 O   0  0  0  0  0  0
  -26.5637  -34.8915   22.4665 O   0  0  0  0  0  0
  -23.5463  -32.1368   23.7282 O   0  0  0  0  0  0
  -27.9130  -22.6099   19.1921 C   0  0  0  0  0  0
  -29.4802  -23.2076   20.8723 C   0  0  0  0  0  0
  -29.0839  -20.7408   20.4049 C   0  0  0  0  0  0
  -28.5773  -23.6661   19.8785 C   0  0  0  0  0  0
  -28.1444  -21.2102   19.4285 C   0  0  0  0  0  0
  -29.7261  -21.8100   21.1303 C   0  0  0  0  0  0
  -28.4042  -18.0486   20.7797 C   0  0  0  0  0  0
  -30.4593  -18.5733   19.6311 C   0  0  0  0  0  0
  -28.9410  -16.5874   21.1563 C   0  0  0  0  0  0
  -31.0436  -17.1678   20.0303 C   0  0  0  0  0  0
  -29.4772  -19.1854   20.6513 C   0  0  0  0  0  0
  -27.3688  -20.2344   18.5615 C   0  0  0  0  0  0
  -30.7542  -21.4907   22.2044 C   0  0  0  0  0  0
  -29.7667  -25.4832   18.5546 C   0  0  0  0  0  0
  -28.4839  -25.1714   19.3345 C   0  0  2  0  0  0
  -30.1182  -16.0409   20.4067 N   0  0  0  0  0  0
  -31.4478  -12.5705   19.1410 H   0  0  0  0  0  0
  -30.3462  -11.5140   19.9704 H   0  0  0  0  0  0
  -29.7724  -11.7135   17.5217 H   0  0  0  0  0  0
  -29.6117  -13.4454   17.6892 H   0  0  0  0  0  0
  -27.8876  -11.2802   18.9274 H   0  0  0  0  0  0
  -27.3567  -12.5019   17.8030 H   0  0  0  0  0  0
  -27.6129  -14.2527   19.4407 H   0  0  0  0  0  0
  -28.7450  -12.2120   21.4132 H   0  0  0  0  0  0
  -28.4276  -13.8789   21.7865 H   0  0  0  0  0  0
  -25.2769   -9.5680   22.4763 H   0  0  0  0  0  0
  -24.0012   -7.4630   22.7464 H   0  0  0  0  0  0
  -21.0859   -8.8769   19.8944 H   0  0  0  0  0  0
  -22.3708  -10.9674   19.6168 H   0  0  0  0  0  0
  -21.2005   -7.6146   23.9712 H   0  0  0  0  0  0
  -21.1483   -6.0523   25.9075 H   0  0  0  0  0  0
  -22.0599   -2.7609   23.2846 H   0  0  0  0  0  0
  -22.4091  -11.9862   22.4825 H   0  0  0  0  0  0
  -21.1062  -13.1187   22.2643 H   0  0  0  0  0  0
  -24.6445  -15.8460   20.5220 H   0  0  0  0  0  0
  -26.2615  -15.6337   20.0802 H   0  0  0  0  0  0
  -26.7207  -32.5403   23.1073 H   0  0  0  0  0  0
  -25.0058  -33.9693   25.0383 H   0  0  0  0  0  0
  -22.7245  -31.3019   21.3968 H   0  0  0  0  0  0
  -23.3757  -35.9610   23.3300 H   0  0  0  0  0  0
  -24.3575  -36.8913   22.2056 H   0  0  0  0  0  0
  -23.7237  -37.6479   23.6671 H   0  0  0  0  0  0
  -26.1153  -31.5311   20.6109 H   0  0  0  0  0  0
  -26.8513  -30.8130   22.0126 H   0  0  0  0  0  0
  -28.1137  -28.9172   21.2021 H   0  0  0  0  0  0
  -25.8931  -25.8811   19.0589 H   0  0  0  0  0  0
  -23.9545  -27.3023   19.0266 H   0  0  0  0  0  0
  -23.7680  -30.5924   19.4016 H   0  0  0  0  0  0
  -22.7622  -29.2495   19.8518 H   0  0  0  0  0  0
  -25.1302  -36.1920   25.0818 H   0  0  0  0  0  0
  -20.9989  -28.3288   24.1382 H   0  0  0  0  0  0
  -20.5671  -26.2316   23.3615 H   0  0  0  0  0  0
  -21.6645  -26.7435   22.1207 H   0  0  0  0  0  0
  -19.6916  -25.6293   21.1245 H   0  0  0  0  0  0
  -19.6693  -27.3189   20.6735 H   0  0  0  0  0  0
  -17.4202  -26.6677   21.4025 H   0  0  0  0  0  0
  -18.0336  -26.0073   22.9017 H   0  0  0  0  0  0
  -19.7943  -30.7272   24.2271 H   0  0  0  0  0  0
  -17.5021  -31.6271   24.5164 H   0  0  0  0  0  0
  -15.5358  -30.2992   23.7653 H   0  0  0  0  0  0
  -15.8676  -28.0816   22.7082 H   0  0  0  0  0  0
  -24.5905  -30.7074   25.7764 H   0  0  0  0  0  0
  -24.8894  -32.2905   26.4843 H   0  0  0  0  0  0
  -25.8027  -30.8931   27.0233 H   0  0  0  0  0  0
  -26.2949  -29.6744   24.1244 H   0  0  0  0  0  0
  -27.4017  -29.7277   25.4764 H   0  0  0  0  0  0
  -27.8834  -30.4273   23.9493 H   0  0  0  0  0  0
  -27.2660  -33.3635   26.2068 H   0  0  0  0  0  0
  -28.3870  -32.6885   25.0337 H   0  0  0  0  0  0
  -28.0716  -31.8467   26.5430 H   0  0  0  0  0  0
  -28.2597  -38.0095   24.7515 H   0  0  0  0  0  0
  -28.1076  -36.2628   24.6289 H   0  0  0  0  0  0
  -27.2295  -37.1447   25.8866 H   0  0  0  0  0  0
  -20.9386  -29.8777   21.6857 H   0  0  0  0  0  0
  -26.0172  -38.2842   24.1413 H   0  0  0  0  0  0
  -27.2315  -22.8873   18.4001 H   0  0  0  0  0  0
  -30.0452  -23.9535   21.4146 H   0  0  0  0  0  0
  -27.6604  -18.3479   21.5191 H   0  0  0  0  0  0
  -27.8601  -17.9505   19.8427 H   0  0  0  0  0  0
  -29.9851  -18.4983   18.6530 H   0  0  0  0  0  0
  -31.2939  -19.2629   19.4964 H   0  0  0  0  0  0
  -28.1023  -15.9043   21.0573 H   0  0  0  0  0  0
  -29.2074  -16.5781   22.2142 H   0  0  0  0  0  0
  -31.7267  -17.3141   20.8689 H   0  0  0  0  0  0
  -31.6699  -16.8577   19.1914 H   0  0  0  0  0  0
  -29.9861  -19.1574   21.6120 H   0  0  0  0  0  0
  -26.8603  -20.7427   17.7418 H   0  0  0  0  0  0
  -26.6063  -19.7253   19.1509 H   0  0  0  0  0  0
  -28.0259  -19.4935   18.1102 H   0  0  0  0  0  0
  -31.2155  -22.3935   22.6057 H   0  0  0  0  0  0
  -31.5543  -20.8679   21.8038 H   0  0  0  0  0  0
  -30.2852  -20.9672   23.0384 H   0  0  0  0  0  0
  -29.7109  -26.4626   18.0785 H   0  0  0  0  0  0
  -29.9386  -24.7449   17.7707 H   0  0  0  0  0  0
  -30.6381  -25.4809   19.2098 H   0  0  0  0  0  0
  -27.7189  -25.1554   18.5642 H   0  0  0  0  0  0
  1 25  1  0  0  0
  1 30  2  0  0  0
  1 86  1  0  0  0
  2  3  1  0  0  0
  2 25  1  0  0  0
  2 87  1  0  0  0
  2 88  1  0  0  0
  3  4  1  0  0  0
  3 89  1  0  0  0
  3 90  1  0  0  0
  4  5  1  0  0  0
  4 91  1  0  0  0
  4 92  1  0  0  0
  5  6  1  0  0  0
  5 26  1  0  0  0
  5 93  1  0  0  0
  6 25  1  0  0  0
  6 94  1  0  0  0
  6 95  1  0  0  0
  7  8  2  0  0  0
  7 26  1  0  0  0
  7 29  1  0  0  0
  8  9  1  0  0  0
  8 22  1  0  0  0
  9 10  1  0  0  0
  9 27  2  0  0  0
 10 11  2  0  0  0
 10 15  1  0  0  0
 11 12  1  0  0  0
 11 96  1  0  0  0
 12 13  2  0  0  0
 12 97  1  0  0  0
 13 14  1  0  0  0
 13 31  1  0  0  0
 14 15  2  0  0  0
 14 98  1  0  0  0
 15 99  1  0  0  0
 16 17  2  0  0  0
 16 21  1  0  0  0
 16 31  1  0  0  0
 17 18  1  0  0  0
 17100  1  0  0  0
 18 19  2  0  0  0
 18101  1  0  0  0
 19 20  1  0  0  0
 19 24  1  0  0  0
 20 21  2  0  0  0
 20102  1  0  0  0
 21 23  1  0  0  0
 22 28  1  0  0  0
 22 32  2  0  0  0
 26 27  1  0  0  0
 28103  1  0  0  0
 28104  1  0  0  0
 29105  1  0  0  0
 29106  1  0  0  0
 33 34  1  0  0  0
 33 66  1  0  0  0
 33 70  2  0  0  0
 34 36  1  0  0  0
 34 59  1  0  0  0
 34107  1  0  0  0
 35 44  2  0  0  0
 35 45  1  0  0  0
 35 68  1  0  0  0
 36 56  1  0  0  0
 36108  1  0  0  0
 37 39  1  0  0  0
 37 47  1  0  0  0
 37 66  1  0  0  0
 37109  1  0  0  0
 38 43  2  0  0  0
 38 46  1  0  0  0
 38 47  1  0  0  0
 39 64  1  0  0  0
 39 67  2  0  0  0
 40 52  1  0  0  0
 40 53  2  0  0  0
 40 58  1  0  0  0
 41110  1  0  0  0
 41111  1  0  0  0
 41112  1  0  0  0
 41 48  1  0  0  0
 42 43  1  0  0  0
 42 66  1  0  0  0
 42113  1  0  0  0
 42114  1  0  0  0
 43 44  1  0  0  0
 44115  1  0  0  0
 45 46  2  0  0  0
 45116  1  0  0  0
 46117  1  0  0  0
 47118  1  0  0  0
 47119  1  0  0  0
 48 56  1  0  0  0
 48 65  1  0  0  0
 48120  1  0  0  0
 49 50  1  0  0  0
 49 53  1  0  0  0
 49 64  1  0  0  0
 49121  1  0  0  0
 50 51  1  0  0  0
 50122  1  0  0  0
 50123  1  0  0  0
 51 52  1  0  0  0
 51124  1  0  0  0
 51125  1  0  0  0
 52126  1  0  0  0
 52127  1  0  0  0
 53 54  1  0  0  0
 54 55  2  0  0  0
 54128  1  0  0  0
 55 57  1  0  0  0
 55129  1  0  0  0
 56 69  2  0  0  0
 57 58  2  0  0  0
 57130  1  0  0  0
 58131  1  0  0  0
 59 60  1  0  0  0
 59 61  1  0  0  0
 59 62  1  0  0  0
 60132  1  0  0  0
 60133  1  0  0  0
 60134  1  0  0  0
 61135  1  0  0  0
 61136  1  0  0  0
 61137  1  0  0  0
 62138  1  0  0  0
 62139  1  0  0  0
 62140  1  0  0  0
 63 65  1  0  0  0
 63141  1  0  0  0
 63142  1  0  0  0
 63143  1  0  0  0
 64144  1  0  0  0
 65145  1  0  0  0
 68 85  1  0  0  0
 71 74  2  0  0  0
 71 75  1  0  0  0
 71146  1  0  0  0
 72 74  1  0  0  0
 72 76  2  0  0  0
 72147  1  0  0  0
 73 75  2  0  0  0
 73 76  1  0  0  0
 73 81  1  0  0  0
 74 85  1  0  0  0
 75 82  1  0  0  0
 76 83  1  0  0  0
 77 79  1  0  0  0
 77 81  1  0  0  0
 77148  1  0  0  0
 77149  1  0  0  0
 78 80  1  0  0  0
 78 81  1  0  0  0
 78150  1  0  0  0
 78151  1  0  0  0
 79 86  1  0  0  0
 79152  1  0  0  0
 79153  1  0  0  0
 80 86  1  0  0  0
 80154  1  0  0  0
 80155  1  0  0  0
 81156  1  0  0  0
 82157  1  0  0  0
 82158  1  0  0  0
 82159  1  0  0  0
 83160  1  0  0  0
 83161  1  0  0  0
 83162  1  0  0  0
 84163  1  0  0  0
 84164  1  0  0  0
 84165  1  0  0  0
 84 85  1  0  0  0
 85166  1  0  0  0
M  ISO  4   1 100  68 101  85 101  86 100
M  END
> <chiral flag>
0

> <version>
0

> <s_m_source_file>
/data/baiqing/PycharmProjects/Reinvent-master-3.2/result/LINK_invent/BTK/process_docking_weight1_custom_sum_contain_oxygen_bond_distance_aromatic_linkinvent_7_9_3/rearranged_h_0165.sdf

> <i_m_source_file_index>
5

> <r_mmod_Potential_Energy-OPLS-2005>
434.779907226562

> <r_mmod_Stretch_Energy-OPLS-2005>
128.392349243164

> <r_mmod_Bend_Energy-OPLS-2005>
224.845199584961

> <r_mmod_Torsional_Energy-OPLS-2005>
313.702606201172

> <r_mmod_Improper_Torsional_Energy-OPLS-2005>
15.293137550354

> <r_mmod_Van_der_Waal_Energy-OPLS-2005>
154.55924987793

> <r_mmod_Electrostatic_Energy-OPLS-2005>
-302.163116455078

> <r_mmod_Solvation_Energy-OPLS-2005>
-193.3447265625

> <b_mmod_Minimization_Converged-OPLS-2005>
0

> <r_mmod_RMS_Derivative-OPLS-2005>
0.644376635551453

$$$$
5
                    3D
 Structure written by MMmdl.
166176  0  0  1  0            999 V2000
  -30.5933  -14.8958   20.4286 C   0  0  0  0  0  0
  -30.4259  -12.5538   19.4974 C   0  0  0  0  0  0
  -29.5133  -12.5196   18.2523 C   0  0  0  0  0  0
  -28.0453  -12.3208   18.6707 C   0  0  0  0  0  0
  -27.6284  -13.2514   19.8408 C   0  0  2  0  0  0
  -28.6719  -13.2771   20.9776 C   0  0  0  0  0  0
  -25.2453  -13.8232   20.5728 C   0  0  0  0  0  0
  -24.1770  -13.0447   20.9230 C   0  0  0  0  0  0
  -24.6393  -11.6935   20.8763 C   0  0  0  0  0  0
  -23.9083  -10.4298   21.0410 C   0  0  0  0  0  0
  -24.3630   -9.4209   21.9184 C   0  0  0  0  0  0
  -23.6302   -8.2246   22.0755 C   0  0  0  0  0  0
  -22.4285   -8.0285   21.3545 C   0  0  0  0  0  0
  -21.9924   -9.0258   20.4646 C   0  0  0  0  0  0
  -22.7257  -10.2136   20.3058 C   0  0  0  0  0  0
  -21.6856   -6.0739   22.5280 C   0  0  0  0  0  0
  -21.4016   -6.5643   23.8213 C   0  0  0  0  0  0
  -21.3660   -5.6796   24.9175 C   0  0  0  0  0  0
  -21.6045   -4.3059   24.7225 C   0  0  0  0  0  0
  -21.8820   -3.8151   23.4345 C   0  0  0  0  0  0
  -21.9194   -4.6968   22.3402 C   0  0  0  0  0  0
  -22.7787  -13.5206   21.1879 C   0  0  0  0  0  0
  -22.1659   -4.2153   21.0979 F   0  0  0  0  0  0
  -21.5630   -3.4540   25.7737 F   0  0  0  0  0  0
  -29.9488  -13.6645   20.3699 N   0  0  0  0  0  0
  -26.2882  -12.9473   20.3280 N   0  0  0  0  0  0
  -25.9331  -11.6598   20.5769 N   0  0  0  0  0  0
  -22.0446  -12.8189   22.0437 N   0  0  0  0  0  0
  -25.4128  -15.1959   20.4159 N   0  0  0  0  0  0
  -31.7977  -14.8992   20.1467 O   0  0  0  0  0  0
  -21.6646   -6.8883   21.4241 O   0  0  0  0  0  0
  -22.3460  -14.5504   20.6720 O   0  0  0  0  0  0
  -24.6416  -31.8456   23.1901 C   0  0  0  0  0  0
  -25.9197  -32.4701   23.8282 C   0  0  1  0  0  0
  -27.2129  -27.1557   20.1441 C   0  0  0  0  0  0
  -25.5953  -33.8508   24.2200 N   0  0  0  0  0  0
  -23.4437  -30.4662   21.5354 C   0  0  2  0  0  0
  -24.8923  -28.8983   20.1078 C   0  0  0  0  0  0
  -22.7555  -29.4555   22.4867 C   0  0  0  0  0  0
  -18.0301  -28.1393   22.8478 C   0  0  0  0  0  0
  -24.1491  -36.7257   23.2641 C   0  0  0  0  0  0
  -25.9987  -30.7254   21.3864 C   0  0  0  0  0  0
  -26.0692  -29.3393   20.7263 C   0  0  0  0  0  0
  -27.2310  -28.4828   20.7289 C   0  0  0  0  0  0
  -26.0116  -26.8138   19.4843 C   0  0  0  0  0  0
  -24.8754  -27.6488   19.4718 C   0  0  0  0  0  0
  -23.6682  -29.7976   20.1535 C   0  0  0  0  0  0
  -25.4123  -36.3035   24.0315 C   0  0  1  0  0  0
  -20.5912  -28.3717   23.1240 C   0  0  2  0  0  0
  -20.6787  -26.9424   22.5403 C   0  0  0  0  0  0
  -19.5762  -26.6381   21.5211 C   0  0  0  0  0  0
  -18.1942  -26.7932   22.1622 C   0  0  0  0  0  0
  -19.1558  -28.8873   23.2851 C   0  0  0  0  0  0
  -18.9475  -30.1471   23.8876 C   0  0  0  0  0  0
  -17.6473  -30.6591   24.0559 C   0  0  0  0  0  0
  -25.9073  -34.9410   23.5065 C   0  0  0  0  0  0
  -16.5363  -29.9085   23.6337 C   0  0  0  0  0  0
  -16.7286  -28.6503   23.0359 C   0  0  0  0  0  0
  -26.4526  -31.6564   25.0716 C   0  0  0  0  0  0
  -25.3716  -31.3747   26.1415 C   0  0  0  0  0  0
  -27.0393  -30.2962   24.6288 C   0  0  0  0  0  0
  -27.6056  -32.4327   25.7504 C   0  0  0  0  0  0
  -27.5576  -37.1784   24.8463 C   0  0  0  0  0  0
  -21.4250  -29.3047   22.3616 N   0  0  0  0  0  0
  -26.4286  -37.3747   23.9410 N   0  0  0  0  0  0
  -24.7144  -31.0330   22.0924 N   0  0  0  0  0  0
  -23.4207  -28.8101   23.3009 O   0  0  0  0  0  0
  -28.2627  -26.1766   20.2289 O   0  0  0  0  0  0
  -26.5657  -34.8903   22.4641 O   0  0  0  0  0  0
  -23.5541  -32.1326   23.7133 O   0  0  0  0  0  0
  -30.7294  -21.2025   21.0620 C   0  0  0  0  0  0
  -30.3167  -23.6433   20.7760 C   0  0  0  0  0  0
  -31.1283  -22.5511   21.2075 C   0  0  0  0  0  0
  -28.9875  -23.4038   20.3227 C   0  0  0  0  0  0
  -29.4963  -20.8119   20.5040 C   0  0  0  0  0  0
  -28.6236  -21.9664   20.1725 C   0  0  0  0  0  0
  -31.0038  -25.8625   19.5204 C   0  0  0  0  0  0
  -32.2421  -25.3802   20.2148 C   0  0  0  0  0  0
  -30.2610  -18.6452   19.4625 C   0  0  0  0  0  0
  -29.2586  -18.4709   21.5443 C   0  0  0  0  0  0
  -30.0405  -17.0833   19.1844 C   0  0  0  0  0  0
  -29.0946  -16.8626   21.3778 C   0  0  0  0  0  0
  -30.8764  -25.0478   20.7961 C   0  0  0  0  0  0
  -32.4856  -22.7819   21.8585 C   0  0  0  0  0  0
  -27.9889  -24.6695   19.9833 C   0  0  0  0  0  0
  -29.2737  -19.3461   20.3289 N   0  0  0  0  0  0
  -29.8782  -16.1251   20.3298 N   0  0  0  0  0  0
  -27.0528  -21.6094   19.5446 Cl  0  0  0  0  0  0
  -31.4647  -12.6804   19.1888 H   0  0  0  0  0  0
  -30.3906  -11.6032   20.0318 H   0  0  0  0  0  0
  -29.8216  -11.7213   17.5761 H   0  0  0  0  0  0
  -29.6144  -13.4528   17.6956 H   0  0  0  0  0  0
  -27.9314  -11.2787   18.9710 H   0  0  0  0  0  0
  -27.3835  -12.4655   17.8159 H   0  0  0  0  0  0
  -27.5939  -14.2558   19.4173 H   0  0  0  0  0  0
  -28.7468  -12.3062   21.4692 H   0  0  0  0  0  0
  -28.3827  -13.9953   21.7463 H   0  0  0  0  0  0
  -25.2772   -9.5685   22.4759 H   0  0  0  0  0  0
  -24.0012   -7.4639   22.7475 H   0  0  0  0  0  0
  -21.0857   -8.8780   19.8945 H   0  0  0  0  0  0
  -22.3717  -10.9676   19.6171 H   0  0  0  0  0  0
  -21.2009   -7.6152   23.9716 H   0  0  0  0  0  0
  -21.1480   -6.0527   25.9076 H   0  0  0  0  0  0
  -22.0597   -2.7613   23.2847 H   0  0  0  0  0  0
  -22.4081  -11.9857   22.4823 H   0  0  0  0  0  0
  -21.1059  -13.1197   22.2645 H   0  0  0  0  0  0
  -24.6464  -15.8505   20.5295 H   0  0  0  0  0  0
  -26.2651  -15.6359   20.0931 H   0  0  0  0  0  0
  -26.7260  -32.5313   23.1010 H   0  0  0  0  0  0
  -25.0081  -33.9626   25.0333 H   0  0  0  0  0  0
  -22.7452  -31.2918   21.3830 H   0  0  0  0  0  0
  -23.3759  -35.9582   23.3285 H   0  0  0  0  0  0
  -24.3578  -36.8908   22.2058 H   0  0  0  0  0  0
  -23.7240  -37.6445   23.6690 H   0  0  0  0  0  0
  -26.1530  -31.4816   20.6153 H   0  0  0  0  0  0
  -26.8698  -30.7739   22.0284 H   0  0  0  0  0  0
  -28.1268  -28.8123   21.2367 H   0  0  0  0  0  0
  -25.9115  -25.8594   18.9904 H   0  0  0  0  0  0
  -23.9770  -27.3072   18.9765 H   0  0  0  0  0  0
  -23.8020  -30.5729   19.3983 H   0  0  0  0  0  0
  -22.7835  -29.2381   19.8443 H   0  0  0  0  0  0
  -25.1310  -36.1862   25.0807 H   0  0  0  0  0  0
  -21.0005  -28.3306   24.1361 H   0  0  0  0  0  0
  -20.5682  -26.2330   23.3620 H   0  0  0  0  0  0
  -21.6654  -26.7432   22.1203 H   0  0  0  0  0  0
  -19.6924  -25.6287   21.1254 H   0  0  0  0  0  0
  -19.6699  -27.3180   20.6731 H   0  0  0  0  0  0
  -17.4211  -26.6677   21.4025 H   0  0  0  0  0  0
  -18.0342  -26.0079   22.9022 H   0  0  0  0  0  0
  -19.7951  -30.7293   24.2237 H   0  0  0  0  0  0
  -17.5025  -31.6269   24.5164 H   0  0  0  0  0  0
  -15.5364  -30.2980   23.7671 H   0  0  0  0  0  0
  -15.8686  -28.0813   22.7089 H   0  0  0  0  0  0
  -24.5901  -30.7088   25.7735 H   0  0  0  0  0  0
  -24.8900  -32.2928   26.4789 H   0  0  0  0  0  0
  -25.8004  -30.8954   27.0224 H   0  0  0  0  0  0
  -26.3010  -29.6682   24.1289 H   0  0  0  0  0  0
  -27.4004  -29.7262   25.4859 H   0  0  0  0  0  0
  -27.8917  -30.4199   23.9606 H   0  0  0  0  0  0
  -27.2648  -33.3643   26.2033 H   0  0  0  0  0  0
  -28.3897  -32.6862   25.0357 H   0  0  0  0  0  0
  -28.0691  -31.8486   26.5464 H   0  0  0  0  0  0
  -28.2579  -38.0095   24.7521 H   0  0  0  0  0  0
  -28.1089  -36.2624   24.6279 H   0  0  0  0  0  0
  -27.2295  -37.1415   25.8866 H   0  0  0  0  0  0
  -20.9457  -29.8761   21.6800 H   0  0  0  0  0  0
  -26.0151  -38.2812   24.1422 H   0  0  0  0  0  0
  -31.4226  -20.4375   21.3797 H   0  0  0  0  0  0
  -30.7381  -25.3825   18.5803 H   0  0  0  0  0  0
  -30.7969  -26.9296   19.5747 H   0  0  0  0  0  0
  -32.8434  -26.1296   20.7256 H   0  0  0  0  0  0
  -32.8035  -24.6049   19.6980 H   0  0  0  0  0  0
  -30.2872  -19.1632   18.5022 H   0  0  0  0  0  0
  -31.2605  -18.7695   19.8825 H   0  0  0  0  0  0
  -30.1802  -18.6503   22.1004 H   0  0  0  0  0  0
  -28.4627  -18.8287   22.1991 H   0  0  0  0  0  0
  -30.8571  -16.7395   18.5469 H   0  0  0  0  0  0
  -29.1462  -16.9744   18.5698 H   0  0  0  0  0  0
  -28.0448  -16.6531   21.1700 H   0  0  0  0  0  0
  -29.2899  -16.3952   22.3444 H   0  0  0  0  0  0
  -30.5763  -25.5720   21.7021 H   0  0  0  0  0  0
  -32.7256  -21.9783   22.5555 H   0  0  0  0  0  0
  -32.5112  -23.7086   22.4321 H   0  0  0  0  0  0
  -33.2748  -22.8105   21.1076 H   0  0  0  0  0  0
  -27.0605  -24.4375   20.5064 H   0  0  0  0  0  0
  -27.7622  -24.5695   18.9218 H   0  0  0  0  0  0
  1 25  1  0  0  0
  1 30  2  0  0  0
  1 87  1  0  0  0
  2  3  1  0  0  0
  2 25  1  0  0  0
  2 89  1  0  0  0
  2 90  1  0  0  0
  3  4  1  0  0  0
  3 91  1  0  0  0
  3 92  1  0  0  0
  4  5  1  0  0  0
  4 93  1  0  0  0
  4 94  1  0  0  0
  5  6  1  0  0  0
  5 26  1  0  0  0
  5 95  1  0  0  0
  6 25  1  0  0  0
  6 96  1  0  0  0
  6 97  1  0  0  0
  7  8  2  0  0  0
  7 26  1  0  0  0
  7 29  1  0  0  0
  8  9  1  0  0  0
  8 22  1  0  0  0
  9 10  1  0  0  0
  9 27  2  0  0  0
 10 11  2  0  0  0
 10 15  1  0  0  0
 11 12  1  0  0  0
 11 98  1  0  0  0
 12 13  2  0  0  0
 12 99  1  0  0  0
 13 14  1  0  0  0
 13 31  1  0  0  0
 14 15  2  0  0  0
 14100  1  0  0  0
 15101  1  0  0  0
 16 17  2  0  0  0
 16 21  1  0  0  0
 16 31  1  0  0  0
 17 18  1  0  0  0
 17102  1  0  0  0
 18 19  2  0  0  0
 18103  1  0  0  0
 19 20  1  0  0  0
 19 24  1  0  0  0
 20 21  2  0  0  0
 20104  1  0  0  0
 21 23  1  0  0  0
 22 28  1  0  0  0
 22 32  2  0  0  0
 26 27  1  0  0  0
 28105  1  0  0  0
 28106  1  0  0  0
 29107  1  0  0  0
 29108  1  0  0  0
 33 34  1  0  0  0
 33 66  1  0  0  0
 33 70  2  0  0  0
 34 36  1  0  0  0
 34 59  1  0  0  0
 34109  1  0  0  0
 35 44  2  0  0  0
 35 45  1  0  0  0
 35 68  1  0  0  0
 36 56  1  0  0  0
 36110  1  0  0  0
 37 39  1  0  0  0
 37 47  1  0  0  0
 37 66  1  0  0  0
 37111  1  0  0  0
 38 43  2  0  0  0
 38 46  1  0  0  0
 38 47  1  0  0  0
 39 64  1  0  0  0
 39 67  2  0  0  0
 40 52  1  0  0  0
 40 53  2  0  0  0
 40 58  1  0  0  0
 41112  1  0  0  0
 41113  1  0  0  0
 41114  1  0  0  0
 41 48  1  0  0  0
 42 43  1  0  0  0
 42 66  1  0  0  0
 42115  1  0  0  0
 42116  1  0  0  0
 43 44  1  0  0  0
 44117  1  0  0  0
 45 46  2  0  0  0
 45118  1  0  0  0
 46119  1  0  0  0
 47120  1  0  0  0
 47121  1  0  0  0
 48 56  1  0  0  0
 48 65  1  0  0  0
 48122  1  0  0  0
 49 50  1  0  0  0
 49 53  1  0  0  0
 49 64  1  0  0  0
 49123  1  0  0  0
 50 51  1  0  0  0
 50124  1  0  0  0
 50125  1  0  0  0
 51 52  1  0  0  0
 51126  1  0  0  0
 51127  1  0  0  0
 52128  1  0  0  0
 52129  1  0  0  0
 53 54  1  0  0  0
 54 55  2  0  0  0
 54130  1  0  0  0
 55 57  1  0  0  0
 55131  1  0  0  0
 56 69  2  0  0  0
 57 58  2  0  0  0
 57132  1  0  0  0
 58133  1  0  0  0
 59 60  1  0  0  0
 59 61  1  0  0  0
 59 62  1  0  0  0
 60134  1  0  0  0
 60135  1  0  0  0
 60136  1  0  0  0
 61137  1  0  0  0
 61138  1  0  0  0
 61139  1  0  0  0
 62140  1  0  0  0
 62141  1  0  0  0
 62142  1  0  0  0
 63 65  1  0  0  0
 63143  1  0  0  0
 63144  1  0  0  0
 63145  1  0  0  0
 64146  1  0  0  0
 65147  1  0  0  0
 68 85  1  0  0  0
 71 73  2  0  0  0
 71 75  1  0  0  0
 71148  1  0  0  0
 72 73  1  0  0  0
 72 74  2  0  0  0
 72 83  1  0  0  0
 73 84  1  0  0  0
 74 76  1  0  0  0
 74 85  1  0  0  0
 75 76  2  0  0  0
 75 86  1  0  0  0
 76 88  1  0  0  0
 77 78  1  0  0  0
 77 83  1  0  0  0
 77149  1  0  0  0
 77150  1  0  0  0
 78 83  1  0  0  0
 78151  1  0  0  0
 78152  1  0  0  0
 79 81  1  0  0  0
 79 86  1  0  0  0
 79153  1  0  0  0
 79154  1  0  0  0
 80 82  1  0  0  0
 80 86  1  0  0  0
 80155  1  0  0  0
 80156  1  0  0  0
 81 87  1  0  0  0
 81157  1  0  0  0
 81158  1  0  0  0
 82 87  1  0  0  0
 82159  1  0  0  0
 82160  1  0  0  0
 83161  1  0  0  0
 84162  1  0  0  0
 84163  1  0  0  0
 84164  1  0  0  0
 85165  1  0  0  0
 85166  1  0  0  0
M  ISO  4   1 100  68 101  85 101  87 100
M  END
> <chiral flag>
0

> <version>
0

> <s_m_source_file>
/data/baiqing/PycharmProjects/Reinvent-master-3.2/result/LINK_invent/BTK/process_docking_weight1_custom_sum_contain_oxygen_bond_distance_aromatic_linkinvent_7_9_3/rearranged_h_0165.sdf

> <i_m_source_file_index>
6

> <r_mmod_Potential_Energy-OPLS-2005>
693.179565429688

> <r_mmod_Stretch_Energy-OPLS-2005>
211.709533691406

> <r_mmod_Bend_Energy-OPLS-2005>
239.409545898438

> <r_mmod_Torsional_Energy-OPLS-2005>
404.766510009766

> <r_mmod_Improper_Torsional_Energy-OPLS-2005>
21.04270362854

> <r_mmod_Van_der_Waal_Energy-OPLS-2005>
140.669342041016

> <r_mmod_Electrostatic_Energy-OPLS-2005>
-290.918029785156

> <r_mmod_Solvation_Energy-OPLS-2005>
-200.167510986328

> <b_mmod_Minimization_Converged-OPLS-2005>
0

> <r_mmod_RMS_Derivative-OPLS-2005>
0.498223394155502

$$$$
6
                    3D
 Structure written by MMmdl.
166176  0  0  1  0            999 V2000
  -30.6319  -14.6433   20.4875 C   0  0  0  0  0  0
  -30.4342  -12.3882   19.4736 C   0  0  0  0  0  0
  -29.5130  -12.5065   18.2392 C   0  0  0  0  0  0
  -28.0353  -12.3452   18.6460 C   0  0  0  0  0  0
  -27.6533  -13.2225   19.8683 C   0  0  2  0  0  0
  -28.6936  -13.0951   21.0053 C   0  0  0  0  0  0
  -25.2540  -13.8189   20.5682 C   0  0  0  0  0  0
  -24.1818  -13.0436   20.9183 C   0  0  0  0  0  0
  -24.6403  -11.6909   20.8744 C   0  0  0  0  0  0
  -23.9075  -10.4288   21.0414 C   0  0  0  0  0  0
  -24.3622   -9.4203   21.9195 C   0  0  0  0  0  0
  -23.6290   -8.2241   22.0760 C   0  0  0  0  0  0
  -22.4275   -8.0281   21.3546 C   0  0  0  0  0  0
  -21.9914   -9.0259   20.4655 C   0  0  0  0  0  0
  -22.7246  -10.2135   20.3063 C   0  0  0  0  0  0
  -21.6854   -6.0730   22.5277 C   0  0  0  0  0  0
  -21.4017   -6.5636   23.8210 C   0  0  0  0  0  0
  -21.3657   -5.6792   24.9173 C   0  0  0  0  0  0
  -21.6045   -4.3056   24.7229 C   0  0  0  0  0  0
  -21.8818   -3.8142   23.4352 C   0  0  0  0  0  0
  -21.9192   -4.6956   22.3404 C   0  0  0  0  0  0
  -22.7840  -13.5224   21.1845 C   0  0  0  0  0  0
  -22.1657   -4.2136   21.0984 F   0  0  0  0  0  0
  -21.5627   -3.4542   25.7744 F   0  0  0  0  0  0
  -30.0131  -13.4208   20.4437 N   0  0  0  0  0  0
  -26.2985  -12.9379   20.3343 N   0  0  0  0  0  0
  -25.9335  -11.6525   20.5773 N   0  0  0  0  0  0
  -22.0486  -12.8219   22.0411 N   0  0  0  0  0  0
  -25.4233  -15.1913   20.4082 N   0  0  0  0  0  0
  -31.7869  -14.7890   20.0763 O   0  0  0  0  0  0
  -21.6636   -6.8878   21.4240 O   0  0  0  0  0  0
  -22.3522  -14.5528   20.6693 O   0  0  0  0  0  0
  -24.6208  -31.8586   23.1992 C   0  0  0  0  0  0
  -25.9082  -32.4760   23.8307 C   0  0  1  0  0  0
  -27.2416  -27.3537   20.1159 C   0  0  0  0  0  0
  -25.5936  -33.8560   24.2251 N   0  0  0  0  0  0
  -23.4105  -30.4796   21.5397 C   0  0  2  0  0  0
  -24.8586  -28.9223   20.1149 C   0  0  0  0  0  0
  -22.7421  -29.4656   22.4948 C   0  0  0  0  0  0
  -18.0296  -28.1389   22.8485 C   0  0  0  0  0  0
  -24.1501  -36.7287   23.2635 C   0  0  0  0  0  0
  -25.9431  -30.7989   21.3612 C   0  0  0  0  0  0
  -26.0196  -29.4240   20.7129 C   0  0  0  0  0  0
  -27.2090  -28.6494   20.7073 C   0  0  0  0  0  0
  -26.0601  -26.8820   19.5044 C   0  0  0  0  0  0
  -24.8758  -27.6527   19.5081 C   0  0  0  0  0  0
  -23.6236  -29.8005   20.1599 C   0  0  0  0  0  0
  -25.4132  -36.3058   24.0312 C   0  0  1  0  0  0
  -20.5876  -28.3700   23.1308 C   0  0  2  0  0  0
  -20.6795  -26.9435   22.5433 C   0  0  0  0  0  0
  -19.5784  -26.6398   21.5218 C   0  0  0  0  0  0
  -18.1952  -26.7940   22.1602 C   0  0  0  0  0  0
  -19.1535  -28.8853   23.2898 C   0  0  0  0  0  0
  -18.9471  -30.1459   23.8911 C   0  0  0  0  0  0
  -17.6476  -30.6590   24.0564 C   0  0  0  0  0  0
  -25.9062  -34.9428   23.5075 C   0  0  0  0  0  0
  -16.5366  -29.9094   23.6320 C   0  0  0  0  0  0
  -16.7291  -28.6509   23.0336 C   0  0  0  0  0  0
  -26.4488  -31.6558   25.0653 C   0  0  0  0  0  0
  -25.3769  -31.3706   26.1422 C   0  0  0  0  0  0
  -27.0337  -30.2989   24.6079 C   0  0  0  0  0  0
  -27.6035  -32.4279   25.7461 C   0  0  0  0  0  0
  -27.5588  -37.1802   24.8469 C   0  0  0  0  0  0
  -21.4142  -29.3059   22.3680 N   0  0  0  0  0  0
  -26.4308  -37.3754   23.9398 N   0  0  0  0  0  0
  -24.6757  -31.0632   22.0914 N   0  0  0  0  0  0
  -23.4170  -28.8221   23.3030 O   0  0  0  0  0  0
  -28.4283  -26.6204   20.1535 O   0  0  0  0  0  0
  -26.5610  -34.8885   22.4633 O   0  0  0  0  0  0
  -23.5392  -32.1386   23.7356 O   0  0  0  0  0  0
  -29.1252  -21.5752   20.5654 C   0  0  0  0  0  0
  -31.1924  -20.8716   21.6063 C   0  0  0  0  0  0
  -29.2913  -22.8982   21.1138 C   0  0  0  0  0  0
  -30.3853  -23.1302   21.9471 C   0  0  0  0  0  0
  -31.3584  -22.1487   22.1836 C   0  0  0  0  0  0
  -30.0706  -20.5014   20.8120 C   0  0  0  0  0  0
  -30.3160  -24.4783   22.6149 C   0  0  0  0  0  0
  -28.8538  -24.8911   22.3948 C   0  0  0  0  0  0
  -30.9777  -18.1046   20.6996 C   0  0  0  0  0  0
  -28.9329  -18.1987   20.5241 C   0  0  0  0  0  0
  -29.9642  -17.0912   20.1247 C   0  0  0  0  0  0
  -28.3605  -24.1670   21.1055 C   0  0  1  0  0  0
  -32.5602  -22.4428   23.0649 C   0  0  0  0  0  0
  -26.8810  -23.7701   21.2379 C   0  0  0  0  0  0
  -28.5375  -25.1768   19.8885 C   0  0  0  0  0  0
  -30.0255  -19.1467   20.2509 N   0  0  0  0  0  0
  -29.8449  -15.7294   20.7574 N   0  0  0  0  0  0
  -31.4787  -12.4994   19.1770 H   0  0  0  0  0  0
  -30.3574  -11.3958   19.9209 H   0  0  0  0  0  0
  -29.7802  -11.7580   17.4937 H   0  0  0  0  0  0
  -29.6593  -13.4782   17.7636 H   0  0  0  0  0  0
  -27.8757  -11.2934   18.8851 H   0  0  0  0  0  0
  -27.3833  -12.5672   17.8002 H   0  0  0  0  0  0
  -27.6680  -14.2553   19.5181 H   0  0  0  0  0  0
  -28.6985  -12.0828   21.4129 H   0  0  0  0  0  0
  -28.4425  -13.7536   21.8389 H   0  0  0  0  0  0
  -25.2769   -9.5665   22.4773 H   0  0  0  0  0  0
  -23.9985   -7.4633   22.7490 H   0  0  0  0  0  0
  -21.0838   -8.8785   19.8977 H   0  0  0  0  0  0
  -22.3711  -10.9667   19.6168 H   0  0  0  0  0  0
  -21.2016   -7.6146   23.9707 H   0  0  0  0  0  0
  -21.1479   -6.0528   25.9075 H   0  0  0  0  0  0
  -22.0603   -2.7601   23.2860 H   0  0  0  0  0  0
  -22.4085  -11.9869   22.4783 H   0  0  0  0  0  0
  -21.1111  -13.1256   22.2643 H   0  0  0  0  0  0
  -24.6514  -15.8412   20.5083 H   0  0  0  0  0  0
  -26.2669  -15.6296   20.0613 H   0  0  0  0  0  0
  -26.7132  -32.5443   23.1044 H   0  0  0  0  0  0
  -25.0158  -33.9708   25.0446 H   0  0  0  0  0  0
  -22.7055  -31.3014   21.3932 H   0  0  0  0  0  0
  -23.3736  -35.9647   23.3308 H   0  0  0  0  0  0
  -24.3613  -36.8900   22.2049 H   0  0  0  0  0  0
  -23.7255  -37.6488   23.6660 H   0  0  0  0  0  0
  -26.0697  -31.5604   20.5908 H   0  0  0  0  0  0
  -26.8222  -30.8489   21.9927 H   0  0  0  0  0  0
  -28.1014  -29.0330   21.1823 H   0  0  0  0  0  0
  -26.0307  -25.9154   19.0244 H   0  0  0  0  0  0
  -23.9815  -27.2606   19.0448 H   0  0  0  0  0  0
  -23.7424  -30.5686   19.3957 H   0  0  0  0  0  0
  -22.7381  -29.2344   19.8634 H   0  0  0  0  0  0
  -25.1317  -36.1895   25.0798 H   0  0  0  0  0  0
  -20.9978  -28.3289   24.1414 H   0  0  0  0  0  0
  -20.5713  -26.2311   23.3630 H   0  0  0  0  0  0
  -21.6671  -26.7504   22.1208 H   0  0  0  0  0  0
  -19.6958  -25.6314   21.1237 H   0  0  0  0  0  0
  -19.6698  -27.3203   20.6739 H   0  0  0  0  0  0
  -17.4221  -26.6679   21.4002 H   0  0  0  0  0  0
  -18.0350  -26.0103   22.9009 H   0  0  0  0  0  0
  -19.7964  -30.7265   24.2264 H   0  0  0  0  0  0
  -17.5033  -31.6268   24.5179 H   0  0  0  0  0  0
  -15.5365  -30.2977   23.7651 H   0  0  0  0  0  0
  -15.8700  -28.0827   22.7033 H   0  0  0  0  0  0
  -24.5921  -30.7061   25.7781 H   0  0  0  0  0  0
  -24.9010  -32.2889   26.4864 H   0  0  0  0  0  0
  -25.8142  -30.8881   27.0178 H   0  0  0  0  0  0
  -26.2893  -29.6722   24.1138 H   0  0  0  0  0  0
  -27.4091  -29.7247   25.4559 H   0  0  0  0  0  0
  -27.8731  -30.4282   23.9247 H   0  0  0  0  0  0
  -27.2616  -33.3551   26.2075 H   0  0  0  0  0  0
  -28.3859  -32.6870   25.0320 H   0  0  0  0  0  0
  -28.0680  -31.8374   26.5373 H   0  0  0  0  0  0
  -28.2602  -38.0098   24.7509 H   0  0  0  0  0  0
  -28.1085  -36.2626   24.6317 H   0  0  0  0  0  0
  -27.2323  -37.1479   25.8877 H   0  0  0  0  0  0
  -20.9299  -29.8752   21.6879 H   0  0  0  0  0  0
  -26.0174  -38.2833   24.1357 H   0  0  0  0  0  0
  -28.2537  -21.3717   19.9601 H   0  0  0  0  0  0
  -31.9731  -20.1505   21.8023 H   0  0  0  0  0  0
  -30.9984  -25.1733   22.1250 H   0  0  0  0  0  0
  -30.5688  -24.4300   23.6760 H   0  0  0  0  0  0
  -28.7022  -25.9693   22.4327 H   0  0  0  0  0  0
  -28.2913  -24.4970   23.2423 H   0  0  0  0  0  0
  -31.9407  -18.1172   20.1885 H   0  0  0  0  0  0
  -31.0873  -18.0491   21.7851 H   0  0  0  0  0  0
  -28.6295  -18.1845   21.5734 H   0  0  0  0  0  0
  -28.0805  -18.2942   19.8504 H   0  0  0  0  0  0
  -30.0509  -17.0159   19.0370 H   0  0  0  0  0  0
  -33.3357  -21.6855   22.9490 H   0  0  0  0  0  0
  -32.2617  -22.4605   24.1135 H   0  0  0  0  0  0
  -33.0024  -23.4084   22.8161 H   0  0  0  0  0  0
  -26.5497  -23.1854   20.3799 H   0  0  0  0  0  0
  -26.2402  -24.6493   21.3108 H   0  0  0  0  0  0
  -26.7051  -23.1694   22.1308 H   0  0  0  0  0  0
  -29.5681  -25.0720   19.5466 H   0  0  0  0  0  0
  -27.9487  -24.8697   19.0231 H   0  0  0  0  0  0
  -28.9413  -15.5111   21.1499 H   0  0  0  0  0  0
  1 25  1  0  0  0
  1 30  2  0  0  0
  1 87  1  0  0  0
  2  3  1  0  0  0
  2 25  1  0  0  0
  2 88  1  0  0  0
  2 89  1  0  0  0
  3  4  1  0  0  0
  3 90  1  0  0  0
  3 91  1  0  0  0
  4  5  1  0  0  0
  4 92  1  0  0  0
  4 93  1  0  0  0
  5  6  1  0  0  0
  5 26  1  0  0  0
  5 94  1  0  0  0
  6 25  1  0  0  0
  6 95  1  0  0  0
  6 96  1  0  0  0
  7  8  2  0  0  0
  7 26  1  0  0  0
  7 29  1  0  0  0
  8  9  1  0  0  0
  8 22  1  0  0  0
  9 10  1  0  0  0
  9 27  2  0  0  0
 10 11  2  0  0  0
 10 15  1  0  0  0
 11 12  1  0  0  0
 11 97  1  0  0  0
 12 13  2  0  0  0
 12 98  1  0  0  0
 13 14  1  0  0  0
 13 31  1  0  0  0
 14 15  2  0  0  0
 14 99  1  0  0  0
 15100  1  0  0  0
 16 17  2  0  0  0
 16 21  1  0  0  0
 16 31  1  0  0  0
 17 18  1  0  0  0
 17101  1  0  0  0
 18 19  2  0  0  0
 18102  1  0  0  0
 19 20  1  0  0  0
 19 24  1  0  0  0
 20 21  2  0  0  0
 20103  1  0  0  0
 21 23  1  0  0  0
 22 28  1  0  0  0
 22 32  2  0  0  0
 26 27  1  0  0  0
 28104  1  0  0  0
 28105  1  0  0  0
 29106  1  0  0  0
 29107  1  0  0  0
 33 34  1  0  0  0
 33 66  1  0  0  0
 33 70  2  0  0  0
 34 36  1  0  0  0
 34 59  1  0  0  0
 34108  1  0  0  0
 35 44  2  0  0  0
 35 45  1  0  0  0
 35 68  1  0  0  0
 36 56  1  0  0  0
 36109  1  0  0  0
 37 39  1  0  0  0
 37 47  1  0  0  0
 37 66  1  0  0  0
 37110  1  0  0  0
 38 43  2  0  0  0
 38 46  1  0  0  0
 38 47  1  0  0  0
 39 64  1  0  0  0
 39 67  2  0  0  0
 40 52  1  0  0  0
 40 53  2  0  0  0
 40 58  1  0  0  0
 41111  1  0  0  0
 41112  1  0  0  0
 41113  1  0  0  0
 41 48  1  0  0  0
 42 43  1  0  0  0
 42 66  1  0  0  0
 42114  1  0  0  0
 42115  1  0  0  0
 43 44  1  0  0  0
 44116  1  0  0  0
 45 46  2  0  0  0
 45117  1  0  0  0
 46118  1  0  0  0
 47119  1  0  0  0
 47120  1  0  0  0
 48 56  1  0  0  0
 48 65  1  0  0  0
 48121  1  0  0  0
 49 50  1  0  0  0
 49 53  1  0  0  0
 49 64  1  0  0  0
 49122  1  0  0  0
 50 51  1  0  0  0
 50123  1  0  0  0
 50124  1  0  0  0
 51 52  1  0  0  0
 51125  1  0  0  0
 51126  1  0  0  0
 52127  1  0  0  0
 52128  1  0  0  0
 53 54  1  0  0  0
 54 55  2  0  0  0
 54129  1  0  0  0
 55 57  1  0  0  0
 55130  1  0  0  0
 56 69  2  0  0  0
 57 58  2  0  0  0
 57131  1  0  0  0
 58132  1  0  0  0
 59 60  1  0  0  0
 59 61  1  0  0  0
 59 62  1  0  0  0
 60133  1  0  0  0
 60134  1  0  0  0
 60135  1  0  0  0
 61136  1  0  0  0
 61137  1  0  0  0
 61138  1  0  0  0
 62139  1  0  0  0
 62140  1  0  0  0
 62141  1  0  0  0
 63 65  1  0  0  0
 63142  1  0  0  0
 63143  1  0  0  0
 63144  1  0  0  0
 64145  1  0  0  0
 65146  1  0  0  0
 68 85  1  0  0  0
 71 73  2  0  0  0
 71 76  1  0  0  0
 71147  1  0  0  0
 72 75  1  0  0  0
 72 76  2  0  0  0
 72148  1  0  0  0
 73 74  1  0  0  0
 73 82  1  0  0  0
 74 75  2  0  0  0
 74 77  1  0  0  0
 75 83  1  0  0  0
 76 86  1  0  0  0
 77 78  1  0  0  0
 77149  1  0  0  0
 77150  1  0  0  0
 78 82  1  0  0  0
 78151  1  0  0  0
 78152  1  0  0  0
 79 81  1  0  0  0
 79 86  1  0  0  0
 79153  1  0  0  0
 79154  1  0  0  0
 80 81  1  0  0  0
 80 86  1  0  0  0
 80155  1  0  0  0
 80156  1  0  0  0
 81 87  1  0  0  0
 81157  1  0  0  0
 82 84  1  0  0  0
 82 85  1  0  0  0
 83158  1  0  0  0
 83159  1  0  0  0
 83160  1  0  0  0
 84161  1  0  0  0
 84162  1  0  0  0
 84163  1  0  0  0
 85164  1  0  0  0
 85165  1  0  0  0
 87166  1  0  0  0
M  ISO  4   1 100  68 101  85 101  87 100
M  END
> <chiral flag>
0

> <version>
0

> <s_m_source_file>
/data/baiqing/PycharmProjects/Reinvent-master-3.2/result/LINK_invent/BTK/process_docking_weight1_custom_sum_contain_oxygen_bond_distance_aromatic_linkinvent_7_9_3/rearranged_h_0165.sdf

> <i_m_source_file_index>
7

> <r_mmod_Potential_Energy-OPLS-2005>
123.019897460938

> <r_mmod_Stretch_Energy-OPLS-2005>
77.8712539672852

> <r_mmod_Bend_Energy-OPLS-2005>
246.854095458984

> <r_mmod_Torsional_Energy-OPLS-2005>
260.883666992188

> <r_mmod_Improper_Torsional_Energy-OPLS-2005>
15.8195056915283

> <r_mmod_Van_der_Waal_Energy-OPLS-2005>
138.743896484375

> <r_mmod_Electrostatic_Energy-OPLS-2005>
-426.079467773438

> <r_mmod_Solvation_Energy-OPLS-2005>
-231.43000793457

> <b_mmod_Minimization_Converged-OPLS-2005>
0

> <r_mmod_RMS_Derivative-OPLS-2005>
3.10305953025818

$$$$
7
                    3D
 Structure written by MMmdl.
165174  0  0  1  0            999 V2000
  -30.5919  -14.8025   20.3938 C   0  0  0  0  0  0
  -30.4434  -12.4946   19.4537 C   0  0  0  0  0  0
  -29.5072  -12.5121   18.2263 C   0  0  0  0  0  0
  -28.0482  -12.2940   18.6703 C   0  0  0  0  0  0
  -27.6411  -13.2234   19.8409 C   0  0  2  0  0  0
  -28.6929  -13.2009   20.9721 C   0  0  0  0  0  0
  -25.2539  -13.8139   20.5676 C   0  0  0  0  0  0
  -24.1830  -13.0399   20.9154 C   0  0  0  0  0  0
  -24.6406  -11.6883   20.8730 C   0  0  0  0  0  0
  -23.9075  -10.4270   21.0417 C   0  0  0  0  0  0
  -24.3607   -9.4191   21.9208 C   0  0  0  0  0  0
  -23.6270   -8.2230   22.0776 C   0  0  0  0  0  0
  -22.4271   -8.0256   21.3543 C   0  0  0  0  0  0
  -21.9898   -9.0245   20.4660 C   0  0  0  0  0  0
  -22.7243  -10.2114   20.3071 C   0  0  0  0  0  0
  -21.6879   -6.0682   22.5246 C   0  0  0  0  0  0
  -21.4037   -6.5617   23.8167 C   0  0  0  0  0  0
  -21.3649   -5.6781   24.9146 C   0  0  0  0  0  0
  -21.6049   -4.3041   24.7226 C   0  0  0  0  0  0
  -21.8835   -3.8108   23.4361 C   0  0  0  0  0  0
  -21.9219   -4.6907   22.3398 C   0  0  0  0  0  0
  -22.7837  -13.5186   21.1824 C   0  0  0  0  0  0
  -22.1676   -4.2100   21.0974 F   0  0  0  0  0  0
  -21.5624   -3.4540   25.7739 F   0  0  0  0  0  0
  -29.9845  -13.5649   20.3734 N   0  0  0  0  0  0
  -26.2959  -12.9336   20.3237 N   0  0  0  0  0  0
  -25.9357  -11.6499   20.5770 N   0  0  0  0  0  0
  -22.0486  -12.8161   22.0363 N   0  0  0  0  0  0
  -25.4210  -15.1873   20.4113 N   0  0  0  0  0  0
  -31.7868  -14.8946   20.1146 O   0  0  0  0  0  0
  -21.6684   -6.8829   21.4206 O   0  0  0  0  0  0
  -22.3517  -14.5504   20.6679 O   0  0  0  0  0  0
  -24.6315  -31.8513   23.1931 C   0  0  0  0  0  0
  -25.9179  -32.4690   23.8261 C   0  0  1  0  0  0
  -27.1938  -27.2194   20.1402 C   0  0  0  0  0  0
  -25.5960  -33.8500   24.2169 N   0  0  0  0  0  0
  -23.4271  -30.4725   21.5421 C   0  0  2  0  0  0
  -24.8628  -28.9007   20.1247 C   0  0  0  0  0  0
  -22.7492  -29.4623   22.4971 C   0  0  0  0  0  0
  -18.0343  -28.1373   22.8530 C   0  0  0  0  0  0
  -24.1487  -36.7247   23.2635 C   0  0  0  0  0  0
  -25.9739  -30.7473   21.3743 C   0  0  0  0  0  0
  -26.0394  -29.3600   20.7327 C   0  0  0  0  0  0
  -27.2127  -28.5356   20.7206 C   0  0  0  0  0  0
  -26.0002  -26.8278   19.5082 C   0  0  0  0  0  0
  -24.8484  -27.6406   19.5041 C   0  0  0  0  0  0
  -23.6402  -29.8019   20.1623 C   0  0  0  0  0  0
  -25.4118  -36.2998   24.0284 C   0  0  1  0  0  0
  -20.5924  -28.3725   23.1343 C   0  0  2  0  0  0
  -20.6837  -26.9462   22.5492 C   0  0  0  0  0  0
  -19.5825  -26.6305   21.5326 C   0  0  0  0  0  0
  -18.1988  -26.7922   22.1709 C   0  0  0  0  0  0
  -19.1582  -28.8881   23.2948 C   0  0  0  0  0  0
  -18.9492  -30.1499   23.8934 C   0  0  0  0  0  0
  -17.6472  -30.6597   24.0575 C   0  0  0  0  0  0
  -25.9074  -34.9385   23.5008 C   0  0  0  0  0  0
  -16.5380  -29.9023   23.6385 C   0  0  0  0  0  0
  -16.7316  -28.6434   23.0433 C   0  0  0  0  0  0
  -26.4508  -31.6574   25.0706 C   0  0  0  0  0  0
  -25.3695  -31.3825   26.1412 C   0  0  0  0  0  0
  -27.0396  -30.2983   24.6270 C   0  0  0  0  0  0
  -27.6004  -32.4358   25.7513 C   0  0  0  0  0  0
  -27.5566  -37.1781   24.8466 C   0  0  0  0  0  0
  -21.4203  -29.3080   22.3727 N   0  0  0  0  0  0
  -26.4277  -37.3709   23.9388 N   0  0  0  0  0  0
  -24.6960  -31.0468   22.0916 N   0  0  0  0  0  0
  -23.4177  -28.8160   23.3062 O   0  0  0  0  0  0
  -28.2999  -26.3517   20.0033 O   0  0  0  0  0  0
  -26.5655  -34.8889   22.4597 O   0  0  0  0  0  0
  -23.5470  -32.1376   23.7233 O   0  0  0  0  0  0
  -26.3834  -21.8849   21.1274 C   0  0  0  0  0  0
  -27.2556  -20.8293   20.8078 C   0  0  0  0  0  0
  -26.7845  -23.2370   21.1015 C   0  0  0  0  0  0
  -28.0768  -23.6097   20.6309 C   0  0  0  0  0  0
  -28.9337  -22.4815   20.2165 C   0  0  0  0  0  0
  -28.5711  -21.0610   20.3683 C   0  0  0  0  0  0
  -29.4478  -18.6359   20.9245 C   0  0  0  0  0  0
  -29.0163  -19.2347   18.8013 C   0  0  0  0  0  0
  -30.1503  -17.4211   20.1358 C   0  0  2  0  0  0
  -29.7656  -17.8613   18.6957 C   0  0  2  0  0  0
  -25.7779  -24.2384   21.6481 C   0  0  0  0  0  0
  -30.2575  -22.8270   19.5596 C   0  0  0  0  0  0
  -28.5712  -25.1425   20.8553 C   0  0  0  0  0  0
  -29.3856  -19.8798   20.0629 N   0  0  0  0  0  0
  -29.7983  -15.9489   20.4638 N   0  0  0  0  0  0
  -30.9417  -17.9905   17.8185 N   0  3  0  0  0  0
  -31.4740  -12.6352   19.1222 H   0  0  0  0  0  0
  -30.4173  -11.5231   19.9458 H   0  0  0  0  0  0
  -29.8013  -11.7443   17.5078 H   0  0  0  0  0  0
  -29.5940  -13.4658   17.7015 H   0  0  0  0  0  0
  -27.9539  -11.2516   18.9795 H   0  0  0  0  0  0
  -27.3701  -12.4177   17.8260 H   0  0  0  0  0  0
  -27.6200  -14.2323   19.4302 H   0  0  0  0  0  0
  -28.7467  -12.2168   21.4360 H   0  0  0  0  0  0
  -28.4244  -13.9029   21.7633 H   0  0  0  0  0  0
  -25.2748   -9.5676   22.4810 H   0  0  0  0  0  0
  -23.9985   -7.4634   22.7508 H   0  0  0  0  0  0
  -21.0820   -8.8749   19.8972 H   0  0  0  0  0  0
  -22.3686  -10.9646   19.6188 H   0  0  0  0  0  0
  -21.2037   -7.6143   23.9637 H   0  0  0  0  0  0
  -21.1447   -6.0534   25.9032 H   0  0  0  0  0  0
  -22.0639   -2.7582   23.2880 H   0  0  0  0  0  0
  -22.4112  -11.9846   22.4780 H   0  0  0  0  0  0
  -21.1081  -13.1165   22.2563 H   0  0  0  0  0  0
  -24.6454  -15.8303   20.5361 H   0  0  0  0  0  0
  -26.2631  -15.6416   20.0876 H   0  0  0  0  0  0
  -26.7270  -32.5309   23.1004 H   0  0  0  0  0  0
  -25.0134  -33.9627   25.0333 H   0  0  0  0  0  0
  -22.7233  -31.2955   21.3980 H   0  0  0  0  0  0
  -23.3709  -35.9620   23.3289 H   0  0  0  0  0  0
  -24.3600  -36.8906   22.2063 H   0  0  0  0  0  0
  -23.7315  -37.6457   23.6714 H   0  0  0  0  0  0
  -26.1224  -31.4934   20.5937 H   0  0  0  0  0  0
  -26.8496  -30.7936   22.0113 H   0  0  0  0  0  0
  -28.1313  -28.8971   21.1602 H   0  0  0  0  0  0
  -25.9570  -25.8706   19.0079 H   0  0  0  0  0  0
  -23.9475  -27.2864   19.0220 H   0  0  0  0  0  0
  -23.7658  -30.5706   19.3971 H   0  0  0  0  0  0
  -22.7516  -29.2457   19.8609 H   0  0  0  0  0  0
  -25.1323  -36.1766   25.0773 H   0  0  0  0  0  0
  -21.0040  -28.3273   24.1473 H   0  0  0  0  0  0
  -20.5952  -26.2426   23.3756 H   0  0  0  0  0  0
  -21.6704  -26.7526   22.1319 H   0  0  0  0  0  0
  -19.7014  -25.6142   21.1492 H   0  0  0  0  0  0
  -19.6754  -27.3065   20.6808 H   0  0  0  0  0  0
  -17.4275  -26.6691   21.4104 H   0  0  0  0  0  0
  -18.0341  -26.0100   22.9157 H   0  0  0  0  0  0
  -19.7940  -30.7394   24.2320 H   0  0  0  0  0  0
  -17.4975  -31.6318   24.5111 H   0  0  0  0  0  0
  -15.5371  -30.2916   23.7667 H   0  0  0  0  0  0
  -15.8730  -28.0729   22.7165 H   0  0  0  0  0  0
  -24.5789  -30.7253   25.7791 H   0  0  0  0  0  0
  -24.8953  -32.3039   26.4786 H   0  0  0  0  0  0
  -25.7918  -30.9040   27.0243 H   0  0  0  0  0  0
  -26.3044  -29.6710   24.1202 H   0  0  0  0  0  0
  -27.4006  -29.7267   25.4840 H   0  0  0  0  0  0
  -27.8931  -30.4275   23.9603 H   0  0  0  0  0  0
  -27.2536  -33.3642   26.2051 H   0  0  0  0  0  0
  -28.3821  -32.6948   25.0368 H   0  0  0  0  0  0
  -28.0650  -31.8531   26.5470 H   0  0  0  0  0  0
  -28.2550  -38.0101   24.7467 H   0  0  0  0  0  0
  -28.1080  -36.2615   24.6305 H   0  0  0  0  0  0
  -27.2302  -37.1465   25.8881 H   0  0  0  0  0  0
  -20.9400  -29.8667   21.6815 H   0  0  0  0  0  0
  -26.0099  -38.2755   24.1390 H   0  0  0  0  0  0
  -25.3869  -21.6287   21.4587 H   0  0  0  0  0  0
  -26.8840  -19.8211   20.8936 H   0  0  0  0  0  0
  -28.4363  -18.3314   21.1895 H   0  0  0  0  0  0
  -29.9611  -18.8367   21.8690 H   0  0  0  0  0  0
  -27.9441  -19.0336   18.8461 H   0  0  0  0  0  0
  -29.1707  -19.8888   17.9422 H   0  0  0  0  0  0
  -31.2262  -17.5391   20.2696 H   0  0  0  0  0  0
  -29.0859  -17.1380   18.2396 H   0  0  0  0  0  0
  -26.2084  -25.1795   21.9877 H   0  0  0  0  0  0
  -25.2601  -23.8095   22.5100 H   0  0  0  0  0  0
  -25.0301  -24.4631   20.8921 H   0  0  0  0  0  0
  -30.6584  -21.9944   18.9838 H   0  0  0  0  0  0
  -30.0964  -23.6497   18.8597 H   0  0  0  0  0  0
  -30.9989  -23.1371   20.2976 H   0  0  0  0  0  0
  -29.6589  -25.0981   20.8767 H   0  0  0  0  0  0
  -28.3280  -25.4159   21.8810 H   0  0  0  0  0  0
  -28.8222  -15.7674   20.6473 H   0  0  0  0  0  0
  -31.5539  -18.7139   18.1487 H   0  0  0  0  0  0
  -30.6484  -18.2177   16.8837 H   0  0  0  0  0  0
  -31.4475  -17.1223   17.7887 H   0  0  0  0  0  0
  1 25  1  0  0  0
  1 30  2  0  0  0
  1 85  1  0  0  0
  2  3  1  0  0  0
  2 25  1  0  0  0
  2 87  1  0  0  0
  2 88  1  0  0  0
  3  4  1  0  0  0
  3 89  1  0  0  0
  3 90  1  0  0  0
  4  5  1  0  0  0
  4 91  1  0  0  0
  4 92  1  0  0  0
  5  6  1  0  0  0
  5 26  1  0  0  0
  5 93  1  0  0  0
  6 25  1  0  0  0
  6 94  1  0  0  0
  6 95  1  0  0  0
  7  8  2  0  0  0
  7 26  1  0  0  0
  7 29  1  0  0  0
  8  9  1  0  0  0
  8 22  1  0  0  0
  9 10  1  0  0  0
  9 27  2  0  0  0
 10 11  2  0  0  0
 10 15  1  0  0  0
 11 12  1  0  0  0
 11 96  1  0  0  0
 12 13  2  0  0  0
 12 97  1  0  0  0
 13 14  1  0  0  0
 13 31  1  0  0  0
 14 15  2  0  0  0
 14 98  1  0  0  0
 15 99  1  0  0  0
 16 17  2  0  0  0
 16 21  1  0  0  0
 16 31  1  0  0  0
 17 18  1  0  0  0
 17100  1  0  0  0
 18 19  2  0  0  0
 18101  1  0  0  0
 19 20  1  0  0  0
 19 24  1  0  0  0
 20 21  2  0  0  0
 20102  1  0  0  0
 21 23  1  0  0  0
 22 28  1  0  0  0
 22 32  2  0  0  0
 26 27  1  0  0  0
 28103  1  0  0  0
 28104  1  0  0  0
 29105  1  0  0  0
 29106  1  0  0  0
 33 34  1  0  0  0
 33 66  1  0  0  0
 33 70  2  0  0  0
 34 36  1  0  0  0
 34 59  1  0  0  0
 34107  1  0  0  0
 35 44  2  0  0  0
 35 45  1  0  0  0
 35 68  1  0  0  0
 36 56  1  0  0  0
 36108  1  0  0  0
 37 39  1  0  0  0
 37 47  1  0  0  0
 37 66  1  0  0  0
 37109  1  0  0  0
 38 43  2  0  0  0
 38 46  1  0  0  0
 38 47  1  0  0  0
 39 64  1  0  0  0
 39 67  2  0  0  0
 40 52  1  0  0  0
 40 53  2  0  0  0
 40 58  1  0  0  0
 41110  1  0  0  0
 41111  1  0  0  0
 41112  1  0  0  0
 41 48  1  0  0  0
 42 43  1  0  0  0
 42 66  1  0  0  0
 42113  1  0  0  0
 42114  1  0  0  0
 43 44  1  0  0  0
 44115  1  0  0  0
 45 46  2  0  0  0
 45116  1  0  0  0
 46117  1  0  0  0
 47118  1  0  0  0
 47119  1  0  0  0
 48 56  1  0  0  0
 48 65  1  0  0  0
 48120  1  0  0  0
 49 50  1  0  0  0
 49 53  1  0  0  0
 49 64  1  0  0  0
 49121  1  0  0  0
 50 51  1  0  0  0
 50122  1  0  0  0
 50123  1  0  0  0
 51 52  1  0  0  0
 51124  1  0  0  0
 51125  1  0  0  0
 52126  1  0  0  0
 52127  1  0  0  0
 53 54  1  0  0  0
 54 55  2  0  0  0
 54128  1  0  0  0
 55 57  1  0  0  0
 55129  1  0  0  0
 56 69  2  0  0  0
 57 58  2  0  0  0
 57130  1  0  0  0
 58131  1  0  0  0
 59 60  1  0  0  0
 59 61  1  0  0  0
 59 62  1  0  0  0
 60132  1  0  0  0
 60133  1  0  0  0
 60134  1  0  0  0
 61135  1  0  0  0
 61136  1  0  0  0
 61137  1  0  0  0
 62138  1  0  0  0
 62139  1  0  0  0
 62140  1  0  0  0
 63 65  1  0  0  0
 63141  1  0  0  0
 63142  1  0  0  0
 63143  1  0  0  0
 64144  1  0  0  0
 65145  1  0  0  0
 68 83  1  0  0  0
 71 72  2  0  0  0
 71 73  1  0  0  0
 71146  1  0  0  0
 72 76  1  0  0  0
 72147  1  0  0  0
 73 74  2  0  0  0
 73 81  1  0  0  0
 74 75  1  0  0  0
 74 83  1  0  0  0
 75 76  2  0  0  0
 75 82  1  0  0  0
 76 84  1  0  0  0
 77 79  1  0  0  0
 77 84  1  0  0  0
 77148  1  0  0  0
 77149  1  0  0  0
 78 80  1  0  0  0
 78 84  1  0  0  0
 78150  1  0  0  0
 78151  1  0  0  0
 79 80  1  0  0  0
 79 85  1  0  0  0
 79152  1  0  0  0
 80 86  1  0  0  0
 80153  1  0  0  0
 81154  1  0  0  0
 81155  1  0  0  0
 81156  1  0  0  0
 82157  1  0  0  0
 82158  1  0  0  0
 82159  1  0  0  0
 83160  1  0  0  0
 83161  1  0  0  0
 85162  1  0  0  0
 86163  1  0  0  0
 86164  1  0  0  0
 86165  1  0  0  0
M  CHG  1  86   1
M  ISO  4   1 100  68 101  83 101  85 100
M  END
> <chiral flag>
0

> <version>
0

> <s_m_source_file>
/data/baiqing/PycharmProjects/Reinvent-master-3.2/result/LINK_invent/BTK/process_docking_weight1_custom_sum_contain_oxygen_bond_distance_aromatic_linkinvent_7_9_3/rearranged_h_0165.sdf

> <i_m_source_file_index>
8

> <r_mmod_Potential_Energy-OPLS-2005>
36.5027809143066

> <r_mmod_Stretch_Energy-OPLS-2005>
147.086166381836

> <r_mmod_Bend_Energy-OPLS-2005>
241.337539672852

> <r_mmod_Torsional_Energy-OPLS-2005>
363.756225585938

> <r_mmod_Improper_Torsional_Energy-OPLS-2005>
15.1183757781982

> <r_mmod_Van_der_Waal_Energy-OPLS-2005>
128.591690063477

> <r_mmod_Electrostatic_Energy-OPLS-2005>
-476.778076171875

> <r_mmod_Solvation_Energy-OPLS-2005>
-491.763092041016

> <b_mmod_Minimization_Converged-OPLS-2005>
0

> <r_mmod_RMS_Derivative-OPLS-2005>
6.33088970184326

$$$$
8
                    3D
 Structure written by MMmdl.
167176  0  0  1  0            999 V2000
  -30.6569  -14.6738   20.4484 C   0  0  0  0  0  0
  -30.4190  -12.4102   19.4552 C   0  0  0  0  0  0
  -29.4956  -12.4940   18.2227 C   0  0  0  0  0  0
  -28.0222  -12.3321   18.6428 C   0  0  0  0  0  0
  -27.6396  -13.2290   19.8512 C   0  0  2  0  0  0
  -28.6894  -13.1575   20.9810 C   0  0  0  0  0  0
  -25.2506  -13.8191   20.5708 C   0  0  0  0  0  0
  -24.1793  -13.0444   20.9199 C   0  0  0  0  0  0
  -24.6379  -11.6918   20.8754 C   0  0  0  0  0  0
  -23.9063  -10.4292   21.0409 C   0  0  0  0  0  0
  -24.3619   -9.4204   21.9185 C   0  0  0  0  0  0
  -23.6292   -8.2240   22.0753 C   0  0  0  0  0  0
  -22.4275   -8.0275   21.3539 C   0  0  0  0  0  0
  -21.9909   -9.0251   20.4644 C   0  0  0  0  0  0
  -22.7236  -10.2129   20.3057 C   0  0  0  0  0  0
  -21.6851   -6.0735   22.5272 C   0  0  0  0  0  0
  -21.4017   -6.5642   23.8205 C   0  0  0  0  0  0
  -21.3662   -5.6795   24.9171 C   0  0  0  0  0  0
  -21.6043   -4.3057   24.7223 C   0  0  0  0  0  0
  -21.8819   -3.8147   23.4346 C   0  0  0  0  0  0
  -21.9190   -4.6962   22.3401 C   0  0  0  0  0  0
  -22.7815  -13.5221   21.1852 C   0  0  0  0  0  0
  -22.1656   -4.2145   21.0981 F   0  0  0  0  0  0
  -21.5628   -3.4543   25.7740 F   0  0  0  0  0  0
  -29.9916  -13.4754   20.3862 N   0  0  0  0  0  0
  -26.2930  -12.9393   20.3324 N   0  0  0  0  0  0
  -25.9314  -11.6540   20.5796 N   0  0  0  0  0  0
  -22.0467  -12.8214   22.0413 N   0  0  0  0  0  0
  -25.4224  -15.1917   20.4146 N   0  0  0  0  0  0
  -31.8591  -14.7285   20.1708 O   0  0  0  0  0  0
  -21.6640   -6.8874   21.4233 O   0  0  0  0  0  0
  -22.3500  -14.5526   20.6698 O   0  0  0  0  0  0
  -24.6295  -31.8585   23.1998 C   0  0  0  0  0  0
  -25.9133  -32.4766   23.8335 C   0  0  1  0  0  0
  -27.2164  -27.2907   20.1112 C   0  0  0  0  0  0
  -25.5931  -33.8562   24.2272 N   0  0  0  0  0  0
  -23.4222  -30.4823   21.5454 C   0  0  2  0  0  0
  -24.8640  -28.9355   20.1114 C   0  0  0  0  0  0
  -22.7487  -29.4616   22.4938 C   0  0  0  0  0  0
  -18.0286  -28.1380   22.8489 C   0  0  0  0  0  0
  -24.1490  -36.7301   23.2635 C   0  0  0  0  0  0
  -25.9648  -30.7824   21.3720 C   0  0  0  0  0  0
  -26.0349  -29.4050   20.7172 C   0  0  0  0  0  0
  -27.2095  -28.5927   20.7109 C   0  0  0  0  0  0
  -26.0179  -26.8850   19.4771 C   0  0  0  0  0  0
  -24.8600  -27.6823   19.4839 C   0  0  0  0  0  0
  -23.6351  -29.8184   20.1609 C   0  0  0  0  0  0
  -25.4111  -36.3076   24.0329 C   0  0  1  0  0  0
  -20.5887  -28.3692   23.1283 C   0  0  2  0  0  0
  -20.6774  -26.9418   22.5407 C   0  0  0  0  0  0
  -19.5749  -26.6389   21.5207 C   0  0  0  0  0  0
  -18.1928  -26.7924   22.1622 C   0  0  0  0  0  0
  -19.1538  -28.8854   23.2880 C   0  0  0  0  0  0
  -18.9458  -30.1455   23.8903 C   0  0  0  0  0  0
  -17.6457  -30.6586   24.0566 C   0  0  0  0  0  0
  -25.9051  -34.9442   23.5104 C   0  0  0  0  0  0
  -16.5351  -29.9086   23.6325 C   0  0  0  0  0  0
  -16.7270  -28.6497   23.0356 C   0  0  0  0  0  0
  -26.4501  -31.6563   25.0702 C   0  0  0  0  0  0
  -25.3735  -31.3715   26.1435 C   0  0  0  0  0  0
  -27.0335  -30.2983   24.6136 C   0  0  0  0  0  0
  -27.6064  -32.4285   25.7484 C   0  0  0  0  0  0
  -27.5578  -37.1807   24.8465 C   0  0  0  0  0  0
  -21.4197  -29.3046   22.3685 N   0  0  0  0  0  0
  -26.4289  -37.3775   23.9406 N   0  0  0  0  0  0
  -24.6917  -31.0578   22.0956 N   0  0  0  0  0  0
  -23.4208  -28.8156   23.3020 O   0  0  0  0  0  0
  -28.3471  -26.4530   20.1825 O   0  0  0  0  0  0
  -26.5621  -34.8915   22.4670 O   0  0  0  0  0  0
  -23.5457  -32.1377   23.7319 O   0  0  0  0  0  0
  -30.6982  -20.1341   19.1437 C   0  0  0  0  0  0
  -31.2191  -21.3595   18.7007 C   0  0  0  0  0  0
  -30.6410  -22.5727   19.1546 C   0  0  0  0  0  0
  -29.5137  -22.5241   20.0295 C   0  0  0  0  0  0
  -29.6218  -20.1072   20.0349 C   0  0  0  0  0  0
  -28.6919  -17.8388   19.4403 C   0  0  0  0  0  0
  -29.5893  -18.1825   21.6864 C   0  0  0  0  0  0
  -29.5998  -16.5603   19.3089 C   0  0  0  0  0  0
  -30.4877  -16.9075   21.4726 C   0  0  0  0  0  0
  -32.4156  -21.3329   17.7621 C   0  0  0  0  0  0
  -31.2826  -23.8859   18.7051 C   0  0  0  0  0  0
  -29.7571  -24.3697   21.8081 C   0  0  0  0  0  0
  -28.3673  -25.0383   19.6954 C   0  0  0  0  0  0
  -28.8823  -23.8477   20.6532 C   0  0  1  0  0  0
  -29.0500  -21.2877   20.4665 N   0  0  0  0  0  0
  -29.1345  -18.8211   20.4445 N   0  0  0  0  0  0
  -29.9369  -15.8517   20.5747 N   0  0  0  0  0  0
  -31.4629  -12.5129   19.1512 H   0  0  0  0  0  0
  -30.3397  -11.4321   19.9329 H   0  0  0  0  0  0
  -29.7626  -11.7277   17.4944 H   0  0  0  0  0  0
  -29.6320  -13.4536   17.7219 H   0  0  0  0  0  0
  -27.8676  -11.2829   18.8996 H   0  0  0  0  0  0
  -27.3626  -12.5329   17.7975 H   0  0  0  0  0  0
  -27.6331  -14.2529   19.4787 H   0  0  0  0  0  0
  -28.7112  -12.1661   21.4369 H   0  0  0  0  0  0
  -28.4417  -13.8607   21.7787 H   0  0  0  0  0  0
  -25.2763   -9.5687   22.4761 H   0  0  0  0  0  0
  -23.9999   -7.4642   22.7483 H   0  0  0  0  0  0
  -21.0833   -8.8778   19.8956 H   0  0  0  0  0  0
  -22.3689  -10.9677   19.6177 H   0  0  0  0  0  0
  -21.2010   -7.6151   23.9710 H   0  0  0  0  0  0
  -21.1485   -6.0527   25.9074 H   0  0  0  0  0  0
  -22.0592   -2.7605   23.2853 H   0  0  0  0  0  0
  -22.4089  -11.9880   22.4805 H   0  0  0  0  0  0
  -21.1089  -13.1233   22.2626 H   0  0  0  0  0  0
  -24.6622  -15.8511   20.5419 H   0  0  0  0  0  0
  -26.2881  -15.6310   20.1315 H   0  0  0  0  0  0
  -26.7203  -32.5438   23.1089 H   0  0  0  0  0  0
  -25.0069  -33.9694   25.0412 H   0  0  0  0  0  0
  -22.7153  -31.3023   21.4029 H   0  0  0  0  0  0
  -23.3735  -35.9652   23.3291 H   0  0  0  0  0  0
  -24.3594  -36.8923   22.2053 H   0  0  0  0  0  0
  -23.7258  -37.6507   23.6661 H   0  0  0  0  0  0
  -26.0910  -31.5407   20.5977 H   0  0  0  0  0  0
  -26.8495  -30.8399   21.9953 H   0  0  0  0  0  0
  -28.1075  -28.9480   21.1969 H   0  0  0  0  0  0
  -25.9137  -25.9421   18.9677 H   0  0  0  0  0  0
  -23.9639  -27.3175   19.0012 H   0  0  0  0  0  0
  -23.7564  -30.5944   19.4040 H   0  0  0  0  0  0
  -22.7531  -29.2500   19.8600 H   0  0  0  0  0  0
  -25.1289  -36.1932   25.0822 H   0  0  0  0  0  0
  -20.9971  -28.3271   24.1405 H   0  0  0  0  0  0
  -20.5668  -26.2306   23.3611 H   0  0  0  0  0  0
  -21.6643  -26.7446   22.1204 H   0  0  0  0  0  0
  -19.6916  -25.6300   21.1234 H   0  0  0  0  0  0
  -19.6677  -27.3200   20.6737 H   0  0  0  0  0  0
  -17.4196  -26.6667   21.4026 H   0  0  0  0  0  0
  -18.0336  -26.0063   22.9015 H   0  0  0  0  0  0
  -19.7941  -30.7264   24.2271 H   0  0  0  0  0  0
  -17.5019  -31.6264   24.5168 H   0  0  0  0  0  0
  -15.5352  -30.2995   23.7638 H   0  0  0  0  0  0
  -15.8669  -28.0815   22.7077 H   0  0  0  0  0  0
  -24.5934  -30.7018   25.7789 H   0  0  0  0  0  0
  -24.8895  -32.2884   26.4810 H   0  0  0  0  0  0
  -25.8074  -30.8954   27.0239 H   0  0  0  0  0  0
  -26.2900  -29.6735   24.1166 H   0  0  0  0  0  0
  -27.4044  -29.7227   25.4623 H   0  0  0  0  0  0
  -27.8765  -30.4247   23.9341 H   0  0  0  0  0  0
  -27.2677  -33.3592   26.2048 H   0  0  0  0  0  0
  -28.3900  -32.6820   25.0331 H   0  0  0  0  0  0
  -28.0700  -31.8404   26.5415 H   0  0  0  0  0  0
  -28.2596  -38.0100   24.7502 H   0  0  0  0  0  0
  -28.1072  -36.2630   24.6303 H   0  0  0  0  0  0
  -27.2302  -37.1482   25.8869 H   0  0  0  0  0  0
  -20.9376  -29.8779   21.6906 H   0  0  0  0  0  0
  -26.0165  -38.2853   24.1388 H   0  0  0  0  0  0
  -31.1464  -19.2083   18.8101 H   0  0  0  0  0  0
  -27.6760  -17.5390   19.7005 H   0  0  0  0  0  0
  -28.6140  -18.3257   18.4661 H   0  0  0  0  0  0
  -28.7062  -17.9041   22.2616 H   0  0  0  0  0  0
  -30.1286  -18.9153   22.2888 H   0  0  0  0  0  0
  -30.5313  -16.8435   18.8138 H   0  0  0  0  0  0
  -29.1143  -15.8648   18.6233 H   0  0  0  0  0  0
  -30.7015  -16.4624   22.4461 H   0  0  0  0  0  0
  -31.4551  -17.2314   21.0826 H   0  0  0  0  0  0
  -32.2892  -22.0336   16.9363 H   0  0  0  0  0  0
  -32.5569  -20.3432   17.3264 H   0  0  0  0  0  0
  -33.3299  -21.5864   18.3004 H   0  0  0  0  0  0
  -32.3696  -23.8090   18.6997 H   0  0  0  0  0  0
  -31.0662  -24.7320   19.3503 H   0  0  0  0  0  0
  -30.9608  -24.1399   17.6948 H   0  0  0  0  0  0
  -30.7230  -24.7455   21.4746 H   0  0  0  0  0  0
  -29.9494  -23.5742   22.5282 H   0  0  0  0  0  0
  -29.2575  -25.1816   22.3368 H   0  0  0  0  0  0
  -27.4123  -24.6929   19.3200 H   0  0  0  0  0  0
  -28.9736  -25.0755   18.7955 H   0  0  0  0  0  0
  -27.9727  -23.5019   21.1480 H   0  0  0  0  0  0
  1 25  1  0  0  0
  1 30  2  0  0  0
  1 87  1  0  0  0
  2  3  1  0  0  0
  2 25  1  0  0  0
  2 88  1  0  0  0
  2 89  1  0  0  0
  3  4  1  0  0  0
  3 90  1  0  0  0
  3 91  1  0  0  0
  4  5  1  0  0  0
  4 92  1  0  0  0
  4 93  1  0  0  0
  5  6  1  0  0  0
  5 26  1  0  0  0
  5 94  1  0  0  0
  6 25  1  0  0  0
  6 95  1  0  0  0
  6 96  1  0  0  0
  7  8  2  0  0  0
  7 26  1  0  0  0
  7 29  1  0  0  0
  8  9  1  0  0  0
  8 22  1  0  0  0
  9 10  1  0  0  0
  9 27  2  0  0  0
 10 11  2  0  0  0
 10 15  1  0  0  0
 11 12  1  0  0  0
 11 97  1  0  0  0
 12 13  2  0  0  0
 12 98  1  0  0  0
 13 14  1  0  0  0
 13 31  1  0  0  0
 14 15  2  0  0  0
 14 99  1  0  0  0
 15100  1  0  0  0
 16 17  2  0  0  0
 16 21  1  0  0  0
 16 31  1  0  0  0
 17 18  1  0  0  0
 17101  1  0  0  0
 18 19  2  0  0  0
 18102  1  0  0  0
 19 20  1  0  0  0
 19 24  1  0  0  0
 20 21  2  0  0  0
 20103  1  0  0  0
 21 23  1  0  0  0
 22 28  1  0  0  0
 22 32  2  0  0  0
 26 27  1  0  0  0
 28104  1  0  0  0
 28105  1  0  0  0
 29106  1  0  0  0
 29107  1  0  0  0
 33 34  1  0  0  0
 33 66  1  0  0  0
 33 70  2  0  0  0
 34 36  1  0  0  0
 34 59  1  0  0  0
 34108  1  0  0  0
 35 44  2  0  0  0
 35 45  1  0  0  0
 35 68  1  0  0  0
 36 56  1  0  0  0
 36109  1  0  0  0
 37 39  1  0  0  0
 37 47  1  0  0  0
 37 66  1  0  0  0
 37110  1  0  0  0
 38 43  2  0  0  0
 38 46  1  0  0  0
 38 47  1  0  0  0
 39 64  1  0  0  0
 39 67  2  0  0  0
 40 52  1  0  0  0
 40 53  2  0  0  0
 40 58  1  0  0  0
 41111  1  0  0  0
 41112  1  0  0  0
 41113  1  0  0  0
 41 48  1  0  0  0
 42 43  1  0  0  0
 42 66  1  0  0  0
 42114  1  0  0  0
 42115  1  0  0  0
 43 44  1  0  0  0
 44116  1  0  0  0
 45 46  2  0  0  0
 45117  1  0  0  0
 46118  1  0  0  0
 47119  1  0  0  0
 47120  1  0  0  0
 48 56  1  0  0  0
 48 65  1  0  0  0
 48121  1  0  0  0
 49 50  1  0  0  0
 49 53  1  0  0  0
 49 64  1  0  0  0
 49122  1  0  0  0
 50 51  1  0  0  0
 50123  1  0  0  0
 50124  1  0  0  0
 51 52  1  0  0  0
 51125  1  0  0  0
 51126  1  0  0  0
 52127  1  0  0  0
 52128  1  0  0  0
 53 54  1  0  0  0
 54 55  2  0  0  0
 54129  1  0  0  0
 55 57  1  0  0  0
 55130  1  0  0  0
 56 69  2  0  0  0
 57 58  2  0  0  0
 57131  1  0  0  0
 58132  1  0  0  0
 59 60  1  0  0  0
 59 61  1  0  0  0
 59 62  1  0  0  0
 60133  1  0  0  0
 60134  1  0  0  0
 60135  1  0  0  0
 61136  1  0  0  0
 61137  1  0  0  0
 61138  1  0  0  0
 62139  1  0  0  0
 62140  1  0  0  0
 62141  1  0  0  0
 63 65  1  0  0  0
 63142  1  0  0  0
 63143  1  0  0  0
 63144  1  0  0  0
 64145  1  0  0  0
 65146  1  0  0  0
 68 83  1  0  0  0
 71 72  2  0  0  0
 71 75  1  0  0  0
 71147  1  0  0  0
 72 73  1  0  0  0
 72 80  1  0  0  0
 73 74  2  0  0  0
 73 81  1  0  0  0
 74 84  1  0  0  0
 74 85  1  0  0  0
 75 85  2  0  0  0
 75 86  1  0  0  0
 76 78  1  0  0  0
 76 86  1  0  0  0
 76148  1  0  0  0
 76149  1  0  0  0
 77 79  1  0  0  0
 77 86  1  0  0  0
 77150  1  0  0  0
 77151  1  0  0  0
 78 87  1  0  0  0
 78152  1  0  0  0
 78153  1  0  0  0
 79 87  1  0  0  0
 79154  1  0  0  0
 79155  1  0  0  0
 80156  1  0  0  0
 80157  1  0  0  0
 80158  1  0  0  0
 81159  1  0  0  0
 81160  1  0  0  0
 81161  1  0  0  0
 82162  1  0  0  0
 82163  1  0  0  0
 82164  1  0  0  0
 82 84  1  0  0  0
 83 84  1  0  0  0
 83165  1  0  0  0
 83166  1  0  0  0
 84167  1  0  0  0
M  ISO  4   1 100  68 101  83 101  87 100
M  END
> <chiral flag>
0

> <version>
0

> <s_m_source_file>
/data/baiqing/PycharmProjects/Reinvent-master-3.2/result/LINK_invent/BTK/process_docking_weight1_custom_sum_contain_oxygen_bond_distance_aromatic_linkinvent_7_9_3/rearranged_h_0165.sdf

> <i_m_source_file_index>
9

> <r_mmod_Potential_Energy-OPLS-2005>
128.750961303711

> <r_mmod_Stretch_Energy-OPLS-2005>
98.1432571411133

> <r_mmod_Bend_Energy-OPLS-2005>
184.438140869141

> <r_mmod_Torsional_Energy-OPLS-2005>
369.590698242188

> <r_mmod_Improper_Torsional_Energy-OPLS-2005>
13.2681999206543

> <r_mmod_Van_der_Waal_Energy-OPLS-2005>
154.244567871094

> <r_mmod_Electrostatic_Energy-OPLS-2005>
-525.683776855469

> <r_mmod_Solvation_Energy-OPLS-2005>
-228.86311340332

> <b_mmod_Minimization_Converged-OPLS-2005>
0

> <r_mmod_RMS_Derivative-OPLS-2005>
1.64827466011047

$$$$
9
                    3D
 Structure written by MMmdl.
153162  0  0  1  0            999 V2000
  -30.4552  -15.3864   20.3313 C   0  0  0  0  0  0
  -30.4287  -12.9078   19.4862 C   0  0  0  0  0  0
  -29.5254  -12.5854   18.2714 C   0  0  0  0  0  0
  -28.0933  -12.2742   18.7370 C   0  0  0  0  0  0
  -27.6032  -13.2832   19.8047 C   0  0  2  0  0  0
  -28.6459  -13.5526   20.9127 C   0  0  0  0  0  0
  -25.2391  -13.8262   20.5787 C   0  0  0  0  0  0
  -24.1751  -13.0417   20.9267 C   0  0  0  0  0  0
  -24.6421  -11.6924   20.8766 C   0  0  0  0  0  0
  -23.9120  -10.4277   21.0402 C   0  0  0  0  0  0
  -24.3667   -9.4191   21.9187 C   0  0  0  0  0  0
  -23.6312   -8.2237   22.0763 C   0  0  0  0  0  0
  -22.4285   -8.0300   21.3561 C   0  0  0  0  0  0
  -21.9923   -9.0276   20.4670 C   0  0  0  0  0  0
  -22.7279  -10.2128   20.3067 C   0  0  0  0  0  0
  -21.6845   -6.0747   22.5280 C   0  0  0  0  0  0
  -21.4033   -6.5648   23.8218 C   0  0  0  0  0  0
  -21.3666   -5.6804   24.9179 C   0  0  0  0  0  0
  -21.6035   -4.3063   24.7227 C   0  0  0  0  0  0
  -21.8815   -3.8154   23.4339 C   0  0  0  0  0  0
  -21.9179   -4.6976   22.3392 C   0  0  0  0  0  0
  -22.7772  -13.5171   21.1883 C   0  0  0  0  0  0
  -22.1645   -4.2160   21.0973 F   0  0  0  0  0  0
  -21.5616   -3.4547   25.7738 F   0  0  0  0  0  0
  -29.8371  -14.0932   20.2289 N   0  0  0  0  0  0
  -26.2829  -12.9545   20.3258 N   0  0  0  0  0  0
  -25.9364  -11.6638   20.5758 N   0  0  0  0  0  0
  -22.0414  -12.8188   22.0455 N   0  0  0  0  0  0
  -25.3969  -15.2002   20.4237 N   0  0  0  0  0  0
  -31.6894  -15.2591   20.2430 O   0  0  0  0  0  0
  -21.6633   -6.8901   21.4249 O   0  0  0  0  0  0
  -22.3460  -14.5449   20.6679 O   0  0  0  0  0  0
  -24.6706  -31.8152   23.1668 C   0  0  0  0  0  0
  -25.9355  -32.4548   23.8155 C   0  0  1  0  0  0
  -27.2181  -26.8474   20.2049 C   0  0  0  0  0  0
  -25.5985  -33.8367   24.2046 N   0  0  0  0  0  0
  -23.4909  -30.4239   21.5154 C   0  0  2  0  0  0
  -24.9462  -28.7942   20.1198 C   0  0  0  0  0  0
  -22.7711  -29.4382   22.4741 C   0  0  0  0  0  0
  -18.0323  -28.1411   22.8440 C   0  0  0  0  0  0
  -24.1495  -36.7193   23.2654 C   0  0  0  0  0  0
  -26.0657  -30.5937   21.4130 C   0  0  0  0  0  0
  -26.1312  -29.1744   20.7614 C   0  0  0  0  0  0
  -27.2622  -28.2251   20.7757 C   0  0  0  0  0  0
  -26.0034  -26.6417   19.5126 C   0  0  0  0  0  0
  -24.9108  -27.5491   19.4726 C   0  0  0  0  0  0
  -23.7396  -29.7357   20.1435 C   0  0  0  0  0  0
  -25.4143  -36.2949   24.0295 C   0  0  1  0  0  0
  -20.5952  -28.3762   23.1153 C   0  0  2  0  0  0
  -20.6800  -26.9436   22.5389 C   0  0  0  0  0  0
  -19.5776  -26.6368   21.5200 C   0  0  0  0  0  0
  -18.1956  -26.7935   22.1607 C   0  0  0  0  0  0
  -19.1584  -28.8907   23.2779 C   0  0  0  0  0  0
  -18.9500  -30.1496   23.8826 C   0  0  0  0  0  0
  -17.6492  -30.6600   24.0548 C   0  0  0  0  0  0
  -25.9100  -34.9329   23.4994 C   0  0  0  0  0  0
  -16.5382  -29.9084   23.6347 C   0  0  0  0  0  0
  -16.7301  -28.6505   23.0353 C   0  0  0  0  0  0
  -26.4563  -31.6538   25.0732 C   0  0  0  0  0  0
  -25.3657  -31.3820   26.1360 C   0  0  0  0  0  0
  -27.0502  -30.2899   24.6566 C   0  0  0  0  0  0
  -27.6039  -32.4368   25.7543 C   0  0  0  0  0  0
  -27.5557  -37.1779   24.8476 C   0  0  0  0  0  0
  -21.4372  -29.3040   22.3496 N   0  0  0  0  0  0
  -26.4293  -37.3681   23.9377 N   0  0  0  0  0  0
  -24.7640  -30.9728   22.0837 N   0  0  0  0  0  0
  -23.4224  -28.7951   23.3013 O   0  0  0  0  0  0
  -28.2061  -25.7008   20.2312 O   0  0  0  0  0  0
  -26.5714  -34.8871   22.4595 O   0  0  0  0  0  0
  -23.5754  -32.1156   23.6688 O   0  0  0  0  0  0
  -29.7908  -22.4189   19.1965 C   0  0  0  0  0  0
  -29.2271  -19.7588   20.2497 C   0  0  0  0  0  0
  -28.7367  -22.5082   20.1439 C   0  0  0  0  0  0
  -28.4993  -21.0637   20.6617 C   0  0  0  0  0  0
  -30.1782  -20.0134   19.2636 C   0  0  0  0  0  0
  -29.1692  -18.0798   20.7249 C   0  0  0  0  0  0
  -30.9911  -18.8136   18.7181 C   0  0  0  0  0  0
  -30.3148  -17.3701   18.7130 C   0  0  0  0  0  0
  -27.4034  -20.8963   21.7001 C   0  0  0  0  0  0
  -27.8838  -24.0566   20.4144 C   0  0  0  0  0  0
  -30.4455  -21.2735   18.7897 N   0  0  0  0  0  0
  -29.8637  -16.7535   20.0056 N   0  0  0  0  0  0
  -31.4345  -13.1220   19.1201 H   0  0  0  0  0  0
  -30.5354  -12.0407   20.1411 H   0  0  0  0  0  0
  -29.9309  -11.7488   17.6983 H   0  0  0  0  0  0
  -29.5142  -13.4404   17.5943 H   0  0  0  0  0  0
  -28.1013  -11.2703   19.1651 H   0  0  0  0  0  0
  -27.4091  -12.2412   17.8865 H   0  0  0  0  0  0
  -27.4874  -14.2206   19.2586 H   0  0  0  0  0  0
  -28.8655  -12.6542   21.4938 H   0  0  0  0  0  0
  -28.2666  -14.2960   21.6142 H   0  0  0  0  0  0
  -25.2816   -9.5648   22.4753 H   0  0  0  0  0  0
  -24.0008   -7.4620   22.7474 H   0  0  0  0  0  0
  -21.0836   -8.8819   19.8982 H   0  0  0  0  0  0
  -22.3759  -10.9675   19.6181 H   0  0  0  0  0  0
  -21.2065   -7.6165   23.9725 H   0  0  0  0  0  0
  -21.1487   -6.0537   25.9081 H   0  0  0  0  0  0
  -22.0580   -2.7618   23.2829 H   0  0  0  0  0  0
  -22.4035  -11.9924   22.4952 H   0  0  0  0  0  0
  -21.1021  -13.1246   22.2584 H   0  0  0  0  0  0
  -24.6215  -15.8448   20.5376 H   0  0  0  0  0  0
  -26.2493  -15.6527   20.1146 H   0  0  0  0  0  0
  -26.7438  -32.5062   23.0876 H   0  0  0  0  0  0
  -25.0090  -33.9428   25.0165 H   0  0  0  0  0  0
  -22.8104  -31.2586   21.3370 H   0  0  0  0  0  0
  -23.3744  -35.9540   23.3349 H   0  0  0  0  0  0
  -24.3550  -36.8800   22.2063 H   0  0  0  0  0  0
  -23.7291  -37.6411   23.6684 H   0  0  0  0  0  0
  -26.2606  -31.3278   20.6296 H   0  0  0  0  0  0
  -26.9200  -30.6517   22.0752 H   0  0  0  0  0  0
  -28.1586  -28.5154   21.3043 H   0  0  0  0  0  0
  -25.8660  -25.6983   19.0049 H   0  0  0  0  0  0
  -24.0145  -27.2524   18.9448 H   0  0  0  0  0  0
  -23.9148  -30.5029   19.3877 H   0  0  0  0  0  0
  -22.8472  -29.1995   19.8154 H   0  0  0  0  0  0
  -25.1352  -36.1752   25.0790 H   0  0  0  0  0  0
  -21.0026  -28.3382   24.1279 H   0  0  0  0  0  0
  -20.5666  -26.2387   23.3637 H   0  0  0  0  0  0
  -21.6671  -26.7395   22.1216 H   0  0  0  0  0  0
  -19.6946  -25.6257   21.1279 H   0  0  0  0  0  0
  -19.6726  -27.3135   20.6693 H   0  0  0  0  0  0
  -17.4226  -26.6640   21.4020 H   0  0  0  0  0  0
  -18.0379  -26.0103   22.9036 H   0  0  0  0  0  0
  -19.7980  -30.7319   24.2176 H   0  0  0  0  0  0
  -17.5049  -31.6271   24.5170 H   0  0  0  0  0  0
  -15.5379  -30.2972   23.7712 H   0  0  0  0  0  0
  -15.8695  -28.0810   22.7104 H   0  0  0  0  0  0
  -24.5852  -30.7153   25.7660 H   0  0  0  0  0  0
  -24.8827  -32.3034   26.4632 H   0  0  0  0  0  0
  -25.7853  -30.9090   27.0247 H   0  0  0  0  0  0
  -26.3213  -29.6525   24.1556 H   0  0  0  0  0  0
  -27.3963  -29.7326   25.5281 H   0  0  0  0  0  0
  -27.9170  -30.4054   24.0060 H   0  0  0  0  0  0
  -27.2591  -33.3707   26.1989 H   0  0  0  0  0  0
  -28.3925  -32.6869   25.0436 H   0  0  0  0  0  0
  -28.0625  -31.8594   26.5577 H   0  0  0  0  0  0
  -28.2623  -38.0024   24.7425 H   0  0  0  0  0  0
  -28.1002  -36.2548   24.6434 H   0  0  0  0  0  0
  -27.2247  -37.1584   25.8875 H   0  0  0  0  0  0
  -20.9641  -29.8750   21.6625 H   0  0  0  0  0  0
  -26.0139  -38.2750   24.1320 H   0  0  0  0  0  0
  -30.1265  -23.3233   18.7075 H   0  0  0  0  0  0
  -28.1060  -17.8375   20.7628 H   0  0  0  0  0  0
  -29.4954  -18.0592   21.7656 H   0  0  0  0  0  0
  -31.9380  -18.7725   19.2597 H   0  0  0  0  0  0
  -31.2602  -19.0525   17.6859 H   0  0  0  0  0  0
  -31.0023  -16.6963   18.1983 H   0  0  0  0  0  0
  -29.4434  -17.4150   18.0581 H   0  0  0  0  0  0
  -27.1914  -19.8428   21.8855 H   0  0  0  0  0  0
  -26.4745  -21.3608   21.3695 H   0  0  0  0  0  0
  -27.6990  -21.3451   22.6487 H   0  0  0  0  0  0
  -27.5891  -23.9869   21.4629 H   0  0  0  0  0  0
  -26.9502  -23.9031   19.8776 H   0  0  0  0  0  0
  1 25  1  0  0  0
  1 30  2  0  0  0
  1 82  1  0  0  0
  2  3  1  0  0  0
  2 25  1  0  0  0
  2 83  1  0  0  0
  2 84  1  0  0  0
  3  4  1  0  0  0
  3 85  1  0  0  0
  3 86  1  0  0  0
  4  5  1  0  0  0
  4 87  1  0  0  0
  4 88  1  0  0  0
  5  6  1  0  0  0
  5 26  1  0  0  0
  5 89  1  0  0  0
  6 25  1  0  0  0
  6 90  1  0  0  0
  6 91  1  0  0  0
  7  8  2  0  0  0
  7 26  1  0  0  0
  7 29  1  0  0  0
  8  9  1  0  0  0
  8 22  1  0  0  0
  9 10  1  0  0  0
  9 27  2  0  0  0
 10 11  2  0  0  0
 10 15  1  0  0  0
 11 12  1  0  0  0
 11 92  1  0  0  0
 12 13  2  0  0  0
 12 93  1  0  0  0
 13 14  1  0  0  0
 13 31  1  0  0  0
 14 15  2  0  0  0
 14 94  1  0  0  0
 15 95  1  0  0  0
 16 17  2  0  0  0
 16 21  1  0  0  0
 16 31  1  0  0  0
 17 18  1  0  0  0
 17 96  1  0  0  0
 18 19  2  0  0  0
 18 97  1  0  0  0
 19 20  1  0  0  0
 19 24  1  0  0  0
 20 21  2  0  0  0
 20 98  1  0  0  0
 21 23  1  0  0  0
 22 28  1  0  0  0
 22 32  2  0  0  0
 26 27  1  0  0  0
 28 99  1  0  0  0
 28100  1  0  0  0
 29101  1  0  0  0
 29102  1  0  0  0
 33 34  1  0  0  0
 33 66  1  0  0  0
 33 70  2  0  0  0
 34 36  1  0  0  0
 34 59  1  0  0  0
 34103  1  0  0  0
 35 44  2  0  0  0
 35 45  1  0  0  0
 35 68  1  0  0  0
 36 56  1  0  0  0
 36104  1  0  0  0
 37 39  1  0  0  0
 37 47  1  0  0  0
 37 66  1  0  0  0
 37105  1  0  0  0
 38 43  2  0  0  0
 38 46  1  0  0  0
 38 47  1  0  0  0
 39 64  1  0  0  0
 39 67  2  0  0  0
 40 52  1  0  0  0
 40 53  2  0  0  0
 40 58  1  0  0  0
 41106  1  0  0  0
 41107  1  0  0  0
 41108  1  0  0  0
 41 48  1  0  0  0
 42 43  1  0  0  0
 42 66  1  0  0  0
 42109  1  0  0  0
 42110  1  0  0  0
 43 44  1  0  0  0
 44111  1  0  0  0
 45 46  2  0  0  0
 45112  1  0  0  0
 46113  1  0  0  0
 47114  1  0  0  0
 47115  1  0  0  0
 48 56  1  0  0  0
 48 65  1  0  0  0
 48116  1  0  0  0
 49 50  1  0  0  0
 49 53  1  0  0  0
 49 64  1  0  0  0
 49117  1  0  0  0
 50 51  1  0  0  0
 50118  1  0  0  0
 50119  1  0  0  0
 51 52  1  0  0  0
 51120  1  0  0  0
 51121  1  0  0  0
 52122  1  0  0  0
 52123  1  0  0  0
 53 54  1  0  0  0
 54 55  2  0  0  0
 54124  1  0  0  0
 55 57  1  0  0  0
 55125  1  0  0  0
 56 69  2  0  0  0
 57 58  2  0  0  0
 57126  1  0  0  0
 58127  1  0  0  0
 59 60  1  0  0  0
 59 61  1  0  0  0
 59 62  1  0  0  0
 60128  1  0  0  0
 60129  1  0  0  0
 60130  1  0  0  0
 61131  1  0  0  0
 61132  1  0  0  0
 61133  1  0  0  0
 62134  1  0  0  0
 62135  1  0  0  0
 62136  1  0  0  0
 63 65  1  0  0  0
 63137  1  0  0  0
 63138  1  0  0  0
 63139  1  0  0  0
 64140  1  0  0  0
 65141  1  0  0  0
 68 80  1  0  0  0
 71 73  2  0  0  0
 71 81  1  0  0  0
 71142  1  0  0  0
 72 74  2  0  0  0
 72 75  1  0  0  0
 72 76  1  0  0  0
 73 74  1  0  0  0
 73 80  1  0  0  0
 74 79  1  0  0  0
 75 77  1  0  0  0
 75 81  2  0  0  0
 76 82  1  0  0  0
 76143  1  0  0  0
 76144  1  0  0  0
 77 78  1  0  0  0
 77145  1  0  0  0
 77146  1  0  0  0
 78 82  1  0  0  0
 78147  1  0  0  0
 78148  1  0  0  0
 79149  1  0  0  0
 79150  1  0  0  0
 79151  1  0  0  0
 80152  1  0  0  0
 80153  1  0  0  0
M  ISO  4   1 100  68 101  80 101  82 100
M  END
> <chiral flag>
0

> <version>
0

> <s_m_source_file>
/data/baiqing/PycharmProjects/Reinvent-master-3.2/result/LINK_invent/BTK/process_docking_weight1_custom_sum_contain_oxygen_bond_distance_aromatic_linkinvent_7_9_3/rearranged_h_0165.sdf

> <i_m_source_file_index>
10

> <r_mmod_Potential_Energy-OPLS-2005>
1566.41967773438

> <r_mmod_Stretch_Energy-OPLS-2005>
660.613098144531

> <r_mmod_Bend_Energy-OPLS-2005>
466.202728271484

> <r_mmod_Torsional_Energy-OPLS-2005>
318.641326904297

> <r_mmod_Improper_Torsional_Energy-OPLS-2005>
21.2009086608887

> <r_mmod_Van_der_Waal_Energy-OPLS-2005>
127.256935119629

> <r_mmod_Electrostatic_Energy-OPLS-2005>
-394.997955322266

> <r_mmod_Solvation_Energy-OPLS-2005>
-221.677017211914

> <b_mmod_Minimization_Converged-OPLS-2005>
0

> <r_mmod_RMS_Derivative-OPLS-2005>
3.72395610809326

$$$$
10
                    3D
 Structure written by MMmdl.
174184  0  0  1  0            999 V2000
  -30.7496  -14.5216   20.5804 C   0  0  0  0  0  0
  -30.4132  -12.3647   19.4130 C   0  0  0  0  0  0
  -29.4772  -12.5567   18.2057 C   0  0  0  0  0  0
  -28.0104  -12.3654   18.6275 C   0  0  0  0  0  0
  -27.6608  -13.1949   19.8904 C   0  0  2  0  0  0
  -28.7210  -12.9723   21.0021 C   0  0  0  0  0  0
  -25.2602  -13.8155   20.5694 C   0  0  0  0  0  0
  -24.1852  -13.0450   20.9169 C   0  0  0  0  0  0
  -24.6386  -11.6906   20.8753 C   0  0  0  0  0  0
  -23.9040  -10.4334   21.0421 C   0  0  0  0  0  0
  -24.3636   -9.4258   21.9191 C   0  0  0  0  0  0
  -23.6340   -8.2276   22.0758 C   0  0  0  0  0  0
  -22.4298   -8.0327   21.3571 C   0  0  0  0  0  0
  -21.9923   -9.0282   20.4650 C   0  0  0  0  0  0
  -22.7234  -10.2170   20.3059 C   0  0  0  0  0  0
  -21.6891   -6.0772   22.5292 C   0  0  0  0  0  0
  -21.4049   -6.5661   23.8237 C   0  0  0  0  0  0
  -21.3643   -5.6798   24.9190 C   0  0  0  0  0  0
  -21.6032   -4.3055   24.7211 C   0  0  0  0  0  0
  -21.8841   -3.8174   23.4335 C   0  0  0  0  0  0
  -21.9219   -4.7001   22.3397 C   0  0  0  0  0  0
  -22.7877  -13.5250   21.1832 C   0  0  0  0  0  0
  -22.1683   -4.2201   21.0973 F   0  0  0  0  0  0
  -21.5606   -3.4513   25.7710 F   0  0  0  0  0  0
  -30.0229  -13.3602   20.4409 N   0  0  0  0  0  0
  -26.3047  -12.9278   20.3478 N   0  0  0  0  0  0
  -25.9324  -11.6452   20.5840 N   0  0  0  0  0  0
  -22.0523  -12.8237   22.0376 N   0  0  0  0  0  0
  -25.4281  -15.1879   20.4052 N   0  0  0  0  0  0
  -31.8843  -14.5695   20.0946 O   0  0  0  0  0  0
  -21.6681   -6.8909   21.4251 O   0  0  0  0  0  0
  -22.3554  -14.5549   20.6699 O   0  0  0  0  0  0
  -24.6116  -31.8729   23.2113 C   0  0  0  0  0  0
  -25.9044  -32.4830   23.8401 C   0  0  1  0  0  0
  -27.2507  -27.4535   20.0719 C   0  0  0  0  0  0
  -25.5934  -33.8620   24.2359 N   0  0  0  0  0  0
  -23.4003  -30.4993   21.5467 C   0  0  2  0  0  0
  -24.8495  -28.9640   20.1129 C   0  0  0  0  0  0
  -22.7385  -29.4725   22.4939 C   0  0  0  0  0  0
  -18.0297  -28.1397   22.8506 C   0  0  0  0  0  0
  -24.1484  -36.7296   23.2641 C   0  0  0  0  0  0
  -25.9298  -30.8323   21.3729 C   0  0  0  0  0  0
  -26.0059  -29.4666   20.7207 C   0  0  0  0  0  0
  -27.2001  -28.7127   20.7134 C   0  0  0  0  0  0
  -26.0672  -26.9580   19.4744 C   0  0  0  0  0  0
  -24.8742  -27.7044   19.4917 C   0  0  0  0  0  0
  -23.6138  -29.8341   20.1597 C   0  0  0  0  0  0
  -25.4111  -36.3115   24.0352 C   0  0  1  0  0  0
  -20.5890  -28.3694   23.1294 C   0  0  2  0  0  0
  -20.6775  -26.9430   22.5386 C   0  0  0  0  0  0
  -19.5748  -26.6412   21.5187 C   0  0  0  0  0  0
  -18.1940  -26.7959   22.1626 C   0  0  0  0  0  0
  -19.1550  -28.8864   23.2922 C   0  0  0  0  0  0
  -18.9466  -30.1469   23.8932 C   0  0  0  0  0  0
  -17.6467  -30.6597   24.0581 C   0  0  0  0  0  0
  -25.9040  -34.9477   23.5148 C   0  0  0  0  0  0
  -16.5359  -29.9098   23.6324 C   0  0  0  0  0  0
  -16.7292  -28.6523   23.0335 C   0  0  0  0  0  0
  -26.4457  -31.6563   25.0697 C   0  0  0  0  0  0
  -25.3707  -31.3666   26.1416 C   0  0  0  0  0  0
  -27.0273  -30.3006   24.6068 C   0  0  0  0  0  0
  -27.6062  -32.4195   25.7498 C   0  0  0  0  0  0
  -27.5594  -37.1821   24.8476 C   0  0  0  0  0  0
  -21.4111  -29.3068   22.3670 N   0  0  0  0  0  0
  -26.4307  -37.3786   23.9410 N   0  0  0  0  0  0
  -24.6648  -31.0828   22.1029 N   0  0  0  0  0  0
  -23.4159  -28.8269   23.2986 O   0  0  0  0  0  0
  -28.4377  -26.7426   20.0754 O   0  0  0  0  0  0
  -26.5565  -34.8920   22.4678 O   0  0  0  0  0  0
  -23.5328  -32.1495   23.7525 O   0  0  0  0  0  0
  -29.1108  -22.8460   18.6836 C   0  0  0  0  0  0
  -28.8178  -21.5207   19.0266 C   0  0  0  0  0  0
  -29.8756  -23.6676   19.5343 C   0  0  0  0  0  0
  -30.4231  -23.0903   20.7221 C   0  0  0  0  0  0
  -30.0747  -21.7465   21.1012 C   0  0  0  0  0  0
  -29.2587  -20.9553   20.2339 C   0  0  0  0  0  0
  -28.8516  -17.1948   19.1730 C   0  0  0  0  0  0
  -30.3052  -17.6935   19.0791 C   0  0  0  0  0  0
  -28.8716  -16.0994   21.4841 C   0  0  0  0  0  0
  -31.1411  -16.8551   21.3597 C   0  0  0  0  0  0
  -28.4797  -17.3653   20.6660 C   0  0  1  0  0  0
  -30.6680  -18.0933   20.5223 C   0  0  2  0  0  0
  -29.3289  -18.5778   21.0947 C   0  0  1  0  0  0
  -31.3777  -23.9322   21.5731 C   0  0  0  0  0  0
  -30.5122  -21.1890   22.4531 C   0  0  0  0  0  0
  -30.9146  -25.2100   17.8038 C   0  0  0  0  0  0
  -28.7409  -25.9261   18.9348 C   0  0  0  0  0  0
  -30.0779  -25.1389   19.0970 C   0  0  1  0  0  0
  -30.2567  -15.6632   21.1829 N   0  0  0  0  0  0
  -28.7086  -19.6995   20.4470 O   0  0  0  0  0  0
  -31.4498  -12.4594   19.0861 H   0  0  0  0  0  0
  -30.3304  -11.3471   19.7979 H   0  0  0  0  0  0
  -29.7352  -11.8650   17.4029 H   0  0  0  0  0  0
  -29.6096  -13.5611   17.7979 H   0  0  0  0  0  0
  -27.8524  -11.3046   18.8220 H   0  0  0  0  0  0
  -27.3405  -12.6287   17.8083 H   0  0  0  0  0  0
  -27.6920  -14.2325   19.5699 H   0  0  0  0  0  0
  -28.7418  -11.9149   21.2712 H   0  0  0  0  0  0
  -28.4969  -13.4681   21.9460 H   0  0  0  0  0  0
  -25.2801   -9.5772   22.4736 H   0  0  0  0  0  0
  -24.0116   -7.4674   22.7449 H   0  0  0  0  0  0
  -21.0871   -8.8773   19.8938 H   0  0  0  0  0  0
  -22.3699  -10.9714   19.6171 H   0  0  0  0  0  0
  -21.2062   -7.6178   23.9758 H   0  0  0  0  0  0
  -21.1424   -6.0514   25.9082 H   0  0  0  0  0  0
  -22.0629   -2.7634   23.2812 H   0  0  0  0  0  0
  -22.4133  -11.9891   22.4761 H   0  0  0  0  0  0
  -21.1147  -13.1287   22.2562 H   0  0  0  0  0  0
  -24.6588  -15.8353   20.5354 H   0  0  0  0  0  0
  -26.2652  -15.6358   20.0570 H   0  0  0  0  0  0
  -26.7093  -32.5560   23.1154 H   0  0  0  0  0  0
  -25.0103  -33.9778   25.0523 H   0  0  0  0  0  0
  -22.6913  -31.3177   21.4028 H   0  0  0  0  0  0
  -23.3763  -35.9611   23.3314 H   0  0  0  0  0  0
  -24.3594  -36.8887   22.2056 H   0  0  0  0  0  0
  -23.7196  -37.6497   23.6615 H   0  0  0  0  0  0
  -26.0478  -31.6007   20.6074 H   0  0  0  0  0  0
  -26.8162  -30.8846   21.9926 H   0  0  0  0  0  0
  -28.0894  -29.1015   21.1863 H   0  0  0  0  0  0
  -26.0379  -25.9907   18.9976 H   0  0  0  0  0  0
  -23.9867  -27.3097   19.0178 H   0  0  0  0  0  0
  -23.7329  -30.6105   19.4032 H   0  0  0  0  0  0
  -22.7374  -29.2595   19.8544 H   0  0  0  0  0  0
  -25.1281  -36.1996   25.0846 H   0  0  0  0  0  0
  -21.0027  -28.3253   24.1398 H   0  0  0  0  0  0
  -20.5629  -26.2313   23.3573 H   0  0  0  0  0  0
  -21.6646  -26.7422   22.1198 H   0  0  0  0  0  0
  -19.6881  -25.6310   21.1234 H   0  0  0  0  0  0
  -19.6688  -27.3202   20.6698 H   0  0  0  0  0  0
  -17.4188  -26.6723   21.4038 H   0  0  0  0  0  0
  -18.0356  -26.0087   22.9016 H   0  0  0  0  0  0
  -19.7936  -30.7301   24.2285 H   0  0  0  0  0  0
  -17.5013  -31.6277   24.5179 H   0  0  0  0  0  0
  -15.5361  -30.3006   23.7634 H   0  0  0  0  0  0
  -15.8697  -28.0857   22.6997 H   0  0  0  0  0  0
  -24.5913  -30.6994   25.7712 H   0  0  0  0  0  0
  -24.8858  -32.2815   26.4835 H   0  0  0  0  0  0
  -25.8051  -30.8826   27.0178 H   0  0  0  0  0  0
  -26.2833  -29.6801   24.1062 H   0  0  0  0  0  0
  -27.3975  -29.7202   25.4529 H   0  0  0  0  0  0
  -27.8691  -30.4306   23.9265 H   0  0  0  0  0  0
  -27.2747  -33.3504   26.2112 H   0  0  0  0  0  0
  -28.3930  -32.6712   25.0367 H   0  0  0  0  0  0
  -28.0640  -31.8226   26.5398 H   0  0  0  0  0  0
  -28.2615  -38.0116   24.7525 H   0  0  0  0  0  0
  -28.1094  -36.2650   24.6312 H   0  0  0  0  0  0
  -27.2314  -37.1492   25.8881 H   0  0  0  0  0  0
  -20.9233  -29.8763   21.6893 H   0  0  0  0  0  0
  -26.0219  -38.2879   24.1380 H   0  0  0  0  0  0
  -28.7188  -23.2402   17.7556 H   0  0  0  0  0  0
  -28.2017  -20.9338   18.3612 H   0  0  0  0  0  0
  -28.7486  -16.1691   18.8150 H   0  0  0  0  0  0
  -28.2044  -17.8135   18.5491 H   0  0  0  0  0  0
  -30.3529  -18.5648   18.4232 H   0  0  0  0  0  0
  -30.9860  -16.9461   18.6722 H   0  0  0  0  0  0
  -28.1023  -15.3715   21.2994 H   0  0  0  0  0  0
  -28.8094  -16.3089   22.5552 H   0  0  0  0  0  0
  -31.1488  -17.1134   22.4190 H   0  0  0  0  0  0
  -32.1886  -16.6615   21.1296 H   0  0  0  0  0  0
  -27.4163  -17.5711   20.7970 H   0  0  0  0  0  0
  -31.4233  -18.8787   20.5440 H   0  0  0  0  0  0
  -29.3297  -18.6939   22.1777 H   0  0  0  0  0  0
  -32.0622  -24.4984   20.9412 H   0  0  0  0  0  0
  -32.0371  -23.3445   22.2084 H   0  0  0  0  0  0
  -30.8250  -24.6356   22.1980 H   0  0  0  0  0  0
  -30.7745  -21.9609   23.1735 H   0  0  0  0  0  0
  -31.3661  -20.5183   22.3449 H   0  0  0  0  0  0
  -29.6939  -20.6549   22.9295 H   0  0  0  0  0  0
  -31.8638  -24.6868   17.9138 H   0  0  0  0  0  0
  -31.1463  -26.2438   17.5417 H   0  0  0  0  0  0
  -30.3887  -24.7671   16.9568 H   0  0  0  0  0  0
  -27.9389  -25.2311   18.6954 H   0  0  0  0  0  0
  -28.8136  -26.6052   18.0839 H   0  0  0  0  0  0
  -30.6432  -25.6878   19.8474 H   0  0  0  0  0  0
  1 25  1  0  0  0
  1 30  2  0  0  0
  1 89  1  0  0  0
  2  3  1  0  0  0
  2 25  1  0  0  0
  2 91  1  0  0  0
  2 92  1  0  0  0
  3  4  1  0  0  0
  3 93  1  0  0  0
  3 94  1  0  0  0
  4  5  1  0  0  0
  4 95  1  0  0  0
  4 96  1  0  0  0
  5  6  1  0  0  0
  5 26  1  0  0  0
  5 97  1  0  0  0
  6 25  1  0  0  0
  6 98  1  0  0  0
  6 99  1  0  0  0
  7  8  2  0  0  0
  7 26  1  0  0  0
  7 29  1  0  0  0
  8  9  1  0  0  0
  8 22  1  0  0  0
  9 10  1  0  0  0
  9 27  2  0  0  0
 10 11  2  0  0  0
 10 15  1  0  0  0
 11 12  1  0  0  0
 11100  1  0  0  0
 12 13  2  0  0  0
 12101  1  0  0  0
 13 14  1  0  0  0
 13 31  1  0  0  0
 14 15  2  0  0  0
 14102  1  0  0  0
 15103  1  0  0  0
 16 17  2  0  0  0
 16 21  1  0  0  0
 16 31  1  0  0  0
 17 18  1  0  0  0
 17104  1  0  0  0
 18 19  2  0  0  0
 18105  1  0  0  0
 19 20  1  0  0  0
 19 24  1  0  0  0
 20 21  2  0  0  0
 20106  1  0  0  0
 21 23  1  0  0  0
 22 28  1  0  0  0
 22 32  2  0  0  0
 26 27  1  0  0  0
 28107  1  0  0  0
 28108  1  0  0  0
 29109  1  0  0  0
 29110  1  0  0  0
 33 34  1  0  0  0
 33 66  1  0  0  0
 33 70  2  0  0  0
 34 36  1  0  0  0
 34 59  1  0  0  0
 34111  1  0  0  0
 35 44  2  0  0  0
 35 45  1  0  0  0
 35 68  1  0  0  0
 36 56  1  0  0  0
 36112  1  0  0  0
 37 39  1  0  0  0
 37 47  1  0  0  0
 37 66  1  0  0  0
 37113  1  0  0  0
 38 43  2  0  0  0
 38 46  1  0  0  0
 38 47  1  0  0  0
 39 64  1  0  0  0
 39 67  2  0  0  0
 40 52  1  0  0  0
 40 53  2  0  0  0
 40 58  1  0  0  0
 41114  1  0  0  0
 41115  1  0  0  0
 41116  1  0  0  0
 41 48  1  0  0  0
 42 43  1  0  0  0
 42 66  1  0  0  0
 42117  1  0  0  0
 42118  1  0  0  0
 43 44  1  0  0  0
 44119  1  0  0  0
 45 46  2  0  0  0
 45120  1  0  0  0
 46121  1  0  0  0
 47122  1  0  0  0
 47123  1  0  0  0
 48 56  1  0  0  0
 48 65  1  0  0  0
 48124  1  0  0  0
 49 50  1  0  0  0
 49 53  1  0  0  0
 49 64  1  0  0  0
 49125  1  0  0  0
 50 51  1  0  0  0
 50126  1  0  0  0
 50127  1  0  0  0
 51 52  1  0  0  0
 51128  1  0  0  0
 51129  1  0  0  0
 52130  1  0  0  0
 52131  1  0  0  0
 53 54  1  0  0  0
 54 55  2  0  0  0
 54132  1  0  0  0
 55 57  1  0  0  0
 55133  1  0  0  0
 56 69  2  0  0  0
 57 58  2  0  0  0
 57134  1  0  0  0
 58135  1  0  0  0
 59 60  1  0  0  0
 59 61  1  0  0  0
 59 62  1  0  0  0
 60136  1  0  0  0
 60137  1  0  0  0
 60138  1  0  0  0
 61139  1  0  0  0
 61140  1  0  0  0
 61141  1  0  0  0
 62142  1  0  0  0
 62143  1  0  0  0
 62144  1  0  0  0
 63 65  1  0  0  0
 63145  1  0  0  0
 63146  1  0  0  0
 63147  1  0  0  0
 64148  1  0  0  0
 65149  1  0  0  0
 68 87  1  0  0  0
 71 72  2  0  0  0
 71 73  1  0  0  0
 71150  1  0  0  0
 72 76  1  0  0  0
 72151  1  0  0  0
 73 74  2  0  0  0
 73 88  1  0  0  0
 74 75  1  0  0  0
 74 84  1  0  0  0
 75 76  2  0  0  0
 75 85  1  0  0  0
 76 90  1  0  0  0
 77 78  1  0  0  0
 77152  1  0  0  0
 77153  1  0  0  0
 77 81  1  0  0  0
 78154  1  0  0  0
 78155  1  0  0  0
 78 82  1  0  0  0
 79 81  1  0  0  0
 79 89  1  0  0  0
 79156  1  0  0  0
 79157  1  0  0  0
 80 82  1  0  0  0
 80 89  1  0  0  0
 80158  1  0  0  0
 80159  1  0  0  0
 81 83  1  0  0  0
 81160  1  0  0  0
 82 83  1  0  0  0
 82161  1  0  0  0
 83 90  1  0  0  0
 83162  1  0  0  0
 84163  1  0  0  0
 84164  1  0  0  0
 84165  1  0  0  0
 85166  1  0  0  0
 85167  1  0  0  0
 85168  1  0  0  0
 86169  1  0  0  0
 86170  1  0  0  0
 86171  1  0  0  0
 86 88  1  0  0  0
 87 88  1  0  0  0
 87172  1  0  0  0
 87173  1  0  0  0
 88174  1  0  0  0
M  ISO  4   1 100  68 101  87 101  89 100
M  END
> <chiral flag>
0

> <version>
0

> <s_m_source_file>
/data/baiqing/PycharmProjects/Reinvent-master-3.2/result/LINK_invent/BTK/process_docking_weight1_custom_sum_contain_oxygen_bond_distance_aromatic_linkinvent_7_9_3/rearranged_h_0165.sdf

> <i_m_source_file_index>
11

> <r_mmod_Potential_Energy-OPLS-2005>
342.573944091797

> <r_mmod_Stretch_Energy-OPLS-2005>
59.2154655456543

> <r_mmod_Bend_Energy-OPLS-2005>
231.90397644043

> <r_mmod_Torsional_Energy-OPLS-2005>
369.458435058594

> <r_mmod_Improper_Torsional_Energy-OPLS-2005>
2.86815714836121

> <r_mmod_Van_der_Waal_Energy-OPLS-2005>
185.732223510742

> <r_mmod_Electrostatic_Energy-OPLS-2005>
-326.292633056641

> <r_mmod_Solvation_Energy-OPLS-2005>
-197.634140014648

> <b_mmod_Minimization_Converged-OPLS-2005>
0

> <r_mmod_RMS_Derivative-OPLS-2005>
3.72435331344604

$$$$
11
                    3D
 Structure written by MMmdl.
165175  0  0  1  0            999 V2000
  -30.5860  -14.6304   20.5017 C   0  0  0  0  0  0
  -30.4258  -12.3848   19.4531 C   0  0  0  0  0  0
  -29.5004  -12.5140   18.2222 C   0  0  0  0  0  0
  -28.0185  -12.3714   18.6322 C   0  0  0  0  0  0
  -27.6479  -13.2189   19.8796 C   0  0  2  0  0  0
  -28.6907  -13.0431   21.0054 C   0  0  0  0  0  0
  -25.2474  -13.8148   20.5714 C   0  0  0  0  0  0
  -24.1800  -13.0400   20.9193 C   0  0  0  0  0  0
  -24.6393  -11.6860   20.8768 C   0  0  0  0  0  0
  -23.9082  -10.4262   21.0440 C   0  0  0  0  0  0
  -24.3618   -9.4179   21.9210 C   0  0  0  0  0  0
  -23.6281   -8.2224   22.0759 C   0  0  0  0  0  0
  -22.4266   -8.0256   21.3539 C   0  0  0  0  0  0
  -21.9939   -9.0250   20.4641 C   0  0  0  0  0  0
  -22.7263  -10.2116   20.3089 C   0  0  0  0  0  0
  -21.6852   -6.0739   22.5298 C   0  0  0  0  0  0
  -21.3997   -6.5653   23.8222 C   0  0  0  0  0  0
  -21.3659   -5.6806   24.9196 C   0  0  0  0  0  0
  -21.6057   -4.3072   24.7245 C   0  0  0  0  0  0
  -21.8821   -3.8160   23.4366 C   0  0  0  0  0  0
  -21.9162   -4.6969   22.3409 C   0  0  0  0  0  0
  -22.7805  -13.5163   21.1881 C   0  0  0  0  0  0
  -22.1647   -4.2156   21.0995 F   0  0  0  0  0  0
  -21.5647   -3.4551   25.7770 F   0  0  0  0  0  0
  -29.9921  -13.4017   20.4291 N   0  0  0  0  0  0
  -26.2954  -12.9362   20.3416 N   0  0  0  0  0  0
  -25.9324  -11.6501   20.5799 N   0  0  0  0  0  0
  -22.0480  -12.8158   22.0438 N   0  0  0  0  0  0
  -25.4113  -15.1891   20.4136 N   0  0  0  0  0  0
  -31.7638  -14.7879   20.1569 O   0  0  0  0  0  0
  -21.6616   -6.8870   21.4247 O   0  0  0  0  0  0
  -22.3494  -14.5502   20.6745 O   0  0  0  0  0  0
  -24.6229  -31.8635   23.2056 C   0  0  0  0  0  0
  -25.9080  -32.4792   23.8393 C   0  0  1  0  0  0
  -27.2456  -27.3541   20.1554 C   0  0  0  0  0  0
  -25.5892  -33.8580   24.2338 N   0  0  0  0  0  0
  -23.4152  -30.4830   21.5459 C   0  0  2  0  0  0
  -24.8693  -28.9353   20.1178 C   0  0  0  0  0  0
  -22.7460  -29.4658   22.4988 C   0  0  0  0  0  0
  -18.0272  -28.1402   22.8534 C   0  0  0  0  0  0
  -24.1451  -36.7282   23.2665 C   0  0  0  0  0  0
  -25.9471  -30.8230   21.3473 C   0  0  0  0  0  0
  -26.0345  -29.4443   20.7062 C   0  0  0  0  0  0
  -27.2272  -28.6686   20.7054 C   0  0  0  0  0  0
  -26.0587  -26.8813   19.5523 C   0  0  0  0  0  0
  -24.8836  -27.6603   19.5270 C   0  0  0  0  0  0
  -23.6278  -29.8062   20.1644 C   0  0  0  0  0  0
  -25.4070  -36.3080   24.0367 C   0  0  1  0  0  0
  -20.5861  -28.3712   23.1284 C   0  0  2  0  0  0
  -20.6715  -26.9426   22.5420 C   0  0  0  0  0  0
  -19.5688  -26.6403   21.5226 C   0  0  0  0  0  0
  -18.1871  -26.7962   22.1638 C   0  0  0  0  0  0
  -19.1526  -28.8877   23.2892 C   0  0  0  0  0  0
  -18.9445  -30.1472   23.8898 C   0  0  0  0  0  0
  -17.6453  -30.6590   24.0584 C   0  0  0  0  0  0
  -25.9030  -34.9442   23.5159 C   0  0  0  0  0  0
  -16.5336  -29.9113   23.6328 C   0  0  0  0  0  0
  -16.7259  -28.6515   23.0369 C   0  0  0  0  0  0
  -26.4500  -31.6579   25.0729 C   0  0  0  0  0  0
  -25.3749  -31.3565   26.1443 C   0  0  0  0  0  0
  -27.0450  -30.3079   24.6084 C   0  0  0  0  0  0
  -27.6064  -32.4325   25.7481 C   0  0  0  0  0  0
  -27.5546  -37.1782   24.8487 C   0  0  0  0  0  0
  -21.4180  -29.3073   22.3716 N   0  0  0  0  0  0
  -26.4236  -37.3806   23.9470 N   0  0  0  0  0  0
  -24.6819  -31.0711   22.0955 N   0  0  0  0  0  0
  -23.4192  -28.8156   23.3019 O   0  0  0  0  0  0
  -28.3822  -26.5414   20.2153 O   0  0  0  0  0  0
  -26.5583  -34.8915   22.4708 O   0  0  0  0  0  0
  -23.5393  -32.1396   23.7415 O   0  0  0  0  0  0
  -27.9890  -21.5894   20.6713 C   0  0  0  0  0  0
  -29.1739  -22.3609   20.5728 C   0  0  0  0  0  0
  -29.2099  -19.3935   20.5994 C   0  0  0  0  0  0
  -27.9893  -20.1540   20.6098 C   0  0  0  0  0  0
  -30.3776  -21.6162   20.3844 C   0  0  0  0  0  0
  -30.4054  -20.1698   20.4452 C   0  0  0  0  0  0
  -29.4036  -24.7597   19.5225 C   0  0  0  0  0  0
  -29.4860  -16.7288   19.6643 C   0  0  0  0  0  0
  -30.1005  -16.8529   21.6162 C   0  0  0  0  0  0
  -29.2496  -23.9277   20.7076 C   0  0  1  0  0  0
  -29.2080  -17.7900   20.7536 C   0  0  0  0  0  0
  -28.1942  -25.0909   20.4230 C   0  0  2  0  0  0
  -31.6235  -22.4647   20.0999 C   0  0  0  0  0  0
  -31.7217  -19.4056   20.3990 C   0  0  0  0  0  0
  -26.6473  -19.4238   20.5477 C   0  0  0  0  0  0
  -29.7545  -15.7071   20.7259 N   0  0  0  0  0  0
  -25.5859  -20.1716   19.9850 O   0  0  0  0  0  0
  -31.4730  -12.5077   19.1675 H   0  0  0  0  0  0
  -30.3437  -11.3852   19.8813 H   0  0  0  0  0  0
  -29.7516  -11.7643   17.4692 H   0  0  0  0  0  0
  -29.6619  -13.4815   17.7461 H   0  0  0  0  0  0
  -27.8284  -11.3159   18.8323 H   0  0  0  0  0  0
  -27.3747  -12.6477   17.7961 H   0  0  0  0  0  0
  -27.6721  -14.2646   19.5717 H   0  0  0  0  0  0
  -28.7073  -12.0107   21.3661 H   0  0  0  0  0  0
  -28.4531  -13.6592   21.8733 H   0  0  0  0  0  0
  -25.2764   -9.5652   22.4799 H   0  0  0  0  0  0
  -24.0016   -7.4639   22.7510 H   0  0  0  0  0  0
  -21.0886   -8.8786   19.8940 H   0  0  0  0  0  0
  -22.3750  -10.9679   19.6234 H   0  0  0  0  0  0
  -21.1981   -7.6154   23.9728 H   0  0  0  0  0  0
  -21.1492   -6.0550   25.9104 H   0  0  0  0  0  0
  -22.0582   -2.7623   23.2906 H   0  0  0  0  0  0
  -22.4080  -11.9781   22.4784 H   0  0  0  0  0  0
  -21.1109  -13.1218   22.2665 H   0  0  0  0  0  0
  -24.6355  -15.8358   20.4944 H   0  0  0  0  0  0
  -26.2643  -15.6261   20.0956 H   0  0  0  0  0  0
  -26.7196  -32.5509   23.1203 H   0  0  0  0  0  0
  -25.0080  -33.9751   25.0495 H   0  0  0  0  0  0
  -22.7070  -31.3009   21.4002 H   0  0  0  0  0  0
  -23.3724  -35.9604   23.3290 H   0  0  0  0  0  0
  -24.3562  -36.8966   22.2098 H   0  0  0  0  0  0
  -23.7179  -37.6458   23.6714 H   0  0  0  0  0  0
  -26.0329  -31.5788   20.5648 H   0  0  0  0  0  0
  -26.8457  -30.9109   21.9464 H   0  0  0  0  0  0
  -28.1215  -29.0639   21.1637 H   0  0  0  0  0  0
  -26.0249  -25.8911   19.1217 H   0  0  0  0  0  0
  -23.9870  -27.2624   19.0721 H   0  0  0  0  0  0
  -23.7394  -30.5807   19.4059 H   0  0  0  0  0  0
  -22.7511  -29.2332   19.8643 H   0  0  0  0  0  0
  -25.1221  -36.1962   25.0861 H   0  0  0  0  0  0
  -20.9947  -28.3287   24.1417 H   0  0  0  0  0  0
  -20.5596  -26.2332   23.3639 H   0  0  0  0  0  0
  -21.6571  -26.7439   22.1222 H   0  0  0  0  0  0
  -19.6820  -25.6311   21.1261 H   0  0  0  0  0  0
  -19.6603  -27.3195   20.6736 H   0  0  0  0  0  0
  -17.4149  -26.6797   21.4014 H   0  0  0  0  0  0
  -18.0197  -26.0086   22.8997 H   0  0  0  0  0  0
  -19.7920  -30.7305   24.2261 H   0  0  0  0  0  0
  -17.4999  -31.6261   24.5218 H   0  0  0  0  0  0
  -15.5315  -30.3007   23.7656 H   0  0  0  0  0  0
  -15.8661  -28.0831   22.7071 H   0  0  0  0  0  0
  -24.6049  -30.6791   25.7736 H   0  0  0  0  0  0
  -24.8715  -32.2628   26.4830 H   0  0  0  0  0  0
  -25.8096  -30.8815   27.0258 H   0  0  0  0  0  0
  -26.3054  -29.6698   24.1248 H   0  0  0  0  0  0
  -27.4468  -29.7437   25.4523 H   0  0  0  0  0  0
  -27.8721  -30.4519   23.9123 H   0  0  0  0  0  0
  -27.2762  -33.3724   26.1928 H   0  0  0  0  0  0
  -28.3899  -32.6755   25.0278 H   0  0  0  0  0  0
  -28.0714  -31.8526   26.5486 H   0  0  0  0  0  0
  -28.2511  -38.0121   24.7589 H   0  0  0  0  0  0
  -28.1092  -36.2653   24.6236 H   0  0  0  0  0  0
  -27.2294  -37.1353   25.8899 H   0  0  0  0  0  0
  -20.9353  -29.8870   21.7012 H   0  0  0  0  0  0
  -26.0101  -38.2869   24.1528 H   0  0  0  0  0  0
  -27.0522  -22.1209   20.7868 H   0  0  0  0  0  0
  -29.1730  -24.3072   18.5610 H   0  0  0  0  0  0
  -30.2942  -25.3931   19.5167 H   0  0  0  0  0  0
  -30.3518  -16.9451   19.0393 H   0  0  0  0  0  0
  -28.6174  -16.5191   19.0355 H   0  0  0  0  0  0
  -29.7352  -16.7519   22.6429 H   0  0  0  0  0  0
  -31.1713  -17.0540   21.6297 H   0  0  0  0  0  0
  -29.9346  -24.1303   21.5330 H   0  0  0  0  0  0
  -28.2181  -17.5590   21.1413 H   0  0  0  0  0  0
  -28.0419  -25.2315   21.4961 H   0  0  0  0  0  0
  -31.4858  -22.9932   19.1531 H   0  0  0  0  0  0
  -32.5760  -21.9596   20.0251 H   0  0  0  0  0  0
  -31.7574  -23.2198   20.8703 H   0  0  0  0  0  0
  -31.9104  -18.9986   21.3910 H   0  0  0  0  0  0
  -32.6131  -19.9652   20.1384 H   0  0  0  0  0  0
  -31.6688  -18.5932   19.6785 H   0  0  0  0  0  0
  -26.3729  -19.0739   21.5438 H   0  0  0  0  0  0
  -26.7485  -18.5471   19.9075 H   0  0  0  0  0  0
  -25.1816  -20.6719   20.6861 H   0  0  0  0  0  0
  1 25  1  0  0  0
  1 30  2  0  0  0
  1 86  1  0  0  0
  2  3  1  0  0  0
  2 25  1  0  0  0
  2 88  1  0  0  0
  2 89  1  0  0  0
  3  4  1  0  0  0
  3 90  1  0  0  0
  3 91  1  0  0  0
  4  5  1  0  0  0
  4 92  1  0  0  0
  4 93  1  0  0  0
  5  6  1  0  0  0
  5 26  1  0  0  0
  5 94  1  0  0  0
  6 25  1  0  0  0
  6 95  1  0  0  0
  6 96  1  0  0  0
  7  8  2  0  0  0
  7 26  1  0  0  0
  7 29  1  0  0  0
  8  9  1  0  0  0
  8 22  1  0  0  0
  9 10  1  0  0  0
  9 27  2  0  0  0
 10 11  2  0  0  0
 10 15  1  0  0  0
 11 12  1  0  0  0
 11 97  1  0  0  0
 12 13  2  0  0  0
 12 98  1  0  0  0
 13 14  1  0  0  0
 13 31  1  0  0  0
 14 15  2  0  0  0
 14 99  1  0  0  0
 15100  1  0  0  0
 16 17  2  0  0  0
 16 21  1  0  0  0
 16 31  1  0  0  0
 17 18  1  0  0  0
 17101  1  0  0  0
 18 19  2  0  0  0
 18102  1  0  0  0
 19 20  1  0  0  0
 19 24  1  0  0  0
 20 21  2  0  0  0
 20103  1  0  0  0
 21 23  1  0  0  0
 22 28  1  0  0  0
 22 32  2  0  0  0
 26 27  1  0  0  0
 28104  1  0  0  0
 28105  1  0  0  0
 29106  1  0  0  0
 29107  1  0  0  0
 33 34  1  0  0  0
 33 66  1  0  0  0
 33 70  2  0  0  0
 34 36  1  0  0  0
 34 59  1  0  0  0
 34108  1  0  0  0
 35 44  2  0  0  0
 35 45  1  0  0  0
 35 68  1  0  0  0
 36 56  1  0  0  0
 36109  1  0  0  0
 37 39  1  0  0  0
 37 47  1  0  0  0
 37 66  1  0  0  0
 37110  1  0  0  0
 38 43  2  0  0  0
 38 46  1  0  0  0
 38 47  1  0  0  0
 39 64  1  0  0  0
 39 67  2  0  0  0
 40 52  1  0  0  0
 40 53  2  0  0  0
 40 58  1  0  0  0
 41111  1  0  0  0
 41112  1  0  0  0
 41113  1  0  0  0
 41 48  1  0  0  0
 42 43  1  0  0  0
 42 66  1  0  0  0
 42114  1  0  0  0
 42115  1  0  0  0
 43 44  1  0  0  0
 44116  1  0  0  0
 45 46  2  0  0  0
 45117  1  0  0  0
 46118  1  0  0  0
 47119  1  0  0  0
 47120  1  0  0  0
 48 56  1  0  0  0
 48 65  1  0  0  0
 48121  1  0  0  0
 49 50  1  0  0  0
 49 53  1  0  0  0
 49 64  1  0  0  0
 49122  1  0  0  0
 50 51  1  0  0  0
 50123  1  0  0  0
 50124  1  0  0  0
 51 52  1  0  0  0
 51125  1  0  0  0
 51126  1  0  0  0
 52127  1  0  0  0
 52128  1  0  0  0
 53 54  1  0  0  0
 54 55  2  0  0  0
 54129  1  0  0  0
 55 57  1  0  0  0
 55130  1  0  0  0
 56 69  2  0  0  0
 57 58  2  0  0  0
 57131  1  0  0  0
 58132  1  0  0  0
 59 60  1  0  0  0
 59 61  1  0  0  0
 59 62  1  0  0  0
 60133  1  0  0  0
 60134  1  0  0  0
 60135  1  0  0  0
 61136  1  0  0  0
 61137  1  0  0  0
 61138  1  0  0  0
 62139  1  0  0  0
 62140  1  0  0  0
 62141  1  0  0  0
 63 65  1  0  0  0
 63142  1  0  0  0
 63143  1  0  0  0
 63144  1  0  0  0
 64145  1  0  0  0
 65146  1  0  0  0
 68 82  1  0  0  0
 71 72  2  0  0  0
 71 74  1  0  0  0
 71147  1  0  0  0
 72 75  1  0  0  0
 72 80  1  0  0  0
 73 74  2  0  0  0
 73 76  1  0  0  0
 73 81  1  0  0  0
 74 85  1  0  0  0
 75 76  2  0  0  0
 75 83  1  0  0  0
 76 84  1  0  0  0
 77 80  1  0  0  0
 77 82  1  0  0  0
 77148  1  0  0  0
 77149  1  0  0  0
 78 81  1  0  0  0
 78 86  1  0  0  0
 78150  1  0  0  0
 78151  1  0  0  0
 79 81  1  0  0  0
 79 86  1  0  0  0
 79152  1  0  0  0
 79153  1  0  0  0
 80 82  1  0  0  0
 80154  1  0  0  0
 81155  1  0  0  0
 82156  1  0  0  0
 83157  1  0  0  0
 83158  1  0  0  0
 83159  1  0  0  0
 84160  1  0  0  0
 84161  1  0  0  0
 84162  1  0  0  0
 85 87  1  0  0  0
 85163  1  0  0  0
 85164  1  0  0  0
 87165  1  0  0  0
M  ISO  4   1 100  68 101  82 101  86 100
M  END
> <chiral flag>
0

> <version>
0

> <s_m_source_file>
/data/baiqing/PycharmProjects/Reinvent-master-3.2/result/LINK_invent/BTK/process_docking_weight1_custom_sum_contain_oxygen_bond_distance_aromatic_linkinvent_7_9_3/rearranged_h_0165.sdf

> <i_m_source_file_index>
12

> <r_mmod_Potential_Energy-OPLS-2005>
312.918151855469

> <r_mmod_Stretch_Energy-OPLS-2005>
103.127059936523

> <r_mmod_Bend_Energy-OPLS-2005>
271.540466308594

> <r_mmod_Torsional_Energy-OPLS-2005>
301.460876464844

> <r_mmod_Improper_Torsional_Energy-OPLS-2005>
13.4574193954468

> <r_mmod_Van_der_Waal_Energy-OPLS-2005>
161.514938354492

> <r_mmod_Electrostatic_Energy-OPLS-2005>
-366.240447998047

> <r_mmod_Solvation_Energy-OPLS-2005>
-214.357849121094

> <b_mmod_Minimization_Converged-OPLS-2005>
0

> <r_mmod_RMS_Derivative-OPLS-2005>
7.72759103775024

$$$$
12
                    3D
 Structure written by MMmdl.
166175  0  0  1  0            999 V2000
  -30.5426  -15.1654   20.3982 C   0  0  0  0  0  0
  -30.4186  -12.7488   19.5113 C   0  0  0  0  0  0
  -29.5181  -12.5697   18.2685 C   0  0  0  0  0  0
  -28.0637  -12.3140   18.6973 C   0  0  0  0  0  0
  -27.6100  -13.2786   19.8241 C   0  0  2  0  0  0
  -28.6517  -13.4348   20.9527 C   0  0  0  0  0  0
  -25.2375  -13.8269   20.5774 C   0  0  0  0  0  0
  -24.1732  -13.0446   20.9265 C   0  0  0  0  0  0
  -24.6398  -11.6944   20.8773 C   0  0  0  0  0  0
  -23.9105  -10.4291   21.0406 C   0  0  0  0  0  0
  -24.3651   -9.4198   21.9189 C   0  0  0  0  0  0
  -23.6317   -8.2237   22.0751 C   0  0  0  0  0  0
  -22.4297   -8.0287   21.3540 C   0  0  0  0  0  0
  -21.9946   -9.0260   20.4639 C   0  0  0  0  0  0
  -22.7282  -10.2136   20.3045 C   0  0  0  0  0  0
  -21.6852   -6.0740   22.5280 C   0  0  0  0  0  0
  -21.4017   -6.5638   23.8215 C   0  0  0  0  0  0
  -21.3661   -5.6787   24.9176 C   0  0  0  0  0  0
  -21.6048   -4.3052   24.7219 C   0  0  0  0  0  0
  -21.8819   -3.8145   23.4338 C   0  0  0  0  0  0
  -21.9192   -4.6965   22.3397 C   0  0  0  0  0  0
  -22.7741  -13.5192   21.1898 C   0  0  0  0  0  0
  -22.1658   -4.2152   21.0972 F   0  0  0  0  0  0
  -21.5634   -3.4535   25.7728 F   0  0  0  0  0  0
  -29.8867  -13.9118   20.3121 N   0  0  0  0  0  0
  -26.2812  -12.9556   20.3257 N   0  0  0  0  0  0
  -25.9337  -11.6656   20.5749 N   0  0  0  0  0  0
  -22.0387  -12.8175   22.0443 N   0  0  0  0  0  0
  -25.4012  -15.2008   20.4224 N   0  0  0  0  0  0
  -31.7602  -15.0668   20.1884 O   0  0  0  0  0  0
  -21.6648   -6.8888   21.4242 O   0  0  0  0  0  0
  -22.3423  -14.5489   20.6726 O   0  0  0  0  0  0
  -24.6578  -31.8323   23.1785 C   0  0  0  0  0  0
  -25.9295  -32.4637   23.8213 C   0  0  1  0  0  0
  -27.1958  -26.9760   20.1802 C   0  0  0  0  0  0
  -25.6000  -33.8445   24.2142 N   0  0  0  0  0  0
  -23.4667  -30.4487   21.5307 C   0  0  2  0  0  0
  -24.9151  -28.8548   20.1163 C   0  0  0  0  0  0
  -22.7642  -29.4482   22.4846 C   0  0  0  0  0  0
  -18.0316  -28.1399   22.8468 C   0  0  0  0  0  0
  -24.1490  -36.7221   23.2643 C   0  0  0  0  0  0
  -26.0332  -30.6560   21.3989 C   0  0  0  0  0  0
  -26.0983  -29.2494   20.7520 C   0  0  0  0  0  0
  -27.2373  -28.3302   20.7640 C   0  0  0  0  0  0
  -26.0066  -26.7624   19.4545 C   0  0  0  0  0  0
  -24.8905  -27.6274   19.4472 C   0  0  0  0  0  0
  -23.6992  -29.7745   20.1536 C   0  0  0  0  0  0
  -25.4125  -36.2996   24.0310 C   0  0  1  0  0  0
  -20.5939  -28.3735   23.1210 C   0  0  2  0  0  0
  -20.6799  -26.9425   22.5399 C   0  0  0  0  0  0
  -19.5771  -26.6381   21.5211 C   0  0  0  0  0  0
  -18.1955  -26.7936   22.1623 C   0  0  0  0  0  0
  -19.1577  -28.8889   23.2829 C   0  0  0  0  0  0
  -18.9480  -30.1479   23.8860 C   0  0  0  0  0  0
  -17.6475  -30.6588   24.0552 C   0  0  0  0  0  0
  -25.9092  -34.9379   23.5039 C   0  0  0  0  0  0
  -16.5367  -29.9071   23.6335 C   0  0  0  0  0  0
  -16.7297  -28.6495   23.0350 C   0  0  0  0  0  0
  -26.4573  -31.6519   25.0682 C   0  0  0  0  0  0
  -25.3729  -31.3703   26.1347 C   0  0  0  0  0  0
  -27.0444  -30.2908   24.6307 C   0  0  0  0  0  0
  -27.6099  -32.4282   25.7473 C   0  0  0  0  0  0
  -27.5565  -37.1781   24.8467 C   0  0  0  0  0  0
  -21.4321  -29.3042   22.3587 N   0  0  0  0  0  0
  -26.4276  -37.3726   23.9408 N   0  0  0  0  0  0
  -24.7409  -31.0038   22.0908 N   0  0  0  0  0  0
  -23.4224  -28.8037   23.3048 O   0  0  0  0  0  0
  -28.2111  -25.8966   20.1892 O   0  0  0  0  0  0
  -26.5682  -34.8903   22.4619 O   0  0  0  0  0  0
  -23.5669  -32.1275   23.6922 O   0  0  0  0  0  0
  -30.2118  -19.2593   19.5880 C   0  0  0  0  0  0
  -28.3025  -18.7818   20.8085 C   0  0  0  0  0  0
  -30.8003  -17.7491   19.9335 C   0  0  0  0  0  0
  -28.8534  -17.2337   21.1376 C   0  0  0  0  0  0
  -27.2347  -21.8551   20.4463 C   0  0  0  0  0  0
  -29.2641  -20.0786   20.5924 C   0  0  0  0  0  0
  -28.0614  -24.2851   20.4918 C   0  0  2  0  0  0
  -29.2256  -23.0305   20.4010 C   0  0  2  0  0  0
  -26.8859  -23.3505   19.9930 C   0  0  0  0  0  0
  -30.2934  -23.3808   19.3530 C   0  0  0  0  0  0
  -26.7887  -23.3499   18.4456 C   0  0  0  0  0  0
  -25.5230  -23.6718   20.6537 C   0  0  0  0  0  0
  -29.9545  -16.5294   20.3398 N   0  0  0  0  0  0
  -28.6563  -21.5558   20.1444 N   0  3  2  0  0  0
  -31.4486  -12.9008   19.1866 H   0  0  0  0  0  0
  -30.4373  -11.8345   20.1070 H   0  0  0  0  0  0
  -29.8819  -11.7511   17.6458 H   0  0  0  0  0  0
  -29.5663  -13.4694   17.6524 H   0  0  0  0  0  0
  -28.0011  -11.2833   19.0480 H   0  0  0  0  0  0
  -27.3934  -12.3852   17.8396 H   0  0  0  0  0  0
  -27.5314  -14.2546   19.3432 H   0  0  0  0  0  0
  -28.8054  -12.4944   21.4834 H   0  0  0  0  0  0
  -28.3139  -14.1605   21.6934 H   0  0  0  0  0  0
  -25.2788   -9.5672   22.4780 H   0  0  0  0  0  0
  -24.0014   -7.4623   22.7476 H   0  0  0  0  0  0
  -21.0873   -8.8788   19.8945 H   0  0  0  0  0  0
  -22.3746  -10.9680   19.6156 H   0  0  0  0  0  0
  -21.2013   -7.6147   23.9728 H   0  0  0  0  0  0
  -21.1485   -6.0509   25.9082 H   0  0  0  0  0  0
  -22.0601   -2.7607   23.2832 H   0  0  0  0  0  0
  -22.4000  -11.9842   22.4839 H   0  0  0  0  0  0
  -21.0987  -13.1173   22.2608 H   0  0  0  0  0  0
  -24.6359  -15.8529   20.5512 H   0  0  0  0  0  0
  -26.2520  -15.6449   20.1028 H   0  0  0  0  0  0
  -26.7356  -32.5204   23.0924 H   0  0  0  0  0  0
  -25.0112  -33.9533   25.0271 H   0  0  0  0  0  0
  -22.7763  -31.2794   21.3691 H   0  0  0  0  0  0
  -23.3771  -35.9531   23.3264 H   0  0  0  0  0  0
  -24.3581  -36.8893   22.2064 H   0  0  0  0  0  0
  -23.7219  -37.6398   23.6699 H   0  0  0  0  0  0
  -26.1944  -31.3939   20.6117 H   0  0  0  0  0  0
  -26.9032  -30.7218   22.0391 H   0  0  0  0  0  0
  -28.1368  -28.6353   21.2797 H   0  0  0  0  0  0
  -25.8898  -25.8658   18.8801 H   0  0  0  0  0  0
  -24.0027  -27.3281   18.9077 H   0  0  0  0  0  0
  -23.8467  -30.5465   19.3976 H   0  0  0  0  0  0
  -22.8102  -29.2247   19.8397 H   0  0  0  0  0  0
  -25.1316  -36.1806   25.0803 H   0  0  0  0  0  0
  -21.0019  -28.3312   24.1335 H   0  0  0  0  0  0
  -20.5688  -26.2342   23.3625 H   0  0  0  0  0  0
  -21.6657  -26.7414   22.1186 H   0  0  0  0  0  0
  -19.6923  -25.6287   21.1247 H   0  0  0  0  0  0
  -19.6705  -27.3191   20.6740 H   0  0  0  0  0  0
  -17.4223  -26.6685   21.4026 H   0  0  0  0  0  0
  -18.0345  -26.0083   22.9023 H   0  0  0  0  0  0
  -19.7952  -30.7308   24.2220 H   0  0  0  0  0  0
  -17.5014  -31.6265   24.5159 H   0  0  0  0  0  0
  -15.5363  -30.2954   23.7676 H   0  0  0  0  0  0
  -15.8699  -28.0798   22.7079 H   0  0  0  0  0  0
  -24.5965  -30.6996   25.7644 H   0  0  0  0  0  0
  -24.8857  -32.2866   26.4685 H   0  0  0  0  0  0
  -25.8004  -30.8936   27.0176 H   0  0  0  0  0  0
  -26.3075  -29.6621   24.1296 H   0  0  0  0  0  0
  -27.4018  -29.7215   25.4897 H   0  0  0  0  0  0
  -27.9001  -30.4137   23.9667 H   0  0  0  0  0  0
  -27.2729  -33.3658   26.1905 H   0  0  0  0  0  0
  -28.3989  -32.6702   25.0336 H   0  0  0  0  0  0
  -28.0659  -31.8469   26.5498 H   0  0  0  0  0  0
  -28.2559  -38.0100   24.7519 H   0  0  0  0  0  0
  -28.1087  -36.2626   24.6285 H   0  0  0  0  0  0
  -27.2282  -37.1404   25.8871 H   0  0  0  0  0  0
  -20.9569  -29.8761   21.6745 H   0  0  0  0  0  0
  -26.0129  -38.2788   24.1410 H   0  0  0  0  0  0
  -29.6923  -19.1884   18.6309 H   0  0  0  0  0  0
  -31.0727  -19.8940   19.3751 H   0  0  0  0  0  0
  -27.6022  -19.0364   21.6052 H   0  0  0  0  0  0
  -27.6736  -18.7011   19.9202 H   0  0  0  0  0  0
  -31.5402  -17.8723   20.7254 H   0  0  0  0  0  0
  -31.3817  -17.4421   19.0622 H   0  0  0  0  0  0
  -27.9923  -16.5661   21.1387 H   0  0  0  0  0  0
  -29.2051  -17.2322   22.1704 H   0  0  0  0  0  0
  -26.5756  -21.1262   19.9729 H   0  0  0  0  0  0
  -27.0974  -21.7471   21.5243 H   0  0  0  0  0  0
  -29.8046  -20.2453   21.5250 H   0  0  0  0  0  0
  -27.8896  -24.3511   21.5676 H   0  0  0  0  0  0
  -29.7261  -22.9997   21.3701 H   0  0  0  0  0  0
  -29.8754  -23.4406   18.3482 H   0  0  0  0  0  0
  -31.1007  -22.6484   19.3410 H   0  0  0  0  0  0
  -30.7351  -24.3531   19.5742 H   0  0  0  0  0  0
  -26.8797  -24.3377   18.0033 H   0  0  0  0  0  0
  -25.8527  -22.9089   18.1023 H   0  0  0  0  0  0
  -27.5880  -22.7682   17.9890 H   0  0  0  0  0  0
  -25.5915  -23.6343   21.7417 H   0  0  0  0  0  0
  -24.7709  -22.9402   20.3582 H   0  0  0  0  0  0
  -25.1083  -24.6403   20.4083 H   0  0  0  0  0  0
  -28.6286  -21.4761   19.1390 H   0  0  0  0  0  0
  1 25  1  0  0  0
  1 30  2  0  0  0
  1 83  1  0  0  0
  2  3  1  0  0  0
  2 25  1  0  0  0
  2 85  1  0  0  0
  2 86  1  0  0  0
  3  4  1  0  0  0
  3 87  1  0  0  0
  3 88  1  0  0  0
  4  5  1  0  0  0
  4 89  1  0  0  0
  4 90  1  0  0  0
  5  6  1  0  0  0
  5 26  1  0  0  0
  5 91  1  0  0  0
  6 25  1  0  0  0
  6 92  1  0  0  0
  6 93  1  0  0  0
  7  8  2  0  0  0
  7 26  1  0  0  0
  7 29  1  0  0  0
  8  9  1  0  0  0
  8 22  1  0  0  0
  9 10  1  0  0  0
  9 27  2  0  0  0
 10 11  2  0  0  0
 10 15  1  0  0  0
 11 12  1  0  0  0
 11 94  1  0  0  0
 12 13  2  0  0  0
 12 95  1  0  0  0
 13 14  1  0  0  0
 13 31  1  0  0  0
 14 15  2  0  0  0
 14 96  1  0  0  0
 15 97  1  0  0  0
 16 17  2  0  0  0
 16 21  1  0  0  0
 16 31  1  0  0  0
 17 18  1  0  0  0
 17 98  1  0  0  0
 18 19  2  0  0  0
 18 99  1  0  0  0
 19 20  1  0  0  0
 19 24  1  0  0  0
 20 21  2  0  0  0
 20100  1  0  0  0
 21 23  1  0  0  0
 22 28  1  0  0  0
 22 32  2  0  0  0
 26 27  1  0  0  0
 28101  1  0  0  0
 28102  1  0  0  0
 29103  1  0  0  0
 29104  1  0  0  0
 33 34  1  0  0  0
 33 66  1  0  0  0
 33 70  2  0  0  0
 34 36  1  0  0  0
 34 59  1  0  0  0
 34105  1  0  0  0
 35 44  2  0  0  0
 35 45  1  0  0  0
 35 68  1  0  0  0
 36 56  1  0  0  0
 36106  1  0  0  0
 37 39  1  0  0  0
 37 47  1  0  0  0
 37 66  1  0  0  0
 37107  1  0  0  0
 38 43  2  0  0  0
 38 46  1  0  0  0
 38 47  1  0  0  0
 39 64  1  0  0  0
 39 67  2  0  0  0
 40 52  1  0  0  0
 40 53  2  0  0  0
 40 58  1  0  0  0
 41108  1  0  0  0
 41109  1  0  0  0
 41110  1  0  0  0
 41 48  1  0  0  0
 42 43  1  0  0  0
 42 66  1  0  0  0
 42111  1  0  0  0
 42112  1  0  0  0
 43 44  1  0  0  0
 44113  1  0  0  0
 45 46  2  0  0  0
 45114  1  0  0  0
 46115  1  0  0  0
 47116  1  0  0  0
 47117  1  0  0  0
 48 56  1  0  0  0
 48 65  1  0  0  0
 48118  1  0  0  0
 49 50  1  0  0  0
 49 53  1  0  0  0
 49 64  1  0  0  0
 49119  1  0  0  0
 50 51  1  0  0  0
 50120  1  0  0  0
 50121  1  0  0  0
 51 52  1  0  0  0
 51122  1  0  0  0
 51123  1  0  0  0
 52124  1  0  0  0
 52125  1  0  0  0
 53 54  1  0  0  0
 54 55  2  0  0  0
 54126  1  0  0  0
 55 57  1  0  0  0
 55127  1  0  0  0
 56 69  2  0  0  0
 57 58  2  0  0  0
 57128  1  0  0  0
 58129  1  0  0  0
 59 60  1  0  0  0
 59 61  1  0  0  0
 59 62  1  0  0  0
 60130  1  0  0  0
 60131  1  0  0  0
 60132  1  0  0  0
 61133  1  0  0  0
 61134  1  0  0  0
 61135  1  0  0  0
 62136  1  0  0  0
 62137  1  0  0  0
 62138  1  0  0  0
 63 65  1  0  0  0
 63139  1  0  0  0
 63140  1  0  0  0
 63141  1  0  0  0
 64142  1  0  0  0
 65143  1  0  0  0
 68 77  1  0  0  0
 71 73  1  0  0  0
 71144  1  0  0  0
 71145  1  0  0  0
 71 76  1  0  0  0
 72 74  1  0  0  0
 72 76  1  0  0  0
 72146  1  0  0  0
 72147  1  0  0  0
 73 83  1  0  0  0
 73148  1  0  0  0
 73149  1  0  0  0
 74 83  1  0  0  0
 74150  1  0  0  0
 74151  1  0  0  0
 75 79  1  0  0  0
 75152  1  0  0  0
 75153  1  0  0  0
 75 84  1  0  0  0
 76 84  1  0  0  0
 76154  1  0  0  0
 77 78  1  0  0  0
 77 79  1  0  0  0
 77155  1  0  0  0
 78 80  1  0  0  0
 78 84  1  0  0  0
 78156  1  0  0  0
 79 81  1  0  0  0
 79 82  1  0  0  0
 80157  1  0  0  0
 80158  1  0  0  0
 80159  1  0  0  0
 81160  1  0  0  0
 81161  1  0  0  0
 81162  1  0  0  0
 82163  1  0  0  0
 82164  1  0  0  0
 82165  1  0  0  0
 84166  1  0  0  0
M  CHG  1  84   1
M  ISO  4   1 100  68 101  77 101  83 100
M  END
> <chiral flag>
0

> <version>
0

> <s_m_source_file>
/data/baiqing/PycharmProjects/Reinvent-master-3.2/result/LINK_invent/BTK/process_docking_weight1_custom_sum_contain_oxygen_bond_distance_aromatic_linkinvent_7_9_3/rearranged_h_0165.sdf

> <i_m_source_file_index>
13

> <r_mmod_Potential_Energy-OPLS-2005>
1291.6962890625

> <r_mmod_Stretch_Energy-OPLS-2005>
430.305908203125

> <r_mmod_Bend_Energy-OPLS-2005>
513.486572265625

> <r_mmod_Torsional_Energy-OPLS-2005>
394.279510498047

> <r_mmod_Improper_Torsional_Energy-OPLS-2005>
12.556056022644

> <r_mmod_Van_der_Waal_Energy-OPLS-2005>
115.23706817627

> <r_mmod_Electrostatic_Energy-OPLS-2005>
-122.886604309082

> <r_mmod_Solvation_Energy-OPLS-2005>
-412.852752685547

> <b_mmod_Minimization_Converged-OPLS-2005>
0

> <r_mmod_RMS_Derivative-OPLS-2005>
1.69917333126068

$$$$
13
                    3D
 Structure written by MMmdl.
180191  0  0  1  0            999 V2000
  -30.5990  -14.7638   20.4412 C   0  0  0  0  0  0
  -30.4417  -12.4675   19.4732 C   0  0  0  0  0  0
  -29.5158  -12.5127   18.2374 C   0  0  0  0  0  0
  -28.0401  -12.3368   18.6466 C   0  0  0  0  0  0
  -27.6433  -13.2294   19.8524 C   0  0  2  0  0  0
  -28.6910  -13.1634   20.9869 C   0  0  0  0  0  0
  -25.2534  -13.8200   20.5682 C   0  0  0  0  0  0
  -24.1821  -13.0428   20.9191 C   0  0  0  0  0  0
  -24.6408  -11.6908   20.8711 C   0  0  0  0  0  0
  -23.9082  -10.4290   21.0381 C   0  0  0  0  0  0
  -24.3620   -9.4208   21.9164 C   0  0  0  0  0  0
  -23.6298   -8.2244   22.0759 C   0  0  0  0  0  0
  -22.4281   -8.0283   21.3546 C   0  0  0  0  0  0
  -21.9920   -9.0253   20.4640 C   0  0  0  0  0  0
  -22.7253  -10.2129   20.3049 C   0  0  0  0  0  0
  -21.6872   -6.0714   22.5254 C   0  0  0  0  0  0
  -21.4024   -6.5618   23.8181 C   0  0  0  0  0  0
  -21.3671   -5.6786   24.9157 C   0  0  0  0  0  0
  -21.6055   -4.3046   24.7212 C   0  0  0  0  0  0
  -21.8835   -3.8124   23.4334 C   0  0  0  0  0  0
  -21.9205   -4.6944   22.3392 C   0  0  0  0  0  0
  -22.7836  -13.5211   21.1847 C   0  0  0  0  0  0
  -22.1677   -4.2119   21.0972 F   0  0  0  0  0  0
  -21.5639   -3.4542   25.7730 F   0  0  0  0  0  0
  -29.9943  -13.5247   20.4074 N   0  0  0  0  0  0
  -26.2954  -12.9391   20.3292 N   0  0  0  0  0  0
  -25.9340  -11.6530   20.5728 N   0  0  0  0  0  0
  -22.0515  -12.8161   22.0407 N   0  0  0  0  0  0
  -25.4213  -15.1934   20.4083 N   0  0  0  0  0  0
  -31.7788  -14.8840   20.1047 O   0  0  0  0  0  0
  -21.6666   -6.8863   21.4220 O   0  0  0  0  0  0
  -22.3486  -14.5483   20.6684 O   0  0  0  0  0  0
  -24.6386  -31.8568   23.1980 C   0  0  0  0  0  0
  -25.9199  -32.4768   23.8346 C   0  0  1  0  0  0
  -27.2207  -27.2391   20.1281 C   0  0  0  0  0  0
  -25.5974  -33.8564   24.2286 N   0  0  0  0  0  0
  -23.4346  -30.4800   21.5444 C   0  0  2  0  0  0
  -24.8784  -28.9221   20.1173 C   0  0  0  0  0  0
  -22.7528  -29.4640   22.4936 C   0  0  0  0  0  0
  -18.0316  -28.1395   22.8513 C   0  0  0  0  0  0
  -24.1485  -36.7277   23.2639 C   0  0  0  0  0  0
  -25.9837  -30.7623   21.3792 C   0  0  0  0  0  0
  -26.0547  -29.3816   20.7237 C   0  0  0  0  0  0
  -27.2281  -28.5541   20.7159 C   0  0  0  0  0  0
  -26.0204  -26.8641   19.4835 C   0  0  0  0  0  0
  -24.8680  -27.6711   19.4881 C   0  0  0  0  0  0
  -23.6521  -29.8131   20.1621 C   0  0  0  0  0  0
  -25.4112  -36.3085   24.0345 C   0  0  1  0  0  0
  -20.5925  -28.3731   23.1267 C   0  0  2  0  0  0
  -20.6803  -26.9449   22.5410 C   0  0  0  0  0  0
  -19.5761  -26.6400   21.5234 C   0  0  0  0  0  0
  -18.1945  -26.7944   22.1647 C   0  0  0  0  0  0
  -19.1571  -28.8872   23.2883 C   0  0  0  0  0  0
  -18.9480  -30.1468   23.8910 C   0  0  0  0  0  0
  -17.6473  -30.6593   24.0575 C   0  0  0  0  0  0
  -25.9065  -34.9453   23.5120 C   0  0  0  0  0  0
  -16.5371  -29.9094   23.6328 C   0  0  0  0  0  0
  -16.7300  -28.6507   23.0371 C   0  0  0  0  0  0
  -26.4519  -31.6566   25.0739 C   0  0  0  0  0  0
  -25.3714  -31.3731   26.1439 C   0  0  0  0  0  0
  -27.0350  -30.2970   24.6246 C   0  0  0  0  0  0
  -27.6076  -32.4276   25.7536 C   0  0  0  0  0  0
  -27.5585  -37.1804   24.8476 C   0  0  0  0  0  0
  -21.4233  -29.3082   22.3653 N   0  0  0  0  0  0
  -26.4296  -37.3785   23.9423 N   0  0  0  0  0  0
  -24.7054  -31.0516   22.0970 N   0  0  0  0  0  0
  -23.4205  -28.8200   23.3069 O   0  0  0  0  0  0
  -28.3072  -26.3216   20.1656 O   0  0  0  0  0  0
  -26.5626  -34.8931   22.4685 O   0  0  0  0  0  0
  -23.5527  -32.1399   23.7253 O   0  0  0  0  0  0
  -28.4232  -19.5291   17.4584 C   0  0  0  0  0  0
  -27.8715  -18.5214   16.6481 C   0  0  0  0  0  0
  -28.8145  -20.1562   22.9946 C   0  0  0  0  0  0
  -28.7474  -16.8598   18.1741 C   0  0  0  0  0  0
  -29.1459  -19.2405   18.6445 C   0  0  0  0  0  0
  -29.1657  -19.8103   21.6803 C   0  0  0  0  0  0
  -29.2811  -17.8572   19.0342 C   0  0  0  0  0  0
  -29.2805  -20.8939   20.7256 C   0  0  0  0  0  0
  -28.9033  -22.5597   22.5382 C   0  0  0  0  0  0
  -28.0515  -17.1745   16.9972 C   0  0  0  0  0  0
  -28.6964  -21.4797   23.4302 C   0  0  0  0  0  0
  -29.0696  -22.3143   21.1344 C   0  0  0  0  0  0
  -29.3568  -18.2395   21.5465 C   0  0  0  0  0  0
  -30.1207  -24.9144   22.9130 C   0  0  0  0  0  0
  -29.9348  -24.2929   24.2664 C   0  0  0  0  0  0
  -29.7943  -20.4798   19.3354 C   0  0  1  0  0  0
  -28.9666  -23.9532   23.1440 C   0  0  0  0  0  0
  -29.9402  -17.3817   20.3507 C   0  0  1  0  0  0
  -27.5068  -16.0596   16.1232 C   0  0  0  0  0  0
  -28.3537  -21.6968   24.8992 C   0  0  0  0  0  0
  -31.3297  -20.3998   19.3383 C   0  0  0  0  0  0
  -29.1350  -23.6388   20.2064 C   0  0  0  0  0  0
  -28.0170  -24.8357   20.2958 C   0  0  0  0  0  0
  -29.7862  -15.8688   20.6387 N   0  0  0  0  0  0
  -31.4789  -12.6047   19.1641 H   0  0  0  0  0  0
  -30.4048  -11.4922   19.9578 H   0  0  0  0  0  0
  -29.8008  -11.7390   17.5232 H   0  0  0  0  0  0
  -29.6440  -13.4662   17.7220 H   0  0  0  0  0  0
  -27.8893  -11.2848   18.8922 H   0  0  0  0  0  0
  -27.3895  -12.5432   17.7956 H   0  0  0  0  0  0
  -27.6314  -14.2501   19.4749 H   0  0  0  0  0  0
  -28.7318  -12.1637   21.4223 H   0  0  0  0  0  0
  -28.4197  -13.8391   21.7998 H   0  0  0  0  0  0
  -25.2779   -9.5678   22.4712 H   0  0  0  0  0  0
  -24.0025   -7.4633   22.7471 H   0  0  0  0  0  0
  -21.0878   -8.8751   19.8909 H   0  0  0  0  0  0
  -22.3729  -10.9657   19.6128 H   0  0  0  0  0  0
  -21.2009   -7.6122   23.9670 H   0  0  0  0  0  0
  -21.1492   -6.0522   25.9063 H   0  0  0  0  0  0
  -22.0603   -2.7583   23.2850 H   0  0  0  0  0  0
  -22.4236  -11.9861   22.4811 H   0  0  0  0  0  0
  -21.1094  -13.1084   22.2573 H   0  0  0  0  0  0
  -24.6461  -15.8396   20.5179 H   0  0  0  0  0  0
  -26.2513  -15.6359   20.0350 H   0  0  0  0  0  0
  -26.7286  -32.5414   23.1096 H   0  0  0  0  0  0
  -25.0117  -33.9692   25.0431 H   0  0  0  0  0  0
  -22.7350  -31.3050   21.3961 H   0  0  0  0  0  0
  -23.3771  -35.9585   23.3287 H   0  0  0  0  0  0
  -24.3573  -36.8905   22.2054 H   0  0  0  0  0  0
  -23.7198  -37.6468   23.6649 H   0  0  0  0  0  0
  -26.1215  -31.5179   20.6048 H   0  0  0  0  0  0
  -26.8619  -30.8156   22.0123 H   0  0  0  0  0  0
  -28.1268  -28.9054   21.2016 H   0  0  0  0  0  0
  -25.9325  -25.9270   18.9596 H   0  0  0  0  0  0
  -23.9707  -27.3137   19.0030 H   0  0  0  0  0  0
  -23.7848  -30.5883   19.4066 H   0  0  0  0  0  0
  -22.7676  -29.2507   19.8549 H   0  0  0  0  0  0
  -25.1279  -36.1947   25.0840 H   0  0  0  0  0  0
  -21.0034  -28.3317   24.1383 H   0  0  0  0  0  0
  -20.5727  -26.2360   23.3630 H   0  0  0  0  0  0
  -21.6662  -26.7476   22.1186 H   0  0  0  0  0  0
  -19.6922  -25.6310   21.1268 H   0  0  0  0  0  0
  -19.6666  -27.3210   20.6759 H   0  0  0  0  0  0
  -17.4222  -26.6744   21.4036 H   0  0  0  0  0  0
  -18.0306  -26.0066   22.9016 H   0  0  0  0  0  0
  -19.7943  -30.7293   24.2296 H   0  0  0  0  0  0
  -17.5021  -31.6272   24.5174 H   0  0  0  0  0  0
  -15.5373  -30.2997   23.7622 H   0  0  0  0  0  0
  -15.8718  -28.0811   22.7092 H   0  0  0  0  0  0
  -24.5940  -30.7026   25.7760 H   0  0  0  0  0  0
  -24.8845  -32.2897   26.4773 H   0  0  0  0  0  0
  -25.8016  -30.8980   27.0264 H   0  0  0  0  0  0
  -26.2944  -29.6732   24.1243 H   0  0  0  0  0  0
  -27.3964  -29.7226   25.4781 H   0  0  0  0  0  0
  -27.8844  -30.4203   23.9531 H   0  0  0  0  0  0
  -27.2704  -33.3583   26.2097 H   0  0  0  0  0  0
  -28.3918  -32.6813   25.0396 H   0  0  0  0  0  0
  -28.0705  -31.8400   26.5471 H   0  0  0  0  0  0
  -28.2611  -38.0095   24.7527 H   0  0  0  0  0  0
  -28.1077  -36.2630   24.6287 H   0  0  0  0  0  0
  -27.2311  -37.1441   25.8883 H   0  0  0  0  0  0
  -20.9450  -29.8780   21.6811 H   0  0  0  0  0  0
  -26.0185  -38.2880   24.1384 H   0  0  0  0  0  0
  -28.2930  -20.5513   17.1314 H   0  0  0  0  0  0
  -27.3312  -18.7882   15.7499 H   0  0  0  0  0  0
  -28.6806  -19.3660   23.7203 H   0  0  0  0  0  0
  -28.8562  -15.8107   18.3933 H   0  0  0  0  0  0
  -28.3519  -17.8521   21.7157 H   0  0  0  0  0  0
  -29.9284  -17.9320   22.4221 H   0  0  0  0  0  0
  -30.9975  -24.5829   22.3602 H   0  0  0  0  0  0
  -29.8791  -25.9700   22.8135 H   0  0  0  0  0  0
  -29.5829  -24.9427   25.0660 H   0  0  0  0  0  0
  -30.6713  -23.5482   24.5635 H   0  0  0  0  0  0
  -29.5733  -21.3204   18.6838 H   0  0  0  0  0  0
  -27.9655  -24.3623   23.2613 H   0  0  0  0  0  0
  -31.0077  -17.5782   20.2569 H   0  0  0  0  0  0
  -27.1347  -16.4367   15.1715 H   0  0  0  0  0  0
  -26.6907  -15.5394   16.6248 H   0  0  0  0  0  0
  -28.2871  -15.3276   15.9097 H   0  0  0  0  0  0
  -27.8196  -20.8404   25.3121 H   0  0  0  0  0  0
  -27.7063  -22.5627   25.0356 H   0  0  0  0  0  0
  -29.2547  -21.8419   25.4945 H   0  0  0  0  0  0
  -31.7246  -20.1693   18.3484 H   0  0  0  0  0  0
  -31.6995  -19.6464   20.0298 H   0  0  0  0  0  0
  -31.7601  -21.3535   19.6467 H   0  0  0  0  0  0
  -29.1508  -23.3324   19.1631 H   0  0  0  0  0  0
  -30.1173  -24.0834   20.3506 H   0  0  0  0  0  0
  -27.4506  -24.7365   21.2157 H   0  0  0  0  0  0
  -27.2925  -24.5380   19.5438 H   0  0  0  0  0  0
  -28.8577  -15.6119   20.9328 H   0  0  0  0  0  0
  1 25  1  0  0  0
  1 30  2  0  0  0
  1 94  1  0  0  0
  2  3  1  0  0  0
  2 25  1  0  0  0
  2 95  1  0  0  0
  2 96  1  0  0  0
  3  4  1  0  0  0
  3 97  1  0  0  0
  3 98  1  0  0  0
  4  5  1  0  0  0
  4 99  1  0  0  0
  4100  1  0  0  0
  5  6  1  0  0  0
  5 26  1  0  0  0
  5101  1  0  0  0
  6 25  1  0  0  0
  6102  1  0  0  0
  6103  1  0  0  0
  7  8  2  0  0  0
  7 26  1  0  0  0
  7 29  1  0  0  0
  8  9  1  0  0  0
  8 22  1  0  0  0
  9 10  1  0  0  0
  9 27  2  0  0  0
 10 11  2  0  0  0
 10 15  1  0  0  0
 11 12  1  0  0  0
 11104  1  0  0  0
 12 13  2  0  0  0
 12105  1  0  0  0
 13 14  1  0  0  0
 13 31  1  0  0  0
 14 15  2  0  0  0
 14106  1  0  0  0
 15107  1  0  0  0
 16 17  2  0  0  0
 16 21  1  0  0  0
 16 31  1  0  0  0
 17 18  1  0  0  0
 17108  1  0  0  0
 18 19  2  0  0  0
 18109  1  0  0  0
 19 20  1  0  0  0
 19 24  1  0  0  0
 20 21  2  0  0  0
 20110  1  0  0  0
 21 23  1  0  0  0
 22 28  1  0  0  0
 22 32  2  0  0  0
 26 27  1  0  0  0
 28111  1  0  0  0
 28112  1  0  0  0
 29113  1  0  0  0
 29114  1  0  0  0
 33 34  1  0  0  0
 33 66  1  0  0  0
 33 70  2  0  0  0
 34 36  1  0  0  0
 34 59  1  0  0  0
 34115  1  0  0  0
 35 44  2  0  0  0
 35 45  1  0  0  0
 35 68  1  0  0  0
 36 56  1  0  0  0
 36116  1  0  0  0
 37 39  1  0  0  0
 37 47  1  0  0  0
 37 66  1  0  0  0
 37117  1  0  0  0
 38 43  2  0  0  0
 38 46  1  0  0  0
 38 47  1  0  0  0
 39 64  1  0  0  0
 39 67  2  0  0  0
 40 52  1  0  0  0
 40 53  2  0  0  0
 40 58  1  0  0  0
 41118  1  0  0  0
 41119  1  0  0  0
 41120  1  0  0  0
 41 48  1  0  0  0
 42 43  1  0  0  0
 42 66  1  0  0  0
 42121  1  0  0  0
 42122  1  0  0  0
 43 44  1  0  0  0
 44123  1  0  0  0
 45 46  2  0  0  0
 45124  1  0  0  0
 46125  1  0  0  0
 47126  1  0  0  0
 47127  1  0  0  0
 48 56  1  0  0  0
 48 65  1  0  0  0
 48128  1  0  0  0
 49 50  1  0  0  0
 49 53  1  0  0  0
 49 64  1  0  0  0
 49129  1  0  0  0
 50 51  1  0  0  0
 50130  1  0  0  0
 50131  1  0  0  0
 51 52  1  0  0  0
 51132  1  0  0  0
 51133  1  0  0  0
 52134  1  0  0  0
 52135  1  0  0  0
 53 54  1  0  0  0
 54 55  2  0  0  0
 54136  1  0  0  0
 55 57  1  0  0  0
 55137  1  0  0  0
 56 69  2  0  0  0
 57 58  2  0  0  0
 57138  1  0  0  0
 58139  1  0  0  0
 59 60  1  0  0  0
 59 61  1  0  0  0
 59 62  1  0  0  0
 60140  1  0  0  0
 60141  1  0  0  0
 60142  1  0  0  0
 61143  1  0  0  0
 61144  1  0  0  0
 61145  1  0  0  0
 62146  1  0  0  0
 62147  1  0  0  0
 62148  1  0  0  0
 63 65  1  0  0  0
 63149  1  0  0  0
 63150  1  0  0  0
 63151  1  0  0  0
 64152  1  0  0  0
 65153  1  0  0  0
 68 93  1  0  0  0
 71 72  2  0  0  0
 71 75  1  0  0  0
 71154  1  0  0  0
 72 80  1  0  0  0
 72155  1  0  0  0
 73 76  2  0  0  0
 73 81  1  0  0  0
 73156  1  0  0  0
 74 77  1  0  0  0
 74 80  2  0  0  0
 74157  1  0  0  0
 75 77  2  0  0  0
 75 86  1  0  0  0
 76 78  1  0  0  0
 76 83  1  0  0  0
 77 88  1  0  0  0
 78 82  2  0  0  0
 78 86  1  0  0  0
 79 81  2  0  0  0
 79 82  1  0  0  0
 79 87  1  0  0  0
 80 89  1  0  0  0
 81 90  1  0  0  0
 82 92  1  0  0  0
 83 88  1  0  0  0
 83158  1  0  0  0
 83159  1  0  0  0
 84 85  1  0  0  0
 84 87  1  0  0  0
 84160  1  0  0  0
 84161  1  0  0  0
 85 87  1  0  0  0
 85162  1  0  0  0
 85163  1  0  0  0
 86 91  1  0  0  0
 86164  1  0  0  0
 87165  1  0  0  0
 88 94  1  0  0  0
 88166  1  0  0  0
 89167  1  0  0  0
 89168  1  0  0  0
 89169  1  0  0  0
 90170  1  0  0  0
 90171  1  0  0  0
 90172  1  0  0  0
 91173  1  0  0  0
 91174  1  0  0  0
 91175  1  0  0  0
 92 93  1  0  0  0
 92176  1  0  0  0
 92177  1  0  0  0
 93178  1  0  0  0
 93179  1  0  0  0
 94180  1  0  0  0
M  ISO  4   1 100  68 101  93 101  94 100
M  END
> <chiral flag>
0

> <version>
0

> <s_m_source_file>
/data/baiqing/PycharmProjects/Reinvent-master-3.2/result/LINK_invent/BTK/process_docking_weight1_custom_sum_contain_oxygen_bond_distance_aromatic_linkinvent_7_9_3/rearranged_h_0165.sdf

> <i_m_source_file_index>
14

> <r_mmod_Potential_Energy-OPLS-2005>
288.895782470703

> <r_mmod_Stretch_Energy-OPLS-2005>
160.223678588867

> <r_mmod_Bend_Energy-OPLS-2005>
238.391891479492

> <r_mmod_Torsional_Energy-OPLS-2005>
259.968048095703

> <r_mmod_Improper_Torsional_Energy-OPLS-2005>
6.48051881790161

> <r_mmod_Van_der_Waal_Energy-OPLS-2005>
163.410690307617

> <r_mmod_Electrostatic_Energy-OPLS-2005>
-429.672637939453

> <r_mmod_Solvation_Energy-OPLS-2005>
-205.779403686523

> <b_mmod_Minimization_Converged-OPLS-2005>
0

> <r_mmod_RMS_Derivative-OPLS-2005>
2.86291146278381

$$$$
14
                    3D
 Structure written by MMmdl.
169179  0  0  1  0            999 V2000
  -30.7052  -14.8363   20.5848 C   0  0  0  0  0  0
  -30.4218  -12.5364   19.5195 C   0  0  0  0  0  0
  -29.5015  -12.4705   18.2793 C   0  0  0  0  0  0
  -28.0573  -12.2288   18.7316 C   0  0  0  0  0  0
  -27.6388  -13.2143   19.8531 C   0  0  2  0  0  0
  -28.6755  -13.2596   21.0041 C   0  0  0  0  0  0
  -25.2530  -13.8136   20.5686 C   0  0  0  0  0  0
  -24.1804  -13.0461   20.9209 C   0  0  0  0  0  0
  -24.6349  -11.6891   20.8788 C   0  0  0  0  0  0
  -23.9016  -10.4275   21.0433 C   0  0  0  0  0  0
  -24.3566   -9.4184   21.9209 C   0  0  0  0  0  0
  -23.6257   -8.2223   22.0761 C   0  0  0  0  0  0
  -22.4254   -8.0254   21.3550 C   0  0  0  0  0  0
  -21.9880   -9.0221   20.4651 C   0  0  0  0  0  0
  -22.7190  -10.2112   20.3070 C   0  0  0  0  0  0
  -21.6826   -6.0723   22.5283 C   0  0  0  0  0  0
  -21.3998   -6.5629   23.8210 C   0  0  0  0  0  0
  -21.3662   -5.6792   24.9179 C   0  0  0  0  0  0
  -21.6040   -4.3052   24.7236 C   0  0  0  0  0  0
  -21.8822   -3.8138   23.4355 C   0  0  0  0  0  0
  -21.9187   -4.6957   22.3405 C   0  0  0  0  0  0
  -22.7831  -13.5263   21.1857 C   0  0  0  0  0  0
  -22.1658   -4.2131   21.0981 F   0  0  0  0  0  0
  -21.5637   -3.4531   25.7747 F   0  0  0  0  0  0
  -29.9864  -13.6432   20.4399 N   0  0  0  0  0  0
  -26.2923  -12.9299   20.3321 N   0  0  0  0  0  0
  -25.9277  -11.6454   20.5824 N   0  0  0  0  0  0
  -22.0471  -12.8265   22.0374 N   0  0  0  0  0  0
  -25.4447  -15.1846   20.4159 N   0  0  0  0  0  0
  -31.8037  -14.9020   20.0296 O   0  0  0  0  0  0
  -21.6625   -6.8857   21.4248 O   0  0  0  0  0  0
  -22.3551  -14.5593   20.6690 O   0  0  0  0  0  0
  -24.5888  -31.8085   23.1879 C   0  0  0  0  0  0
  -25.8360  -32.4756   23.8278 C   0  0  1  0  0  0
  -27.0800  -27.2700   20.1163 C   0  0  0  0  0  0
  -25.4555  -33.8433   24.1713 N   0  0  0  0  0  0
  -23.3951  -30.4573   21.4776 C   0  0  2  0  0  0
  -24.8493  -28.9709   20.0158 C   0  0  0  0  0  0
  -22.7283  -29.4538   22.4455 C   0  0  0  0  0  0
  -18.0388  -28.1302   22.8474 C   0  0  0  0  0  0
  -24.1705  -36.8196   23.2428 C   0  0  0  0  0  0
  -25.9334  -30.7885   21.3278 C   0  0  0  0  0  0
  -25.9991  -29.4126   20.6944 C   0  0  0  0  0  0
  -27.1214  -28.5292   20.7918 C   0  0  0  0  0  0
  -26.0134  -26.9972   19.2425 C   0  0  0  0  0  0
  -24.8653  -27.7783   19.2914 C   0  0  0  0  0  0
  -23.5950  -29.8051   20.0663 C   0  0  0  0  0  0
  -25.3841  -36.3100   24.0457 C   0  0  1  0  0  0
  -20.5990  -28.3454   23.1027 C   0  0  2  0  0  0
  -20.6655  -26.9024   22.5431 C   0  0  0  0  0  0
  -19.5743  -26.6190   21.5115 C   0  0  0  0  0  0
  -18.1949  -26.7867   22.1541 C   0  0  0  0  0  0
  -19.1668  -28.8664   23.2863 C   0  0  0  0  0  0
  -18.9787  -30.1299   23.8823 C   0  0  0  0  0  0
  -17.6815  -30.6545   24.0545 C   0  0  0  0  0  0
  -25.8573  -34.9410   23.5035 C   0  0  0  0  0  0
  -16.5650  -29.9106   23.6360 C   0  0  0  0  0  0
  -16.7425  -28.6535   23.0375 C   0  0  0  0  0  0
  -26.4273  -31.6179   25.0394 C   0  0  0  0  0  0
  -25.4049  -31.2440   26.1370 C   0  0  0  0  0  0
  -27.0316  -30.2921   24.5184 C   0  0  0  0  0  0
  -27.6288  -32.3918   25.6801 C   0  0  0  0  0  0
  -27.5463  -37.1955   24.8424 C   0  0  0  0  0  0
  -21.3961  -29.2645   22.2970 N   0  0  0  0  0  0
  -26.4205  -37.3605   23.9477 N   0  0  0  0  0  0
  -24.6481  -31.0739   22.0383 N   0  0  0  0  0  0
  -23.3816  -28.8712   23.3089 O   0  0  0  0  0  0
  -27.8816  -26.1726   20.4602 O   0  0  0  0  0  0
  -26.6019  -34.8806   22.5023 O   0  0  0  0  0  0
  -23.4999  -32.0070   23.7600 O   0  0  0  0  0  0
  -28.1589  -21.8396   22.3307 C   0  0  0  0  0  0
  -30.4478  -22.2189   23.0795 C   0  0  0  0  0  0
  -27.9235  -23.2555   22.5940 C   0  0  0  0  0  0
  -28.8588  -24.0280   23.2797 C   0  0  0  0  0  0
  -30.1472  -23.5564   23.4865 C   0  0  0  0  0  0
  -29.4902  -21.2950   22.5175 C   0  0  0  0  0  0
  -28.3388  -25.3547   23.7448 C   0  0  0  0  0  0
  -26.9295  -25.4527   23.1765 C   0  0  0  0  0  0
  -31.4960  -17.9880   22.2235 C   0  0  0  0  0  0
  -31.3819  -19.5390   22.3591 C   0  0  0  0  0  0
  -29.3166  -18.6403   21.6677 C   0  0  0  0  0  0
  -30.4270  -17.5028   21.2292 C   0  0  2  0  0  0
  -26.8010  -24.2660   22.1991 C   0  0  1  0  0  0
  -31.1828  -24.5431   23.9806 C   0  0  0  0  0  0
  -25.3304  -23.7087   22.3821 C   0  0  0  0  0  0
  -27.0431  -24.9056   20.7597 C   0  0  0  0  0  0
  -29.9809  -19.9120   22.1784 N   0  0  0  0  0  0
  -30.2465  -15.9354   21.3509 N   0  0  0  0  0  0
  -31.4600  -12.6402   19.2010 H   0  0  0  0  0  0
  -30.3750  -11.5912   20.0631 H   0  0  0  0  0  0
  -29.8212  -11.6500   17.6312 H   0  0  0  0  0  0
  -29.5655  -13.3791   17.6830 H   0  0  0  0  0  0
  -28.0175  -11.2090   19.1211 H   0  0  0  0  0  0
  -27.3634  -12.2449   17.8904 H   0  0  0  0  0  0
  -27.6126  -14.1969   19.3813 H   0  0  0  0  0  0
  -28.7491  -12.2817   21.4902 H   0  0  0  0  0  0
  -28.3583  -13.9631   21.7716 H   0  0  0  0  0  0
  -25.2704   -9.5666   22.4780 H   0  0  0  0  0  0
  -23.9960   -7.4612   22.7473 H   0  0  0  0  0  0
  -21.0808   -8.8733   19.8932 H   0  0  0  0  0  0
  -22.3649  -10.9658   19.6164 H   0  0  0  0  0  0
  -21.1985   -7.6128   23.9712 H   0  0  0  0  0  0
  -21.1484   -6.0515   25.9080 H   0  0  0  0  0  0
  -22.0603   -2.7591   23.2858 H   0  0  0  0  0  0
  -22.4076  -11.9906   22.4730 H   0  0  0  0  0  0
  -21.1113  -13.1315   22.2603 H   0  0  0  0  0  0
  -24.7073  -15.8658   20.5478 H   0  0  0  0  0  0
  -26.3266  -15.6004   20.1444 H   0  0  0  0  0  0
  -26.6314  -32.5150   23.1057 H   0  0  0  0  0  0
  -24.7084  -33.9251   24.8498 H   0  0  0  0  0  0
  -22.7093  -31.2869   21.3526 H   0  0  0  0  0  0
  -23.3291  -36.1137   23.2453 H   0  0  0  0  0  0
  -24.4694  -36.9909   22.1955 H   0  0  0  0  0  0
  -23.8241  -37.7651   23.6565 H   0  0  0  0  0  0
  -26.0197  -31.5440   20.5370 H   0  0  0  0  0  0
  -26.8386  -30.9399   21.9291 H   0  0  0  0  0  0
  -27.9176  -28.7104   21.5020 H   0  0  0  0  0  0
  -25.9585  -26.0809   18.6609 H   0  0  0  0  0  0
  -23.9981  -27.4474   18.7342 H   0  0  0  0  0  0
  -23.7068  -30.5398   19.2650 H   0  0  0  0  0  0
  -22.7436  -29.1624   19.7956 H   0  0  0  0  0  0
  -25.0820  -36.2112   25.0998 H   0  0  0  0  0  0
  -21.0317  -28.3187   24.1044 H   0  0  0  0  0  0
  -20.5154  -26.2102   23.3761 H   0  0  0  0  0  0
  -21.6586  -26.6679   22.1572 H   0  0  0  0  0  0
  -19.6767  -25.6078   21.1202 H   0  0  0  0  0  0
  -19.6843  -27.2974   20.6619 H   0  0  0  0  0  0
  -17.4254  -26.6717   21.3914 H   0  0  0  0  0  0
  -18.0249  -25.9924   22.8849 H   0  0  0  0  0  0
  -19.8354  -30.7059   24.2079 H   0  0  0  0  0  0
  -17.5493  -31.6251   24.5088 H   0  0  0  0  0  0
  -15.5678  -30.3029   23.7644 H   0  0  0  0  0  0
  -15.8879  -28.0830   22.7013 H   0  0  0  0  0  0
  -24.6349  -30.5917   25.7243 H   0  0  0  0  0  0
  -24.9749  -32.1008   26.6798 H   0  0  0  0  0  0
  -25.9057  -30.5536   26.8242 H   0  0  0  0  0  0
  -26.4316  -29.7868   23.7492 H   0  0  0  0  0  0
  -27.1942  -29.5876   25.3453 H   0  0  0  0  0  0
  -28.0278  -30.4339   24.1610 H   0  0  0  0  0  0
  -27.3405  -33.4295   25.8777 H   0  0  0  0  0  0
  -28.4085  -32.4552   24.8941 H   0  0  0  0  0  0
  -28.0450  -31.9724   26.5527 H   0  0  0  0  0  0
  -28.2143  -38.0531   24.7205 H   0  0  0  0  0  0
  -28.1399  -36.2978   24.6403 H   0  0  0  0  0  0
  -27.2420  -37.1774   25.8942 H   0  0  0  0  0  0
  -20.8973  -29.7910   21.5971 H   0  0  0  0  0  0
  -26.0227  -38.2789   24.0737 H   0  0  0  0  0  0
  -27.3308  -21.2073   21.9759 H   0  0  0  0  0  0
  -31.4764  -21.9421   23.2003 H   0  0  0  0  0  0
  -28.9334  -26.2329   23.4266 H   0  0  0  0  0  0
  -28.2446  -25.3105   24.8321 H   0  0  0  0  0  0
  -26.6935  -26.4233   22.7753 H   0  0  0  0  0  0
  -26.1982  -25.3563   23.9696 H   0  0  0  0  0  0
  -31.2630  -17.5794   23.2030 H   0  0  0  0  0  0
  -32.5093  -17.6255   22.0100 H   0  0  0  0  0  0
  -32.0805  -19.9984   21.6467 H   0  0  0  0  0  0
  -31.7440  -19.8207   23.3532 H   0  0  0  0  0  0
  -28.7431  -18.2944   22.5158 H   0  0  0  0  0  0
  -28.6445  -18.8613   20.8456 H   0  0  0  0  0  0
  -30.7821  -17.7301   20.2199 H   0  0  0  0  0  0
  -31.2402  -25.4142   23.2860 H   0  0  0  0  0  0
  -32.1362  -24.0544   24.1758 H   0  0  0  0  0  0
  -30.8623  -24.9289   24.9523 H   0  0  0  0  0  0
  -25.1363  -22.8947   21.6938 H   0  0  0  0  0  0
  -24.5554  -24.4514   22.1257 H   0  0  0  0  0  0
  -25.1525  -23.3293   23.3990 H   0  0  0  0  0  0
  -25.9803  -25.1214   20.6074 H   0  0  0  0  0  0
  -27.1674  -24.1562   19.9479 H   0  0  0  0  0  0
  -30.9103  -15.7873   22.1045 H   0  0  0  0  0  0
  1 25  1  0  0  0
  1 30  2  0  0  0
  1 88  1  0  0  0
  2  3  1  0  0  0
  2 25  1  0  0  0
  2 89  1  0  0  0
  2 90  1  0  0  0
  3  4  1  0  0  0
  3 91  1  0  0  0
  3 92  1  0  0  0
  4  5  1  0  0  0
  4 93  1  0  0  0
  4 94  1  0  0  0
  5  6  1  0  0  0
  5 26  1  0  0  0
  5 95  1  0  0  0
  6 25  1  0  0  0
  6 96  1  0  0  0
  6 97  1  0  0  0
  7  8  2  0  0  0
  7 26  1  0  0  0
  7 29  1  0  0  0
  8  9  1  0  0  0
  8 22  1  0  0  0
  9 10  1  0  0  0
  9 27  2  0  0  0
 10 11  2  0  0  0
 10 15  1  0  0  0
 11 12  1  0  0  0
 11 98  1  0  0  0
 12 13  2  0  0  0
 12 99  1  0  0  0
 13 14  1  0  0  0
 13 31  1  0  0  0
 14 15  2  0  0  0
 14100  1  0  0  0
 15101  1  0  0  0
 16 17  2  0  0  0
 16 21  1  0  0  0
 16 31  1  0  0  0
 17 18  1  0  0  0
 17102  1  0  0  0
 18 19  2  0  0  0
 18103  1  0  0  0
 19 20  1  0  0  0
 19 24  1  0  0  0
 20 21  2  0  0  0
 20104  1  0  0  0
 21 23  1  0  0  0
 22 28  1  0  0  0
 22 32  2  0  0  0
 26 27  1  0  0  0
 28105  1  0  0  0
 28106  1  0  0  0
 29107  1  0  0  0
 29108  1  0  0  0
 33 34  1  0  0  0
 33 66  1  0  0  0
 33 70  2  0  0  0
 34 36  1  0  0  0
 34 59  1  0  0  0
 34109  1  0  0  0
 35 44  2  0  0  0
 35 45  1  0  0  0
 35 68  1  0  0  0
 36 56  1  0  0  0
 36110  1  0  0  0
 37 39  1  0  0  0
 37 47  1  0  0  0
 37 66  1  0  0  0
 37111  1  0  0  0
 38 43  2  0  0  0
 38 46  1  0  0  0
 38 47  1  0  0  0
 39 64  1  0  0  0
 39 67  2  0  0  0
 40 52  1  0  0  0
 40 53  2  0  0  0
 40 58  1  0  0  0
 41112  1  0  0  0
 41113  1  0  0  0
 41114  1  0  0  0
 41 48  1  0  0  0
 42 43  1  0  0  0
 42 66  1  0  0  0
 42115  1  0  0  0
 42116  1  0  0  0
 43 44  1  0  0  0
 44117  1  0  0  0
 45 46  2  0  0  0
 45118  1  0  0  0
 46119  1  0  0  0
 47120  1  0  0  0
 47121  1  0  0  0
 48 56  1  0  0  0
 48 65  1  0  0  0
 48122  1  0  0  0
 49 50  1  0  0  0
 49 53  1  0  0  0
 49 64  1  0  0  0
 49123  1  0  0  0
 50 51  1  0  0  0
 50124  1  0  0  0
 50125  1  0  0  0
 51 52  1  0  0  0
 51126  1  0  0  0
 51127  1  0  0  0
 52128  1  0  0  0
 52129  1  0  0  0
 53 54  1  0  0  0
 54 55  2  0  0  0
 54130  1  0  0  0
 55 57  1  0  0  0
 55131  1  0  0  0
 56 69  2  0  0  0
 57 58  2  0  0  0
 57132  1  0  0  0
 58133  1  0  0  0
 59 60  1  0  0  0
 59 61  1  0  0  0
 59 62  1  0  0  0
 60134  1  0  0  0
 60135  1  0  0  0
 60136  1  0  0  0
 61137  1  0  0  0
 61138  1  0  0  0
 61139  1  0  0  0
 62140  1  0  0  0
 62141  1  0  0  0
 62142  1  0  0  0
 63 65  1  0  0  0
 63143  1  0  0  0
 63144  1  0  0  0
 63145  1  0  0  0
 64146  1  0  0  0
 65147  1  0  0  0
 68 86  1  0  0  0
 71 73  2  0  0  0
 71 76  1  0  0  0
 71148  1  0  0  0
 72 75  1  0  0  0
 72 76  2  0  0  0
 72149  1  0  0  0
 73 74  1  0  0  0
 73 83  1  0  0  0
 74 75  2  0  0  0
 74 77  1  0  0  0
 75 84  1  0  0  0
 76 87  1  0  0  0
 77 78  1  0  0  0
 77150  1  0  0  0
 77151  1  0  0  0
 78 83  1  0  0  0
 78152  1  0  0  0
 78153  1  0  0  0
 79 80  1  0  0  0
 79 82  1  0  0  0
 79154  1  0  0  0
 79155  1  0  0  0
 80 87  1  0  0  0
 80156  1  0  0  0
 80157  1  0  0  0
 81 82  1  0  0  0
 81 87  1  0  0  0
 81158  1  0  0  0
 81159  1  0  0  0
 82 88  1  0  0  0
 82160  1  0  0  0
 83 85  1  0  0  0
 83 86  1  0  0  0
 84161  1  0  0  0
 84162  1  0  0  0
 84163  1  0  0  0
 85164  1  0  0  0
 85165  1  0  0  0
 85166  1  0  0  0
 86167  1  0  0  0
 86168  1  0  0  0
 88169  1  0  0  0
M  ISO  4   1 100  68 101  86 101  88 100
M  END
> <chiral flag>
0

> <version>
0

> <s_m_source_file>
/data/baiqing/PycharmProjects/Reinvent-master-3.2/result/LINK_invent/BTK/process_docking_weight1_custom_sum_contain_oxygen_bond_distance_aromatic_linkinvent_7_9_3/rearranged_h_0165.sdf

> <i_m_source_file_index>
15

> <r_mmod_Potential_Energy-OPLS-2005>
723.534484863281

> <r_mmod_Stretch_Energy-OPLS-2005>
209.835159301758

> <r_mmod_Bend_Energy-OPLS-2005>
423.03173828125

> <r_mmod_Torsional_Energy-OPLS-2005>
369.722900390625

> <r_mmod_Improper_Torsional_Energy-OPLS-2005>
12.6481599807739

> <r_mmod_Van_der_Waal_Energy-OPLS-2005>
162.162445068359

> <r_mmod_Electrostatic_Energy-OPLS-2005>
-432.24169921875

> <r_mmod_Solvation_Energy-OPLS-2005>
-222.989395141602

> <b_mmod_Minimization_Converged-OPLS-2005>
0

> <r_mmod_RMS_Derivative-OPLS-2005>
44.7230072021484

$$$$
15
                    3D
 Structure written by MMmdl.
188198  0  0  1  0            999 V2000
  -30.7110  -14.4781   20.6104 C   0  0  0  0  0  0
  -30.4262  -12.3290   19.4186 C   0  0  0  0  0  0
  -29.4896  -12.5041   18.2053 C   0  0  0  0  0  0
  -28.0149  -12.3547   18.6245 C   0  0  0  0  0  0
  -27.6595  -13.2046   19.8732 C   0  0  2  0  0  0
  -28.7021  -12.9931   20.9941 C   0  0  0  0  0  0
  -25.2579  -13.8158   20.5672 C   0  0  0  0  0  0
  -24.1835  -13.0431   20.9187 C   0  0  0  0  0  0
  -24.6388  -11.6905   20.8753 C   0  0  0  0  0  0
  -23.9064  -10.4283   21.0409 C   0  0  0  0  0  0
  -24.3614   -9.4204   21.9192 C   0  0  0  0  0  0
  -23.6286   -8.2234   22.0761 C   0  0  0  0  0  0
  -22.4277   -8.0273   21.3543 C   0  0  0  0  0  0
  -21.9914   -9.0249   20.4649 C   0  0  0  0  0  0
  -22.7242  -10.2129   20.3060 C   0  0  0  0  0  0
  -21.6847   -6.0739   22.5278 C   0  0  0  0  0  0
  -21.4007   -6.5636   23.8211 C   0  0  0  0  0  0
  -21.3658   -5.6799   24.9178 C   0  0  0  0  0  0
  -21.6038   -4.3055   24.7230 C   0  0  0  0  0  0
  -21.8825   -3.8155   23.4352 C   0  0  0  0  0  0
  -21.9192   -4.6961   22.3400 C   0  0  0  0  0  0
  -22.7867  -13.5234   21.1854 C   0  0  0  0  0  0
  -22.1663   -4.2153   21.0976 F   0  0  0  0  0  0
  -21.5636   -3.4538   25.7743 F   0  0  0  0  0  0
  -30.0302  -13.3094   20.4427 N   0  0  0  0  0  0
  -26.3004  -12.9318   20.3354 N   0  0  0  0  0  0
  -25.9303  -11.6479   20.5765 N   0  0  0  0  0  0
  -22.0504  -12.8206   22.0395 N   0  0  0  0  0  0
  -25.4311  -15.1863   20.4035 N   0  0  0  0  0  0
  -31.8173  -14.6859   20.1077 O   0  0  0  0  0  0
  -21.6629   -6.8880   21.4243 O   0  0  0  0  0  0
  -22.3554  -14.5543   20.6713 O   0  0  0  0  0  0
  -24.6121  -31.8606   23.2087 C   0  0  0  0  0  0
  -25.9010  -32.4768   23.8394 C   0  0  1  0  0  0
  -27.2474  -27.4227   20.0929 C   0  0  0  0  0  0
  -25.5872  -33.8575   24.2300 N   0  0  0  0  0  0
  -23.4010  -30.4813   21.5483 C   0  0  2  0  0  0
  -24.8505  -28.9423   20.1110 C   0  0  0  0  0  0
  -22.7385  -29.4630   22.5008 C   0  0  0  0  0  0
  -18.0255  -28.1393   22.8493 C   0  0  0  0  0  0
  -24.1473  -36.7342   23.2625 C   0  0  0  0  0  0
  -25.9255  -30.8250   21.3571 C   0  0  0  0  0  0
  -26.0065  -29.4569   20.7084 C   0  0  0  0  0  0
  -27.2029  -28.7056   20.6924 C   0  0  0  0  0  0
  -26.0744  -26.9245   19.4842 C   0  0  0  0  0  0
  -24.8812  -27.6773   19.4944 C   0  0  0  0  0  0
  -23.6083  -29.8053   20.1654 C   0  0  0  0  0  0
  -25.4087  -36.3071   24.0297 C   0  0  1  0  0  0
  -20.5828  -28.3675   23.1340 C   0  0  2  0  0  0
  -20.6748  -26.9404   22.5479 C   0  0  0  0  0  0
  -19.5757  -26.6396   21.5241 C   0  0  0  0  0  0
  -18.1905  -26.7955   22.1581 C   0  0  0  0  0  0
  -19.1494  -28.8850   23.2907 C   0  0  0  0  0  0
  -18.9411  -30.1459   23.8910 C   0  0  0  0  0  0
  -17.6406  -30.6583   24.0586 C   0  0  0  0  0  0
  -25.9016  -34.9428   23.5094 C   0  0  0  0  0  0
  -16.5301  -29.9088   23.6343 C   0  0  0  0  0  0
  -16.7237  -28.6518   23.0341 C   0  0  0  0  0  0
  -26.4452  -31.6553   25.0727 C   0  0  0  0  0  0
  -25.3749  -31.3610   26.1494 C   0  0  0  0  0  0
  -27.0249  -30.2968   24.6119 C   0  0  0  0  0  0
  -27.6039  -32.4275   25.7469 C   0  0  0  0  0  0
  -27.5562  -37.1799   24.8435 C   0  0  0  0  0  0
  -21.4113  -29.3010   22.3716 N   0  0  0  0  0  0
  -26.4268  -37.3763   23.9384 N   0  0  0  0  0  0
  -24.6645  -31.0696   22.0975 N   0  0  0  0  0  0
  -23.4140  -28.8185   23.3078 O   0  0  0  0  0  0
  -28.4487  -26.7369   20.1271 O   0  0  0  0  0  0
  -26.5601  -34.8874   22.4676 O   0  0  0  0  0  0
  -23.5323  -32.1396   23.7480 O   0  0  0  0  0  0
  -33.0368  -18.0825   20.1282 C   0  0  0  0  0  0
  -32.6133  -19.2188   17.6044 C   0  0  0  0  0  0
  -31.7056  -18.2932   19.6873 C   0  0  0  0  0  0
  -34.1436  -18.4424   19.3304 C   0  0  0  0  0  0
  -31.5025  -18.8569   18.3984 C   0  0  0  0  0  0
  -33.9311  -19.0257   18.0621 C   0  0  0  0  0  0
  -30.4855  -23.5864   19.7993 C   0  0  0  0  0  0
  -28.2962  -22.8968   20.7020 C   0  0  0  0  0  0
  -30.0906  -25.0763   19.8823 C   0  0  0  0  0  0
  -27.8689  -24.3925   20.8350 C   0  0  0  0  0  0
  -29.7047  -17.6853   22.4614 C   0  0  0  0  0  0
  -30.5182  -17.9135   20.5934 C   0  0  1  0  0  0
  -29.8266  -22.7274   20.9121 C   0  0  1  0  0  0
  -30.6184  -16.7750   21.6384 C   0  0  2  0  0  0
  -28.5701  -25.3346   19.8189 C   0  0  1  0  0  0
  -35.5536  -18.1983   19.8464 C   0  0  0  0  0  0
  -30.1126  -19.0720   17.8176 C   0  0  0  0  0  0
  -35.1000  -19.4439   17.1818 C   0  0  0  0  0  0
  -31.8654  -21.3599   21.5925 C   0  0  0  0  0  0
  -29.1913  -20.5506   23.1276 C   0  0  0  0  0  0
  -30.4418  -21.2661   20.9826 C   0  0  1  0  0  0
  -29.6229  -20.1217   21.7018 C   0  0  1  0  0  0
  -30.0669  -15.4462   21.2935 N   0  0  0  0  0  0
  -30.3727  -18.8094   21.7745 N   0  3  1  0  0  0
  -31.4668  -12.4431   19.1104 H   0  0  0  0  0  0
  -30.3473  -11.3179   19.8210 H   0  0  0  0  0  0
  -29.7293  -11.7688   17.4361 H   0  0  0  0  0  0
  -29.6482  -13.4849   17.7527 H   0  0  0  0  0  0
  -27.8413  -11.2992   18.8381 H   0  0  0  0  0  0
  -27.3562  -12.6111   17.7935 H   0  0  0  0  0  0
  -27.7035  -14.2506   19.5683 H   0  0  0  0  0  0
  -28.6866  -11.9557   21.3318 H   0  0  0  0  0  0
  -28.4527  -13.5861   21.8746 H   0  0  0  0  0  0
  -25.2760   -9.5674   22.4766 H   0  0  0  0  0  0
  -24.0002   -7.4626   22.7479 H   0  0  0  0  0  0
  -21.0855   -8.8761   19.8948 H   0  0  0  0  0  0
  -22.3703  -10.9666   19.6165 H   0  0  0  0  0  0
  -21.1986   -7.6145   23.9722 H   0  0  0  0  0  0
  -21.1474   -6.0518   25.9080 H   0  0  0  0  0  0
  -22.0605   -2.7613   23.2845 H   0  0  0  0  0  0
  -22.4129  -11.9848   22.4743 H   0  0  0  0  0  0
  -21.1118  -13.1220   22.2611 H   0  0  0  0  0  0
  -24.6603  -15.8401   20.4896 H   0  0  0  0  0  0
  -26.2704  -15.6146   20.0345 H   0  0  0  0  0  0
  -26.7079  -32.5475   23.1168 H   0  0  0  0  0  0
  -24.9997  -33.9751   25.0421 H   0  0  0  0  0  0
  -22.6883  -31.2954   21.4063 H   0  0  0  0  0  0
  -23.3692  -35.9720   23.3263 H   0  0  0  0  0  0
  -24.3557  -36.9037   22.2053 H   0  0  0  0  0  0
  -23.7306  -37.6548   23.6719 H   0  0  0  0  0  0
  -26.0237  -31.5844   20.5796 H   0  0  0  0  0  0
  -26.8180  -30.8916   21.9701 H   0  0  0  0  0  0
  -28.0995  -29.1015   21.1479 H   0  0  0  0  0  0
  -26.0723  -25.9648   18.9890 H   0  0  0  0  0  0
  -23.9945  -27.2843   19.0172 H   0  0  0  0  0  0
  -23.7021  -30.5753   19.3987 H   0  0  0  0  0  0
  -22.7344  -29.2147   19.8830 H   0  0  0  0  0  0
  -25.1269  -36.1914   25.0789 H   0  0  0  0  0  0
  -20.9891  -28.3284   24.1479 H   0  0  0  0  0  0
  -20.5660  -26.2272   23.3658 H   0  0  0  0  0  0
  -21.6620  -26.7478   22.1267 H   0  0  0  0  0  0
  -19.6914  -25.6318   21.1246 H   0  0  0  0  0  0
  -19.6723  -27.3207   20.6770 H   0  0  0  0  0  0
  -17.4219  -26.6783   21.3926 H   0  0  0  0  0  0
  -18.0211  -26.0067   22.8922 H   0  0  0  0  0  0
  -19.7873  -30.7292   24.2283 H   0  0  0  0  0  0
  -17.4946  -31.6241   24.5234 H   0  0  0  0  0  0
  -15.5297  -30.2977   23.7677 H   0  0  0  0  0  0
  -15.8643  -28.0852   22.7017 H   0  0  0  0  0  0
  -24.6182  -30.6580   25.7974 H   0  0  0  0  0  0
  -24.8576  -32.2647   26.4703 H   0  0  0  0  0  0
  -25.8209  -30.9158   27.0397 H   0  0  0  0  0  0
  -26.2756  -29.6732   24.1214 H   0  0  0  0  0  0
  -27.3997  -29.7202   25.4591 H   0  0  0  0  0  0
  -27.8606  -30.4214   23.9231 H   0  0  0  0  0  0
  -27.2721  -33.3661   26.1921 H   0  0  0  0  0  0
  -28.3909  -32.6697   25.0311 H   0  0  0  0  0  0
  -28.0623  -31.8466   26.5484 H   0  0  0  0  0  0
  -28.2575  -38.0096   24.7443 H   0  0  0  0  0  0
  -28.1057  -36.2618   24.6289 H   0  0  0  0  0  0
  -27.2272  -37.1506   25.8837 H   0  0  0  0  0  0
  -20.9281  -29.8675   21.6882 H   0  0  0  0  0  0
  -26.0127  -38.2820   24.1424 H   0  0  0  0  0  0
  -33.2369  -17.6409   21.0920 H   0  0  0  0  0  0
  -32.4523  -19.6500   16.6250 H   0  0  0  0  0  0
  -31.5710  -23.5257   19.8402 H   0  0  0  0  0  0
  -30.2082  -23.1936   18.8192 H   0  0  0  0  0  0
  -28.0105  -22.5103   19.7235 H   0  0  0  0  0  0
  -27.7244  -22.3149   21.4240 H   0  0  0  0  0  0
  -30.5878  -25.6329   19.0876 H   0  0  0  0  0  0
  -30.4787  -25.4827   20.8191 H   0  0  0  0  0  0
  -28.0977  -24.7351   21.8451 H   0  0  0  0  0  0
  -26.7870  -24.4714   20.7325 H   0  0  0  0  0  0
  -29.8823  -17.6517   23.5369 H   0  0  0  0  0  0
  -28.6421  -17.5973   22.2242 H   0  0  0  0  0  0
  -29.5854  -17.8305   20.0323 H   0  0  0  0  0  0
  -30.0570  -23.2007   21.8690 H   0  0  0  0  0  0
  -31.5961  -16.6978   22.1191 H   0  0  0  0  0  0
  -28.2197  -25.1369   18.8042 H   0  0  0  0  0  0
  -35.5495  -17.7165   20.8238 H   0  0  0  0  0  0
  -36.0970  -19.1387   19.9413 H   0  0  0  0  0  0
  -36.1057  -17.5531   19.1623 H   0  0  0  0  0  0
  -30.1455  -19.7317   16.9501 H   0  0  0  0  0  0
  -29.4329  -19.5277   18.5357 H   0  0  0  0  0  0
  -29.6885  -18.1209   17.4942 H   0  0  0  0  0  0
  -34.7607  -19.9489   16.2770 H   0  0  0  0  0  0
  -35.6870  -18.5777   16.8762 H   0  0  0  0  0  0
  -35.7585  -20.1319   17.7126 H   0  0  0  0  0  0
  -32.5115  -22.0388   21.0387 H   0  0  0  0  0  0
  -32.3965  -20.4101   21.5922 H   0  0  0  0  0  0
  -31.8395  -21.7175   22.6229 H   0  0  0  0  0  0
  -28.7433  -21.5395   23.1590 H   0  0  0  0  0  0
  -30.0320  -20.5730   23.8195 H   0  0  0  0  0  0
  -28.4479  -19.8672   23.5419 H   0  0  0  0  0  0
  -30.5629  -20.9467   19.9495 H   0  0  0  0  0  0
  -28.7128  -19.9483   21.1251 H   0  0  0  0  0  0
  -29.1618  -15.1989   21.6658 H   0  0  0  0  0  0
  -31.2771  -18.9590   22.1925 H   0  0  0  0  0  0
  1 25  1  0  0  0
  1 30  2  0  0  0
  1 93  1  0  0  0
  2  3  1  0  0  0
  2 25  1  0  0  0
  2 95  1  0  0  0
  2 96  1  0  0  0
  3  4  1  0  0  0
  3 97  1  0  0  0
  3 98  1  0  0  0
  4  5  1  0  0  0
  4 99  1  0  0  0
  4100  1  0  0  0
  5  6  1  0  0  0
  5 26  1  0  0  0
  5101  1  0  0  0
  6 25  1  0  0  0
  6102  1  0  0  0
  6103  1  0  0  0
  7  8  2  0  0  0
  7 26  1  0  0  0
  7 29  1  0  0  0
  8  9  1  0  0  0
  8 22  1  0  0  0
  9 10  1  0  0  0
  9 27  2  0  0  0
 10 11  2  0  0  0
 10 15  1  0  0  0
 11 12  1  0  0  0
 11104  1  0  0  0
 12 13  2  0  0  0
 12105  1  0  0  0
 13 14  1  0  0  0
 13 31  1  0  0  0
 14 15  2  0  0  0
 14106  1  0  0  0
 15107  1  0  0  0
 16 17  2  0  0  0
 16 21  1  0  0  0
 16 31  1  0  0  0
 17 18  1  0  0  0
 17108  1  0  0  0
 18 19  2  0  0  0
 18109  1  0  0  0
 19 20  1  0  0  0
 19 24  1  0  0  0
 20 21  2  0  0  0
 20110  1  0  0  0
 21 23  1  0  0  0
 22 28  1  0  0  0
 22 32  2  0  0  0
 26 27  1  0  0  0
 28111  1  0  0  0
 28112  1  0  0  0
 29113  1  0  0  0
 29114  1  0  0  0
 33 34  1  0  0  0
 33 66  1  0  0  0
 33 70  2  0  0  0
 34 36  1  0  0  0
 34 59  1  0  0  0
 34115  1  0  0  0
 35 44  2  0  0  0
 35 45  1  0  0  0
 35 68  1  0  0  0
 36 56  1  0  0  0
 36116  1  0  0  0
 37 39  1  0  0  0
 37 47  1  0  0  0
 37 66  1  0  0  0
 37117  1  0  0  0
 38 43  2  0  0  0
 38 46  1  0  0  0
 38 47  1  0  0  0
 39 64  1  0  0  0
 39 67  2  0  0  0
 40 52  1  0  0  0
 40 53  2  0  0  0
 40 58  1  0  0  0
 41118  1  0  0  0
 41119  1  0  0  0
 41120  1  0  0  0
 41 48  1  0  0  0
 42 43  1  0  0  0
 42 66  1  0  0  0
 42121  1  0  0  0
 42122  1  0  0  0
 43 44  1  0  0  0
 44123  1  0  0  0
 45 46  2  0  0  0
 45124  1  0  0  0
 46125  1  0  0  0
 47126  1  0  0  0
 47127  1  0  0  0
 48 56  1  0  0  0
 48 65  1  0  0  0
 48128  1  0  0  0
 49 50  1  0  0  0
 49 53  1  0  0  0
 49 64  1  0  0  0
 49129  1  0  0  0
 50 51  1  0  0  0
 50130  1  0  0  0
 50131  1  0  0  0
 51 52  1  0  0  0
 51132  1  0  0  0
 51133  1  0  0  0
 52134  1  0  0  0
 52135  1  0  0  0
 53 54  1  0  0  0
 54 55  2  0  0  0
 54136  1  0  0  0
 55 57  1  0  0  0
 55137  1  0  0  0
 56 69  2  0  0  0
 57 58  2  0  0  0
 57138  1  0  0  0
 58139  1  0  0  0
 59 60  1  0  0  0
 59 61  1  0  0  0
 59 62  1  0  0  0
 60140  1  0  0  0
 60141  1  0  0  0
 60142  1  0  0  0
 61143  1  0  0  0
 61144  1  0  0  0
 61145  1  0  0  0
 62146  1  0  0  0
 62147  1  0  0  0
 62148  1  0  0  0
 63 65  1  0  0  0
 63149  1  0  0  0
 63150  1  0  0  0
 63151  1  0  0  0
 64152  1  0  0  0
 65153  1  0  0  0
 68 85  1  0  0  0
 71 73  2  0  0  0
 71 74  1  0  0  0
 71154  1  0  0  0
 72 75  2  0  0  0
 72 76  1  0  0  0
 72155  1  0  0  0
 73 75  1  0  0  0
 73 82  1  0  0  0
 74 76  2  0  0  0
 74 86  1  0  0  0
 75 87  1  0  0  0
 76 88  1  0  0  0
 77 79  1  0  0  0
 77156  1  0  0  0
 77157  1  0  0  0
 77 83  1  0  0  0
 78 80  1  0  0  0
 78 83  1  0  0  0
 78158  1  0  0  0
 78159  1  0  0  0
 79 85  1  0  0  0
 79160  1  0  0  0
 79161  1  0  0  0
 80 85  1  0  0  0
 80162  1  0  0  0
 80163  1  0  0  0
 81 84  1  0  0  0
 81164  1  0  0  0
 81165  1  0  0  0
 81 94  1  0  0  0
 82 84  1  0  0  0
 82 94  1  0  0  0
 82166  1  0  0  0
 83 91  1  0  0  0
 83167  1  0  0  0
 84 93  1  0  0  0
 84168  1  0  0  0
 85169  1  0  0  0
 86170  1  0  0  0
 86171  1  0  0  0
 86172  1  0  0  0
 87173  1  0  0  0
 87174  1  0  0  0
 87175  1  0  0  0
 88176  1  0  0  0
 88177  1  0  0  0
 88178  1  0  0  0
 89179  1  0  0  0
 89180  1  0  0  0
 89181  1  0  0  0
 89 91  1  0  0  0
 90182  1  0  0  0
 90183  1  0  0  0
 90184  1  0  0  0
 90 92  1  0  0  0
 91 92  1  0  0  0
 91185  1  0  0  0
 92 94  1  0  0  0
 92186  1  0  0  0
 93187  1  0  0  0
 94188  1  0  0  0
M  CHG  1  94   1
M  ISO  4   1 100  68 101  85 101  93 100
M  END
> <chiral flag>
0

> <version>
0

> <s_m_source_file>
/data/baiqing/PycharmProjects/Reinvent-master-3.2/result/LINK_invent/BTK/process_docking_weight1_custom_sum_contain_oxygen_bond_distance_aromatic_linkinvent_7_9_3/rearranged_h_0165.sdf

> <i_m_source_file_index>
16

> <r_mmod_Potential_Energy-OPLS-2005>
-88.8392486572266

> <r_mmod_Stretch_Energy-OPLS-2005>
55.6749229431152

> <r_mmod_Bend_Energy-OPLS-2005>
165.23681640625

> <r_mmod_Torsional_Energy-OPLS-2005>
265.116394042969

> <r_mmod_Improper_Torsional_Energy-OPLS-2005>
2.49894213676453

> <r_mmod_Van_der_Waal_Energy-OPLS-2005>
147.476058959961

> <r_mmod_Electrostatic_Energy-OPLS-2005>
-310.6904296875

> <r_mmod_Solvation_Energy-OPLS-2005>
-427.877136230469

> <b_mmod_Minimization_Converged-OPLS-2005>
0

> <r_mmod_RMS_Derivative-OPLS-2005>
2.94648432731628

$$$$
16
                    3D
 Structure written by MMmdl.
157166  0  0  1  0            999 V2000
  -30.4270  -15.2564   20.3747 C   0  0  0  0  0  0
  -30.4483  -12.7969   19.5303 C   0  0  0  0  0  0
  -29.5395  -12.5856   18.2902 C   0  0  0  0  0  0
  -28.0841  -12.3112   18.7089 C   0  0  0  0  0  0
  -27.6183  -13.2727   19.8291 C   0  0  2  0  0  0
  -28.6553  -13.4018   20.9628 C   0  0  0  0  0  0
  -25.2414  -13.8245   20.5747 C   0  0  0  0  0  0
  -24.1757  -13.0434   20.9239 C   0  0  0  0  0  0
  -24.6409  -11.6932   20.8745 C   0  0  0  0  0  0
  -23.9099  -10.4294   21.0399 C   0  0  0  0  0  0
  -24.3640   -9.4208   21.9182 C   0  0  0  0  0  0
  -23.6305   -8.2247   22.0754 C   0  0  0  0  0  0
  -22.4286   -8.0286   21.3544 C   0  0  0  0  0  0
  -21.9930   -9.0260   20.4645 C   0  0  0  0  0  0
  -22.7267  -10.2135   20.3051 C   0  0  0  0  0  0
  -21.6859   -6.0738   22.5278 C   0  0  0  0  0  0
  -21.4019   -6.5641   23.8211 C   0  0  0  0  0  0
  -21.3660   -5.6792   24.9173 C   0  0  0  0  0  0
  -21.6043   -4.3055   24.7222 C   0  0  0  0  0  0
  -21.8819   -3.8147   23.4344 C   0  0  0  0  0  0
  -21.9194   -4.6965   22.3400 C   0  0  0  0  0  0
  -22.7774  -13.5191   21.1889 C   0  0  0  0  0  0
  -22.1663   -4.2151   21.0979 F   0  0  0  0  0  0
  -21.5627   -3.4538   25.7735 F   0  0  0  0  0  0
  -29.8945  -13.9302   20.3631 N   0  0  0  0  0  0
  -26.2852  -12.9519   20.3234 N   0  0  0  0  0  0
  -25.9349  -11.6625   20.5713 N   0  0  0  0  0  0
  -22.0431  -12.8174   22.0446 N   0  0  0  0  0  0
  -25.4046  -15.1978   20.4212 N   0  0  0  0  0  0
  -31.6369  -15.2476   20.1028 O   0  0  0  0  0  0
  -21.6646   -6.8883   21.4241 O   0  0  0  0  0  0
  -22.3451  -14.5489   20.6729 O   0  0  0  0  0  0
  -24.6620  -31.8257   23.1719 C   0  0  0  0  0  0
  -25.9310  -32.4599   23.8175 C   0  0  1  0  0  0
  -27.2182  -26.9402   20.1770 C   0  0  0  0  0  0
  -25.5982  -33.8409   24.2083 N   0  0  0  0  0  0
  -23.4759  -30.4382   21.5215 C   0  0  2  0  0  0
  -24.9298  -28.8303   20.1107 C   0  0  0  0  0  0
  -22.7663  -29.4453   22.4786 C   0  0  0  0  0  0
  -18.0321  -28.1408   22.8468 C   0  0  0  0  0  0
  -24.1493  -36.7209   23.2648 C   0  0  0  0  0  0
  -26.0448  -30.6362   21.4005 C   0  0  0  0  0  0
  -26.1142  -29.2275   20.7440 C   0  0  0  0  0  0
  -27.2536  -28.3032   20.7541 C   0  0  0  0  0  0
  -26.0054  -26.6982   19.4916 C   0  0  0  0  0  0
  -24.9006  -27.5858   19.4639 C   0  0  0  0  0  0
  -23.7149  -29.7562   20.1470 C   0  0  0  0  0  0
  -25.4134  -36.2969   24.0299 C   0  0  1  0  0  0
  -20.5946  -28.3753   23.1187 C   0  0  2  0  0  0
  -20.6801  -26.9437   22.5397 C   0  0  0  0  0  0
  -19.5772  -26.6379   21.5211 C   0  0  0  0  0  0
  -18.1954  -26.7944   22.1618 C   0  0  0  0  0  0
  -19.1584  -28.8900   23.2817 C   0  0  0  0  0  0
  -18.9498  -30.1490   23.8851 C   0  0  0  0  0  0
  -17.6492  -30.6599   24.0554 C   0  0  0  0  0  0
  -25.9095  -34.9354   23.5008 C   0  0  0  0  0  0
  -16.5380  -29.9086   23.6345 C   0  0  0  0  0  0
  -16.7304  -28.6506   23.0364 C   0  0  0  0  0  0
  -26.4563  -31.6538   25.0697 C   0  0  0  0  0  0
  -25.3691  -31.3781   26.1351 C   0  0  0  0  0  0
  -27.0466  -30.2912   24.6420 C   0  0  0  0  0  0
  -27.6050  -32.4352   25.7504 C   0  0  0  0  0  0
  -27.5567  -37.1763   24.8467 C   0  0  0  0  0  0
  -21.4333  -29.3047   22.3539 N   0  0  0  0  0  0
  -26.4276  -37.3707   23.9407 N   0  0  0  0  0  0
  -24.7489  -30.9930   22.0853 N   0  0  0  0  0  0
  -23.4217  -28.8016   23.3018 O   0  0  0  0  0  0
  -28.2057  -25.8242   20.2609 O   0  0  0  0  0  0
  -26.5701  -34.8889   22.4600 O   0  0  0  0  0  0
  -23.5692  -32.1221   23.6820 O   0  0  0  0  0  0
  -30.5158  -21.0817   20.9929 C   0  0  0  0  0  0
  -29.8776  -19.8410   20.6144 C   0  0  0  0  0  0
  -29.9505  -22.4286   20.8322 C   0  0  0  0  0  0
  -28.6164  -20.1210   20.0509 C   0  0  0  0  0  0
  -28.6566  -22.6917   20.2587 C   0  0  0  0  0  0
  -30.5129  -18.2968   20.7673 C   0  0  0  0  0  0
  -27.8638  -18.8018   19.6545 C   0  0  0  0  0  0
  -28.6741  -17.3898   19.4772 C   0  0  0  0  0  0
  -29.6605  -16.8404   20.6092 C   0  0  1  0  0  0
  -30.7728  -23.6173   21.2950 C   0  0  0  0  0  0
  -28.8487  -16.7206   21.9144 C   0  0  0  0  0  0
  -27.8493  -24.2356   20.0358 C   0  0  0  0  0  0
  -28.0584  -21.4427   19.8954 N   0  0  0  0  0  0
  -31.4652  -13.0007   19.1934 H   0  0  0  0  0  0
  -30.5217  -11.8800   20.1174 H   0  0  0  0  0  0
  -29.9149  -11.7642   17.6783 H   0  0  0  0  0  0
  -29.5751  -13.4770   17.6620 H   0  0  0  0  0  0
  -28.0321  -11.2819   19.0660 H   0  0  0  0  0  0
  -27.4183  -12.3711   17.8471 H   0  0  0  0  0  0
  -27.5451  -14.2502   19.3528 H   0  0  0  0  0  0
  -28.8216  -12.4399   21.4498 H   0  0  0  0  0  0
  -28.2942  -14.0624   21.7467 H   0  0  0  0  0  0
  -25.2780   -9.5686   22.4763 H   0  0  0  0  0  0
  -24.0010   -7.4642   22.7478 H   0  0  0  0  0  0
  -21.0861   -8.8784   19.8951 H   0  0  0  0  0  0
  -22.3725  -10.9675   19.6162 H   0  0  0  0  0  0
  -21.2014   -7.6151   23.9717 H   0  0  0  0  0  0
  -21.1481   -6.0522   25.9077 H   0  0  0  0  0  0
  -22.0596   -2.7609   23.2843 H   0  0  0  0  0  0
  -22.4067  -11.9852   22.4848 H   0  0  0  0  0  0
  -21.1039  -13.1179   22.2637 H   0  0  0  0  0  0
  -24.6349  -15.8467   20.5437 H   0  0  0  0  0  0
  -26.2572  -15.6455   20.1147 H   0  0  0  0  0  0
  -26.7378  -32.5146   23.0889 H   0  0  0  0  0  0
  -25.0091  -33.9489   25.0209 H   0  0  0  0  0  0
  -22.7881  -31.2697   21.3527 H   0  0  0  0  0  0
  -23.3763  -35.9531   23.3284 H   0  0  0  0  0  0
  -24.3564  -36.8885   22.2067 H   0  0  0  0  0  0
  -23.7242  -37.6387   23.6719 H   0  0  0  0  0  0
  -26.2214  -31.3788   20.6215 H   0  0  0  0  0  0
  -26.9058  -30.6943   22.0540 H   0  0  0  0  0  0
  -28.1479  -28.6044   21.2811 H   0  0  0  0  0  0
  -25.8685  -25.7513   18.9916 H   0  0  0  0  0  0
  -24.0016  -27.2768   18.9486 H   0  0  0  0  0  0
  -23.8685  -30.5262   19.3897 H   0  0  0  0  0  0
  -22.8246  -29.2107   19.8295 H   0  0  0  0  0  0
  -25.1332  -36.1767   25.0789 H   0  0  0  0  0  0
  -21.0035  -28.3363   24.1309 H   0  0  0  0  0  0
  -20.5691  -26.2370   23.3635 H   0  0  0  0  0  0
  -21.6664  -26.7420   22.1199 H   0  0  0  0  0  0
  -19.6930  -25.6277   21.1270 H   0  0  0  0  0  0
  -19.6712  -27.3163   20.6720 H   0  0  0  0  0  0
  -17.4227  -26.6693   21.4019 H   0  0  0  0  0  0
  -18.0344  -26.0094   22.9020 H   0  0  0  0  0  0
  -19.7975  -30.7315   24.2204 H   0  0  0  0  0  0
  -17.5045  -31.6275   24.5160 H   0  0  0  0  0  0
  -15.5378  -30.2973   23.7696 H   0  0  0  0  0  0
  -15.8706  -28.0805   22.7109 H   0  0  0  0  0  0
  -24.5887  -30.7118   25.7654 H   0  0  0  0  0  0
  -24.8862  -32.2981   26.4656 H   0  0  0  0  0  0
  -25.7925  -30.9024   27.0207 H   0  0  0  0  0  0
  -26.3138  -29.6582   24.1407 H   0  0  0  0  0  0
  -27.3990  -29.7278   25.5069 H   0  0  0  0  0  0
  -27.9078  -30.4101   23.9843 H   0  0  0  0  0  0
  -27.2618  -33.3707   26.1934 H   0  0  0  0  0  0
  -28.3940  -32.6829   25.0389 H   0  0  0  0  0  0
  -28.0628  -31.8576   26.5544 H   0  0  0  0  0  0
  -28.2566  -38.0076   24.7510 H   0  0  0  0  0  0
  -28.1082  -36.2598   24.6303 H   0  0  0  0  0  0
  -27.2276  -37.1415   25.8868 H   0  0  0  0  0  0
  -20.9580  -29.8748   21.6681 H   0  0  0  0  0  0
  -26.0125  -38.2764   24.1420 H   0  0  0  0  0  0
  -31.4997  -21.0030   21.4332 H   0  0  0  0  0  0
  -31.0285  -18.2728   21.7279 H   0  0  0  0  0  0
  -31.3233  -18.2554   20.0379 H   0  0  0  0  0  0
  -27.3233  -19.0033   18.7295 H   0  0  0  0  0  0
  -27.0904  -18.6534   20.4086 H   0  0  0  0  0  0
  -29.2670  -17.4831   18.5666 H   0  0  0  0  0  0
  -27.9478  -16.6120   19.2464 H   0  0  0  0  0  0
  -31.7052  -23.3071   21.7677 H   0  0  0  0  0  0
  -30.2124  -24.2105   22.0187 H   0  0  0  0  0  0
  -31.0209  -24.2598   20.4491 H   0  0  0  0  0  0
  -28.5952  -17.6990   22.3240 H   0  0  0  0  0  0
  -29.4059  -16.1895   22.6873 H   0  0  0  0  0  0
  -27.9043  -16.2021   21.7571 H   0  0  0  0  0  0
  -26.9180  -24.1025   20.5870 H   0  0  0  0  0  0
  -27.5495  -24.1921   18.9888 H   0  0  0  0  0  0
  1 25  1  0  0  0
  1 30  2  0  0  0
  1 79  1  0  0  0
  2  3  1  0  0  0
  2 25  1  0  0  0
  2 84  1  0  0  0
  2 85  1  0  0  0
  3  4  1  0  0  0
  3 86  1  0  0  0
  3 87  1  0  0  0
  4  5  1  0  0  0
  4 88  1  0  0  0
  4 89  1  0  0  0
  5  6  1  0  0  0
  5 26  1  0  0  0
  5 90  1  0  0  0
  6 25  1  0  0  0
  6 91  1  0  0  0
  6 92  1  0  0  0
  7  8  2  0  0  0
  7 26  1  0  0  0
  7 29  1  0  0  0
  8  9  1  0  0  0
  8 22  1  0  0  0
  9 10  1  0  0  0
  9 27  2  0  0  0
 10 11  2  0  0  0
 10 15  1  0  0  0
 11 12  1  0  0  0
 11 93  1  0  0  0
 12 13  2  0  0  0
 12 94  1  0  0  0
 13 14  1  0  0  0
 13 31  1  0  0  0
 14 15  2  0  0  0
 14 95  1  0  0  0
 15 96  1  0  0  0
 16 17  2  0  0  0
 16 21  1  0  0  0
 16 31  1  0  0  0
 17 18  1  0  0  0
 17 97  1  0  0  0
 18 19  2  0  0  0
 18 98  1  0  0  0
 19 20  1  0  0  0
 19 24  1  0  0  0
 20 21  2  0  0  0
 20 99  1  0  0  0
 21 23  1  0  0  0
 22 28  1  0  0  0
 22 32  2  0  0  0
 26 27  1  0  0  0
 28100  1  0  0  0
 28101  1  0  0  0
 29102  1  0  0  0
 29103  1  0  0  0
 33 34  1  0  0  0
 33 66  1  0  0  0
 33 70  2  0  0  0
 34 36  1  0  0  0
 34 59  1  0  0  0
 34104  1  0  0  0
 35 44  2  0  0  0
 35 45  1  0  0  0
 35 68  1  0  0  0
 36 56  1  0  0  0
 36105  1  0  0  0
 37 39  1  0  0  0
 37 47  1  0  0  0
 37 66  1  0  0  0
 37106  1  0  0  0
 38 43  2  0  0  0
 38 46  1  0  0  0
 38 47  1  0  0  0
 39 64  1  0  0  0
 39 67  2  0  0  0
 40 52  1  0  0  0
 40 53  2  0  0  0
 40 58  1  0  0  0
 41107  1  0  0  0
 41108  1  0  0  0
 41109  1  0  0  0
 41 48  1  0  0  0
 42 43  1  0  0  0
 42 66  1  0  0  0
 42110  1  0  0  0
 42111  1  0  0  0
 43 44  1  0  0  0
 44112  1  0  0  0
 45 46  2  0  0  0
 45113  1  0  0  0
 46114  1  0  0  0
 47115  1  0  0  0
 47116  1  0  0  0
 48 56  1  0  0  0
 48 65  1  0  0  0
 48117  1  0  0  0
 49 50  1  0  0  0
 49 53  1  0  0  0
 49 64  1  0  0  0
 49118  1  0  0  0
 50 51  1  0  0  0
 50119  1  0  0  0
 50120  1  0  0  0
 51 52  1  0  0  0
 51121  1  0  0  0
 51122  1  0  0  0
 52123  1  0  0  0
 52124  1  0  0  0
 53 54  1  0  0  0
 54 55  2  0  0  0
 54125  1  0  0  0
 55 57  1  0  0  0
 55126  1  0  0  0
 56 69  2  0  0  0
 57 58  2  0  0  0
 57127  1  0  0  0
 58128  1  0  0  0
 59 60  1  0  0  0
 59 61  1  0  0  0
 59 62  1  0  0  0
 60129  1  0  0  0
 60130  1  0  0  0
 60131  1  0  0  0
 61132  1  0  0  0
 61133  1  0  0  0
 61134  1  0  0  0
 62135  1  0  0  0
 62136  1  0  0  0
 62137  1  0  0  0
 63 65  1  0  0  0
 63138  1  0  0  0
 63139  1  0  0  0
 63140  1  0  0  0
 64141  1  0  0  0
 65142  1  0  0  0
 68 82  1  0  0  0
 71 72  2  0  0  0
 71 73  1  0  0  0
 71143  1  0  0  0
 72 74  1  0  0  0
 72 76  1  0  0  0
 73 75  2  0  0  0
 73 80  1  0  0  0
 74 77  1  0  0  0
 74 83  2  0  0  0
 75 82  1  0  0  0
 75 83  1  0  0  0
 76 79  1  0  0  0
 76144  1  0  0  0
 76145  1  0  0  0
 77 78  1  0  0  0
 77146  1  0  0  0
 77147  1  0  0  0
 78 79  1  0  0  0
 78148  1  0  0  0
 78149  1  0  0  0
 79 81  1  0  0  0
 80150  1  0  0  0
 80151  1  0  0  0
 80152  1  0  0  0
 81153  1  0  0  0
 81154  1  0  0  0
 81155  1  0  0  0
 82156  1  0  0  0
 82157  1  0  0  0
M  ISO  4   1 100  68 101  79 100  82 101
M  END
> <chiral flag>
0

> <version>
0

> <s_m_source_file>
/data/baiqing/PycharmProjects/Reinvent-master-3.2/result/LINK_invent/BTK/process_docking_weight1_custom_sum_contain_oxygen_bond_distance_aromatic_linkinvent_7_9_3/rearranged_h_0165.sdf

> <i_m_source_file_index>
17

> <r_mmod_Potential_Energy-OPLS-2005>
1062.1025390625

> <r_mmod_Stretch_Energy-OPLS-2005>
498.659484863281

> <r_mmod_Bend_Energy-OPLS-2005>
413.735778808594

> <r_mmod_Torsional_Energy-OPLS-2005>
217.243453979492

> <r_mmod_Improper_Torsional_Energy-OPLS-2005>
2.07843661308289

> <r_mmod_Van_der_Waal_Energy-OPLS-2005>
125.659233093262

> <r_mmod_Electrostatic_Energy-OPLS-2005>
-423.484893798828

> <r_mmod_Solvation_Energy-OPLS-2005>
-210.389236450195

> <b_mmod_Minimization_Converged-OPLS-2005>
0

> <r_mmod_RMS_Derivative-OPLS-2005>
0.708422064781189

$$$$
17
                    3D
 Structure written by MMmdl.
171180  0  0  1  0            999 V2000
  -30.7505  -14.4711   20.6319 C   0  0  0  0  0  0
  -30.4140  -12.3347   19.4246 C   0  0  0  0  0  0
  -29.4897  -12.5254   18.2062 C   0  0  0  0  0  0
  -28.0150  -12.3556   18.6152 C   0  0  0  0  0  0
  -27.6549  -13.2001   19.8630 C   0  0  2  0  0  0
  -28.6963  -13.0059   20.9933 C   0  0  0  0  0  0
  -25.2559  -13.8150   20.5655 C   0  0  0  0  0  0
  -24.1820  -13.0426   20.9184 C   0  0  0  0  0  0
  -24.6366  -11.6902   20.8719 C   0  0  0  0  0  0
  -23.9039  -10.4289   21.0381 C   0  0  0  0  0  0
  -24.3606   -9.4212   21.9159 C   0  0  0  0  0  0
  -23.6285   -8.2248   22.0748 C   0  0  0  0  0  0
  -22.4267   -8.0280   21.3542 C   0  0  0  0  0  0
  -21.9888   -9.0244   20.4642 C   0  0  0  0  0  0
  -22.7214  -10.2125   20.3037 C   0  0  0  0  0  0
  -21.6856   -6.0736   22.5284 C   0  0  0  0  0  0
  -21.4016   -6.5639   23.8219 C   0  0  0  0  0  0
  -21.3653   -5.6786   24.9176 C   0  0  0  0  0  0
  -21.6033   -4.3053   24.7225 C   0  0  0  0  0  0
  -21.8821   -3.8151   23.4342 C   0  0  0  0  0  0
  -21.9187   -4.6964   22.3403 C   0  0  0  0  0  0
  -22.7832  -13.5235   21.1823 C   0  0  0  0  0  0
  -22.1660   -4.2162   21.0971 F   0  0  0  0  0  0
  -21.5622   -3.4522   25.7730 F   0  0  0  0  0  0
  -30.0301  -13.3207   20.4554 N   0  0  0  0  0  0
  -26.2977  -12.9299   20.3298 N   0  0  0  0  0  0
  -25.9289  -11.6467   20.5732 N   0  0  0  0  0  0
  -22.0457  -12.8251   22.0388 N   0  0  0  0  0  0
  -25.4215  -15.1865   20.4057 N   0  0  0  0  0  0
  -31.8276  -14.6436   20.0519 O   0  0  0  0  0  0
  -21.6628   -6.8878   21.4249 O   0  0  0  0  0  0
  -22.3520  -14.5520   20.6633 O   0  0  0  0  0  0
  -24.6163  -31.8669   23.2101 C   0  0  0  0  0  0
  -25.9046  -32.4816   23.8414 C   0  0  1  0  0  0
  -27.2349  -27.4144   20.1185 C   0  0  0  0  0  0
  -25.5908  -33.8619   24.2337 N   0  0  0  0  0  0
  -23.4063  -30.4906   21.5496 C   0  0  2  0  0  0
  -24.8554  -28.9595   20.1104 C   0  0  0  0  0  0
  -22.7427  -29.4646   22.4974 C   0  0  0  0  0  0
  -18.0272  -28.1363   22.8485 C   0  0  0  0  0  0
  -24.1483  -36.7323   23.2627 C   0  0  0  0  0  0
  -25.9367  -30.8299   21.3654 C   0  0  0  0  0  0
  -26.0153  -29.4638   20.7117 C   0  0  0  0  0  0
  -27.2081  -28.7019   20.7075 C   0  0  0  0  0  0
  -26.0599  -26.9437   19.4829 C   0  0  0  0  0  0
  -24.8752  -27.7017   19.4875 C   0  0  0  0  0  0
  -23.6174  -29.8261   20.1631 C   0  0  0  0  0  0
  -25.4093  -36.3110   24.0336 C   0  0  1  0  0  0
  -20.5865  -28.3660   23.1307 C   0  0  2  0  0  0
  -20.6764  -26.9394   22.5419 C   0  0  0  0  0  0
  -19.5749  -26.6379   21.5207 C   0  0  0  0  0  0
  -18.1917  -26.7918   22.1598 C   0  0  0  0  0  0
  -19.1523  -28.8827   23.2889 C   0  0  0  0  0  0
  -18.9452  -30.1431   23.8902 C   0  0  0  0  0  0
  -17.6453  -30.6572   24.0566 C   0  0  0  0  0  0
  -25.9041  -34.9478   23.5135 C   0  0  0  0  0  0
  -16.5347  -29.9078   23.6325 C   0  0  0  0  0  0
  -16.7263  -28.6492   23.0346 C   0  0  0  0  0  0
  -26.4473  -31.6594   25.0738 C   0  0  0  0  0  0
  -25.3757  -31.3698   26.1509 C   0  0  0  0  0  0
  -27.0269  -30.3025   24.6106 C   0  0  0  0  0  0
  -27.6064  -32.4301   25.7490 C   0  0  0  0  0  0
  -27.5609  -37.1766   24.8420 C   0  0  0  0  0  0
  -21.4153  -29.3031   22.3720 N   0  0  0  0  0  0
  -26.4263  -37.3821   23.9458 N   0  0  0  0  0  0
  -24.6707  -31.0773   22.0999 N   0  0  0  0  0  0
  -23.4192  -28.8179   23.3017 O   0  0  0  0  0  0
  -28.3828  -26.6421   20.1964 O   0  0  0  0  0  0
  -26.5609  -34.8929   22.4698 O   0  0  0  0  0  0
  -23.5349  -32.1414   23.7495 O   0  0  0  0  0  0
  -29.3517  -17.6136   21.0011 C   0  0  0  0  0  0
  -31.6827  -17.4653   21.9068 C   0  0  0  0  0  0
  -31.0662  -21.5080   19.9543 C   0  0  0  0  0  0
  -29.1041  -16.1656   21.4974 C   0  0  0  0  0  0
  -31.3463  -16.0461   22.4272 C   0  0  0  0  0  0
  -30.9572  -19.9814   20.0457 C   0  0  0  0  0  0
  -30.4150  -18.3376   21.8576 C   0  0  0  0  0  0
  -30.2851  -22.0596   21.1544 C   0  0  2  0  0  0
  -29.8102  -20.7853   21.9024 C   0  0  2  0  0  0
  -29.8420  -20.9722   23.4292 C   0  0  0  0  0  0
  -29.2741  -24.7285   22.4785 C   0  0  0  0  0  0
  -28.1944  -25.2069   20.2096 C   0  0  0  0  0  0
  -29.3021  -24.4101   20.9646 C   0  0  2  0  0  0
  -30.3464  -15.3665   21.5792 N   0  0  0  0  0  0
  -30.7342  -19.7290   21.4665 N   0  0  0  0  0  0
  -29.1533  -22.9340   20.7363 N   0  3  0  0  0  0
  -31.4573  -12.4266   19.1189 H   0  0  0  0  0  0
  -30.3152  -11.3223   19.8200 H   0  0  0  0  0  0
  -29.7430  -11.8113   17.4208 H   0  0  0  0  0  0
  -29.6449  -13.5185   17.7791 H   0  0  0  0  0  0
  -27.8423  -11.2984   18.8164 H   0  0  0  0  0  0
  -27.3619  -12.6165   17.7810 H   0  0  0  0  0  0
  -27.6827  -14.2321   19.5210 H   0  0  0  0  0  0
  -28.6785  -11.9716   21.3398 H   0  0  0  0  0  0
  -28.4412  -13.6023   21.8685 H   0  0  0  0  0  0
  -25.2757   -9.5694   22.4726 H   0  0  0  0  0  0
  -23.9995   -7.4644   22.7472 H   0  0  0  0  0  0
  -21.0818   -8.8758   19.8954 H   0  0  0  0  0  0
  -22.3665  -10.9653   19.6142 H   0  0  0  0  0  0
  -21.2017   -7.6149   23.9741 H   0  0  0  0  0  0
  -21.1466   -6.0500   25.9082 H   0  0  0  0  0  0
  -22.0597   -2.7611   23.2833 H   0  0  0  0  0  0
  -22.4070  -11.9952   22.4857 H   0  0  0  0  0  0
  -21.1050  -13.1265   22.2528 H   0  0  0  0  0  0
  -24.6432  -15.8290   20.5090 H   0  0  0  0  0  0
  -26.2646  -15.6358   20.0726 H   0  0  0  0  0  0
  -26.7113  -32.5535   23.1180 H   0  0  0  0  0  0
  -25.0066  -33.9786   25.0486 H   0  0  0  0  0  0
  -22.6941  -31.3062   21.4105 H   0  0  0  0  0  0
  -23.3770  -35.9622   23.3185 H   0  0  0  0  0  0
  -24.3609  -36.9052   22.2063 H   0  0  0  0  0  0
  -23.7184  -37.6473   23.6709 H   0  0  0  0  0  0
  -26.0522  -31.5934   20.5947 H   0  0  0  0  0  0
  -26.8240  -30.8842   21.9849 H   0  0  0  0  0  0
  -28.0998  -29.0877   21.1820 H   0  0  0  0  0  0
  -26.0377  -25.9867   18.9814 H   0  0  0  0  0  0
  -23.9878  -27.3134   19.0061 H   0  0  0  0  0  0
  -23.7301  -30.6031   19.4066 H   0  0  0  0  0  0
  -22.7412  -29.2484   19.8632 H   0  0  0  0  0  0
  -25.1245  -36.1958   25.0821 H   0  0  0  0  0  0
  -20.9949  -28.3228   24.1430 H   0  0  0  0  0  0
  -20.5650  -26.2271   23.3603 H   0  0  0  0  0  0
  -21.6636  -26.7413   22.1230 H   0  0  0  0  0  0
  -19.6916  -25.6294   21.1227 H   0  0  0  0  0  0
  -19.6699  -27.3197   20.6740 H   0  0  0  0  0  0
  -17.4201  -26.6675   21.3985 H   0  0  0  0  0  0
  -18.0296  -26.0042   22.8967 H   0  0  0  0  0  0
  -19.7924  -30.7243   24.2280 H   0  0  0  0  0  0
  -17.5009  -31.6250   24.5166 H   0  0  0  0  0  0
  -15.5347  -30.2984   23.7642 H   0  0  0  0  0  0
  -15.8656  -28.0825   22.7057 H   0  0  0  0  0  0
  -24.5953  -30.6993   25.7894 H   0  0  0  0  0  0
  -24.8911  -32.2838   26.4950 H   0  0  0  0  0  0
  -25.8152  -30.8917   27.0272 H   0  0  0  0  0  0
  -26.2782  -29.6813   24.1174 H   0  0  0  0  0  0
  -27.4037  -29.7246   25.4555 H   0  0  0  0  0  0
  -27.8634  -30.4328   23.9234 H   0  0  0  0  0  0
  -27.2703  -33.3606   26.2084 H   0  0  0  0  0  0
  -28.3860  -32.6854   25.0298 H   0  0  0  0  0  0
  -28.0737  -31.8408   26.5390 H   0  0  0  0  0  0
  -28.2478  -38.0210   24.7703 H   0  0  0  0  0  0
  -28.1252  -36.2766   24.5924 H   0  0  0  0  0  0
  -27.2384  -37.1032   25.8823 H   0  0  0  0  0  0
  -20.9314  -29.8781   21.6961 H   0  0  0  0  0  0
  -26.0136  -38.2861   24.1612 H   0  0  0  0  0  0
  -28.4115  -18.1662   21.0139 H   0  0  0  0  0  0
  -29.6641  -17.5598   19.9581 H   0  0  0  0  0  0
  -32.1418  -17.3946   20.9196 H   0  0  0  0  0  0
  -32.4232  -17.9256   22.5626 H   0  0  0  0  0  0
  -30.6955  -21.8688   18.9938 H   0  0  0  0  0  0
  -32.1114  -21.8132   20.0256 H   0  0  0  0  0  0
  -28.3755  -15.7150   20.8344 H   0  0  0  0  0  0
  -28.6371  -16.1863   22.4829 H   0  0  0  0  0  0
  -30.9521  -16.1116   23.4429 H   0  0  0  0  0  0
  -32.2610  -15.4550   22.5080 H   0  0  0  0  0  0
  -31.8414  -19.4689   19.6632 H   0  0  0  0  0  0
  -30.1003  -19.6575   19.4538 H   0  0  0  0  0  0
  -30.0460  -18.3726   22.8825 H   0  0  0  0  0  0
  -30.9822  -22.6117   21.7863 H   0  0  0  0  0  0
  -28.8038  -20.5163   21.5758 H   0  0  0  0  0  0
  -30.8639  -21.0478   23.8035 H   0  0  0  0  0  0
  -29.3510  -20.1537   23.9550 H   0  0  0  0  0  0
  -29.3245  -21.8868   23.7187 H   0  0  0  0  0  0
  -29.2398  -25.8024   22.6638 H   0  0  0  0  0  0
  -30.1577  -24.3515   22.9944 H   0  0  0  0  0  0
  -28.4015  -24.2923   22.9681 H   0  0  0  0  0  0
  -27.2405  -24.9481   20.6749 H   0  0  0  0  0  0
  -28.1464  -24.8721   19.1733 H   0  0  0  0  0  0
  -30.2645  -24.7208   20.5541 H   0  0  0  0  0  0
  -28.3279  -22.6135   21.2194 H   0  0  0  0  0  0
  -28.9986  -22.7596   19.7552 H   0  0  0  0  0  0
  1 25  1  0  0  0
  1 30  2  0  0  0
  1 84  1  0  0  0
  2  3  1  0  0  0
  2 25  1  0  0  0
  2 87  1  0  0  0
  2 88  1  0  0  0
  3  4  1  0  0  0
  3 89  1  0  0  0
  3 90  1  0  0  0
  4  5  1  0  0  0
  4 91  1  0  0  0
  4 92  1  0  0  0
  5  6  1  0  0  0
  5 26  1  0  0  0
  5 93  1  0  0  0
  6 25  1  0  0  0
  6 94  1  0  0  0
  6 95  1  0  0  0
  7  8  2  0  0  0
  7 26  1  0  0  0
  7 29  1  0  0  0
  8  9  1  0  0  0
  8 22  1  0  0  0
  9 10  1  0  0  0
  9 27  2  0  0  0
 10 11  2  0  0  0
 10 15  1  0  0  0
 11 12  1  0  0  0
 11 96  1  0  0  0
 12 13  2  0  0  0
 12 97  1  0  0  0
 13 14  1  0  0  0
 13 31  1  0  0  0
 14 15  2  0  0  0
 14 98  1  0  0  0
 15 99  1  0  0  0
 16 17  2  0  0  0
 16 21  1  0  0  0
 16 31  1  0  0  0
 17 18  1  0  0  0
 17100  1  0  0  0
 18 19  2  0  0  0
 18101  1  0  0  0
 19 20  1  0  0  0
 19 24  1  0  0  0
 20 21  2  0  0  0
 20102  1  0  0  0
 21 23  1  0  0  0
 22 28  1  0  0  0
 22 32  2  0  0  0
 26 27  1  0  0  0
 28103  1  0  0  0
 28104  1  0  0  0
 29105  1  0  0  0
 29106  1  0  0  0
 33 34  1  0  0  0
 33 66  1  0  0  0
 33 70  2  0  0  0
 34 36  1  0  0  0
 34 59  1  0  0  0
 34107  1  0  0  0
 35 44  2  0  0  0
 35 45  1  0  0  0
 35 68  1  0  0  0
 36 56  1  0  0  0
 36108  1  0  0  0
 37 39  1  0  0  0
 37 47  1  0  0  0
 37 66  1  0  0  0
 37109  1  0  0  0
 38 43  2  0  0  0
 38 46  1  0  0  0
 38 47  1  0  0  0
 39 64  1  0  0  0
 39 67  2  0  0  0
 40 52  1  0  0  0
 40 53  2  0  0  0
 40 58  1  0  0  0
 41110  1  0  0  0
 41111  1  0  0  0
 41112  1  0  0  0
 41 48  1  0  0  0
 42 43  1  0  0  0
 42 66  1  0  0  0
 42113  1  0  0  0
 42114  1  0  0  0
 43 44  1  0  0  0
 44115  1  0  0  0
 45 46  2  0  0  0
 45116  1  0  0  0
 46117  1  0  0  0
 47118  1  0  0  0
 47119  1  0  0  0
 48 56  1  0  0  0
 48 65  1  0  0  0
 48120  1  0  0  0
 49 50  1  0  0  0
 49 53  1  0  0  0
 49 64  1  0  0  0
 49121  1  0  0  0
 50 51  1  0  0  0
 50122  1  0  0  0
 50123  1  0  0  0
 51 52  1  0  0  0
 51124  1  0  0  0
 51125  1  0  0  0
 52126  1  0  0  0
 52127  1  0  0  0
 53 54  1  0  0  0
 54 55  2  0  0  0
 54128  1  0  0  0
 55 57  1  0  0  0
 55129  1  0  0  0
 56 69  2  0  0  0
 57 58  2  0  0  0
 57130  1  0  0  0
 58131  1  0  0  0
 59 60  1  0  0  0
 59 61  1  0  0  0
 59 62  1  0  0  0
 60132  1  0  0  0
 60133  1  0  0  0
 60134  1  0  0  0
 61135  1  0  0  0
 61136  1  0  0  0
 61137  1  0  0  0
 62138  1  0  0  0
 62139  1  0  0  0
 62140  1  0  0  0
 63 65  1  0  0  0
 63141  1  0  0  0
 63142  1  0  0  0
 63143  1  0  0  0
 64144  1  0  0  0
 65145  1  0  0  0
 68 82  1  0  0  0
 71 74  1  0  0  0
 71 77  1  0  0  0
 71146  1  0  0  0
 71147  1  0  0  0
 72 75  1  0  0  0
 72 77  1  0  0  0
 72148  1  0  0  0
 72149  1  0  0  0
 73 76  1  0  0  0
 73 78  1  0  0  0
 73150  1  0  0  0
 73151  1  0  0  0
 74 84  1  0  0  0
 74152  1  0  0  0
 74153  1  0  0  0
 75 84  1  0  0  0
 75154  1  0  0  0
 75155  1  0  0  0
 76156  1  0  0  0
 76157  1  0  0  0
 76 85  1  0  0  0
 77 85  1  0  0  0
 77158  1  0  0  0
 78 79  1  0  0  0
 78 86  1  0  0  0
 78159  1  0  0  0
 79 80  1  0  0  0
 79 85  1  0  0  0
 79160  1  0  0  0
 80161  1  0  0  0
 80162  1  0  0  0
 80163  1  0  0  0
 81164  1  0  0  0
 81165  1  0  0  0
 81166  1  0  0  0
 81 83  1  0  0  0
 82 83  1  0  0  0
 82167  1  0  0  0
 82168  1  0  0  0
 83 86  1  0  0  0
 83169  1  0  0  0
 86170  1  0  0  0
 86171  1  0  0  0
M  CHG  1  86   1
M  ISO  4   1 100  68 101  82 101  84 100
M  END
> <chiral flag>
0

> <version>
0

> <s_m_source_file>
/data/baiqing/PycharmProjects/Reinvent-master-3.2/result/LINK_invent/BTK/process_docking_weight1_custom_sum_contain_oxygen_bond_distance_aromatic_linkinvent_7_9_3/rearranged_h_0165.sdf

> <i_m_source_file_index>
18

> <r_mmod_Potential_Energy-OPLS-2005>
122.066047668457

> <r_mmod_Stretch_Energy-OPLS-2005>
46.114185333252

> <r_mmod_Bend_Energy-OPLS-2005>
138.120468139648

> <r_mmod_Torsional_Energy-OPLS-2005>
387.557525634766

> <r_mmod_Improper_Torsional_Energy-OPLS-2005>
5.03711128234863

> <r_mmod_Van_der_Waal_Energy-OPLS-2005>
139.120986938477

> <r_mmod_Electrostatic_Energy-OPLS-2005>
-177.138885498047

> <r_mmod_Solvation_Energy-OPLS-2005>
-433.266998291016

> <b_mmod_Minimization_Converged-OPLS-2005>
0

> <r_mmod_RMS_Derivative-OPLS-2005>
2.16366481781006

$$$$
18
                    3D
 Structure written by MMmdl.
164174  0  0  1  0            999 V2000
  -30.4191  -15.2978   20.3411 C   0  0  0  0  0  0
  -30.4364  -12.8257   19.5380 C   0  0  0  0  0  0
  -29.5409  -12.5892   18.2945 C   0  0  0  0  0  0
  -28.0876  -12.3100   18.7152 C   0  0  0  0  0  0
  -27.6116  -13.2816   19.8238 C   0  0  2  0  0  0
  -28.6402  -13.4629   20.9612 C   0  0  0  0  0  0
  -25.2390  -13.8260   20.5753 C   0  0  0  0  0  0
  -24.1744  -13.0446   20.9263 C   0  0  0  0  0  0
  -24.6401  -11.6942   20.8756 C   0  0  0  0  0  0
  -23.9097  -10.4301   21.0403 C   0  0  0  0  0  0
  -24.3644   -9.4220   21.9179 C   0  0  0  0  0  0
  -23.6318   -8.2252   22.0745 C   0  0  0  0  0  0
  -22.4295   -8.0289   21.3539 C   0  0  0  0  0  0
  -21.9937   -9.0263   20.4635 C   0  0  0  0  0  0
  -22.7269  -10.2140   20.3047 C   0  0  0  0  0  0
  -21.6856   -6.0748   22.5284 C   0  0  0  0  0  0
  -21.4014   -6.5647   23.8222 C   0  0  0  0  0  0
  -21.3659   -5.6792   24.9182 C   0  0  0  0  0  0
  -21.6045   -4.3057   24.7223 C   0  0  0  0  0  0
  -21.8819   -3.8153   23.4343 C   0  0  0  0  0  0
  -21.9195   -4.6974   22.3407 C   0  0  0  0  0  0
  -22.7761  -13.5196   21.1911 C   0  0  0  0  0  0
  -22.1661   -4.2163   21.0983 F   0  0  0  0  0  0
  -21.5635   -3.4540   25.7736 F   0  0  0  0  0  0
  -29.8740  -13.9774   20.3430 N   0  0  0  0  0  0
  -26.2816  -12.9545   20.3209 N   0  0  0  0  0  0
  -25.9338  -11.6646   20.5692 N   0  0  0  0  0  0
  -22.0414  -12.8169   22.0457 N   0  0  0  0  0  0
  -25.4041  -15.1992   20.4208 N   0  0  0  0  0  0
  -31.6340  -15.2887   20.0905 O   0  0  0  0  0  0
  -21.6648   -6.8889   21.4242 O   0  0  0  0  0  0
  -22.3444  -14.5501   20.6758 O   0  0  0  0  0  0
  -24.6658  -31.8206   23.1684 C   0  0  0  0  0  0
  -25.9336  -32.4568   23.8149 C   0  0  1  0  0  0
  -27.2123  -26.9025   20.1847 C   0  0  0  0  0  0
  -25.6002  -33.8381   24.2063 N   0  0  0  0  0  0
  -23.4807  -30.4330   21.5181 C   0  0  2  0  0  0
  -24.9326  -28.8163   20.1090 C   0  0  0  0  0  0
  -22.7684  -29.4429   22.4771 C   0  0  0  0  0  0
  -18.0325  -28.1412   22.8476 C   0  0  0  0  0  0
  -24.1483  -36.7181   23.2652 C   0  0  0  0  0  0
  -26.0512  -30.6195   21.4020 C   0  0  0  0  0  0
  -26.1167  -29.2068   20.7464 C   0  0  0  0  0  0
  -27.2494  -28.2705   20.7610 C   0  0  0  0  0  0
  -26.0028  -26.6751   19.4898 C   0  0  0  0  0  0
  -24.9028  -27.5716   19.4600 C   0  0  0  0  0  0
  -23.7210  -29.7493   20.1437 C   0  0  0  0  0  0
  -25.4124  -36.2949   24.0307 C   0  0  1  0  0  0
  -20.5957  -28.3751   23.1187 C   0  0  2  0  0  0
  -20.6806  -26.9433   22.5409 C   0  0  0  0  0  0
  -19.5774  -26.6377   21.5225 C   0  0  0  0  0  0
  -18.1952  -26.7949   22.1624 C   0  0  0  0  0  0
  -19.1591  -28.8898   23.2817 C   0  0  0  0  0  0
  -18.9503  -30.1494   23.8843 C   0  0  0  0  0  0
  -17.6494  -30.6597   24.0561 C   0  0  0  0  0  0
  -25.9098  -34.9338   23.4999 C   0  0  0  0  0  0
  -16.5381  -29.9087   23.6355 C   0  0  0  0  0  0
  -16.7309  -28.6513   23.0367 C   0  0  0  0  0  0
  -26.4576  -31.6522   25.0686 C   0  0  0  0  0  0
  -25.3703  -31.3791   26.1344 C   0  0  0  0  0  0
  -27.0478  -30.2885   24.6433 C   0  0  0  0  0  0
  -27.6061  -32.4337   25.7484 C   0  0  0  0  0  0
  -27.5556  -37.1749   24.8471 C   0  0  0  0  0  0
  -21.4348  -29.3036   22.3525 N   0  0  0  0  0  0
  -26.4256  -37.3701   23.9426 N   0  0  0  0  0  0
  -24.7542  -30.9854   22.0828 N   0  0  0  0  0  0
  -23.4225  -28.8007   23.3023 O   0  0  0  0  0  0
  -28.2016  -25.7779   20.2778 O   0  0  0  0  0  0
  -26.5703  -34.8890   22.4591 O   0  0  0  0  0  0
  -23.5724  -32.1181   23.6771 O   0  0  0  0  0  0
  -30.0959  -19.6798   18.0822 C   0  0  0  0  0  0
  -29.6282  -20.8804   18.6823 C   0  0  0  0  0  0
  -29.1004  -20.9027   19.9955 C   0  0  0  0  0  0
  -30.1210  -18.3849   18.6721 C   0  0  0  0  0  0
  -29.1517  -19.4687   20.6097 C   0  0  0  0  0  0
  -29.6715  -18.1335   19.9999 C   0  0  0  0  0  0
  -30.8175  -22.4593   16.9223 C   0  0  0  0  0  0
  -30.6576  -23.2481   18.1982 C   0  0  0  0  0  0
  -27.1343  -22.3478   21.1102 C   0  0  0  0  0  0
  -26.9028  -23.8627   21.1584 C   0  0  0  0  0  0
  -29.6758  -22.1460   17.8683 C   0  0  0  0  0  0
  -28.5652  -22.4878   20.5742 C   0  0  2  0  0  0
  -27.9503  -24.1424   20.0716 C   0  0  2  0  0  0
  -30.6056  -17.2565   17.7743 C   0  0  0  0  0  0
  -28.6208  -19.3447   22.0219 C   0  0  0  0  0  0
  -29.6550  -16.5757   20.5043 N   0  0  0  0  0  0
  -31.4566  -13.0266   19.2083 H   0  0  0  0  0  0
  -30.5042  -11.9219   20.1461 H   0  0  0  0  0  0
  -29.9286  -11.7613   17.6989 H   0  0  0  0  0  0
  -29.5722  -13.4707   17.6520 H   0  0  0  0  0  0
  -28.0393  -11.2837   19.0812 H   0  0  0  0  0  0
  -27.4239  -12.3581   17.8505 H   0  0  0  0  0  0
  -27.5252  -14.2486   19.3260 H   0  0  0  0  0  0
  -28.8103  -12.5299   21.5016 H   0  0  0  0  0  0
  -28.2705  -14.1835   21.6926 H   0  0  0  0  0  0
  -25.2783   -9.5711   22.4758 H   0  0  0  0  0  0
  -24.0038   -7.4640   22.7457 H   0  0  0  0  0  0
  -21.0875   -8.8776   19.8932 H   0  0  0  0  0  0
  -22.3724  -10.9680   19.6155 H   0  0  0  0  0  0
  -21.1997   -7.6153   23.9733 H   0  0  0  0  0  0
  -21.1480   -6.0518   25.9087 H   0  0  0  0  0  0
  -22.0594   -2.7616   23.2838 H   0  0  0  0  0  0
  -22.4044  -11.9848   22.4866 H   0  0  0  0  0  0
  -21.1010  -13.1154   22.2617 H   0  0  0  0  0  0
  -24.6364  -15.8503   20.5433 H   0  0  0  0  0  0
  -26.2451  -15.6403   20.0718 H   0  0  0  0  0  0
  -26.7411  -32.5087   23.0861 H   0  0  0  0  0  0
  -25.0134  -33.9448   25.0203 H   0  0  0  0  0  0
  -22.7955  -31.2659   21.3477 H   0  0  0  0  0  0
  -23.3768  -35.9487   23.3269 H   0  0  0  0  0  0
  -24.3573  -36.8866   22.2077 H   0  0  0  0  0  0
  -23.7206  -37.6343   23.6730 H   0  0  0  0  0  0
  -26.2347  -31.3599   20.6220 H   0  0  0  0  0  0
  -26.9107  -30.6751   22.0585 H   0  0  0  0  0  0
  -28.1411  -28.5662   21.2942 H   0  0  0  0  0  0
  -25.8704  -25.7275   18.9888 H   0  0  0  0  0  0
  -24.0045  -27.2684   18.9386 H   0  0  0  0  0  0
  -23.8803  -30.5189   19.3870 H   0  0  0  0  0  0
  -22.8287  -29.2090   19.8222 H   0  0  0  0  0  0
  -25.1322  -36.1727   25.0798 H   0  0  0  0  0  0
  -21.0043  -28.3353   24.1311 H   0  0  0  0  0  0
  -20.5688  -26.2368   23.3649 H   0  0  0  0  0  0
  -21.6663  -26.7409   22.1204 H   0  0  0  0  0  0
  -19.6923  -25.6275   21.1275 H   0  0  0  0  0  0
  -19.6705  -27.3176   20.6747 H   0  0  0  0  0  0
  -17.4228  -26.6716   21.4017 H   0  0  0  0  0  0
  -18.0321  -26.0096   22.9017 H   0  0  0  0  0  0
  -19.7982  -30.7338   24.2168 H   0  0  0  0  0  0
  -17.5050  -31.6275   24.5176 H   0  0  0  0  0  0
  -15.5380  -30.2974   23.7715 H   0  0  0  0  0  0
  -15.8714  -28.0825   22.7095 H   0  0  0  0  0  0
  -24.5897  -30.7119   25.7672 H   0  0  0  0  0  0
  -24.8879  -32.3001   26.4624 H   0  0  0  0  0  0
  -25.7938  -30.9061   27.0211 H   0  0  0  0  0  0
  -26.3157  -29.6548   24.1412 H   0  0  0  0  0  0
  -27.3986  -29.7255   25.5092 H   0  0  0  0  0  0
  -27.9107  -30.4066   23.9874 H   0  0  0  0  0  0
  -27.2640  -33.3716   26.1867 H   0  0  0  0  0  0
  -28.3970  -32.6759   25.0375 H   0  0  0  0  0  0
  -28.0611  -31.8578   26.5548 H   0  0  0  0  0  0
  -28.2553  -38.0066   24.7531 H   0  0  0  0  0  0
  -28.1067  -36.2591   24.6267 H   0  0  0  0  0  0
  -27.2289  -37.1360   25.8881 H   0  0  0  0  0  0
  -20.9593  -29.8720   21.6657 H   0  0  0  0  0  0
  -26.0087  -38.2747   24.1455 H   0  0  0  0  0  0
  -30.4506  -19.7594   17.0636 H   0  0  0  0  0  0
  -31.6669  -21.7802   16.8719 H   0  0  0  0  0  0
  -30.5825  -22.9782   15.9951 H   0  0  0  0  0  0
  -30.3227  -24.2787   18.0980 H   0  0  0  0  0  0
  -31.3775  -23.0637   18.9937 H   0  0  0  0  0  0
  -26.4820  -21.8629   20.3824 H   0  0  0  0  0  0
  -27.0531  -21.8520   22.0768 H   0  0  0  0  0  0
  -27.1905  -24.2846   22.1229 H   0  0  0  0  0  0
  -25.8857  -24.1607   20.9012 H   0  0  0  0  0  0
  -28.6761  -22.4333   17.5450 H   0  0  0  0  0  0
  -29.2359  -22.6821   21.4117 H   0  0  0  0  0  0
  -27.4902  -24.0214   19.0898 H   0  0  0  0  0  0
  -30.7009  -17.5759   16.7363 H   0  0  0  0  0  0
  -29.9078  -16.4198   17.7773 H   0  0  0  0  0  0
  -31.5877  -16.9115   18.0931 H   0  0  0  0  0  0
  -28.7471  -20.2748   22.5748 H   0  0  0  0  0  0
  -29.1549  -18.5657   22.5673 H   0  0  0  0  0  0
  -27.5612  -19.0905   22.0067 H   0  0  0  0  0  0
  -28.7872  -16.3668   20.9754 H   0  0  0  0  0  0
  1 25  1  0  0  0
  1 30  2  0  0  0
  1 86  1  0  0  0
  2  3  1  0  0  0
  2 25  1  0  0  0
  2 87  1  0  0  0
  2 88  1  0  0  0
  3  4  1  0  0  0
  3 89  1  0  0  0
  3 90  1  0  0  0
  4  5  1  0  0  0
  4 91  1  0  0  0
  4 92  1  0  0  0
  5  6  1  0  0  0
  5 26  1  0  0  0
  5 93  1  0  0  0
  6 25  1  0  0  0
  6 94  1  0  0  0
  6 95  1  0  0  0
  7  8  2  0  0  0
  7 26  1  0  0  0
  7 29  1  0  0  0
  8  9  1  0  0  0
  8 22  1  0  0  0
  9 10  1  0  0  0
  9 27  2  0  0  0
 10 11  2  0  0  0
 10 15  1  0  0  0
 11 12  1  0  0  0
 11 96  1  0  0  0
 12 13  2  0  0  0
 12 97  1  0  0  0
 13 14  1  0  0  0
 13 31  1  0  0  0
 14 15  2  0  0  0
 14 98  1  0  0  0
 15 99  1  0  0  0
 16 17  2  0  0  0
 16 21  1  0  0  0
 16 31  1  0  0  0
 17 18  1  0  0  0
 17100  1  0  0  0
 18 19  2  0  0  0
 18101  1  0  0  0
 19 20  1  0  0  0
 19 24  1  0  0  0
 20 21  2  0  0  0
 20102  1  0  0  0
 21 23  1  0  0  0
 22 28  1  0  0  0
 22 32  2  0  0  0
 26 27  1  0  0  0
 28103  1  0  0  0
 28104  1  0  0  0
 29105  1  0  0  0
 29106  1  0  0  0
 33 34  1  0  0  0
 33 66  1  0  0  0
 33 70  2  0  0  0
 34 36  1  0  0  0
 34 59  1  0  0  0
 34107  1  0  0  0
 35 44  2  0  0  0
 35 45  1  0  0  0
 35 68  1  0  0  0
 36 56  1  0  0  0
 36108  1  0  0  0
 37 39  1  0  0  0
 37 47  1  0  0  0
 37 66  1  0  0  0
 37109  1  0  0  0
 38 43  2  0  0  0
 38 46  1  0  0  0
 38 47  1  0  0  0
 39 64  1  0  0  0
 39 67  2  0  0  0
 40 52  1  0  0  0
 40 53  2  0  0  0
 40 58  1  0  0  0
 41110  1  0  0  0
 41111  1  0  0  0
 41112  1  0  0  0
 41 48  1  0  0  0
 42 43  1  0  0  0
 42 66  1  0  0  0
 42113  1  0  0  0
 42114  1  0  0  0
 43 44  1  0  0  0
 44115  1  0  0  0
 45 46  2  0  0  0
 45116  1  0  0  0
 46117  1  0  0  0
 47118  1  0  0  0
 47119  1  0  0  0
 48 56  1  0  0  0
 48 65  1  0  0  0
 48120  1  0  0  0
 49 50  1  0  0  0
 49 53  1  0  0  0
 49 64  1  0  0  0
 49121  1  0  0  0
 50 51  1  0  0  0
 50122  1  0  0  0
 50123  1  0  0  0
 51 52  1  0  0  0
 51124  1  0  0  0
 51125  1  0  0  0
 52126  1  0  0  0
 52127  1  0  0  0
 53 54  1  0  0  0
 54 55  2  0  0  0
 54128  1  0  0  0
 55 57  1  0  0  0
 55129  1  0  0  0
 56 69  2  0  0  0
 57 58  2  0  0  0
 57130  1  0  0  0
 58131  1  0  0  0
 59 60  1  0  0  0
 59 61  1  0  0  0
 59 62  1  0  0  0
 60132  1  0  0  0
 60133  1  0  0  0
 60134  1  0  0  0
 61135  1  0  0  0
 61136  1  0  0  0
 61137  1  0  0  0
 62138  1  0  0  0
 62139  1  0  0  0
 62140  1  0  0  0
 63 65  1  0  0  0
 63141  1  0  0  0
 63142  1  0  0  0
 63143  1  0  0  0
 64144  1  0  0  0
 65145  1  0  0  0
 68 83  1  0  0  0
 71 72  2  0  0  0
 71 74  1  0  0  0
 71146  1  0  0  0
 72 73  1  0  0  0
 72 81  1  0  0  0
 73 75  2  0  0  0
 73 82  1  0  0  0
 74 76  2  0  0  0
 74 84  1  0  0  0
 75 76  1  0  0  0
 75 85  1  0  0  0
 76 86  1  0  0  0
 77 78  1  0  0  0
 77 81  1  0  0  0
 77147  1  0  0  0
 77148  1  0  0  0
 78 81  1  0  0  0
 78149  1  0  0  0
 78150  1  0  0  0
 79 80  1  0  0  0
 79 82  1  0  0  0
 79151  1  0  0  0
 79152  1  0  0  0
 80 83  1  0  0  0
 80153  1  0  0  0
 80154  1  0  0  0
 81155  1  0  0  0
 82 83  1  0  0  0
 82156  1  0  0  0
 83157  1  0  0  0
 84158  1  0  0  0
 84159  1  0  0  0
 84160  1  0  0  0
 85161  1  0  0  0
 85162  1  0  0  0
 85163  1  0  0  0
 86164  1  0  0  0
M  ISO  4   1 100  68 101  83 101  86 100
M  END
> <chiral flag>
0

> <version>
0

> <s_m_source_file>
/data/baiqing/PycharmProjects/Reinvent-master-3.2/result/LINK_invent/BTK/process_docking_weight1_custom_sum_contain_oxygen_bond_distance_aromatic_linkinvent_7_9_3/rearranged_h_0165.sdf

> <i_m_source_file_index>
19

> <r_mmod_Potential_Energy-OPLS-2005>
1380.03796386719

> <r_mmod_Stretch_Energy-OPLS-2005>
643.547546386719

> <r_mmod_Bend_Energy-OPLS-2005>
454.992401123047

> <r_mmod_Torsional_Energy-OPLS-2005>
273.863861083984

> <r_mmod_Improper_Torsional_Energy-OPLS-2005>
3.26462602615356

> <r_mmod_Van_der_Waal_Energy-OPLS-2005>
123.305023193359

> <r_mmod_Electrostatic_Energy-OPLS-2005>
-407.888336181641

> <r_mmod_Solvation_Energy-OPLS-2005>
-205.953704833984

> <b_mmod_Minimization_Converged-OPLS-2005>
0

> <r_mmod_RMS_Derivative-OPLS-2005>
1.38641083240509

$$$$
19
                    3D
 Structure written by MMmdl.
167176  0  0  1  0            999 V2000
  -30.6256  -14.8981   20.4259 C   0  0  0  0  0  0
  -30.4189  -12.5656   19.4825 C   0  0  0  0  0  0
  -29.5032  -12.5136   18.2424 C   0  0  0  0  0  0
  -28.0411  -12.2998   18.6713 C   0  0  0  0  0  0
  -27.6201  -13.2407   19.8299 C   0  0  2  0  0  0
  -28.6689  -13.3050   20.9608 C   0  0  0  0  0  0
  -25.2436  -13.8192   20.5729 C   0  0  0  0  0  0
  -24.1753  -13.0423   20.9248 C   0  0  0  0  0  0
  -24.6369  -11.6909   20.8783 C   0  0  0  0  0  0
  -23.9061  -10.4283   21.0423 C   0  0  0  0  0  0
  -24.3615   -9.4195   21.9195 C   0  0  0  0  0  0
  -23.6290   -8.2231   22.0757 C   0  0  0  0  0  0
  -22.4273   -8.0274   21.3543 C   0  0  0  0  0  0
  -21.9910   -9.0248   20.4645 C   0  0  0  0  0  0
  -22.7240  -10.2127   20.3061 C   0  0  0  0  0  0
  -21.6849   -6.0732   22.5280 C   0  0  0  0  0  0
  -21.4010   -6.5638   23.8213 C   0  0  0  0  0  0
  -21.3659   -5.6791   24.9175 C   0  0  0  0  0  0
  -21.6043   -4.3053   24.7226 C   0  0  0  0  0  0
  -21.8819   -3.8145   23.4347 C   0  0  0  0  0  0
  -21.9191   -4.6961   22.3403 C   0  0  0  0  0  0
  -22.7775  -13.5201   21.1893 C   0  0  0  0  0  0
  -22.1659   -4.2148   21.0980 F   0  0  0  0  0  0
  -21.5632   -3.4537   25.7738 F   0  0  0  0  0  0
  -29.9435  -13.6873   20.3416 N   0  0  0  0  0  0
  -26.2844  -12.9407   20.3262 N   0  0  0  0  0  0
  -25.9297  -11.6546   20.5778 N   0  0  0  0  0  0
  -22.0423  -12.8190   22.0448 N   0  0  0  0  0  0
  -25.4097  -15.1917   20.4135 N   0  0  0  0  0  0
  -31.8424  -14.8556   20.2157 O   0  0  0  0  0  0
  -21.6635   -6.8873   21.4240 O   0  0  0  0  0  0
  -22.3463  -14.5506   20.6735 O   0  0  0  0  0  0
  -24.6402  -31.8469   23.1915 C   0  0  0  0  0  0
  -25.9189  -32.4713   23.8291 C   0  0  1  0  0  0
  -27.2102  -27.1677   20.1521 C   0  0  0  0  0  0
  -25.5951  -33.8518   24.2210 N   0  0  0  0  0  0
  -23.4422  -30.4682   21.5363 C   0  0  2  0  0  0
  -24.8915  -28.9012   20.1109 C   0  0  0  0  0  0
  -22.7552  -29.4564   22.4870 C   0  0  0  0  0  0
  -18.0301  -28.1398   22.8481 C   0  0  0  0  0  0
  -24.1487  -36.7256   23.2644 C   0  0  0  0  0  0
  -25.9963  -30.7311   21.3862 C   0  0  0  0  0  0
  -26.0686  -29.3449   20.7294 C   0  0  0  0  0  0
  -27.2339  -28.4941   20.7334 C   0  0  0  0  0  0
  -26.0147  -26.8226   19.4877 C   0  0  0  0  0  0
  -24.8755  -27.6520   19.4740 C   0  0  0  0  0  0
  -23.6671  -29.8000   20.1545 C   0  0  0  0  0  0
  -25.4118  -36.3041   24.0322 C   0  0  1  0  0  0
  -20.5913  -28.3720   23.1243 C   0  0  2  0  0  0
  -20.6788  -26.9427   22.5404 C   0  0  0  0  0  0
  -19.5762  -26.6383   21.5215 C   0  0  0  0  0  0
  -18.1942  -26.7938   22.1622 C   0  0  0  0  0  0
  -19.1559  -28.8876   23.2857 C   0  0  0  0  0  0
  -18.9477  -30.1474   23.8879 C   0  0  0  0  0  0
  -17.6475  -30.6595   24.0564 C   0  0  0  0  0  0
  -25.9068  -34.9417   23.5072 C   0  0  0  0  0  0
  -16.5365  -29.9089   23.6341 C   0  0  0  0  0  0
  -16.7286  -28.6509   23.0358 C   0  0  0  0  0  0
  -26.4524  -31.6569   25.0717 C   0  0  0  0  0  0
  -25.3719  -31.3747   26.1418 C   0  0  0  0  0  0
  -27.0393  -30.2971   24.6274 C   0  0  0  0  0  0
  -27.6056  -32.4336   25.7504 C   0  0  0  0  0  0
  -27.5572  -37.1785   24.8469 C   0  0  0  0  0  0
  -21.4247  -29.3051   22.3618 N   0  0  0  0  0  0
  -26.4282  -37.3752   23.9413 N   0  0  0  0  0  0
  -24.7127  -31.0357   22.0933 N   0  0  0  0  0  0
  -23.4212  -28.8107   23.3003 O   0  0  0  0  0  0
  -28.2472  -26.1781   20.1807 O   0  0  0  0  0  0
  -26.5645  -34.8910   22.4645 O   0  0  0  0  0  0
  -23.5528  -32.1329   23.7152 O   0  0  0  0  0  0
  -29.6812  -21.6644   19.0784 C   0  0  0  0  0  0
  -29.3560  -23.0811   19.0951 C   0  0  0  0  0  0
  -29.1624  -21.0178   20.1818 C   0  0  0  0  0  0
  -28.6216  -23.3986   20.2142 C   0  0  0  0  0  0
  -28.6913  -18.3134   19.6479 C   0  0  0  0  0  0
  -30.6379  -18.7986   20.9188 C   0  0  0  0  0  0
  -28.7563  -16.7511   20.0781 C   0  0  0  0  0  0
  -30.7041  -17.2747   21.4228 C   0  0  0  0  0  0
  -29.2329  -19.4358   20.6224 C   0  0  0  0  0  0
  -30.4681  -20.9858   17.9824 C   0  0  0  0  0  0
  -29.7495  -24.0611   18.0165 C   0  0  0  0  0  0
  -26.3602  -21.4516   21.8814 C   0  0  0  0  0  0
  -27.8982  -24.7740   20.7126 C   0  0  0  0  0  0
  -27.7986  -21.9204   22.1271 C   0  0  0  0  0  0
  -28.5182  -22.1107   20.8751 N   0  0  0  0  0  0
  -30.0159  -16.1702   20.6595 N   0  0  0  0  0  0
  -31.4557  -12.6894   19.1658 H   0  0  0  0  0  0
  -30.3881  -11.6216   20.0290 H   0  0  0  0  0  0
  -29.8176  -11.7138   17.5706 H   0  0  0  0  0  0
  -29.5908  -13.4434   17.6779 H   0  0  0  0  0  0
  -27.9419  -11.2609   18.9875 H   0  0  0  0  0  0
  -27.3721  -12.4231   17.8187 H   0  0  0  0  0  0
  -27.5630  -14.2269   19.3781 H   0  0  0  0  0  0
  -28.7538  -12.3479   21.4773 H   0  0  0  0  0  0
  -28.3763  -14.0418   21.7108 H   0  0  0  0  0  0
  -25.2756   -9.5671   22.4776 H   0  0  0  0  0  0
  -23.9997   -7.4618   22.7472 H   0  0  0  0  0  0
  -21.0845   -8.8767   19.8947 H   0  0  0  0  0  0
  -22.3701  -10.9669   19.6174 H   0  0  0  0  0  0
  -21.1999   -7.6145   23.9716 H   0  0  0  0  0  0
  -21.1482   -6.0521   25.9079 H   0  0  0  0  0  0
  -22.0599   -2.7607   23.2846 H   0  0  0  0  0  0
  -22.4042  -11.9853   22.4834 H   0  0  0  0  0  0
  -21.1039  -13.1207   22.2651 H   0  0  0  0  0  0
  -24.6409  -15.8434   20.5275 H   0  0  0  0  0  0
  -26.2584  -15.6328   20.0866 H   0  0  0  0  0  0
  -26.7254  -32.5331   23.1022 H   0  0  0  0  0  0
  -25.0104  -33.9647   25.0361 H   0  0  0  0  0  0
  -22.7437  -31.2934   21.3840 H   0  0  0  0  0  0
  -23.3757  -35.9580   23.3296 H   0  0  0  0  0  0
  -24.3573  -36.8889   22.2059 H   0  0  0  0  0  0
  -23.7229  -37.6447   23.6680 H   0  0  0  0  0  0
  -26.1469  -31.4864   20.6137 H   0  0  0  0  0  0
  -26.8690  -30.7814   22.0257 H   0  0  0  0  0  0
  -28.1318  -28.8282   21.2338 H   0  0  0  0  0  0
  -25.9432  -25.8678   18.9863 H   0  0  0  0  0  0
  -23.9795  -27.3102   18.9741 H   0  0  0  0  0  0
  -23.8017  -30.5757   19.4000 H   0  0  0  0  0  0
  -22.7823  -29.2405   19.8447 H   0  0  0  0  0  0
  -25.1304  -36.1872   25.0814 H   0  0  0  0  0  0
  -21.0010  -28.3304   24.1362 H   0  0  0  0  0  0
  -20.5686  -26.2334   23.3620 H   0  0  0  0  0  0
  -21.6654  -26.7439   22.1195 H   0  0  0  0  0  0
  -19.6926  -25.6288   21.1256 H   0  0  0  0  0  0
  -19.6702  -27.3187   20.6741 H   0  0  0  0  0  0
  -17.4213  -26.6690   21.4023 H   0  0  0  0  0  0
  -18.0337  -26.0084   22.9020 H   0  0  0  0  0  0
  -19.7954  -30.7296   24.2236 H   0  0  0  0  0  0
  -17.5030  -31.6275   24.5164 H   0  0  0  0  0  0
  -15.5364  -30.2986   23.7680 H   0  0  0  0  0  0
  -15.8686  -28.0824   22.7082 H   0  0  0  0  0  0
  -24.5920  -30.7068   25.7742 H   0  0  0  0  0  0
  -24.8887  -32.2926   26.4777 H   0  0  0  0  0  0
  -25.8015  -30.8972   27.0234 H   0  0  0  0  0  0
  -26.3008  -29.6692   24.1276 H   0  0  0  0  0  0
  -27.4018  -29.7267   25.4836 H   0  0  0  0  0  0
  -27.8908  -30.4220   23.9582 H   0  0  0  0  0  0
  -27.2649  -33.3662   26.2016 H   0  0  0  0  0  0
  -28.3904  -32.6850   25.0358 H   0  0  0  0  0  0
  -28.0680  -31.8500   26.5475 H   0  0  0  0  0  0
  -28.2583  -38.0088   24.7513 H   0  0  0  0  0  0
  -28.1074  -36.2615   24.6295 H   0  0  0  0  0  0
  -27.2292  -37.1428   25.8873 H   0  0  0  0  0  0
  -20.9447  -29.8767   21.6805 H   0  0  0  0  0  0
  -26.0148  -38.2819   24.1421 H   0  0  0  0  0  0
  -27.6551  -18.5515   19.4050 H   0  0  0  0  0  0
  -29.2259  -18.4059   18.7028 H   0  0  0  0  0  0
  -31.2556  -18.8766   20.0248 H   0  0  0  0  0  0
  -31.1377  -19.4206   21.6618 H   0  0  0  0  0  0
  -28.4984  -16.1698   19.1944 H   0  0  0  0  0  0
  -27.9684  -16.5644   20.8078 H   0  0  0  0  0  0
  -30.2843  -17.2437   22.4289 H   0  0  0  0  0  0
  -31.7564  -17.0190   21.5566 H   0  0  0  0  0  0
  -28.6531  -19.3327   21.5385 H   0  0  0  0  0  0
  -30.8563  -21.7025   17.2598 H   0  0  0  0  0  0
  -29.8388  -20.2804   17.4403 H   0  0  0  0  0  0
  -31.3201  -20.4466   18.3936 H   0  0  0  0  0  0
  -29.4178  -23.7065   17.0402 H   0  0  0  0  0  0
  -30.8330  -24.1786   17.9878 H   0  0  0  0  0  0
  -29.3090  -25.0434   18.1787 H   0  0  0  0  0  0
  -25.8354  -21.3009   22.8247 H   0  0  0  0  0  0
  -26.3391  -20.5082   21.3354 H   0  0  0  0  0  0
  -25.8000  -22.1867   21.3032 H   0  0  0  0  0  0
  -28.0664  -24.8607   21.7854 H   0  0  0  0  0  0
  -26.8243  -24.6119   20.6313 H   0  0  0  0  0  0
  -28.3370  -21.2004   22.7431 H   0  0  0  0  0  0
  -27.8010  -22.8464   22.7003 H   0  0  0  0  0  0
  1 25  1  0  0  0
  1 30  2  0  0  0
  1 86  1  0  0  0
  2  3  1  0  0  0
  2 25  1  0  0  0
  2 87  1  0  0  0
  2 88  1  0  0  0
  3  4  1  0  0  0
  3 89  1  0  0  0
  3 90  1  0  0  0
  4  5  1  0  0  0
  4 91  1  0  0  0
  4 92  1  0  0  0
  5  6  1  0  0  0
  5 26  1  0  0  0
  5 93  1  0  0  0
  6 25  1  0  0  0
  6 94  1  0  0  0
  6 95  1  0  0  0
  7  8  2  0  0  0
  7 26  1  0  0  0
  7 29  1  0  0  0
  8  9  1  0  0  0
  8 22  1  0  0  0
  9 10  1  0  0  0
  9 27  2  0  0  0
 10 11  2  0  0  0
 10 15  1  0  0  0
 11 12  1  0  0  0
 11 96  1  0  0  0
 12 13  2  0  0  0
 12 97  1  0  0  0
 13 14  1  0  0  0
 13 31  1  0  0  0
 14 15  2  0  0  0
 14 98  1  0  0  0
 15 99  1  0  0  0
 16 17  2  0  0  0
 16 21  1  0  0  0
 16 31  1  0  0  0
 17 18  1  0  0  0
 17100  1  0  0  0
 18 19  2  0  0  0
 18101  1  0  0  0
 19 20  1  0  0  0
 19 24  1  0  0  0
 20 21  2  0  0  0
 20102  1  0  0  0
 21 23  1  0  0  0
 22 28  1  0  0  0
 22 32  2  0  0  0
 26 27  1  0  0  0
 28103  1  0  0  0
 28104  1  0  0  0
 29105  1  0  0  0
 29106  1  0  0  0
 33 34  1  0  0  0
 33 66  1  0  0  0
 33 70  2  0  0  0
 34 36  1  0  0  0
 34 59  1  0  0  0
 34107  1  0  0  0
 35 44  2  0  0  0
 35 45  1  0  0  0
 35 68  1  0  0  0
 36 56  1  0  0  0
 36108  1  0  0  0
 37 39  1  0  0  0
 37 47  1  0  0  0
 37 66  1  0  0  0
 37109  1  0  0  0
 38 43  2  0  0  0
 38 46  1  0  0  0
 38 47  1  0  0  0
 39 64  1  0  0  0
 39 67  2  0  0  0
 40 52  1  0  0  0
 40 53  2  0  0  0
 40 58  1  0  0  0
 41110  1  0  0  0
 41111  1  0  0  0
 41112  1  0  0  0
 41 48  1  0  0  0
 42 43  1  0  0  0
 42 66  1  0  0  0
 42113  1  0  0  0
 42114  1  0  0  0
 43 44  1  0  0  0
 44115  1  0  0  0
 45 46  2  0  0  0
 45116  1  0  0  0
 46117  1  0  0  0
 47118  1  0  0  0
 47119  1  0  0  0
 48 56  1  0  0  0
 48 65  1  0  0  0
 48120  1  0  0  0
 49 50  1  0  0  0
 49 53  1  0  0  0
 49 64  1  0  0  0
 49121  1  0  0  0
 50 51  1  0  0  0
 50122  1  0  0  0
 50123  1  0  0  0
 51 52  1  0  0  0
 51124  1  0  0  0
 51125  1  0  0  0
 52126  1  0  0  0
 52127  1  0  0  0
 53 54  1  0  0  0
 54 55  2  0  0  0
 54128  1  0  0  0
 55 57  1  0  0  0
 55129  1  0  0  0
 56 69  2  0  0  0
 57 58  2  0  0  0
 57130  1  0  0  0
 58131  1  0  0  0
 59 60  1  0  0  0
 59 61  1  0  0  0
 59 62  1  0  0  0
 60132  1  0  0  0
 60133  1  0  0  0
 60134  1  0  0  0
 61135  1  0  0  0
 61136  1  0  0  0
 61137  1  0  0  0
 62138  1  0  0  0
 62139  1  0  0  0
 62140  1  0  0  0
 63 65  1  0  0  0
 63141  1  0  0  0
 63142  1  0  0  0
 63143  1  0  0  0
 64144  1  0  0  0
 65145  1  0  0  0
 68 83  1  0  0  0
 71 72  1  0  0  0
 71 73  2  0  0  0
 71 80  1  0  0  0
 72 74  2  0  0  0
 72 81  1  0  0  0
 73 85  1  0  0  0
 73 79  1  0  0  0
 74 83  1  0  0  0
 74 85  1  0  0  0
 75 77  1  0  0  0
 75 79  1  0  0  0
 75146  1  0  0  0
 75147  1  0  0  0
 76 78  1  0  0  0
 76 79  1  0  0  0
 76148  1  0  0  0
 76149  1  0  0  0
 77 86  1  0  0  0
 77150  1  0  0  0
 77151  1  0  0  0
 78 86  1  0  0  0
 78152  1  0  0  0
 78153  1  0  0  0
 79154  1  0  0  0
 80155  1  0  0  0
 80156  1  0  0  0
 80157  1  0  0  0
 81158  1  0  0  0
 81159  1  0  0  0
 81160  1  0  0  0
 82 84  1  0  0  0
 82161  1  0  0  0
 82162  1  0  0  0
 82163  1  0  0  0
 83164  1  0  0  0
 83165  1  0  0  0
 84 85  1  0  0  0
 84166  1  0  0  0
 84167  1  0  0  0
M  ISO  4   1 100  68 101  83 101  86 100
M  END
> <chiral flag>
0

> <version>
0

> <s_m_source_file>
/data/baiqing/PycharmProjects/Reinvent-master-3.2/result/LINK_invent/BTK/process_docking_weight1_custom_sum_contain_oxygen_bond_distance_aromatic_linkinvent_7_9_3/rearranged_h_0165.sdf

> <i_m_source_file_index>
20

> <r_mmod_Potential_Energy-OPLS-2005>
595.276245117188

> <r_mmod_Stretch_Energy-OPLS-2005>
201.844940185547

> <r_mmod_Bend_Energy-OPLS-2005>
260.783050537109

> <r_mmod_Torsional_Energy-OPLS-2005>
361.79736328125

> <r_mmod_Improper_Torsional_Energy-OPLS-2005>
2.16350817680359

> <r_mmod_Van_der_Waal_Energy-OPLS-2005>
109.06551361084

> <r_mmod_Electrostatic_Energy-OPLS-2005>
-305.693359375

> <r_mmod_Solvation_Energy-OPLS-2005>
-202.622512817383

> <b_mmod_Minimization_Converged-OPLS-2005>
0

> <r_mmod_RMS_Derivative-OPLS-2005>
0.542992293834686

$$$$
20
                    3D
 Structure written by MMmdl.
163172  0  0  1  0            999 V2000
  -30.8068  -14.5101   20.4917 C   0  0  0  0  0  0
  -30.4067  -12.3081   19.4480 C   0  0  0  0  0  0
  -29.4936  -12.4783   18.2195 C   0  0  0  0  0  0
  -28.0211  -12.3411   18.6424 C   0  0  0  0  0  0
  -27.6642  -13.2262   19.8658 C   0  0  2  0  0  0
  -28.7227  -13.1330   20.9941 C   0  0  0  0  0  0
  -25.2675  -13.8205   20.5764 C   0  0  0  0  0  0
  -24.1916  -13.0431   20.9218 C   0  0  0  0  0  0
  -24.6478  -11.6925   20.8754 C   0  0  0  0  0  0
  -23.9128  -10.4288   21.0418 C   0  0  0  0  0  0
  -24.3653   -9.4202   21.9217 C   0  0  0  0  0  0
  -23.6308   -8.2244   22.0793 C   0  0  0  0  0  0
  -22.4302   -8.0257   21.3551 C   0  0  0  0  0  0
  -21.9944   -9.0259   20.4697 C   0  0  0  0  0  0
  -22.7286  -10.2130   20.3105 C   0  0  0  0  0  0
  -21.6843   -6.0756   22.5285 C   0  0  0  0  0  0
  -21.4004   -6.5656   23.8215 C   0  0  0  0  0  0
  -21.3667   -5.6810   24.9181 C   0  0  0  0  0  0
  -21.6045   -4.3064   24.7239 C   0  0  0  0  0  0
  -21.8824   -3.8152   23.4353 C   0  0  0  0  0  0
  -21.9196   -4.6976   22.3415 C   0  0  0  0  0  0
  -22.7909  -13.5201   21.1809 C   0  0  0  0  0  0
  -22.1664   -4.2142   21.0993 F   0  0  0  0  0  0
  -21.5628   -3.4565   25.7759 F   0  0  0  0  0  0
  -30.0513  -13.3735   20.4086 N   0  0  0  0  0  0
  -26.3118  -12.9409   20.3431 N   0  0  0  0  0  0
  -25.9433  -11.6565   20.5864 N   0  0  0  0  0  0
  -22.0542  -12.8175   22.0365 N   0  0  0  0  0  0
  -25.4292  -15.1924   20.4176 N   0  0  0  0  0  0
  -31.9566  -14.5440   20.0573 O   0  0  0  0  0  0
  -21.6626   -6.8867   21.4231 O   0  0  0  0  0  0
  -22.3575  -14.5484   20.6622 O   0  0  0  0  0  0
  -24.6186  -31.8635   23.2074 C   0  0  0  0  0  0
  -25.9061  -32.4817   23.8408 C   0  0  1  0  0  0
  -27.2448  -27.4165   20.1038 C   0  0  0  0  0  0
  -25.5872  -33.8613   24.2307 N   0  0  0  0  0  0
  -23.4114  -30.4896   21.5448 C   0  0  2  0  0  0
  -24.8627  -28.9481   20.1136 C   0  0  0  0  0  0
  -22.7458  -29.4659   22.4952 C   0  0  0  0  0  0
  -18.0278  -28.1360   22.8476 C   0  0  0  0  0  0
  -24.1482  -36.7324   23.2639 C   0  0  0  0  0  0
  -25.9430  -30.8264   21.3619 C   0  0  0  0  0  0
  -26.0246  -29.4590   20.7078 C   0  0  0  0  0  0
  -27.2219  -28.7011   20.6982 C   0  0  0  0  0  0
  -26.0708  -26.9306   19.4906 C   0  0  0  0  0  0
  -24.8799  -27.6841   19.4984 C   0  0  0  0  0  0
  -23.6256  -29.8193   20.1638 C   0  0  0  0  0  0
  -25.4108  -36.3107   24.0337 C   0  0  1  0  0  0
  -20.5875  -28.3650   23.1271 C   0  0  2  0  0  0
  -20.6743  -26.9381   22.5388 C   0  0  0  0  0  0
  -19.5723  -26.6359   21.5182 C   0  0  0  0  0  0
  -18.1907  -26.7889   22.1617 C   0  0  0  0  0  0
  -19.1536  -28.8824   23.2867 C   0  0  0  0  0  0
  -18.9465  -30.1411   23.8902 C   0  0  0  0  0  0
  -17.6467  -30.6557   24.0561 C   0  0  0  0  0  0
  -25.9024  -34.9475   23.5121 C   0  0  0  0  0  0
  -16.5359  -29.9065   23.6314 C   0  0  0  0  0  0
  -16.7265  -28.6477   23.0346 C   0  0  0  0  0  0
  -26.4454  -31.6604   25.0739 C   0  0  0  0  0  0
  -25.3736  -31.3707   26.1508 C   0  0  0  0  0  0
  -27.0285  -30.3048   24.6109 C   0  0  0  0  0  0
  -27.6018  -32.4318   25.7496 C   0  0  0  0  0  0
  -27.5581  -37.1831   24.8466 C   0  0  0  0  0  0
  -21.4180  -29.3029   22.3703 N   0  0  0  0  0  0
  -26.4298  -37.3790   23.9404 N   0  0  0  0  0  0
  -24.6764  -31.0749   22.0956 N   0  0  0  0  0  0
  -23.4210  -28.8200   23.3010 O   0  0  0  0  0  0
  -28.3570  -26.5999   20.1497 O   0  0  0  0  0  0
  -26.5600  -34.8925   22.4680 O   0  0  0  0  0  0
  -23.5373  -32.1366   23.7472 O   0  0  0  0  0  0
  -31.1592  -23.1004   21.6398 C   0  0  0  0  0  0
  -28.4671  -23.0907   20.8900 C   0  0  0  0  0  0
  -30.4795  -24.3372   21.4595 C   0  0  0  0  0  0
  -30.4861  -21.8517   21.5225 C   0  0  0  0  0  0
  -29.1032  -24.3374   21.1123 C   0  0  0  0  0  0
  -29.1385  -21.8646   21.1065 C   0  0  0  0  0  0
  -30.9484  -17.7513   19.4799 C   0  0  0  0  0  0
  -31.1355  -19.2539   19.8375 C   0  0  0  0  0  0
  -30.5466  -18.0900   21.8139 C   0  0  0  0  0  0
  -30.9733  -16.9886   20.8267 C   0  0  1  0  0  0
  -31.1935  -25.6499   21.7631 C   0  0  0  0  0  0
  -31.1145  -20.5636   22.0998 C   0  0  0  0  0  0
  -28.2378  -25.6127   21.1993 C   0  0  0  0  0  0
  -30.2430  -15.6775   20.8862 N   0  0  0  0  0  0
  -31.2600  -19.2928   21.3124 N   0  3  2  0  0  0
  -28.4596  -20.6941   21.0008 F   0  0  0  0  0  0
  -31.4557  -12.3304   19.1420 H   0  0  0  0  0  0
  -30.2429  -11.3274   19.8967 H   0  0  0  0  0  0
  -29.7237  -11.7398   17.4532 H   0  0  0  0  0  0
  -29.6623  -13.4539   17.7672 H   0  0  0  0  0  0
  -27.8484  -11.2913   18.8829 H   0  0  0  0  0  0
  -27.3555  -12.5655   17.8072 H   0  0  0  0  0  0
  -27.6716  -14.2529   19.5011 H   0  0  0  0  0  0
  -28.7044  -12.1500   21.4678 H   0  0  0  0  0  0
  -28.5080  -13.8641   21.7756 H   0  0  0  0  0  0
  -25.2797   -9.5621   22.4796 H   0  0  0  0  0  0
  -23.9994   -7.4617   22.7502 H   0  0  0  0  0  0
  -21.0883   -8.8819   19.8977 H   0  0  0  0  0  0
  -22.3781  -10.9692   19.6225 H   0  0  0  0  0  0
  -21.1986   -7.6155   23.9702 H   0  0  0  0  0  0
  -21.1483   -6.0556   25.9083 H   0  0  0  0  0  0
  -22.0594   -2.7610   23.2877 H   0  0  0  0  0  0
  -22.4167  -11.9842   22.4738 H   0  0  0  0  0  0
  -21.1204  -13.1249   22.2606 H   0  0  0  0  0  0
  -24.6530  -15.8351   20.5259 H   0  0  0  0  0  0
  -26.2726  -15.6421   20.0835 H   0  0  0  0  0  0
  -26.7150  -32.5543   23.1205 H   0  0  0  0  0  0
  -25.0022  -33.9774   25.0460 H   0  0  0  0  0  0
  -22.6978  -31.3071   21.4002 H   0  0  0  0  0  0
  -23.3726  -35.9675   23.3308 H   0  0  0  0  0  0
  -24.3584  -36.8929   22.2052 H   0  0  0  0  0  0
  -23.7259  -37.6547   23.6637 H   0  0  0  0  0  0
  -26.0653  -31.5979   20.5986 H   0  0  0  0  0  0
  -26.8253  -30.8771   21.9875 H   0  0  0  0  0  0
  -28.1166  -29.0861   21.1680 H   0  0  0  0  0  0
  -26.0730  -25.9552   19.0262 H   0  0  0  0  0  0
  -23.9870  -27.2839   19.0357 H   0  0  0  0  0  0
  -23.7429  -30.5889   19.3997 H   0  0  0  0  0  0
  -22.7486  -29.2437   19.8620 H   0  0  0  0  0  0
  -25.1305  -36.1967   25.0834 H   0  0  0  0  0  0
  -20.9977  -28.3193   24.1390 H   0  0  0  0  0  0
  -20.5578  -26.2288   23.3608 H   0  0  0  0  0  0
  -21.6630  -26.7364   22.1256 H   0  0  0  0  0  0
  -19.6894  -25.6273   21.1207 H   0  0  0  0  0  0
  -19.6642  -27.3178   20.6717 H   0  0  0  0  0  0
  -17.4182  -26.6612   21.4017 H   0  0  0  0  0  0
  -18.0321  -26.0037   22.9024 H   0  0  0  0  0  0
  -19.7950  -30.7186   24.2305 H   0  0  0  0  0  0
  -17.5037  -31.6251   24.5143 H   0  0  0  0  0  0
  -15.5365  -30.2984   23.7589 H   0  0  0  0  0  0
  -15.8665  -28.0784   22.7066 H   0  0  0  0  0  0
  -24.5887  -30.7056   25.7865 H   0  0  0  0  0  0
  -24.8969  -32.2869   26.5010 H   0  0  0  0  0  0
  -25.8136  -30.8857   27.0242 H   0  0  0  0  0  0
  -26.2838  -29.6830   24.1118 H   0  0  0  0  0  0
  -27.4001  -29.7250   25.4571 H   0  0  0  0  0  0
  -27.8694  -30.4362   23.9298 H   0  0  0  0  0  0
  -27.2617  -33.3586   26.2139 H   0  0  0  0  0  0
  -28.3805  -32.6942   25.0315 H   0  0  0  0  0  0
  -28.0717  -31.8415   26.5384 H   0  0  0  0  0  0
  -28.2624  -38.0101   24.7511 H   0  0  0  0  0  0
  -28.1054  -36.2648   24.6299 H   0  0  0  0  0  0
  -27.2313  -37.1511   25.8871 H   0  0  0  0  0  0
  -20.9328  -29.8833   21.7013 H   0  0  0  0  0  0
  -26.0183  -38.2869   24.1373 H   0  0  0  0  0  0
  -32.1887  -23.1229   21.9715 H   0  0  0  0  0  0
  -27.4134  -23.0626   20.6554 H   0  0  0  0  0  0
  -31.7416  -17.4095   18.8114 H   0  0  0  0  0  0
  -30.0018  -17.6020   18.9630 H   0  0  0  0  0  0
  -30.2807  -19.8366   19.4889 H   0  0  0  0  0  0
  -32.0302  -19.6684   19.3702 H   0  0  0  0  0  0
  -30.8298  -17.8505   22.8411 H   0  0  0  0  0  0
  -29.4694  -18.2677   21.7697 H   0  0  0  0  0  0
  -32.0225  -16.7972   21.0695 H   0  0  0  0  0  0
  -30.9614  -26.4112   21.0139 H   0  0  0  0  0  0
  -32.2783  -25.5481   21.8011 H   0  0  0  0  0  0
  -30.8729  -26.0311   22.7329 H   0  0  0  0  0  0
  -30.5716  -20.3318   23.0172 H   0  0  0  0  0  0
  -32.1183  -20.8159   22.4434 H   0  0  0  0  0  0
  -28.4834  -26.1062   22.1399 H   0  0  0  0  0  0
  -27.1986  -25.2966   21.3282 H   0  0  0  0  0  0
  -29.2801  -15.6699   21.1910 H   0  0  0  0  0  0
  -32.2336  -19.0803   21.4727 H   0  0  0  0  0  0
  1 25  1  0  0  0
  1 30  2  0  0  0
  1 84  1  0  0  0
  2  3  1  0  0  0
  2 25  1  0  0  0
  2 87  1  0  0  0
  2 88  1  0  0  0
  3  4  1  0  0  0
  3 89  1  0  0  0
  3 90  1  0  0  0
  4  5  1  0  0  0
  4 91  1  0  0  0
  4 92  1  0  0  0
  5  6  1  0  0  0
  5 26  1  0  0  0
  5 93  1  0  0  0
  6 25  1  0  0  0
  6 94  1  0  0  0
  6 95  1  0  0  0
  7  8  2  0  0  0
  7 26  1  0  0  0
  7 29  1  0  0  0
  8  9  1  0  0  0
  8 22  1  0  0  0
  9 10  1  0  0  0
  9 27  2  0  0  0
 10 11  2  0  0  0
 10 15  1  0  0  0
 11 12  1  0  0  0
 11 96  1  0  0  0
 12 13  2  0  0  0
 12 97  1  0  0  0
 13 14  1  0  0  0
 13 31  1  0  0  0
 14 15  2  0  0  0
 14 98  1  0  0  0
 15 99  1  0  0  0
 16 17  2  0  0  0
 16 21  1  0  0  0
 16 31  1  0  0  0
 17 18  1  0  0  0
 17100  1  0  0  0
 18 19  2  0  0  0
 18101  1  0  0  0
 19 20  1  0  0  0
 19 24  1  0  0  0
 20 21  2  0  0  0
 20102  1  0  0  0
 21 23  1  0  0  0
 22 28  1  0  0  0
 22 32  2  0  0  0
 26 27  1  0  0  0
 28103  1  0  0  0
 28104  1  0  0  0
 29105  1  0  0  0
 29106  1  0  0  0
 33 34  1  0  0  0
 33 66  1  0  0  0
 33 70  2  0  0  0
 34 36  1  0  0  0
 34 59  1  0  0  0
 34107  1  0  0  0
 35 44  2  0  0  0
 35 45  1  0  0  0
 35 68  1  0  0  0
 36 56  1  0  0  0
 36108  1  0  0  0
 37 39  1  0  0  0
 37 47  1  0  0  0
 37 66  1  0  0  0
 37109  1  0  0  0
 38 43  2  0  0  0
 38 46  1  0  0  0
 38 47  1  0  0  0
 39 64  1  0  0  0
 39 67  2  0  0  0
 40 52  1  0  0  0
 40 53  2  0  0  0
 40 58  1  0  0  0
 41110  1  0  0  0
 41111  1  0  0  0
 41112  1  0  0  0
 41 48  1  0  0  0
 42 43  1  0  0  0
 42 66  1  0  0  0
 42113  1  0  0  0
 42114  1  0  0  0
 43 44  1  0  0  0
 44115  1  0  0  0
 45 46  2  0  0  0
 45116  1  0  0  0
 46117  1  0  0  0
 47118  1  0  0  0
 47119  1  0  0  0
 48 56  1  0  0  0
 48 65  1  0  0  0
 48120  1  0  0  0
 49 50  1  0  0  0
 49 53  1  0  0  0
 49 64  1  0  0  0
 49121  1  0  0  0
 50 51  1  0  0  0
 50122  1  0  0  0
 50123  1  0  0  0
 51 52  1  0  0  0
 51124  1  0  0  0
 51125  1  0  0  0
 52126  1  0  0  0
 52127  1  0  0  0
 53 54  1  0  0  0
 54 55  2  0  0  0
 54128  1  0  0  0
 55 57  1  0  0  0
 55129  1  0  0  0
 56 69  2  0  0  0
 57 58  2  0  0  0
 57130  1  0  0  0
 58131  1  0  0  0
 59 60  1  0  0  0
 59 61  1  0  0  0
 59 62  1  0  0  0
 60132  1  0  0  0
 60133  1  0  0  0
 60134  1  0  0  0
 61135  1  0  0  0
 61136  1  0  0  0
 61137  1  0  0  0
 62138  1  0  0  0
 62139  1  0  0  0
 62140  1  0  0  0
 63 65  1  0  0  0
 63141  1  0  0  0
 63142  1  0  0  0
 63143  1  0  0  0
 64144  1  0  0  0
 65145  1  0  0  0
 68 83  1  0  0  0
 71 73  2  0  0  0
 71 74  1  0  0  0
 71146  1  0  0  0
 72 75  2  0  0  0
 72 76  1  0  0  0
 72147  1  0  0  0
 73 75  1  0  0  0
 73 81  1  0  0  0
 74 76  2  0  0  0
 74 82  1  0  0  0
 75 83  1  0  0  0
 76 86  1  0  0  0
 77 78  1  0  0  0
 77 80  1  0  0  0
 77148  1  0  0  0
 77149  1  0  0  0
 78 85  1  0  0  0
 78150  1  0  0  0
 78151  1  0  0  0
 79 80  1  0  0  0
 79 85  1  0  0  0
 79152  1  0  0  0
 79153  1  0  0  0
 80 84  1  0  0  0
 80154  1  0  0  0
 81155  1  0  0  0
 81156  1  0  0  0
 81157  1  0  0  0
 82158  1  0  0  0
 82159  1  0  0  0
 82 85  1  0  0  0
 83160  1  0  0  0
 83161  1  0  0  0
 84162  1  0  0  0
 85163  1  0  0  0
M  CHG  1  85   1
M  ISO  4   1 100  68 101  83 101  84 100
M  END
> <chiral flag>
0

> <version>
0

> <s_m_source_file>
/data/baiqing/PycharmProjects/Reinvent-master-3.2/result/LINK_invent/BTK/process_docking_weight1_custom_sum_contain_oxygen_bond_distance_aromatic_linkinvent_7_9_3/rearranged_h_0165.sdf

> <i_m_source_file_index>
21

> <r_mmod_Potential_Energy-OPLS-2005>
-64.3254470825195

> <r_mmod_Stretch_Energy-OPLS-2005>
49.1528244018555

> <r_mmod_Bend_Energy-OPLS-2005>
169.276168823242

> <r_mmod_Torsional_Energy-OPLS-2005>
299.790985107422

> <r_mmod_Improper_Torsional_Energy-OPLS-2005>
7.20061445236206

> <r_mmod_Van_der_Waal_Energy-OPLS-2005>
142.765289306641

> <r_mmod_Electrostatic_Energy-OPLS-2005>
-321.514526367188

> <r_mmod_Solvation_Energy-OPLS-2005>
-440.816436767578

> <b_mmod_Minimization_Converged-OPLS-2005>
0

> <r_mmod_RMS_Derivative-OPLS-2005>
6.43206453323364

$$$$
21
                    3D
 Structure written by MMmdl.
177188  0  0  1  0            999 V2000
  -30.7312  -14.3954   20.5384 C   0  0  0  0  0  0
  -30.4010  -12.2477   19.4065 C   0  0  0  0  0  0
  -29.4793  -12.4886   18.1953 C   0  0  0  0  0  0
  -28.0001  -12.3695   18.6085 C   0  0  0  0  0  0
  -27.6602  -13.2030   19.8735 C   0  0  2  0  0  0
  -28.7023  -12.9760   20.9916 C   0  0  0  0  0  0
  -25.2609  -13.8148   20.5701 C   0  0  0  0  0  0
  -24.1842  -13.0427   20.9182 C   0  0  0  0  0  0
  -24.6416  -11.6896   20.8744 C   0  0  0  0  0  0
  -23.9083  -10.4287   21.0397 C   0  0  0  0  0  0
  -24.3632   -9.4212   21.9195 C   0  0  0  0  0  0
  -23.6291   -8.2262   22.0780 C   0  0  0  0  0  0
  -22.4287   -8.0295   21.3535 C   0  0  0  0  0  0
  -21.9928   -9.0279   20.4625 C   0  0  0  0  0  0
  -22.7261  -10.2151   20.3035 C   0  0  0  0  0  0
  -21.6874   -6.0736   22.5291 C   0  0  0  0  0  0
  -21.4017   -6.5659   23.8219 C   0  0  0  0  0  0
  -21.3652   -5.6822   24.9190 C   0  0  0  0  0  0
  -21.6045   -4.3085   24.7252 C   0  0  0  0  0  0
  -21.8820   -3.8151   23.4383 C   0  0  0  0  0  0
  -21.9197   -4.6958   22.3429 C   0  0  0  0  0  0
  -22.7867  -13.5213   21.1837 C   0  0  0  0  0  0
  -22.1655   -4.2125   21.1011 F   0  0  0  0  0  0
  -21.5634   -3.4572   25.7762 F   0  0  0  0  0  0
  -30.0360  -13.2359   20.4275 N   0  0  0  0  0  0
  -26.3030  -12.9308   20.3390 N   0  0  0  0  0  0
  -25.9331  -11.6472   20.5776 N   0  0  0  0  0  0
  -22.0494  -12.8155   22.0350 N   0  0  0  0  0  0
  -25.4392  -15.1845   20.4163 N   0  0  0  0  0  0
  -31.8958  -14.5339   20.1471 O   0  0  0  0  0  0
  -21.6655   -6.8884   21.4245 O   0  0  0  0  0  0
  -22.3535  -14.5523   20.6707 O   0  0  0  0  0  0
  -24.6137  -31.8709   23.2120 C   0  0  0  0  0  0
  -25.9042  -32.4832   23.8411 C   0  0  1  0  0  0
  -27.2476  -27.4760   20.0852 C   0  0  0  0  0  0
  -25.5895  -33.8625   24.2341 N   0  0  0  0  0  0
  -23.3994  -30.4936   21.5530 C   0  0  2  0  0  0
  -24.8468  -28.9618   20.1203 C   0  0  0  0  0  0
  -22.7403  -29.4681   22.5020 C   0  0  0  0  0  0
  -18.0272  -28.1386   22.8505 C   0  0  0  0  0  0
  -24.1475  -36.7302   23.2629 C   0  0  0  0  0  0
  -25.9235  -30.8514   21.3571 C   0  0  0  0  0  0
  -26.0045  -29.4863   20.7092 C   0  0  0  0  0  0
  -27.2093  -28.7527   20.6939 C   0  0  0  0  0  0
  -26.0704  -26.9518   19.5154 C   0  0  0  0  0  0
  -24.8705  -27.6882   19.5248 C   0  0  0  0  0  0
  -23.6066  -29.8244   20.1678 C   0  0  0  0  0  0
  -25.4084  -36.3108   24.0350 C   0  0  1  0  0  0
  -20.5864  -28.3667   23.1337 C   0  0  2  0  0  0
  -20.6772  -26.9406   22.5423 C   0  0  0  0  0  0
  -19.5741  -26.6402   21.5222 C   0  0  0  0  0  0
  -18.1915  -26.7944   22.1628 C   0  0  0  0  0  0
  -19.1520  -28.8838   23.2926 C   0  0  0  0  0  0
  -18.9442  -30.1449   23.8927 C   0  0  0  0  0  0
  -17.6446  -30.6600   24.0578 C   0  0  0  0  0  0
  -25.9028  -34.9482   23.5144 C   0  0  0  0  0  0
  -16.5339  -29.9106   23.6325 C   0  0  0  0  0  0
  -16.7262  -28.6515   23.0356 C   0  0  0  0  0  0
  -26.4480  -31.6585   25.0719 C   0  0  0  0  0  0
  -25.3729  -31.3593   26.1430 C   0  0  0  0  0  0
  -27.0369  -30.3074   24.6033 C   0  0  0  0  0  0
  -27.6029  -32.4300   25.7542 C   0  0  0  0  0  0
  -27.5586  -37.1798   24.8443 C   0  0  0  0  0  0
  -21.4134  -29.3041   22.3752 N   0  0  0  0  0  0
  -26.4259  -37.3825   23.9460 N   0  0  0  0  0  0
  -24.6640  -31.0845   22.1005 N   0  0  0  0  0  0
  -23.4191  -28.8226   23.3048 O   0  0  0  0  0  0
  -28.3686  -26.6848   20.0074 O   0  0  0  0  0  0
  -26.5597  -34.8955   22.4711 O   0  0  0  0  0  0
  -23.5336  -32.1452   23.7521 O   0  0  0  0  0  0
  -30.0085  -21.0023   21.6166 C   0  0  0  0  0  0
  -28.2304  -21.4264   19.9226 C   0  0  0  0  0  0
  -30.5890  -22.1869   21.1671 C   0  0  0  0  0  0
  -30.0145  -22.9997   20.1221 C   0  0  0  0  0  0
  -28.8303  -22.6390   19.4726 C   0  0  0  0  0  0
  -28.8119  -20.6144   20.9498 C   0  0  0  0  0  0
  -28.8582  -17.5142   19.7847 C   0  0  0  0  0  0
  -29.0704  -17.2587   22.2637 C   0  0  0  0  0  0
  -32.5949  -23.5616   20.1639 C   0  0  0  0  0  0
  -29.9143  -16.4181   19.6068 C   0  0  0  0  0  0
  -30.1243  -16.1540   22.0520 C   0  0  0  0  0  0
  -29.1234  -18.2519   21.0947 C   0  0  0  0  0  0
  -31.7558  -23.0913   21.3242 C   0  0  2  0  0  0
  -31.1458  -23.9775   20.1814 C   0  0  1  0  0  0
  -28.2569  -23.4617   18.3353 C   0  0  0  0  0  0
  -31.9664  -23.5846   22.7419 C   0  0  0  0  0  0
  -32.0573  -26.9086   19.4573 C   0  0  0  0  0  0
  -29.6456  -27.2840   20.1598 C   0  0  0  0  0  0
  -30.6900  -26.2548   19.6936 C   0  0  2  0  0  0
  -29.9705  -15.4869   20.7513 N   0  0  0  0  0  0
  -28.2192  -19.3850   21.2669 N   0  0  0  0  0  0
  -30.8230  -25.2606   20.7036 O   0  0  0  0  0  0
  -31.4469  -12.3173   19.1045 H   0  0  0  0  0  0
  -30.2643  -11.2377   19.7945 H   0  0  0  0  0  0
  -29.6978  -11.7743   17.3998 H   0  0  0  0  0  0
  -29.6655  -13.4788   17.7777 H   0  0  0  0  0  0
  -27.7945  -11.3151   18.7913 H   0  0  0  0  0  0
  -27.3542  -12.6640   17.7802 H   0  0  0  0  0  0
  -27.7048  -14.2527   19.5804 H   0  0  0  0  0  0
  -28.6526  -11.9486   21.3572 H   0  0  0  0  0  0
  -28.4885  -13.6125   21.8517 H   0  0  0  0  0  0
  -25.2786   -9.5711   22.4778 H   0  0  0  0  0  0
  -23.9982   -7.4681   22.7544 H   0  0  0  0  0  0
  -21.0865   -8.8824   19.8919 H   0  0  0  0  0  0
  -22.3741  -10.9713   19.6150 H   0  0  0  0  0  0
  -21.2013   -7.6176   23.9703 H   0  0  0  0  0  0
  -21.1462   -6.0569   25.9090 H   0  0  0  0  0  0
  -22.0595   -2.7600   23.2922 H   0  0  0  0  0  0
  -22.4105  -11.9755   22.4628 H   0  0  0  0  0  0
  -21.1098  -13.1121   22.2555 H   0  0  0  0  0  0
  -24.6888  -15.8549   20.5432 H   0  0  0  0  0  0
  -26.3203  -15.6115   20.1603 H   0  0  0  0  0  0
  -26.7135  -32.5574   23.1193 H   0  0  0  0  0  0
  -25.0054  -33.9794   25.0489 H   0  0  0  0  0  0
  -22.6859  -31.3093   21.4162 H   0  0  0  0  0  0
  -23.3804  -35.9552   23.3162 H   0  0  0  0  0  0
  -24.3598  -36.9060   22.2076 H   0  0  0  0  0  0
  -23.7144  -37.6420   23.6742 H   0  0  0  0  0  0
  -26.0225  -31.6173   20.5867 H   0  0  0  0  0  0
  -26.8177  -30.9127   21.9658 H   0  0  0  0  0  0
  -28.0927  -29.1728   21.1516 H   0  0  0  0  0  0
  -26.0892  -25.9749   19.0501 H   0  0  0  0  0  0
  -23.9799  -27.2747   19.0726 H   0  0  0  0  0  0
  -23.7132  -30.5993   19.4073 H   0  0  0  0  0  0
  -22.7315  -29.2418   19.8765 H   0  0  0  0  0  0
  -25.1236  -36.1963   25.0835 H   0  0  0  0  0  0
  -20.9962  -28.3237   24.1459 H   0  0  0  0  0  0
  -20.5682  -26.2251   23.3593 H   0  0  0  0  0  0
  -21.6648  -26.7479   22.1204 H   0  0  0  0  0  0
  -19.6903  -25.6325   21.1220 H   0  0  0  0  0  0
  -19.6670  -27.3220   20.6751 H   0  0  0  0  0  0
  -17.4190  -26.6716   21.4019 H   0  0  0  0  0  0
  -18.0283  -26.0074   22.8999 H   0  0  0  0  0  0
  -19.7919  -30.7254   24.2312 H   0  0  0  0  0  0
  -17.5009  -31.6282   24.5177 H   0  0  0  0  0  0
  -15.5337  -30.3015   23.7637 H   0  0  0  0  0  0
  -15.8660  -28.0839   22.7060 H   0  0  0  0  0  0
  -24.5910  -30.6974   25.7695 H   0  0  0  0  0  0
  -24.8896  -32.2698   26.4975 H   0  0  0  0  0  0
  -25.8049  -30.8651   27.0133 H   0  0  0  0  0  0
  -26.2934  -29.6810   24.1091 H   0  0  0  0  0  0
  -27.4240  -29.7314   25.4445 H   0  0  0  0  0  0
  -27.8703  -30.4490   23.9144 H   0  0  0  0  0  0
  -27.2661  -33.3645   26.2047 H   0  0  0  0  0  0
  -28.3908  -32.6766   25.0411 H   0  0  0  0  0  0
  -28.0608  -31.8441   26.5519 H   0  0  0  0  0  0
  -28.2472  -38.0225   24.7695 H   0  0  0  0  0  0
  -28.1213  -36.2778   24.6006 H   0  0  0  0  0  0
  -27.2327  -37.1124   25.8833 H   0  0  0  0  0  0
  -20.9281  -29.8745   21.6971 H   0  0  0  0  0  0
  -26.0129  -38.2871   24.1543 H   0  0  0  0  0  0
  -30.4702  -20.4083   22.3946 H   0  0  0  0  0  0
  -27.3236  -21.0916   19.4395 H   0  0  0  0  0  0
  -27.8583  -17.0801   19.7679 H   0  0  0  0  0  0
  -28.9183  -18.2061   18.9428 H   0  0  0  0  0  0
  -29.2706  -17.7746   23.2054 H   0  0  0  0  0  0
  -28.0764  -16.8159   22.3483 H   0  0  0  0  0  0
  -32.8879  -22.8214   19.4230 H   0  0  0  0  0  0
  -33.3511  -24.3172   20.3611 H   0  0  0  0  0  0
  -30.8933  -16.8806   19.4680 H   0  0  0  0  0  0
  -29.7036  -15.8668   18.6879 H   0  0  0  0  0  0
  -30.0583  -15.4246   22.8614 H   0  0  0  0  0  0
  -31.1249  -16.5887   22.1093 H   0  0  0  0  0  0
  -30.1557  -18.5999   21.0376 H   0  0  0  0  0  0
  -27.2792  -23.0897   18.0255 H   0  0  0  0  0  0
  -28.9211  -23.4312   17.4703 H   0  0  0  0  0  0
  -28.1392  -24.5014   18.6360 H   0  0  0  0  0  0
  -32.2347  -22.7495   23.3885 H   0  0  0  0  0  0
  -31.0519  -24.0369   23.1268 H   0  0  0  0  0  0
  -32.7654  -24.3227   22.7802 H   0  0  0  0  0  0
  -31.9833  -27.7052   18.7164 H   0  0  0  0  0  0
  -32.7855  -26.1912   19.0822 H   0  0  0  0  0  0
  -32.4495  -27.3416   20.3790 H   0  0  0  0  0  0
  -29.7007  -28.1739   19.5300 H   0  0  0  0  0  0
  -29.8286  -27.5876   21.1910 H   0  0  0  0  0  0
  -30.3417  -25.8149   18.7572 H   0  0  0  0  0  0
  -27.3146  -19.2443   20.8274 H   0  0  0  0  0  0
  1 25  1  0  0  0
  1 30  2  0  0  0
  1 90  1  0  0  0
  2  3  1  0  0  0
  2 25  1  0  0  0
  2 93  1  0  0  0
  2 94  1  0  0  0
  3  4  1  0  0  0
  3 95  1  0  0  0
  3 96  1  0  0  0
  4  5  1  0  0  0
  4 97  1  0  0  0
  4 98  1  0  0  0
  5  6  1  0  0  0
  5 26  1  0  0  0
  5 99  1  0  0  0
  6 25  1  0  0  0
  6100  1  0  0  0
  6101  1  0  0  0
  7  8  2  0  0  0
  7 26  1  0  0  0
  7 29  1  0  0  0
  8  9  1  0  0  0
  8 22  1  0  0  0
  9 10  1  0  0  0
  9 27  2  0  0  0
 10 11  2  0  0  0
 10 15  1  0  0  0
 11 12  1  0  0  0
 11102  1  0  0  0
 12 13  2  0  0  0
 12103  1  0  0  0
 13 14  1  0  0  0
 13 31  1  0  0  0
 14 15  2  0  0  0
 14104  1  0  0  0
 15105  1  0  0  0
 16 17  2  0  0  0
 16 21  1  0  0  0
 16 31  1  0  0  0
 17 18  1  0  0  0
 17106  1  0  0  0
 18 19  2  0  0  0
 18107  1  0  0  0
 19 20  1  0  0  0
 19 24  1  0  0  0
 20 21  2  0  0  0
 20108  1  0  0  0
 21 23  1  0  0  0
 22 28  1  0  0  0
 22 32  2  0  0  0
 26 27  1  0  0  0
 28109  1  0  0  0
 28110  1  0  0  0
 29111  1  0  0  0
 29112  1  0  0  0
 33 34  1  0  0  0
 33 66  1  0  0  0
 33 70  2  0  0  0
 34 36  1  0  0  0
 34 59  1  0  0  0
 34113  1  0  0  0
 35 44  2  0  0  0
 35 45  1  0  0  0
 35 68  1  0  0  0
 36 56  1  0  0  0
 36114  1  0  0  0
 37 39  1  0  0  0
 37 47  1  0  0  0
 37 66  1  0  0  0
 37115  1  0  0  0
 38 43  2  0  0  0
 38 46  1  0  0  0
 38 47  1  0  0  0
 39 64  1  0  0  0
 39 67  2  0  0  0
 40 52  1  0  0  0
 40 53  2  0  0  0
 40 58  1  0  0  0
 41116  1  0  0  0
 41117  1  0  0  0
 41118  1  0  0  0
 41 48  1  0  0  0
 42 43  1  0  0  0
 42 66  1  0  0  0
 42119  1  0  0  0
 42120  1  0  0  0
 43 44  1  0  0  0
 44121  1  0  0  0
 45 46  2  0  0  0
 45122  1  0  0  0
 46123  1  0  0  0
 47124  1  0  0  0
 47125  1  0  0  0
 48 56  1  0  0  0
 48 65  1  0  0  0
 48126  1  0  0  0
 49 50  1  0  0  0
 49 53  1  0  0  0
 49 64  1  0  0  0
 49127  1  0  0  0
 50 51  1  0  0  0
 50128  1  0  0  0
 50129  1  0  0  0
 51 52  1  0  0  0
 51130  1  0  0  0
 51131  1  0  0  0
 52132  1  0  0  0
 52133  1  0  0  0
 53 54  1  0  0  0
 54 55  2  0  0  0
 54134  1  0  0  0
 55 57  1  0  0  0
 55135  1  0  0  0
 56 69  2  0  0  0
 57 58  2  0  0  0
 57136  1  0  0  0
 58137  1  0  0  0
 59 60  1  0  0  0
 59 61  1  0  0  0
 59 62  1  0  0  0
 60138  1  0  0  0
 60139  1  0  0  0
 60140  1  0  0  0
 61141  1  0  0  0
 61142  1  0  0  0
 61143  1  0  0  0
 62144  1  0  0  0
 62145  1  0  0  0
 62146  1  0  0  0
 63 65  1  0  0  0
 63147  1  0  0  0
 63148  1  0  0  0
 63149  1  0  0  0
 64150  1  0  0  0
 65151  1  0  0  0
 68 88  1  0  0  0
 71 73  2  0  0  0
 71 76  1  0  0  0
 71152  1  0  0  0
 72 75  1  0  0  0
 72 76  2  0  0  0
 72153  1  0  0  0
 73 74  1  0  0  0
 73 83  1  0  0  0
 74 75  2  0  0  0
 74 84  1  0  0  0
 75 85  1  0  0  0
 76 91  1  0  0  0
 77 80  1  0  0  0
 77 82  1  0  0  0
 77154  1  0  0  0
 77155  1  0  0  0
 78 81  1  0  0  0
 78 82  1  0  0  0
 78156  1  0  0  0
 78157  1  0  0  0
 79 83  1  0  0  0
 79 84  1  0  0  0
 79158  1  0  0  0
 79159  1  0  0  0
 80 90  1  0  0  0
 80160  1  0  0  0
 80161  1  0  0  0
 81 90  1  0  0  0
 81162  1  0  0  0
 81163  1  0  0  0
 82 91  1  0  0  0
 82164  1  0  0  0
 83 84  1  0  0  0
 83 86  1  0  0  0
 84 92  1  0  0  0
 85165  1  0  0  0
 85166  1  0  0  0
 85167  1  0  0  0
 86168  1  0  0  0
 86169  1  0  0  0
 86170  1  0  0  0
 87171  1  0  0  0
 87172  1  0  0  0
 87173  1  0  0  0
 87 89  1  0  0  0
 88 89  1  0  0  0
 88174  1  0  0  0
 88175  1  0  0  0
 89 92  1  0  0  0
 89176  1  0  0  0
 91177  1  0  0  0
M  ISO  4   1 100  68 101  88 101  90 100
M  END
> <chiral flag>
0

> <version>
0

> <s_m_source_file>
/data/baiqing/PycharmProjects/Reinvent-master-3.2/result/LINK_invent/BTK/process_docking_weight1_custom_sum_contain_oxygen_bond_distance_aromatic_linkinvent_7_9_3/rearranged_h_0165.sdf

> <i_m_source_file_index>
22

> <r_mmod_Potential_Energy-OPLS-2005>
560.222229003906

> <r_mmod_Stretch_Energy-OPLS-2005>
44.5457763671875

> <r_mmod_Bend_Energy-OPLS-2005>
505.102905273438

> <r_mmod_Torsional_Energy-OPLS-2005>
365.770324707031

> <r_mmod_Improper_Torsional_Energy-OPLS-2005>
18.5853157043457

> <r_mmod_Van_der_Waal_Energy-OPLS-2005>
142.853530883789

> <r_mmod_Electrostatic_Energy-OPLS-2005>
-322.849243164062

> <r_mmod_Solvation_Energy-OPLS-2005>
-206.002960205078

> <b_mmod_Minimization_Converged-OPLS-2005>
0

> <r_mmod_RMS_Derivative-OPLS-2005>
3.05631399154663

$$$$
22
                    3D
 Structure written by MMmdl.
168177  0  0  1  0            999 V2000
  -30.6984  -14.4818   20.5110 C   0  0  0  0  0  0
  -30.4153  -12.2955   19.4243 C   0  0  0  0  0  0
  -29.4899  -12.4786   18.2038 C   0  0  0  0  0  0
  -28.0111  -12.3504   18.6201 C   0  0  0  0  0  0
  -27.6545  -13.2078   19.8642 C   0  0  2  0  0  0
  -28.6999  -13.0295   20.9885 C   0  0  0  0  0  0
  -25.2566  -13.8164   20.5695 C   0  0  0  0  0  0
  -24.1819  -13.0438   20.9184 C   0  0  0  0  0  0
  -24.6376  -11.6906   20.8735 C   0  0  0  0  0  0
  -23.9048  -10.4291   21.0400 C   0  0  0  0  0  0
  -24.3608   -9.4209   21.9181 C   0  0  0  0  0  0
  -23.6285   -8.2243   22.0753 C   0  0  0  0  0  0
  -22.4271   -8.0275   21.3541 C   0  0  0  0  0  0
  -21.9901   -9.0247   20.4645 C   0  0  0  0  0  0
  -22.7224  -10.2129   20.3052 C   0  0  0  0  0  0
  -21.6850   -6.0729   22.5271 C   0  0  0  0  0  0
  -21.4011   -6.5636   23.8203 C   0  0  0  0  0  0
  -21.3664   -5.6791   24.9169 C   0  0  0  0  0  0
  -21.6048   -4.3054   24.7223 C   0  0  0  0  0  0
  -21.8819   -3.8141   23.4344 C   0  0  0  0  0  0
  -21.9193   -4.6955   22.3397 C   0  0  0  0  0  0
  -22.7842  -13.5236   21.1855 C   0  0  0  0  0  0
  -22.1659   -4.2137   21.0976 F   0  0  0  0  0  0
  -21.5638   -3.4538   25.7735 F   0  0  0  0  0  0
  -30.0255  -13.3049   20.4176 N   0  0  0  0  0  0
  -26.2990  -12.9334   20.3342 N   0  0  0  0  0  0
  -25.9302  -11.6496   20.5762 N   0  0  0  0  0  0
  -22.0485  -12.8220   22.0409 N   0  0  0  0  0  0
  -25.4314  -15.1878   20.4124 N   0  0  0  0  0  0
  -31.8804  -14.6069   20.1741 O   0  0  0  0  0  0
  -21.6639   -6.8868   21.4233 O   0  0  0  0  0  0
  -22.3524  -14.5543   20.6708 O   0  0  0  0  0  0
  -24.6139  -31.8684   23.2106 C   0  0  0  0  0  0
  -25.9037  -32.4826   23.8399 C   0  0  1  0  0  0
  -27.2291  -27.4411   20.1027 C   0  0  0  0  0  0
  -25.5897  -33.8625   24.2333 N   0  0  0  0  0  0
  -23.4021  -30.4923   21.5504 C   0  0  2  0  0  0
  -24.8507  -28.9612   20.1117 C   0  0  0  0  0  0
  -22.7409  -29.4662   22.4985 C   0  0  0  0  0  0
  -18.0270  -28.1377   22.8492 C   0  0  0  0  0  0
  -24.1483  -36.7317   23.2636 C   0  0  0  0  0  0
  -25.9304  -30.8371   21.3624 C   0  0  0  0  0  0
  -26.0105  -29.4728   20.7092 C   0  0  0  0  0  0
  -27.2076  -28.7201   20.7021 C   0  0  0  0  0  0
  -26.0596  -26.9460   19.4902 C   0  0  0  0  0  0
  -24.8697  -27.6970   19.4974 C   0  0  0  0  0  0
  -23.6108  -29.8254   20.1643 C   0  0  0  0  0  0
  -25.4104  -36.3116   24.0342 C   0  0  1  0  0  0
  -20.5862  -28.3662   23.1320 C   0  0  2  0  0  0
  -20.6760  -26.9399   22.5420 C   0  0  0  0  0  0
  -19.5742  -26.6385   21.5216 C   0  0  0  0  0  0
  -18.1918  -26.7925   22.1621 C   0  0  0  0  0  0
  -19.1521  -28.8835   23.2902 C   0  0  0  0  0  0
  -18.9450  -30.1441   23.8910 C   0  0  0  0  0  0
  -17.6453  -30.6582   24.0563 C   0  0  0  0  0  0
  -25.9033  -34.9480   23.5133 C   0  0  0  0  0  0
  -16.5344  -29.9083   23.6329 C   0  0  0  0  0  0
  -16.7260  -28.6503   23.0347 C   0  0  0  0  0  0
  -26.4473  -31.6593   25.0718 C   0  0  0  0  0  0
  -25.3748  -31.3695   26.1471 C   0  0  0  0  0  0
  -27.0297  -30.3035   24.6076 C   0  0  0  0  0  0
  -27.6057  -32.4304   25.7475 C   0  0  0  0  0  0
  -27.5587  -37.1804   24.8458 C   0  0  0  0  0  0
  -21.4139  -29.3028   22.3724 N   0  0  0  0  0  0
  -26.4287  -37.3805   23.9421 N   0  0  0  0  0  0
  -24.6671  -31.0795   22.1000 N   0  0  0  0  0  0
  -23.4185  -28.8207   23.3024 O   0  0  0  0  0  0
  -28.3535  -26.6505   20.1334 O   0  0  0  0  0  0
  -26.5595  -34.8930   22.4692 O   0  0  0  0  0  0
  -23.5335  -32.1429   23.7507 O   0  0  0  0  0  0
  -28.8299  -23.1237   21.2344 C   0  0  0  0  0  0
  -31.5359  -23.5945   20.7059 C   0  0  0  0  0  0
  -29.2601  -24.4510   20.9826 C   0  0  0  0  0  0
  -29.7364  -22.0352   21.2372 C   0  0  0  0  0  0
  -30.6355  -24.6823   20.7328 C   0  0  0  0  0  0
  -31.1033  -22.2698   20.9664 C   0  0  0  0  0  0
  -29.0619  -19.6794   20.3931 C   0  0  0  0  0  0
  -28.6598  -17.4085   19.4723 C   0  0  0  0  0  0
  -29.0024  -17.5898   21.8477 C   0  0  0  0  0  0
  -29.7965  -16.3790   19.3770 C   0  0  0  0  0  0
  -30.0749  -16.4647   21.7869 C   0  0  0  0  0  0
  -31.1822  -26.0839   20.5183 C   0  0  0  0  0  0
  -33.3493  -21.4090   20.8944 C   0  0  0  0  0  0
  -29.2628  -20.6176   21.6053 C   0  0  0  0  0  0
  -28.2385  -25.5906   21.0992 C   0  0  0  0  0  0
  -28.9385  -18.3336   20.5769 N   0  0  0  0  0  0
  -29.9155  -15.5845   20.6136 N   0  0  0  0  0  0
  -28.9873  -20.1833   19.2662 O   0  0  0  0  0  0
  -31.9495  -21.1809   20.9926 O   0  0  0  0  0  0
  -31.4608  -12.3837   19.1236 H   0  0  0  0  0  0
  -30.3074  -11.2948   19.8451 H   0  0  0  0  0  0
  -29.7251  -11.7367   17.4394 H   0  0  0  0  0  0
  -29.6618  -13.4527   17.7436 H   0  0  0  0  0  0
  -27.8214  -11.2972   18.8318 H   0  0  0  0  0  0
  -27.3594  -12.6118   17.7858 H   0  0  0  0  0  0
  -27.6838  -14.2478   19.5406 H   0  0  0  0  0  0
  -28.6717  -12.0144   21.3859 H   0  0  0  0  0  0
  -28.4810  -13.6933   21.8267 H   0  0  0  0  0  0
  -25.2753   -9.5687   22.4755 H   0  0  0  0  0  0
  -23.9992   -7.4634   22.7476 H   0  0  0  0  0  0
  -21.0834   -8.8766   19.8948 H   0  0  0  0  0  0
  -22.3684  -10.9668   19.6158 H   0  0  0  0  0  0
  -21.1995   -7.6144   23.9701 H   0  0  0  0  0  0
  -21.1491   -6.0525   25.9072 H   0  0  0  0  0  0
  -22.0597   -2.7603   23.2845 H   0  0  0  0  0  0
  -22.4101  -11.9871   22.4774 H   0  0  0  0  0  0
  -21.1109  -13.1241   22.2635 H   0  0  0  0  0  0
  -24.6725  -15.8512   20.5247 H   0  0  0  0  0  0
  -26.2996  -15.6180   20.1238 H   0  0  0  0  0  0
  -26.7108  -32.5545   23.1167 H   0  0  0  0  0  0
  -25.0056  -33.9785   25.0486 H   0  0  0  0  0  0
  -22.6907  -31.3091   21.4121 H   0  0  0  0  0  0
  -23.3754  -35.9640   23.3288 H   0  0  0  0  0  0
  -24.3589  -36.8939   22.2054 H   0  0  0  0  0  0
  -23.7218  -37.6515   23.6652 H   0  0  0  0  0  0
  -26.0397  -31.6031   20.5935 H   0  0  0  0  0  0
  -26.8193  -30.8914   21.9790 H   0  0  0  0  0  0
  -28.1018  -29.1046   21.1728 H   0  0  0  0  0  0
  -26.0678  -25.9713   19.0226 H   0  0  0  0  0  0
  -23.9788  -27.2974   19.0327 H   0  0  0  0  0  0
  -23.7171  -30.6011   19.4052 H   0  0  0  0  0  0
  -22.7357  -29.2435   19.8687 H   0  0  0  0  0  0
  -25.1277  -36.1977   25.0835 H   0  0  0  0  0  0
  -20.9959  -28.3223   24.1439 H   0  0  0  0  0  0
  -20.5667  -26.2270   23.3607 H   0  0  0  0  0  0
  -21.6627  -26.7440   22.1205 H   0  0  0  0  0  0
  -19.6900  -25.6300   21.1237 H   0  0  0  0  0  0
  -19.6690  -27.3205   20.6757 H   0  0  0  0  0  0
  -17.4195  -26.6681   21.4016 H   0  0  0  0  0  0
  -18.0311  -26.0060   22.9008 H   0  0  0  0  0  0
  -19.7927  -30.7248   24.2289 H   0  0  0  0  0  0
  -17.5012  -31.6267   24.5153 H   0  0  0  0  0  0
  -15.5347  -30.2988   23.7654 H   0  0  0  0  0  0
  -15.8659  -28.0830   22.7050 H   0  0  0  0  0  0
  -24.5910  -30.7053   25.7806 H   0  0  0  0  0  0
  -24.8950  -32.2849   26.4946 H   0  0  0  0  0  0
  -25.8106  -30.8842   27.0214 H   0  0  0  0  0  0
  -26.2826  -29.6801   24.1145 H   0  0  0  0  0  0
  -27.4086  -29.7264   25.4523 H   0  0  0  0  0  0
  -27.8660  -30.4355   23.9206 H   0  0  0  0  0  0
  -27.2684  -33.3598   26.2079 H   0  0  0  0  0  0
  -28.3858  -32.6870   25.0295 H   0  0  0  0  0  0
  -28.0736  -31.8406   26.5369 H   0  0  0  0  0  0
  -28.2585  -38.0122   24.7543 H   0  0  0  0  0  0
  -28.1103  -36.2658   24.6233 H   0  0  0  0  0  0
  -27.2317  -37.1381   25.8862 H   0  0  0  0  0  0
  -20.9299  -29.8758   21.6953 H   0  0  0  0  0  0
  -26.0179  -38.2881   24.1445 H   0  0  0  0  0  0
  -27.7885  -22.9411   21.4605 H   0  0  0  0  0  0
  -32.5755  -23.8048   20.5022 H   0  0  0  0  0  0
  -27.7041  -16.9124   19.6432 H   0  0  0  0  0  0
  -28.5570  -17.9137   18.5113 H   0  0  0  0  0  0
  -29.1998  -18.2273   22.7078 H   0  0  0  0  0  0
  -28.0218  -17.1496   22.0368 H   0  0  0  0  0  0
  -30.7419  -16.8833   19.1648 H   0  0  0  0  0  0
  -29.6007  -15.7225   18.5270 H   0  0  0  0  0  0
  -30.0212  -15.8662   22.6983 H   0  0  0  0  0  0
  -31.0723  -16.9084   21.7683 H   0  0  0  0  0  0
  -32.2681  -26.1094   20.6148 H   0  0  0  0  0  0
  -30.7765  -26.7792   21.2538 H   0  0  0  0  0  0
  -30.9264  -26.4453   19.5221 H   0  0  0  0  0  0
  -33.8763  -20.4630   21.0176 H   0  0  0  0  0  0
  -33.7016  -22.0831   21.6768 H   0  0  0  0  0  0
  -33.6221  -21.8126   19.9186 H   0  0  0  0  0  0
  -28.3284  -20.6720   22.1636 H   0  0  0  0  0  0
  -30.0037  -20.1915   22.2804 H   0  0  0  0  0  0
  -28.3415  -26.0248   22.0950 H   0  0  0  0  0  0
  -27.2404  -25.1499   21.0676 H   0  0  0  0  0  0
  1 25  1  0  0  0
  1 30  2  0  0  0
  1 87  1  0  0  0
  2  3  1  0  0  0
  2 25  1  0  0  0
  2 90  1  0  0  0
  2 91  1  0  0  0
  3  4  1  0  0  0
  3 92  1  0  0  0
  3 93  1  0  0  0
  4  5  1  0  0  0
  4 94  1  0  0  0
  4 95  1  0  0  0
  5  6  1  0  0  0
  5 26  1  0  0  0
  5 96  1  0  0  0
  6 25  1  0  0  0
  6 97  1  0  0  0
  6 98  1  0  0  0
  7  8  2  0  0  0
  7 26  1  0  0  0
  7 29  1  0  0  0
  8  9  1  0  0  0
  8 22  1  0  0  0
  9 10  1  0  0  0
  9 27  2  0  0  0
 10 11  2  0  0  0
 10 15  1  0  0  0
 11 12  1  0  0  0
 11 99  1  0  0  0
 12 13  2  0  0  0
 12100  1  0  0  0
 13 14  1  0  0  0
 13 31  1  0  0  0
 14 15  2  0  0  0
 14101  1  0  0  0
 15102  1  0  0  0
 16 17  2  0  0  0
 16 21  1  0  0  0
 16 31  1  0  0  0
 17 18  1  0  0  0
 17103  1  0  0  0
 18 19  2  0  0  0
 18104  1  0  0  0
 19 20  1  0  0  0
 19 24  1  0  0  0
 20 21  2  0  0  0
 20105  1  0  0  0
 21 23  1  0  0  0
 22 28  1  0  0  0
 22 32  2  0  0  0
 26 27  1  0  0  0
 28106  1  0  0  0
 28107  1  0  0  0
 29108  1  0  0  0
 29109  1  0  0  0
 33 34  1  0  0  0
 33 66  1  0  0  0
 33 70  2  0  0  0
 34 36  1  0  0  0
 34 59  1  0  0  0
 34110  1  0  0  0
 35 44  2  0  0  0
 35 45  1  0  0  0
 35 68  1  0  0  0
 36 56  1  0  0  0
 36111  1  0  0  0
 37 39  1  0  0  0
 37 47  1  0  0  0
 37 66  1  0  0  0
 37112  1  0  0  0
 38 43  2  0  0  0
 38 46  1  0  0  0
 38 47  1  0  0  0
 39 64  1  0  0  0
 39 67  2  0  0  0
 40 52  1  0  0  0
 40 53  2  0  0  0
 40 58  1  0  0  0
 41113  1  0  0  0
 41114  1  0  0  0
 41115  1  0  0  0
 41 48  1  0  0  0
 42 43  1  0  0  0
 42 66  1  0  0  0
 42116  1  0  0  0
 42117  1  0  0  0
 43 44  1  0  0  0
 44118  1  0  0  0
 45 46  2  0  0  0
 45119  1  0  0  0
 46120  1  0  0  0
 47121  1  0  0  0
 47122  1  0  0  0
 48 56  1  0  0  0
 48 65  1  0  0  0
 48123  1  0  0  0
 49 50  1  0  0  0
 49 53  1  0  0  0
 49 64  1  0  0  0
 49124  1  0  0  0
 50 51  1  0  0  0
 50125  1  0  0  0
 50126  1  0  0  0
 51 52  1  0  0  0
 51127  1  0  0  0
 51128  1  0  0  0
 52129  1  0  0  0
 52130  1  0  0  0
 53 54  1  0  0  0
 54 55  2  0  0  0
 54131  1  0  0  0
 55 57  1  0  0  0
 55132  1  0  0  0
 56 69  2  0  0  0
 57 58  2  0  0  0
 57133  1  0  0  0
 58134  1  0  0  0
 59 60  1  0  0  0
 59 61  1  0  0  0
 59 62  1  0  0  0
 60135  1  0  0  0
 60136  1  0  0  0
 60137  1  0  0  0
 61138  1  0  0  0
 61139  1  0  0  0
 61140  1  0  0  0
 62141  1  0  0  0
 62142  1  0  0  0
 62143  1  0  0  0
 63 65  1  0  0  0
 63144  1  0  0  0
 63145  1  0  0  0
 63146  1  0  0  0
 64147  1  0  0  0
 65148  1  0  0  0
 68 85  1  0  0  0
 71 73  2  0  0  0
 71 74  1  0  0  0
 71149  1  0  0  0
 72 75  2  0  0  0
 72 76  1  0  0  0
 72150  1  0  0  0
 73 75  1  0  0  0
 73 85  1  0  0  0
 74 76  2  0  0  0
 74 84  1  0  0  0
 75 82  1  0  0  0
 76 89  1  0  0  0
 77 84  1  0  0  0
 77 86  1  0  0  0
 77 88  2  0  0  0
 78 80  1  0  0  0
 78 86  1  0  0  0
 78151  1  0  0  0
 78152  1  0  0  0
 79 81  1  0  0  0
 79 86  1  0  0  0
 79153  1  0  0  0
 79154  1  0  0  0
 80 87  1  0  0  0
 80155  1  0  0  0
 80156  1  0  0  0
 81 87  1  0  0  0
 81157  1  0  0  0
 81158  1  0  0  0
 82159  1  0  0  0
 82160  1  0  0  0
 82161  1  0  0  0
 83 89  1  0  0  0
 83162  1  0  0  0
 83163  1  0  0  0
 83164  1  0  0  0
 84165  1  0  0  0
 84166  1  0  0  0
 85167  1  0  0  0
 85168  1  0  0  0
M  ISO  4   1 100  68 101  85 101  87 100
M  END
> <chiral flag>
0

> <version>
0

> <s_m_source_file>
/data/baiqing/PycharmProjects/Reinvent-master-3.2/result/LINK_invent/BTK/process_docking_weight1_custom_sum_contain_oxygen_bond_distance_aromatic_linkinvent_7_9_3/rearranged_h_0165.sdf

> <i_m_source_file_index>
23

> <r_mmod_Potential_Energy-OPLS-2005>
256.258453369141

> <r_mmod_Stretch_Energy-OPLS-2005>
43.066234588623

> <r_mmod_Bend_Energy-OPLS-2005>
110.099838256836

> <r_mmod_Torsional_Energy-OPLS-2005>
414.560638427734

> <r_mmod_Improper_Torsional_Energy-OPLS-2005>
14.9907493591309

> <r_mmod_Van_der_Waal_Energy-OPLS-2005>
164.948257446289

> <r_mmod_Electrostatic_Energy-OPLS-2005>
-285.606536865234

> <r_mmod_Solvation_Energy-OPLS-2005>
-224.623229980469

> <b_mmod_Minimization_Converged-OPLS-2005>
0

> <r_mmod_RMS_Derivative-OPLS-2005>
0.952346980571747

$$$$
23
                    3D
 Structure written by MMmdl.
179189  0  0  1  0            999 V2000
  -30.7770  -14.4302   20.5962 C   0  0  0  0  0  0
  -30.4036  -12.2901   19.4326 C   0  0  0  0  0  0
  -29.4909  -12.5014   18.2096 C   0  0  0  0  0  0
  -28.0121  -12.3680   18.6183 C   0  0  0  0  0  0
  -27.6586  -13.2166   19.8696 C   0  0  2  0  0  0
  -28.6976  -13.0235   20.9953 C   0  0  0  0  0  0
  -25.2573  -13.8192   20.5688 C   0  0  0  0  0  0
  -24.1826  -13.0450   20.9166 C   0  0  0  0  0  0
  -24.6395  -11.6924   20.8724 C   0  0  0  0  0  0
  -23.9064  -10.4300   21.0397 C   0  0  0  0  0  0
  -24.3616   -9.4215   21.9180 C   0  0  0  0  0  0
  -23.6290   -8.2251   22.0754 C   0  0  0  0  0  0
  -22.4275   -8.0283   21.3545 C   0  0  0  0  0  0
  -21.9908   -9.0252   20.4646 C   0  0  0  0  0  0
  -22.7234  -10.2133   20.3048 C   0  0  0  0  0  0
  -21.6850   -6.0736   22.5280 C   0  0  0  0  0  0
  -21.4013   -6.5640   23.8215 C   0  0  0  0  0  0
  -21.3659   -5.6794   24.9175 C   0  0  0  0  0  0
  -21.6043   -4.3056   24.7224 C   0  0  0  0  0  0
  -21.8818   -3.8150   23.4348 C   0  0  0  0  0  0
  -21.9190   -4.6968   22.3404 C   0  0  0  0  0  0
  -22.7845  -13.5239   21.1833 C   0  0  0  0  0  0
  -22.1656   -4.2151   21.0982 F   0  0  0  0  0  0
  -21.5630   -3.4542   25.7739 F   0  0  0  0  0  0
  -30.0340  -13.2972   20.4436 N   0  0  0  0  0  0
  -26.3015  -12.9380   20.3355 N   0  0  0  0  0  0
  -25.9324  -11.6531   20.5751 N   0  0  0  0  0  0
  -22.0489  -12.8221   22.0392 N   0  0  0  0  0  0
  -25.4306  -15.1909   20.4123 N   0  0  0  0  0  0
  -31.9005  -14.5377   20.0914 O   0  0  0  0  0  0
  -21.6639   -6.8878   21.4242 O   0  0  0  0  0  0
  -22.3523  -14.5549   20.6698 O   0  0  0  0  0  0
  -24.6158  -31.8692   23.2139 C   0  0  0  0  0  0
  -25.9053  -32.4835   23.8422 C   0  0  1  0  0  0
  -27.2227  -27.4374   20.0925 C   0  0  0  0  0  0
  -25.5907  -33.8634   24.2352 N   0  0  0  0  0  0
  -23.4017  -30.4975   21.5556 C   0  0  2  0  0  0
  -24.8450  -28.9727   20.1136 C   0  0  0  0  0  0
  -22.7408  -29.4682   22.5005 C   0  0  0  0  0  0
  -18.0275  -28.1385   22.8498 C   0  0  0  0  0  0
  -24.1482  -36.7321   23.2638 C   0  0  0  0  0  0
  -25.9323  -30.8388   21.3648 C   0  0  0  0  0  0
  -26.0087  -29.4758   20.7080 C   0  0  0  0  0  0
  -27.2035  -28.7173   20.6931 C   0  0  0  0  0  0
  -26.0400  -26.9613   19.4796 C   0  0  0  0  0  0
  -24.8559  -27.7145   19.4945 C   0  0  0  0  0  0
  -23.6076  -29.8373   20.1680 C   0  0  0  0  0  0
  -25.4099  -36.3129   24.0348 C   0  0  1  0  0  0
  -20.5863  -28.3671   23.1321 C   0  0  2  0  0  0
  -20.6772  -26.9413   22.5413 C   0  0  0  0  0  0
  -19.5744  -26.6397   21.5216 C   0  0  0  0  0  0
  -18.1920  -26.7934   22.1628 C   0  0  0  0  0  0
  -19.1524  -28.8845   23.2906 C   0  0  0  0  0  0
  -18.9449  -30.1451   23.8912 C   0  0  0  0  0  0
  -17.6449  -30.6588   24.0568 C   0  0  0  0  0  0
  -25.9027  -34.9486   23.5145 C   0  0  0  0  0  0
  -16.5341  -29.9090   23.6330 C   0  0  0  0  0  0
  -16.7262  -28.6511   23.0347 C   0  0  0  0  0  0
  -26.4477  -31.6596   25.0733 C   0  0  0  0  0  0
  -25.3742  -31.3667   26.1473 C   0  0  0  0  0  0
  -27.0311  -30.3045   24.6090 C   0  0  0  0  0  0
  -27.6073  -32.4294   25.7480 C   0  0  0  0  0  0
  -27.5584  -37.1814   24.8462 C   0  0  0  0  0  0
  -21.4140  -29.3042   22.3732 N   0  0  0  0  0  0
  -26.4288  -37.3807   23.9420 N   0  0  0  0  0  0
  -24.6686  -31.0807   22.1036 N   0  0  0  0  0  0
  -23.4179  -28.8212   23.3036 O   0  0  0  0  0  0
  -28.3631  -26.6587   20.1212 O   0  0  0  0  0  0
  -26.5579  -34.8928   22.4702 O   0  0  0  0  0  0
  -23.5352  -32.1434   23.7545 O   0  0  0  0  0  0
  -29.9157  -21.1735   23.4127 C   0  0  0  0  0  0
  -29.3665  -23.0988   21.4102 C   0  0  0  0  0  0
  -30.4622  -22.4637   23.5187 C   0  0  0  0  0  0
  -29.0922  -20.8094   22.3292 C   0  0  0  0  0  0
  -30.1813  -23.4342   22.5271 C   0  0  0  0  0  0
  -28.8736  -21.7588   21.2867 C   0  0  0  0  0  0
  -29.5185  -17.9421   20.6298 C   0  0  0  0  0  0
  -29.0644  -16.9018   22.8464 C   0  0  0  0  0  0
  -27.6838  -24.3340   19.7519 C   0  0  0  0  0  0
  -30.4917  -16.7943   20.3379 C   0  0  0  0  0  0
  -30.0791  -15.7863   22.5003 C   0  0  0  0  0  0
  -29.0470  -24.1886   20.3892 C   0  0  1  0  0  0
  -29.3944  -18.2396   22.1336 C   0  0  0  0  0  0
  -28.1438  -25.3760   20.7363 C   0  0  1  0  0  0
  -31.3186  -22.7884   24.7329 C   0  0  0  0  0  0
  -30.7446  -24.8471   22.6794 C   0  0  0  0  0  0
  -28.1086  -21.3370   20.0346 C   0  0  0  0  0  0
  -26.5653  -20.4331   23.9230 C   0  0  0  0  0  0
  -27.5665  -19.2878   23.6917 C   0  0  0  0  0  0
  -28.4001  -19.4255   22.3887 C   0  0  1  0  0  0
  -30.1501  -15.5460   21.0499 N   0  0  0  0  0  0
  -31.4524  -12.3426   19.1341 H   0  0  0  0  0  0
  -30.2685  -11.2867   19.8403 H   0  0  0  0  0  0
  -29.7298  -11.7766   17.4298 H   0  0  0  0  0  0
  -29.6698  -13.4879   17.7784 H   0  0  0  0  0  0
  -27.8200  -11.3133   18.8196 H   0  0  0  0  0  0
  -27.3648  -12.6403   17.7836 H   0  0  0  0  0  0
  -27.6971  -14.2625   19.5637 H   0  0  0  0  0  0
  -28.6618  -12.0026   21.3779 H   0  0  0  0  0  0
  -28.4485  -13.6636   21.8391 H   0  0  0  0  0  0
  -25.2760   -9.5694   22.4752 H   0  0  0  0  0  0
  -24.0000   -7.4646   22.7478 H   0  0  0  0  0  0
  -21.0838   -8.8767   19.8950 H   0  0  0  0  0  0
  -22.3692  -10.9668   19.6152 H   0  0  0  0  0  0
  -21.2007   -7.6148   23.9719 H   0  0  0  0  0  0
  -21.1481   -6.0524   25.9078 H   0  0  0  0  0  0
  -22.0597   -2.7612   23.2851 H   0  0  0  0  0  0
  -22.4094  -11.9872   22.4771 H   0  0  0  0  0  0
  -21.1105  -13.1245   22.2598 H   0  0  0  0  0  0
  -24.6724  -15.8533   20.5334 H   0  0  0  0  0  0
  -26.3000  -15.6289   20.1346 H   0  0  0  0  0  0
  -26.7131  -32.5537   23.1189 H   0  0  0  0  0  0
  -25.0077  -33.9804   25.0514 H   0  0  0  0  0  0
  -22.6902  -31.3151   21.4218 H   0  0  0  0  0  0
  -23.3748  -35.9651   23.3300 H   0  0  0  0  0  0
  -24.3577  -36.8925   22.2052 H   0  0  0  0  0  0
  -23.7229  -37.6529   23.6635 H   0  0  0  0  0  0
  -26.0392  -31.6056   20.5963 H   0  0  0  0  0  0
  -26.8241  -30.8928   21.9778 H   0  0  0  0  0  0
  -28.0999  -29.1005   21.1596 H   0  0  0  0  0  0
  -26.0046  -26.0085   18.9777 H   0  0  0  0  0  0
  -23.9629  -27.3243   19.0269 H   0  0  0  0  0  0
  -23.7125  -30.6150   19.4106 H   0  0  0  0  0  0
  -22.7317  -29.2578   19.8712 H   0  0  0  0  0  0
  -25.1273  -36.1999   25.0839 H   0  0  0  0  0  0
  -20.9950  -28.3242   24.1444 H   0  0  0  0  0  0
  -20.5701  -26.2281   23.3599 H   0  0  0  0  0  0
  -21.6644  -26.7483   22.1187 H   0  0  0  0  0  0
  -19.6910  -25.6314   21.1229 H   0  0  0  0  0  0
  -19.6685  -27.3229   20.6761 H   0  0  0  0  0  0
  -17.4198  -26.6697   21.4015 H   0  0  0  0  0  0
  -18.0313  -26.0062   22.9009 H   0  0  0  0  0  0
  -19.7918  -30.7269   24.2291 H   0  0  0  0  0  0
  -17.4996  -31.6267   24.5176 H   0  0  0  0  0  0
  -15.5342  -30.2993   23.7649 H   0  0  0  0  0  0
  -15.8658  -28.0836   22.7054 H   0  0  0  0  0  0
  -24.5955  -30.6971   25.7798 H   0  0  0  0  0  0
  -24.8883  -32.2800   26.4914 H   0  0  0  0  0  0
  -25.8105  -30.8844   27.0231 H   0  0  0  0  0  0
  -26.2856  -29.6800   24.1150 H   0  0  0  0  0  0
  -27.4106  -29.7275   25.4538 H   0  0  0  0  0  0
  -27.8674  -30.4383   23.9221 H   0  0  0  0  0  0
  -27.2739  -33.3609   26.2063 H   0  0  0  0  0  0
  -28.3875  -32.6822   25.0285 H   0  0  0  0  0  0
  -28.0738  -31.8388   26.5374 H   0  0  0  0  0  0
  -28.2600  -38.0115   24.7531 H   0  0  0  0  0  0
  -28.1085  -36.2652   24.6260 H   0  0  0  0  0  0
  -27.2298  -37.1426   25.8861 H   0  0  0  0  0  0
  -20.9303  -29.8753   21.6940 H   0  0  0  0  0  0
  -26.0182  -38.2888   24.1420 H   0  0  0  0  0  0
  -30.1070  -20.4549   24.1975 H   0  0  0  0  0  0
  -28.5400  -17.6999   20.2128 H   0  0  0  0  0  0
  -29.8747  -18.8284   20.1060 H   0  0  0  0  0  0
  -29.0650  -17.0424   23.9280 H   0  0  0  0  0  0
  -28.0610  -16.5707   22.5760 H   0  0  0  0  0  0
  -26.8451  -23.7335   20.0942 H   0  0  0  0  0  0
  -27.6814  -24.5812   18.6923 H   0  0  0  0  0  0
  -31.5052  -17.1016   20.6049 H   0  0  0  0  0  0
  -30.4976  -16.6195   19.2593 H   0  0  0  0  0  0
  -29.8232  -14.8747   23.0417 H   0  0  0  0  0  0
  -31.0707  -16.0687   22.8601 H   0  0  0  0  0  0
  -29.9084  -24.3792   19.7515 H   0  0  0  0  0  0
  -30.3763  -18.5395   22.5034 H   0  0  0  0  0  0
  -27.6761  -25.4170   21.7195 H   0  0  0  0  0  0
  -31.3580  -21.9546   25.4349 H   0  0  0  0  0  0
  -30.9179  -23.6482   25.2708 H   0  0  0  0  0  0
  -32.3419  -23.0118   24.4307 H   0  0  0  0  0  0
  -30.9192  -25.3383   21.7230 H   0  0  0  0  0  0
  -31.7062  -24.8564   23.1908 H   0  0  0  0  0  0
  -30.0524  -25.4619   23.2557 H   0  0  0  0  0  0
  -28.4296  -21.8971   19.1575 H   0  0  0  0  0  0
  -27.0364  -21.4714   20.1733 H   0  0  0  0  0  0
  -28.2758  -20.2972   19.7705 H   0  0  0  0  0  0
  -25.9587  -20.2411   24.8079 H   0  0  0  0  0  0
  -25.8894  -20.5457   23.0751 H   0  0  0  0  0  0
  -27.0687  -21.3883   24.0755 H   0  0  0  0  0  0
  -26.9989  -18.3577   23.6647 H   0  0  0  0  0  0
  -28.2231  -19.2140   24.5588 H   0  0  0  0  0  0
  -27.6375  -19.3735   21.6143 H   0  0  0  0  0  0
  1 25  1  0  0  0
  1 30  2  0  0  0
  1 91  1  0  0  0
  2  3  1  0  0  0
  2 25  1  0  0  0
  2 92  1  0  0  0
  2 93  1  0  0  0
  3  4  1  0  0  0
  3 94  1  0  0  0
  3 95  1  0  0  0
  4  5  1  0  0  0
  4 96  1  0  0  0
  4 97  1  0  0  0
  5  6  1  0  0  0
  5 26  1  0  0  0
  5 98  1  0  0  0
  6 25  1  0  0  0
  6 99  1  0  0  0
  6100  1  0  0  0
  7  8  2  0  0  0
  7 26  1  0  0  0
  7 29  1  0  0  0
  8  9  1  0  0  0
  8 22  1  0  0  0
  9 10  1  0  0  0
  9 27  2  0  0  0
 10 11  2  0  0  0
 10 15  1  0  0  0
 11 12  1  0  0  0
 11101  1  0  0  0
 12 13  2  0  0  0
 12102  1  0  0  0
 13 14  1  0  0  0
 13 31  1  0  0  0
 14 15  2  0  0  0
 14103  1  0  0  0
 15104  1  0  0  0
 16 17  2  0  0  0
 16 21  1  0  0  0
 16 31  1  0  0  0
 17 18  1  0  0  0
 17105  1  0  0  0
 18 19  2  0  0  0
 18106  1  0  0  0
 19 20  1  0  0  0
 19 24  1  0  0  0
 20 21  2  0  0  0
 20107  1  0  0  0
 21 23  1  0  0  0
 22 28  1  0  0  0
 22 32  2  0  0  0
 26 27  1  0  0  0
 28108  1  0  0  0
 28109  1  0  0  0
 29110  1  0  0  0
 29111  1  0  0  0
 33 34  1  0  0  0
 33 66  1  0  0  0
 33 70  2  0  0  0
 34 36  1  0  0  0
 34 59  1  0  0  0
 34112  1  0  0  0
 35 44  2  0  0  0
 35 45  1  0  0  0
 35 68  1  0  0  0
 36 56  1  0  0  0
 36113  1  0  0  0
 37 39  1  0  0  0
 37 47  1  0  0  0
 37 66  1  0  0  0
 37114  1  0  0  0
 38 43  2  0  0  0
 38 46  1  0  0  0
 38 47  1  0  0  0
 39 64  1  0  0  0
 39 67  2  0  0  0
 40 52  1  0  0  0
 40 53  2  0  0  0
 40 58  1  0  0  0
 41115  1  0  0  0
 41116  1  0  0  0
 41117  1  0  0  0
 41 48  1  0  0  0
 42 43  1  0  0  0
 42 66  1  0  0  0
 42118  1  0  0  0
 42119  1  0  0  0
 43 44  1  0  0  0
 44120  1  0  0  0
 45 46  2  0  0  0
 45121  1  0  0  0
 46122  1  0  0  0
 47123  1  0  0  0
 47124  1  0  0  0
 48 56  1  0  0  0
 48 65  1  0  0  0
 48125  1  0  0  0
 49 50  1  0  0  0
 49 53  1  0  0  0
 49 64  1  0  0  0
 49126  1  0  0  0
 50 51  1  0  0  0
 50127  1  0  0  0
 50128  1  0  0  0
 51 52  1  0  0  0
 51129  1  0  0  0
 51130  1  0  0  0
 52131  1  0  0  0
 52132  1  0  0  0
 53 54  1  0  0  0
 54 55  2  0  0  0
 54133  1  0  0  0
 55 57  1  0  0  0
 55134  1  0  0  0
 56 69  2  0  0  0
 57 58  2  0  0  0
 57135  1  0  0  0
 58136  1  0  0  0
 59 60  1  0  0  0
 59 61  1  0  0  0
 59 62  1  0  0  0
 60137  1  0  0  0
 60138  1  0  0  0
 60139  1  0  0  0
 61140  1  0  0  0
 61141  1  0  0  0
 61142  1  0  0  0
 62143  1  0  0  0
 62144  1  0  0  0
 62145  1  0  0  0
 63 65  1  0  0  0
 63146  1  0  0  0
 63147  1  0  0  0
 63148  1  0  0  0
 64149  1  0  0  0
 65150  1  0  0  0
 68 84  1  0  0  0
 71 73  2  0  0  0
 71 74  1  0  0  0
 71151  1  0  0  0
 72 75  2  0  0  0
 72 76  1  0  0  0
 72 82  1  0  0  0
 73 75  1  0  0  0
 73 85  1  0  0  0
 74 76  2  0  0  0
 74 90  1  0  0  0
 75 86  1  0  0  0
 76 87  1  0  0  0
 77 80  1  0  0  0
 77152  1  0  0  0
 77153  1  0  0  0
 77 83  1  0  0  0
 78 81  1  0  0  0
 78 83  1  0  0  0
 78154  1  0  0  0
 78155  1  0  0  0
 79 82  1  0  0  0
 79 84  1  0  0  0
 79156  1  0  0  0
 79157  1  0  0  0
 80 91  1  0  0  0
 80158  1  0  0  0
 80159  1  0  0  0
 81 91  1  0  0  0
 81160  1  0  0  0
 81161  1  0  0  0
 82 84  1  0  0  0
 82162  1  0  0  0
 83 90  1  0  0  0
 83163  1  0  0  0
 84164  1  0  0  0
 85165  1  0  0  0
 85166  1  0  0  0
 85167  1  0  0  0
 86168  1  0  0  0
 86169  1  0  0  0
 86170  1  0  0  0
 87171  1  0  0  0
 87172  1  0  0  0
 87173  1  0  0  0
 88 89  1  0  0  0
 88174  1  0  0  0
 88175  1  0  0  0
 88176  1  0  0  0
 89177  1  0  0  0
 89178  1  0  0  0
 89 90  1  0  0  0
 90179  1  0  0  0
M  ISO  4   1 100  68 101  84 101  91 100
M  END
> <chiral flag>
0

> <version>
0

> <s_m_source_file>
/data/baiqing/PycharmProjects/Reinvent-master-3.2/result/LINK_invent/BTK/process_docking_weight1_custom_sum_contain_oxygen_bond_distance_aromatic_linkinvent_7_9_3/rearranged_h_0165.sdf

> <i_m_source_file_index>
24

> <r_mmod_Potential_Energy-OPLS-2005>
235.660903930664

> <r_mmod_Stretch_Energy-OPLS-2005>
47.8787269592285

> <r_mmod_Bend_Energy-OPLS-2005>
120.940551757812

> <r_mmod_Torsional_Energy-OPLS-2005>
361.592681884766

> <r_mmod_Improper_Torsional_Energy-OPLS-2005>
11.3679714202881

> <r_mmod_Van_der_Waal_Energy-OPLS-2005>
178.29606628418

> <r_mmod_Electrostatic_Energy-OPLS-2005>
-317.524353027344

> <r_mmod_Solvation_Energy-OPLS-2005>
-182.314697265625

> <b_mmod_Minimization_Converged-OPLS-2005>
0

> <r_mmod_RMS_Derivative-OPLS-2005>
1.37025237083435

$$$$
24
                    3D
 Structure written by MMmdl.
164173  0  0  1  0            999 V2000
  -30.4932  -15.4077   20.3704 C   0  0  0  0  0  0
  -30.4049  -12.9294   19.5215 C   0  0  0  0  0  0
  -29.5224  -12.6153   18.2909 C   0  0  0  0  0  0
  -28.0815  -12.3166   18.7263 C   0  0  0  0  0  0
  -27.5937  -13.3052   19.8151 C   0  0  2  0  0  0
  -28.6291  -13.5808   20.9311 C   0  0  0  0  0  0
  -25.2257  -13.8284   20.5736 C   0  0  0  0  0  0
  -24.1674  -13.0421   20.9299 C   0  0  0  0  0  0
  -24.6399  -11.6952   20.8797 C   0  0  0  0  0  0
  -23.9095  -10.4289   21.0401 C   0  0  0  0  0  0
  -24.3637   -9.4202   21.9174 C   0  0  0  0  0  0
  -23.6303   -8.2240   22.0750 C   0  0  0  0  0  0
  -22.4289   -8.0276   21.3543 C   0  0  0  0  0  0
  -21.9922   -9.0246   20.4651 C   0  0  0  0  0  0
  -22.7253  -10.2126   20.3060 C   0  0  0  0  0  0
  -21.6859   -6.0733   22.5269 C   0  0  0  0  0  0
  -21.4016   -6.5637   23.8200 C   0  0  0  0  0  0
  -21.3663   -5.6791   24.9166 C   0  0  0  0  0  0
  -21.6045   -4.3053   24.7217 C   0  0  0  0  0  0
  -21.8819   -3.8144   23.4340 C   0  0  0  0  0  0
  -21.9192   -4.6959   22.3398 C   0  0  0  0  0  0
  -22.7681  -13.5148   21.1902 C   0  0  0  0  0  0
  -22.1660   -4.2149   21.0974 F   0  0  0  0  0  0
  -21.5630   -3.4537   25.7731 F   0  0  0  0  0  0
  -29.8271  -14.1319   20.2636 N   0  0  0  0  0  0
  -26.2741  -12.9632   20.3264 N   0  0  0  0  0  0
  -25.9352  -11.6702   20.5777 N   0  0  0  0  0  0
  -22.0361  -12.8139   22.0487 N   0  0  0  0  0  0
  -25.3708  -15.1992   20.4010 N   0  0  0  0  0  0
  -31.7145  -15.2066   20.2548 O   0  0  0  0  0  0
  -21.6650   -6.8879   21.4235 O   0  0  0  0  0  0
  -22.3339  -14.5430   20.6730 O   0  0  0  0  0  0
  -24.6703  -31.8167   23.1629 C   0  0  0  0  0  0
  -25.9366  -32.4543   23.8092 C   0  0  1  0  0  0
  -27.2132  -26.8510   20.1986 C   0  0  0  0  0  0
  -25.6014  -33.8356   24.2010 N   0  0  0  0  0  0
  -23.4850  -30.4270   21.5140 C   0  0  2  0  0  0
  -24.9389  -28.7948   20.1099 C   0  0  0  0  0  0
  -22.7682  -29.4434   22.4764 C   0  0  0  0  0  0
  -18.0326  -28.1420   22.8464 C   0  0  0  0  0  0
  -24.1497  -36.7181   23.2645 C   0  0  0  0  0  0
  -26.0574  -30.5994   21.4011 C   0  0  0  0  0  0
  -26.1245  -29.1812   20.7465 C   0  0  0  0  0  0
  -27.2552  -28.2340   20.7585 C   0  0  0  0  0  0
  -25.9965  -26.6305   19.5160 C   0  0  0  0  0  0
  -24.9066  -27.5436   19.4717 C   0  0  0  0  0  0
  -23.7274  -29.7325   20.1422 C   0  0  0  0  0  0
  -25.4142  -36.2931   24.0280 C   0  0  1  0  0  0
  -20.5956  -28.3778   23.1187 C   0  0  2  0  0  0
  -20.6801  -26.9447   22.5415 C   0  0  0  0  0  0
  -19.5782  -26.6383   21.5218 C   0  0  0  0  0  0
  -18.1964  -26.7949   22.1626 C   0  0  0  0  0  0
  -19.1588  -28.8917   23.2814 C   0  0  0  0  0  0
  -18.9495  -30.1503   23.8847 C   0  0  0  0  0  0
  -17.6491  -30.6603   24.0559 C   0  0  0  0  0  0
  -25.9122  -34.9326   23.4970 C   0  0  0  0  0  0
  -16.5384  -29.9091   23.6348 C   0  0  0  0  0  0
  -16.7309  -28.6522   23.0350 C   0  0  0  0  0  0
  -26.4583  -31.6509   25.0652 C   0  0  0  0  0  0
  -25.3688  -31.3808   26.1299 C   0  0  0  0  0  0
  -27.0473  -30.2852   24.6446 C   0  0  0  0  0  0
  -27.6042  -32.4329   25.7484 C   0  0  0  0  0  0
  -27.5561  -37.1751   24.8462 C   0  0  0  0  0  0
  -21.4351  -29.3057   22.3508 N   0  0  0  0  0  0
  -26.4270  -37.3679   23.9411 N   0  0  0  0  0  0
  -24.7595  -30.9768   22.0793 N   0  0  0  0  0  0
  -23.4205  -28.8027   23.3046 O   0  0  0  0  0  0
  -28.2032  -25.7120   20.2914 O   0  0  0  0  0  0
  -26.5724  -34.8883   22.4563 O   0  0  0  0  0  0
  -23.5777  -32.1181   23.6713 O   0  0  0  0  0  0
  -30.7115  -22.6508   22.6877 C   0  0  0  0  0  0
  -29.3124  -21.0992   20.7555 C   0  0  0  0  0  0
  -30.4537  -20.5476   21.4779 C   0  0  0  0  0  0
  -29.7012  -23.2948   21.9702 C   0  0  0  0  0  0
  -28.9991  -22.6982   20.8700 C   0  0  0  0  0  0
  -31.1071  -21.3489   22.4371 C   0  0  0  0  0  0
  -28.6925  -19.7086   20.0065 C   0  0  0  0  0  0
  -31.0506  -19.0645   21.4329 C   0  0  0  0  0  0
  -31.0182  -18.0039   20.2430 C   0  0  0  0  0  0
  -28.7803  -17.9245   20.3633 C   0  0  2  0  0  0
  -29.3944  -24.6857   22.5246 C   0  0  0  0  0  0
  -28.3431  -17.6479   22.9139 C   0  0  0  0  0  0
  -28.0350  -24.0251   20.1553 C   0  0  0  0  0  0
  -27.8005  -17.5238   21.4845 C   0  0  0  0  0  0
  -30.0303  -16.8774   20.3714 N   0  0  0  0  0  0
  -32.1136  -20.8584   23.2220 O   0  0  0  0  0  0
  -31.4206  -13.1075   19.1677 H   0  0  0  0  0  0
  -30.4862  -12.0564   20.1730 H   0  0  0  0  0  0
  -29.9300  -11.7763   17.7243 H   0  0  0  0  0  0
  -29.5320  -13.4737   17.6184 H   0  0  0  0  0  0
  -28.0583  -11.2993   19.1151 H   0  0  0  0  0  0
  -27.4113  -12.3318   17.8648 H   0  0  0  0  0  0
  -27.4744  -14.2499   19.2828 H   0  0  0  0  0  0
  -28.8441  -12.6849   21.5152 H   0  0  0  0  0  0
  -28.2398  -14.3159   21.6353 H   0  0  0  0  0  0
  -25.2783   -9.5676   22.4748 H   0  0  0  0  0  0
  -24.0015   -7.4635   22.7469 H   0  0  0  0  0  0
  -21.0848   -8.8753   19.8963 H   0  0  0  0  0  0
  -22.3685  -10.9661   19.6176 H   0  0  0  0  0  0
  -21.2012   -7.6146   23.9699 H   0  0  0  0  0  0
  -21.1483   -6.0527   25.9069 H   0  0  0  0  0  0
  -22.0600   -2.7608   23.2832 H   0  0  0  0  0  0
  -22.4032  -11.9831   22.4883 H   0  0  0  0  0  0
  -21.0966  -13.1116   22.2710 H   0  0  0  0  0  0
  -24.5832  -15.8325   20.4872 H   0  0  0  0  0  0
  -26.2005  -15.6437   20.0311 H   0  0  0  0  0  0
  -26.7429  -32.5063   23.0795 H   0  0  0  0  0  0
  -25.0092  -33.9393   25.0118 H   0  0  0  0  0  0
  -22.8039  -31.2624   21.3395 H   0  0  0  0  0  0
  -23.3765  -35.9502   23.3264 H   0  0  0  0  0  0
  -24.3570  -36.8875   22.2067 H   0  0  0  0  0  0
  -23.7243  -37.6348   23.6737 H   0  0  0  0  0  0
  -26.2406  -31.3356   20.6169 H   0  0  0  0  0  0
  -26.9135  -30.6613   22.0603 H   0  0  0  0  0  0
  -28.1507  -28.5326   21.2867 H   0  0  0  0  0  0
  -25.8539  -25.6676   19.0459 H   0  0  0  0  0  0
  -24.0061  -27.2386   18.9585 H   0  0  0  0  0  0
  -23.8855  -30.4973   19.3807 H   0  0  0  0  0  0
  -22.8339  -29.1909   19.8263 H   0  0  0  0  0  0
  -25.1345  -36.1691   25.0762 H   0  0  0  0  0  0
  -21.0055  -28.3386   24.1311 H   0  0  0  0  0  0
  -20.5695  -26.2387   23.3657 H   0  0  0  0  0  0
  -21.6665  -26.7423   22.1217 H   0  0  0  0  0  0
  -19.6939  -25.6280   21.1268 H   0  0  0  0  0  0
  -19.6720  -27.3174   20.6729 H   0  0  0  0  0  0
  -17.4238  -26.6700   21.4021 H   0  0  0  0  0  0
  -18.0364  -26.0097   22.9031 H   0  0  0  0  0  0
  -19.7966  -30.7332   24.2204 H   0  0  0  0  0  0
  -17.5038  -31.6276   24.5166 H   0  0  0  0  0  0
  -15.5386  -30.2976   23.7695 H   0  0  0  0  0  0
  -15.8712  -28.0825   22.7085 H   0  0  0  0  0  0
  -24.5887  -30.7135   25.7616 H   0  0  0  0  0  0
  -24.8881  -32.3045   26.4542 H   0  0  0  0  0  0
  -25.7915  -30.9098   27.0188 H   0  0  0  0  0  0
  -26.3149  -29.6517   24.1438 H   0  0  0  0  0  0
  -27.3935  -29.7236   25.5135 H   0  0  0  0  0  0
  -27.9117  -30.3973   23.9894 H   0  0  0  0  0  0
  -27.2569  -33.3683   26.1886 H   0  0  0  0  0  0
  -28.3962  -32.6803   25.0397 H   0  0  0  0  0  0
  -28.0576  -31.8566   26.5566 H   0  0  0  0  0  0
  -28.2552  -38.0072   24.7509 H   0  0  0  0  0  0
  -28.1080  -36.2596   24.6285 H   0  0  0  0  0  0
  -27.2278  -37.1377   25.8863 H   0  0  0  0  0  0
  -20.9629  -29.8742   21.6608 H   0  0  0  0  0  0
  -26.0103  -38.2723   24.1432 H   0  0  0  0  0  0
  -31.2152  -23.1903   23.4762 H   0  0  0  0  0  0
  -29.0281  -19.8175   18.9751 H   0  0  0  0  0  0
  -27.6268  -19.9279   19.9413 H   0  0  0  0  0  0
  -30.7969  -18.5712   22.3693 H   0  0  0  0  0  0
  -32.1269  -19.2131   21.5229 H   0  0  0  0  0  0
  -32.0186  -17.5758   20.2153 H   0  0  0  0  0  0
  -30.9548  -18.4943   19.2702 H   0  0  0  0  0  0
  -28.2738  -17.5500   19.4737 H   0  0  0  0  0  0
  -29.8883  -25.4608   21.9380 H   0  0  0  0  0  0
  -29.7583  -24.8082   23.5440 H   0  0  0  0  0  0
  -28.3233  -24.8761   22.5968 H   0  0  0  0  0  0
  -29.2742  -17.0936   23.0418 H   0  0  0  0  0  0
  -27.6340  -17.2406   23.6363 H   0  0  0  0  0  0
  -28.5169  -18.6907   23.1807 H   0  0  0  0  0  0
  -27.0079  -23.8237   20.4583 H   0  0  0  0  0  0
  -28.0411  -23.8300   19.0834 H   0  0  0  0  0  0
  -26.8772  -18.0964   21.3899 H   0  0  0  0  0  0
  -27.5156  -16.4860   21.3295 H   0  0  0  0  0  0
  -32.4487  -21.4911   23.8494 H   0  0  0  0  0  0
  1 25  1  0  0  0
  1 30  2  0  0  0
  1 85  1  0  0  0
  2  3  1  0  0  0
  2 25  1  0  0  0
  2 87  1  0  0  0
  2 88  1  0  0  0
  3  4  1  0  0  0
  3 89  1  0  0  0
  3 90  1  0  0  0
  4  5  1  0  0  0
  4 91  1  0  0  0
  4 92  1  0  0  0
  5  6  1  0  0  0
  5 26  1  0  0  0
  5 93  1  0  0  0
  6 25  1  0  0  0
  6 94  1  0  0  0
  6 95  1  0  0  0
  7  8  2  0  0  0
  7 26  1  0  0  0
  7 29  1  0  0  0
  8  9  1  0  0  0
  8 22  1  0  0  0
  9 10  1  0  0  0
  9 27  2  0  0  0
 10 11  2  0  0  0
 10 15  1  0  0  0
 11 12  1  0  0  0
 11 96  1  0  0  0
 12 13  2  0  0  0
 12 97  1  0  0  0
 13 14  1  0  0  0
 13 31  1  0  0  0
 14 15  2  0  0  0
 14 98  1  0  0  0
 15 99  1  0  0  0
 16 17  2  0  0  0
 16 21  1  0  0  0
 16 31  1  0  0  0
 17 18  1  0  0  0
 17100  1  0  0  0
 18 19  2  0  0  0
 18101  1  0  0  0
 19 20  1  0  0  0
 19 24  1  0  0  0
 20 21  2  0  0  0
 20102  1  0  0  0
 21 23  1  0  0  0
 22 28  1  0  0  0
 22 32  2  0  0  0
 26 27  1  0  0  0
 28103  1  0  0  0
 28104  1  0  0  0
 29105  1  0  0  0
 29106  1  0  0  0
 33 34  1  0  0  0
 33 66  1  0  0  0
 33 70  2  0  0  0
 34 36  1  0  0  0
 34 59  1  0  0  0
 34107  1  0  0  0
 35 44  2  0  0  0
 35 45  1  0  0  0
 35 68  1  0  0  0
 36 56  1  0  0  0
 36108  1  0  0  0
 37 39  1  0  0  0
 37 47  1  0  0  0
 37 66  1  0  0  0
 37109  1  0  0  0
 38 43  2  0  0  0
 38 46  1  0  0  0
 38 47  1  0  0  0
 39 64  1  0  0  0
 39 67  2  0  0  0
 40 52  1  0  0  0
 40 53  2  0  0  0
 40 58  1  0  0  0
 41110  1  0  0  0
 41111  1  0  0  0
 41112  1  0  0  0
 41 48  1  0  0  0
 42 43  1  0  0  0
 42 66  1  0  0  0
 42113  1  0  0  0
 42114  1  0  0  0
 43 44  1  0  0  0
 44115  1  0  0  0
 45 46  2  0  0  0
 45116  1  0  0  0
 46117  1  0  0  0
 47118  1  0  0  0
 47119  1  0  0  0
 48 56  1  0  0  0
 48 65  1  0  0  0
 48120  1  0  0  0
 49 50  1  0  0  0
 49 53  1  0  0  0
 49 64  1  0  0  0
 49121  1  0  0  0
 50 51  1  0  0  0
 50122  1  0  0  0
 50123  1  0  0  0
 51 52  1  0  0  0
 51124  1  0  0  0
 51125  1  0  0  0
 52126  1  0  0  0
 52127  1  0  0  0
 53 54  1  0  0  0
 54 55  2  0  0  0
 54128  1  0  0  0
 55 57  1  0  0  0
 55129  1  0  0  0
 56 69  2  0  0  0
 57 58  2  0  0  0
 57130  1  0  0  0
 58131  1  0  0  0
 59 60  1  0  0  0
 59 61  1  0  0  0
 59 62  1  0  0  0
 60132  1  0  0  0
 60133  1  0  0  0
 60134  1  0  0  0
 61135  1  0  0  0
 61136  1  0  0  0
 61137  1  0  0  0
 62138  1  0  0  0
 62139  1  0  0  0
 62140  1  0  0  0
 63 65  1  0  0  0
 63141  1  0  0  0
 63142  1  0  0  0
 63143  1  0  0  0
 64144  1  0  0  0
 65145  1  0  0  0
 68 83  1  0  0  0
 71 74  2  0  0  0
 71 76  1  0  0  0
 71146  1  0  0  0
 72 73  1  0  0  0
 72 75  2  0  0  0
 72 77  1  0  0  0
 73 76  2  0  0  0
 73 78  1  0  0  0
 74 75  1  0  0  0
 74 81  1  0  0  0
 75 83  1  0  0  0
 76 86  1  0  0  0
 77 80  1  0  0  0
 77147  1  0  0  0
 77148  1  0  0  0
 78 79  1  0  0  0
 78149  1  0  0  0
 78150  1  0  0  0
 79 85  1  0  0  0
 79151  1  0  0  0
 79152  1  0  0  0
 80 84  1  0  0  0
 80 85  1  0  0  0
 80153  1  0  0  0
 81154  1  0  0  0
 81155  1  0  0  0
 81156  1  0  0  0
 82 84  1  0  0  0
 82157  1  0  0  0
 82158  1  0  0  0
 82159  1  0  0  0
 83160  1  0  0  0
 83161  1  0  0  0
 84162  1  0  0  0
 84163  1  0  0  0
 86164  1  0  0  0
M  ISO  4   1 100  68 101  83 101  85 100
M  END
> <chiral flag>
0

> <version>
0

> <s_m_source_file>
/data/baiqing/PycharmProjects/Reinvent-master-3.2/result/LINK_invent/BTK/process_docking_weight1_custom_sum_contain_oxygen_bond_distance_aromatic_linkinvent_7_9_3/rearranged_h_0165.sdf

> <i_m_source_file_index>
25

> <r_mmod_Potential_Energy-OPLS-2005>
2058.39038085938

> <r_mmod_Stretch_Energy-OPLS-2005>
770.402893066406

> <r_mmod_Bend_Energy-OPLS-2005>
704.478271484375

> <r_mmod_Torsional_Energy-OPLS-2005>
340.749755859375

> <r_mmod_Improper_Torsional_Energy-OPLS-2005>
6.39706945419312

> <r_mmod_Van_der_Waal_Energy-OPLS-2005>
163.390914916992

> <r_mmod_Electrostatic_Energy-OPLS-2005>
-310.553558349609

> <r_mmod_Solvation_Energy-OPLS-2005>
-210.86946105957

> <b_mmod_Minimization_Converged-OPLS-2005>
0

> <r_mmod_RMS_Derivative-OPLS-2005>
2.98832273483276

$$$$
25
                    3D
 Structure written by MMmdl.
183193  0  0  1  0            999 V2000
  -30.6895  -14.5855   20.4614 C   0  0  0  0  0  0
  -30.4153  -12.3499   19.4458 C   0  0  0  0  0  0
  -29.4977  -12.4786   18.2131 C   0  0  0  0  0  0
  -28.0190  -12.3474   18.6263 C   0  0  0  0  0  0
  -27.6470  -13.2230   19.8551 C   0  0  2  0  0  0
  -28.6965  -13.1139   20.9827 C   0  0  0  0  0  0
  -25.2551  -13.8167   20.5732 C   0  0  0  0  0  0
  -24.1808  -13.0431   20.9195 C   0  0  0  0  0  0
  -24.6370  -11.6902   20.8738 C   0  0  0  0  0  0
  -23.9039  -10.4286   21.0399 C   0  0  0  0  0  0
  -24.3580   -9.4205   21.9187 C   0  0  0  0  0  0
  -23.6262   -8.2228   22.0751 C   0  0  0  0  0  0
  -22.4248   -8.0267   21.3536 C   0  0  0  0  0  0
  -21.9875   -9.0241   20.4640 C   0  0  0  0  0  0
  -22.7205  -10.2121   20.3051 C   0  0  0  0  0  0
  -21.6842   -6.0720   22.5284 C   0  0  0  0  0  0
  -21.4011   -6.5625   23.8218 C   0  0  0  0  0  0
  -21.3660   -5.6777   24.9184 C   0  0  0  0  0  0
  -21.6043   -4.3039   24.7227 C   0  0  0  0  0  0
  -21.8822   -3.8130   23.4347 C   0  0  0  0  0  0
  -21.9189   -4.6949   22.3404 C   0  0  0  0  0  0
  -22.7836  -13.5249   21.1851 C   0  0  0  0  0  0
  -22.1658   -4.2139   21.0974 F   0  0  0  0  0  0
  -21.5615   -3.4517   25.7729 F   0  0  0  0  0  0
  -30.0104  -13.4017   20.3939 N   0  0  0  0  0  0
  -26.2971  -12.9366   20.3331 N   0  0  0  0  0  0
  -25.9304  -11.6514   20.5758 N   0  0  0  0  0  0
  -22.0437  -12.8258   22.0388 N   0  0  0  0  0  0
  -25.4251  -15.1878   20.4200 N   0  0  0  0  0  0
  -31.8868  -14.6575   20.1686 O   0  0  0  0  0  0
  -21.6612   -6.8862   21.4245 O   0  0  0  0  0  0
  -22.3543  -14.5558   20.6699 O   0  0  0  0  0  0
  -24.6234  -31.8617   23.2048 C   0  0  0  0  0  0
  -25.9086  -32.4791   23.8381 C   0  0  1  0  0  0
  -27.2288  -27.3673   20.1099 C   0  0  0  0  0  0
  -25.5918  -33.8586   24.2304 N   0  0  0  0  0  0
  -23.4175  -30.4848   21.5461 C   0  0  2  0  0  0
  -24.8657  -28.9445   20.1101 C   0  0  0  0  0  0
  -22.7469  -29.4632   22.4949 C   0  0  0  0  0  0
  -18.0281  -28.1391   22.8482 C   0  0  0  0  0  0
  -24.1485  -36.7305   23.2642 C   0  0  0  0  0  0
  -25.9545  -30.8067   21.3694 C   0  0  0  0  0  0
  -26.0312  -29.4380   20.7108 C   0  0  0  0  0  0
  -27.2225  -28.6602   20.7019 C   0  0  0  0  0  0
  -26.0490  -26.9094   19.4917 C   0  0  0  0  0  0
  -24.8738  -27.6829   19.4914 C   0  0  0  0  0  0
  -23.6302  -29.8181   20.1609 C   0  0  0  0  0  0
  -25.4102  -36.3093   24.0342 C   0  0  1  0  0  0
  -20.5878  -28.3690   23.1287 C   0  0  2  0  0  0
  -20.6766  -26.9417   22.5410 C   0  0  0  0  0  0
  -19.5739  -26.6392   21.5214 C   0  0  0  0  0  0
  -18.1918  -26.7946   22.1621 C   0  0  0  0  0  0
  -19.1530  -28.8865   23.2885 C   0  0  0  0  0  0
  -18.9460  -30.1468   23.8892 C   0  0  0  0  0  0
  -17.6455  -30.6595   24.0575 C   0  0  0  0  0  0
  -25.9037  -34.9453   23.5123 C   0  0  0  0  0  0
  -16.5346  -29.9087   23.6337 C   0  0  0  0  0  0
  -16.7267  -28.6515   23.0347 C   0  0  0  0  0  0
  -26.4481  -31.6600   25.0748 C   0  0  0  0  0  0
  -25.3734  -31.3723   26.1501 C   0  0  0  0  0  0
  -27.0320  -30.3024   24.6183 C   0  0  0  0  0  0
  -27.6059  -32.4325   25.7500 C   0  0  0  0  0  0
  -27.5579  -37.1809   24.8460 C   0  0  0  0  0  0
  -21.4185  -29.3044   22.3686 N   0  0  0  0  0  0
  -26.4282  -37.3782   23.9417 N   0  0  0  0  0  0
  -24.6833  -31.0666   22.0981 N   0  0  0  0  0  0
  -23.4207  -28.8177   23.3019 O   0  0  0  0  0  0
  -28.3265  -26.5133   20.1324 O   0  0  0  0  0  0
  -26.5602  -34.8909   22.4687 O   0  0  0  0  0  0
  -23.5397  -32.1379   23.7397 O   0  0  0  0  0  0
  -27.9943  -22.8929   21.3821 C   0  0  0  0  0  0
  -28.3049  -21.5229   21.2390 C   0  0  0  0  0  0
  -29.6514  -23.5147   19.7161 C   0  0  0  0  0  0
  -28.6269  -23.9204   20.6393 C   0  0  0  0  0  0
  -29.8991  -22.0963   19.5107 C   0  0  0  0  0  0
  -29.2479  -21.0839   20.2854 C   0  0  0  0  0  0
  -28.5059  -17.5358   19.5304 C   0  0  0  0  0  0
  -29.4544  -17.9180   21.8281 C   0  0  0  0  0  0
  -29.8885  -25.0678   17.6438 C   0  0  0  0  0  0
  -29.5948  -16.4402   19.3421 C   0  0  0  0  0  0
  -30.4853  -16.7930   21.5014 C   0  0  0  0  0  0
  -31.1741  -26.8358   18.7173 C   0  0  0  0  0  0
  -30.4963  -24.5597   18.9507 C   0  0  1  0  0  0
  -28.8066  -18.6174   20.6025 C   0  0  0  0  0  0
  -30.6951  -26.3441   17.3243 C   0  0  0  0  0  0
  -29.8178  -27.3920   16.6114 C   0  0  0  0  0  0
  -31.9067  -26.0209   16.4229 C   0  0  0  0  0  0
  -30.0452  -21.1828   17.1442 C   0  0  0  0  0  0
  -30.8284  -21.5733   18.4054 C   0  0  0  0  0  0
  -28.1668  -25.3720   21.0303 C   0  0  0  0  0  0
  -29.9606  -15.7420   20.5985 N   0  0  0  0  0  0
  -30.8653  -25.7712   19.6941 N   0  3  0  0  0  0
  -29.5808  -19.7309   20.0707 O   0  0  0  0  0  0
  -31.4622  -12.4312   19.1473 H   0  0  0  0  0  0
  -30.3073  -11.3665   19.9046 H   0  0  0  0  0  0
  -29.7476  -11.7125   17.4785 H   0  0  0  0  0  0
  -29.6640  -13.4351   17.7160 H   0  0  0  0  0  0
  -27.8359  -11.2973   18.8535 H   0  0  0  0  0  0
  -27.3696  -12.5925   17.7853 H   0  0  0  0  0  0
  -27.6518  -14.2527   19.5028 H   0  0  0  0  0  0
  -28.6908  -12.1151   21.4216 H   0  0  0  0  0  0
  -28.4661  -13.8118   21.7899 H   0  0  0  0  0  0
  -25.2697   -9.5682   22.4806 H   0  0  0  0  0  0
  -23.9959   -7.4614   22.7471 H   0  0  0  0  0  0
  -21.0799   -8.8759   19.8953 H   0  0  0  0  0  0
  -22.3648  -10.9662   19.6171 H   0  0  0  0  0  0
  -21.2011   -7.6130   23.9715 H   0  0  0  0  0  0
  -21.1485   -6.0508   25.9087 H   0  0  0  0  0  0
  -22.0603   -2.7591   23.2852 H   0  0  0  0  0  0
  -22.3999  -11.9916   22.4800 H   0  0  0  0  0  0
  -21.1071  -13.1355   22.2571 H   0  0  0  0  0  0
  -24.6580  -15.8414   20.5353 H   0  0  0  0  0  0
  -26.2852  -15.6238   20.1160 H   0  0  0  0  0  0
  -26.7182  -32.5476   23.1158 H   0  0  0  0  0  0
  -25.0084  -33.9740   25.0465 H   0  0  0  0  0  0
  -22.7107  -31.3039   21.4035 H   0  0  0  0  0  0
  -23.3734  -35.9653   23.3295 H   0  0  0  0  0  0
  -24.3578  -36.8919   22.2059 H   0  0  0  0  0  0
  -23.7244  -37.6513   23.6653 H   0  0  0  0  0  0
  -26.0803  -31.5709   20.6008 H   0  0  0  0  0  0
  -26.8379  -30.8568   21.9952 H   0  0  0  0  0  0
  -28.1187  -29.0317   21.1761 H   0  0  0  0  0  0
  -26.0331  -25.9335   19.0273 H   0  0  0  0  0  0
  -23.9800  -27.2974   19.0203 H   0  0  0  0  0  0
  -23.7477  -30.5925   19.4024 H   0  0  0  0  0  0
  -22.7523  -29.2436   19.8612 H   0  0  0  0  0  0
  -25.1280  -36.1960   25.0838 H   0  0  0  0  0  0
  -20.9988  -28.3272   24.1402 H   0  0  0  0  0  0
  -20.5670  -26.2307   23.3613 H   0  0  0  0  0  0
  -21.6640  -26.7454   22.1211 H   0  0  0  0  0  0
  -19.6894  -25.6304   21.1244 H   0  0  0  0  0  0
  -19.6676  -27.3199   20.6744 H   0  0  0  0  0  0
  -17.4202  -26.6707   21.4010 H   0  0  0  0  0  0
  -18.0302  -26.0084   22.9012 H   0  0  0  0  0  0
  -19.7926  -30.7295   24.2256 H   0  0  0  0  0  0
  -17.5001  -31.6266   24.5186 H   0  0  0  0  0  0
  -15.5340  -30.2989   23.7668 H   0  0  0  0  0  0
  -15.8669  -28.0839   22.7053 H   0  0  0  0  0  0
  -24.5913  -30.7050   25.7843 H   0  0  0  0  0  0
  -24.8922  -32.2887   26.4938 H   0  0  0  0  0  0
  -25.8101  -30.8912   27.0265 H   0  0  0  0  0  0
  -26.2892  -29.6776   24.1209 H   0  0  0  0  0  0
  -27.4014  -29.7274   25.4681 H   0  0  0  0  0  0
  -27.8758  -30.4294   23.9396 H   0  0  0  0  0  0
  -27.2687  -33.3613   26.2098 H   0  0  0  0  0  0
  -28.3855  -32.6895   25.0324 H   0  0  0  0  0  0
  -28.0747  -31.8441   26.5396 H   0  0  0  0  0  0
  -28.2610  -38.0097   24.7511 H   0  0  0  0  0  0
  -28.1067  -36.2633   24.6278 H   0  0  0  0  0  0
  -27.2308  -37.1465   25.8866 H   0  0  0  0  0  0
  -20.9367  -29.8766   21.6888 H   0  0  0  0  0  0
  -26.0164  -38.2860   24.1407 H   0  0  0  0  0  0
  -27.2504  -23.1585   22.1209 H   0  0  0  0  0  0
  -27.7908  -20.8283   21.8852 H   0  0  0  0  0  0
  -27.5803  -17.0323   19.8085 H   0  0  0  0  0  0
  -28.2879  -18.0171   18.5767 H   0  0  0  0  0  0
  -29.9071  -18.6651   22.4803 H   0  0  0  0  0  0
  -28.6562  -17.4626   22.4165 H   0  0  0  0  0  0
  -28.8397  -25.3182   17.8088 H   0  0  0  0  0  0
  -29.9211  -24.3267   16.8465 H   0  0  0  0  0  0
  -30.4858  -16.8928   18.9031 H   0  0  0  0  0  0
  -29.2419  -15.7192   18.6021 H   0  0  0  0  0  0
  -30.8154  -16.3352   22.4346 H   0  0  0  0  0  0
  -31.3807  -17.2354   21.0588 H   0  0  0  0  0  0
  -30.6736  -27.7553   19.0237 H   0  0  0  0  0  0
  -32.2448  -27.0435   18.7250 H   0  0  0  0  0  0
  -31.4793  -24.1520   18.7390 H   0  0  0  0  0  0
  -27.8272  -18.9863   20.9003 H   0  0  0  0  0  0
  -28.9352  -27.6495   17.1990 H   0  0  0  0  0  0
  -29.4660  -27.0231   15.6462 H   0  0  0  0  0  0
  -30.3701  -28.3161   16.4275 H   0  0  0  0  0  0
  -32.5695  -25.2800   16.8753 H   0  0  0  0  0  0
  -32.5065  -26.9115   16.2237 H   0  0  0  0  0  0
  -31.5894  -25.6217   15.4598 H   0  0  0  0  0  0
  -30.7180  -20.8188   16.3658 H   0  0  0  0  0  0
  -29.4919  -22.0272   16.7336 H   0  0  0  0  0  0
  -29.3305  -20.3889   17.3595 H   0  0  0  0  0  0
  -31.3674  -20.6994   18.7721 H   0  0  0  0  0  0
  -31.6268  -22.2515   18.1294 H   0  0  0  0  0  0
  -28.6809  -25.6282   21.9577 H   0  0  0  0  0  0
  -27.1178  -25.2871   21.3210 H   0  0  0  0  0  0
  -30.0420  -26.0731   20.1962 H   0  0  0  0  0  0
  -31.6218  -25.6113   20.3400 H   0  0  0  0  0  0
  1 25  1  0  0  0
  1 30  2  0  0  0
  1 91  1  0  0  0
  2  3  1  0  0  0
  2 25  1  0  0  0
  2 94  1  0  0  0
  2 95  1  0  0  0
  3  4  1  0  0  0
  3 96  1  0  0  0
  3 97  1  0  0  0
  4  5  1  0  0  0
  4 98  1  0  0  0
  4 99  1  0  0  0
  5  6  1  0  0  0
  5 26  1  0  0  0
  5100  1  0  0  0
  6 25  1  0  0  0
  6101  1  0  0  0
  6102  1  0  0  0
  7  8  2  0  0  0
  7 26  1  0  0  0
  7 29  1  0  0  0
  8  9  1  0  0  0
  8 22  1  0  0  0
  9 10  1  0  0  0
  9 27  2  0  0  0
 10 11  2  0  0  0
 10 15  1  0  0  0
 11 12  1  0  0  0
 11103  1  0  0  0
 12 13  2  0  0  0
 12104  1  0  0  0
 13 14  1  0  0  0
 13 31  1  0  0  0
 14 15  2  0  0  0
 14105  1  0  0  0
 15106  1  0  0  0
 16 17  2  0  0  0
 16 21  1  0  0  0
 16 31  1  0  0  0
 17 18  1  0  0  0
 17107  1  0  0  0
 18 19  2  0  0  0
 18108  1  0  0  0
 19 20  1  0  0  0
 19 24  1  0  0  0
 20 21  2  0  0  0
 20109  1  0  0  0
 21 23  1  0  0  0
 22 28  1  0  0  0
 22 32  2  0  0  0
 26 27  1  0  0  0
 28110  1  0  0  0
 28111  1  0  0  0
 29112  1  0  0  0
 29113  1  0  0  0
 33 34  1  0  0  0
 33 66  1  0  0  0
 33 70  2  0  0  0
 34 36  1  0  0  0
 34 59  1  0  0  0
 34114  1  0  0  0
 35 44  2  0  0  0
 35 45  1  0  0  0
 35 68  1  0  0  0
 36 56  1  0  0  0
 36115  1  0  0  0
 37 39  1  0  0  0
 37 47  1  0  0  0
 37 66  1  0  0  0
 37116  1  0  0  0
 38 43  2  0  0  0
 38 46  1  0  0  0
 38 47  1  0  0  0
 39 64  1  0  0  0
 39 67  2  0  0  0
 40 52  1  0  0  0
 40 53  2  0  0  0
 40 58  1  0  0  0
 41117  1  0  0  0
 41118  1  0  0  0
 41119  1  0  0  0
 41 48  1  0  0  0
 42 43  1  0  0  0
 42 66  1  0  0  0
 42120  1  0  0  0
 42121  1  0  0  0
 43 44  1  0  0  0
 44122  1  0  0  0
 45 46  2  0  0  0
 45123  1  0  0  0
 46124  1  0  0  0
 47125  1  0  0  0
 47126  1  0  0  0
 48 56  1  0  0  0
 48 65  1  0  0  0
 48127  1  0  0  0
 49 50  1  0  0  0
 49 53  1  0  0  0
 49 64  1  0  0  0
 49128  1  0  0  0
 50 51  1  0  0  0
 50129  1  0  0  0
 50130  1  0  0  0
 51 52  1  0  0  0
 51131  1  0  0  0
 51132  1  0  0  0
 52133  1  0  0  0
 52134  1  0  0  0
 53 54  1  0  0  0
 54 55  2  0  0  0
 54135  1  0  0  0
 55 57  1  0  0  0
 55136  1  0  0  0
 56 69  2  0  0  0
 57 58  2  0  0  0
 57137  1  0  0  0
 58138  1  0  0  0
 59 60  1  0  0  0
 59 61  1  0  0  0
 59 62  1  0  0  0
 60139  1  0  0  0
 60140  1  0  0  0
 60141  1  0  0  0
 61142  1  0  0  0
 61143  1  0  0  0
 61144  1  0  0  0
 62145  1  0  0  0
 62146  1  0  0  0
 62147  1  0  0  0
 63 65  1  0  0  0
 63148  1  0  0  0
 63149  1  0  0  0
 63150  1  0  0  0
 64151  1  0  0  0
 65152  1  0  0  0
 68 90  1  0  0  0
 71 72  2  0  0  0
 71 74  1  0  0  0
 71153  1  0  0  0
 72 76  1  0  0  0
 72154  1  0  0  0
 73 74  2  0  0  0
 73 75  1  0  0  0
 73 83  1  0  0  0
 74 90  1  0  0  0
 75 76  2  0  0  0
 75 89  1  0  0  0
 76 93  1  0  0  0
 77 80  1  0  0  0
 77 84  1  0  0  0
 77155  1  0  0  0
 77156  1  0  0  0
 78 81  1  0  0  0
 78 84  1  0  0  0
 78157  1  0  0  0
 78158  1  0  0  0
 79 83  1  0  0  0
 79 85  1  0  0  0
 79159  1  0  0  0
 79160  1  0  0  0
 80 91  1  0  0  0
 80161  1  0  0  0
 80162  1  0  0  0
 81 91  1  0  0  0
 81163  1  0  0  0
 81164  1  0  0  0
 82 85  1  0  0  0
 82 92  1  0  0  0
 82165  1  0  0  0
 82166  1  0  0  0
 83 92  1  0  0  0
 83167  1  0  0  0
 84 93  1  0  0  0
 84168  1  0  0  0
 85 86  1  0  0  0
 85 87  1  0  0  0
 86169  1  0  0  0
 86170  1  0  0  0
 86171  1  0  0  0
 87172  1  0  0  0
 87173  1  0  0  0
 87174  1  0  0  0
 88 89  1  0  0  0
 88175  1  0  0  0
 88176  1  0  0  0
 88177  1  0  0  0
 89178  1  0  0  0
 89179  1  0  0  0
 90180  1  0  0  0
 90181  1  0  0  0
 92182  1  0  0  0
 92183  1  0  0  0
M  CHG  1  92   1
M  ISO  4   1 100  68 101  90 101  91 100
M  END
> <chiral flag>
0

> <version>
0

> <s_m_source_file>
/data/baiqing/PycharmProjects/Reinvent-master-3.2/result/LINK_invent/BTK/process_docking_weight1_custom_sum_contain_oxygen_bond_distance_aromatic_linkinvent_7_9_3/rearranged_h_0165.sdf

> <i_m_source_file_index>
26

> <r_mmod_Potential_Energy-OPLS-2005>
209.044189453125

> <r_mmod_Stretch_Energy-OPLS-2005>
73.7532424926758

> <r_mmod_Bend_Energy-OPLS-2005>
190.53694152832

> <r_mmod_Torsional_Energy-OPLS-2005>
434.784576416016

> <r_mmod_Improper_Torsional_Energy-OPLS-2005>
11.5096769332886

> <r_mmod_Van_der_Waal_Energy-OPLS-2005>
148.349975585938

> <r_mmod_Electrostatic_Energy-OPLS-2005>
-294.747314453125

> <r_mmod_Solvation_Energy-OPLS-2005>
-394.527648925781

> <b_mmod_Minimization_Converged-OPLS-2005>
0

> <r_mmod_RMS_Derivative-OPLS-2005>
2.60682892799377

$$$$
26
                    3D
 Structure written by MMmdl.
173183  0  0  1  0            999 V2000
  -30.3630  -15.5995   20.3730 C   0  0  0  0  0  0
  -30.4235  -13.0549   19.5441 C   0  0  0  0  0  0
  -29.5532  -12.6566   18.3213 C   0  0  0  0  0  0
  -28.1079  -12.3325   18.7399 C   0  0  0  0  0  0
  -27.5883  -13.3244   19.8081 C   0  0  2  0  0  0
  -28.6163  -13.6328   20.9232 C   0  0  0  0  0  0
  -25.2195  -13.8325   20.5767 C   0  0  0  0  0  0
  -24.1632  -13.0441   20.9232 C   0  0  0  0  0  0
  -24.6351  -11.6956   20.8712 C   0  0  0  0  0  0
  -23.9083  -10.4266   21.0336 C   0  0  0  0  0  0
  -24.3626   -9.4182   21.9129 C   0  0  0  0  0  0
  -23.6305   -8.2225   22.0715 C   0  0  0  0  0  0
  -22.4286   -8.0220   21.3504 C   0  0  0  0  0  0
  -21.9913   -9.0195   20.4624 C   0  0  0  0  0  0
  -22.7228  -10.2079   20.3015 C   0  0  0  0  0  0
  -21.6845   -6.0687   22.5249 C   0  0  0  0  0  0
  -21.4000   -6.5604   23.8164 C   0  0  0  0  0  0
  -21.3684   -5.6753   24.9138 C   0  0  0  0  0  0
  -21.6065   -4.3028   24.7194 C   0  0  0  0  0  0
  -21.8824   -3.8113   23.4316 C   0  0  0  0  0  0
  -21.9191   -4.6919   22.3367 C   0  0  0  0  0  0
  -22.7601  -13.5089   21.1873 C   0  0  0  0  0  0
  -22.1636   -4.2106   21.0941 F   0  0  0  0  0  0
  -21.5684   -3.4498   25.7721 F   0  0  0  0  0  0
  -29.7945  -14.2525   20.2684 N   0  0  0  0  0  0
  -26.2707  -12.9732   20.3204 N   0  0  0  0  0  0
  -25.9311  -11.6801   20.5652 N   0  0  0  0  0  0
  -22.0290  -12.8152   22.0497 N   0  0  0  0  0  0
  -25.3848  -15.2094   20.4213 N   0  0  0  0  0  0
  -31.6028  -15.4813   20.3148 O   0  0  0  0  0  0
  -21.6664   -6.8819   21.4194 O   0  0  0  0  0  0
  -22.3254  -14.5332   20.6622 O   0  0  0  0  0  0
  -24.6860  -31.7984   23.1478 C   0  0  0  0  0  0
  -25.9413  -32.4470   23.8048 C   0  0  1  0  0  0
  -27.2451  -26.6741   20.2336 C   0  0  0  0  0  0
  -25.5979  -33.8308   24.1939 N   0  0  0  0  0  0
  -23.5171  -30.3887   21.5052 C   0  0  2  0  0  0
  -24.9806  -28.7231   20.1281 C   0  0  0  0  0  0
  -22.7813  -29.4246   22.4752 C   0  0  0  0  0  0
  -18.0342  -28.1438   22.8450 C   0  0  0  0  0  0
  -24.1512  -36.7138   23.2648 C   0  0  0  0  0  0
  -26.1000  -30.5208   21.4138 C   0  0  0  0  0  0
  -26.1704  -29.0806   20.7722 C   0  0  0  0  0  0
  -27.2878  -28.0873   20.7857 C   0  0  0  0  0  0
  -26.0224  -26.5325   19.5252 C   0  0  0  0  0  0
  -24.9508  -27.4785   19.4747 C   0  0  0  0  0  0
  -23.7722  -29.6752   20.1460 C   0  0  0  0  0  0
  -25.4150  -36.2882   24.0288 C   0  0  1  0  0  0
  -20.5977  -28.3770   23.1168 C   0  0  2  0  0  0
  -20.6798  -26.9433   22.5420 C   0  0  0  0  0  0
  -19.5776  -26.6362   21.5237 C   0  0  0  0  0  0
  -18.1957  -26.7957   22.1623 C   0  0  0  0  0  0
  -19.1613  -28.8931   23.2781 C   0  0  0  0  0  0
  -18.9507  -30.1517   23.8816 C   0  0  0  0  0  0
  -17.6490  -30.6606   24.0546 C   0  0  0  0  0  0
  -25.9129  -34.9290   23.4936 C   0  0  0  0  0  0
  -16.5381  -29.9078   23.6373 C   0  0  0  0  0  0
  -16.7317  -28.6521   23.0358 C   0  0  0  0  0  0
  -26.4597  -31.6495   25.0670 C   0  0  0  0  0  0
  -25.3661  -31.3771   26.1267 C   0  0  0  0  0  0
  -27.0510  -30.2832   24.6560 C   0  0  0  0  0  0
  -27.6063  -32.4344   25.7455 C   0  0  0  0  0  0
  -27.5576  -37.1709   24.8458 C   0  0  0  0  0  0
  -21.4454  -29.3020   22.3516 N   0  0  0  0  0  0
  -26.4258  -37.3659   23.9424 N   0  0  0  0  0  0
  -24.7922  -30.9370   22.0747 N   0  0  0  0  0  0
  -23.4235  -28.7855   23.3119 O   0  0  0  0  0  0
  -28.2273  -25.4575   20.2946 O   0  0  0  0  0  0
  -26.5808  -34.8859   22.4570 O   0  0  0  0  0  0
  -23.5861  -32.1037   23.6428 O   0  0  0  0  0  0
  -29.9276  -18.0616   23.3969 C   0  0  0  0  0  0
  -30.8087  -18.0574   24.5477 C   0  0  0  0  0  0
  -30.5385  -18.5769   22.2647 C   0  0  0  0  0  0
  -31.9797  -18.7410   24.3066 C   0  0  0  0  0  0
  -27.5197  -17.8454   24.4725 C   0  0  0  0  0  0
  -27.9159  -16.4236   24.1221 C   0  0  0  0  0  0
  -28.3011  -19.1406   19.4733 C   0  0  0  0  0  0
  -28.4877  -17.5842   23.3475 C   0  0  0  0  0  0
  -30.0478  -18.6157   20.8293 C   0  0  2  0  0  0
  -28.9555  -20.0656   20.5562 C   0  0  1  0  0  0
  -28.4537  -17.5057   19.6717 C   0  0  1  0  0  0
  -30.5461  -17.3923   25.8786 C   0  0  0  0  0  0
  -33.0857  -19.0941   25.2578 C   0  0  0  0  0  0
  -28.2667  -16.8188   18.3096 C   0  0  0  0  0  0
  -30.2203  -22.3292   21.3684 C   0  0  0  0  0  0
  -28.0679  -23.6856   20.3616 C   0  0  0  0  0  0
  -29.1048  -22.0149   20.3555 C   0  0  2  0  0  0
  -29.6924  -17.0233   20.3883 N   0  0  0  0  0  0
  -32.1146  -19.2084   22.6393 S   0  0  0  0  0  0
  -31.4301  -13.2897   19.1995 H   0  0  0  0  0  0
  -30.5496  -12.2031   20.2176 H   0  0  0  0  0  0
  -29.9989  -11.8106   17.7942 H   0  0  0  0  0  0
  -29.5329  -13.4950   17.6259 H   0  0  0  0  0  0
  -28.0910  -11.3230   19.1482 H   0  0  0  0  0  0
  -27.4499  -12.3262   17.8702 H   0  0  0  0  0  0
  -27.4419  -14.2571   19.2617 H   0  0  0  0  0  0
  -28.8658  -12.7263   21.4784 H   0  0  0  0  0  0
  -28.2012  -14.3371   21.6472 H   0  0  0  0  0  0
  -25.2735   -9.5709   22.4736 H   0  0  0  0  0  0
  -23.9996   -7.4649   22.7487 H   0  0  0  0  0  0
  -21.0835   -8.8711   19.8957 H   0  0  0  0  0  0
  -22.3628  -10.9620   19.6165 H   0  0  0  0  0  0
  -21.1938   -7.6096   23.9650 H   0  0  0  0  0  0
  -21.1535   -6.0481   25.9034 H   0  0  0  0  0  0
  -22.0600   -2.7577   23.2818 H   0  0  0  0  0  0
  -22.3932  -11.9873   22.5026 H   0  0  0  0  0  0
  -21.0852  -13.1138   22.2611 H   0  0  0  0  0  0
  -24.6313  -15.8745   20.5390 H   0  0  0  0  0  0
  -26.2410  -15.6349   20.0955 H   0  0  0  0  0  0
  -26.7484  -32.4957   23.0735 H   0  0  0  0  0  0
  -25.0000  -33.9339   25.0020 H   0  0  0  0  0  0
  -22.8465  -31.2294   21.3094 H   0  0  0  0  0  0
  -23.3806  -35.9435   23.3241 H   0  0  0  0  0  0
  -24.3589  -36.8890   22.2080 H   0  0  0  0  0  0
  -23.7249  -37.6281   23.6785 H   0  0  0  0  0  0
  -26.3049  -31.2388   20.6170 H   0  0  0  0  0  0
  -26.9512  -30.5946   22.0786 H   0  0  0  0  0  0
  -28.1914  -28.3719   21.3093 H   0  0  0  0  0  0
  -25.8576  -25.5877   19.0314 H   0  0  0  0  0  0
  -24.0525  -27.2024   18.9403 H   0  0  0  0  0  0
  -23.9558  -30.4308   19.3836 H   0  0  0  0  0  0
  -22.8810  -29.1361   19.8201 H   0  0  0  0  0  0
  -25.1367  -36.1601   25.0786 H   0  0  0  0  0  0
  -21.0047  -28.3374   24.1302 H   0  0  0  0  0  0
  -20.5695  -26.2395   23.3675 H   0  0  0  0  0  0
  -21.6652  -26.7410   22.1228 H   0  0  0  0  0  0
  -19.6941  -25.6263   21.1314 H   0  0  0  0  0  0
  -19.6699  -27.3151   20.6754 H   0  0  0  0  0  0
  -17.4229  -26.6733   21.4017 H   0  0  0  0  0  0
  -18.0322  -26.0117   22.9038 H   0  0  0  0  0  0
  -19.7966  -30.7378   24.2151 H   0  0  0  0  0  0
  -17.5014  -31.6276   24.5157 H   0  0  0  0  0  0
  -15.5375  -30.2925   23.7731 H   0  0  0  0  0  0
  -15.8725  -28.0792   22.7104 H   0  0  0  0  0  0
  -24.5879  -30.7093   25.7509 H   0  0  0  0  0  0
  -24.8774  -32.2974   26.4509 H   0  0  0  0  0  0
  -25.7804  -30.9007   27.0174 H   0  0  0  0  0  0
  -26.3196  -29.6456   24.1552 H   0  0  0  0  0  0
  -27.3955  -29.7247   25.5284 H   0  0  0  0  0  0
  -27.9209  -30.3975   24.0072 H   0  0  0  0  0  0
  -27.2653  -33.3747   26.1828 H   0  0  0  0  0  0
  -28.3957  -32.6768   25.0314 H   0  0  0  0  0  0
  -28.0667  -31.8605   26.5521 H   0  0  0  0  0  0
  -28.2509  -38.0086   24.7572 H   0  0  0  0  0  0
  -28.1144  -36.2604   24.6175 H   0  0  0  0  0  0
  -27.2303  -37.1231   25.8860 H   0  0  0  0  0  0
  -20.9804  -29.8616   21.6498 H   0  0  0  0  0  0
  -26.0070  -38.2697   24.1448 H   0  0  0  0  0  0
  -27.9068  -18.3187   25.3692 H   0  0  0  0  0  0
  -26.5174  -18.1653   24.1952 H   0  0  0  0  0  0
  -27.1642  -15.8327   23.6046 H   0  0  0  0  0  0
  -28.5432  -15.8597   24.8071 H   0  0  0  0  0  0
  -28.7759  -19.4156   18.5324 H   0  0  0  0  0  0
  -27.2537  -19.4171   19.3486 H   0  0  0  0  0  0
  -28.0508  -17.7659   22.3789 H   0  0  0  0  0  0
  -30.9271  -18.8113   20.2107 H   0  0  0  0  0  0
  -28.2846  -20.0130   21.4147 H   0  0  0  0  0  0
  -27.6342  -17.1730   20.3100 H   0  0  0  0  0  0
  -30.4463  -16.3161   25.7526 H   0  0  0  0  0  0
  -29.6653  -17.7579   26.3980 H   0  0  0  0  0  0
  -31.3688  -17.5204   26.5807 H   0  0  0  0  0  0
  -33.3814  -18.2483   25.8759 H   0  0  0  0  0  0
  -32.7844  -19.9073   25.9219 H   0  0  0  0  0  0
  -33.9779  -19.4278   24.7243 H   0  0  0  0  0  0
  -28.7371  -17.3886   17.5064 H   0  0  0  0  0  0
  -27.2067  -16.7533   18.0754 H   0  0  0  0  0  0
  -28.6779  -15.8114   18.2515 H   0  0  0  0  0  0
  -30.6859  -23.2964   21.1684 H   0  0  0  0  0  0
  -31.0158  -21.5849   21.3544 H   0  0  0  0  0  0
  -29.8202  -22.3474   22.3827 H   0  0  0  0  0  0
  -27.5340  -23.5902   21.3054 H   0  0  0  0  0  0
  -27.2994  -23.4980   19.6109 H   0  0  0  0  0  0
  -29.5628  -22.0642   19.3625 H   0  0  0  0  0  0
  1 25  1  0  0  0
  1 30  2  0  0  0
  1 88  1  0  0  0
  2  3  1  0  0  0
  2 25  1  0  0  0
  2 90  1  0  0  0
  2 91  1  0  0  0
  3  4  1  0  0  0
  3 92  1  0  0  0
  3 93  1  0  0  0
  4  5  1  0  0  0
  4 94  1  0  0  0
  4 95  1  0  0  0
  5  6  1  0  0  0
  5 26  1  0  0  0
  5 96  1  0  0  0
  6 25  1  0  0  0
  6 97  1  0  0  0
  6 98  1  0  0  0
  7  8  2  0  0  0
  7 26  1  0  0  0
  7 29  1  0  0  0
  8  9  1  0  0  0
  8 22  1  0  0  0
  9 10  1  0  0  0
  9 27  2  0  0  0
 10 11  2  0  0  0
 10 15  1  0  0  0
 11 12  1  0  0  0
 11 99  1  0  0  0
 12 13  2  0  0  0
 12100  1  0  0  0
 13 14  1  0  0  0
 13 31  1  0  0  0
 14 15  2  0  0  0
 14101  1  0  0  0
 15102  1  0  0  0
 16 17  2  0  0  0
 16 21  1  0  0  0
 16 31  1  0  0  0
 17 18  1  0  0  0
 17103  1  0  0  0
 18 19  2  0  0  0
 18104  1  0  0  0
 19 20  1  0  0  0
 19 24  1  0  0  0
 20 21  2  0  0  0
 20105  1  0  0  0
 21 23  1  0  0  0
 22 28  1  0  0  0
 22 32  2  0  0  0
 26 27  1  0  0  0
 28106  1  0  0  0
 28107  1  0  0  0
 29108  1  0  0  0
 29109  1  0  0  0
 33 34  1  0  0  0
 33 66  1  0  0  0
 33 70  2  0  0  0
 34 36  1  0  0  0
 34 59  1  0  0  0
 34110  1  0  0  0
 35 44  2  0  0  0
 35 45  1  0  0  0
 35 68  1  0  0  0
 36 56  1  0  0  0
 36111  1  0  0  0
 37 39  1  0  0  0
 37 47  1  0  0  0
 37 66  1  0  0  0
 37112  1  0  0  0
 38 43  2  0  0  0
 38 46  1  0  0  0
 38 47  1  0  0  0
 39 64  1  0  0  0
 39 67  2  0  0  0
 40 52  1  0  0  0
 40 53  2  0  0  0
 40 58  1  0  0  0
 41113  1  0  0  0
 41114  1  0  0  0
 41115  1  0  0  0
 41 48  1  0  0  0
 42 43  1  0  0  0
 42 66  1  0  0  0
 42116  1  0  0  0
 42117  1  0  0  0
 43 44  1  0  0  0
 44118  1  0  0  0
 45 46  2  0  0  0
 45119  1  0  0  0
 46120  1  0  0  0
 47121  1  0  0  0
 47122  1  0  0  0
 48 56  1  0  0  0
 48 65  1  0  0  0
 48123  1  0  0  0
 49 50  1  0  0  0
 49 53  1  0  0  0
 49 64  1  0  0  0
 49124  1  0  0  0
 50 51  1  0  0  0
 50125  1  0  0  0
 50126  1  0  0  0
 51 52  1  0  0  0
 51127  1  0  0  0
 51128  1  0  0  0
 52129  1  0  0  0
 52130  1  0  0  0
 53 54  1  0  0  0
 54 55  2  0  0  0
 54131  1  0  0  0
 55 57  1  0  0  0
 55132  1  0  0  0
 56 69  2  0  0  0
 57 58  2  0  0  0
 57133  1  0  0  0
 58134  1  0  0  0
 59 60  1  0  0  0
 59 61  1  0  0  0
 59 62  1  0  0  0
 60135  1  0  0  0
 60136  1  0  0  0
 60137  1  0  0  0
 61138  1  0  0  0
 61139  1  0  0  0
 61140  1  0  0  0
 62141  1  0  0  0
 62142  1  0  0  0
 62143  1  0  0  0
 63 65  1  0  0  0
 63144  1  0  0  0
 63145  1  0  0  0
 63146  1  0  0  0
 64147  1  0  0  0
 65148  1  0  0  0
 68 86  1  0  0  0
 71 72  1  0  0  0
 71 73  2  0  0  0
 71 78  1  0  0  0
 72 74  2  0  0  0
 72 82  1  0  0  0
 73 89  1  0  0  0
 73 79  1  0  0  0
 74 83  1  0  0  0
 74 89  1  0  0  0
 75 76  1  0  0  0
 75 78  1  0  0  0
 75149  1  0  0  0
 75150  1  0  0  0
 76 78  1  0  0  0
 76151  1  0  0  0
 76152  1  0  0  0
 77 81  1  0  0  0
 77153  1  0  0  0
 77154  1  0  0  0
 77 80  1  0  0  0
 78155  1  0  0  0
 79 80  1  0  0  0
 79 88  1  0  0  0
 79156  1  0  0  0
 80 87  1  0  0  0
 80157  1  0  0  0
 81 84  1  0  0  0
 81 88  1  0  0  0
 81158  1  0  0  0
 82159  1  0  0  0
 82160  1  0  0  0
 82161  1  0  0  0
 83162  1  0  0  0
 83163  1  0  0  0
 83164  1  0  0  0
 84165  1  0  0  0
 84166  1  0  0  0
 84167  1  0  0  0
 85168  1  0  0  0
 85169  1  0  0  0
 85170  1  0  0  0
 85 87  1  0  0  0
 86 87  1  0  0  0
 86171  1  0  0  0
 86172  1  0  0  0
 87173  1  0  0  0
M  ISO  4   1 100  68 101  86 101  88 100
M  END
> <chiral flag>
0

> <version>
0

> <s_m_source_file>
/data/baiqing/PycharmProjects/Reinvent-master-3.2/result/LINK_invent/BTK/process_docking_weight1_custom_sum_contain_oxygen_bond_distance_aromatic_linkinvent_7_9_3/rearranged_h_0165.sdf

> <i_m_source_file_index>
27

> <r_mmod_Potential_Energy-OPLS-2005>
2763.462890625

> <r_mmod_Stretch_Energy-OPLS-2005>
1160.60705566406

> <r_mmod_Bend_Energy-OPLS-2005>
737.020629882812

> <r_mmod_Torsional_Energy-OPLS-2005>
361.885162353516

> <r_mmod_Improper_Torsional_Energy-OPLS-2005>
3.78586506843567

> <r_mmod_Van_der_Waal_Energy-OPLS-2005>
86.1072692871094

> <r_mmod_Electrostatic_Energy-OPLS-2005>
-275.379089355469

> <r_mmod_Solvation_Energy-OPLS-2005>
-195.682907104492

> <b_mmod_Minimization_Converged-OPLS-2005>
0

> <r_mmod_RMS_Derivative-OPLS-2005>
7.19948577880859

$$$$
27
                    3D
 Structure written by MMmdl.
159169  0  0  1  0            999 V2000
  -30.3406  -15.7778   20.1894 C   0  0  0  0  0  0
  -30.3355  -13.2468   19.3777 C   0  0  0  0  0  0
  -29.4775  -12.9926   18.0700 C   0  0  0  0  0  0
  -28.1385  -12.3859   18.5121 C   0  0  0  0  0  0
  -27.4600  -13.2779   19.5796 C   0  0  2  0  0  0
  -28.4797  -13.8641   20.6720 C   0  0  0  0  0  0
  -25.1833  -13.7854   20.4755 C   0  0  0  0  0  0
  -24.1354  -12.9929   20.9176 C   0  0  0  0  0  0
  -24.6283  -11.6548   20.8455 C   0  0  0  0  0  0
  -23.9152  -10.3871   21.0322 C   0  0  0  0  0  0
  -24.3500   -9.3828   21.9172 C   0  0  0  0  0  0
  -23.6028   -8.1946   22.0633 C   0  0  0  0  0  0
  -22.3998   -8.0055   21.3439 C   0  0  0  0  0  0
  -21.9897   -8.9971   20.4522 C   0  0  0  0  0  0
  -22.7375  -10.1714   20.2981 C   0  0  0  0  0  0
  -21.6610   -6.0505   22.5392 C   0  0  0  0  0  0
  -21.3813   -6.5519   23.8222 C   0  0  0  0  0  0
  -21.3650   -5.6705   24.9295 C   0  0  0  0  0  0
  -21.6089   -4.2978   24.7306 C   0  0  0  0  0  0
  -21.8820   -3.7956   23.4489 C   0  0  0  0  0  0
  -21.9049   -4.6809   22.3438 C   0  0  0  0  0  0
  -22.7567  -13.4749   21.2122 C   0  0  0  0  0  0
  -22.1562   -4.2023   21.1052 F   0  0  0  0  0  0
  -21.5641   -3.4535   25.7834 F   0  0  0  0  0  0
  -29.7473  -14.4327   20.1292 N   0  0  0  0  0  0
  -26.2061  -12.9071   20.1855 N   0  0  0  0  0  0
  -25.9034  -11.6312   20.4761 N   0  0  0  0  0  0
  -22.0283  -12.7758   22.0893 N   0  0  0  0  0  0
  -25.3688  -15.1483   20.2940 N   0  0  0  0  0  0
  -31.5696  -15.6291   20.1243 O   0  0  0  0  0  0
  -21.6262   -6.8692   21.4296 O   0  0  0  0  0  0
  -22.3305  -14.4817   20.6916 O   0  0  0  0  0  0
  -24.6800  -31.8112   23.1623 C   0  0  0  0  0  0
  -25.9404  -32.4523   23.8114 C   0  0  1  0  0  0
  -27.2666  -26.8107   20.1974 C   0  0  0  0  0  0
  -25.5970  -33.8341   24.2003 N   0  0  0  0  0  0
  -23.5034  -30.4002   21.5057 C   0  0  2  0  0  0
  -24.9674  -28.7567   20.1289 C   0  0  0  0  0  0
  -22.7771  -29.4285   22.4676 C   0  0  0  0  0  0
  -18.0326  -28.1403   22.8438 C   0  0  0  0  0  0
  -24.1500  -36.7201   23.2637 C   0  0  0  0  0  0
  -26.0718  -30.5795   21.4016 C   0  0  0  0  0  0
  -26.1506  -29.1472   20.7658 C   0  0  0  0  0  0
  -27.2939  -28.1976   20.7696 C   0  0  0  0  0  0
  -26.0383  -26.6069   19.5261 C   0  0  0  0  0  0
  -24.9378  -27.5075   19.4941 C   0  0  0  0  0  0
  -23.7573  -29.6981   20.1394 C   0  0  0  0  0  0
  -25.4140  -36.2924   24.0293 C   0  0  1  0  0  0
  -20.6042  -28.3813   23.1147 C   0  0  2  0  0  0
  -20.6793  -26.9460   22.5405 C   0  0  0  0  0  0
  -19.5750  -26.6387   21.5215 C   0  0  0  0  0  0
  -18.1953  -26.7947   22.1615 C   0  0  0  0  0  0
  -19.1620  -28.8900   23.2772 C   0  0  0  0  0  0
  -18.9499  -30.1480   23.8845 C   0  0  0  0  0  0
  -17.6485  -30.6590   24.0565 C   0  0  0  0  0  0
  -25.9078  -34.9320   23.4958 C   0  0  0  0  0  0
  -16.5374  -29.9101   23.6308 C   0  0  0  0  0  0
  -16.7309  -28.6504   23.0361 C   0  0  0  0  0  0
  -26.4592  -31.6494   25.0694 C   0  0  0  0  0  0
  -25.3693  -31.3792   26.1322 C   0  0  0  0  0  0
  -27.0494  -30.2865   24.6493 C   0  0  0  0  0  0
  -27.6060  -32.4329   25.7487 C   0  0  0  0  0  0
  -27.5569  -37.1767   24.8459 C   0  0  0  0  0  0
  -21.4450  -29.3086   22.3537 N   0  0  0  0  0  0
  -26.4283  -37.3690   23.9376 N   0  0  0  0  0  0
  -24.7705  -30.9748   22.0753 N   0  0  0  0  0  0
  -23.4199  -28.7947   23.3050 O   0  0  0  0  0  0
  -28.3017  -25.6916   20.1862 O   0  0  0  0  0  0
  -26.5744  -34.8868   22.4582 O   0  0  0  0  0  0
  -23.5812  -32.1059   23.6523 O   0  0  0  0  0  0
  -29.0073  -21.3779   17.4458 C   0  0  0  0  0  0
  -28.3263  -20.3947   18.3840 C   0  0  0  0  0  0
  -27.4205  -18.3046   20.4962 C   0  0  0  0  0  0
  -28.1470  -17.0687   20.0801 C   0  0  0  0  0  0
  -28.8349  -22.6894   18.1949 C   0  0  1  0  0  0
  -29.1418  -22.4663   19.7017 C   0  0  2  0  0  0
  -29.8733  -18.9430   20.2033 C   0  0  2  0  0  0
  -28.5574  -19.0808   21.0753 C   0  0  1  0  0  0
  -29.0013  -20.5629   19.7525 C   0  0  2  0  0  0
  -29.5022  -23.9069   17.5389 C   0  0  0  0  0  0
  -28.1848  -23.9809   20.2917 C   0  0  0  0  0  0
  -29.6085  -17.1897   20.1070 N   0  0  0  0  0  0
  -28.2356  -20.4611   20.9379 O   0  0  0  0  0  0
  -31.2952  -13.5812   19.0525 H   0  0  0  0  0  0
  -30.4374  -12.3292   19.9328 H   0  0  0  0  0  0
  -29.9113  -12.5894   17.1462 H   0  0  0  0  0  0
  -29.2626  -13.9486   17.6028 H   0  0  0  0  0  0
  -28.2354  -11.3614   18.7922 H   0  0  0  0  0  0
  -27.5623  -12.2483   17.6216 H   0  0  0  0  0  0
  -27.0553  -14.0360   18.8591 H   0  0  0  0  0  0
  -28.3837  -13.9092   21.7639 H   0  0  0  0  0  0
  -27.8964  -14.7160   20.4511 H   0  0  0  0  0  0
  -25.2761   -9.4848   22.4686 H   0  0  0  0  0  0
  -23.9584   -7.4132   22.7328 H   0  0  0  0  0  0
  -21.0582   -8.8443   19.9136 H   0  0  0  0  0  0
  -22.3637  -10.9054   19.6004 H   0  0  0  0  0  0
  -21.1787   -7.6062   23.9737 H   0  0  0  0  0  0
  -21.1502   -6.0466   25.9132 H   0  0  0  0  0  0
  -22.0633   -2.7539   23.2988 H   0  0  0  0  0  0
  -22.3708  -11.9402   22.5281 H   0  0  0  0  0  0
  -21.0943  -13.0845   22.3232 H   0  0  0  0  0  0
  -24.5149  -15.6597   20.4621 H   0  0  0  0  0  0
  -26.1926  -15.6875   19.9933 H   0  0  0  0  0  0
  -26.7496  -32.5053   23.0816 H   0  0  0  0  0  0
  -25.0074  -33.9405   25.0135 H   0  0  0  0  0  0
  -22.8343  -31.2290   21.3162 H   0  0  0  0  0  0
  -23.3756  -35.9535   23.3241 H   0  0  0  0  0  0
  -24.3576  -36.8924   22.2057 H   0  0  0  0  0  0
  -23.7254  -37.6383   23.6754 H   0  0  0  0  0  0
  -26.2585  -31.3014   20.6126 H   0  0  0  0  0  0
  -26.9372  -30.6539   22.0506 H   0  0  0  0  0  0
  -28.1879  -28.5089   21.2870 H   0  0  0  0  0  0
  -25.9119  -25.6559   19.0381 H   0  0  0  0  0  0
  -24.0468  -27.1949   18.9677 H   0  0  0  0  0  0
  -23.9329  -30.4576   19.3776 H   0  0  0  0  0  0
  -22.8667  -29.1502   19.8166 H   0  0  0  0  0  0
  -25.1325  -36.1694   25.0795 H   0  0  0  0  0  0
  -21.0037  -28.3352   24.1311 H   0  0  0  0  0  0
  -20.5673  -26.2367   23.3648 H   0  0  0  0  0  0
  -21.6639  -26.7388   22.1236 H   0  0  0  0  0  0
  -19.6939  -25.6290   21.1264 H   0  0  0  0  0  0
  -19.6727  -27.3150   20.6726 H   0  0  0  0  0  0
  -17.4244  -26.6703   21.4017 H   0  0  0  0  0  0
  -18.0350  -26.0115   22.9011 H   0  0  0  0  0  0
  -19.7979  -30.7335   24.2202 H   0  0  0  0  0  0
  -17.5029  -31.6270   24.5180 H   0  0  0  0  0  0
  -15.5368  -30.2963   23.7700 H   0  0  0  0  0  0
  -15.8726  -28.0816   22.7094 H   0  0  0  0  0  0
  -24.5940  -30.7069   25.7660 H   0  0  0  0  0  0
  -24.8796  -32.2990   26.4526 H   0  0  0  0  0  0
  -25.7894  -30.9143   27.0226 H   0  0  0  0  0  0
  -26.3191  -29.6530   24.1498 H   0  0  0  0  0  0
  -27.3967  -29.7276   25.5157 H   0  0  0  0  0  0
  -27.9091  -30.3998   23.9905 H   0  0  0  0  0  0
  -27.2662  -33.3695   26.1858 H   0  0  0  0  0  0
  -28.3977  -32.6750   25.0418 H   0  0  0  0  0  0
  -28.0602  -31.8597   26.5563 H   0  0  0  0  0  0
  -28.2547  -38.0082   24.7505 H   0  0  0  0  0  0
  -28.1095  -36.2612   24.6282 H   0  0  0  0  0  0
  -27.2294  -37.1383   25.8874 H   0  0  0  0  0  0
  -20.9716  -29.8736   21.6655 H   0  0  0  0  0  0
  -26.0101  -38.2736   24.1421 H   0  0  0  0  0  0
  -28.5779  -21.4193   16.4392 H   0  0  0  0  0  0
  -30.0669  -21.1718   17.3076 H   0  0  0  0  0  0
  -28.4211  -19.3848   17.9874 H   0  0  0  0  0  0
  -27.2710  -20.6945   18.3904 H   0  0  0  0  0  0
  -26.6329  -18.1265   21.2207 H   0  0  0  0  0  0
  -26.9070  -18.7680   19.6717 H   0  0  0  0  0  0
  -27.7191  -16.7234   19.1521 H   0  0  0  0  0  0
  -27.8569  -16.4968   20.9361 H   0  0  0  0  0  0
  -27.7669  -22.8598   18.0978 H   0  0  0  0  0  0
  -30.1874  -22.6940   19.9290 H   0  0  0  0  0  0
  -30.2483  -19.1438   19.1923 H   0  0  0  0  0  0
  -28.6964  -18.8038   22.1050 H   0  0  0  0  0  0
  -30.5873  -23.8933   17.6039 H   0  0  0  0  0  0
  -29.1525  -24.8408   17.9747 H   0  0  0  0  0  0
  -29.2251  -23.9596   16.4843 H   0  0  0  0  0  0
  -28.1337  -23.8578   21.3759 H   0  0  0  0  0  0
  -27.1464  -23.7823   20.0161 H   0  0  0  0  0  0
  1 25  1  0  0  0
  1 30  2  0  0  0
  1 82  1  0  0  0
  2  3  1  0  0  0
  2 25  1  0  0  0
  2 84  1  0  0  0
  2 85  1  0  0  0
  3  4  1  0  0  0
  3 86  1  0  0  0
  3 87  1  0  0  0
  4  5  1  0  0  0
  4 88  1  0  0  0
  4 89  1  0  0  0
  5  6  1  0  0  0
  5 26  1  0  0  0
  5 90  1  0  0  0
  6 25  1  0  0  0
  6 91  1  0  0  0
  6 92  1  0  0  0
  7  8  2  0  0  0
  7 26  1  0  0  0
  7 29  1  0  0  0
  8  9  1  0  0  0
  8 22  1  0  0  0
  9 10  1  0  0  0
  9 27  2  0  0  0
 10 11  2  0  0  0
 10 15  1  0  0  0
 11 12  1  0  0  0
 11 93  1  0  0  0
 12 13  2  0  0  0
 12 94  1  0  0  0
 13 14  1  0  0  0
 13 31  1  0  0  0
 14 15  2  0  0  0
 14 95  1  0  0  0
 15 96  1  0  0  0
 16 17  2  0  0  0
 16 21  1  0  0  0
 16 31  1  0  0  0
 17 18  1  0  0  0
 17 97  1  0  0  0
 18 19  2  0  0  0
 18 98  1  0  0  0
 19 20  1  0  0  0
 19 24  1  0  0  0
 20 21  2  0  0  0
 20 99  1  0  0  0
 21 23  1  0  0  0
 22 28  1  0  0  0
 22 32  2  0  0  0
 26 27  1  0  0  0
 28100  1  0  0  0
 28101  1  0  0  0
 29102  1  0  0  0
 29103  1  0  0  0
 33 34  1  0  0  0
 33 66  1  0  0  0
 33 70  2  0  0  0
 34 36  1  0  0  0
 34 59  1  0  0  0
 34104  1  0  0  0
 35 44  2  0  0  0
 35 45  1  0  0  0
 35 68  1  0  0  0
 36 56  1  0  0  0
 36105  1  0  0  0
 37 39  1  0  0  0
 37 47  1  0  0  0
 37 66  1  0  0  0
 37106  1  0  0  0
 38 43  2  0  0  0
 38 46  1  0  0  0
 38 47  1  0  0  0
 39 64  1  0  0  0
 39 67  2  0  0  0
 40 52  1  0  0  0
 40 53  2  0  0  0
 40 58  1  0  0  0
 41107  1  0  0  0
 41108  1  0  0  0
 41109  1  0  0  0
 41 48  1  0  0  0
 42 43  1  0  0  0
 42 66  1  0  0  0
 42110  1  0  0  0
 42111  1  0  0  0
 43 44  1  0  0  0
 44112  1  0  0  0
 45 46  2  0  0  0
 45113  1  0  0  0
 46114  1  0  0  0
 47115  1  0  0  0
 47116  1  0  0  0
 48 56  1  0  0  0
 48 65  1  0  0  0
 48117  1  0  0  0
 49 50  1  0  0  0
 49 53  1  0  0  0
 49 64  1  0  0  0
 49118  1  0  0  0
 50 51  1  0  0  0
 50119  1  0  0  0
 50120  1  0  0  0
 51 52  1  0  0  0
 51121  1  0  0  0
 51122  1  0  0  0
 52123  1  0  0  0
 52124  1  0  0  0
 53 54  1  0  0  0
 54 55  2  0  0  0
 54125  1  0  0  0
 55 57  1  0  0  0
 55126  1  0  0  0
 56 69  2  0  0  0
 57 58  2  0  0  0
 57127  1  0  0  0
 58128  1  0  0  0
 59 60  1  0  0  0
 59 61  1  0  0  0
 59 62  1  0  0  0
 60129  1  0  0  0
 60130  1  0  0  0
 60131  1  0  0  0
 61132  1  0  0  0
 61133  1  0  0  0
 61134  1  0  0  0
 62135  1  0  0  0
 62136  1  0  0  0
 62137  1  0  0  0
 63 65  1  0  0  0
 63138  1  0  0  0
 63139  1  0  0  0
 63140  1  0  0  0
 64141  1  0  0  0
 65142  1  0  0  0
 68 81  1  0  0  0
 71 72  1  0  0  0
 71 75  1  0  0  0
 71143  1  0  0  0
 71144  1  0  0  0
 72145  1  0  0  0
 72146  1  0  0  0
 72 79  1  0  0  0
 73 74  1  0  0  0
 73147  1  0  0  0
 73148  1  0  0  0
 73 78  1  0  0  0
 74 82  1  0  0  0
 74149  1  0  0  0
 74150  1  0  0  0
 75 76  1  0  0  0
 75 80  1  0  0  0
 75151  1  0  0  0
 76 79  1  0  0  0
 76 81  1  0  0  0
 76152  1  0  0  0
 77 78  1  0  0  0
 77 79  1  0  0  0
 77 82  1  0  0  0
 77153  1  0  0  0
 78 83  1  0  0  0
 78154  1  0  0  0
 79 83  1  0  0  0
 80155  1  0  0  0
 80156  1  0  0  0
 80157  1  0  0  0
 81158  1  0  0  0
 81159  1  0  0  0
M  ISO  4   1 100  68 101  81 101  82 100
M  END
> <chiral flag>
0

> <version>
0

> <s_m_source_file>
/data/baiqing/PycharmProjects/Reinvent-master-3.2/result/LINK_invent/BTK/process_docking_weight1_custom_sum_contain_oxygen_bond_distance_aromatic_linkinvent_7_9_3/rearranged_h_0165.sdf

> <i_m_source_file_index>
28

> <r_mmod_Potential_Energy-OPLS-2005>
3216.41259765625

> <r_mmod_Stretch_Energy-OPLS-2005>
1071.10217285156

> <r_mmod_Bend_Energy-OPLS-2005>
1059.03576660156

> <r_mmod_Torsional_Energy-OPLS-2005>
421.659362792969

> <r_mmod_Improper_Torsional_Energy-OPLS-2005>
5.18542623519897

> <r_mmod_Van_der_Waal_Energy-OPLS-2005>
155.065948486328

> <r_mmod_Electrostatic_Energy-OPLS-2005>
-304.582733154297

> <r_mmod_Solvation_Energy-OPLS-2005>
-215.53662109375

> <b_mmod_Minimization_Converged-OPLS-2005>
0

> <r_mmod_RMS_Derivative-OPLS-2005>
46.3923110961914

$$$$
28
                    3D
 Structure written by MMmdl.
172181  0  0  1  0            999 V2000
  -30.5811  -14.8982   20.4227 C   0  0  0  0  0  0
  -30.4280  -12.5537   19.4953 C   0  0  0  0  0  0
  -29.5138  -12.5208   18.2513 C   0  0  0  0  0  0
  -28.0452  -12.3223   18.6692 C   0  0  0  0  0  0
  -27.6296  -13.2510   19.8414 C   0  0  2  0  0  0
  -28.6727  -13.2737   20.9784 C   0  0  0  0  0  0
  -25.2460  -13.8231   20.5729 C   0  0  0  0  0  0
  -24.1774  -13.0448   20.9225 C   0  0  0  0  0  0
  -24.6392  -11.6933   20.8752 C   0  0  0  0  0  0
  -23.9078  -10.4298   21.0400 C   0  0  0  0  0  0
  -24.3629   -9.4211   21.9178 C   0  0  0  0  0  0
  -23.6306   -8.2243   22.0744 C   0  0  0  0  0  0
  -22.4287   -8.0281   21.3536 C   0  0  0  0  0  0
  -21.9926   -9.0256   20.4640 C   0  0  0  0  0  0
  -22.7250  -10.2137   20.3048 C   0  0  0  0  0  0
  -21.6855   -6.0736   22.5276 C   0  0  0  0  0  0
  -21.4016   -6.5639   23.8211 C   0  0  0  0  0  0
  -21.3663   -5.6790   24.9173 C   0  0  0  0  0  0
  -21.6050   -4.3055   24.7220 C   0  0  0  0  0  0
  -21.8821   -3.8144   23.4342 C   0  0  0  0  0  0
  -21.9195   -4.6962   22.3399 C   0  0  0  0  0  0
  -22.7797  -13.5215   21.1885 C   0  0  0  0  0  0
  -22.1663   -4.2147   21.0977 F   0  0  0  0  0  0
  -21.5633   -3.4537   25.7732 F   0  0  0  0  0  0
  -29.9507  -13.6597   20.3724 N   0  0  0  0  0  0
  -26.2886  -12.9469   20.3277 N   0  0  0  0  0  0
  -25.9327  -11.6592   20.5756 N   0  0  0  0  0  0
  -22.0455  -12.8192   22.0442 N   0  0  0  0  0  0
  -25.4153  -15.1956   20.4176 N   0  0  0  0  0  0
  -31.7835  -14.9236   20.1350 O   0  0  0  0  0  0
  -21.6645   -6.8881   21.4238 O   0  0  0  0  0  0
  -22.3478  -14.5521   20.6738 O   0  0  0  0  0  0
  -24.6422  -31.8459   23.1904 C   0  0  0  0  0  0
  -25.9204  -32.4704   23.8284 C   0  0  1  0  0  0
  -27.2118  -27.1520   20.1400 C   0  0  0  0  0  0
  -25.5961  -33.8509   24.2204 N   0  0  0  0  0  0
  -23.4442  -30.4670   21.5366 C   0  0  2  0  0  0
  -24.8917  -28.8991   20.1094 C   0  0  0  0  0  0
  -22.7561  -29.4554   22.4873 C   0  0  0  0  0  0
  -18.0303  -28.1388   22.8480 C   0  0  0  0  0  0
  -24.1494  -36.7261   23.2642 C   0  0  0  0  0  0
  -26.0000  -30.7238   21.3877 C   0  0  0  0  0  0
  -26.0701  -29.3379   20.7265 C   0  0  0  0  0  0
  -27.2321  -28.4801   20.7250 C   0  0  0  0  0  0
  -26.0057  -26.8135   19.4857 C   0  0  0  0  0  0
  -24.8718  -27.6503   19.4748 C   0  0  0  0  0  0
  -23.6686  -29.7998   20.1548 C   0  0  0  0  0  0
  -25.4125  -36.3038   24.0317 C   0  0  1  0  0  0
  -20.5915  -28.3716   23.1243 C   0  0  2  0  0  0
  -20.6791  -26.9423   22.5406 C   0  0  0  0  0  0
  -19.5765  -26.6379   21.5214 C   0  0  0  0  0  0
  -18.1944  -26.7931   22.1622 C   0  0  0  0  0  0
  -19.1557  -28.8870   23.2854 C   0  0  0  0  0  0
  -18.9473  -30.1468   23.8878 C   0  0  0  0  0  0
  -17.6470  -30.6588   24.0556 C   0  0  0  0  0  0
  -25.9073  -34.9412   23.5067 C   0  0  0  0  0  0
  -16.5360  -29.9079   23.6336 C   0  0  0  0  0  0
  -16.7287  -28.6496   23.0359 C   0  0  0  0  0  0
  -26.4524  -31.6565   25.0722 C   0  0  0  0  0  0
  -25.3713  -31.3752   26.1421 C   0  0  0  0  0  0
  -27.0385  -30.2960   24.6297 C   0  0  0  0  0  0
  -27.6059  -32.4326   25.7507 C   0  0  0  0  0  0
  -27.5576  -37.1789   24.8463 C   0  0  0  0  0  0
  -21.4253  -29.3045   22.3620 N   0  0  0  0  0  0
  -26.4289  -37.3750   23.9405 N   0  0  0  0  0  0
  -24.7152  -31.0329   22.0932 N   0  0  0  0  0  0
  -23.4212  -28.8098   23.3014 O   0  0  0  0  0  0
  -28.2621  -26.1702   20.2122 O   0  0  0  0  0  0
  -26.5654  -34.8906   22.4641 O   0  0  0  0  0  0
  -23.5545  -32.1327   23.7137 O   0  0  0  0  0  0
  -28.9982  -23.3750   20.1654 C   0  0  0  0  0  0
  -28.5755  -21.9471   20.2103 C   0  0  0  0  0  0
  -30.4191  -23.5419   20.1973 C   0  0  0  0  0  0
  -29.5061  -20.8095   20.3421 C   0  0  0  0  0  0
  -31.2407  -22.4001   20.4389 C   0  0  0  0  0  0
  -30.0490  -18.5834   19.2933 C   0  0  0  0  0  0
  -29.5065  -18.5418   21.5356 C   0  0  0  0  0  0
  -29.8010  -17.0035   19.1533 C   0  0  0  0  0  0
  -29.3027  -16.9305   21.5027 C   0  0  0  0  0  0
  -27.0917  -21.6422   20.0881 C   0  0  0  0  0  0
  -32.1722  -24.9737   18.8943 C   0  0  0  0  0  0
  -31.4164  -25.6506   21.2466 C   0  0  0  0  0  0
  -33.5106  -21.4370   20.3154 C   0  0  0  0  0  0
  -27.9701  -24.6597   19.9852 C   0  0  0  0  0  0
  -31.0388  -24.9340   19.9417 C   0  0  0  0  0  0
  -30.7990  -21.1249   20.5017 N   0  0  0  0  0  0
  -29.2555  -19.3439   20.2997 N   0  0  0  0  0  0
  -29.8390  -16.1124   20.3617 N   0  0  0  0  0  0
  -32.6154  -22.5362   20.6610 N   0  0  0  0  0  0
  -31.4661  -12.6854   19.1868 H   0  0  0  0  0  0
  -30.3972  -11.6009   20.0263 H   0  0  0  0  0  0
  -29.8229  -11.7232   17.5746 H   0  0  0  0  0  0
  -29.6157  -13.4536   17.6945 H   0  0  0  0  0  0
  -27.9295  -11.2802   18.9686 H   0  0  0  0  0  0
  -27.3827  -12.4666   17.8150 H   0  0  0  0  0  0
  -27.5966  -14.2568   19.4210 H   0  0  0  0  0  0
  -28.7462  -12.3028   21.4703 H   0  0  0  0  0  0
  -28.3846  -13.9940   21.7456 H   0  0  0  0  0  0
  -25.2768   -9.5692   22.4760 H   0  0  0  0  0  0
  -24.0018   -7.4633   22.7461 H   0  0  0  0  0  0
  -21.0857   -8.8773   19.8949 H   0  0  0  0  0  0
  -22.3700  -10.9678   19.6163 H   0  0  0  0  0  0
  -21.2005   -7.6146   23.9715 H   0  0  0  0  0  0
  -21.1488   -6.0517   25.9080 H   0  0  0  0  0  0
  -22.0600   -2.7606   23.2834 H   0  0  0  0  0  0
  -22.4082  -11.9852   22.4822 H   0  0  0  0  0  0
  -21.1071  -13.1206   22.2660 H   0  0  0  0  0  0
  -24.6519  -15.8521   20.5368 H   0  0  0  0  0  0
  -26.2733  -15.6366   20.1110 H   0  0  0  0  0  0
  -26.7267  -32.5310   23.1012 H   0  0  0  0  0  0
  -25.0092  -33.9626   25.0339 H   0  0  0  0  0  0
  -22.7457  -31.2926   21.3853 H   0  0  0  0  0  0
  -23.3759  -35.9590   23.3294 H   0  0  0  0  0  0
  -24.3580  -36.8900   22.2058 H   0  0  0  0  0  0
  -23.7246  -37.6455   23.6681 H   0  0  0  0  0  0
  -26.1561  -31.4808   20.6181 H   0  0  0  0  0  0
  -26.8707  -30.7704   22.0303 H   0  0  0  0  0  0
  -28.1298  -28.8101   21.2291 H   0  0  0  0  0  0
  -25.8948  -25.8614   18.9912 H   0  0  0  0  0  0
  -23.9715  -27.3095   18.9813 H   0  0  0  0  0  0
  -23.8039  -30.5758   19.4006 H   0  0  0  0  0  0
  -22.7834  -29.2417   19.8446 H   0  0  0  0  0  0
  -25.1312  -36.1867   25.0810 H   0  0  0  0  0  0
  -21.0001  -28.3300   24.1367 H   0  0  0  0  0  0
  -20.5688  -26.2327   23.3619 H   0  0  0  0  0  0
  -21.6654  -26.7435   22.1199 H   0  0  0  0  0  0
  -19.6926  -25.6284   21.1259 H   0  0  0  0  0  0
  -19.6704  -27.3175   20.6733 H   0  0  0  0  0  0
  -17.4215  -26.6678   21.4019 H   0  0  0  0  0  0
  -18.0341  -26.0073   22.9018 H   0  0  0  0  0  0
  -19.7945  -30.7288   24.2238 H   0  0  0  0  0  0
  -17.5020  -31.6267   24.5156 H   0  0  0  0  0  0
  -15.5357  -30.2970   23.7675 H   0  0  0  0  0  0
  -15.8689  -28.0806   22.7091 H   0  0  0  0  0  0
  -24.5901  -30.7088   25.7744 H   0  0  0  0  0  0
  -24.8890  -32.2931   26.4792 H   0  0  0  0  0  0
  -25.8001  -30.8963   27.0233 H   0  0  0  0  0  0
  -26.2995  -29.6689   24.1296 H   0  0  0  0  0  0
  -27.3985  -29.7256   25.4869 H   0  0  0  0  0  0
  -27.8912  -30.4193   23.9619 H   0  0  0  0  0  0
  -27.2654  -33.3642   26.2040 H   0  0  0  0  0  0
  -28.3895  -32.6862   25.0354 H   0  0  0  0  0  0
  -28.0700  -31.8480   26.5460 H   0  0  0  0  0  0
  -28.2588  -38.0090   24.7506 H   0  0  0  0  0  0
  -28.1077  -36.2619   24.6292 H   0  0  0  0  0  0
  -27.2295  -37.1440   25.8867 H   0  0  0  0  0  0
  -20.9459  -29.8759   21.6804 H   0  0  0  0  0  0
  -26.0157  -38.2819   24.1399 H   0  0  0  0  0  0
  -29.8773  -19.0467   18.3206 H   0  0  0  0  0  0
  -31.1095  -18.7385   19.4991 H   0  0  0  0  0  0
  -30.5297  -18.7461   21.8559 H   0  0  0  0  0  0
  -28.8777  -18.9533   22.3262 H   0  0  0  0  0  0
  -30.5024  -16.6180   18.4116 H   0  0  0  0  0  0
  -28.8170  -16.8596   18.7064 H   0  0  0  0  0  0
  -28.2308  -16.7321   21.5302 H   0  0  0  0  0  0
  -29.6918  -16.5158   22.4341 H   0  0  0  0  0  0
  -26.7012  -22.0157   19.1412 H   0  0  0  0  0  0
  -26.5372  -22.1124   20.9004 H   0  0  0  0  0  0
  -26.8894  -20.5719   20.1310 H   0  0  0  0  0  0
  -31.8848  -24.4456   17.9840 H   0  0  0  0  0  0
  -33.1172  -24.5612   19.2402 H   0  0  0  0  0  0
  -32.3849  -26.0046   18.6081 H   0  0  0  0  0  0
  -30.5487  -25.7598   21.8984 H   0  0  0  0  0  0
  -31.7978  -26.6524   21.0465 H   0  0  0  0  0  0
  -32.1829  -25.1120   21.8034 H   0  0  0  0  0  0
  -34.5472  -21.7742   20.3229 H   0  0  0  0  0  0
  -33.2890  -21.0524   19.3186 H   0  0  0  0  0  0
  -33.4154  -20.6179   21.0294 H   0  0  0  0  0  0
  -27.1003  -24.4312   20.6007 H   0  0  0  0  0  0
  -27.6348  -24.5709   18.9520 H   0  0  0  0  0  0
  -30.2978  -25.5431   19.4405 H   0  0  0  0  0  0
  -32.9857  -23.4747   20.5695 H   0  0  0  0  0  0
  1 25  1  0  0  0
  1 30  2  0  0  0
  1 88  1  0  0  0
  2  3  1  0  0  0
  2 25  1  0  0  0
  2 90  1  0  0  0
  2 91  1  0  0  0
  3  4  1  0  0  0
  3 92  1  0  0  0
  3 93  1  0  0  0
  4  5  1  0  0  0
  4 94  1  0  0  0
  4 95  1  0  0  0
  5  6  1  0  0  0
  5 26  1  0  0  0
  5 96  1  0  0  0
  6 25  1  0  0  0
  6 97  1  0  0  0
  6 98  1  0  0  0
  7  8  2  0  0  0
  7 26  1  0  0  0
  7 29  1  0  0  0
  8  9  1  0  0  0
  8 22  1  0  0  0
  9 10  1  0  0  0
  9 27  2  0  0  0
 10 11  2  0  0  0
 10 15  1  0  0  0
 11 12  1  0  0  0
 11 99  1  0  0  0
 12 13  2  0  0  0
 12100  1  0  0  0
 13 14  1  0  0  0
 13 31  1  0  0  0
 14 15  2  0  0  0
 14101  1  0  0  0
 15102  1  0  0  0
 16 17  2  0  0  0
 16 21  1  0  0  0
 16 31  1  0  0  0
 17 18  1  0  0  0
 17103  1  0  0  0
 18 19  2  0  0  0
 18104  1  0  0  0
 19 20  1  0  0  0
 19 24  1  0  0  0
 20 21  2  0  0  0
 20105  1  0  0  0
 21 23  1  0  0  0
 22 28  1  0  0  0
 22 32  2  0  0  0
 26 27  1  0  0  0
 28106  1  0  0  0
 28107  1  0  0  0
 29108  1  0  0  0
 29109  1  0  0  0
 33 34  1  0  0  0
 33 66  1  0  0  0
 33 70  2  0  0  0
 34 36  1  0  0  0
 34 59  1  0  0  0
 34110  1  0  0  0
 35 44  2  0  0  0
 35 45  1  0  0  0
 35 68  1  0  0  0
 36 56  1  0  0  0
 36111  1  0  0  0
 37 39  1  0  0  0
 37 47  1  0  0  0
 37 66  1  0  0  0
 37112  1  0  0  0
 38 43  2  0  0  0
 38 46  1  0  0  0
 38 47  1  0  0  0
 39 64  1  0  0  0
 39 67  2  0  0  0
 40 52  1  0  0  0
 40 53  2  0  0  0
 40 58  1  0  0  0
 41113  1  0  0  0
 41114  1  0  0  0
 41115  1  0  0  0
 41 48  1  0  0  0
 42 43  1  0  0  0
 42 66  1  0  0  0
 42116  1  0  0  0
 42117  1  0  0  0
 43 44  1  0  0  0
 44118  1  0  0  0
 45 46  2  0  0  0
 45119  1  0  0  0
 46120  1  0  0  0
 47121  1  0  0  0
 47122  1  0  0  0
 48 56  1  0  0  0
 48 65  1  0  0  0
 48123  1  0  0  0
 49 50  1  0  0  0
 49 53  1  0  0  0
 49 64  1  0  0  0
 49124  1  0  0  0
 50 51  1  0  0  0
 50125  1  0  0  0
 50126  1  0  0  0
 51 52  1  0  0  0
 51127  1  0  0  0
 51128  1  0  0  0
 52129  1  0  0  0
 52130  1  0  0  0
 53 54  1  0  0  0
 54 55  2  0  0  0
 54131  1  0  0  0
 55 57  1  0  0  0
 55132  1  0  0  0
 56 69  2  0  0  0
 57 58  2  0  0  0
 57133  1  0  0  0
 58134  1  0  0  0
 59 60  1  0  0  0
 59 61  1  0  0  0
 59 62  1  0  0  0
 60135  1  0  0  0
 60136  1  0  0  0
 60137  1  0  0  0
 61138  1  0  0  0
 61139  1  0  0  0
 61140  1  0  0  0
 62141  1  0  0  0
 62142  1  0  0  0
 62143  1  0  0  0
 63 65  1  0  0  0
 63144  1  0  0  0
 63145  1  0  0  0
 63146  1  0  0  0
 64147  1  0  0  0
 65148  1  0  0  0
 68 84  1  0  0  0
 71 72  2  0  0  0
 71 73  1  0  0  0
 71 84  1  0  0  0
 72 74  1  0  0  0
 72 80  1  0  0  0
 73 75  2  0  0  0
 73 85  1  0  0  0
 74 86  2  0  0  0
 74 87  1  0  0  0
 75 86  1  0  0  0
 75 89  1  0  0  0
 76 78  1  0  0  0
 76 87  1  0  0  0
 76149  1  0  0  0
 76150  1  0  0  0
 77 79  1  0  0  0
 77 87  1  0  0  0
 77151  1  0  0  0
 77152  1  0  0  0
 78 88  1  0  0  0
 78153  1  0  0  0
 78154  1  0  0  0
 79 88  1  0  0  0
 79155  1  0  0  0
 79156  1  0  0  0
 80157  1  0  0  0
 80158  1  0  0  0
 80159  1  0  0  0
 81160  1  0  0  0
 81161  1  0  0  0
 81162  1  0  0  0
 81 85  1  0  0  0
 82 85  1  0  0  0
 82163  1  0  0  0
 82164  1  0  0  0
 82165  1  0  0  0
 83 89  1  0  0  0
 83166  1  0  0  0
 83167  1  0  0  0
 83168  1  0  0  0
 84169  1  0  0  0
 84170  1  0  0  0
 85171  1  0  0  0
 89172  1  0  0  0
M  ISO  4   1 100  68 101  84 101  88 100
M  END
> <chiral flag>
0

> <version>
0

> <s_m_source_file>
/data/baiqing/PycharmProjects/Reinvent-master-3.2/result/LINK_invent/BTK/process_docking_weight1_custom_sum_contain_oxygen_bond_distance_aromatic_linkinvent_7_9_3/rearranged_h_0165.sdf

> <i_m_source_file_index>
29

> <r_mmod_Potential_Energy-OPLS-2005>
365.783966064453

> <r_mmod_Stretch_Energy-OPLS-2005>
213.166259765625

> <r_mmod_Bend_Energy-OPLS-2005>
258.486755371094

> <r_mmod_Torsional_Energy-OPLS-2005>
379.006072998047

> <r_mmod_Improper_Torsional_Energy-OPLS-2005>
22.1431922912598

> <r_mmod_Van_der_Waal_Energy-OPLS-2005>
154.685958862305

> <r_mmod_Electrostatic_Energy-OPLS-2005>
-595.10009765625

> <r_mmod_Solvation_Energy-OPLS-2005>
-234.988632202148

> <b_mmod_Minimization_Converged-OPLS-2005>
0

> <r_mmod_RMS_Derivative-OPLS-2005>
0.79877233505249

$$$$
29
                    3D
 Structure written by MMmdl.
172183  0  0  1  0            999 V2000
  -30.6864  -14.7852   20.4234 C   0  0  0  0  0  0
  -30.4064  -12.4887   19.4774 C   0  0  0  0  0  0
  -29.4955  -12.4970   18.2350 C   0  0  0  0  0  0
  -28.0289  -12.3118   18.6600 C   0  0  0  0  0  0
  -27.6248  -13.2409   19.8356 C   0  0  2  0  0  0
  -28.6761  -13.2741   20.9662 C   0  0  0  0  0  0
  -25.2462  -13.8210   20.5751 C   0  0  0  0  0  0
  -24.1766  -13.0439   20.9238 C   0  0  0  0  0  0
  -24.6375  -11.6922   20.8773 C   0  0  0  0  0  0
  -23.9062  -10.4292   21.0416 C   0  0  0  0  0  0
  -24.3617   -9.4203   21.9189 C   0  0  0  0  0  0
  -23.6293   -8.2237   22.0755 C   0  0  0  0  0  0
  -22.4275   -8.0278   21.3543 C   0  0  0  0  0  0
  -21.9911   -9.0251   20.4646 C   0  0  0  0  0  0
  -22.7237  -10.2132   20.3059 C   0  0  0  0  0  0
  -21.6852   -6.0735   22.5278 C   0  0  0  0  0  0
  -21.4013   -6.5640   23.8212 C   0  0  0  0  0  0
  -21.3658   -5.6793   24.9175 C   0  0  0  0  0  0
  -21.6045   -4.3057   24.7227 C   0  0  0  0  0  0
  -21.8819   -3.8148   23.4348 C   0  0  0  0  0  0
  -21.9192   -4.6963   22.3403 C   0  0  0  0  0  0
  -22.7788  -13.5213   21.1883 C   0  0  0  0  0  0
  -22.1662   -4.2150   21.0980 F   0  0  0  0  0  0
  -21.5626   -3.4540   25.7738 F   0  0  0  0  0  0
  -29.9644  -13.6075   20.3512 N   0  0  0  0  0  0
  -26.2872  -12.9425   20.3298 N   0  0  0  0  0  0
  -25.9308  -11.6562   20.5790 N   0  0  0  0  0  0
  -22.0437  -12.8197   22.0434 N   0  0  0  0  0  0
  -25.4163  -15.1935   20.4194 N   0  0  0  0  0  0
  -31.9016  -14.7014   20.2249 O   0  0  0  0  0  0
  -21.6638   -6.8876   21.4239 O   0  0  0  0  0  0
  -22.3474  -14.5517   20.6727 O   0  0  0  0  0  0
  -24.6345  -31.8529   23.1979 C   0  0  0  0  0  0
  -25.9157  -32.4743   23.8331 C   0  0  1  0  0  0
  -27.2075  -27.2374   20.1424 C   0  0  0  0  0  0
  -25.5941  -33.8546   24.2247 N   0  0  0  0  0  0
  -23.4329  -30.4766   21.5413 C   0  0  2  0  0  0
  -24.8816  -28.9248   20.1070 C   0  0  0  0  0  0
  -22.7527  -29.4591   22.4902 C   0  0  0  0  0  0
  -18.0294  -28.1397   22.8480 C   0  0  0  0  0  0
  -24.1490  -36.7276   23.2641 C   0  0  0  0  0  0
  -25.9820  -30.7588   21.3836 C   0  0  0  0  0  0
  -26.0550  -29.3807   20.7240 C   0  0  0  0  0  0
  -27.2257  -28.5497   20.7310 C   0  0  0  0  0  0
  -26.0221  -26.8664   19.4743 C   0  0  0  0  0  0
  -24.8720  -27.6770   19.4674 C   0  0  0  0  0  0
  -23.6532  -29.8137   20.1565 C   0  0  0  0  0  0
  -25.4116  -36.3057   24.0324 C   0  0  1  0  0  0
  -20.5903  -28.3711   23.1258 C   0  0  2  0  0  0
  -20.6782  -26.9426   22.5404 C   0  0  0  0  0  0
  -19.5755  -26.6386   21.5213 C   0  0  0  0  0  0
  -18.1934  -26.7937   22.1621 C   0  0  0  0  0  0
  -19.1550  -28.8871   23.2860 C   0  0  0  0  0  0
  -18.9468  -30.1467   23.8883 C   0  0  0  0  0  0
  -17.6467  -30.6594   24.0563 C   0  0  0  0  0  0
  -25.9062  -34.9430   23.5086 C   0  0  0  0  0  0
  -16.5358  -29.9089   23.6340 C   0  0  0  0  0  0
  -16.7279  -28.6510   23.0357 C   0  0  0  0  0  0
  -26.4512  -31.6582   25.0734 C   0  0  0  0  0  0
  -25.3722  -31.3738   26.1446 C   0  0  0  0  0  0
  -27.0377  -30.2995   24.6251 C   0  0  0  0  0  0
  -27.6056  -32.4342   25.7507 C   0  0  0  0  0  0
  -27.5575  -37.1789   24.8462 C   0  0  0  0  0  0
  -21.4231  -29.3050   22.3647 N   0  0  0  0  0  0
  -26.4285  -37.3761   23.9410 N   0  0  0  0  0  0
  -24.7021  -31.0479   22.0968 N   0  0  0  0  0  0
  -23.4211  -28.8129   23.3011 O   0  0  0  0  0  0
  -28.2420  -26.2692   20.1977 O   0  0  0  0  0  0
  -26.5636  -34.8907   22.4657 O   0  0  0  0  0  0
  -23.5487  -32.1362   23.7260 O   0  0  0  0  0  0
  -28.9049  -21.4414   19.1803 C   0  0  0  0  0  0
  -28.6782  -22.8776   19.3275 C   0  0  0  0  0  0
  -28.4587  -23.4793   20.6052 C   0  0  0  0  0  0
  -28.5917  -22.5378   21.6784 C   0  0  0  0  0  0
  -29.0311  -20.5986   20.3439 C   0  0  0  0  0  0
  -28.3547  -21.2330   16.5435 C   0  0  0  0  0  0
  -28.0207  -19.9288   17.1908 C   0  0  0  0  0  0
  -31.6042  -17.5664   19.3722 C   0  0  0  0  0  0
  -30.4593  -17.1642   18.4372 C   0  0  0  0  0  0
  -30.3140  -18.5787   21.3214 C   0  0  0  0  0  0
  -28.5225  -18.0522   19.8754 C   0  0  0  0  0  0
  -29.0910  -20.8106   17.8103 C   0  0  0  0  0  0
  -31.0140  -17.2551   20.7700 C   0  0  1  0  0  0
  -29.3513  -16.7494   19.4261 C   0  0  2  0  0  0
  -28.6806  -23.8159   18.1288 C   0  0  0  0  0  0
  -28.3705  -22.9601   23.1203 C   0  0  0  0  0  0
  -27.8674  -24.9689   20.8734 C   0  0  0  0  0  0
  -28.8937  -21.2030   21.5496 N   0  0  0  0  0  0
  -29.3819  -19.1740   20.3399 N   0  0  0  0  0  0
  -30.1022  -16.0719   20.5350 N   0  0  0  0  0  0
  -31.4485  -12.5735   19.1657 H   0  0  0  0  0  0
  -30.3335  -11.5371   20.0064 H   0  0  0  0  0  0
  -29.7875  -11.7048   17.5442 H   0  0  0  0  0  0
  -29.6110  -13.4374   17.6935 H   0  0  0  0  0  0
  -27.9060  -11.2689   18.9552 H   0  0  0  0  0  0
  -27.3646  -12.4657   17.8087 H   0  0  0  0  0  0
  -27.5793  -14.2383   19.4071 H   0  0  0  0  0  0
  -28.7301  -12.3155   21.4839 H   0  0  0  0  0  0
  -28.4085  -14.0229   21.7138 H   0  0  0  0  0  0
  -25.2757   -9.5684   22.4767 H   0  0  0  0  0  0
  -24.0003   -7.4629   22.7472 H   0  0  0  0  0  0
  -21.0843   -8.8768   19.8952 H   0  0  0  0  0  0
  -22.3692  -10.9672   19.6172 H   0  0  0  0  0  0
  -21.2006   -7.6149   23.9715 H   0  0  0  0  0  0
  -21.1478   -6.0525   25.9076 H   0  0  0  0  0  0
  -22.0599   -2.7610   23.2848 H   0  0  0  0  0  0
  -22.4061  -11.9861   22.4820 H   0  0  0  0  0  0
  -21.1054  -13.1213   22.2642 H   0  0  0  0  0  0
  -24.6526  -15.8499   20.5384 H   0  0  0  0  0  0
  -26.2764  -15.6331   20.1212 H   0  0  0  0  0  0
  -26.7227  -32.5379   23.1074 H   0  0  0  0  0  0
  -25.0092  -33.9686   25.0395 H   0  0  0  0  0  0
  -22.7302  -31.2995   21.3954 H   0  0  0  0  0  0
  -23.3751  -35.9606   23.3293 H   0  0  0  0  0  0
  -24.3578  -36.8913   22.2056 H   0  0  0  0  0  0
  -23.7247  -37.6472   23.6683 H   0  0  0  0  0  0
  -26.1264  -31.5195   20.6147 H   0  0  0  0  0  0
  -26.8569  -30.8059   22.0201 H   0  0  0  0  0  0
  -28.1196  -28.8869   21.2370 H   0  0  0  0  0  0
  -25.9682  -25.9076   18.9784 H   0  0  0  0  0  0
  -23.9779  -27.3276   18.9694 H   0  0  0  0  0  0
  -23.7788  -30.5916   19.4028 H   0  0  0  0  0  0
  -22.7704  -29.2494   19.8503 H   0  0  0  0  0  0
  -25.1300  -36.1894   25.0816 H   0  0  0  0  0  0
  -20.9986  -28.3293   24.1381 H   0  0  0  0  0  0
  -20.5687  -26.2324   23.3616 H   0  0  0  0  0  0
  -21.6648  -26.7451   22.1193 H   0  0  0  0  0  0
  -19.6918  -25.6292   21.1255 H   0  0  0  0  0  0
  -19.6691  -27.3187   20.6736 H   0  0  0  0  0  0
  -17.4204  -26.6687   21.4022 H   0  0  0  0  0  0
  -18.0327  -26.0085   22.9023 H   0  0  0  0  0  0
  -19.7944  -30.7289   24.2248 H   0  0  0  0  0  0
  -17.5020  -31.6274   24.5167 H   0  0  0  0  0  0
  -15.5356  -30.2983   23.7679 H   0  0  0  0  0  0
  -15.8681  -28.0824   22.7081 H   0  0  0  0  0  0
  -24.5906  -30.7083   25.7769 H   0  0  0  0  0  0
  -24.8904  -32.2908   26.4851 H   0  0  0  0  0  0
  -25.8023  -30.8929   27.0242 H   0  0  0  0  0  0
  -26.2984  -29.6720   24.1261 H   0  0  0  0  0  0
  -27.4036  -29.7280   25.4792 H   0  0  0  0  0  0
  -27.8868  -30.4262   23.9530 H   0  0  0  0  0  0
  -27.2662  -33.3663   26.2041 H   0  0  0  0  0  0
  -28.3885  -32.6874   25.0344 H   0  0  0  0  0  0
  -28.0709  -31.8499   26.5456 H   0  0  0  0  0  0
  -28.2581  -38.0096   24.7519 H   0  0  0  0  0  0
  -28.1084  -36.2627   24.6280 H   0  0  0  0  0  0
  -27.2294  -37.1425   25.8864 H   0  0  0  0  0  0
  -20.9430  -29.8774   21.6844 H   0  0  0  0  0  0
  -26.0155  -38.2830   24.1418 H   0  0  0  0  0  0
  -27.5552  -21.9687   16.5782 H   0  0  0  0  0  0
  -28.8981  -21.1843   15.6018 H   0  0  0  0  0  0
  -28.3296  -19.0318   16.6577 H   0  0  0  0  0  0
  -27.0427  -19.8768   17.6660 H   0  0  0  0  0  0
  -31.8849  -18.6149   19.2603 H   0  0  0  0  0  0
  -32.4973  -16.9755   19.1665 H   0  0  0  0  0  0
  -30.7575  -16.3244   17.8079 H   0  0  0  0  0  0
  -30.1556  -17.9749   17.7760 H   0  0  0  0  0  0
  -31.0786  -19.3192   21.5608 H   0  0  0  0  0  0
  -29.7861  -18.3730   22.2537 H   0  0  0  0  0  0
  -27.8444  -17.7834   20.6865 H   0  0  0  0  0  0
  -27.8760  -18.3765   19.0691 H   0  0  0  0  0  0
  -30.1242  -20.4872   17.6954 H   0  0  0  0  0  0
  -31.8097  -16.9844   21.4675 H   0  0  0  0  0  0
  -28.6740  -16.0493   18.9413 H   0  0  0  0  0  0
  -29.3335  -23.4664   17.3312 H   0  0  0  0  0  0
  -29.0724  -24.7944   18.3995 H   0  0  0  0  0  0
  -27.6721  -23.9550   17.7404 H   0  0  0  0  0  0
  -27.3597  -23.3440   23.2576 H   0  0  0  0  0  0
  -29.0810  -23.7363   23.4052 H   0  0  0  0  0  0
  -28.5017  -22.1269   23.8120 H   0  0  0  0  0  0
  -28.0362  -25.2011   21.9228 H   0  0  0  0  0  0
  -26.7892  -24.8240   20.8166 H   0  0  0  0  0  0
  1 25  1  0  0  0
  1 30  2  0  0  0
  1 90  1  0  0  0
  2  3  1  0  0  0
  2 25  1  0  0  0
  2 91  1  0  0  0
  2 92  1  0  0  0
  3  4  1  0  0  0
  3 93  1  0  0  0
  3 94  1  0  0  0
  4  5  1  0  0  0
  4 95  1  0  0  0
  4 96  1  0  0  0
  5  6  1  0  0  0
  5 26  1  0  0  0
  5 97  1  0  0  0
  6 25  1  0  0  0
  6 98  1  0  0  0
  6 99  1  0  0  0
  7  8  2  0  0  0
  7 26  1  0  0  0
  7 29  1  0  0  0
  8  9  1  0  0  0
  8 22  1  0  0  0
  9 10  1  0  0  0
  9 27  2  0  0  0
 10 11  2  0  0  0
 10 15  1  0  0  0
 11 12  1  0  0  0
 11100  1  0  0  0
 12 13  2  0  0  0
 12101  1  0  0  0
 13 14  1  0  0  0
 13 31  1  0  0  0
 14 15  2  0  0  0
 14102  1  0  0  0
 15103  1  0  0  0
 16 17  2  0  0  0
 16 21  1  0  0  0
 16 31  1  0  0  0
 17 18  1  0  0  0
 17104  1  0  0  0
 18 19  2  0  0  0
 18105  1  0  0  0
 19 20  1  0  0  0
 19 24  1  0  0  0
 20 21  2  0  0  0
 20106  1  0  0  0
 21 23  1  0  0  0
 22 28  1  0  0  0
 22 32  2  0  0  0
 26 27  1  0  0  0
 28107  1  0  0  0
 28108  1  0  0  0
 29109  1  0  0  0
 29110  1  0  0  0
 33 34  1  0  0  0
 33 66  1  0  0  0
 33 70  2  0  0  0
 34 36  1  0  0  0
 34 59  1  0  0  0
 34111  1  0  0  0
 35 44  2  0  0  0
 35 45  1  0  0  0
 35 68  1  0  0  0
 36 56  1  0  0  0
 36112  1  0  0  0
 37 39  1  0  0  0
 37 47  1  0  0  0
 37 66  1  0  0  0
 37113  1  0  0  0
 38 43  2  0  0  0
 38 46  1  0  0  0
 38 47  1  0  0  0
 39 64  1  0  0  0
 39 67  2  0  0  0
 40 52  1  0  0  0
 40 53  2  0  0  0
 40 58  1  0  0  0
 41114  1  0  0  0
 41115  1  0  0  0
 41116  1  0  0  0
 41 48  1  0  0  0
 42 43  1  0  0  0
 42 66  1  0  0  0
 42117  1  0  0  0
 42118  1  0  0  0
 43 44  1  0  0  0
 44119  1  0  0  0
 45 46  2  0  0  0
 45120  1  0  0  0
 46121  1  0  0  0
 47122  1  0  0  0
 47123  1  0  0  0
 48 56  1  0  0  0
 48 65  1  0  0  0
 48124  1  0  0  0
 49 50  1  0  0  0
 49 53  1  0  0  0
 49 64  1  0  0  0
 49125  1  0  0  0
 50 51  1  0  0  0
 50126  1  0  0  0
 50127  1  0  0  0
 51 52  1  0  0  0
 51128  1  0  0  0
 51129  1  0  0  0
 52130  1  0  0  0
 52131  1  0  0  0
 53 54  1  0  0  0
 54 55  2  0  0  0
 54132  1  0  0  0
 55 57  1  0  0  0
 55133  1  0  0  0
 56 69  2  0  0  0
 57 58  2  0  0  0
 57134  1  0  0  0
 58135  1  0  0  0
 59 60  1  0  0  0
 59 61  1  0  0  0
 59 62  1  0  0  0
 60136  1  0  0  0
 60137  1  0  0  0
 60138  1  0  0  0
 61139  1  0  0  0
 61140  1  0  0  0
 61141  1  0  0  0
 62142  1  0  0  0
 62143  1  0  0  0
 62144  1  0  0  0
 63 65  1  0  0  0
 63145  1  0  0  0
 63146  1  0  0  0
 63147  1  0  0  0
 64148  1  0  0  0
 65149  1  0  0  0
 68 87  1  0  0  0
 71 72  2  0  0  0
 71 75  1  0  0  0
 71 82  1  0  0  0
 72 73  1  0  0  0
 72 85  1  0  0  0
 73 74  2  0  0  0
 73 87  1  0  0  0
 74 86  1  0  0  0
 74 88  1  0  0  0
 75 88  2  0  0  0
 75 89  1  0  0  0
 76 77  1  0  0  0
 76 82  1  0  0  0
 76150  1  0  0  0
 76151  1  0  0  0
 77 82  1  0  0  0
 77152  1  0  0  0
 77153  1  0  0  0
 78 79  1  0  0  0
 78154  1  0  0  0
 78155  1  0  0  0
 78 83  1  0  0  0
 79156  1  0  0  0
 79157  1  0  0  0
 79 84  1  0  0  0
 80 83  1  0  0  0
 80 89  1  0  0  0
 80158  1  0  0  0
 80159  1  0  0  0
 81 84  1  0  0  0
 81 89  1  0  0  0
 81160  1  0  0  0
 81161  1  0  0  0
 82162  1  0  0  0
 83 90  1  0  0  0
 83163  1  0  0  0
 84 90  1  0  0  0
 84164  1  0  0  0
 85165  1  0  0  0
 85166  1  0  0  0
 85167  1  0  0  0
 86168  1  0  0  0
 86169  1  0  0  0
 86170  1  0  0  0
 87171  1  0  0  0
 87172  1  0  0  0
M  ISO  4   1 100  68 101  87 101  90 100
M  END
> <chiral flag>
0

> <version>
0

> <s_m_source_file>
/data/baiqing/PycharmProjects/Reinvent-master-3.2/result/LINK_invent/BTK/process_docking_weight1_custom_sum_contain_oxygen_bond_distance_aromatic_linkinvent_7_9_3/rearranged_h_0165.sdf

> <i_m_source_file_index>
30

> <r_mmod_Potential_Energy-OPLS-2005>
532.401977539062

> <r_mmod_Stretch_Energy-OPLS-2005>
147.953720092773

> <r_mmod_Bend_Energy-OPLS-2005>
280.837646484375

> <r_mmod_Torsional_Energy-OPLS-2005>
490.428283691406

> <r_mmod_Improper_Torsional_Energy-OPLS-2005>
13.6248903274536

> <r_mmod_Van_der_Waal_Energy-OPLS-2005>
165.44172668457

> <r_mmod_Electrostatic_Energy-OPLS-2005>
-466.654083251953

> <r_mmod_Solvation_Energy-OPLS-2005>
-218.199325561523

> <b_mmod_Minimization_Converged-OPLS-2005>
0

> <r_mmod_RMS_Derivative-OPLS-2005>
0.687079250812531

$$$$
30
                    3D
 Structure written by MMmdl.
164173  0  0  1  0            999 V2000
  -30.6817  -14.8028   20.4411 C   0  0  0  0  0  0
  -30.4097  -12.5026   19.4808 C   0  0  0  0  0  0
  -29.4978  -12.4999   18.2381 C   0  0  0  0  0  0
  -28.0320  -12.3038   18.6618 C   0  0  0  0  0  0
  -27.6263  -13.2352   19.8338 C   0  0  2  0  0  0
  -28.6766  -13.2601   20.9696 C   0  0  0  0  0  0
  -25.2439  -13.8186   20.5685 C   0  0  0  0  0  0
  -24.1760  -13.0424   20.9236 C   0  0  0  0  0  0
  -24.6371  -11.6910   20.8780 C   0  0  0  0  0  0
  -23.9064  -10.4286   21.0424 C   0  0  0  0  0  0
  -24.3621   -9.4198   21.9195 C   0  0  0  0  0  0
  -23.6301   -8.2228   22.0752 C   0  0  0  0  0  0
  -22.4280   -8.0269   21.3537 C   0  0  0  0  0  0
  -21.9918   -9.0243   20.4642 C   0  0  0  0  0  0
  -22.7241  -10.2126   20.3060 C   0  0  0  0  0  0
  -21.6849   -6.0730   22.5281 C   0  0  0  0  0  0
  -21.4010   -6.5640   23.8218 C   0  0  0  0  0  0
  -21.3660   -5.6794   24.9178 C   0  0  0  0  0  0
  -21.6045   -4.3054   24.7228 C   0  0  0  0  0  0
  -21.8821   -3.8140   23.4349 C   0  0  0  0  0  0
  -21.9189   -4.6962   22.3406 C   0  0  0  0  0  0
  -22.7786  -13.5207   21.1888 C   0  0  0  0  0  0
  -22.1660   -4.2146   21.0984 F   0  0  0  0  0  0
  -21.5631   -3.4539   25.7738 F   0  0  0  0  0  0
  -29.9627  -13.6191   20.3604 N   0  0  0  0  0  0
  -26.2864  -12.9405   20.3256 N   0  0  0  0  0  0
  -25.9302  -11.6548   20.5789 N   0  0  0  0  0  0
  -22.0429  -12.8204   22.0443 N   0  0  0  0  0  0
  -25.4054  -15.1905   20.4049 N   0  0  0  0  0  0
  -31.8885  -14.7292   20.1874 O   0  0  0  0  0  0
  -21.6636   -6.8872   21.4241 O   0  0  0  0  0  0
  -22.3481  -14.5515   20.6728 O   0  0  0  0  0  0
  -24.6336  -31.8540   23.1982 C   0  0  0  0  0  0
  -25.9157  -32.4747   23.8329 C   0  0  1  0  0  0
  -27.2100  -27.2391   20.1410 C   0  0  0  0  0  0
  -25.5947  -33.8551   24.2246 N   0  0  0  0  0  0
  -23.4323  -30.4771   21.5412 C   0  0  2  0  0  0
  -24.8829  -28.9268   20.1060 C   0  0  0  0  0  0
  -22.7523  -29.4597   22.4899 C   0  0  0  0  0  0
  -18.0297  -28.1393   22.8485 C   0  0  0  0  0  0
  -24.1491  -36.7276   23.2640 C   0  0  0  0  0  0
  -25.9819  -30.7596   21.3849 C   0  0  0  0  0  0
  -26.0562  -29.3818   20.7243 C   0  0  0  0  0  0
  -27.2272  -28.5503   20.7331 C   0  0  0  0  0  0
  -26.0260  -26.8713   19.4681 C   0  0  0  0  0  0
  -24.8752  -27.6805   19.4633 C   0  0  0  0  0  0
  -23.6530  -29.8137   20.1567 C   0  0  0  0  0  0
  -25.4123  -36.3063   24.0325 C   0  0  1  0  0  0
  -20.5906  -28.3710   23.1261 C   0  0  2  0  0  0
  -20.6791  -26.9424   22.5410 C   0  0  0  0  0  0
  -19.5765  -26.6386   21.5219 C   0  0  0  0  0  0
  -18.1942  -26.7936   22.1622 C   0  0  0  0  0  0
  -19.1552  -28.8870   23.2866 C   0  0  0  0  0  0
  -18.9471  -30.1470   23.8885 C   0  0  0  0  0  0
  -17.6469  -30.6593   24.0561 C   0  0  0  0  0  0
  -25.9066  -34.9438   23.5087 C   0  0  0  0  0  0
  -16.5360  -29.9085   23.6336 C   0  0  0  0  0  0
  -16.7283  -28.6502   23.0359 C   0  0  0  0  0  0
  -26.4516  -31.6581   25.0731 C   0  0  0  0  0  0
  -25.3723  -31.3741   26.1438 C   0  0  0  0  0  0
  -27.0372  -30.2990   24.6251 C   0  0  0  0  0  0
  -27.6061  -32.4332   25.7507 C   0  0  0  0  0  0
  -27.5584  -37.1793   24.8465 C   0  0  0  0  0  0
  -21.4226  -29.3049   22.3642 N   0  0  0  0  0  0
  -26.4292  -37.3769   23.9408 N   0  0  0  0  0  0
  -24.7014  -31.0481   22.0972 N   0  0  0  0  0  0
  -23.4214  -28.8139   23.3009 O   0  0  0  0  0  0
  -28.2305  -26.2557   20.2127 O   0  0  0  0  0  0
  -26.5637  -34.8911   22.4653 O   0  0  0  0  0  0
  -23.5479  -32.1376   23.7258 O   0  0  0  0  0  0
  -28.3874  -21.1550   21.8570 C   0  0  0  0  0  0
  -28.0272  -22.5543   21.9236 C   0  0  0  0  0  0
  -29.0398  -20.6046   20.7033 C   0  0  0  0  0  0
  -28.3586  -23.4862   20.8819 C   0  0  0  0  0  0
  -29.3199  -21.6207   19.7176 C   0  0  0  0  0  0
  -30.5833  -18.6620   21.2125 C   0  0  0  0  0  0
  -28.3546  -18.1210   20.5473 C   0  0  0  0  0  0
  -31.0844  -17.2520   20.7109 C   0  0  0  0  0  0
  -28.7885  -16.6045   20.2395 C   0  0  0  0  0  0
  -28.0530  -20.2612   23.0498 C   0  0  0  0  0  0
  -27.2438  -23.0689   23.1390 C   0  0  0  0  0  0
  -30.0160  -21.2265   18.4299 C   0  0  0  0  0  0
  -27.8226  -25.0183   20.9788 C   0  0  0  0  0  0
  -29.0061  -22.9704   19.7970 N   0  0  0  0  0  0
  -29.3936  -19.1836   20.5227 N   0  0  0  0  0  0
  -30.1317  -16.0922   20.6517 N   0  0  0  0  0  0
  -31.4513  -12.5920   19.1673 H   0  0  0  0  0  0
  -30.3470  -11.5491   20.0077 H   0  0  0  0  0  0
  -29.7977  -11.7102   17.5480 H   0  0  0  0  0  0
  -29.6052  -13.4411   17.6967 H   0  0  0  0  0  0
  -27.9156  -11.2617   18.9625 H   0  0  0  0  0  0
  -27.3659  -12.4511   17.8101 H   0  0  0  0  0  0
  -27.5866  -14.2279   19.3910 H   0  0  0  0  0  0
  -28.7405  -12.2903   21.4644 H   0  0  0  0  0  0
  -28.4040  -13.9798   21.7427 H   0  0  0  0  0  0
  -25.2756   -9.5680   22.4791 H   0  0  0  0  0  0
  -24.0000   -7.4620   22.7477 H   0  0  0  0  0  0
  -21.0841   -8.8770   19.8958 H   0  0  0  0  0  0
  -22.3692  -10.9675   19.6183 H   0  0  0  0  0  0
  -21.2003   -7.6149   23.9724 H   0  0  0  0  0  0
  -21.1483   -6.0519   25.9087 H   0  0  0  0  0  0
  -22.0599   -2.7603   23.2846 H   0  0  0  0  0  0
  -22.4029  -11.9862   22.4838 H   0  0  0  0  0  0
  -21.1051  -13.1240   22.2643 H   0  0  0  0  0  0
  -24.6285  -15.8339   20.5097 H   0  0  0  0  0  0
  -26.2391  -15.6311   20.0423 H   0  0  0  0  0  0
  -26.7225  -32.5390   23.1070 H   0  0  0  0  0  0
  -25.0093  -33.9686   25.0391 H   0  0  0  0  0  0
  -22.7295  -31.3002   21.3954 H   0  0  0  0  0  0
  -23.3761  -35.9600   23.3295 H   0  0  0  0  0  0
  -24.3576  -36.8907   22.2054 H   0  0  0  0  0  0
  -23.7238  -37.6471   23.6671 H   0  0  0  0  0  0
  -26.1274  -31.5213   20.6176 H   0  0  0  0  0  0
  -26.8564  -30.8058   22.0223 H   0  0  0  0  0  0
  -28.1179  -28.8860   21.2454 H   0  0  0  0  0  0
  -25.9720  -25.9109   18.9744 H   0  0  0  0  0  0
  -23.9812  -27.3302   18.9652 H   0  0  0  0  0  0
  -23.7758  -30.5919   19.4027 H   0  0  0  0  0  0
  -22.7710  -29.2475   19.8506 H   0  0  0  0  0  0
  -25.1306  -36.1907   25.0818 H   0  0  0  0  0  0
  -20.9997  -28.3294   24.1383 H   0  0  0  0  0  0
  -20.5708  -26.2317   23.3619 H   0  0  0  0  0  0
  -21.6655  -26.7458   22.1190 H   0  0  0  0  0  0
  -19.6927  -25.6294   21.1255 H   0  0  0  0  0  0
  -19.6704  -27.3190   20.6744 H   0  0  0  0  0  0
  -17.4218  -26.6694   21.4017 H   0  0  0  0  0  0
  -18.0331  -26.0079   22.9015 H   0  0  0  0  0  0
  -19.7947  -30.7293   24.2244 H   0  0  0  0  0  0
  -17.5021  -31.6274   24.5162 H   0  0  0  0  0  0
  -15.5360  -30.2982   23.7675 H   0  0  0  0  0  0
  -15.8681  -28.0818   22.7081 H   0  0  0  0  0  0
  -24.5897  -30.7099   25.7755 H   0  0  0  0  0  0
  -24.8918  -32.2914   26.4850 H   0  0  0  0  0  0
  -25.8022  -30.8916   27.0225 H   0  0  0  0  0  0
  -26.2969  -29.6725   24.1258 H   0  0  0  0  0  0
  -27.4016  -29.7272   25.4798 H   0  0  0  0  0  0
  -27.8868  -30.4250   23.9535 H   0  0  0  0  0  0
  -27.2662  -33.3634   26.2071 H   0  0  0  0  0  0
  -28.3878  -32.6889   25.0342 H   0  0  0  0  0  0
  -28.0724  -31.8468   26.5434 H   0  0  0  0  0  0
  -28.2593  -38.0097   24.7518 H   0  0  0  0  0  0
  -28.1083  -36.2626   24.6281 H   0  0  0  0  0  0
  -27.2296  -37.1431   25.8866 H   0  0  0  0  0  0
  -20.9422  -29.8744   21.6818 H   0  0  0  0  0  0
  -26.0168  -38.2840   24.1410 H   0  0  0  0  0  0
  -31.3949  -19.3823   21.0962 H   0  0  0  0  0  0
  -30.4041  -18.5985   22.2847 H   0  0  0  0  0  0
  -27.8750  -18.1171   21.5239 H   0  0  0  0  0  0
  -27.5607  -18.4025   19.8535 H   0  0  0  0  0  0
  -31.9265  -16.9774   21.3489 H   0  0  0  0  0  0
  -31.5025  -17.3792   19.7107 H   0  0  0  0  0  0
  -28.7192  -16.4473   19.1624 H   0  0  0  0  0  0
  -28.0320  -15.9687   20.6887 H   0  0  0  0  0  0
  -28.2663  -20.7643   23.9926 H   0  0  0  0  0  0
  -28.6324  -19.3466   23.0888 H   0  0  0  0  0  0
  -26.9984  -19.9868   23.0292 H   0  0  0  0  0  0
  -26.6849  -22.2949   23.6624 H   0  0  0  0  0  0
  -26.4841  -23.7986   22.8623 H   0  0  0  0  0  0
  -27.9200  -23.5380   23.8552 H   0  0  0  0  0  0
  -29.4485  -20.4476   17.9215 H   0  0  0  0  0  0
  -31.0113  -20.8392   18.6451 H   0  0  0  0  0  0
  -30.1197  -22.0698   17.7475 H   0  0  0  0  0  0
  -28.0034  -25.3227   22.0105 H   0  0  0  0  0  0
  -26.7416  -24.9051   20.9108 H   0  0  0  0  0  0
  1 25  1  0  0  0
  1 30  2  0  0  0
  1 86  1  0  0  0
  2  3  1  0  0  0
  2 25  1  0  0  0
  2 87  1  0  0  0
  2 88  1  0  0  0
  3  4  1  0  0  0
  3 89  1  0  0  0
  3 90  1  0  0  0
  4  5  1  0  0  0
  4 91  1  0  0  0
  4 92  1  0  0  0
  5  6  1  0  0  0
  5 26  1  0  0  0
  5 93  1  0  0  0
  6 25  1  0  0  0
  6 94  1  0  0  0
  6 95  1  0  0  0
  7  8  2  0  0  0
  7 26  1  0  0  0
  7 29  1  0  0  0
  8  9  1  0  0  0
  8 22  1  0  0  0
  9 10  1  0  0  0
  9 27  2  0  0  0
 10 11  2  0  0  0
 10 15  1  0  0  0
 11 12  1  0  0  0
 11 96  1  0  0  0
 12 13  2  0  0  0
 12 97  1  0  0  0
 13 14  1  0  0  0
 13 31  1  0  0  0
 14 15  2  0  0  0
 14 98  1  0  0  0
 15 99  1  0  0  0
 16 17  2  0  0  0
 16 21  1  0  0  0
 16 31  1  0  0  0
 17 18  1  0  0  0
 17100  1  0  0  0
 18 19  2  0  0  0
 18101  1  0  0  0
 19 20  1  0  0  0
 19 24  1  0  0  0
 20 21  2  0  0  0
 20102  1  0  0  0
 21 23  1  0  0  0
 22 28  1  0  0  0
 22 32  2  0  0  0
 26 27  1  0  0  0
 28103  1  0  0  0
 28104  1  0  0  0
 29105  1  0  0  0
 29106  1  0  0  0
 33 34  1  0  0  0
 33 66  1  0  0  0
 33 70  2  0  0  0
 34 36  1  0  0  0
 34 59  1  0  0  0
 34107  1  0  0  0
 35 44  2  0  0  0
 35 45  1  0  0  0
 35 68  1  0  0  0
 36 56  1  0  0  0
 36108  1  0  0  0
 37 39  1  0  0  0
 37 47  1  0  0  0
 37 66  1  0  0  0
 37109  1  0  0  0
 38 43  2  0  0  0
 38 46  1  0  0  0
 38 47  1  0  0  0
 39 64  1  0  0  0
 39 67  2  0  0  0
 40 52  1  0  0  0
 40 53  2  0  0  0
 40 58  1  0  0  0
 41110  1  0  0  0
 41111  1  0  0  0
 41112  1  0  0  0
 41 48  1  0  0  0
 42 43  1  0  0  0
 42 66  1  0  0  0
 42113  1  0  0  0
 42114  1  0  0  0
 43 44  1  0  0  0
 44115  1  0  0  0
 45 46  2  0  0  0
 45116  1  0  0  0
 46117  1  0  0  0
 47118  1  0  0  0
 47119  1  0  0  0
 48 56  1  0  0  0
 48 65  1  0  0  0
 48120  1  0  0  0
 49 50  1  0  0  0
 49 53  1  0  0  0
 49 64  1  0  0  0
 49121  1  0  0  0
 50 51  1  0  0  0
 50122  1  0  0  0
 50123  1  0  0  0
 51 52  1  0  0  0
 51124  1  0  0  0
 51125  1  0  0  0
 52126  1  0  0  0
 52127  1  0  0  0
 53 54  1  0  0  0
 54 55  2  0  0  0
 54128  1  0  0  0
 55 57  1  0  0  0
 55129  1  0  0  0
 56 69  2  0  0  0
 57 58  2  0  0  0
 57130  1  0  0  0
 58131  1  0  0  0
 59 60  1  0  0  0
 59 61  1  0  0  0
 59 62  1  0  0  0
 60132  1  0  0  0
 60133  1  0  0  0
 60134  1  0  0  0
 61135  1  0  0  0
 61136  1  0  0  0
 61137  1  0  0  0
 62138  1  0  0  0
 62139  1  0  0  0
 62140  1  0  0  0
 63 65  1  0  0  0
 63141  1  0  0  0
 63142  1  0  0  0
 63143  1  0  0  0
 64144  1  0  0  0
 65145  1  0  0  0
 68 83  1  0  0  0
 71 72  2  0  0  0
 71 73  1  0  0  0
 71 80  1  0  0  0
 72 74  1  0  0  0
 72 81  1  0  0  0
 73 75  2  0  0  0
 73 85  1  0  0  0
 74 83  1  0  0  0
 74 84  2  0  0  0
 75 82  1  0  0  0
 75 84  1  0  0  0
 76 78  1  0  0  0
 76 85  1  0  0  0
 76146  1  0  0  0
 76147  1  0  0  0
 77 79  1  0  0  0
 77 85  1  0  0  0
 77148  1  0  0  0
 77149  1  0  0  0
 78 86  1  0  0  0
 78150  1  0  0  0
 78151  1  0  0  0
 79 86  1  0  0  0
 79152  1  0  0  0
 79153  1  0  0  0
 80154  1  0  0  0
 80155  1  0  0  0
 80156  1  0  0  0
 81157  1  0  0  0
 81158  1  0  0  0
 81159  1  0  0  0
 82160  1  0  0  0
 82161  1  0  0  0
 82162  1  0  0  0
 83163  1  0  0  0
 83164  1  0  0  0
M  ISO  4   1 100  68 101  83 101  86 100
M  END
> <chiral flag>
0

> <version>
0

> <s_m_source_file>
/data/baiqing/PycharmProjects/Reinvent-master-3.2/result/LINK_invent/BTK/process_docking_weight1_custom_sum_contain_oxygen_bond_distance_aromatic_linkinvent_7_9_3/rearranged_h_0165.sdf

> <i_m_source_file_index>
31

> <r_mmod_Potential_Energy-OPLS-2005>
422.524566650391

> <r_mmod_Stretch_Energy-OPLS-2005>
146.769653320312

> <r_mmod_Bend_Energy-OPLS-2005>
246.47135925293

> <r_mmod_Torsional_Energy-OPLS-2005>
373.521606445312

> <r_mmod_Improper_Torsional_Energy-OPLS-2005>
9.26957416534424

> <r_mmod_Van_der_Waal_Energy-OPLS-2005>
165.15283203125

> <r_mmod_Electrostatic_Energy-OPLS-2005>
-411.649719238281

> <r_mmod_Solvation_Energy-OPLS-2005>
-228.377792358398

> <b_mmod_Minimization_Converged-OPLS-2005>
0

> <r_mmod_RMS_Derivative-OPLS-2005>
1.02336752414703

$$$$
31
                    3D
 Structure written by MMmdl.
167176  0  0  1  0            999 V2000
  -30.6848  -14.8050   20.4366 C   0  0  0  0  0  0
  -30.4089  -12.5106   19.4664 C   0  0  0  0  0  0
  -29.4909  -12.5040   18.2286 C   0  0  0  0  0  0
  -28.0254  -12.3149   18.6576 C   0  0  0  0  0  0
  -27.6272  -13.2396   19.8392 C   0  0  2  0  0  0
  -28.6838  -13.2455   20.9664 C   0  0  0  0  0  0
  -25.2463  -13.8210   20.5737 C   0  0  0  0  0  0
  -24.1771  -13.0444   20.9247 C   0  0  0  0  0  0
  -24.6379  -11.6926   20.8784 C   0  0  0  0  0  0
  -23.9062  -10.4295   21.0418 C   0  0  0  0  0  0
  -24.3619   -9.4206   21.9193 C   0  0  0  0  0  0
  -23.6298   -8.2236   22.0754 C   0  0  0  0  0  0
  -22.4281   -8.0275   21.3538 C   0  0  0  0  0  0
  -21.9909   -9.0253   20.4644 C   0  0  0  0  0  0
  -22.7236  -10.2135   20.3061 C   0  0  0  0  0  0
  -21.6853   -6.0733   22.5280 C   0  0  0  0  0  0
  -21.4013   -6.5637   23.8215 C   0  0  0  0  0  0
  -21.3662   -5.6792   24.9176 C   0  0  0  0  0  0
  -21.6046   -4.3054   24.7227 C   0  0  0  0  0  0
  -21.8821   -3.8147   23.4347 C   0  0  0  0  0  0
  -21.9192   -4.6963   22.3404 C   0  0  0  0  0  0
  -22.7794  -13.5223   21.1881 C   0  0  0  0  0  0
  -22.1658   -4.2148   21.0983 F   0  0  0  0  0  0
  -21.5633   -3.4535   25.7738 F   0  0  0  0  0  0
  -29.9564  -13.6271   20.3427 N   0  0  0  0  0  0
  -26.2885  -12.9430   20.3313 N   0  0  0  0  0  0
  -25.9312  -11.6567   20.5805 N   0  0  0  0  0  0
  -22.0429  -12.8227   22.0436 N   0  0  0  0  0  0
  -25.4129  -15.1930   20.4132 N   0  0  0  0  0  0
  -31.8967  -14.7046   20.2254 O   0  0  0  0  0  0
  -21.6641   -6.8874   21.4238 O   0  0  0  0  0  0
  -22.3493  -14.5524   20.6712 O   0  0  0  0  0  0
  -24.6339  -31.8535   23.1973 C   0  0  0  0  0  0
  -25.9155  -32.4747   23.8325 C   0  0  1  0  0  0
  -27.2107  -27.2383   20.1366 C   0  0  0  0  0  0
  -25.5937  -33.8548   24.2246 N   0  0  0  0  0  0
  -23.4326  -30.4768   21.5405 C   0  0  2  0  0  0
  -24.8809  -28.9224   20.1081 C   0  0  0  0  0  0
  -22.7515  -29.4603   22.4896 C   0  0  0  0  0  0
  -18.0299  -28.1395   22.8482 C   0  0  0  0  0  0
  -24.1488  -36.7281   23.2636 C   0  0  0  0  0  0
  -25.9811  -30.7592   21.3818 C   0  0  0  0  0  0
  -26.0544  -29.3798   20.7236 C   0  0  0  0  0  0
  -27.2278  -28.5504   20.7266 C   0  0  0  0  0  0
  -26.0229  -26.8632   19.4765 C   0  0  0  0  0  0
  -24.8713  -27.6727   19.4713 C   0  0  0  0  0  0
  -23.6522  -29.8110   20.1569 C   0  0  0  0  0  0
  -25.4117  -36.3064   24.0321 C   0  0  1  0  0  0
  -20.5903  -28.3715   23.1259 C   0  0  2  0  0  0
  -20.6787  -26.9430   22.5406 C   0  0  0  0  0  0
  -19.5758  -26.6387   21.5216 C   0  0  0  0  0  0
  -18.1940  -26.7937   22.1629 C   0  0  0  0  0  0
  -19.1552  -28.8874   23.2865 C   0  0  0  0  0  0
  -18.9470  -30.1471   23.8888 C   0  0  0  0  0  0
  -17.6466  -30.6593   24.0565 C   0  0  0  0  0  0
  -25.9063  -34.9435   23.5089 C   0  0  0  0  0  0
  -16.5359  -29.9088   23.6332 C   0  0  0  0  0  0
  -16.7283  -28.6507   23.0354 C   0  0  0  0  0  0
  -26.4509  -31.6578   25.0725 C   0  0  0  0  0  0
  -25.3722  -31.3744   26.1439 C   0  0  0  0  0  0
  -27.0355  -30.2980   24.6246 C   0  0  0  0  0  0
  -27.6066  -32.4322   25.7494 C   0  0  0  0  0  0
  -27.5583  -37.1789   24.8460 C   0  0  0  0  0  0
  -21.4222  -29.3053   22.3636 N   0  0  0  0  0  0
  -26.4287  -37.3771   23.9416 N   0  0  0  0  0  0
  -24.7016  -31.0481   22.0959 N   0  0  0  0  0  0
  -23.4203  -28.8143   23.3007 O   0  0  0  0  0  0
  -28.2456  -26.2694   20.1804 O   0  0  0  0  0  0
  -26.5641  -34.8917   22.4663 O   0  0  0  0  0  0
  -23.5483  -32.1372   23.7247 O   0  0  0  0  0  0
  -29.0622  -22.9836   19.4835 C   0  0  0  0  0  0
  -28.4151  -23.4886   20.6448 C   0  0  0  0  0  0
  -29.3810  -21.5791   19.3232 C   0  0  0  0  0  0
  -28.1369  -22.4483   21.5925 C   0  0  0  0  0  0
  -29.0603  -20.6201   20.3458 C   0  0  0  0  0  0
  -30.7183  -18.7345   20.3972 C   0  0  0  0  0  0
  -28.5079  -18.1758   20.9838 C   0  0  0  0  0  0
  -31.0026  -17.2515   19.9300 C   0  0  0  0  0  0
  -28.7427  -16.6265   20.6178 C   0  0  0  0  0  0
  -27.4123  -22.7662   22.8896 C   0  0  0  0  0  0
  -31.3509  -21.8277   17.7299 C   0  0  0  0  0  0
  -29.0300  -21.3243   16.8283 C   0  0  0  0  0  0
  -27.8931  -24.9975   20.9146 C   0  0  0  0  0  0
  -30.0063  -21.1324   17.9986 C   0  0  0  0  0  0
  -28.4408  -21.1117   21.4491 N   0  0  0  0  0  0
  -29.3272  -19.1799   20.2641 N   0  0  0  0  0  0
  -30.1371  -16.1164   20.4172 N   0  0  0  0  0  0
  -31.4464  -12.6069   19.1440 H   0  0  0  0  0  0
  -30.3572  -11.5571   19.9941 H   0  0  0  0  0  0
  -29.7855  -11.7105   17.5405 H   0  0  0  0  0  0
  -29.5984  -13.4422   17.6811 H   0  0  0  0  0  0
  -27.9048  -11.2708   18.9498 H   0  0  0  0  0  0
  -27.3576  -12.4707   17.8094 H   0  0  0  0  0  0
  -27.5926  -14.2426   19.4178 H   0  0  0  0  0  0
  -28.7601  -12.2615   21.4314 H   0  0  0  0  0  0
  -28.4147  -13.9298   21.7693 H   0  0  0  0  0  0
  -25.2752   -9.5690   22.4785 H   0  0  0  0  0  0
  -24.0002   -7.4629   22.7478 H   0  0  0  0  0  0
  -21.0833   -8.8772   19.8957 H   0  0  0  0  0  0
  -22.3679  -10.9684   19.6184 H   0  0  0  0  0  0
  -21.1999   -7.6146   23.9722 H   0  0  0  0  0  0
  -21.1484   -6.0516   25.9081 H   0  0  0  0  0  0
  -22.0597   -2.7606   23.2848 H   0  0  0  0  0  0
  -22.4024  -11.9889   22.4839 H   0  0  0  0  0  0
  -21.1046  -13.1271   22.2627 H   0  0  0  0  0  0
  -24.6436  -15.8443   20.5269 H   0  0  0  0  0  0
  -26.2576  -15.6314   20.0726 H   0  0  0  0  0  0
  -26.7221  -32.5388   23.1068 H   0  0  0  0  0  0
  -25.0065  -33.9684   25.0374 H   0  0  0  0  0  0
  -22.7307  -31.3008   21.3932 H   0  0  0  0  0  0
  -23.3756  -35.9605   23.3285 H   0  0  0  0  0  0
  -24.3583  -36.8921   22.2055 H   0  0  0  0  0  0
  -23.7233  -37.6473   23.6673 H   0  0  0  0  0  0
  -26.1251  -31.5186   20.6123 H   0  0  0  0  0  0
  -26.8565  -30.8076   22.0177 H   0  0  0  0  0  0
  -28.1229  -28.8913   21.2269 H   0  0  0  0  0  0
  -25.9718  -25.9018   18.9845 H   0  0  0  0  0  0
  -23.9760  -27.3201   18.9776 H   0  0  0  0  0  0
  -23.7770  -30.5875   19.4012 H   0  0  0  0  0  0
  -22.7698  -29.2459   19.8512 H   0  0  0  0  0  0
  -25.1297  -36.1907   25.0812 H   0  0  0  0  0  0
  -21.0004  -28.3301   24.1377 H   0  0  0  0  0  0
  -20.5695  -26.2329   23.3617 H   0  0  0  0  0  0
  -21.6652  -26.7456   22.1195 H   0  0  0  0  0  0
  -19.6922  -25.6293   21.1258 H   0  0  0  0  0  0
  -19.6695  -27.3186   20.6735 H   0  0  0  0  0  0
  -17.4210  -26.6686   21.4029 H   0  0  0  0  0  0
  -18.0341  -26.0079   22.9026 H   0  0  0  0  0  0
  -19.7942  -30.7291   24.2252 H   0  0  0  0  0  0
  -17.5019  -31.6273   24.5165 H   0  0  0  0  0  0
  -15.5357  -30.2991   23.7659 H   0  0  0  0  0  0
  -15.8684  -28.0824   22.7076 H   0  0  0  0  0  0
  -24.5886  -30.7113   25.7754 H   0  0  0  0  0  0
  -24.8928  -32.2916   26.4860 H   0  0  0  0  0  0
  -25.8017  -30.8907   27.0217 H   0  0  0  0  0  0
  -26.2940  -29.6718   24.1264 H   0  0  0  0  0  0
  -27.4000  -29.7264   25.4793 H   0  0  0  0  0  0
  -27.8842  -30.4230   23.9520 H   0  0  0  0  0  0
  -27.2680  -33.3630   26.2056 H   0  0  0  0  0  0
  -28.3878  -32.6870   25.0321 H   0  0  0  0  0  0
  -28.0729  -31.8456   26.5420 H   0  0  0  0  0  0
  -28.2582  -38.0105   24.7536 H   0  0  0  0  0  0
  -28.1100  -36.2640   24.6245 H   0  0  0  0  0  0
  -27.2310  -37.1383   25.8863 H   0  0  0  0  0  0
  -20.9413  -29.8764   21.6827 H   0  0  0  0  0  0
  -26.0163  -38.2837   24.1434 H   0  0  0  0  0  0
  -29.2897  -23.6752   18.6859 H   0  0  0  0  0  0
  -31.3730  -19.4132   19.8501 H   0  0  0  0  0  0
  -31.0054  -18.8431   21.4444 H   0  0  0  0  0  0
  -28.6890  -18.3124   22.0506 H   0  0  0  0  0  0
  -27.4554  -18.4214   20.8356 H   0  0  0  0  0  0
  -32.0489  -17.0746   20.1837 H   0  0  0  0  0  0
  -30.9626  -17.2233   18.8397 H   0  0  0  0  0  0
  -28.2168  -16.4305   19.6833 H   0  0  0  0  0  0
  -28.2408  -16.0337   21.3788 H   0  0  0  0  0  0
  -27.9564  -23.5126   23.4680 H   0  0  0  0  0  0
  -27.3061  -21.8839   23.5211 H   0  0  0  0  0  0
  -26.4113  -23.1471   22.6857 H   0  0  0  0  0  0
  -32.0446  -21.6806   18.5584 H   0  0  0  0  0  0
  -31.2356  -22.9009   17.5759 H   0  0  0  0  0  0
  -31.8263  -21.4212   16.8357 H   0  0  0  0  0  0
  -28.1001  -20.7812   17.0025 H   0  0  0  0  0  0
  -29.4556  -20.9445   15.8983 H   0  0  0  0  0  0
  -28.7797  -22.3735   16.6709 H   0  0  0  0  0  0
  -28.1852  -25.2242   21.9398 H   0  0  0  0  0  0
  -26.8084  -24.9004   20.9641 H   0  0  0  0  0  0
  -30.2122  -20.0640   18.0374 H   0  0  0  0  0  0
  1 25  1  0  0  0
  1 30  2  0  0  0
  1 87  1  0  0  0
  2  3  1  0  0  0
  2 25  1  0  0  0
  2 88  1  0  0  0
  2 89  1  0  0  0
  3  4  1  0  0  0
  3 90  1  0  0  0
  3 91  1  0  0  0
  4  5  1  0  0  0
  4 92  1  0  0  0
  4 93  1  0  0  0
  5  6  1  0  0  0
  5 26  1  0  0  0
  5 94  1  0  0  0
  6 25  1  0  0  0
  6 95  1  0  0  0
  6 96  1  0  0  0
  7  8  2  0  0  0
  7 26  1  0  0  0
  7 29  1  0  0  0
  8  9  1  0  0  0
  8 22  1  0  0  0
  9 10  1  0  0  0
  9 27  2  0  0  0
 10 11  2  0  0  0
 10 15  1  0  0  0
 11 12  1  0  0  0
 11 97  1  0  0  0
 12 13  2  0  0  0
 12 98  1  0  0  0
 13 14  1  0  0  0
 13 31  1  0  0  0
 14 15  2  0  0  0
 14 99  1  0  0  0
 15100  1  0  0  0
 16 17  2  0  0  0
 16 21  1  0  0  0
 16 31  1  0  0  0
 17 18  1  0  0  0
 17101  1  0  0  0
 18 19  2  0  0  0
 18102  1  0  0  0
 19 20  1  0  0  0
 19 24  1  0  0  0
 20 21  2  0  0  0
 20103  1  0  0  0
 21 23  1  0  0  0
 22 28  1  0  0  0
 22 32  2  0  0  0
 26 27  1  0  0  0
 28104  1  0  0  0
 28105  1  0  0  0
 29106  1  0  0  0
 29107  1  0  0  0
 33 34  1  0  0  0
 33 66  1  0  0  0
 33 70  2  0  0  0
 34 36  1  0  0  0
 34 59  1  0  0  0
 34108  1  0  0  0
 35 44  2  0  0  0
 35 45  1  0  0  0
 35 68  1  0  0  0
 36 56  1  0  0  0
 36109  1  0  0  0
 37 39  1  0  0  0
 37 47  1  0  0  0
 37 66  1  0  0  0
 37110  1  0  0  0
 38 43  2  0  0  0
 38 46  1  0  0  0
 38 47  1  0  0  0
 39 64  1  0  0  0
 39 67  2  0  0  0
 40 52  1  0  0  0
 40 53  2  0  0  0
 40 58  1  0  0  0
 41111  1  0  0  0
 41112  1  0  0  0
 41113  1  0  0  0
 41 48  1  0  0  0
 42 43  1  0  0  0
 42 66  1  0  0  0
 42114  1  0  0  0
 42115  1  0  0  0
 43 44  1  0  0  0
 44116  1  0  0  0
 45 46  2  0  0  0
 45117  1  0  0  0
 46118  1  0  0  0
 47119  1  0  0  0
 47120  1  0  0  0
 48 56  1  0  0  0
 48 65  1  0  0  0
 48121  1  0  0  0
 49 50  1  0  0  0
 49 53  1  0  0  0
 49 64  1  0  0  0
 49122  1  0  0  0
 50 51  1  0  0  0
 50123  1  0  0  0
 50124  1  0  0  0
 51 52  1  0  0  0
 51125  1  0  0  0
 51126  1  0  0  0
 52127  1  0  0  0
 52128  1  0  0  0
 53 54  1  0  0  0
 54 55  2  0  0  0
 54129  1  0  0  0
 55 57  1  0  0  0
 55130  1  0  0  0
 56 69  2  0  0  0
 57 58  2  0  0  0
 57131  1  0  0  0
 58132  1  0  0  0
 59 60  1  0  0  0
 59 61  1  0  0  0
 59 62  1  0  0  0
 60133  1  0  0  0
 60134  1  0  0  0
 60135  1  0  0  0
 61136  1  0  0  0
 61137  1  0  0  0
 61138  1  0  0  0
 62139  1  0  0  0
 62140  1  0  0  0
 62141  1  0  0  0
 63 65  1  0  0  0
 63142  1  0  0  0
 63143  1  0  0  0
 63144  1  0  0  0
 64145  1  0  0  0
 65146  1  0  0  0
 68 83  1  0  0  0
 71 72  2  0  0  0
 71 73  1  0  0  0
 71147  1  0  0  0
 72 74  1  0  0  0
 72 83  1  0  0  0
 73 75  2  0  0  0
 73 84  1  0  0  0
 74 80  1  0  0  0
 74 85  2  0  0  0
 75 85  1  0  0  0
 75 86  1  0  0  0
 76 78  1  0  0  0
 76 86  1  0  0  0
 76148  1  0  0  0
 76149  1  0  0  0
 77 79  1  0  0  0
 77 86  1  0  0  0
 77150  1  0  0  0
 77151  1  0  0  0
 78 87  1  0  0  0
 78152  1  0  0  0
 78153  1  0  0  0
 79 87  1  0  0  0
 79154  1  0  0  0
 79155  1  0  0  0
 80156  1  0  0  0
 80157  1  0  0  0
 80158  1  0  0  0
 81159  1  0  0  0
 81160  1  0  0  0
 81161  1  0  0  0
 81 84  1  0  0  0
 82 84  1  0  0  0
 82162  1  0  0  0
 82163  1  0  0  0
 82164  1  0  0  0
 83165  1  0  0  0
 83166  1  0  0  0
 84167  1  0  0  0
M  ISO  4   1 100  68 101  83 101  87 100
M  END
> <chiral flag>
0

> <version>
0

> <s_m_source_file>
/data/baiqing/PycharmProjects/Reinvent-master-3.2/result/LINK_invent/BTK/process_docking_weight1_custom_sum_contain_oxygen_bond_distance_aromatic_linkinvent_7_9_3/rearranged_h_0165.sdf

> <i_m_source_file_index>
32

> <r_mmod_Potential_Energy-OPLS-2005>
299.1669921875

> <r_mmod_Stretch_Energy-OPLS-2005>
139.450500488281

> <r_mmod_Bend_Energy-OPLS-2005>
243.6025390625

> <r_mmod_Torsional_Energy-OPLS-2005>
361.700866699219

> <r_mmod_Improper_Torsional_Energy-OPLS-2005>
13.6394319534302

> <r_mmod_Van_der_Waal_Energy-OPLS-2005>
152.902465820312

> <r_mmod_Electrostatic_Energy-OPLS-2005>
-510.604187011719

> <r_mmod_Solvation_Energy-OPLS-2005>
-221.512268066406

> <b_mmod_Minimization_Converged-OPLS-2005>
0

> <r_mmod_RMS_Derivative-OPLS-2005>
1.18252265453339

$$$$
32
                    3D
 Structure written by MMmdl.
175185  0  0  1  0            999 V2000
  -30.6304  -14.6807   20.5635 C   0  0  0  0  0  0
  -30.4372  -12.4414   19.4431 C   0  0  0  0  0  0
  -29.5069  -12.5558   18.2170 C   0  0  0  0  0  0
  -28.0336  -12.3706   18.6322 C   0  0  0  0  0  0
  -27.6557  -13.2270   19.8704 C   0  0  2  0  0  0
  -28.7015  -13.0771   20.9956 C   0  0  0  0  0  0
  -25.2560  -13.8177   20.5705 C   0  0  0  0  0  0
  -24.1830  -13.0421   20.9172 C   0  0  0  0  0  0
  -24.6427  -11.6900   20.8721 C   0  0  0  0  0  0
  -23.9092  -10.4284   21.0395 C   0  0  0  0  0  0
  -24.3636   -9.4196   21.9180 C   0  0  0  0  0  0
  -23.6295   -8.2243   22.0767 C   0  0  0  0  0  0
  -22.4281   -8.0286   21.3551 C   0  0  0  0  0  0
  -21.9916   -9.0264   20.4650 C   0  0  0  0  0  0
  -22.7258  -10.2134   20.3050 C   0  0  0  0  0  0
  -21.6856   -6.0736   22.5279 C   0  0  0  0  0  0
  -21.4019   -6.5640   23.8213 C   0  0  0  0  0  0
  -21.3658   -5.6794   24.9174 C   0  0  0  0  0  0
  -21.6045   -4.3056   24.7227 C   0  0  0  0  0  0
  -21.8814   -3.8146   23.4344 C   0  0  0  0  0  0
  -21.9193   -4.6964   22.3403 C   0  0  0  0  0  0
  -22.7845  -13.5216   21.1812 C   0  0  0  0  0  0
  -22.1656   -4.2143   21.0981 F   0  0  0  0  0  0
  -21.5631   -3.4541   25.7745 F   0  0  0  0  0  0
  -30.0105  -13.4555   20.4345 N   0  0  0  0  0  0
  -26.3015  -12.9385   20.3364 N   0  0  0  0  0  0
  -25.9362  -11.6522   20.5747 N   0  0  0  0  0  0
  -22.0484  -12.8228   22.0375 N   0  0  0  0  0  0
  -25.4234  -15.1908   20.4156 N   0  0  0  0  0  0
  -31.7196  -14.8898   20.0178 O   0  0  0  0  0  0
  -21.6641   -6.8884   21.4246 O   0  0  0  0  0  0
  -22.3524  -14.5512   20.6647 O   0  0  0  0  0  0
  -24.6318  -31.8550   23.1973 C   0  0  0  0  0  0
  -25.9143  -32.4753   23.8327 C   0  0  1  0  0  0
  -27.2162  -27.2673   20.1329 C   0  0  0  0  0  0
  -25.5947  -33.8555   24.2259 N   0  0  0  0  0  0
  -23.4276  -30.4757   21.5430 C   0  0  2  0  0  0
  -24.8735  -28.9212   20.1125 C   0  0  0  0  0  0
  -22.7504  -29.4598   22.4939 C   0  0  0  0  0  0
  -18.0291  -28.1396   22.8495 C   0  0  0  0  0  0
  -24.1486  -36.7272   23.2645 C   0  0  0  0  0  0
  -25.9723  -30.7715   21.3729 C   0  0  0  0  0  0
  -26.0460  -29.3925   20.7191 C   0  0  0  0  0  0
  -27.2241  -28.5788   20.7136 C   0  0  0  0  0  0
  -26.0246  -26.8598   19.4983 C   0  0  0  0  0  0
  -24.8670  -27.6625   19.4910 C   0  0  0  0  0  0
  -23.6429  -29.8069   20.1607 C   0  0  0  0  0  0
  -25.4118  -36.3067   24.0325 C   0  0  1  0  0  0
  -20.5891  -28.3711   23.1277 C   0  0  2  0  0  0
  -20.6780  -26.9430   22.5412 C   0  0  0  0  0  0
  -19.5754  -26.6393   21.5223 C   0  0  0  0  0  0
  -18.1929  -26.7946   22.1622 C   0  0  0  0  0  0
  -19.1544  -28.8878   23.2877 C   0  0  0  0  0  0
  -18.9461  -30.1481   23.8888 C   0  0  0  0  0  0
  -17.6456  -30.6596   24.0572 C   0  0  0  0  0  0
  -25.9065  -34.9435   23.5092 C   0  0  0  0  0  0
  -16.5345  -29.9088   23.6344 C   0  0  0  0  0  0
  -16.7279  -28.6509   23.0366 C   0  0  0  0  0  0
  -26.4518  -31.6577   25.0712 C   0  0  0  0  0  0
  -25.3745  -31.3700   26.1431 C   0  0  0  0  0  0
  -27.0384  -30.3009   24.6181 C   0  0  0  0  0  0
  -27.6075  -32.4323   25.7487 C   0  0  0  0  0  0
  -27.5567  -37.1803   24.8471 C   0  0  0  0  0  0
  -21.4214  -29.3043   22.3663 N   0  0  0  0  0  0
  -26.4291  -37.3760   23.9398 N   0  0  0  0  0  0
  -24.6967  -31.0520   22.0946 N   0  0  0  0  0  0
  -23.4197  -28.8146   23.3051 O   0  0  0  0  0  0
  -28.3045  -26.3705   20.1474 O   0  0  0  0  0  0
  -26.5624  -34.8904   22.4652 O   0  0  0  0  0  0
  -23.5470  -32.1370   23.7280 O   0  0  0  0  0  0
  -29.5946  -18.2991   19.2623 C   0  0  0  0  0  0
  -29.6723  -18.4181   20.6545 C   0  0  0  0  0  0
  -29.0510  -20.7338   18.9471 C   0  0  0  0  0  0
  -29.1118  -20.9077   20.3654 C   0  0  0  0  0  0
  -29.3196  -19.4122   18.4210 C   0  0  0  0  0  0
  -29.4603  -19.7525   21.1784 C   0  0  0  0  0  0
  -31.1098  -16.9907   22.4895 C   0  0  0  0  0  0
  -28.0874  -23.1866   18.7898 C   0  0  0  0  0  0
  -30.5562  -15.5866   22.7265 C   0  0  0  0  0  0
  -28.7670  -22.3173   21.0265 C   0  0  1  0  0  0
  -29.8942  -17.1576   21.6041 C   0  0  2  0  0  0
  -28.7455  -23.6293   20.1005 C   0  0  2  0  0  0
  -28.7523  -21.9837   18.0432 C   0  0  0  0  0  0
  -29.3259  -19.0711   16.9359 C   0  0  0  0  0  0
  -27.4304  -22.1983   21.7982 C   0  0  0  0  0  0
  -27.7593  -21.6858   16.8910 C   0  0  0  0  0  0
  -30.0794  -22.4958   17.4436 C   0  0  0  0  0  0
  -28.0738  -24.9892   20.6929 C   0  0  0  0  0  0
  -29.9993  -15.6308   21.3500 N   0  0  0  0  0  0
  -29.6002  -19.9373   22.5553 N   0  0  0  0  0  0
  -31.4792  -12.5710   19.1457 H   0  0  0  0  0  0
  -30.3762  -11.4402   19.8736 H   0  0  0  0  0  0
  -29.7814  -11.8206   17.4596 H   0  0  0  0  0  0
  -29.6348  -13.5355   17.7529 H   0  0  0  0  0  0
  -27.8803  -11.3132   18.8509 H   0  0  0  0  0  0
  -27.3743  -12.6067   17.7958 H   0  0  0  0  0  0
  -27.6754  -14.2673   19.5460 H   0  0  0  0  0  0
  -28.7295  -12.0483   21.3588 H   0  0  0  0  0  0
  -28.4282  -13.6874   21.8565 H   0  0  0  0  0  0
  -25.2781   -9.5671   22.4748 H   0  0  0  0  0  0
  -23.9999   -7.4642   22.7500 H   0  0  0  0  0  0
  -21.0844   -8.8786   19.8961 H   0  0  0  0  0  0
  -22.3721  -10.9675   19.6155 H   0  0  0  0  0  0
  -21.2015   -7.6149   23.9714 H   0  0  0  0  0  0
  -21.1486   -6.0529   25.9081 H   0  0  0  0  0  0
  -22.0593   -2.7608   23.2858 H   0  0  0  0  0  0
  -22.4109  -11.9917   22.4797 H   0  0  0  0  0  0
  -21.1089  -13.1242   22.2538 H   0  0  0  0  0  0
  -24.6557  -15.8435   20.5337 H   0  0  0  0  0  0
  -26.2868  -15.6403   20.1353 H   0  0  0  0  0  0
  -26.7214  -32.5401   23.1074 H   0  0  0  0  0  0
  -25.0136  -33.9703   25.0437 H   0  0  0  0  0  0
  -22.7243  -31.2980   21.3967 H   0  0  0  0  0  0
  -23.3757  -35.9594   23.3307 H   0  0  0  0  0  0
  -24.3570  -36.8909   22.2060 H   0  0  0  0  0  0
  -23.7225  -37.6461   23.6685 H   0  0  0  0  0  0
  -26.1023  -31.5282   20.5982 H   0  0  0  0  0  0
  -26.8536  -30.8264   22.0005 H   0  0  0  0  0  0
  -28.1247  -28.9354   21.1926 H   0  0  0  0  0  0
  -25.9806  -25.8943   19.0144 H   0  0  0  0  0  0
  -23.9703  -27.2991   19.0064 H   0  0  0  0  0  0
  -23.7587  -30.5807   19.4012 H   0  0  0  0  0  0
  -22.7626  -29.2349   19.8632 H   0  0  0  0  0  0
  -25.1306  -36.1918   25.0819 H   0  0  0  0  0  0
  -20.9982  -28.3288   24.1401 H   0  0  0  0  0  0
  -20.5717  -26.2314   23.3610 H   0  0  0  0  0  0
  -21.6641  -26.7466   22.1185 H   0  0  0  0  0  0
  -19.6910  -25.6307   21.1255 H   0  0  0  0  0  0
  -19.6692  -27.3209   20.6757 H   0  0  0  0  0  0
  -17.4204  -26.6734   21.4005 H   0  0  0  0  0  0
  -18.0293  -26.0077   22.9003 H   0  0  0  0  0  0
  -19.7931  -30.7317   24.2235 H   0  0  0  0  0  0
  -17.5002  -31.6274   24.5177 H   0  0  0  0  0  0
  -15.5348  -30.2986   23.7676 H   0  0  0  0  0  0
  -15.8681  -28.0831   22.7080 H   0  0  0  0  0  0
  -24.5927  -30.7054   25.7736 H   0  0  0  0  0  0
  -24.8925  -32.2857   26.4867 H   0  0  0  0  0  0
  -25.8063  -30.8857   27.0202 H   0  0  0  0  0  0
  -26.2962  -29.6726   24.1240 H   0  0  0  0  0  0
  -27.4134  -29.7297   25.4686 H   0  0  0  0  0  0
  -27.8805  -30.4317   23.9379 H   0  0  0  0  0  0
  -27.2715  -33.3679   26.1972 H   0  0  0  0  0  0
  -28.3928  -32.6787   25.0328 H   0  0  0  0  0  0
  -28.0684  -31.8489   26.5472 H   0  0  0  0  0  0
  -28.2603  -38.0082   24.7491 H   0  0  0  0  0  0
  -28.1048  -36.2606   24.6353 H   0  0  0  0  0  0
  -27.2276  -37.1522   25.8875 H   0  0  0  0  0  0
  -20.9409  -29.8744   21.6848 H   0  0  0  0  0  0
  -26.0170  -38.2840   24.1380 H   0  0  0  0  0  0
  -29.7540  -17.3203   18.8326 H   0  0  0  0  0  0
  -32.0538  -17.0162   21.9399 H   0  0  0  0  0  0
  -31.1371  -17.6289   23.3723 H   0  0  0  0  0  0
  -28.0279  -24.0516   18.1281 H   0  0  0  0  0  0
  -27.0506  -22.9319   19.0100 H   0  0  0  0  0  0
  -29.7984  -15.5363   23.5121 H   0  0  0  0  0  0
  -31.3442  -14.8543   22.9254 H   0  0  0  0  0  0
  -29.5459  -22.4953   21.7681 H   0  0  0  0  0  0
  -29.0247  -17.3069   22.2523 H   0  0  0  0  0  0
  -29.7857  -23.8742   19.8878 H   0  0  0  0  0  0
  -29.7806  -18.0974   16.7513 H   0  0  0  0  0  0
  -29.9026  -19.7774   16.3451 H   0  0  0  0  0  0
  -28.3084  -19.0088   16.5514 H   0  0  0  0  0  0
  -26.5875  -22.0596   21.1220 H   0  0  0  0  0  0
  -27.2301  -23.0794   22.4058 H   0  0  0  0  0  0
  -27.4201  -21.3558   22.4868 H   0  0  0  0  0  0
  -26.9003  -21.1121   17.2416 H   0  0  0  0  0  0
  -28.2047  -21.1631   16.0497 H   0  0  0  0  0  0
  -27.3711  -22.6047   16.4504 H   0  0  0  0  0  0
  -30.8048  -22.7313   18.2211 H   0  0  0  0  0  0
  -29.9274  -23.4003   16.8539 H   0  0  0  0  0  0
  -30.5532  -21.7697   16.7885 H   0  0  0  0  0  0
  -28.4123  -25.0633   21.7269 H   0  0  0  0  0  0
  -27.0029  -24.8056   20.7844 H   0  0  0  0  0  0
  -29.6320  -19.1373   23.1747 H   0  0  0  0  0  0
  -29.2089  -20.7699   22.9811 H   0  0  0  0  0  0
  1 25  1  0  0  0
  1 30  2  0  0  0
  1 89  1  0  0  0
  2  3  1  0  0  0
  2 25  1  0  0  0
  2 91  1  0  0  0
  2 92  1  0  0  0
  3  4  1  0  0  0
  3 93  1  0  0  0
  3 94  1  0  0  0
  4  5  1  0  0  0
  4 95  1  0  0  0
  4 96  1  0  0  0
  5  6  1  0  0  0
  5 26  1  0  0  0
  5 97  1  0  0  0
  6 25  1  0  0  0
  6 98  1  0  0  0
  6 99  1  0  0  0
  7  8  2  0  0  0
  7 26  1  0  0  0
  7 29  1  0  0  0
  8  9  1  0  0  0
  8 22  1  0  0  0
  9 10  1  0  0  0
  9 27  2  0  0  0
 10 11  2  0  0  0
 10 15  1  0  0  0
 11 12  1  0  0  0
 11100  1  0  0  0
 12 13  2  0  0  0
 12101  1  0  0  0
 13 14  1  0  0  0
 13 31  1  0  0  0
 14 15  2  0  0  0
 14102  1  0  0  0
 15103  1  0  0  0
 16 17  2  0  0  0
 16 21  1  0  0  0
 16 31  1  0  0  0
 17 18  1  0  0  0
 17104  1  0  0  0
 18 19  2  0  0  0
 18105  1  0  0  0
 19 20  1  0  0  0
 19 24  1  0  0  0
 20 21  2  0  0  0
 20106  1  0  0  0
 21 23  1  0  0  0
 22 28  1  0  0  0
 22 32  2  0  0  0
 26 27  1  0  0  0
 28107  1  0  0  0
 28108  1  0  0  0
 29109  1  0  0  0
 29110  1  0  0  0
 33 34  1  0  0  0
 33 66  1  0  0  0
 33 70  2  0  0  0
 34 36  1  0  0  0
 34 59  1  0  0  0
 34111  1  0  0  0
 35 44  2  0  0  0
 35 45  1  0  0  0
 35 68  1  0  0  0
 36 56  1  0  0  0
 36112  1  0  0  0
 37 39  1  0  0  0
 37 47  1  0  0  0
 37 66  1  0  0  0
 37113  1  0  0  0
 38 43  2  0  0  0
 38 46  1  0  0  0
 38 47  1  0  0  0
 39 64  1  0  0  0
 39 67  2  0  0  0
 40 52  1  0  0  0
 40 53  2  0  0  0
 40 58  1  0  0  0
 41114  1  0  0  0
 41115  1  0  0  0
 41116  1  0  0  0
 41 48  1  0  0  0
 42 43  1  0  0  0
 42 66  1  0  0  0
 42117  1  0  0  0
 42118  1  0  0  0
 43 44  1  0  0  0
 44119  1  0  0  0
 45 46  2  0  0  0
 45120  1  0  0  0
 46121  1  0  0  0
 47122  1  0  0  0
 47123  1  0  0  0
 48 56  1  0  0  0
 48 65  1  0  0  0
 48124  1  0  0  0
 49 50  1  0  0  0
 49 53  1  0  0  0
 49 64  1  0  0  0
 49125  1  0  0  0
 50 51  1  0  0  0
 50126  1  0  0  0
 50127  1  0  0  0
 51 52  1  0  0  0
 51128  1  0  0  0
 51129  1  0  0  0
 52130  1  0  0  0
 52131  1  0  0  0
 53 54  1  0  0  0
 54 55  2  0  0  0
 54132  1  0  0  0
 55 57  1  0  0  0
 55133  1  0  0  0
 56 69  2  0  0  0
 57 58  2  0  0  0
 57134  1  0  0  0
 58135  1  0  0  0
 59 60  1  0  0  0
 59 61  1  0  0  0
 59 62  1  0  0  0
 60136  1  0  0  0
 60137  1  0  0  0
 60138  1  0  0  0
 61139  1  0  0  0
 61140  1  0  0  0
 61141  1  0  0  0
 62142  1  0  0  0
 62143  1  0  0  0
 62144  1  0  0  0
 63 65  1  0  0  0
 63145  1  0  0  0
 63146  1  0  0  0
 63147  1  0  0  0
 64148  1  0  0  0
 65149  1  0  0  0
 68 88  1  0  0  0
 71 72  2  0  0  0
 71 75  1  0  0  0
 71150  1  0  0  0
 72 76  1  0  0  0
 72 81  1  0  0  0
 73 74  1  0  0  0
 73 75  2  0  0  0
 73 83  1  0  0  0
 74 76  2  0  0  0
 74 80  1  0  0  0
 75 84  1  0  0  0
 76 90  1  0  0  0
 77 79  1  0  0  0
 77 81  1  0  0  0
 77151  1  0  0  0
 77152  1  0  0  0
 78 82  1  0  0  0
 78 83  1  0  0  0
 78153  1  0  0  0
 78154  1  0  0  0
 79 89  1  0  0  0
 79155  1  0  0  0
 79156  1  0  0  0
 80 82  1  0  0  0
 80 85  1  0  0  0
 80157  1  0  0  0
 81 89  1  0  0  0
 81158  1  0  0  0
 82 88  1  0  0  0
 82159  1  0  0  0
 83 86  1  0  0  0
 83 87  1  0  0  0
 84160  1  0  0  0
 84161  1  0  0  0
 84162  1  0  0  0
 85163  1  0  0  0
 85164  1  0  0  0
 85165  1  0  0  0
 86166  1  0  0  0
 86167  1  0  0  0
 86168  1  0  0  0
 87169  1  0  0  0
 87170  1  0  0  0
 87171  1  0  0  0
 88172  1  0  0  0
 88173  1  0  0  0
 90174  1  0  0  0
 90175  1  0  0  0
M  ISO  4   1 100  68 101  88 101  89 100
M  END
> <chiral flag>
0

> <version>
0

> <s_m_source_file>
/data/baiqing/PycharmProjects/Reinvent-master-3.2/result/LINK_invent/BTK/process_docking_weight1_custom_sum_contain_oxygen_bond_distance_aromatic_linkinvent_7_9_3/rearranged_h_0165.sdf

> <i_m_source_file_index>
33

> <r_mmod_Potential_Energy-OPLS-2005>
353.340057373047

> <r_mmod_Stretch_Energy-OPLS-2005>
138.254302978516

> <r_mmod_Bend_Energy-OPLS-2005>
267.309265136719

> <r_mmod_Torsional_Energy-OPLS-2005>
282.483154296875

> <r_mmod_Improper_Torsional_Energy-OPLS-2005>
11.8006019592285

> <r_mmod_Van_der_Waal_Energy-OPLS-2005>
164.68132019043

> <r_mmod_Electrostatic_Energy-OPLS-2005>
-386.980682373047

> <r_mmod_Solvation_Energy-OPLS-2005>
-192.310317993164

> <b_mmod_Minimization_Converged-OPLS-2005>
0

> <r_mmod_RMS_Derivative-OPLS-2005>
1.77418863773346

$$$$
33
                    3D
 Structure written by MMmdl.
180190  0  0  1  0            999 V2000
  -30.6126  -14.7483   20.4939 C   0  0  0  0  0  0
  -30.4294  -12.4737   19.4515 C   0  0  0  0  0  0
  -29.4982  -12.5207   18.2199 C   0  0  0  0  0  0
  -28.0219  -12.3381   18.6301 C   0  0  0  0  0  0
  -27.6384  -13.2106   19.8533 C   0  0  2  0  0  0
  -28.6952  -13.0900   20.9765 C   0  0  0  0  0  0
  -25.2453  -13.8169   20.5647 C   0  0  0  0  0  0
  -24.1790  -13.0411   20.9240 C   0  0  0  0  0  0
  -24.6370  -11.6882   20.8807 C   0  0  0  0  0  0
  -23.9088  -10.4247   21.0475 C   0  0  0  0  0  0
  -24.3620   -9.4163   21.9243 C   0  0  0  0  0  0
  -23.6289   -8.2203   22.0810 C   0  0  0  0  0  0
  -22.4278   -8.0267   21.3588 C   0  0  0  0  0  0
  -21.9926   -9.0258   20.4687 C   0  0  0  0  0  0
  -22.7280  -10.2101   20.3111 C   0  0  0  0  0  0
  -21.6865   -6.0713   22.5292 C   0  0  0  0  0  0
  -21.4007   -6.5628   23.8208 C   0  0  0  0  0  0
  -21.3672   -5.6791   24.9186 C   0  0  0  0  0  0
  -21.6060   -4.3055   24.7252 C   0  0  0  0  0  0
  -21.8844   -3.8149   23.4386 C   0  0  0  0  0  0
  -21.9217   -4.6941   22.3435 C   0  0  0  0  0  0
  -22.7789  -13.5165   21.1879 C   0  0  0  0  0  0
  -22.1701   -4.2110   21.1016 F   0  0  0  0  0  0
  -21.5599   -3.4555   25.7768 F   0  0  0  0  0  0
  -29.9747  -13.5225   20.4004 N   0  0  0  0  0  0
  -26.2889  -12.9336   20.3283 N   0  0  0  0  0  0
  -25.9290  -11.6505   20.5793 N   0  0  0  0  0  0
  -22.0463  -12.8198   22.0503 N   0  0  0  0  0  0
  -25.3998  -15.1897   20.3991 N   0  0  0  0  0  0
  -31.7892  -14.8237   20.1234 O   0  0  0  0  0  0
  -21.6669   -6.8844   21.4241 O   0  0  0  0  0  0
  -22.3450  -14.5395   20.6596 O   0  0  0  0  0  0
  -24.6293  -31.8556   23.1997 C   0  0  0  0  0  0
  -25.9131  -32.4752   23.8340 C   0  0  1  0  0  0
  -27.2322  -27.2918   20.1352 C   0  0  0  0  0  0
  -25.5925  -33.8558   24.2274 N   0  0  0  0  0  0
  -23.4252  -30.4763   21.5432 C   0  0  2  0  0  0
  -24.8751  -28.9191   20.1172 C   0  0  0  0  0  0
  -22.7490  -29.4595   22.4946 C   0  0  0  0  0  0
  -18.0283  -28.1375   22.8478 C   0  0  0  0  0  0
  -24.1493  -36.7270   23.2641 C   0  0  0  0  0  0
  -25.9686  -30.7822   21.3693 C   0  0  0  0  0  0
  -26.0473  -29.4034   20.7169 C   0  0  0  0  0  0
  -27.2312  -28.6072   20.7044 C   0  0  0  0  0  0
  -26.0403  -26.8566   19.5197 C   0  0  0  0  0  0
  -24.8758  -27.6530   19.5067 C   0  0  0  0  0  0
  -23.6432  -29.8064   20.1610 C   0  0  0  0  0  0
  -25.4115  -36.3077   24.0341 C   0  0  1  0  0  0
  -20.5878  -28.3678   23.1269 C   0  0  2  0  0  0
  -20.6758  -26.9388   22.5408 C   0  0  0  0  0  0
  -19.5750  -26.6382   21.5196 C   0  0  0  0  0  0
  -18.1926  -26.7916   22.1609 C   0  0  0  0  0  0
  -19.1534  -28.8836   23.2872 C   0  0  0  0  0  0
  -18.9459  -30.1430   23.8901 C   0  0  0  0  0  0
  -17.6462  -30.6573   24.0552 C   0  0  0  0  0  0
  -25.9059  -34.9436   23.5123 C   0  0  0  0  0  0
  -16.5350  -29.9075   23.6310 C   0  0  0  0  0  0
  -16.7267  -28.6489   23.0344 C   0  0  0  0  0  0
  -26.4511  -31.6567   25.0716 C   0  0  0  0  0  0
  -25.3765  -31.3695   26.1461 C   0  0  0  0  0  0
  -27.0331  -30.2983   24.6166 C   0  0  0  0  0  0
  -27.6087  -32.4287   25.7481 C   0  0  0  0  0  0
  -27.5592  -37.1787   24.8477 C   0  0  0  0  0  0
  -21.4194  -29.3028   22.3665 N   0  0  0  0  0  0
  -26.4300  -37.3767   23.9432 N   0  0  0  0  0  0
  -24.6939  -31.0562   22.0947 N   0  0  0  0  0  0
  -23.4198  -28.8130   23.3039 O   0  0  0  0  0  0
  -28.3528  -26.4431   20.1335 O   0  0  0  0  0  0
  -26.5636  -34.8906   22.4689 O   0  0  0  0  0  0
  -23.5448  -32.1357   23.7310 O   0  0  0  0  0  0
  -28.3632  -19.0672   19.2713 C   0  0  0  0  0  0
  -27.7333  -20.4066   19.3093 C   0  0  0  0  0  0
  -27.9611  -18.1782   18.2035 C   0  0  0  0  0  0
  -26.5146  -20.5581   18.5648 C   0  0  0  0  0  0
  -26.8500  -18.4669   17.3685 C   0  0  0  0  0  0
  -26.1469  -19.6706   17.5347 C   0  0  0  0  0  0
  -29.4182  -22.4693   20.4692 C   0  0  0  0  0  0
  -30.3489  -17.3318   20.3167 C   0  0  0  0  0  0
  -28.6913  -16.1690   21.4910 C   0  0  0  0  0  0
  -29.1987  -18.4348   20.4779 C   0  0  2  0  0  0
  -28.1069  -21.7375   20.1199 C   0  0  1  0  0  0
  -28.2501  -17.6585   21.4237 C   0  0  2  0  0  0
  -28.8259  -23.7765   19.8253 C   0  0  2  0  0  0
  -28.6833  -16.8618   17.9045 C   0  0  0  0  0  0
  -25.4691  -21.6304   18.9176 C   0  0  0  0  0  0
  -26.3313  -17.4351   16.3556 C   0  0  0  0  0  0
  -24.9879  -20.0177   16.5972 C   0  0  0  0  0  0
  -28.1270  -18.2642   22.8289 C   0  0  0  0  0  0
  -29.5577  -24.3008   18.5906 C   0  0  0  0  0  0
  -28.2260  -25.0373   20.6356 C   0  0  0  0  0  0
  -29.8917  -15.9388   20.6793 N   0  0  0  0  0  0
  -27.7183  -22.9551   19.3493 O   0  0  0  0  0  0
  -31.4638  -12.6173   19.1355 H   0  0  0  0  0  0
  -30.3981  -11.4884   19.9191 H   0  0  0  0  0  0
  -29.7801  -11.7493   17.4998 H   0  0  0  0  0  0
  -29.6195  -13.4788   17.7105 H   0  0  0  0  0  0
  -27.8743  -11.2860   18.8754 H   0  0  0  0  0  0
  -27.3616  -12.5454   17.7843 H   0  0  0  0  0  0
  -27.6296  -14.2279   19.4774 H   0  0  0  0  0  0
  -28.7630  -12.0528   21.3071 H   0  0  0  0  0  0
  -28.4335  -13.6454   21.8739 H   0  0  0  0  0  0
  -25.2763   -9.5616   22.4815 H   0  0  0  0  0  0
  -23.9998   -7.4594   22.7541 H   0  0  0  0  0  0
  -21.0868   -8.8835   19.8971 H   0  0  0  0  0  0
  -22.3830  -10.9641   19.6208 H   0  0  0  0  0  0
  -21.1951   -7.6126   23.9692 H   0  0  0  0  0  0
  -21.1477   -6.0530   25.9071 H   0  0  0  0  0  0
  -22.0578   -2.7610   23.2917 H   0  0  0  0  0  0
  -22.4182  -12.0023   22.5121 H   0  0  0  0  0  0
  -21.0935  -13.1014   22.2425 H   0  0  0  0  0  0
  -24.6408  -15.8374   20.5821 H   0  0  0  0  0  0
  -26.2190  -15.6441   20.0188 H   0  0  0  0  0  0
  -26.7196  -32.5409   23.1080 H   0  0  0  0  0  0
  -25.0052  -33.9708   25.0408 H   0  0  0  0  0  0
  -22.7225  -31.2972   21.3976 H   0  0  0  0  0  0
  -23.3768  -35.9591   23.3297 H   0  0  0  0  0  0
  -24.3592  -36.8885   22.2061 H   0  0  0  0  0  0
  -23.7230  -37.6465   23.6652 H   0  0  0  0  0  0
  -26.0996  -31.5442   20.5982 H   0  0  0  0  0  0
  -26.8507  -30.8351   21.9958 H   0  0  0  0  0  0
  -28.1362  -28.9853   21.1612 H   0  0  0  0  0  0
  -26.0063  -25.8827   19.0532 H   0  0  0  0  0  0
  -23.9811  -27.2761   19.0295 H   0  0  0  0  0  0
  -23.7630  -30.5839   19.4059 H   0  0  0  0  0  0
  -22.7628  -29.2370   19.8580 H   0  0  0  0  0  0
  -25.1284  -36.1928   25.0832 H   0  0  0  0  0  0
  -20.9972  -28.3255   24.1395 H   0  0  0  0  0  0
  -20.5611  -26.2295   23.3621 H   0  0  0  0  0  0
  -21.6628  -26.7384   22.1228 H   0  0  0  0  0  0
  -19.6917  -25.6302   21.1210 H   0  0  0  0  0  0
  -19.6689  -27.3201   20.6734 H   0  0  0  0  0  0
  -17.4186  -26.6642   21.4020 H   0  0  0  0  0  0
  -18.0335  -26.0062   22.9010 H   0  0  0  0  0  0
  -19.7941  -30.7224   24.2296 H   0  0  0  0  0  0
  -17.5023  -31.6254   24.5149 H   0  0  0  0  0  0
  -15.5348  -30.2984   23.7634 H   0  0  0  0  0  0
  -15.8673  -28.0808   22.7074 H   0  0  0  0  0  0
  -24.5977  -30.6978   25.7831 H   0  0  0  0  0  0
  -24.8898  -32.2842   26.4868 H   0  0  0  0  0  0
  -25.8130  -30.8930   27.0254 H   0  0  0  0  0  0
  -26.2889  -29.6756   24.1179 H   0  0  0  0  0  0
  -27.4023  -29.7211   25.4661 H   0  0  0  0  0  0
  -27.8772  -30.4271   23.9378 H   0  0  0  0  0  0
  -27.2722  -33.3605   26.2042 H   0  0  0  0  0  0
  -28.3906  -32.6809   25.0303 H   0  0  0  0  0  0
  -28.0742  -31.8407   26.5407 H   0  0  0  0  0  0
  -28.2593  -38.0097   24.7516 H   0  0  0  0  0  0
  -28.1090  -36.2620   24.6283 H   0  0  0  0  0  0
  -27.2314  -37.1417   25.8882 H   0  0  0  0  0  0
  -20.9388  -29.8754   21.6863 H   0  0  0  0  0  0
  -26.0175  -38.2839   24.1431 H   0  0  0  0  0  0
  -30.2835  -22.0690   19.9385 H   0  0  0  0  0  0
  -29.6025  -22.5402   21.5422 H   0  0  0  0  0  0
  -31.0841  -17.5632   21.0878 H   0  0  0  0  0  0
  -30.9435  -17.4127   19.4101 H   0  0  0  0  0  0
  -27.8583  -15.5883   21.1218 H   0  0  0  0  0  0
  -28.8783  -15.8501   22.5160 H   0  0  0  0  0  0
  -29.6298  -19.2901   20.9998 H   0  0  0  0  0  0
  -27.5229  -21.6857   21.0403 H   0  0  0  0  0  0
  -27.2451  -17.6697   20.9949 H   0  0  0  0  0  0
  -29.7537  -17.0061   17.8238 H   0  0  0  0  0  0
  -28.4611  -16.4180   16.9373 H   0  0  0  0  0  0
  -28.4295  -16.1079   18.6399 H   0  0  0  0  0  0
  -25.5353  -21.9839   19.9469 H   0  0  0  0  0  0
  -24.4558  -21.2345   18.8413 H   0  0  0  0  0  0
  -25.5442  -22.4892   18.2479 H   0  0  0  0  0  0
  -26.3042  -16.4371   16.7932 H   0  0  0  0  0  0
  -26.9577  -17.4139   15.4637 H   0  0  0  0  0  0
  -25.3053  -17.5965   16.0341 H   0  0  0  0  0  0
  -24.8105  -21.0889   16.5270 H   0  0  0  0  0  0
  -24.0640  -19.5333   16.9147 H   0  0  0  0  0  0
  -25.2094  -19.7154   15.5754 H   0  0  0  0  0  0
  -29.0896  -18.2994   23.3401 H   0  0  0  0  0  0
  -27.4465  -17.6758   23.4495 H   0  0  0  0  0  0
  -27.7386  -19.2812   22.7812 H   0  0  0  0  0  0
  -30.4047  -24.9282   18.8732 H   0  0  0  0  0  0
  -28.8995  -24.9002   17.9606 H   0  0  0  0  0  0
  -29.9515  -23.4970   17.9694 H   0  0  0  0  0  0
  -28.7104  -25.0546   21.6108 H   0  0  0  0  0  0
  -27.1834  -24.8383   20.8822 H   0  0  0  0  0  0
  1 25  1  0  0  0
  1 30  2  0  0  0
  1 91  1  0  0  0
  2  3  1  0  0  0
  2 25  1  0  0  0
  2 93  1  0  0  0
  2 94  1  0  0  0
  3  4  1  0  0  0
  3 95  1  0  0  0
  3 96  1  0  0  0
  4  5  1  0  0  0
  4 97  1  0  0  0
  4 98  1  0  0  0
  5  6  1  0  0  0
  5 26  1  0  0  0
  5 99  1  0  0  0
  6 25  1  0  0  0
  6100  1  0  0  0
  6101  1  0  0  0
  7  8  2  0  0  0
  7 26  1  0  0  0
  7 29  1  0  0  0
  8  9  1  0  0  0
  8 22  1  0  0  0
  9 10  1  0  0  0
  9 27  2  0  0  0
 10 11  2  0  0  0
 10 15  1  0  0  0
 11 12  1  0  0  0
 11102  1  0  0  0
 12 13  2  0  0  0
 12103  1  0  0  0
 13 14  1  0  0  0
 13 31  1  0  0  0
 14 15  2  0  0  0
 14104  1  0  0  0
 15105  1  0  0  0
 16 17  2  0  0  0
 16 21  1  0  0  0
 16 31  1  0  0  0
 17 18  1  0  0  0
 17106  1  0  0  0
 18 19  2  0  0  0
 18107  1  0  0  0
 19 20  1  0  0  0
 19 24  1  0  0  0
 20 21  2  0  0  0
 20108  1  0  0  0
 21 23  1  0  0  0
 22 28  1  0  0  0
 22 32  2  0  0  0
 26 27  1  0  0  0
 28109  1  0  0  0
 28110  1  0  0  0
 29111  1  0  0  0
 29112  1  0  0  0
 33 34  1  0  0  0
 33 66  1  0  0  0
 33 70  2  0  0  0
 34 36  1  0  0  0
 34 59  1  0  0  0
 34113  1  0  0  0
 35 44  2  0  0  0
 35 45  1  0  0  0
 35 68  1  0  0  0
 36 56  1  0  0  0
 36114  1  0  0  0
 37 39  1  0  0  0
 37 47  1  0  0  0
 37 66  1  0  0  0
 37115  1  0  0  0
 38 43  2  0  0  0
 38 46  1  0  0  0
 38 47  1  0  0  0
 39 64  1  0  0  0
 39 67  2  0  0  0
 40 52  1  0  0  0
 40 53  2  0  0  0
 40 58  1  0  0  0
 41116  1  0  0  0
 41117  1  0  0  0
 41118  1  0  0  0
 41 48  1  0  0  0
 42 43  1  0  0  0
 42 66  1  0  0  0
 42119  1  0  0  0
 42120  1  0  0  0
 43 44  1  0  0  0
 44121  1  0  0  0
 45 46  2  0  0  0
 45122  1  0  0  0
 46123  1  0  0  0
 47124  1  0  0  0
 47125  1  0  0  0
 48 56  1  0  0  0
 48 65  1  0  0  0
 48126  1  0  0  0
 49 50  1  0  0  0
 49 53  1  0  0  0
 49 64  1  0  0  0
 49127  1  0  0  0
 50 51  1  0  0  0
 50128  1  0  0  0
 50129  1  0  0  0
 51 52  1  0  0  0
 51130  1  0  0  0
 51131  1  0  0  0
 52132  1  0  0  0
 52133  1  0  0  0
 53 54  1  0  0  0
 54 55  2  0  0  0
 54134  1  0  0  0
 55 57  1  0  0  0
 55135  1  0  0  0
 56 69  2  0  0  0
 57 58  2  0  0  0
 57136  1  0  0  0
 58137  1  0  0  0
 59 60  1  0  0  0
 59 61  1  0  0  0
 59 62  1  0  0  0
 60138  1  0  0  0
 60139  1  0  0  0
 60140  1  0  0  0
 61141  1  0  0  0
 61142  1  0  0  0
 61143  1  0  0  0
 62144  1  0  0  0
 62145  1  0  0  0
 62146  1  0  0  0
 63 65  1  0  0  0
 63147  1  0  0  0
 63148  1  0  0  0
 63149  1  0  0  0
 64150  1  0  0  0
 65151  1  0  0  0
 68 90  1  0  0  0
 71 72  1  0  0  0
 71 73  2  0  0  0
 71 80  1  0  0  0
 72 74  2  0  0  0
 72 81  1  0  0  0
 73 75  1  0  0  0
 73 84  1  0  0  0
 74 76  1  0  0  0
 74 85  1  0  0  0
 75 76  2  0  0  0
 75 86  1  0  0  0
 76 87  1  0  0  0
 77 81  1  0  0  0
 77 83  1  0  0  0
 77152  1  0  0  0
 77153  1  0  0  0
 78 80  1  0  0  0
 78 91  1  0  0  0
 78154  1  0  0  0
 78155  1  0  0  0
 79 82  1  0  0  0
 79 91  1  0  0  0
 79156  1  0  0  0
 79157  1  0  0  0
 80 82  1  0  0  0
 80158  1  0  0  0
 81 92  1  0  0  0
 81159  1  0  0  0
 82 88  1  0  0  0
 82160  1  0  0  0
 83 89  1  0  0  0
 83 90  1  0  0  0
 83 92  1  0  0  0
 84161  1  0  0  0
 84162  1  0  0  0
 84163  1  0  0  0
 85164  1  0  0  0
 85165  1  0  0  0
 85166  1  0  0  0
 86167  1  0  0  0
 86168  1  0  0  0
 86169  1  0  0  0
 87170  1  0  0  0
 87171  1  0  0  0
 87172  1  0  0  0
 88173  1  0  0  0
 88174  1  0  0  0
 88175  1  0  0  0
 89176  1  0  0  0
 89177  1  0  0  0
 89178  1  0  0  0
 90179  1  0  0  0
 90180  1  0  0  0
M  ISO  4   1 100  68 101  90 101  91 100
M  END
> <chiral flag>
0

> <version>
0

> <s_m_source_file>
/data/baiqing/PycharmProjects/Reinvent-master-3.2/result/LINK_invent/BTK/process_docking_weight1_custom_sum_contain_oxygen_bond_distance_aromatic_linkinvent_7_9_3/rearranged_h_0165.sdf

> <i_m_source_file_index>
34

> <r_mmod_Potential_Energy-OPLS-2005>
520.528564453125

> <r_mmod_Stretch_Energy-OPLS-2005>
137.198272705078

> <r_mmod_Bend_Energy-OPLS-2005>
262.062377929688

> <r_mmod_Torsional_Energy-OPLS-2005>
434.147064208984

> <r_mmod_Improper_Torsional_Energy-OPLS-2005>
11.016697883606

> <r_mmod_Van_der_Waal_Energy-OPLS-2005>
176.441513061523

> <r_mmod_Electrostatic_Energy-OPLS-2005>
-373.815490722656

> <r_mmod_Solvation_Energy-OPLS-2005>
-197.461883544922

> <b_mmod_Minimization_Converged-OPLS-2005>
0

> <r_mmod_RMS_Derivative-OPLS-2005>
4.49988794326782

$$$$
34
                    3D
 Structure written by MMmdl.
174183  0  0  1  0            999 V2000
  -30.8111  -14.4826   20.5638 C   0  0  0  0  0  0
  -30.4160  -12.3294   19.4178 C   0  0  0  0  0  0
  -29.4928  -12.5374   18.2024 C   0  0  0  0  0  0
  -28.0129  -12.3997   18.6126 C   0  0  0  0  0  0
  -27.6712  -13.2083   19.8922 C   0  0  2  0  0  0
  -28.7389  -12.9939   21.0022 C   0  0  0  0  0  0
  -25.2660  -13.8121   20.5697 C   0  0  0  0  0  0
  -24.1906  -13.0406   20.9182 C   0  0  0  0  0  0
  -24.6476  -11.6865   20.8764 C   0  0  0  0  0  0
  -23.9122  -10.4277   21.0427 C   0  0  0  0  0  0
  -24.3644   -9.4179   21.9196 C   0  0  0  0  0  0
  -23.6308   -8.2211   22.0738 C   0  0  0  0  0  0
  -22.4293   -8.0270   21.3525 C   0  0  0  0  0  0
  -21.9964   -9.0261   20.4632 C   0  0  0  0  0  0
  -22.7299  -10.2132   20.3067 C   0  0  0  0  0  0
  -21.6853   -6.0743   22.5273 C   0  0  0  0  0  0
  -21.4012   -6.5653   23.8211 C   0  0  0  0  0  0
  -21.3664   -5.6799   24.9169 C   0  0  0  0  0  0
  -21.6041   -4.3063   24.7214 C   0  0  0  0  0  0
  -21.8814   -3.8149   23.4337 C   0  0  0  0  0  0
  -21.9197   -4.6971   22.3395 C   0  0  0  0  0  0
  -22.7924  -13.5224   21.1816 C   0  0  0  0  0  0
  -22.1664   -4.2157   21.0975 F   0  0  0  0  0  0
  -21.5646   -3.4549   25.7730 F   0  0  0  0  0  0
  -30.0415  -13.3511   20.4190 N   0  0  0  0  0  0
  -26.3138  -12.9291   20.3530 N   0  0  0  0  0  0
  -25.9419  -11.6440   20.5858 N   0  0  0  0  0  0
  -22.0545  -12.8227   22.0365 N   0  0  0  0  0  0
  -25.4323  -15.1813   20.3991 N   0  0  0  0  0  0
  -31.9877  -14.4484   20.2130 O   0  0  0  0  0  0
  -21.6637   -6.8872   21.4229 O   0  0  0  0  0  0
  -22.3644  -14.5552   20.6680 O   0  0  0  0  0  0
  -24.6126  -31.8703   23.2113 C   0  0  0  0  0  0
  -25.9016  -32.4835   23.8406 C   0  0  1  0  0  0
  -27.2417  -27.4421   20.0968 C   0  0  0  0  0  0
  -25.5870  -33.8640   24.2338 N   0  0  0  0  0  0
  -23.4003  -30.4934   21.5529 C   0  0  2  0  0  0
  -24.8459  -28.9552   20.1199 C   0  0  0  0  0  0
  -22.7401  -29.4681   22.5018 C   0  0  0  0  0  0
  -18.0264  -28.1388   22.8502 C   0  0  0  0  0  0
  -24.1473  -36.7304   23.2648 C   0  0  0  0  0  0
  -25.9274  -30.8377   21.3611 C   0  0  0  0  0  0
  -26.0062  -29.4717   20.7095 C   0  0  0  0  0  0
  -27.2028  -28.7255   20.6886 C   0  0  0  0  0  0
  -26.0626  -26.9383   19.4965 C   0  0  0  0  0  0
  -24.8702  -27.6872   19.5116 C   0  0  0  0  0  0
  -23.6069  -29.8209   20.1693 C   0  0  0  0  0  0
  -25.4103  -36.3136   24.0352 C   0  0  1  0  0  0
  -20.5856  -28.3663   23.1331 C   0  0  2  0  0  0
  -20.6755  -26.9406   22.5430 C   0  0  0  0  0  0
  -19.5738  -26.6383   21.5223 C   0  0  0  0  0  0
  -18.1914  -26.7938   22.1625 C   0  0  0  0  0  0
  -19.1517  -28.8842   23.2913 C   0  0  0  0  0  0
  -18.9446  -30.1451   23.8923 C   0  0  0  0  0  0
  -17.6449  -30.6590   24.0570 C   0  0  0  0  0  0
  -25.9031  -34.9498   23.5144 C   0  0  0  0  0  0
  -16.5342  -29.9101   23.6325 C   0  0  0  0  0  0
  -16.7252  -28.6520   23.0342 C   0  0  0  0  0  0
  -26.4449  -31.6623   25.0736 C   0  0  0  0  0  0
  -25.3690  -31.3700   26.1449 C   0  0  0  0  0  0
  -27.0292  -30.3088   24.6092 C   0  0  0  0  0  0
  -27.6044  -32.4336   25.7477 C   0  0  0  0  0  0
  -27.5578  -37.1808   24.8466 C   0  0  0  0  0  0
  -21.4132  -29.3021   22.3732 N   0  0  0  0  0  0
  -26.4288  -37.3819   23.9415 N   0  0  0  0  0  0
  -24.6658  -31.0805   22.1001 N   0  0  0  0  0  0
  -23.4176  -28.8231   23.3061 O   0  0  0  0  0  0
  -28.4451  -26.7673   20.0763 O   0  0  0  0  0  0
  -26.5611  -34.8946   22.4719 O   0  0  0  0  0  0
  -23.5326  -32.1444   23.7517 O   0  0  0  0  0  0
  -30.5305  -21.5794   18.9351 C   0  0  0  0  0  0
  -30.2021  -20.1966   18.9120 C   0  0  0  0  0  0
  -30.4173  -22.2938   20.1578 C   0  0  0  0  0  0
  -29.9633  -19.5224   20.1420 C   0  0  0  0  0  0
  -30.1505  -21.5374   21.3256 C   0  0  0  0  0  0
  -28.7546  -17.5480   21.3500 C   0  0  0  0  0  0
  -29.0591  -16.0547   21.5534 C   0  0  0  0  0  0
  -29.6997  -17.9927   20.2368 C   0  0  2  0  0  0
  -30.8922  -17.0380   20.4335 C   0  0  2  0  0  0
  -31.0361  -22.2596   17.6650 C   0  0  0  0  0  0
  -30.1268  -19.4678   17.5704 C   0  0  0  0  0  0
  -30.0485  -22.1788   22.6995 C   0  0  0  0  0  0
  -31.9078  -17.1012   19.2598 C   0  0  0  0  0  0
  -30.3850  -25.7300   18.5575 C   0  0  0  0  0  0
  -30.6231  -23.8230   20.2286 C   0  0  0  0  0  0
  -28.4754  -25.3366   20.2278 C   0  0  0  0  0  0
  -29.6211  -24.6848   19.3952 C   0  0  1  0  0  0
  -29.9882  -20.1969   21.3142 N   0  0  0  0  0  0
  -30.2433  -15.7183   20.7473 N   0  0  0  0  0  0
  -31.4605  -12.3777   19.1040 H   0  0  0  0  0  0
  -30.2946  -11.3223   19.8196 H   0  0  0  0  0  0
  -29.7374  -11.8312   17.4108 H   0  0  0  0  0  0
  -29.6624  -13.5331   17.7882 H   0  0  0  0  0  0
  -27.8016  -11.3423   18.7714 H   0  0  0  0  0  0
  -27.3684  -12.7165   17.7906 H   0  0  0  0  0  0
  -27.7044  -14.2531   19.5900 H   0  0  0  0  0  0
  -28.7541  -11.9462   21.3123 H   0  0  0  0  0  0
  -28.5366  -13.5286   21.9290 H   0  0  0  0  0  0
  -25.2766   -9.5648   22.4801 H   0  0  0  0  0  0
  -24.0005   -7.4616   22.7464 H   0  0  0  0  0  0
  -21.0893   -8.8806   19.8952 H   0  0  0  0  0  0
  -22.3767  -10.9690   19.6198 H   0  0  0  0  0  0
  -21.1988   -7.6163   23.9724 H   0  0  0  0  0  0
  -21.1504   -6.0521   25.9083 H   0  0  0  0  0  0
  -22.0599   -2.7617   23.2822 H   0  0  0  0  0  0
  -22.4137  -11.9892   22.4752 H   0  0  0  0  0  0
  -21.1147  -13.1243   22.2495 H   0  0  0  0  0  0
  -24.6468  -15.8214   20.4501 H   0  0  0  0  0  0
  -26.2826  -15.6212   20.0737 H   0  0  0  0  0  0
  -26.7091  -32.5550   23.1176 H   0  0  0  0  0  0
  -24.9991  -33.9811   25.0456 H   0  0  0  0  0  0
  -22.6890  -31.3097   21.4143 H   0  0  0  0  0  0
  -23.3768  -35.9599   23.3316 H   0  0  0  0  0  0
  -24.3566  -36.8912   22.2058 H   0  0  0  0  0  0
  -23.7165  -37.6490   23.6647 H   0  0  0  0  0  0
  -26.0332  -31.6041   20.5915 H   0  0  0  0  0  0
  -26.8181  -30.8951   21.9744 H   0  0  0  0  0  0
  -28.1047  -29.1311   21.1269 H   0  0  0  0  0  0
  -26.0545  -25.9865   18.9866 H   0  0  0  0  0  0
  -23.9787  -27.2891   19.0453 H   0  0  0  0  0  0
  -23.7102  -30.5937   19.4071 H   0  0  0  0  0  0
  -22.7303  -29.2386   19.8799 H   0  0  0  0  0  0
  -25.1285  -36.2017   25.0842 H   0  0  0  0  0  0
  -20.9948  -28.3221   24.1447 H   0  0  0  0  0  0
  -20.5652  -26.2276   23.3619 H   0  0  0  0  0  0
  -21.6619  -26.7455   22.1206 H   0  0  0  0  0  0
  -19.6894  -25.6292   21.1247 H   0  0  0  0  0  0
  -19.6692  -27.3198   20.6764 H   0  0  0  0  0  0
  -17.4195  -26.6702   21.4013 H   0  0  0  0  0  0
  -18.0306  -26.0072   22.9013 H   0  0  0  0  0  0
  -19.7928  -30.7254   24.2295 H   0  0  0  0  0  0
  -17.5013  -31.6279   24.5170 H   0  0  0  0  0  0
  -15.5339  -30.3012   23.7647 H   0  0  0  0  0  0
  -15.8648  -28.0848   22.7035 H   0  0  0  0  0  0
  -24.5862  -30.7076   25.7728 H   0  0  0  0  0  0
  -24.8861  -32.2842   26.4938 H   0  0  0  0  0  0
  -25.7992  -30.8804   27.0194 H   0  0  0  0  0  0
  -26.2845  -29.6838   24.1145 H   0  0  0  0  0  0
  -27.4097  -29.7339   25.4548 H   0  0  0  0  0  0
  -27.8664  -30.4460   23.9231 H   0  0  0  0  0  0
  -27.2700  -33.3644   26.2082 H   0  0  0  0  0  0
  -28.3823  -32.6884   25.0259 H   0  0  0  0  0  0
  -28.0741  -31.8428   26.5351 H   0  0  0  0  0  0
  -28.2612  -38.0101   24.7556 H   0  0  0  0  0  0
  -28.1070  -36.2642   24.6258 H   0  0  0  0  0  0
  -27.2303  -37.1407   25.8873 H   0  0  0  0  0  0
  -20.9297  -29.8724   21.6936 H   0  0  0  0  0  0
  -26.0197  -38.2901   24.1444 H   0  0  0  0  0  0
  -28.9625  -18.0657   22.2850 H   0  0  0  0  0  0
  -27.7112  -17.7403   21.0936 H   0  0  0  0  0  0
  -28.1753  -15.5072   21.2608 H   0  0  0  0  0  0
  -29.2512  -15.8441   22.6074 H   0  0  0  0  0  0
  -29.2030  -17.6714   19.3254 H   0  0  0  0  0  0
  -31.4298  -17.3530   21.3302 H   0  0  0  0  0  0
  -31.6426  -21.5710   17.0760 H   0  0  0  0  0  0
  -31.6975  -23.0960   17.8789 H   0  0  0  0  0  0
  -30.2130  -22.6120   17.0417 H   0  0  0  0  0  0
  -29.8313  -20.1430   16.7673 H   0  0  0  0  0  0
  -29.3708  -18.6865   17.5538 H   0  0  0  0  0  0
  -31.0929  -19.0392   17.3015 H   0  0  0  0  0  0
  -29.2814  -22.9551   22.7090 H   0  0  0  0  0  0
  -30.9985  -22.6323   22.9850 H   0  0  0  0  0  0
  -29.7876  -21.4480   23.4667 H   0  0  0  0  0  0
  -31.5004  -16.6867   18.3369 H   0  0  0  0  0  0
  -32.8444  -16.5901   19.4813 H   0  0  0  0  0  0
  -32.2120  -18.1293   19.0640 H   0  0  0  0  0  0
  -31.1175  -25.2625   17.9024 H   0  0  0  0  0  0
  -30.9168  -26.4349   19.1970 H   0  0  0  0  0  0
  -29.7097  -26.2999   17.9194 H   0  0  0  0  0  0
  -31.6439  -24.0081   19.8912 H   0  0  0  0  0  0
  -30.6506  -24.1915   21.2528 H   0  0  0  0  0  0
  -28.6173  -25.1374   21.2898 H   0  0  0  0  0  0
  -27.5377  -24.8436   19.9803 H   0  0  0  0  0  0
  -29.1370  -24.0344   18.6671 H   0  0  0  0  0  0
  1 25  1  0  0  0
  1 30  2  0  0  0
  1 89  1  0  0  0
  2  3  1  0  0  0
  2 25  1  0  0  0
  2 90  1  0  0  0
  2 91  1  0  0  0
  3  4  1  0  0  0
  3 92  1  0  0  0
  3 93  1  0  0  0
  4  5  1  0  0  0
  4 94  1  0  0  0
  4 95  1  0  0  0
  5  6  1  0  0  0
  5 26  1  0  0  0
  5 96  1  0  0  0
  6 25  1  0  0  0
  6 97  1  0  0  0
  6 98  1  0  0  0
  7  8  2  0  0  0
  7 26  1  0  0  0
  7 29  1  0  0  0
  8  9  1  0  0  0
  8 22  1  0  0  0
  9 10  1  0  0  0
  9 27  2  0  0  0
 10 11  2  0  0  0
 10 15  1  0  0  0
 11 12  1  0  0  0
 11 99  1  0  0  0
 12 13  2  0  0  0
 12100  1  0  0  0
 13 14  1  0  0  0
 13 31  1  0  0  0
 14 15  2  0  0  0
 14101  1  0  0  0
 15102  1  0  0  0
 16 17  2  0  0  0
 16 21  1  0  0  0
 16 31  1  0  0  0
 17 18  1  0  0  0
 17103  1  0  0  0
 18 19  2  0  0  0
 18104  1  0  0  0
 19 20  1  0  0  0
 19 24  1  0  0  0
 20 21  2  0  0  0
 20105  1  0  0  0
 21 23  1  0  0  0
 22 28  1  0  0  0
 22 32  2  0  0  0
 26 27  1  0  0  0
 28106  1  0  0  0
 28107  1  0  0  0
 29108  1  0  0  0
 29109  1  0  0  0
 33 34  1  0  0  0
 33 66  1  0  0  0
 33 70  2  0  0  0
 34 36  1  0  0  0
 34 59  1  0  0  0
 34110  1  0  0  0
 35 44  2  0  0  0
 35 45  1  0  0  0
 35 68  1  0  0  0
 36 56  1  0  0  0
 36111  1  0  0  0
 37 39  1  0  0  0
 37 47  1  0  0  0
 37 66  1  0  0  0
 37112  1  0  0  0
 38 43  2  0  0  0
 38 46  1  0  0  0
 38 47  1  0  0  0
 39 64  1  0  0  0
 39 67  2  0  0  0
 40 52  1  0  0  0
 40 53  2  0  0  0
 40 58  1  0  0  0
 41113  1  0  0  0
 41114  1  0  0  0
 41115  1  0  0  0
 41 48  1  0  0  0
 42 43  1  0  0  0
 42 66  1  0  0  0
 42116  1  0  0  0
 42117  1  0  0  0
 43 44  1  0  0  0
 44118  1  0  0  0
 45 46  2  0  0  0
 45119  1  0  0  0
 46120  1  0  0  0
 47121  1  0  0  0
 47122  1  0  0  0
 48 56  1  0  0  0
 48 65  1  0  0  0
 48123  1  0  0  0
 49 50  1  0  0  0
 49 53  1  0  0  0
 49 64  1  0  0  0
 49124  1  0  0  0
 50 51  1  0  0  0
 50125  1  0  0  0
 50126  1  0  0  0
 51 52  1  0  0  0
 51127  1  0  0  0
 51128  1  0  0  0
 52129  1  0  0  0
 52130  1  0  0  0
 53 54  1  0  0  0
 54 55  2  0  0  0
 54131  1  0  0  0
 55 57  1  0  0  0
 55132  1  0  0  0
 56 69  2  0  0  0
 57 58  2  0  0  0
 57133  1  0  0  0
 58134  1  0  0  0
 59 60  1  0  0  0
 59 61  1  0  0  0
 59 62  1  0  0  0
 60135  1  0  0  0
 60136  1  0  0  0
 60137  1  0  0  0
 61138  1  0  0  0
 61139  1  0  0  0
 61140  1  0  0  0
 62141  1  0  0  0
 62142  1  0  0  0
 62143  1  0  0  0
 63 65  1  0  0  0
 63144  1  0  0  0
 63145  1  0  0  0
 63146  1  0  0  0
 64147  1  0  0  0
 65148  1  0  0  0
 68 86  1  0  0  0
 71 72  2  0  0  0
 71 73  1  0  0  0
 71 80  1  0  0  0
 72 74  1  0  0  0
 72 81  1  0  0  0
 73 75  2  0  0  0
 73 85  1  0  0  0
 74 88  2  0  0  0
 74 78  1  0  0  0
 75 82  1  0  0  0
 75 88  1  0  0  0
 76 77  1  0  0  0
 76 78  1  0  0  0
 76149  1  0  0  0
 76150  1  0  0  0
 77 89  1  0  0  0
 77151  1  0  0  0
 77152  1  0  0  0
 78 79  1  0  0  0
 78153  1  0  0  0
 79 83  1  0  0  0
 79 89  1  0  0  0
 79154  1  0  0  0
 80155  1  0  0  0
 80156  1  0  0  0
 80157  1  0  0  0
 81158  1  0  0  0
 81159  1  0  0  0
 81160  1  0  0  0
 82161  1  0  0  0
 82162  1  0  0  0
 82163  1  0  0  0
 83164  1  0  0  0
 83165  1  0  0  0
 83166  1  0  0  0
 84167  1  0  0  0
 84168  1  0  0  0
 84169  1  0  0  0
 84 87  1  0  0  0
 85 87  1  0  0  0
 85170  1  0  0  0
 85171  1  0  0  0
 86 87  1  0  0  0
 86172  1  0  0  0
 86173  1  0  0  0
 87174  1  0  0  0
M  ISO  4   1 100  68 101  86 101  89 100
M  END
> <chiral flag>
0

> <version>
0

> <s_m_source_file>
/data/baiqing/PycharmProjects/Reinvent-master-3.2/result/LINK_invent/BTK/process_docking_weight1_custom_sum_contain_oxygen_bond_distance_aromatic_linkinvent_7_9_3/rearranged_h_0165.sdf

> <i_m_source_file_index>
35

> <r_mmod_Potential_Energy-OPLS-2005>
158.074417114258

> <r_mmod_Stretch_Energy-OPLS-2005>
54.0038261413574

> <r_mmod_Bend_Energy-OPLS-2005>
176.797225952148

> <r_mmod_Torsional_Energy-OPLS-2005>
336.577941894531

> <r_mmod_Improper_Torsional_Energy-OPLS-2005>
10.0529289245605

> <r_mmod_Van_der_Waal_Energy-OPLS-2005>
181.86279296875

> <r_mmod_Electrostatic_Energy-OPLS-2005>
-421.112365722656

> <r_mmod_Solvation_Energy-OPLS-2005>
-205.335693359375

> <b_mmod_Minimization_Converged-OPLS-2005>
0

> <r_mmod_RMS_Derivative-OPLS-2005>
3.92987370491028

$$$$
35
                    3D
 Structure written by MMmdl.
163174  0  0  1  0            999 V2000
  -30.4913  -14.8572   20.4543 C   0  0  0  0  0  0
  -30.4534  -12.5343   19.4571 C   0  0  0  0  0  0
  -29.5145  -12.5242   18.2254 C   0  0  0  0  0  0
  -28.0428  -12.3246   18.6442 C   0  0  0  0  0  0
  -27.6358  -13.2237   19.8417 C   0  0  2  0  0  0
  -28.6820  -13.1574   20.9718 C   0  0  0  0  0  0
  -25.2484  -13.8166   20.5630 C   0  0  0  0  0  0
  -24.1780  -13.0420   20.9207 C   0  0  0  0  0  0
  -24.6382  -11.6900   20.8746 C   0  0  0  0  0  0
  -23.9062  -10.4278   21.0413 C   0  0  0  0  0  0
  -24.3619   -9.4204   21.9189 C   0  0  0  0  0  0
  -23.6301   -8.2239   22.0767 C   0  0  0  0  0  0
  -22.4282   -8.0280   21.3554 C   0  0  0  0  0  0
  -21.9905   -9.0251   20.4647 C   0  0  0  0  0  0
  -22.7240  -10.2129   20.3057 C   0  0  0  0  0  0
  -21.6852   -6.0734   22.5284 C   0  0  0  0  0  0
  -21.4020   -6.5635   23.8215 C   0  0  0  0  0  0
  -21.3653   -5.6791   24.9180 C   0  0  0  0  0  0
  -21.6037   -4.3053   24.7222 C   0  0  0  0  0  0
  -21.8828   -3.8145   23.4347 C   0  0  0  0  0  0
  -21.9193   -4.6965   22.3402 C   0  0  0  0  0  0
  -22.7805  -13.5223   21.1855 C   0  0  0  0  0  0
  -22.1666   -4.2153   21.0979 F   0  0  0  0  0  0
  -21.5619   -3.4532   25.7737 F   0  0  0  0  0  0
  -29.9579  -13.5820   20.3826 N   0  0  0  0  0  0
  -26.2905  -12.9357   20.3207 N   0  0  0  0  0  0
  -25.9306  -11.6517   20.5709 N   0  0  0  0  0  0
  -22.0456  -12.8209   22.0424 N   0  0  0  0  0  0
  -25.4107  -15.1878   20.3971 N   0  0  0  0  0  0
  -31.6993  -15.0121   20.2324 O   0  0  0  0  0  0
  -21.6639   -6.8877   21.4254 O   0  0  0  0  0  0
  -22.3509  -14.5520   20.6695 O   0  0  0  0  0  0
  -24.6324  -31.8529   23.1935 C   0  0  0  0  0  0
  -25.9127  -32.4746   23.8304 C   0  0  1  0  0  0
  -27.1997  -27.1894   20.1393 C   0  0  0  0  0  0
  -25.5936  -33.8560   24.2232 N   0  0  0  0  0  0
  -23.4322  -30.4698   21.5409 C   0  0  2  0  0  0
  -24.8716  -28.8965   20.1143 C   0  0  0  0  0  0
  -22.7524  -29.4559   22.4918 C   0  0  0  0  0  0
  -18.0289  -28.1374   22.8496 C   0  0  0  0  0  0
  -24.1503  -36.7244   23.2642 C   0  0  0  0  0  0
  -25.9826  -30.7380   21.3826 C   0  0  0  0  0  0
  -26.0461  -29.3535   20.7237 C   0  0  0  0  0  0
  -27.2118  -28.5154   20.7133 C   0  0  0  0  0  0
  -26.0026  -26.8055   19.5082 C   0  0  0  0  0  0
  -24.8589  -27.6352   19.4934 C   0  0  0  0  0  0
  -23.6487  -29.7943   20.1603 C   0  0  0  0  0  0
  -25.4139  -36.3049   24.0314 C   0  0  1  0  0  0
  -20.5902  -28.3667   23.1278 C   0  0  2  0  0  0
  -20.6747  -26.9377   22.5421 C   0  0  0  0  0  0
  -19.5695  -26.6330   21.5244 C   0  0  0  0  0  0
  -18.1894  -26.7919   22.1641 C   0  0  0  0  0  0
  -19.1541  -28.8837   23.2891 C   0  0  0  0  0  0
  -18.9449  -30.1432   23.8912 C   0  0  0  0  0  0
  -17.6439  -30.6575   24.0562 C   0  0  0  0  0  0
  -25.9068  -34.9433   23.5069 C   0  0  0  0  0  0
  -16.5342  -29.9075   23.6331 C   0  0  0  0  0  0
  -16.7275  -28.6489   23.0342 C   0  0  0  0  0  0
  -26.4489  -31.6585   25.0707 C   0  0  0  0  0  0
  -25.3679  -31.3717   26.1381 C   0  0  0  0  0  0
  -27.0334  -30.3007   24.6189 C   0  0  0  0  0  0
  -27.6058  -32.4327   25.7485 C   0  0  0  0  0  0
  -27.5582  -37.1774   24.8481 C   0  0  0  0  0  0
  -21.4220  -29.3011   22.3657 N   0  0  0  0  0  0
  -26.4308  -37.3738   23.9394 N   0  0  0  0  0  0
  -24.7026  -31.0403   22.0968 N   0  0  0  0  0  0
  -23.4209  -28.8112   23.3024 O   0  0  0  0  0  0
  -28.3342  -26.3337   20.1631 O   0  0  0  0  0  0
  -26.5642  -34.8906   22.4643 O   0  0  0  0  0  0
  -23.5454  -32.1408   23.7195 O   0  0  0  0  0  0
  -29.7424  -19.6341   23.0093 C   0  0  0  0  0  0
  -28.6187  -17.4917   22.2501 C   0  0  0  0  0  0
  -30.7690  -18.2551   21.2005 C   0  0  0  0  0  0
  -27.7732  -19.8663   21.7806 C   0  0  0  0  0  0
  -27.7877  -23.6831   19.2245 C   0  0  0  0  0  0
  -28.3639  -23.7592   21.2703 C   0  0  0  0  0  0
  -28.8424  -18.5593   19.9591 C   0  0  0  0  0  0
  -28.3989  -18.9340   22.8203 C   0  0  2  0  0  0
  -30.2325  -19.7037   21.5528 C   0  0  1  0  0  0
  -28.4747  -24.7982   20.0956 C   0  0  1  0  0  0
  -27.9804  -22.5429   20.3212 C   0  0  1  0  0  0
  -29.4834  -17.4469   20.9399 C   0  0  2  0  0  0
  -28.9043  -19.9826   20.7348 C   0  0  2  0  0  0
  -29.5758  -15.9211   20.5663 N   0  0  0  0  0  0
  -28.8802  -21.3410   20.0275 O   0  0  0  0  0  0
  -31.4813  -12.7258   19.1445 H   0  0  0  0  0  0
  -30.4663  -11.5627   19.9503 H   0  0  0  0  0  0
  -29.8175  -11.7430   17.5253 H   0  0  0  0  0  0
  -29.6095  -13.4689   17.6848 H   0  0  0  0  0  0
  -27.9154  -11.2753   18.9093 H   0  0  0  0  0  0
  -27.3827  -12.5057   17.7952 H   0  0  0  0  0  0
  -27.6217  -14.2421   19.4560 H   0  0  0  0  0  0
  -28.7619  -12.1465   21.3803 H   0  0  0  0  0  0
  -28.4008  -13.8025   21.8055 H   0  0  0  0  0  0
  -25.2787   -9.5670   22.4739 H   0  0  0  0  0  0
  -24.0000   -7.4632   22.7488 H   0  0  0  0  0  0
  -21.0835   -8.8779   19.8951 H   0  0  0  0  0  0
  -22.3723  -10.9665   19.6137 H   0  0  0  0  0  0
  -21.2032   -7.6153   23.9728 H   0  0  0  0  0  0
  -21.1453   -6.0511   25.9074 H   0  0  0  0  0  0
  -22.0610   -2.7610   23.2845 H   0  0  0  0  0  0
  -22.4098  -11.9889   22.4837 H   0  0  0  0  0  0
  -21.1066  -13.1202   22.2598 H   0  0  0  0  0  0
  -24.6254  -15.8213   20.4880 H   0  0  0  0  0  0
  -26.2191  -15.6308   19.9818 H   0  0  0  0  0  0
  -26.7189  -32.5370   23.1031 H   0  0  0  0  0  0
  -25.0144  -33.9732   25.0415 H   0  0  0  0  0  0
  -22.7302  -31.2927   21.3923 H   0  0  0  0  0  0
  -23.3785  -35.9556   23.3309 H   0  0  0  0  0  0
  -24.3578  -36.8867   22.2054 H   0  0  0  0  0  0
  -23.7234  -37.6423   23.6694 H   0  0  0  0  0  0
  -26.1248  -31.4930   20.6075 H   0  0  0  0  0  0
  -26.8615  -30.7934   22.0150 H   0  0  0  0  0  0
  -28.1199  -28.8588   21.1893 H   0  0  0  0  0  0
  -25.9280  -25.8452   19.0268 H   0  0  0  0  0  0
  -23.9567  -27.2810   19.0151 H   0  0  0  0  0  0
  -23.7827  -30.5663   19.4026 H   0  0  0  0  0  0
  -22.7596  -29.2344   19.8596 H   0  0  0  0  0  0
  -25.1332  -36.1897   25.0805 H   0  0  0  0  0  0
  -21.0038  -28.3226   24.1385 H   0  0  0  0  0  0
  -20.5710  -26.2292   23.3658 H   0  0  0  0  0  0
  -21.6566  -26.7394   22.1101 H   0  0  0  0  0  0
  -19.6774  -25.6221   21.1292 H   0  0  0  0  0  0
  -19.6627  -27.3073   20.6714 H   0  0  0  0  0  0
  -17.4142  -26.6740   21.4061 H   0  0  0  0  0  0
  -18.0279  -26.0044   22.9023 H   0  0  0  0  0  0
  -19.7904  -30.7223   24.2342 H   0  0  0  0  0  0
  -17.5002  -31.6264   24.5165 H   0  0  0  0  0  0
  -15.5329  -30.2916   23.7709 H   0  0  0  0  0  0
  -15.8698  -28.0787   22.7048 H   0  0  0  0  0  0
  -24.5905  -30.7029   25.7656 H   0  0  0  0  0  0
  -24.8781  -32.2863   26.4753 H   0  0  0  0  0  0
  -25.7934  -30.8909   27.0195 H   0  0  0  0  0  0
  -26.2910  -29.6749   24.1215 H   0  0  0  0  0  0
  -27.4027  -29.7273   25.4701 H   0  0  0  0  0  0
  -27.8796  -30.4293   23.9435 H   0  0  0  0  0  0
  -27.2730  -33.3715   26.1938 H   0  0  0  0  0  0
  -28.3930  -32.6732   25.0324 H   0  0  0  0  0  0
  -28.0655  -31.8501   26.5472 H   0  0  0  0  0  0
  -28.2607  -38.0058   24.7487 H   0  0  0  0  0  0
  -28.1068  -36.2575   24.6395 H   0  0  0  0  0  0
  -27.2276  -37.1516   25.8877 H   0  0  0  0  0  0
  -20.9406  -29.8730   21.6868 H   0  0  0  0  0  0
  -26.0187  -38.2815   24.1352 H   0  0  0  0  0  0
  -30.4136  -19.0990   23.6834 H   0  0  0  0  0  0
  -29.5985  -20.6334   23.4284 H   0  0  0  0  0  0
  -27.6462  -17.0358   22.0624 H   0  0  0  0  0  0
  -29.0895  -16.8801   23.0205 H   0  0  0  0  0  0
  -31.3826  -17.8283   21.9972 H   0  0  0  0  0  0
  -31.3968  -18.2726   20.3066 H   0  0  0  0  0  0
  -27.5378  -20.8190   22.2539 H   0  0  0  0  0  0
  -26.8358  -19.4854   21.3672 H   0  0  0  0  0  0
  -28.3016  -23.4738   18.2830 H   0  0  0  0  0  0
  -26.7301  -23.8677   19.0433 H   0  0  0  0  0  0
  -27.5496  -24.0070   21.9573 H   0  0  0  0  0  0
  -29.2925  -23.6274   21.8284 H   0  0  0  0  0  0
  -27.8182  -18.3023   19.6809 H   0  0  0  0  0  0
  -29.4028  -18.6159   19.0251 H   0  0  0  0  0  0
  -27.8132  -18.9087   23.7408 H   0  0  0  0  0  0
  -31.0013  -20.4688   21.4279 H   0  0  0  0  0  0
  -29.5250  -24.7417   19.8061 H   0  0  0  0  0  0
  -26.9843  -22.1682   20.5632 H   0  0  0  0  0  0
  -28.6539  -15.5155   20.5631 H   0  0  0  0  0  0
  1 25  1  0  0  0
  1 30  2  0  0  0
  1 84  1  0  0  0
  2  3  1  0  0  0
  2 25  1  0  0  0
  2 86  1  0  0  0
  2 87  1  0  0  0
  3  4  1  0  0  0
  3 88  1  0  0  0
  3 89  1  0  0  0
  4  5  1  0  0  0
  4 90  1  0  0  0
  4 91  1  0  0  0
  5  6  1  0  0  0
  5 26  1  0  0  0
  5 92  1  0  0  0
  6 25  1  0  0  0
  6 93  1  0  0  0
  6 94  1  0  0  0
  7  8  2  0  0  0
  7 26  1  0  0  0
  7 29  1  0  0  0
  8  9  1  0  0  0
  8 22  1  0  0  0
  9 10  1  0  0  0
  9 27  2  0  0  0
 10 11  2  0  0  0
 10 15  1  0  0  0
 11 12  1  0  0  0
 11 95  1  0  0  0
 12 13  2  0  0  0
 12 96  1  0  0  0
 13 14  1  0  0  0
 13 31  1  0  0  0
 14 15  2  0  0  0
 14 97  1  0  0  0
 15 98  1  0  0  0
 16 17  2  0  0  0
 16 21  1  0  0  0
 16 31  1  0  0  0
 17 18  1  0  0  0
 17 99  1  0  0  0
 18 19  2  0  0  0
 18100  1  0  0  0
 19 20  1  0  0  0
 19 24  1  0  0  0
 20 21  2  0  0  0
 20101  1  0  0  0
 21 23  1  0  0  0
 22 28  1  0  0  0
 22 32  2  0  0  0
 26 27  1  0  0  0
 28102  1  0  0  0
 28103  1  0  0  0
 29104  1  0  0  0
 29105  1  0  0  0
 33 34  1  0  0  0
 33 66  1  0  0  0
 33 70  2  0  0  0
 34 36  1  0  0  0
 34 59  1  0  0  0
 34106  1  0  0  0
 35 44  2  0  0  0
 35 45  1  0  0  0
 35 68  1  0  0  0
 36 56  1  0  0  0
 36107  1  0  0  0
 37 39  1  0  0  0
 37 47  1  0  0  0
 37 66  1  0  0  0
 37108  1  0  0  0
 38 43  2  0  0  0
 38 46  1  0  0  0
 38 47  1  0  0  0
 39 64  1  0  0  0
 39 67  2  0  0  0
 40 52  1  0  0  0
 40 53  2  0  0  0
 40 58  1  0  0  0
 41109  1  0  0  0
 41110  1  0  0  0
 41111  1  0  0  0
 41 48  1  0  0  0
 42 43  1  0  0  0
 42 66  1  0  0  0
 42112  1  0  0  0
 42113  1  0  0  0
 43 44  1  0  0  0
 44114  1  0  0  0
 45 46  2  0  0  0
 45115  1  0  0  0
 46116  1  0  0  0
 47117  1  0  0  0
 47118  1  0  0  0
 48 56  1  0  0  0
 48 65  1  0  0  0
 48119  1  0  0  0
 49 50  1  0  0  0
 49 53  1  0  0  0
 49 64  1  0  0  0
 49120  1  0  0  0
 50 51  1  0  0  0
 50121  1  0  0  0
 50122  1  0  0  0
 51 52  1  0  0  0
 51123  1  0  0  0
 51124  1  0  0  0
 52125  1  0  0  0
 52126  1  0  0  0
 53 54  1  0  0  0
 54 55  2  0  0  0
 54127  1  0  0  0
 55 57  1  0  0  0
 55128  1  0  0  0
 56 69  2  0  0  0
 57 58  2  0  0  0
 57129  1  0  0  0
 58130  1  0  0  0
 59 60  1  0  0  0
 59 61  1  0  0  0
 59 62  1  0  0  0
 60131  1  0  0  0
 60132  1  0  0  0
 60133  1  0  0  0
 61134  1  0  0  0
 61135  1  0  0  0
 61136  1  0  0  0
 62137  1  0  0  0
 62138  1  0  0  0
 62139  1  0  0  0
 63 65  1  0  0  0
 63140  1  0  0  0
 63141  1  0  0  0
 63142  1  0  0  0
 64143  1  0  0  0
 65144  1  0  0  0
 68 80  1  0  0  0
 71145  1  0  0  0
 71146  1  0  0  0
 71 78  1  0  0  0
 71 79  1  0  0  0
 72 78  1  0  0  0
 72 82  1  0  0  0
 72147  1  0  0  0
 72148  1  0  0  0
 73 79  1  0  0  0
 73 82  1  0  0  0
 73149  1  0  0  0
 73150  1  0  0  0
 74 78  1  0  0  0
 74 83  1  0  0  0
 74151  1  0  0  0
 74152  1  0  0  0
 75 80  1  0  0  0
 75 81  1  0  0  0
 75153  1  0  0  0
 75154  1  0  0  0
 76 80  1  0  0  0
 76 81  1  0  0  0
 76155  1  0  0  0
 76156  1  0  0  0
 77 82  1  0  0  0
 77 83  1  0  0  0
 77157  1  0  0  0
 77158  1  0  0  0
 78159  1  0  0  0
 79 83  1  0  0  0
 79160  1  0  0  0
 80161  1  0  0  0
 81 85  1  0  0  0
 81162  1  0  0  0
 82 84  1  0  0  0
 83 85  1  0  0  0
 84163  1  0  0  0
M  ISO  4   1 100  68 101  80 101  84 100
M  END
> <chiral flag>
0

> <version>
0

> <s_m_source_file>
/data/baiqing/PycharmProjects/Reinvent-master-3.2/result/LINK_invent/BTK/process_docking_weight1_custom_sum_contain_oxygen_bond_distance_aromatic_linkinvent_7_9_3/rearranged_h_0165.sdf

> <i_m_source_file_index>
36

> <r_mmod_Potential_Energy-OPLS-2005>
658.66015625

> <r_mmod_Stretch_Energy-OPLS-2005>
186.631759643555

> <r_mmod_Bend_Energy-OPLS-2005>
453.442657470703

> <r_mmod_Torsional_Energy-OPLS-2005>
345.617156982422

> <r_mmod_Improper_Torsional_Energy-OPLS-2005>
5.62210941314697

> <r_mmod_Van_der_Waal_Energy-OPLS-2005>
121.963661193848

> <r_mmod_Electrostatic_Energy-OPLS-2005>
-377.253479003906

> <r_mmod_Solvation_Energy-OPLS-2005>
-211.528839111328

> <b_mmod_Minimization_Converged-OPLS-2005>
0

> <r_mmod_RMS_Derivative-OPLS-2005>
4.84205865859985

$$$$
36
                    3D
 Structure written by MMmdl.
161170  0  0  1  0            999 V2000
  -30.6342  -14.7945   20.4496 C   0  0  0  0  0  0
  -30.4251  -12.4907   19.4813 C   0  0  0  0  0  0
  -29.5071  -12.4987   18.2407 C   0  0  0  0  0  0
  -28.0357  -12.3248   18.6594 C   0  0  0  0  0  0
  -27.6349  -13.2432   19.8461 C   0  0  2  0  0  0
  -28.6822  -13.2315   20.9805 C   0  0  0  0  0  0
  -25.2490  -13.8231   20.5746 C   0  0  0  0  0  0
  -24.1787  -13.0458   20.9233 C   0  0  0  0  0  0
  -24.6396  -11.6940   20.8782 C   0  0  0  0  0  0
  -23.9083  -10.4305   21.0425 C   0  0  0  0  0  0
  -24.3628   -9.4208   21.9197 C   0  0  0  0  0  0
  -23.6297   -8.2244   22.0757 C   0  0  0  0  0  0
  -22.4277   -8.0290   21.3548 C   0  0  0  0  0  0
  -21.9921   -9.0269   20.4650 C   0  0  0  0  0  0
  -22.7257  -10.2147   20.3069 C   0  0  0  0  0  0
  -21.6850   -6.0743   22.5285 C   0  0  0  0  0  0
  -21.4009   -6.5646   23.8217 C   0  0  0  0  0  0
  -21.3656   -5.6798   24.9179 C   0  0  0  0  0  0
  -21.6039   -4.3060   24.7225 C   0  0  0  0  0  0
  -21.8813   -3.8152   23.4348 C   0  0  0  0  0  0
  -21.9185   -4.6971   22.3404 C   0  0  0  0  0  0
  -22.7796  -13.5218   21.1862 C   0  0  0  0  0  0
  -22.1654   -4.2156   21.0981 F   0  0  0  0  0  0
  -21.5629   -3.4541   25.7736 F   0  0  0  0  0  0
  -29.9697  -13.5846   20.3766 N   0  0  0  0  0  0
  -26.2922  -12.9452   20.3328 N   0  0  0  0  0  0
  -25.9333  -11.6584   20.5806 N   0  0  0  0  0  0
  -22.0451  -12.8215   22.0428 N   0  0  0  0  0  0
  -25.4190  -15.1960   20.4191 N   0  0  0  0  0  0
  -31.8381  -14.8085   20.1723 O   0  0  0  0  0  0
  -21.6639   -6.8889   21.4247 O   0  0  0  0  0  0
  -22.3473  -14.5521   20.6713 O   0  0  0  0  0  0
  -24.6348  -31.8535   23.1991 C   0  0  0  0  0  0
  -25.9170  -32.4747   23.8333 C   0  0  1  0  0  0
  -27.2043  -27.2346   20.1357 C   0  0  0  0  0  0
  -25.5958  -33.8548   24.2255 N   0  0  0  0  0  0
  -23.4318  -30.4779   21.5422 C   0  0  2  0  0  0
  -24.8791  -28.9253   20.1068 C   0  0  0  0  0  0
  -22.7519  -29.4601   22.4900 C   0  0  0  0  0  0
  -18.0299  -28.1385   22.8480 C   0  0  0  0  0  0
  -24.1487  -36.7269   23.2638 C   0  0  0  0  0  0
  -25.9813  -30.7569   21.3847 C   0  0  0  0  0  0
  -26.0536  -29.3786   20.7237 C   0  0  0  0  0  0
  -27.2242  -28.5458   20.7281 C   0  0  0  0  0  0
  -26.0172  -26.8674   19.4693 C   0  0  0  0  0  0
  -24.8672  -27.6774   19.4672 C   0  0  0  0  0  0
  -23.6520  -29.8161   20.1572 C   0  0  0  0  0  0
  -25.4115  -36.3061   24.0325 C   0  0  1  0  0  0
  -20.5904  -28.3708   23.1254 C   0  0  2  0  0  0
  -20.6790  -26.9420   22.5410 C   0  0  0  0  0  0
  -19.5765  -26.6378   21.5213 C   0  0  0  0  0  0
  -18.1942  -26.7927   22.1621 C   0  0  0  0  0  0
  -19.1553  -28.8862   23.2861 C   0  0  0  0  0  0
  -18.9475  -30.1458   23.8886 C   0  0  0  0  0  0
  -17.6474  -30.6587   24.0561 C   0  0  0  0  0  0
  -25.9063  -34.9436   23.5085 C   0  0  0  0  0  0
  -16.5363  -29.9083   23.6328 C   0  0  0  0  0  0
  -16.7287  -28.6499   23.0356 C   0  0  0  0  0  0
  -26.4526  -31.6574   25.0730 C   0  0  0  0  0  0
  -25.3738  -31.3737   26.1444 C   0  0  0  0  0  0
  -27.0382  -30.2981   24.6247 C   0  0  0  0  0  0
  -27.6069  -32.4330   25.7508 C   0  0  0  0  0  0
  -27.5574  -37.1787   24.8468 C   0  0  0  0  0  0
  -21.4226  -29.3049   22.3637 N   0  0  0  0  0  0
  -26.4285  -37.3767   23.9415 N   0  0  0  0  0  0
  -24.7016  -31.0483   22.0977 N   0  0  0  0  0  0
  -23.4203  -28.8130   23.3009 O   0  0  0  0  0  0
  -28.2319  -26.2580   20.1910 O   0  0  0  0  0  0
  -26.5629  -34.8917   22.4654 O   0  0  0  0  0  0
  -23.5497  -32.1369   23.7274 O   0  0  0  0  0  0
  -29.0476  -21.4389   19.3461 C   0  0  0  0  0  0
  -28.7270  -22.8476   19.4202 C   0  0  0  0  0  0
  -28.4378  -23.4788   20.6677 C   0  0  0  0  0  0
  -28.4976  -22.5480   21.7621 C   0  0  0  0  0  0
  -29.0827  -20.5905   20.4949 C   0  0  0  0  0  0
  -29.4354  -18.3453   19.2652 C   0  0  0  0  0  0
  -29.0490  -18.2560   21.6203 C   0  0  0  0  0  0
  -30.2767  -17.0051   19.3743 C   0  0  0  0  0  0
  -29.7962  -16.8379   21.6893 C   0  0  0  0  0  0
  -28.6604  -23.6652   18.1441 C   0  0  0  0  0  0
  -28.1517  -22.9896   23.1736 C   0  0  0  0  0  0
  -27.8381  -24.9715   20.8811 C   0  0  0  0  0  0
  -28.8094  -21.2064   21.6752 N   0  0  0  0  0  0
  -29.4047  -19.1562   20.4953 N   0  0  0  0  0  0
  -29.9271  -16.0142   20.4450 N   0  0  0  0  0  0
  -31.4642  -12.6089   19.1692 H   0  0  0  0  0  0
  -30.3773  -11.5308   19.9973 H   0  0  0  0  0  0
  -29.7948  -11.7041   17.5508 H   0  0  0  0  0  0
  -29.6284  -13.4364   17.6957 H   0  0  0  0  0  0
  -27.8988  -11.2801   18.9415 H   0  0  0  0  0  0
  -27.3781  -12.4976   17.8068 H   0  0  0  0  0  0
  -27.6138  -14.2560   19.4434 H   0  0  0  0  0  0
  -28.7333  -12.2542   21.4624 H   0  0  0  0  0  0
  -28.4138  -13.9498   21.7571 H   0  0  0  0  0  0
  -25.2766   -9.5673   22.4786 H   0  0  0  0  0  0
  -24.0004   -7.4623   22.7467 H   0  0  0  0  0  0
  -21.0853   -8.8789   19.8953 H   0  0  0  0  0  0
  -22.3714  -10.9693   19.6187 H   0  0  0  0  0  0
  -21.2007   -7.6152   23.9726 H   0  0  0  0  0  0
  -21.1490   -6.0531   25.9086 H   0  0  0  0  0  0
  -22.0600   -2.7615   23.2854 H   0  0  0  0  0  0
  -22.4075  -11.9880   22.4816 H   0  0  0  0  0  0
  -21.1077  -13.1254   22.2651 H   0  0  0  0  0  0
  -24.6545  -15.8525   20.5338 H   0  0  0  0  0  0
  -26.2781  -15.6364   20.1155 H   0  0  0  0  0  0
  -26.7232  -32.5384   23.1066 H   0  0  0  0  0  0
  -25.0123  -33.9690   25.0410 H   0  0  0  0  0  0
  -22.7296  -31.3016   21.3978 H   0  0  0  0  0  0
  -23.3765  -35.9586   23.3293 H   0  0  0  0  0  0
  -24.3575  -36.8902   22.2053 H   0  0  0  0  0  0
  -23.7228  -37.6459   23.6673 H   0  0  0  0  0  0
  -26.1266  -31.5173   20.6158 H   0  0  0  0  0  0
  -26.8566  -30.8028   22.0210 H   0  0  0  0  0  0
  -28.1174  -28.8819   21.2359 H   0  0  0  0  0  0
  -25.9603  -25.9093   18.9723 H   0  0  0  0  0  0
  -23.9702  -27.3261   18.9759 H   0  0  0  0  0  0
  -23.7807  -30.5952   19.4051 H   0  0  0  0  0  0
  -22.7686  -29.2540   19.8496 H   0  0  0  0  0  0
  -25.1297  -36.1897   25.0817 H   0  0  0  0  0  0
  -20.9988  -28.3300   24.1375 H   0  0  0  0  0  0
  -20.5681  -26.2321   23.3623 H   0  0  0  0  0  0
  -21.6661  -26.7438   22.1207 H   0  0  0  0  0  0
  -19.6927  -25.6282   21.1256 H   0  0  0  0  0  0
  -19.6706  -27.3176   20.6732 H   0  0  0  0  0  0
  -17.4213  -26.6676   21.4023 H   0  0  0  0  0  0
  -18.0345  -26.0069   22.9018 H   0  0  0  0  0  0
  -19.7956  -30.7274   24.2251 H   0  0  0  0  0  0
  -17.5036  -31.6267   24.5166 H   0  0  0  0  0  0
  -15.5365  -30.2986   23.7659 H   0  0  0  0  0  0
  -15.8689  -28.0816   22.7079 H   0  0  0  0  0  0
  -24.5934  -30.7060   25.7778 H   0  0  0  0  0  0
  -24.8909  -32.2909   26.4822 H   0  0  0  0  0  0
  -25.8049  -30.8955   27.0247 H   0  0  0  0  0  0
  -26.2977  -29.6716   24.1261 H   0  0  0  0  0  0
  -27.4034  -29.7264   25.4788 H   0  0  0  0  0  0
  -27.8870  -30.4244   23.9525 H   0  0  0  0  0  0
  -27.2666  -33.3642   26.2049 H   0  0  0  0  0  0
  -28.3893  -32.6868   25.0345 H   0  0  0  0  0  0
  -28.0718  -31.8479   26.5451 H   0  0  0  0  0  0
  -28.2586  -38.0089   24.7525 H   0  0  0  0  0  0
  -28.1078  -36.2623   24.6284 H   0  0  0  0  0  0
  -27.2297  -37.1418   25.8872 H   0  0  0  0  0  0
  -20.9410  -29.8767   21.6837 H   0  0  0  0  0  0
  -26.0161  -38.2834   24.1436 H   0  0  0  0  0  0
  -29.2522  -21.0166   18.3731 H   0  0  0  0  0  0
  -28.4086  -18.1121   18.9805 H   0  0  0  0  0  0
  -29.8486  -18.9398   18.4511 H   0  0  0  0  0  0
  -29.2141  -18.7791   22.5631 H   0  0  0  0  0  0
  -27.9728  -18.0836   21.5661 H   0  0  0  0  0  0
  -31.3257  -17.2823   19.4942 H   0  0  0  0  0  0
  -30.2223  -16.4931   18.4122 H   0  0  0  0  0  0
  -29.3091  -16.2292   22.4519 H   0  0  0  0  0  0
  -30.8063  -17.0131   22.0652 H   0  0  0  0  0  0
  -28.8136  -23.0463   17.2600 H   0  0  0  0  0  0
  -29.4279  -24.4395   18.1506 H   0  0  0  0  0  0
  -27.6892  -24.1514   18.0489 H   0  0  0  0  0  0
  -27.1551  -23.4312   23.2110 H   0  0  0  0  0  0
  -28.8725  -23.7259   23.5314 H   0  0  0  0  0  0
  -28.1616  -22.1514   23.8707 H   0  0  0  0  0  0
  -27.9940  -25.2275   21.9270 H   0  0  0  0  0  0
  -26.7603  -24.8253   20.8096 H   0  0  0  0  0  0
  1 25  1  0  0  0
  1 30  2  0  0  0
  1 85  1  0  0  0
  2  3  1  0  0  0
  2 25  1  0  0  0
  2 86  1  0  0  0
  2 87  1  0  0  0
  3  4  1  0  0  0
  3 88  1  0  0  0
  3 89  1  0  0  0
  4  5  1  0  0  0
  4 90  1  0  0  0
  4 91  1  0  0  0
  5  6  1  0  0  0
  5 26  1  0  0  0
  5 92  1  0  0  0
  6 25  1  0  0  0
  6 93  1  0  0  0
  6 94  1  0  0  0
  7  8  2  0  0  0
  7 26  1  0  0  0
  7 29  1  0  0  0
  8  9  1  0  0  0
  8 22  1  0  0  0
  9 10  1  0  0  0
  9 27  2  0  0  0
 10 11  2  0  0  0
 10 15  1  0  0  0
 11 12  1  0  0  0
 11 95  1  0  0  0
 12 13  2  0  0  0
 12 96  1  0  0  0
 13 14  1  0  0  0
 13 31  1  0  0  0
 14 15  2  0  0  0
 14 97  1  0  0  0
 15 98  1  0  0  0
 16 17  2  0  0  0
 16 21  1  0  0  0
 16 31  1  0  0  0
 17 18  1  0  0  0
 17 99  1  0  0  0
 18 19  2  0  0  0
 18100  1  0  0  0
 19 20  1  0  0  0
 19 24  1  0  0  0
 20 21  2  0  0  0
 20101  1  0  0  0
 21 23  1  0  0  0
 22 28  1  0  0  0
 22 32  2  0  0  0
 26 27  1  0  0  0
 28102  1  0  0  0
 28103  1  0  0  0
 29104  1  0  0  0
 29105  1  0  0  0
 33 34  1  0  0  0
 33 66  1  0  0  0
 33 70  2  0  0  0
 34 36  1  0  0  0
 34 59  1  0  0  0
 34106  1  0  0  0
 35 44  2  0  0  0
 35 45  1  0  0  0
 35 68  1  0  0  0
 36 56  1  0  0  0
 36107  1  0  0  0
 37 39  1  0  0  0
 37 47  1  0  0  0
 37 66  1  0  0  0
 37108  1  0  0  0
 38 43  2  0  0  0
 38 46  1  0  0  0
 38 47  1  0  0  0
 39 64  1  0  0  0
 39 67  2  0  0  0
 40 52  1  0  0  0
 40 53  2  0  0  0
 40 58  1  0  0  0
 41109  1  0  0  0
 41110  1  0  0  0
 41111  1  0  0  0
 41 48  1  0  0  0
 42 43  1  0  0  0
 42 66  1  0  0  0
 42112  1  0  0  0
 42113  1  0  0  0
 43 44  1  0  0  0
 44114  1  0  0  0
 45 46  2  0  0  0
 45115  1  0  0  0
 46116  1  0  0  0
 47117  1  0  0  0
 47118  1  0  0  0
 48 56  1  0  0  0
 48 65  1  0  0  0
 48119  1  0  0  0
 49 50  1  0  0  0
 49 53  1  0  0  0
 49 64  1  0  0  0
 49120  1  0  0  0
 50 51  1  0  0  0
 50121  1  0  0  0
 50122  1  0  0  0
 51 52  1  0  0  0
 51123  1  0  0  0
 51124  1  0  0  0
 52125  1  0  0  0
 52126  1  0  0  0
 53 54  1  0  0  0
 54 55  2  0  0  0
 54127  1  0  0  0
 55 57  1  0  0  0
 55128  1  0  0  0
 56 69  2  0  0  0
 57 58  2  0  0  0
 57129  1  0  0  0
 58130  1  0  0  0
 59 60  1  0  0  0
 59 61  1  0  0  0
 59 62  1  0  0  0
 60131  1  0  0  0
 60132  1  0  0  0
 60133  1  0  0  0
 61134  1  0  0  0
 61135  1  0  0  0
 61136  1  0  0  0
 62137  1  0  0  0
 62138  1  0  0  0
 62139  1  0  0  0
 63 65  1  0  0  0
 63140  1  0  0  0
 63141  1  0  0  0
 63142  1  0  0  0
 64143  1  0  0  0
 65144  1  0  0  0
 68 82  1  0  0  0
 71 72  2  0  0  0
 71 75  1  0  0  0
 71145  1  0  0  0
 72 73  1  0  0  0
 72 80  1  0  0  0
 73 74  2  0  0  0
 73 82  1  0  0  0
 74 81  1  0  0  0
 74 83  1  0  0  0
 75 83  2  0  0  0
 75 84  1  0  0  0
 76 78  1  0  0  0
 76 84  1  0  0  0
 76146  1  0  0  0
 76147  1  0  0  0
 77 79  1  0  0  0
 77 84  1  0  0  0
 77148  1  0  0  0
 77149  1  0  0  0
 78 85  1  0  0  0
 78150  1  0  0  0
 78151  1  0  0  0
 79 85  1  0  0  0
 79152  1  0  0  0
 79153  1  0  0  0
 80154  1  0  0  0
 80155  1  0  0  0
 80156  1  0  0  0
 81157  1  0  0  0
 81158  1  0  0  0
 81159  1  0  0  0
 82160  1  0  0  0
 82161  1  0  0  0
M  ISO  4   1 100  68 101  82 101  85 100
M  END
> <chiral flag>
0

> <version>
0

> <s_m_source_file>
/data/baiqing/PycharmProjects/Reinvent-master-3.2/result/LINK_invent/BTK/process_docking_weight1_custom_sum_contain_oxygen_bond_distance_aromatic_linkinvent_7_9_3/rearranged_h_0165.sdf

> <i_m_source_file_index>
37

> <r_mmod_Potential_Energy-OPLS-2005>
269.861999511719

> <r_mmod_Stretch_Energy-OPLS-2005>
134.874084472656

> <r_mmod_Bend_Energy-OPLS-2005>
220.7509765625

> <r_mmod_Torsional_Energy-OPLS-2005>
361.674285888672

> <r_mmod_Improper_Torsional_Energy-OPLS-2005>
19.312686920166

> <r_mmod_Van_der_Waal_Energy-OPLS-2005>
149.478408813477

> <r_mmod_Electrostatic_Energy-OPLS-2005>
-505.50634765625

> <r_mmod_Solvation_Energy-OPLS-2005>
-226.003784179688

> <b_mmod_Minimization_Converged-OPLS-2005>
0

> <r_mmod_RMS_Derivative-OPLS-2005>
1.28388357162476

$$$$
37
                    3D
 Structure written by MMmdl.
165174  0  0  1  0            999 V2000
  -30.6670  -14.5938   20.5041 C   0  0  0  0  0  0
  -30.4246  -12.3669   19.4466 C   0  0  0  0  0  0
  -29.5004  -12.5006   18.2173 C   0  0  0  0  0  0
  -28.0213  -12.3514   18.6272 C   0  0  0  0  0  0
  -27.6505  -13.2159   19.8625 C   0  0  2  0  0  0
  -28.6955  -13.0562   20.9876 C   0  0  0  0  0  0
  -25.2542  -13.8171   20.5680 C   0  0  0  0  0  0
  -24.1813  -13.0436   20.9190 C   0  0  0  0  0  0
  -24.6383  -11.6909   20.8743 C   0  0  0  0  0  0
  -23.9054  -10.4292   21.0408 C   0  0  0  0  0  0
  -24.3608   -9.4208   21.9185 C   0  0  0  0  0  0
  -23.6286   -8.2243   22.0753 C   0  0  0  0  0  0
  -22.4269   -8.0278   21.3543 C   0  0  0  0  0  0
  -21.9901   -9.0253   20.4648 C   0  0  0  0  0  0
  -22.7226  -10.2134   20.3057 C   0  0  0  0  0  0
  -21.6852   -6.0731   22.5277 C   0  0  0  0  0  0
  -21.4016   -6.5635   23.8210 C   0  0  0  0  0  0
  -21.3661   -5.6789   24.9172 C   0  0  0  0  0  0
  -21.6044   -4.3052   24.7224 C   0  0  0  0  0  0
  -21.8821   -3.8143   23.4346 C   0  0  0  0  0  0
  -21.9193   -4.6959   22.3402 C   0  0  0  0  0  0
  -22.7836  -13.5230   21.1852 C   0  0  0  0  0  0
  -22.1662   -4.2144   21.0979 F   0  0  0  0  0  0
  -21.5628   -3.4536   25.7738 F   0  0  0  0  0  0
  -30.0069  -13.3960   20.4193 N   0  0  0  0  0  0
  -26.2972  -12.9354   20.3323 N   0  0  0  0  0  0
  -25.9309  -11.6508   20.5760 N   0  0  0  0  0  0
  -22.0478  -12.8230   22.0413 N   0  0  0  0  0  0
  -25.4240  -15.1887   20.4072 N   0  0  0  0  0  0
  -31.8479  -14.6817   20.1516 O   0  0  0  0  0  0
  -21.6637   -6.8873   21.4238 O   0  0  0  0  0  0
  -22.3521  -14.5536   20.6697 O   0  0  0  0  0  0
  -24.6218  -31.8625   23.2051 C   0  0  0  0  0  0
  -25.9085  -32.4789   23.8363 C   0  0  1  0  0  0
  -27.2280  -27.3620   20.0924 C   0  0  0  0  0  0
  -25.5915  -33.8590   24.2294 N   0  0  0  0  0  0
  -23.4121  -30.4870   21.5476 C   0  0  2  0  0  0
  -24.8553  -28.9453   20.1121 C   0  0  0  0  0  0
  -22.7445  -29.4636   22.4959 C   0  0  0  0  0  0
  -18.0279  -28.1379   22.8489 C   0  0  0  0  0  0
  -24.1489  -36.7301   23.2639 C   0  0  0  0  0  0
  -25.9490  -30.8046   21.3692 C   0  0  0  0  0  0
  -26.0214  -29.4349   20.7116 C   0  0  0  0  0  0
  -27.2061  -28.6507   20.6987 C   0  0  0  0  0  0
  -26.0279  -26.8981   19.5042 C   0  0  0  0  0  0
  -24.8570  -27.6789   19.5072 C   0  0  0  0  0  0
  -23.6227  -29.8221   20.1621 C   0  0  0  0  0  0
  -25.4111  -36.3091   24.0332 C   0  0  1  0  0  0
  -20.5875  -28.3674   23.1300 C   0  0  2  0  0  0
  -20.6769  -26.9403   22.5413 C   0  0  0  0  0  0
  -19.5746  -26.6383   21.5210 C   0  0  0  0  0  0
  -18.1925  -26.7923   22.1625 C   0  0  0  0  0  0
  -19.1530  -28.8844   23.2891 C   0  0  0  0  0  0
  -18.9456  -30.1447   23.8905 C   0  0  0  0  0  0
  -17.6457  -30.6584   24.0564 C   0  0  0  0  0  0
  -25.9043  -34.9458   23.5113 C   0  0  0  0  0  0
  -16.5348  -29.9085   23.6327 C   0  0  0  0  0  0
  -16.7267  -28.6501   23.0348 C   0  0  0  0  0  0
  -26.4487  -31.6589   25.0720 C   0  0  0  0  0  0
  -25.3737  -31.3716   26.1460 C   0  0  0  0  0  0
  -27.0323  -30.3018   24.6143 C   0  0  0  0  0  0
  -27.6052  -32.4318   25.7486 C   0  0  0  0  0  0
  -27.5579  -37.1805   24.8464 C   0  0  0  0  0  0
  -21.4164  -29.3036   22.3701 N   0  0  0  0  0  0
  -26.4292  -37.3781   23.9407 N   0  0  0  0  0  0
  -24.6797  -31.0672   22.0981 N   0  0  0  0  0  0
  -23.4189  -28.8176   23.3022 O   0  0  0  0  0  0
  -28.3897  -26.5894   20.1349 O   0  0  0  0  0  0
  -26.5611  -34.8920   22.4678 O   0  0  0  0  0  0
  -23.5395  -32.1408   23.7408 O   0  0  0  0  0  0
  -29.8350  -22.5084   21.6073 C   0  0  0  0  0  0
  -29.5361  -23.8237   21.1672 C   0  0  0  0  0  0
  -28.7873  -24.0029   19.9763 C   0  0  0  0  0  0
  -29.4086  -21.3818   20.8752 C   0  0  0  0  0  0
  -28.3817  -22.8065   19.3151 C   0  0  0  0  0  0
  -29.3662  -17.7240   21.9998 C   0  0  0  0  0  0
  -30.3350  -18.1676   19.7781 C   0  0  0  0  0  0
  -29.0700  -16.2434   21.6000 C   0  0  0  0  0  0
  -29.9760  -16.7072   19.3655 C   0  0  0  0  0  0
  -29.3757  -18.7544   20.8367 C   0  0  0  0  0  0
  -30.0617  -25.0050   21.9630 C   0  0  0  0  0  0
  -27.2898  -21.7209   17.4574 C   0  0  0  0  0  0
  -28.5632  -25.3995   19.3034 C   0  0  0  0  0  0
  -28.6757  -21.5418   19.7549 N   0  0  0  0  0  0
  -29.8934  -15.7335   20.4837 N   0  0  0  0  0  0
  -29.7902  -20.0916   21.3282 N   0  0  0  0  0  0
  -27.6745  -22.9148   18.1348 O   0  0  0  0  0  0
  -31.4682  -12.4702   19.1446 H   0  0  0  0  0  0
  -30.3417  -11.3718   19.8861 H   0  0  0  0  0  0
  -29.7578  -11.7506   17.4681 H   0  0  0  0  0  0
  -29.6548  -13.4715   17.7437 H   0  0  0  0  0  0
  -27.8472  -11.2978   18.8489 H   0  0  0  0  0  0
  -27.3700  -12.5958   17.7873 H   0  0  0  0  0  0
  -27.6722  -14.2540   19.5310 H   0  0  0  0  0  0
  -28.7029  -12.0299   21.3574 H   0  0  0  0  0  0
  -28.4428  -13.6711   21.8481 H   0  0  0  0  0  0
  -25.2756   -9.5686   22.4756 H   0  0  0  0  0  0
  -23.9997   -7.4634   22.7472 H   0  0  0  0  0  0
  -21.0832   -8.8769   19.8955 H   0  0  0  0  0  0
  -22.3684  -10.9670   19.6163 H   0  0  0  0  0  0
  -21.2010   -7.6144   23.9710 H   0  0  0  0  0  0
  -21.1481   -6.0520   25.9074 H   0  0  0  0  0  0
  -22.0600   -2.7604   23.2847 H   0  0  0  0  0  0
  -22.4090  -11.9892   22.4808 H   0  0  0  0  0  0
  -21.1098  -13.1260   22.2619 H   0  0  0  0  0  0
  -24.6580  -15.8441   20.5167 H   0  0  0  0  0  0
  -26.2762  -15.6255   20.0807 H   0  0  0  0  0  0
  -26.7151  -32.5468   23.1112 H   0  0  0  0  0  0
  -25.0062  -33.9740   25.0438 H   0  0  0  0  0  0
  -22.7040  -31.3063   21.4075 H   0  0  0  0  0  0
  -23.3745  -35.9640   23.3310 H   0  0  0  0  0  0
  -24.3581  -36.8911   22.2052 H   0  0  0  0  0  0
  -23.7249  -37.6510   23.6654 H   0  0  0  0  0  0
  -26.0752  -31.5698   20.6021 H   0  0  0  0  0  0
  -26.8320  -30.8525   21.9948 H   0  0  0  0  0  0
  -28.1049  -29.0254   21.1683 H   0  0  0  0  0  0
  -25.9484  -25.9168   19.0636 H   0  0  0  0  0  0
  -23.9554  -27.2893   19.0548 H   0  0  0  0  0  0
  -23.7392  -30.5985   19.4051 H   0  0  0  0  0  0
  -22.7432  -29.2497   19.8619 H   0  0  0  0  0  0
  -25.1290  -36.1947   25.0825 H   0  0  0  0  0  0
  -20.9967  -28.3243   24.1420 H   0  0  0  0  0  0
  -20.5669  -26.2280   23.3605 H   0  0  0  0  0  0
  -21.6640  -26.7439   22.1206 H   0  0  0  0  0  0
  -19.6907  -25.6295   21.1236 H   0  0  0  0  0  0
  -19.6684  -27.3199   20.6744 H   0  0  0  0  0  0
  -17.4193  -26.6669   21.4029 H   0  0  0  0  0  0
  -18.0330  -26.0064   22.9022 H   0  0  0  0  0  0
  -19.7933  -30.7261   24.2277 H   0  0  0  0  0  0
  -17.5013  -31.6266   24.5162 H   0  0  0  0  0  0
  -15.5349  -30.2988   23.7648 H   0  0  0  0  0  0
  -15.8667  -28.0823   22.7060 H   0  0  0  0  0  0
  -24.5905  -30.7068   25.7799 H   0  0  0  0  0  0
  -24.8936  -32.2879   26.4903 H   0  0  0  0  0  0
  -25.8078  -30.8885   27.0224 H   0  0  0  0  0  0
  -26.2884  -29.6774   24.1180 H   0  0  0  0  0  0
  -27.4051  -29.7263   25.4626 H   0  0  0  0  0  0
  -27.8740  -30.4316   23.9336 H   0  0  0  0  0  0
  -27.2663  -33.3611   26.2079 H   0  0  0  0  0  0
  -28.3853  -32.6890   25.0309 H   0  0  0  0  0  0
  -28.0731  -31.8435   26.5391 H   0  0  0  0  0  0
  -28.2601  -38.0098   24.7506 H   0  0  0  0  0  0
  -28.1070  -36.2629   24.6296 H   0  0  0  0  0  0
  -27.2299  -37.1465   25.8868 H   0  0  0  0  0  0
  -20.9329  -29.8763   21.6925 H   0  0  0  0  0  0
  -26.0176  -38.2858   24.1403 H   0  0  0  0  0  0
  -30.4209  -22.3735   22.5067 H   0  0  0  0  0  0
  -30.3363  -17.7444   22.4994 H   0  0  0  0  0  0
  -28.6405  -18.0355   22.7528 H   0  0  0  0  0  0
  -30.3306  -18.8042   18.8919 H   0  0  0  0  0  0
  -31.3581  -18.1844   20.1565 H   0  0  0  0  0  0
  -28.0210  -16.1466   21.3204 H   0  0  0  0  0  0
  -29.2138  -15.6236   22.4857 H   0  0  0  0  0  0
  -30.6855  -16.3693   18.6076 H   0  0  0  0  0  0
  -29.0063  -16.7090   18.8659 H   0  0  0  0  0  0
  -28.3724  -18.8316   20.4141 H   0  0  0  0  0  0
  -30.7124  -24.6827   22.7759 H   0  0  0  0  0  0
  -29.2367  -25.5669   22.4013 H   0  0  0  0  0  0
  -30.6385  -25.6756   21.3258 H   0  0  0  0  0  0
  -26.7426  -21.9789   16.5512 H   0  0  0  0  0  0
  -26.6336  -21.1047   18.0739 H   0  0  0  0  0  0
  -28.1585  -21.1313   17.1604 H   0  0  0  0  0  0
  -27.8322  -25.3279   18.5030 H   0  0  0  0  0  0
  -29.4887  -25.5870   18.7587 H   0  0  0  0  0  0
  -30.3481  -20.0799   22.1745 H   0  0  0  0  0  0
  1 25  1  0  0  0
  1 30  2  0  0  0
  1 85  1  0  0  0
  2  3  1  0  0  0
  2 25  1  0  0  0
  2 88  1  0  0  0
  2 89  1  0  0  0
  3  4  1  0  0  0
  3 90  1  0  0  0
  3 91  1  0  0  0
  4  5  1  0  0  0
  4 92  1  0  0  0
  4 93  1  0  0  0
  5  6  1  0  0  0
  5 26  1  0  0  0
  5 94  1  0  0  0
  6 25  1  0  0  0
  6 95  1  0  0  0
  6 96  1  0  0  0
  7  8  2  0  0  0
  7 26  1  0  0  0
  7 29  1  0  0  0
  8  9  1  0  0  0
  8 22  1  0  0  0
  9 10  1  0  0  0
  9 27  2  0  0  0
 10 11  2  0  0  0
 10 15  1  0  0  0
 11 12  1  0  0  0
 11 97  1  0  0  0
 12 13  2  0  0  0
 12 98  1  0  0  0
 13 14  1  0  0  0
 13 31  1  0  0  0
 14 15  2  0  0  0
 14 99  1  0  0  0
 15100  1  0  0  0
 16 17  2  0  0  0
 16 21  1  0  0  0
 16 31  1  0  0  0
 17 18  1  0  0  0
 17101  1  0  0  0
 18 19  2  0  0  0
 18102  1  0  0  0
 19 20  1  0  0  0
 19 24  1  0  0  0
 20 21  2  0  0  0
 20103  1  0  0  0
 21 23  1  0  0  0
 22 28  1  0  0  0
 22 32  2  0  0  0
 26 27  1  0  0  0
 28104  1  0  0  0
 28105  1  0  0  0
 29106  1  0  0  0
 29107  1  0  0  0
 33 34  1  0  0  0
 33 66  1  0  0  0
 33 70  2  0  0  0
 34 36  1  0  0  0
 34 59  1  0  0  0
 34108  1  0  0  0
 35 44  2  0  0  0
 35 45  1  0  0  0
 35 68  1  0  0  0
 36 56  1  0  0  0
 36109  1  0  0  0
 37 39  1  0  0  0
 37 47  1  0  0  0
 37 66  1  0  0  0
 37110  1  0  0  0
 38 43  2  0  0  0
 38 46  1  0  0  0
 38 47  1  0  0  0
 39 64  1  0  0  0
 39 67  2  0  0  0
 40 52  1  0  0  0
 40 53  2  0  0  0
 40 58  1  0  0  0
 41111  1  0  0  0
 41112  1  0  0  0
 41113  1  0  0  0
 41 48  1  0  0  0
 42 43  1  0  0  0
 42 66  1  0  0  0
 42114  1  0  0  0
 42115  1  0  0  0
 43 44  1  0  0  0
 44116  1  0  0  0
 45 46  2  0  0  0
 45117  1  0  0  0
 46118  1  0  0  0
 47119  1  0  0  0
 47120  1  0  0  0
 48 56  1  0  0  0
 48 65  1  0  0  0
 48121  1  0  0  0
 49 50  1  0  0  0
 49 53  1  0  0  0
 49 64  1  0  0  0
 49122  1  0  0  0
 50 51  1  0  0  0
 50123  1  0  0  0
 50124  1  0  0  0
 51 52  1  0  0  0
 51125  1  0  0  0
 51126  1  0  0  0
 52127  1  0  0  0
 52128  1  0  0  0
 53 54  1  0  0  0
 54 55  2  0  0  0
 54129  1  0  0  0
 55 57  1  0  0  0
 55130  1  0  0  0
 56 69  2  0  0  0
 57 58  2  0  0  0
 57131  1  0  0  0
 58132  1  0  0  0
 59 60  1  0  0  0
 59 61  1  0  0  0
 59 62  1  0  0  0
 60133  1  0  0  0
 60134  1  0  0  0
 60135  1  0  0  0
 61136  1  0  0  0
 61137  1  0  0  0
 61138  1  0  0  0
 62139  1  0  0  0
 62140  1  0  0  0
 62141  1  0  0  0
 63 65  1  0  0  0
 63142  1  0  0  0
 63143  1  0  0  0
 63144  1  0  0  0
 64145  1  0  0  0
 65146  1  0  0  0
 68 83  1  0  0  0
 71 72  2  0  0  0
 71 74  1  0  0  0
 71147  1  0  0  0
 72 73  1  0  0  0
 72 81  1  0  0  0
 73 75  2  0  0  0
 73 83  1  0  0  0
 74 84  2  0  0  0
 74 86  1  0  0  0
 75 84  1  0  0  0
 75 87  1  0  0  0
 76 78  1  0  0  0
 76 80  1  0  0  0
 76148  1  0  0  0
 76149  1  0  0  0
 77 79  1  0  0  0
 77 80  1  0  0  0
 77150  1  0  0  0
 77151  1  0  0  0
 78 85  1  0  0  0
 78152  1  0  0  0
 78153  1  0  0  0
 79 85  1  0  0  0
 79154  1  0  0  0
 79155  1  0  0  0
 80 86  1  0  0  0
 80156  1  0  0  0
 81157  1  0  0  0
 81158  1  0  0  0
 81159  1  0  0  0
 82 87  1  0  0  0
 82160  1  0  0  0
 82161  1  0  0  0
 82162  1  0  0  0
 83163  1  0  0  0
 83164  1  0  0  0
 86165  1  0  0  0
M  ISO  4   1 100  68 101  83 101  85 100
M  END
> <chiral flag>
0

> <version>
0

> <s_m_source_file>
/data/baiqing/PycharmProjects/Reinvent-master-3.2/result/LINK_invent/BTK/process_docking_weight1_custom_sum_contain_oxygen_bond_distance_aromatic_linkinvent_7_9_3/rearranged_h_0165.sdf

> <i_m_source_file_index>
38

> <r_mmod_Potential_Energy-OPLS-2005>
38.5907249450684

> <r_mmod_Stretch_Energy-OPLS-2005>
61.6807746887207

> <r_mmod_Bend_Energy-OPLS-2005>
161.523406982422

> <r_mmod_Torsional_Energy-OPLS-2005>
305.552886962891

> <r_mmod_Improper_Torsional_Energy-OPLS-2005>
17.2493877410889

> <r_mmod_Van_der_Waal_Energy-OPLS-2005>
157.998489379883

> <r_mmod_Electrostatic_Energy-OPLS-2005>
-484.439239501953

> <r_mmod_Solvation_Energy-OPLS-2005>
-214.01123046875

> <b_mmod_Minimization_Converged-OPLS-2005>
0

> <r_mmod_RMS_Derivative-OPLS-2005>
0.39398717880249

$$$$
38
                    3D
 Structure written by MMmdl.
179189  0  0  1  0            999 V2000
  -30.6834  -14.6192   20.2302 C   0  0  0  0  0  0
  -30.4335  -12.2595   19.5489 C   0  0  0  0  0  0
  -29.5318  -12.2264   18.2993 C   0  0  0  0  0  0
  -28.0213  -12.2881   18.6386 C   0  0  0  0  0  0
  -27.6353  -13.2243   19.8230 C   0  0  2  0  0  0
  -28.6764  -13.1919   20.9554 C   0  0  0  0  0  0
  -25.2451  -13.8196   20.5607 C   0  0  0  0  0  0
  -24.1727  -13.0454   20.9153 C   0  0  0  0  0  0
  -24.6327  -11.6943   20.8753 C   0  0  0  0  0  0
  -23.9027  -10.4300   21.0391 C   0  0  0  0  0  0
  -24.3603   -9.4214   21.9149 C   0  0  0  0  0  0
  -23.6266   -8.2253   22.0751 C   0  0  0  0  0  0
  -22.4259   -8.0266   21.3539 C   0  0  0  0  0  0
  -21.9901   -9.0224   20.4630 C   0  0  0  0  0  0
  -22.7229  -10.2099   20.3023 C   0  0  0  0  0  0
  -21.6853   -6.0694   22.5247 C   0  0  0  0  0  0
  -21.4001   -6.5601   23.8169 C   0  0  0  0  0  0
  -21.3692   -5.6773   24.9142 C   0  0  0  0  0  0
  -21.6082   -4.3035   24.7215 C   0  0  0  0  0  0
  -21.8810   -3.8110   23.4333 C   0  0  0  0  0  0
  -21.9173   -4.6914   22.3379 C   0  0  0  0  0  0
  -22.7750  -13.5226   21.1805 C   0  0  0  0  0  0
  -22.1637   -4.2096   21.0956 F   0  0  0  0  0  0
  -21.5665   -3.4532   25.7731 F   0  0  0  0  0  0
  -30.0115  -13.3893   20.3822 N   0  0  0  0  0  0
  -26.2877  -12.9398   20.3178 N   0  0  0  0  0  0
  -25.9264  -11.6571   20.5815 N   0  0  0  0  0  0
  -22.0400  -12.8213   22.0387 N   0  0  0  0  0  0
  -25.4127  -15.1910   20.3990 N   0  0  0  0  0  0
  -31.9031  -14.7178   20.1096 O   0  0  0  0  0  0
  -21.6660   -6.8847   21.4213 O   0  0  0  0  0  0
  -22.3420  -14.5513   20.6642 O   0  0  0  0  0  0
  -24.6166  -31.8691   23.2075 C   0  0  0  0  0  0
  -25.9081  -32.4818   23.8324 C   0  0  1  0  0  0
  -27.2187  -27.4359   20.1091 C   0  0  0  0  0  0
  -25.5965  -33.8610   24.2274 N   0  0  0  0  0  0
  -23.4022  -30.4981   21.5435 C   0  0  2  0  0  0
  -24.8489  -28.9718   20.0972 C   0  0  0  0  0  0
  -22.7440  -29.4674   22.4893 C   0  0  0  0  0  0
  -18.0318  -28.1403   22.8475 C   0  0  0  0  0  0
  -24.1515  -36.7248   23.2641 C   0  0  0  0  0  0
  -25.9320  -30.8413   21.3566 C   0  0  0  0  0  0
  -26.0101  -29.4786   20.6994 C   0  0  0  0  0  0
  -27.2009  -28.7183   20.7009 C   0  0  0  0  0  0
  -26.0556  -26.9525   19.4769 C   0  0  0  0  0  0
  -24.8715  -27.7117   19.4768 C   0  0  0  0  0  0
  -23.6093  -29.8340   20.1545 C   0  0  0  0  0  0
  -25.4128  -36.3063   24.0336 C   0  0  1  0  0  0
  -20.5903  -28.3660   23.1305 C   0  0  2  0  0  0
  -20.6795  -26.9379   22.5424 C   0  0  0  0  0  0
  -19.5764  -26.6367   21.5249 C   0  0  0  0  0  0
  -18.1933  -26.7947   22.1618 C   0  0  0  0  0  0
  -19.1571  -28.8844   23.2909 C   0  0  0  0  0  0
  -18.9498  -30.1457   23.8888 C   0  0  0  0  0  0
  -17.6493  -30.6579   24.0584 C   0  0  0  0  0  0
  -25.9063  -34.9464   23.5092 C   0  0  0  0  0  0
  -16.5382  -29.9082   23.6355 C   0  0  0  0  0  0
  -16.7306  -28.6550   23.0291 C   0  0  0  0  0  0
  -26.4495  -31.6616   25.0664 C   0  0  0  0  0  0
  -25.3713  -31.3806   26.1391 C   0  0  0  0  0  0
  -27.0301  -30.3061   24.5983 C   0  0  0  0  0  0
  -27.6036  -32.4349   25.7456 C   0  0  0  0  0  0
  -27.5604  -37.1760   24.8471 C   0  0  0  0  0  0
  -21.4144  -29.3070   22.3697 N   0  0  0  0  0  0
  -26.4298  -37.3754   23.9432 N   0  0  0  0  0  0
  -24.6693  -31.0814   22.0946 N   0  0  0  0  0  0
  -23.4266  -28.8189   23.2871 O   0  0  0  0  0  0
  -28.3236  -26.6208   20.1906 O   0  0  0  0  0  0
  -26.5579  -34.8945   22.4622 O   0  0  0  0  0  0
  -23.5368  -32.1395   23.7503 O   0  0  0  0  0  0
  -31.6118  -18.3340   17.0346 C   0  0  0  0  0  0
  -30.7341  -17.9779   19.3077 C   0  0  0  0  0  0
  -31.4672  -18.7761   18.3643 C   0  0  0  0  0  0
  -30.9430  -17.1834   16.5998 C   0  0  0  0  0  0
  -30.2493  -16.3871   17.5379 C   0  0  0  0  0  0
  -30.3036  -16.6503   18.9423 C   0  0  0  0  0  0
  -30.2019  -18.6615   20.5554 C   0  0  0  0  0  0
  -32.9516  -21.9377   17.8423 C   0  0  0  0  0  0
  -31.5509  -21.3300   17.7895 C   0  0  0  0  0  0
  -33.4514  -20.5442   18.2350 C   0  0  0  0  0  0
  -31.8204  -20.4194   20.2050 C   0  0  0  0  0  0
  -32.0214  -20.1746   18.7126 C   0  0  0  0  0  0
  -30.9297  -16.8453   15.1114 C   0  0  0  0  0  0
  -29.2978  -15.3613   16.9618 C   0  0  0  0  0  0
  -30.0899  -21.6118   23.2698 C   0  0  0  0  0  0
  -29.4583  -21.0107   20.8699 C   0  0  0  0  0  0
  -28.9325  -24.2708   20.8155 C   0  0  0  0  0  0
  -28.1199  -25.5450   21.1357 C   0  0  0  0  0  0
  -29.8359  -22.1519   21.8523 C   0  0  1  0  0  0
  -30.5013  -19.9793   20.6634 N   0  0  0  0  0  0
  -28.8049  -23.2238   21.8784 N   0  3  0  0  0  0
  -29.3643  -18.1141   21.2777 O   0  0  0  0  0  0
  -29.8294  -15.6773   19.8497 O   0  0  0  0  0  0
  -31.4830  -12.3331   19.2589 H   0  0  0  0  0  0
  -30.3446  -11.3381   20.1258 H   0  0  0  0  0  0
  -29.7221  -11.2905   17.7713 H   0  0  0  0  0  0
  -29.8464  -12.9858   17.6018 H   0  0  0  0  0  0
  -27.7286  -11.2652   18.8722 H   0  0  0  0  0  0
  -27.4462  -12.5511   17.7489 H   0  0  0  0  0  0
  -27.6108  -14.2366   19.4283 H   0  0  0  0  0  0
  -28.6380  -12.2369   21.4799 H   0  0  0  0  0  0
  -28.4598  -13.9627   21.6972 H   0  0  0  0  0  0
  -25.2771   -9.5679   22.4680 H   0  0  0  0  0  0
  -23.9954   -7.4700   22.7529 H   0  0  0  0  0  0
  -21.0818   -8.8727   19.8992 H   0  0  0  0  0  0
  -22.3682  -10.9587   19.6087 H   0  0  0  0  0  0
  -21.1971   -7.6110   23.9625 H   0  0  0  0  0  0
  -21.1547   -6.0528   25.9040 H   0  0  0  0  0  0
  -22.0568   -2.7570   23.2843 H   0  0  0  0  0  0
  -22.4079  -11.9972   22.4914 H   0  0  0  0  0  0
  -21.0964  -13.1142   22.2463 H   0  0  0  0  0  0
  -24.6600  -15.8552   20.5426 H   0  0  0  0  0  0
  -26.2687  -15.6326   20.0878 H   0  0  0  0  0  0
  -26.7139  -32.5541   23.1069 H   0  0  0  0  0  0
  -25.0258  -33.9729   25.0518 H   0  0  0  0  0  0
  -22.6922  -31.3182   21.4076 H   0  0  0  0  0  0
  -23.3800  -35.9566   23.3282 H   0  0  0  0  0  0
  -24.3647  -36.8856   22.2071 H   0  0  0  0  0  0
  -23.7247  -37.6438   23.6649 H   0  0  0  0  0  0
  -26.0424  -31.6066   20.5859 H   0  0  0  0  0  0
  -26.8262  -30.8867   21.9703 H   0  0  0  0  0  0
  -28.0922  -29.0994   21.1800 H   0  0  0  0  0  0
  -26.0596  -25.9765   19.0119 H   0  0  0  0  0  0
  -23.9845  -27.3174   19.0040 H   0  0  0  0  0  0
  -23.7104  -30.6170   19.4021 H   0  0  0  0  0  0
  -22.7295  -29.2622   19.8545 H   0  0  0  0  0  0
  -25.1307  -36.1877   25.0823 H   0  0  0  0  0  0
  -21.0040  -28.3218   24.1405 H   0  0  0  0  0  0
  -20.5724  -26.2239   23.3590 H   0  0  0  0  0  0
  -21.6638  -26.7381   22.1195 H   0  0  0  0  0  0
  -19.6913  -25.6310   21.1218 H   0  0  0  0  0  0
  -19.6756  -27.3220   20.6824 H   0  0  0  0  0  0
  -17.4224  -26.6775   21.3992 H   0  0  0  0  0  0
  -18.0256  -26.0093   22.8989 H   0  0  0  0  0  0
  -19.7989  -30.7316   24.2169 H   0  0  0  0  0  0
  -17.5062  -31.6240   24.5203 H   0  0  0  0  0  0
  -15.5390  -30.2974   23.7712 H   0  0  0  0  0  0
  -15.8707  -28.0922   22.6882 H   0  0  0  0  0  0
  -24.5965  -30.7019   25.7800 H   0  0  0  0  0  0
  -24.8810  -32.3014   26.4593 H   0  0  0  0  0  0
  -25.8054  -30.9227   27.0282 H   0  0  0  0  0  0
  -26.2823  -29.6856   24.1036 H   0  0  0  0  0  0
  -27.4126  -29.7257   25.4381 H   0  0  0  0  0  0
  -27.8623  -30.4417   23.9058 H   0  0  0  0  0  0
  -27.2643  -33.3734   26.1856 H   0  0  0  0  0  0
  -28.3970  -32.6762   25.0363 H   0  0  0  0  0  0
  -28.0518  -31.8553   26.5536 H   0  0  0  0  0  0
  -28.2533  -38.0134   24.7579 H   0  0  0  0  0  0
  -28.1162  -36.2664   24.6172 H   0  0  0  0  0  0
  -27.2333  -37.1235   25.8870 H   0  0  0  0  0  0
  -20.9231  -29.8851   21.7019 H   0  0  0  0  0  0
  -26.0169  -38.2803   24.1495 H   0  0  0  0  0  0
  -32.1228  -18.9462   16.3040 H   0  0  0  0  0  0
  -33.0662  -22.6800   18.6369 H   0  0  0  0  0  0
  -33.3270  -22.3133   16.8890 H   0  0  0  0  0  0
  -31.2939  -21.0205   16.7762 H   0  0  0  0  0  0
  -30.7678  -21.9668   18.2008 H   0  0  0  0  0  0
  -34.2105  -20.5544   19.0188 H   0  0  0  0  0  0
  -33.8032  -19.9814   17.3710 H   0  0  0  0  0  0
  -32.0397  -21.4562   20.4418 H   0  0  0  0  0  0
  -32.5583  -19.8565   20.7796 H   0  0  0  0  0  0
  -31.6165  -17.4695   14.5371 H   0  0  0  0  0  0
  -29.9281  -16.9784   14.6973 H   0  0  0  0  0  0
  -31.2171  -15.8057   14.9451 H   0  0  0  0  0  0
  -28.5377  -15.8819   16.3775 H   0  0  0  0  0  0
  -28.7659  -14.8201   17.7305 H   0  0  0  0  0  0
  -29.8004  -14.6687   16.2893 H   0  0  0  0  0  0
  -30.9023  -20.8823   23.2764 H   0  0  0  0  0  0
  -29.2015  -21.1281   23.6788 H   0  0  0  0  0  0
  -30.3847  -22.4076   23.9534 H   0  0  0  0  0  0
  -29.1955  -21.4268   19.8958 H   0  0  0  0  0  0
  -28.5363  -20.5396   21.2193 H   0  0  0  0  0  0
  -29.9777  -24.5573   20.7071 H   0  0  0  0  0  0
  -28.6107  -23.8546   19.8608 H   0  0  0  0  0  0
  -28.3941  -25.9151   22.1243 H   0  0  0  0  0  0
  -27.0703  -25.2605   21.2087 H   0  0  0  0  0  0
  -30.7584  -22.6340   21.5370 H   0  0  0  0  0  0
  -27.8847  -22.8080   21.8610 H   0  0  0  0  0  0
  -28.8958  -23.6776   22.7746 H   0  0  0  0  0  0
  1 25  1  0  0  0
  1 30  2  0  0  0
  1 93  1  0  0  0
  2  3  1  0  0  0
  2 25  1  0  0  0
  2 94  1  0  0  0
  2 95  1  0  0  0
  3  4  1  0  0  0
  3 96  1  0  0  0
  3 97  1  0  0  0
  4  5  1  0  0  0
  4 98  1  0  0  0
  4 99  1  0  0  0
  5  6  1  0  0  0
  5 26  1  0  0  0
  5100  1  0  0  0
  6 25  1  0  0  0
  6101  1  0  0  0
  6102  1  0  0  0
  7  8  2  0  0  0
  7 26  1  0  0  0
  7 29  1  0  0  0
  8  9  1  0  0  0
  8 22  1  0  0  0
  9 10  1  0  0  0
  9 27  2  0  0  0
 10 11  2  0  0  0
 10 15  1  0  0  0
 11 12  1  0  0  0
 11103  1  0  0  0
 12 13  2  0  0  0
 12104  1  0  0  0
 13 14  1  0  0  0
 13 31  1  0  0  0
 14 15  2  0  0  0
 14105  1  0  0  0
 15106  1  0  0  0
 16 17  2  0  0  0
 16 21  1  0  0  0
 16 31  1  0  0  0
 17 18  1  0  0  0
 17107  1  0  0  0
 18 19  2  0  0  0
 18108  1  0  0  0
 19 20  1  0  0  0
 19 24  1  0  0  0
 20 21  2  0  0  0
 20109  1  0  0  0
 21 23  1  0  0  0
 22 28  1  0  0  0
 22 32  2  0  0  0
 26 27  1  0  0  0
 28110  1  0  0  0
 28111  1  0  0  0
 29112  1  0  0  0
 29113  1  0  0  0
 33 34  1  0  0  0
 33 66  1  0  0  0
 33 70  2  0  0  0
 34 36  1  0  0  0
 34 59  1  0  0  0
 34114  1  0  0  0
 35 44  2  0  0  0
 35 45  1  0  0  0
 35 68  1  0  0  0
 36 56  1  0  0  0
 36115  1  0  0  0
 37 39  1  0  0  0
 37 47  1  0  0  0
 37 66  1  0  0  0
 37116  1  0  0  0
 38 43  2  0  0  0
 38 46  1  0  0  0
 38 47  1  0  0  0
 39 64  1  0  0  0
 39 67  2  0  0  0
 40 52  1  0  0  0
 40 53  2  0  0  0
 40 58  1  0  0  0
 41117  1  0  0  0
 41118  1  0  0  0
 41119  1  0  0  0
 41 48  1  0  0  0
 42 43  1  0  0  0
 42 66  1  0  0  0
 42120  1  0  0  0
 42121  1  0  0  0
 43 44  1  0  0  0
 44122  1  0  0  0
 45 46  2  0  0  0
 45123  1  0  0  0
 46124  1  0  0  0
 47125  1  0  0  0
 47126  1  0  0  0
 48 56  1  0  0  0
 48 65  1  0  0  0
 48127  1  0  0  0
 49 50  1  0  0  0
 49 53  1  0  0  0
 49 64  1  0  0  0
 49128  1  0  0  0
 50 51  1  0  0  0
 50129  1  0  0  0
 50130  1  0  0  0
 51 52  1  0  0  0
 51131  1  0  0  0
 51132  1  0  0  0
 52133  1  0  0  0
 52134  1  0  0  0
 53 54  1  0  0  0
 54 55  2  0  0  0
 54135  1  0  0  0
 55 57  1  0  0  0
 55136  1  0  0  0
 56 69  2  0  0  0
 57 58  2  0  0  0
 57137  1  0  0  0
 58138  1  0  0  0
 59 60  1  0  0  0
 59 61  1  0  0  0
 59 62  1  0  0  0
 60139  1  0  0  0
 60140  1  0  0  0
 60141  1  0  0  0
 61142  1  0  0  0
 61143  1  0  0  0
 61144  1  0  0  0
 62145  1  0  0  0
 62146  1  0  0  0
 62147  1  0  0  0
 63 65  1  0  0  0
 63148  1  0  0  0
 63149  1  0  0  0
 63150  1  0  0  0
 64151  1  0  0  0
 65152  1  0  0  0
 68 88  1  0  0  0
 71 73  2  0  0  0
 71 74  1  0  0  0
 71153  1  0  0  0
 72 73  1  0  0  0
 72 76  2  0  0  0
 72 77  1  0  0  0
 73 82  1  0  0  0
 74 75  2  0  0  0
 74 83  1  0  0  0
 75 76  1  0  0  0
 75 84  1  0  0  0
 76 93  1  0  0  0
 77 90  1  0  0  0
 77 92  2  0  0  0
 78 79  1  0  0  0
 78 80  1  0  0  0
 78154  1  0  0  0
 78155  1  0  0  0
 79156  1  0  0  0
 79157  1  0  0  0
 79 82  1  0  0  0
 80 82  1  0  0  0
 80158  1  0  0  0
 80159  1  0  0  0
 81 82  1  0  0  0
 81 90  1  0  0  0
 81160  1  0  0  0
 81161  1  0  0  0
 83162  1  0  0  0
 83163  1  0  0  0
 83164  1  0  0  0
 84165  1  0  0  0
 84166  1  0  0  0
 84167  1  0  0  0
 85168  1  0  0  0
 85169  1  0  0  0
 85170  1  0  0  0
 85 89  1  0  0  0
 86 89  1  0  0  0
 86 90  1  0  0  0
 86171  1  0  0  0
 86172  1  0  0  0
 87 88  1  0  0  0
 87 91  1  0  0  0
 87173  1  0  0  0
 87174  1  0  0  0
 88175  1  0  0  0
 88176  1  0  0  0
 89 91  1  0  0  0
 89177  1  0  0  0
 91178  1  0  0  0
 91179  1  0  0  0
M  CHG  1  91   1
M  ISO  4   1 100  68 101  88 101  93 100
M  END
> <chiral flag>
0

> <version>
0

> <s_m_source_file>
/data/baiqing/PycharmProjects/Reinvent-master-3.2/result/LINK_invent/BTK/process_docking_weight1_custom_sum_contain_oxygen_bond_distance_aromatic_linkinvent_7_9_3/rearranged_h_0165.sdf

> <i_m_source_file_index>
39

> <r_mmod_Potential_Energy-OPLS-2005>
191.827163696289

> <r_mmod_Stretch_Energy-OPLS-2005>
60.1867256164551

> <r_mmod_Bend_Energy-OPLS-2005>
126.527046203613

> <r_mmod_Torsional_Energy-OPLS-2005>
413.668762207031

> <r_mmod_Improper_Torsional_Energy-OPLS-2005>
17.3572330474854

> <r_mmod_Van_der_Waal_Energy-OPLS-2005>
170.094604492188

> <r_mmod_Electrostatic_Energy-OPLS-2005>
-207.979965209961

> <r_mmod_Solvation_Energy-OPLS-2005>
-454.244964599609

> <b_mmod_Minimization_Converged-OPLS-2005>
0

> <r_mmod_RMS_Derivative-OPLS-2005>
5.81317567825317

$$$$
39
                    3D
 Structure written by MMmdl.
165174  0  0  1  0            999 V2000
  -30.6392  -14.6580   20.4857 C   0  0  0  0  0  0
  -30.4295  -12.4027   19.4617 C   0  0  0  0  0  0
  -29.5071  -12.5032   18.2280 C   0  0  0  0  0  0
  -28.0312  -12.3381   18.6404 C   0  0  0  0  0  0
  -27.6474  -13.2236   19.8563 C   0  0  2  0  0  0
  -28.6909  -13.1168   20.9904 C   0  0  0  0  0  0
  -25.2531  -13.8188   20.5686 C   0  0  0  0  0  0
  -24.1811  -13.0443   20.9197 C   0  0  0  0  0  0
  -24.6390  -11.6918   20.8740 C   0  0  0  0  0  0
  -23.9064  -10.4294   21.0402 C   0  0  0  0  0  0
  -24.3614   -9.4211   21.9181 C   0  0  0  0  0  0
  -23.6287   -8.2247   22.0755 C   0  0  0  0  0  0
  -22.4269   -8.0283   21.3549 C   0  0  0  0  0  0
  -21.9903   -9.0260   20.4651 C   0  0  0  0  0  0
  -22.7235  -10.2136   20.3055 C   0  0  0  0  0  0
  -21.6855   -6.0733   22.5277 C   0  0  0  0  0  0
  -21.4016   -6.5634   23.8213 C   0  0  0  0  0  0
  -21.3659   -5.6787   24.9174 C   0  0  0  0  0  0
  -21.6043   -4.3052   24.7223 C   0  0  0  0  0  0
  -21.8821   -3.8144   23.4345 C   0  0  0  0  0  0
  -21.9195   -4.6960   22.3402 C   0  0  0  0  0  0
  -22.7831  -13.5231   21.1855 C   0  0  0  0  0  0
  -22.1662   -4.2146   21.0979 F   0  0  0  0  0  0
  -21.5628   -3.4536   25.7736 F   0  0  0  0  0  0
  -30.0017  -13.4462   20.4164 N   0  0  0  0  0  0
  -26.2961  -12.9383   20.3295 N   0  0  0  0  0  0
  -25.9318  -11.6532   20.5748 N   0  0  0  0  0  0
  -22.0470  -12.8231   22.0413 N   0  0  0  0  0  0
  -25.4219  -15.1911   20.4093 N   0  0  0  0  0  0
  -31.8173  -14.7718   20.1387 O   0  0  0  0  0  0
  -21.6638   -6.8875   21.4240 O   0  0  0  0  0  0
  -22.3518  -14.5538   20.6700 O   0  0  0  0  0  0
  -24.6267  -31.8586   23.2013 C   0  0  0  0  0  0
  -25.9111  -32.4769   23.8342 C   0  0  1  0  0  0
  -27.2259  -27.3132   20.1048 C   0  0  0  0  0  0
  -25.5923  -33.8570   24.2270 N   0  0  0  0  0  0
  -23.4199  -30.4821   21.5442 C   0  0  2  0  0  0
  -24.8652  -28.9350   20.1087 C   0  0  0  0  0  0
  -22.7473  -29.4617   22.4931 C   0  0  0  0  0  0
  -18.0288  -28.1382   22.8485 C   0  0  0  0  0  0
  -24.1487  -36.7287   23.2639 C   0  0  0  0  0  0
  -25.9614  -30.7860   21.3734 C   0  0  0  0  0  0
  -26.0335  -29.4130   20.7141 C   0  0  0  0  0  0
  -27.2124  -28.6103   20.7077 C   0  0  0  0  0  0
  -26.0256  -26.8788   19.4977 C   0  0  0  0  0  0
  -24.8626  -27.6728   19.4957 C   0  0  0  0  0  0
  -23.6340  -29.8166   20.1591 C   0  0  0  0  0  0
  -25.4112  -36.3078   24.0330 C   0  0  1  0  0  0
  -20.5888  -28.3685   23.1283 C   0  0  2  0  0  0
  -20.6774  -26.9406   22.5415 C   0  0  0  0  0  0
  -19.5753  -26.6384   21.5210 C   0  0  0  0  0  0
  -18.1931  -26.7928   22.1620 C   0  0  0  0  0  0
  -19.1540  -28.8851   23.2882 C   0  0  0  0  0  0
  -18.9463  -30.1452   23.8900 C   0  0  0  0  0  0
  -17.6462  -30.6584   24.0565 C   0  0  0  0  0  0
  -25.9049  -34.9448   23.5101 C   0  0  0  0  0  0
  -16.5353  -29.9082   23.6331 C   0  0  0  0  0  0
  -16.7275  -28.6499   23.0352 C   0  0  0  0  0  0
  -26.4494  -31.6586   25.0719 C   0  0  0  0  0  0
  -25.3727  -31.3736   26.1451 C   0  0  0  0  0  0
  -27.0331  -30.3004   24.6187 C   0  0  0  0  0  0
  -27.6056  -32.4322   25.7487 C   0  0  0  0  0  0
  -27.5578  -37.1795   24.8463 C   0  0  0  0  0  0
  -21.4186  -29.3034   22.3672 N   0  0  0  0  0  0
  -26.4288  -37.3774   23.9411 N   0  0  0  0  0  0
  -24.6880  -31.0591   22.0963 N   0  0  0  0  0  0
  -23.4192  -28.8162   23.3017 O   0  0  0  0  0  0
  -28.3552  -26.4802   20.1733 O   0  0  0  0  0  0
  -26.5621  -34.8919   22.4670 O   0  0  0  0  0  0
  -23.5429  -32.1389   23.7340 O   0  0  0  0  0  0
  -30.0251  -22.0522   20.9400 C   0  0  0  0  0  0
  -29.7680  -23.4201   20.6251 C   0  0  0  0  0  0
  -27.7692  -22.7421   19.4540 C   0  0  0  0  0  0
  -28.6435  -23.8152   19.8484 C   0  0  0  0  0  0
  -28.0028  -21.3671   19.8502 C   0  0  0  0  0  0
  -29.1890  -20.9677   20.5479 C   0  0  0  0  0  0
  -30.7151  -17.8032   22.0135 C   0  0  0  0  0  0
  -30.6454  -19.3313   21.8242 C   0  0  0  0  0  0
  -29.2403  -18.3116   20.2037 C   0  0  0  0  0  0
  -30.2974  -17.2217   20.6590 C   0  0  2  0  0  0
  -30.7717  -24.4618   21.0937 C   0  0  0  0  0  0
  -26.5619  -23.0573   18.5661 C   0  0  0  0  0  0
  -26.9361  -20.3120   19.5641 C   0  0  0  0  0  0
  -28.5199  -25.3057   19.2921 C   0  0  0  0  0  0
  -29.5476  -19.6001   20.8976 N   0  0  0  0  0  0
  -29.8765  -15.7709   20.7451 N   0  0  0  0  0  0
  -31.4726  -12.5152   19.1614 H   0  0  0  0  0  0
  -30.3551  -11.4157   19.9209 H   0  0  0  0  0  0
  -29.7768  -11.7458   17.4908 H   0  0  0  0  0  0
  -29.6481  -13.4694   17.7405 H   0  0  0  0  0  0
  -27.8748  -11.2871   18.8872 H   0  0  0  0  0  0
  -27.3762  -12.5525   17.7948 H   0  0  0  0  0  0
  -27.6557  -14.2523   19.4959 H   0  0  0  0  0  0
  -28.7052  -12.1104   21.4115 H   0  0  0  0  0  0
  -28.4381  -13.7858   21.8141 H   0  0  0  0  0  0
  -25.2759   -9.5688   22.4756 H   0  0  0  0  0  0
  -23.9998   -7.4639   22.7475 H   0  0  0  0  0  0
  -21.0835   -8.8780   19.8956 H   0  0  0  0  0  0
  -22.3693  -10.9675   19.6163 H   0  0  0  0  0  0
  -21.2007   -7.6141   23.9713 H   0  0  0  0  0  0
  -21.1477   -6.0516   25.9076 H   0  0  0  0  0  0
  -22.0599   -2.7606   23.2848 H   0  0  0  0  0  0
  -22.4074  -11.9892   22.4810 H   0  0  0  0  0  0
  -21.1095  -13.1274   22.2618 H   0  0  0  0  0  0
  -24.6499  -15.8409   20.5123 H   0  0  0  0  0  0
  -26.2641  -15.6313   20.0624 H   0  0  0  0  0  0
  -26.7176  -32.5432   23.1084 H   0  0  0  0  0  0
  -25.0063  -33.9710   25.0411 H   0  0  0  0  0  0
  -22.7143  -31.3031   21.4013 H   0  0  0  0  0  0
  -23.3751  -35.9617   23.3305 H   0  0  0  0  0  0
  -24.3576  -36.8907   22.2054 H   0  0  0  0  0  0
  -23.7238  -37.6488   23.6660 H   0  0  0  0  0  0
  -26.0963  -31.5503   20.6067 H   0  0  0  0  0  0
  -26.8403  -30.8320   22.0048 H   0  0  0  0  0  0
  -28.1094  -28.9719   21.1906 H   0  0  0  0  0  0
  -25.9439  -25.8994   19.0538 H   0  0  0  0  0  0
  -23.9611  -27.2937   19.0344 H   0  0  0  0  0  0
  -23.7539  -30.5929   19.4027 H   0  0  0  0  0  0
  -22.7534  -29.2471   19.8565 H   0  0  0  0  0  0
  -25.1292  -36.1925   25.0822 H   0  0  0  0  0  0
  -20.9985  -28.3264   24.1402 H   0  0  0  0  0  0
  -20.5669  -26.2291   23.3614 H   0  0  0  0  0  0
  -21.6645  -26.7432   22.1213 H   0  0  0  0  0  0
  -19.6912  -25.6294   21.1241 H   0  0  0  0  0  0
  -19.6695  -27.3196   20.6741 H   0  0  0  0  0  0
  -17.4201  -26.6681   21.4019 H   0  0  0  0  0  0
  -18.0330  -26.0068   22.9016 H   0  0  0  0  0  0
  -19.7939  -30.7266   24.2274 H   0  0  0  0  0  0
  -17.5017  -31.6263   24.5167 H   0  0  0  0  0  0
  -15.5353  -30.2981   23.7655 H   0  0  0  0  0  0
  -15.8677  -28.0815   22.7070 H   0  0  0  0  0  0
  -24.5898  -30.7086   25.7786 H   0  0  0  0  0  0
  -24.8922  -32.2907   26.4867 H   0  0  0  0  0  0
  -25.8051  -30.8921   27.0231 H   0  0  0  0  0  0
  -26.2901  -29.6756   24.1217 H   0  0  0  0  0  0
  -27.4023  -29.7264   25.4696 H   0  0  0  0  0  0
  -27.8777  -30.4278   23.9413 H   0  0  0  0  0  0
  -27.2666  -33.3623   26.2061 H   0  0  0  0  0  0
  -28.3863  -32.6881   25.0311 H   0  0  0  0  0  0
  -28.0728  -31.8451   26.5404 H   0  0  0  0  0  0
  -28.2597  -38.0091   24.7510 H   0  0  0  0  0  0
  -28.1071  -36.2622   24.6284 H   0  0  0  0  0  0
  -27.2300  -37.1446   25.8868 H   0  0  0  0  0  0
  -20.9363  -29.8740   21.6869 H   0  0  0  0  0  0
  -26.0169  -38.2848   24.1418 H   0  0  0  0  0  0
  -30.9245  -21.8470   21.5005 H   0  0  0  0  0  0
  -30.0052  -17.5030   22.7861 H   0  0  0  0  0  0
  -31.7045  -17.4706   22.3296 H   0  0  0  0  0  0
  -31.5802  -19.6883   21.3876 H   0  0  0  0  0  0
  -30.5035  -19.8416   22.7784 H   0  0  0  0  0  0
  -28.2458  -17.9739   20.4923 H   0  0  0  0  0  0
  -29.2463  -18.4365   19.1198 H   0  0  0  0  0  0
  -31.1522  -17.2970   19.9834 H   0  0  0  0  0  0
  -31.4758  -24.0475   21.8162 H   0  0  0  0  0  0
  -30.2664  -25.2980   21.5773 H   0  0  0  0  0  0
  -31.3474  -24.8464   20.2514 H   0  0  0  0  0  0
  -26.7794  -23.7879   17.7931 H   0  0  0  0  0  0
  -25.7283  -23.4209   19.1671 H   0  0  0  0  0  0
  -26.2205  -22.1969   17.9938 H   0  0  0  0  0  0
  -25.9307  -20.7258   19.5142 H   0  0  0  0  0  0
  -26.8776  -19.5921   20.3770 H   0  0  0  0  0  0
  -27.1476  -19.7842   18.6342 H   0  0  0  0  0  0
  -27.8833  -25.3850   18.4200 H   0  0  0  0  0  0
  -29.4926  -25.4835   18.8337 H   0  0  0  0  0  0
  -28.9115  -15.5965   20.9800 H   0  0  0  0  0  0
  1 25  1  0  0  0
  1 30  2  0  0  0
  1 86  1  0  0  0
  2  3  1  0  0  0
  2 25  1  0  0  0
  2 87  1  0  0  0
  2 88  1  0  0  0
  3  4  1  0  0  0
  3 89  1  0  0  0
  3 90  1  0  0  0
  4  5  1  0  0  0
  4 91  1  0  0  0
  4 92  1  0  0  0
  5  6  1  0  0  0
  5 26  1  0  0  0
  5 93  1  0  0  0
  6 25  1  0  0  0
  6 94  1  0  0  0
  6 95  1  0  0  0
  7  8  2  0  0  0
  7 26  1  0  0  0
  7 29  1  0  0  0
  8  9  1  0  0  0
  8 22  1  0  0  0
  9 10  1  0  0  0
  9 27  2  0  0  0
 10 11  2  0  0  0
 10 15  1  0  0  0
 11 12  1  0  0  0
 11 96  1  0  0  0
 12 13  2  0  0  0
 12 97  1  0  0  0
 13 14  1  0  0  0
 13 31  1  0  0  0
 14 15  2  0  0  0
 14 98  1  0  0  0
 15 99  1  0  0  0
 16 17  2  0  0  0
 16 21  1  0  0  0
 16 31  1  0  0  0
 17 18  1  0  0  0
 17100  1  0  0  0
 18 19  2  0  0  0
 18101  1  0  0  0
 19 20  1  0  0  0
 19 24  1  0  0  0
 20 21  2  0  0  0
 20102  1  0  0  0
 21 23  1  0  0  0
 22 28  1  0  0  0
 22 32  2  0  0  0
 26 27  1  0  0  0
 28103  1  0  0  0
 28104  1  0  0  0
 29105  1  0  0  0
 29106  1  0  0  0
 33 34  1  0  0  0
 33 66  1  0  0  0
 33 70  2  0  0  0
 34 36  1  0  0  0
 34 59  1  0  0  0
 34107  1  0  0  0
 35 44  2  0  0  0
 35 45  1  0  0  0
 35 68  1  0  0  0
 36 56  1  0  0  0
 36108  1  0  0  0
 37 39  1  0  0  0
 37 47  1  0  0  0
 37 66  1  0  0  0
 37109  1  0  0  0
 38 43  2  0  0  0
 38 46  1  0  0  0
 38 47  1  0  0  0
 39 64  1  0  0  0
 39 67  2  0  0  0
 40 52  1  0  0  0
 40 53  2  0  0  0
 40 58  1  0  0  0
 41110  1  0  0  0
 41111  1  0  0  0
 41112  1  0  0  0
 41 48  1  0  0  0
 42 43  1  0  0  0
 42 66  1  0  0  0
 42113  1  0  0  0
 42114  1  0  0  0
 43 44  1  0  0  0
 44115  1  0  0  0
 45 46  2  0  0  0
 45116  1  0  0  0
 46117  1  0  0  0
 47118  1  0  0  0
 47119  1  0  0  0
 48 56  1  0  0  0
 48 65  1  0  0  0
 48120  1  0  0  0
 49 50  1  0  0  0
 49 53  1  0  0  0
 49 64  1  0  0  0
 49121  1  0  0  0
 50 51  1  0  0  0
 50122  1  0  0  0
 50123  1  0  0  0
 51 52  1  0  0  0
 51124  1  0  0  0
 51125  1  0  0  0
 52126  1  0  0  0
 52127  1  0  0  0
 53 54  1  0  0  0
 54 55  2  0  0  0
 54128  1  0  0  0
 55 57  1  0  0  0
 55129  1  0  0  0
 56 69  2  0  0  0
 57 58  2  0  0  0
 57130  1  0  0  0
 58131  1  0  0  0
 59 60  1  0  0  0
 59 61  1  0  0  0
 59 62  1  0  0  0
 60132  1  0  0  0
 60133  1  0  0  0
 60134  1  0  0  0
 61135  1  0  0  0
 61136  1  0  0  0
 61137  1  0  0  0
 62138  1  0  0  0
 62139  1  0  0  0
 62140  1  0  0  0
 63 65  1  0  0  0
 63141  1  0  0  0
 63142  1  0  0  0
 63143  1  0  0  0
 64144  1  0  0  0
 65145  1  0  0  0
 68 84  1  0  0  0
 71 72  2  0  0  0
 71 76  1  0  0  0
 71146  1  0  0  0
 72 74  1  0  0  0
 72 81  1  0  0  0
 73 74  2  0  0  0
 73 75  1  0  0  0
 73 82  1  0  0  0
 74 84  1  0  0  0
 75 76  2  0  0  0
 75 83  1  0  0  0
 76 85  1  0  0  0
 77 78  1  0  0  0
 77 80  1  0  0  0
 77147  1  0  0  0
 77148  1  0  0  0
 78 85  1  0  0  0
 78149  1  0  0  0
 78150  1  0  0  0
 79 80  1  0  0  0
 79 85  1  0  0  0
 79151  1  0  0  0
 79152  1  0  0  0
 80 86  1  0  0  0
 80153  1  0  0  0
 81154  1  0  0  0
 81155  1  0  0  0
 81156  1  0  0  0
 82157  1  0  0  0
 82158  1  0  0  0
 82159  1  0  0  0
 83160  1  0  0  0
 83161  1  0  0  0
 83162  1  0  0  0
 84163  1  0  0  0
 84164  1  0  0  0
 86165  1  0  0  0
M  ISO  4   1 100  68 101  84 101  86 100
M  END
> <chiral flag>
0

> <version>
0

> <s_m_source_file>
/data/baiqing/PycharmProjects/Reinvent-master-3.2/result/LINK_invent/BTK/process_docking_weight1_custom_sum_contain_oxygen_bond_distance_aromatic_linkinvent_7_9_3/rearranged_h_0165.sdf

> <i_m_source_file_index>
40

> <r_mmod_Potential_Energy-OPLS-2005>
140.072631835938

> <r_mmod_Stretch_Energy-OPLS-2005>
92.9463806152344

> <r_mmod_Bend_Energy-OPLS-2005>
200.833435058594

> <r_mmod_Torsional_Energy-OPLS-2005>
258.597351074219

> <r_mmod_Improper_Torsional_Energy-OPLS-2005>
6.76869297027588

> <r_mmod_Van_der_Waal_Energy-OPLS-2005>
159.332656860352

> <r_mmod_Electrostatic_Energy-OPLS-2005>
-405.216857910156

> <r_mmod_Solvation_Energy-OPLS-2005>
-226.84733581543

> <b_mmod_Minimization_Converged-OPLS-2005>
0

> <r_mmod_RMS_Derivative-OPLS-2005>
0.686623990535736

$$$$
40
                    3D
 Structure written by MMmdl.
167177  0  0  1  0            999 V2000
  -30.5106  -15.0163   20.4382 C   0  0  0  0  0  0
  -30.4371  -12.6287   19.5334 C   0  0  0  0  0  0
  -29.5326  -12.5546   18.2785 C   0  0  0  0  0  0
  -28.0636  -12.3265   18.6782 C   0  0  0  0  0  0
  -27.6281  -13.2549   19.8402 C   0  0  2  0  0  0
  -28.6567  -13.2921   20.9864 C   0  0  0  0  0  0
  -25.2453  -13.8229   20.5704 C   0  0  0  0  0  0
  -24.1769  -13.0442   20.9204 C   0  0  0  0  0  0
  -24.6393  -11.6930   20.8725 C   0  0  0  0  0  0
  -23.9077  -10.4298   21.0392 C   0  0  0  0  0  0
  -24.3627   -9.4217   21.9175 C   0  0  0  0  0  0
  -23.6301   -8.2251   22.0750 C   0  0  0  0  0  0
  -22.4283   -8.0283   21.3539 C   0  0  0  0  0  0
  -21.9915   -9.0254   20.4644 C   0  0  0  0  0  0
  -22.7242  -10.2133   20.3048 C   0  0  0  0  0  0
  -21.6861   -6.0737   22.5280 C   0  0  0  0  0  0
  -21.4017   -6.5642   23.8211 C   0  0  0  0  0  0
  -21.3660   -5.6793   24.9175 C   0  0  0  0  0  0
  -21.6041   -4.3055   24.7228 C   0  0  0  0  0  0
  -21.8817   -3.8149   23.4351 C   0  0  0  0  0  0
  -21.9192   -4.6962   22.3405 C   0  0  0  0  0  0
  -22.7795  -13.5209   21.1881 C   0  0  0  0  0  0
  -22.1662   -4.2149   21.0981 F   0  0  0  0  0  0
  -21.5633   -3.4536   25.7742 F   0  0  0  0  0  0
  -29.9386  -13.7321   20.4180 N   0  0  0  0  0  0
  -26.2870  -12.9466   20.3218 N   0  0  0  0  0  0
  -25.9326  -11.6587   20.5706 N   0  0  0  0  0  0
  -22.0457  -12.8187   22.0444 N   0  0  0  0  0  0
  -25.4147  -15.1961   20.4187 N   0  0  0  0  0  0
  -31.6696  -15.0787   20.0083 O   0  0  0  0  0  0
  -21.6645   -6.8881   21.4243 O   0  0  0  0  0  0
  -22.3464  -14.5506   20.6726 O   0  0  0  0  0  0
  -24.6463  -31.8368   23.1813 C   0  0  0  0  0  0
  -25.9218  -32.4649   23.8226 C   0  0  1  0  0  0
  -27.2241  -27.0854   20.1616 C   0  0  0  0  0  0
  -25.5945  -33.8464   24.2137 N   0  0  0  0  0  0
  -23.4529  -30.4504   21.5255 C   0  0  2  0  0  0
  -24.9053  -28.8610   20.1044 C   0  0  0  0  0  0
  -22.7576  -29.4502   22.4827 C   0  0  0  0  0  0
  -18.0306  -28.1387   22.8476 C   0  0  0  0  0  0
  -24.1493  -36.7244   23.2646 C   0  0  0  0  0  0
  -26.0090  -30.6927   21.3876 C   0  0  0  0  0  0
  -26.0783  -29.2981   20.7307 C   0  0  0  0  0  0
  -27.2314  -28.4232   20.7439 C   0  0  0  0  0  0
  -26.0292  -26.7540   19.4903 C   0  0  0  0  0  0
  -24.8961  -27.6054   19.4691 C   0  0  0  0  0  0
  -23.6820  -29.7683   20.1474 C   0  0  0  0  0  0
  -25.4129  -36.3004   24.0307 C   0  0  1  0  0  0
  -20.5920  -28.3721   23.1227 C   0  0  2  0  0  0
  -20.6786  -26.9417   22.5405 C   0  0  0  0  0  0
  -19.5763  -26.6367   21.5213 C   0  0  0  0  0  0
  -18.1947  -26.7924   22.1621 C   0  0  0  0  0  0
  -19.1562  -28.8873   23.2842 C   0  0  0  0  0  0
  -18.9479  -30.1468   23.8870 C   0  0  0  0  0  0
  -17.6478  -30.6586   24.0560 C   0  0  0  0  0  0
  -25.9078  -34.9383   23.5038 C   0  0  0  0  0  0
  -16.5369  -29.9076   23.6343 C   0  0  0  0  0  0
  -16.7294  -28.6492   23.0368 C   0  0  0  0  0  0
  -26.4529  -31.6550   25.0700 C   0  0  0  0  0  0
  -25.3700  -31.3759   26.1390 C   0  0  0  0  0  0
  -27.0413  -30.2940   24.6330 C   0  0  0  0  0  0
  -27.6046  -32.4336   25.7490 C   0  0  0  0  0  0
  -27.5571  -37.1773   24.8462 C   0  0  0  0  0  0
  -21.4266  -29.3033   22.3584 N   0  0  0  0  0  0
  -26.4282  -37.3726   23.9403 N   0  0  0  0  0  0
  -24.7225  -31.0173   22.0863 N   0  0  0  0  0  0
  -23.4195  -28.8070   23.3015 O   0  0  0  0  0  0
  -28.2903  -26.1121   20.3016 O   0  0  0  0  0  0
  -26.5678  -34.8893   22.4624 O   0  0  0  0  0  0
  -23.5573  -32.1276   23.7000 O   0  0  0  0  0  0
  -29.6983  -17.7286   20.2700 C   0  0  0  0  0  0
  -29.0900  -18.9971   20.8100 C   0  0  0  0  0  0
  -29.8270  -16.3991   20.9648 C   0  0  0  0  0  0
  -28.5118  -18.8131   22.1044 C   0  0  0  0  0  0
  -28.7442  -17.6131   22.8513 C   0  0  0  0  0  0
  -29.4138  -16.4711   22.3234 C   0  0  0  0  0  0
  -28.8395  -20.4112   20.0339 C   0  0  0  0  0  0
  -26.2220  -19.5436   23.2364 C   0  0  0  0  0  0
  -26.3551  -20.3708   21.9950 C   0  0  0  0  0  0
  -31.1422  -15.0002   25.0443 C   0  0  0  0  0  0
  -31.6853  -16.2419   24.3716 C   0  0  0  0  0  0
  -27.6077  -19.8780   22.7048 C   0  0  0  0  0  0
  -30.9913  -15.1760   23.5535 C   0  0  0  0  0  0
  -28.2518  -17.5250   24.2988 C   0  0  0  0  0  0
  -28.0478  -23.0966   20.4632 C   0  0  0  0  0  0
  -28.4392  -24.6213   19.7929 C   0  0  0  0  0  0
  -28.8861  -21.7265   20.6053 N   0  0  0  0  0  0
  -28.5153  -20.3205   18.8495 O   0  0  0  0  0  0
  -29.6307  -15.4230   23.1927 O   0  0  0  0  0  0
  -31.4741  -12.7793   19.2307 H   0  0  0  0  0  0
  -30.4300  -11.6777   20.0685 H   0  0  0  0  0  0
  -29.8696  -11.7590   17.6130 H   0  0  0  0  0  0
  -29.6177  -13.4847   17.7149 H   0  0  0  0  0  0
  -27.9599  -11.2836   18.9798 H   0  0  0  0  0  0
  -27.4084  -12.4625   17.8170 H   0  0  0  0  0  0
  -27.5920  -14.2585   19.4164 H   0  0  0  0  0  0
  -28.7511  -12.3166   21.4653 H   0  0  0  0  0  0
  -28.3096  -13.9768   21.7567 H   0  0  0  0  0  0
  -25.2775   -9.5697   22.4745 H   0  0  0  0  0  0
  -24.0015   -7.4643   22.7463 H   0  0  0  0  0  0
  -21.0848   -8.8757   19.8951 H   0  0  0  0  0  0
  -22.3689  -10.9662   19.6152 H   0  0  0  0  0  0
  -21.2009   -7.6149   23.9716 H   0  0  0  0  0  0
  -21.1487   -6.0526   25.9077 H   0  0  0  0  0  0
  -22.0597   -2.7611   23.2848 H   0  0  0  0  0  0
  -22.4098  -11.9857   22.4825 H   0  0  0  0  0  0
  -21.1069  -13.1187   22.2651 H   0  0  0  0  0  0
  -24.6555  -15.8548   20.5530 H   0  0  0  0  0  0
  -26.2835  -15.6418   20.1511 H   0  0  0  0  0  0
  -26.7276  -32.5229   23.0941 H   0  0  0  0  0  0
  -25.0055  -33.9560   25.0262 H   0  0  0  0  0  0
  -22.7588  -31.2779   21.3627 H   0  0  0  0  0  0
  -23.3750  -35.9577   23.3291 H   0  0  0  0  0  0
  -24.3582  -36.8905   22.2063 H   0  0  0  0  0  0
  -23.7252  -37.6432   23.6713 H   0  0  0  0  0  0
  -26.1713  -31.4419   20.6120 H   0  0  0  0  0  0
  -26.8768  -30.7445   22.0339 H   0  0  0  0  0  0
  -28.1204  -28.7464   21.2671 H   0  0  0  0  0  0
  -25.9440  -25.7863   19.0177 H   0  0  0  0  0  0
  -23.9986  -27.2640   18.9711 H   0  0  0  0  0  0
  -23.8178  -30.5381   19.3867 H   0  0  0  0  0  0
  -22.7974  -29.2081   19.8401 H   0  0  0  0  0  0
  -25.1316  -36.1822   25.0797 H   0  0  0  0  0  0
  -21.0020  -28.3320   24.1348 H   0  0  0  0  0  0
  -20.5671  -26.2337   23.3629 H   0  0  0  0  0  0
  -21.6655  -26.7412   22.1211 H   0  0  0  0  0  0
  -19.6933  -25.6268   21.1264 H   0  0  0  0  0  0
  -19.6708  -27.3163   20.6729 H   0  0  0  0  0  0
  -17.4217  -26.6678   21.4020 H   0  0  0  0  0  0
  -18.0345  -26.0062   22.9012 H   0  0  0  0  0  0
  -19.7959  -30.7287   24.2229 H   0  0  0  0  0  0
  -17.5034  -31.6272   24.5152 H   0  0  0  0  0  0
  -15.5368  -30.2973   23.7674 H   0  0  0  0  0  0
  -15.8694  -28.0797   22.7110 H   0  0  0  0  0  0
  -24.5883  -30.7103   25.7713 H   0  0  0  0  0  0
  -24.8881  -32.2944   26.4748 H   0  0  0  0  0  0
  -25.7963  -30.8976   27.0216 H   0  0  0  0  0  0
  -26.3047  -29.6637   24.1335 H   0  0  0  0  0  0
  -27.3998  -29.7273   25.4934 H   0  0  0  0  0  0
  -27.8965  -30.4157   23.9681 H   0  0  0  0  0  0
  -27.2629  -33.3662   26.1991 H   0  0  0  0  0  0
  -28.3897  -32.6857   25.0349 H   0  0  0  0  0  0
  -28.0674  -31.8515   26.5468 H   0  0  0  0  0  0
  -28.2566  -38.0084   24.7505 H   0  0  0  0  0  0
  -28.1077  -36.2610   24.6288 H   0  0  0  0  0  0
  -27.2288  -37.1420   25.8863 H   0  0  0  0  0  0
  -20.9490  -29.8733   21.6745 H   0  0  0  0  0  0
  -26.0140  -38.2789   24.1405 H   0  0  0  0  0  0
  -30.0726  -17.7772   19.2575 H   0  0  0  0  0  0
  -25.8324  -18.5374   23.0977 H   0  0  0  0  0  0
  -25.8821  -20.0560   24.1339 H   0  0  0  0  0  0
  -26.0945  -21.4233   22.0839 H   0  0  0  0  0  0
  -26.0726  -19.8986   21.0560 H   0  0  0  0  0  0
  -30.2548  -15.1055   25.6647 H   0  0  0  0  0  0
  -31.8621  -14.2600   25.3879 H   0  0  0  0  0  0
  -32.7662  -16.3230   24.2734 H   0  0  0  0  0  0
  -31.1662  -17.1818   24.5449 H   0  0  0  0  0  0
  -28.1902  -20.6080   23.2646 H   0  0  0  0  0  0
  -31.5538  -14.5029   22.9099 H   0  0  0  0  0  0
  -27.2303  -17.1471   24.3280 H   0  0  0  0  0  0
  -28.2847  -18.4909   24.8019 H   0  0  0  0  0  0
  -28.8508  -16.8594   24.9152 H   0  0  0  0  0  0
  -27.7777  -23.3230   21.4947 H   0  0  0  0  0  0
  -27.0981  -22.8057   20.0129 H   0  0  0  0  0  0
  -29.5128  -24.5545   19.6204 H   0  0  0  0  0  0
  -28.0287  -24.6183   18.7829 H   0  0  0  0  0  0
  -29.3482  -21.6915   21.5038 H   0  0  0  0  0  0
  1 25  1  0  0  0
  1 30  2  0  0  0
  1 73  1  0  0  0
  2  3  1  0  0  0
  2 25  1  0  0  0
  2 90  1  0  0  0
  2 91  1  0  0  0
  3  4  1  0  0  0
  3 92  1  0  0  0
  3 93  1  0  0  0
  4  5  1  0  0  0
  4 94  1  0  0  0
  4 95  1  0  0  0
  5  6  1  0  0  0
  5 26  1  0  0  0
  5 96  1  0  0  0
  6 25  1  0  0  0
  6 97  1  0  0  0
  6 98  1  0  0  0
  7  8  2  0  0  0
  7 26  1  0  0  0
  7 29  1  0  0  0
  8  9  1  0  0  0
  8 22  1  0  0  0
  9 10  1  0  0  0
  9 27  2  0  0  0
 10 11  2  0  0  0
 10 15  1  0  0  0
 11 12  1  0  0  0
 11 99  1  0  0  0
 12 13  2  0  0  0
 12100  1  0  0  0
 13 14  1  0  0  0
 13 31  1  0  0  0
 14 15  2  0  0  0
 14101  1  0  0  0
 15102  1  0  0  0
 16 17  2  0  0  0
 16 21  1  0  0  0
 16 31  1  0  0  0
 17 18  1  0  0  0
 17103  1  0  0  0
 18 19  2  0  0  0
 18104  1  0  0  0
 19 20  1  0  0  0
 19 24  1  0  0  0
 20 21  2  0  0  0
 20105  1  0  0  0
 21 23  1  0  0  0
 22 28  1  0  0  0
 22 32  2  0  0  0
 26 27  1  0  0  0
 28106  1  0  0  0
 28107  1  0  0  0
 29108  1  0  0  0
 29109  1  0  0  0
 33 34  1  0  0  0
 33 66  1  0  0  0
 33 70  2  0  0  0
 34 36  1  0  0  0
 34 59  1  0  0  0
 34110  1  0  0  0
 35 44  2  0  0  0
 35 45  1  0  0  0
 35 68  1  0  0  0
 36 56  1  0  0  0
 36111  1  0  0  0
 37 39  1  0  0  0
 37 47  1  0  0  0
 37 66  1  0  0  0
 37112  1  0  0  0
 38 43  2  0  0  0
 38 46  1  0  0  0
 38 47  1  0  0  0
 39 64  1  0  0  0
 39 67  2  0  0  0
 40 52  1  0  0  0
 40 53  2  0  0  0
 40 58  1  0  0  0
 41113  1  0  0  0
 41114  1  0  0  0
 41115  1  0  0  0
 41 48  1  0  0  0
 42 43  1  0  0  0
 42 66  1  0  0  0
 42116  1  0  0  0
 42117  1  0  0  0
 43 44  1  0  0  0
 44118  1  0  0  0
 45 46  2  0  0  0
 45119  1  0  0  0
 46120  1  0  0  0
 47121  1  0  0  0
 47122  1  0  0  0
 48 56  1  0  0  0
 48 65  1  0  0  0
 48123  1  0  0  0
 49 50  1  0  0  0
 49 53  1  0  0  0
 49 64  1  0  0  0
 49124  1  0  0  0
 50 51  1  0  0  0
 50125  1  0  0  0
 50126  1  0  0  0
 51 52  1  0  0  0
 51127  1  0  0  0
 51128  1  0  0  0
 52129  1  0  0  0
 52130  1  0  0  0
 53 54  1  0  0  0
 54 55  2  0  0  0
 54131  1  0  0  0
 55 57  1  0  0  0
 55132  1  0  0  0
 56 69  2  0  0  0
 57 58  2  0  0  0
 57133  1  0  0  0
 58134  1  0  0  0
 59 60  1  0  0  0
 59 61  1  0  0  0
 59 62  1  0  0  0
 60135  1  0  0  0
 60136  1  0  0  0
 60137  1  0  0  0
 61138  1  0  0  0
 61139  1  0  0  0
 61140  1  0  0  0
 62141  1  0  0  0
 62142  1  0  0  0
 62143  1  0  0  0
 63 65  1  0  0  0
 63144  1  0  0  0
 63145  1  0  0  0
 63146  1  0  0  0
 64147  1  0  0  0
 65148  1  0  0  0
 68 86  1  0  0  0
 71 72  2  0  0  0
 71 73  1  0  0  0
 71149  1  0  0  0
 72 74  1  0  0  0
 72 77  1  0  0  0
 73 76  2  0  0  0
 74 75  2  0  0  0
 74 82  1  0  0  0
 75 76  1  0  0  0
 75 84  1  0  0  0
 76 89  1  0  0  0
 77 87  1  0  0  0
 77 88  2  0  0  0
 78 79  1  0  0  0
 78 82  1  0  0  0
 78150  1  0  0  0
 78151  1  0  0  0
 79 82  1  0  0  0
 79152  1  0  0  0
 79153  1  0  0  0
 80 81  1  0  0  0
 80 83  1  0  0  0
 80154  1  0  0  0
 80155  1  0  0  0
 81 83  1  0  0  0
 81156  1  0  0  0
 81157  1  0  0  0
 82158  1  0  0  0
 83 89  1  0  0  0
 83159  1  0  0  0
 84160  1  0  0  0
 84161  1  0  0  0
 84162  1  0  0  0
 85 86  1  0  0  0
 85 87  1  0  0  0
 85163  1  0  0  0
 85164  1  0  0  0
 86165  1  0  0  0
 86166  1  0  0  0
 87167  1  0  0  0
M  ISO  4   1 100  68 101  73 100  86 101
M  END
> <chiral flag>
0

> <version>
0

> <s_m_source_file>
/data/baiqing/PycharmProjects/Reinvent-master-3.2/result/LINK_invent/BTK/process_docking_weight1_custom_sum_contain_oxygen_bond_distance_aromatic_linkinvent_7_9_3/rearranged_h_0165.sdf

> <i_m_source_file_index>
41

> <r_mmod_Potential_Energy-OPLS-2005>
777.519836425781

> <r_mmod_Stretch_Energy-OPLS-2005>
326.429382324219

> <r_mmod_Bend_Energy-OPLS-2005>
345.938903808594

> <r_mmod_Torsional_Energy-OPLS-2005>
311.110900878906

> <r_mmod_Improper_Torsional_Energy-OPLS-2005>
5.06048345565796

> <r_mmod_Van_der_Waal_Energy-OPLS-2005>
133.074401855469

> <r_mmod_Electrostatic_Energy-OPLS-2005>
-370.598449707031

> <r_mmod_Solvation_Energy-OPLS-2005>
-211.624526977539

> <b_mmod_Minimization_Converged-OPLS-2005>
0

> <r_mmod_RMS_Derivative-OPLS-2005>
1.06517446041107

$$$$
41
                    3D
 Structure written by MMmdl.
170180  0  0  1  0            999 V2000
  -30.6907  -14.5541   20.5176 C   0  0  0  0  0  0
  -30.4183  -12.3434   19.4460 C   0  0  0  0  0  0
  -29.4978  -12.4976   18.2176 C   0  0  0  0  0  0
  -28.0200  -12.3525   18.6300 C   0  0  0  0  0  0
  -27.6528  -13.2185   19.8658 C   0  0  2  0  0  0
  -28.6972  -13.0695   20.9954 C   0  0  0  0  0  0
  -25.2556  -13.8184   20.5699 C   0  0  0  0  0  0
  -24.1821  -13.0445   20.9187 C   0  0  0  0  0  0
  -24.6390  -11.6915   20.8736 C   0  0  0  0  0  0
  -23.9061  -10.4295   21.0400 C   0  0  0  0  0  0
  -24.3614   -9.4213   21.9178 C   0  0  0  0  0  0
  -23.6289   -8.2250   22.0749 C   0  0  0  0  0  0
  -22.4272   -8.0285   21.3544 C   0  0  0  0  0  0
  -21.9904   -9.0256   20.4646 C   0  0  0  0  0  0
  -22.7232  -10.2135   20.3052 C   0  0  0  0  0  0
  -21.6854   -6.0736   22.5278 C   0  0  0  0  0  0
  -21.4016   -6.5637   23.8212 C   0  0  0  0  0  0
  -21.3659   -5.6788   24.9173 C   0  0  0  0  0  0
  -21.6046   -4.3052   24.7224 C   0  0  0  0  0  0
  -21.8819   -3.8146   23.4344 C   0  0  0  0  0  0
  -21.9192   -4.6963   22.3401 C   0  0  0  0  0  0
  -22.7844  -13.5236   21.1849 C   0  0  0  0  0  0
  -22.1658   -4.2147   21.0978 F   0  0  0  0  0  0
  -21.5631   -3.4535   25.7737 F   0  0  0  0  0  0
  -30.0169  -13.3704   20.4247 N   0  0  0  0  0  0
  -26.2988  -12.9371   20.3351 N   0  0  0  0  0  0
  -25.9325  -11.6520   20.5774 N   0  0  0  0  0  0
  -22.0488  -12.8227   22.0406 N   0  0  0  0  0  0
  -25.4293  -15.1904   20.4125 N   0  0  0  0  0  0
  -31.8496  -14.6664   20.1095 O   0  0  0  0  0  0
  -21.6641   -6.8879   21.4240 O   0  0  0  0  0  0
  -22.3530  -14.5544   20.6700 O   0  0  0  0  0  0
  -24.6205  -31.8643   23.2077 C   0  0  0  0  0  0
  -25.9077  -32.4803   23.8384 C   0  0  1  0  0  0
  -27.2202  -27.3820   20.1052 C   0  0  0  0  0  0
  -25.5914  -33.8603   24.2312 N   0  0  0  0  0  0
  -23.4119  -30.4891   21.5484 C   0  0  2  0  0  0
  -24.8604  -28.9590   20.1032 C   0  0  0  0  0  0
  -22.7449  -29.4641   22.4952 C   0  0  0  0  0  0
  -18.0282  -28.1384   22.8486 C   0  0  0  0  0  0
  -24.1487  -36.7306   23.2634 C   0  0  0  0  0  0
  -25.9480  -30.8140   21.3714 C   0  0  0  0  0  0
  -26.0257  -29.4485   20.7097 C   0  0  0  0  0  0
  -27.2134  -28.6683   20.7084 C   0  0  0  0  0  0
  -26.0465  -26.9388   19.4601 C   0  0  0  0  0  0
  -24.8691  -27.7062   19.4699 C   0  0  0  0  0  0
  -23.6233  -29.8286   20.1604 C   0  0  0  0  0  0
  -25.4106  -36.3100   24.0336 C   0  0  1  0  0  0
  -20.5878  -28.3681   23.1296 C   0  0  2  0  0  0
  -20.6773  -26.9409   22.5414 C   0  0  0  0  0  0
  -19.5752  -26.6384   21.5213 C   0  0  0  0  0  0
  -18.1930  -26.7927   22.1622 C   0  0  0  0  0  0
  -19.1534  -28.8849   23.2888 C   0  0  0  0  0  0
  -18.9459  -30.1452   23.8901 C   0  0  0  0  0  0
  -17.6459  -30.6585   24.0565 C   0  0  0  0  0  0
  -25.9041  -34.9466   23.5122 C   0  0  0  0  0  0
  -16.5350  -29.9087   23.6329 C   0  0  0  0  0  0
  -16.7271  -28.6507   23.0347 C   0  0  0  0  0  0
  -26.4485  -31.6591   25.0729 C   0  0  0  0  0  0
  -25.3738  -31.3714   26.1469 C   0  0  0  0  0  0
  -27.0315  -30.3018   24.6145 C   0  0  0  0  0  0
  -27.6056  -32.4313   25.7492 C   0  0  0  0  0  0
  -27.5589  -37.1794   24.8455 C   0  0  0  0  0  0
  -21.4170  -29.3039   22.3697 N   0  0  0  0  0  0
  -26.4285  -37.3792   23.9422 N   0  0  0  0  0  0
  -24.6785  -31.0703   22.1002 N   0  0  0  0  0  0
  -23.4196  -28.8175   23.3009 O   0  0  0  0  0  0
  -28.2892  -26.4996   20.1910 O   0  0  0  0  0  0
  -26.5606  -34.8924   22.4684 O   0  0  0  0  0  0
  -23.5384  -32.1414   23.7437 O   0  0  0  0  0  0
  -29.1226  -23.4262   22.2071 C   0  0  0  0  0  0
  -28.9244  -23.2925   19.7991 C   0  0  0  0  0  0
  -29.6783  -22.1298   22.2033 C   0  0  0  0  0  0
  -29.8564  -21.3651   21.0439 C   0  0  0  0  0  0
  -28.7292  -24.0362   20.9945 C   0  0  0  0  0  0
  -29.5071  -21.9830   19.8047 C   0  0  0  0  0  0
  -30.2923  -21.4739   23.3978 C   0  0  0  0  0  0
  -31.2534  -20.4686   22.7508 C   0  0  0  0  0  0
  -29.8778  -16.7297   19.6912 C   0  0  0  0  0  0
  -29.8517  -16.2473   22.0958 C   0  0  0  0  0  0
  -29.4091  -18.1685   20.1218 C   0  0  0  0  0  0
  -30.6667  -20.0588   21.3545 C   0  0  1  0  0  0
  -30.5865  -17.6171   22.2335 C   0  0  1  0  0  0
  -29.7844  -21.3236   18.4670 C   0  0  0  0  0  0
  -32.1062  -17.4395   21.9650 C   0  0  0  0  0  0
  -27.9585  -25.3799   21.0682 C   0  0  0  0  0  0
  -29.9428  -15.6802   20.7431 N   0  0  0  0  0  0
  -29.9448  -18.7095   21.4117 N   0  3  2  0  0  0
  -31.4647  -12.4297   19.1478 H   0  0  0  0  0  0
  -30.3160  -11.3479   19.8812 H   0  0  0  0  0  0
  -29.7496  -11.7527   17.4614 H   0  0  0  0  0  0
  -29.6583  -13.4717   17.7528 H   0  0  0  0  0  0
  -27.8437  -11.2991   18.8521 H   0  0  0  0  0  0
  -27.3678  -12.5975   17.7908 H   0  0  0  0  0  0
  -27.6750  -14.2559   19.5325 H   0  0  0  0  0  0
  -28.6884  -12.0570   21.4005 H   0  0  0  0  0  0
  -28.4599  -13.7309   21.8299 H   0  0  0  0  0  0
  -25.2761   -9.5687   22.4749 H   0  0  0  0  0  0
  -23.9998   -7.4642   22.7466 H   0  0  0  0  0  0
  -21.0837   -8.8774   19.8952 H   0  0  0  0  0  0
  -22.3691  -10.9671   19.6157 H   0  0  0  0  0  0
  -21.2009   -7.6144   23.9714 H   0  0  0  0  0  0
  -21.1480   -6.0519   25.9074 H   0  0  0  0  0  0
  -22.0600   -2.7608   23.2847 H   0  0  0  0  0  0
  -22.4092  -11.9878   22.4782 H   0  0  0  0  0  0
  -21.1109  -13.1257   22.2617 H   0  0  0  0  0  0
  -24.6661  -15.8494   20.5220 H   0  0  0  0  0  0
  -26.2887  -15.6258   20.1037 H   0  0  0  0  0  0
  -26.7150  -32.5495   23.1145 H   0  0  0  0  0  0
  -25.0075  -33.9760   25.0465 H   0  0  0  0  0  0
  -22.7027  -31.3078   21.4096 H   0  0  0  0  0  0
  -23.3757  -35.9628   23.3271 H   0  0  0  0  0  0
  -24.3594  -36.8947   22.2054 H   0  0  0  0  0  0
  -23.7222  -37.6496   23.6663 H   0  0  0  0  0  0
  -26.0726  -31.5826   20.6069 H   0  0  0  0  0  0
  -26.8309  -30.8609   21.9974 H   0  0  0  0  0  0
  -28.1035  -29.0274   21.2060 H   0  0  0  0  0  0
  -26.0299  -25.9695   18.9811 H   0  0  0  0  0  0
  -23.9767  -27.3257   18.9919 H   0  0  0  0  0  0
  -23.7339  -30.6077   19.4052 H   0  0  0  0  0  0
  -22.7454  -29.2528   19.8614 H   0  0  0  0  0  0
  -25.1277  -36.1955   25.0826 H   0  0  0  0  0  0
  -20.9972  -28.3255   24.1414 H   0  0  0  0  0  0
  -20.5679  -26.2290   23.3609 H   0  0  0  0  0  0
  -21.6643  -26.7448   22.1203 H   0  0  0  0  0  0
  -19.6913  -25.6297   21.1241 H   0  0  0  0  0  0
  -19.6689  -27.3198   20.6746 H   0  0  0  0  0  0
  -17.4197  -26.6676   21.4024 H   0  0  0  0  0  0
  -18.0329  -26.0068   22.9019 H   0  0  0  0  0  0
  -19.7934  -30.7270   24.2267 H   0  0  0  0  0  0
  -17.5013  -31.6266   24.5168 H   0  0  0  0  0  0
  -15.5352  -30.2990   23.7652 H   0  0  0  0  0  0
  -15.8670  -28.0832   22.7050 H   0  0  0  0  0  0
  -24.5913  -30.7057   25.7806 H   0  0  0  0  0  0
  -24.8931  -32.2877   26.4907 H   0  0  0  0  0  0
  -25.8084  -30.8890   27.0233 H   0  0  0  0  0  0
  -26.2876  -29.6779   24.1177 H   0  0  0  0  0  0
  -27.4035  -29.7258   25.4627 H   0  0  0  0  0  0
  -27.8735  -30.4311   23.9340 H   0  0  0  0  0  0
  -27.2674  -33.3605   26.2086 H   0  0  0  0  0  0
  -28.3858  -32.6882   25.0314 H   0  0  0  0  0  0
  -28.0732  -31.8426   26.5393 H   0  0  0  0  0  0
  -28.2568  -38.0131   24.7566 H   0  0  0  0  0  0
  -28.1126  -36.2669   24.6194 H   0  0  0  0  0  0
  -27.2323  -37.1337   25.8859 H   0  0  0  0  0  0
  -20.9334  -29.8768   21.6921 H   0  0  0  0  0  0
  -26.0171  -38.2861   24.1458 H   0  0  0  0  0  0
  -29.0053  -23.9539   23.1436 H   0  0  0  0  0  0
  -28.6243  -23.7410   18.8616 H   0  0  0  0  0  0
  -29.5172  -20.9735   23.9801 H   0  0  0  0  0  0
  -30.8089  -22.1864   24.0423 H   0  0  0  0  0  0
  -31.5505  -19.6933   23.4496 H   0  0  0  0  0  0
  -32.1742  -21.0163   22.5443 H   0  0  0  0  0  0
  -30.8537  -16.8282   19.2123 H   0  0  0  0  0  0
  -29.2171  -16.3709   18.9003 H   0  0  0  0  0  0
  -28.7976  -16.3555   22.3552 H   0  0  0  0  0  0
  -30.2576  -15.5464   22.8293 H   0  0  0  0  0  0
  -28.3234  -18.1586   20.2217 H   0  0  0  0  0  0
  -29.6147  -18.8504   19.3050 H   0  0  0  0  0  0
  -31.4874  -19.9676   20.6419 H   0  0  0  0  0  0
  -30.4607  -17.8893   23.2812 H   0  0  0  0  0  0
  -29.9426  -22.0759   17.6934 H   0  0  0  0  0  0
  -28.9375  -20.7104   18.1590 H   0  0  0  0  0  0
  -30.6831  -20.7083   18.4969 H   0  0  0  0  0  0
  -32.3245  -17.2187   20.9224 H   0  0  0  0  0  0
  -32.5020  -16.6143   22.5573 H   0  0  0  0  0  0
  -32.7048  -18.3095   22.2241 H   0  0  0  0  0  0
  -28.0496  -25.7625   22.0858 H   0  0  0  0  0  0
  -26.9110  -25.0903   20.9766 H   0  0  0  0  0  0
  -29.1044  -18.9331   21.9246 H   0  0  0  0  0  0
  1 25  1  0  0  0
  1 30  2  0  0  0
  1 87  1  0  0  0
  2  3  1  0  0  0
  2 25  1  0  0  0
  2 89  1  0  0  0
  2 90  1  0  0  0
  3  4  1  0  0  0
  3 91  1  0  0  0
  3 92  1  0  0  0
  4  5  1  0  0  0
  4 93  1  0  0  0
  4 94  1  0  0  0
  5  6  1  0  0  0
  5 26  1  0  0  0
  5 95  1  0  0  0
  6 25  1  0  0  0
  6 96  1  0  0  0
  6 97  1  0  0  0
  7  8  2  0  0  0
  7 26  1  0  0  0
  7 29  1  0  0  0
  8  9  1  0  0  0
  8 22  1  0  0  0
  9 10  1  0  0  0
  9 27  2  0  0  0
 10 11  2  0  0  0
 10 15  1  0  0  0
 11 12  1  0  0  0
 11 98  1  0  0  0
 12 13  2  0  0  0
 12 99  1  0  0  0
 13 14  1  0  0  0
 13 31  1  0  0  0
 14 15  2  0  0  0
 14100  1  0  0  0
 15101  1  0  0  0
 16 17  2  0  0  0
 16 21  1  0  0  0
 16 31  1  0  0  0
 17 18  1  0  0  0
 17102  1  0  0  0
 18 19  2  0  0  0
 18103  1  0  0  0
 19 20  1  0  0  0
 19 24  1  0  0  0
 20 21  2  0  0  0
 20104  1  0  0  0
 21 23  1  0  0  0
 22 28  1  0  0  0
 22 32  2  0  0  0
 26 27  1  0  0  0
 28105  1  0  0  0
 28106  1  0  0  0
 29107  1  0  0  0
 29108  1  0  0  0
 33 34  1  0  0  0
 33 66  1  0  0  0
 33 70  2  0  0  0
 34 36  1  0  0  0
 34 59  1  0  0  0
 34109  1  0  0  0
 35 44  2  0  0  0
 35 45  1  0  0  0
 35 68  1  0  0  0
 36 56  1  0  0  0
 36110  1  0  0  0
 37 39  1  0  0  0
 37 47  1  0  0  0
 37 66  1  0  0  0
 37111  1  0  0  0
 38 43  2  0  0  0
 38 46  1  0  0  0
 38 47  1  0  0  0
 39 64  1  0  0  0
 39 67  2  0  0  0
 40 52  1  0  0  0
 40 53  2  0  0  0
 40 58  1  0  0  0
 41112  1  0  0  0
 41113  1  0  0  0
 41114  1  0  0  0
 41 48  1  0  0  0
 42 43  1  0  0  0
 42 66  1  0  0  0
 42115  1  0  0  0
 42116  1  0  0  0
 43 44  1  0  0  0
 44117  1  0  0  0
 45 46  2  0  0  0
 45118  1  0  0  0
 46119  1  0  0  0
 47120  1  0  0  0
 47121  1  0  0  0
 48 56  1  0  0  0
 48 65  1  0  0  0
 48122  1  0  0  0
 49 50  1  0  0  0
 49 53  1  0  0  0
 49 64  1  0  0  0
 49123  1  0  0  0
 50 51  1  0  0  0
 50124  1  0  0  0
 50125  1  0  0  0
 51 52  1  0  0  0
 51126  1  0  0  0
 51127  1  0  0  0
 52128  1  0  0  0
 52129  1  0  0  0
 53 54  1  0  0  0
 54 55  2  0  0  0
 54130  1  0  0  0
 55 57  1  0  0  0
 55131  1  0  0  0
 56 69  2  0  0  0
 57 58  2  0  0  0
 57132  1  0  0  0
 58133  1  0  0  0
 59 60  1  0  0  0
 59 61  1  0  0  0
 59 62  1  0  0  0
 60134  1  0  0  0
 60135  1  0  0  0
 60136  1  0  0  0
 61137  1  0  0  0
 61138  1  0  0  0
 61139  1  0  0  0
 62140  1  0  0  0
 62141  1  0  0  0
 62142  1  0  0  0
 63 65  1  0  0  0
 63143  1  0  0  0
 63144  1  0  0  0
 63145  1  0  0  0
 64146  1  0  0  0
 65147  1  0  0  0
 68 86  1  0  0  0
 71 73  2  0  0  0
 71 75  1  0  0  0
 71148  1  0  0  0
 72 75  2  0  0  0
 72 76  1  0  0  0
 72149  1  0  0  0
 73 74  1  0  0  0
 73 77  1  0  0  0
 74 76  2  0  0  0
 74 82  1  0  0  0
 75 86  1  0  0  0
 76 84  1  0  0  0
 77 78  1  0  0  0
 77150  1  0  0  0
 77151  1  0  0  0
 78152  1  0  0  0
 78153  1  0  0  0
 78 82  1  0  0  0
 79 81  1  0  0  0
 79 87  1  0  0  0
 79154  1  0  0  0
 79155  1  0  0  0
 80 83  1  0  0  0
 80 87  1  0  0  0
 80156  1  0  0  0
 80157  1  0  0  0
 81158  1  0  0  0
 81159  1  0  0  0
 81 88  1  0  0  0
 82 88  1  0  0  0
 82160  1  0  0  0
 83 85  1  0  0  0
 83 88  1  0  0  0
 83161  1  0  0  0
 84162  1  0  0  0
 84163  1  0  0  0
 84164  1  0  0  0
 85165  1  0  0  0
 85166  1  0  0  0
 85167  1  0  0  0
 86168  1  0  0  0
 86169  1  0  0  0
 88170  1  0  0  0
M  CHG  1  88   1
M  ISO  4   1 100  68 101  86 101  87 100
M  END
> <chiral flag>
0

> <version>
0

> <s_m_source_file>
/data/baiqing/PycharmProjects/Reinvent-master-3.2/result/LINK_invent/BTK/process_docking_weight1_custom_sum_contain_oxygen_bond_distance_aromatic_linkinvent_7_9_3/rearranged_h_0165.sdf

> <i_m_source_file_index>
42

> <r_mmod_Potential_Energy-OPLS-2005>
268.697326660156

> <r_mmod_Stretch_Energy-OPLS-2005>
67.9358596801758

> <r_mmod_Bend_Energy-OPLS-2005>
196.682922363281

> <r_mmod_Torsional_Energy-OPLS-2005>
450.245391845703

> <r_mmod_Improper_Torsional_Energy-OPLS-2005>
14.5218324661255

> <r_mmod_Van_der_Waal_Energy-OPLS-2005>
157.672744750977

> <r_mmod_Electrostatic_Energy-OPLS-2005>
-233.881088256836

> <r_mmod_Solvation_Energy-OPLS-2005>
-417.944946289062

> <b_mmod_Minimization_Converged-OPLS-2005>
0

> <r_mmod_RMS_Derivative-OPLS-2005>
0.743590474128723

$$$$
42
                    3D
 Structure written by MMmdl.
175185  0  0  1  0            999 V2000
  -30.7237  -14.5382   20.5299 C   0  0  0  0  0  0
  -30.4089  -12.3399   19.4480 C   0  0  0  0  0  0
  -29.4936  -12.4960   18.2181 C   0  0  0  0  0  0
  -28.0172  -12.3518   18.6319 C   0  0  0  0  0  0
  -27.6510  -13.2236   19.8638 C   0  0  2  0  0  0
  -28.6950  -13.0891   20.9950 C   0  0  0  0  0  0
  -25.2540  -13.8196   20.5695 C   0  0  0  0  0  0
  -24.1816  -13.0449   20.9195 C   0  0  0  0  0  0
  -24.6394  -11.6922   20.8745 C   0  0  0  0  0  0
  -23.9068  -10.4300   21.0406 C   0  0  0  0  0  0
  -24.3619   -9.4215   21.9183 C   0  0  0  0  0  0
  -23.6295   -8.2248   22.0754 C   0  0  0  0  0  0
  -22.4279   -8.0282   21.3541 C   0  0  0  0  0  0
  -21.9912   -9.0258   20.4645 C   0  0  0  0  0  0
  -22.7241  -10.2140   20.3055 C   0  0  0  0  0  0
  -21.6856   -6.0735   22.5276 C   0  0  0  0  0  0
  -21.4018   -6.5639   23.8211 C   0  0  0  0  0  0
  -21.3659   -5.6789   24.9172 C   0  0  0  0  0  0
  -21.6044   -4.3053   24.7220 C   0  0  0  0  0  0
  -21.8820   -3.8147   23.4343 C   0  0  0  0  0  0
  -21.9195   -4.6963   22.3401 C   0  0  0  0  0  0
  -22.7836  -13.5235   21.1854 C   0  0  0  0  0  0
  -22.1663   -4.2150   21.0979 F   0  0  0  0  0  0
  -21.5628   -3.4537   25.7734 F   0  0  0  0  0  0
  -30.0157  -13.3766   20.4213 N   0  0  0  0  0  0
  -26.2979  -12.9398   20.3347 N   0  0  0  0  0  0
  -25.9326  -11.6543   20.5779 N   0  0  0  0  0  0
  -22.0480  -12.8220   22.0410 N   0  0  0  0  0  0
  -25.4244  -15.1915   20.4107 N   0  0  0  0  0  0
  -31.8842  -14.6165   20.1223 O   0  0  0  0  0  0
  -21.6642   -6.8881   21.4240 O   0  0  0  0  0  0
  -22.3515  -14.5539   20.6706 O   0  0  0  0  0  0
  -24.6193  -31.8664   23.2092 C   0  0  0  0  0  0
  -25.9072  -32.4814   23.8392 C   0  0  1  0  0  0
  -27.2132  -27.3775   20.1100 C   0  0  0  0  0  0
  -25.5918  -33.8613   24.2324 N   0  0  0  0  0  0
  -23.4088  -30.4930   21.5502 C   0  0  2  0  0  0
  -24.8530  -28.9589   20.1102 C   0  0  0  0  0  0
  -22.7436  -29.4657   22.4965 C   0  0  0  0  0  0
  -18.0279  -28.1375   22.8498 C   0  0  0  0  0  0
  -24.1484  -36.7301   23.2639 C   0  0  0  0  0  0
  -25.9453  -30.8140   21.3731 C   0  0  0  0  0  0
  -26.0184  -29.4467   20.7155 C   0  0  0  0  0  0
  -27.2035  -28.6654   20.7097 C   0  0  0  0  0  0
  -26.0367  -26.9410   19.4577 C   0  0  0  0  0  0
  -24.8604  -27.7084   19.4742 C   0  0  0  0  0  0
  -23.6203  -29.8332   20.1625 C   0  0  0  0  0  0
  -25.4113  -36.3109   24.0339 C   0  0  1  0  0  0
  -20.5875  -28.3677   23.1295 C   0  0  2  0  0  0
  -20.6767  -26.9408   22.5404 C   0  0  0  0  0  0
  -19.5746  -26.6385   21.5200 C   0  0  0  0  0  0
  -18.1929  -26.7924   22.1620 C   0  0  0  0  0  0
  -19.1532  -28.8842   23.2894 C   0  0  0  0  0  0
  -18.9458  -30.1447   23.8914 C   0  0  0  0  0  0
  -17.6461  -30.6583   24.0563 C   0  0  0  0  0  0
  -25.9043  -34.9471   23.5131 C   0  0  0  0  0  0
  -16.5350  -29.9090   23.6326 C   0  0  0  0  0  0
  -16.7268  -28.6495   23.0363 C   0  0  0  0  0  0
  -26.4481  -31.6604   25.0733 C   0  0  0  0  0  0
  -25.3738  -31.3727   26.1479 C   0  0  0  0  0  0
  -27.0313  -30.3043   24.6134 C   0  0  0  0  0  0
  -27.6048  -32.4331   25.7498 C   0  0  0  0  0  0
  -27.5582  -37.1811   24.8469 C   0  0  0  0  0  0
  -21.4160  -29.3042   22.3698 N   0  0  0  0  0  0
  -26.4295  -37.3797   23.9411 N   0  0  0  0  0  0
  -24.6763  -31.0732   22.1013 N   0  0  0  0  0  0
  -23.4187  -28.8187   23.3012 O   0  0  0  0  0  0
  -28.3392  -26.5616   20.1493 O   0  0  0  0  0  0
  -26.5594  -34.8924   22.4682 O   0  0  0  0  0  0
  -23.5376  -32.1430   23.7464 O   0  0  0  0  0  0
  -29.9286  -20.6381   20.3437 C   0  0  0  0  0  0
  -29.5248  -21.1075   21.5950 C   0  0  0  0  0  0
  -30.1695  -19.2508   20.1038 C   0  0  0  0  0  0
  -29.2254  -20.1738   22.6281 C   0  0  0  0  0  0
  -29.5112  -18.7847   22.4217 C   0  0  0  0  0  0
  -30.0705  -18.3248   21.1905 C   0  0  0  0  0  0
  -30.1285  -21.8030   19.4400 C   0  0  0  0  0  0
  -28.3808  -24.8844   21.9440 C   0  0  0  0  0  0
  -28.3769  -23.3741   22.2632 C   0  0  0  0  0  0
  -29.8963  -23.1271   20.2055 C   0  0  1  0  0  0
  -28.8634  -24.1137   19.5232 C   0  0  1  0  0  0
  -28.1283  -25.1426   20.4548 C   0  0  2  0  0  0
  -29.6172  -22.6549   21.6763 C   0  0  2  0  0  0
  -30.6148  -18.7724   18.7253 C   0  0  0  0  0  0
  -28.6455  -20.6627   23.9552 C   0  0  0  0  0  0
  -29.2837  -17.7971   23.5650 C   0  0  0  0  0  0
  -29.4408  -24.8289   18.2844 C   0  0  0  0  0  0
  -30.8692  -22.9975   22.5228 C   0  0  0  0  0  0
  -30.8090  -16.9513   21.1198 C   0  0  0  0  0  0
  -30.0858  -15.6599   20.9560 N   0  0  0  0  0  0
  -30.4721  -21.7694   18.2553 O   0  0  0  0  0  0
  -31.4560  -12.4115   19.1484 H   0  0  0  0  0  0
  -30.2954  -11.3479   19.8895 H   0  0  0  0  0  0
  -29.7445  -11.7500   17.4629 H   0  0  0  0  0  0
  -29.6555  -13.4703   17.7544 H   0  0  0  0  0  0
  -27.8425  -11.2998   18.8588 H   0  0  0  0  0  0
  -27.3640  -12.5933   17.7925 H   0  0  0  0  0  0
  -27.6712  -14.2596   19.5237 H   0  0  0  0  0  0
  -28.6827  -12.0821   21.4145 H   0  0  0  0  0  0
  -28.4594  -13.7624   21.8209 H   0  0  0  0  0  0
  -25.2763   -9.5691   22.4759 H   0  0  0  0  0  0
  -24.0004   -7.4639   22.7471 H   0  0  0  0  0  0
  -21.0843   -8.8775   19.8949 H   0  0  0  0  0  0
  -22.3696  -10.9677   19.6163 H   0  0  0  0  0  0
  -21.2012   -7.6148   23.9713 H   0  0  0  0  0  0
  -21.1480   -6.0521   25.9074 H   0  0  0  0  0  0
  -22.0600   -2.7610   23.2841 H   0  0  0  0  0  0
  -22.4096  -11.9877   22.4789 H   0  0  0  0  0  0
  -21.1099  -13.1245   22.2621 H   0  0  0  0  0  0
  -24.6587  -15.8477   20.5194 H   0  0  0  0  0  0
  -26.2781  -15.6310   20.0905 H   0  0  0  0  0  0
  -26.7135  -32.5502   23.1139 H   0  0  0  0  0  0
  -25.0092  -33.9774   25.0490 H   0  0  0  0  0  0
  -22.6989  -31.3118   21.4131 H   0  0  0  0  0  0
  -23.3749  -35.9628   23.3313 H   0  0  0  0  0  0
  -24.3574  -36.8900   22.2048 H   0  0  0  0  0  0
  -23.7229  -37.6508   23.6641 H   0  0  0  0  0  0
  -26.0705  -31.5803   20.6072 H   0  0  0  0  0  0
  -26.8288  -30.8607   21.9983 H   0  0  0  0  0  0
  -28.0989  -29.0330   21.1923 H   0  0  0  0  0  0
  -26.0108  -25.9999   18.9271 H   0  0  0  0  0  0
  -23.9708  -27.3370   18.9847 H   0  0  0  0  0  0
  -23.7381  -30.6121   19.4083 H   0  0  0  0  0  0
  -22.7413  -29.2622   19.8593 H   0  0  0  0  0  0
  -25.1290  -36.1971   25.0831 H   0  0  0  0  0  0
  -20.9973  -28.3241   24.1413 H   0  0  0  0  0  0
  -20.5665  -26.2289   23.3596 H   0  0  0  0  0  0
  -21.6639  -26.7440   22.1203 H   0  0  0  0  0  0
  -19.6902  -25.6297   21.1232 H   0  0  0  0  0  0
  -19.6682  -27.3194   20.6728 H   0  0  0  0  0  0
  -17.4197  -26.6678   21.4020 H   0  0  0  0  0  0
  -18.0333  -26.0055   22.9008 H   0  0  0  0  0  0
  -19.7935  -30.7255   24.2294 H   0  0  0  0  0  0
  -17.5018  -31.6268   24.5158 H   0  0  0  0  0  0
  -15.5354  -30.3000   23.7636 H   0  0  0  0  0  0
  -15.8663  -28.0810   22.7093 H   0  0  0  0  0  0
  -24.5904  -30.7083   25.7818 H   0  0  0  0  0  0
  -24.8941  -32.2889   26.4930 H   0  0  0  0  0  0
  -25.8089  -30.8891   27.0235 H   0  0  0  0  0  0
  -26.2862  -29.6811   24.1177 H   0  0  0  0  0  0
  -27.4058  -29.7280   25.4603 H   0  0  0  0  0  0
  -27.8710  -30.4356   23.9308 H   0  0  0  0  0  0
  -27.2659  -33.3623   26.2090 H   0  0  0  0  0  0
  -28.3848  -32.6909   25.0322 H   0  0  0  0  0  0
  -28.0722  -31.8449   26.5404 H   0  0  0  0  0  0
  -28.2614  -38.0098   24.7517 H   0  0  0  0  0  0
  -28.1065  -36.2631   24.6297 H   0  0  0  0  0  0
  -27.2297  -37.1462   25.8872 H   0  0  0  0  0  0
  -20.9325  -29.8773   21.6931 H   0  0  0  0  0  0
  -26.0182  -38.2872   24.1418 H   0  0  0  0  0  0
  -29.3181  -25.3474   22.2488 H   0  0  0  0  0  0
  -27.6050  -25.3829   22.5265 H   0  0  0  0  0  0
  -27.4627  -22.9273   21.8705 H   0  0  0  0  0  0
  -28.3357  -23.2554   23.3441 H   0  0  0  0  0  0
  -30.8545  -23.6462   20.1973 H   0  0  0  0  0  0
  -28.0722  -23.4653   19.1412 H   0  0  0  0  0  0
  -27.0774  -24.8817   20.3500 H   0  0  0  0  0  0
  -30.0798  -19.2942   17.9322 H   0  0  0  0  0  0
  -30.4010  -17.7144   18.5736 H   0  0  0  0  0  0
  -31.6845  -18.9353   18.5882 H   0  0  0  0  0  0
  -27.6696  -21.1161   23.7847 H   0  0  0  0  0  0
  -29.2906  -21.3977   24.4289 H   0  0  0  0  0  0
  -28.4897  -19.8862   24.6986 H   0  0  0  0  0  0
  -28.2453  -17.8325   23.8953 H   0  0  0  0  0  0
  -29.9273  -18.0428   24.4106 H   0  0  0  0  0  0
  -29.4728  -16.7587   23.3046 H   0  0  0  0  0  0
  -28.6731  -25.4211   17.7839 H   0  0  0  0  0  0
  -29.8306  -24.1301   17.5458 H   0  0  0  0  0  0
  -30.2513  -25.5040   18.5616 H   0  0  0  0  0  0
  -30.7683  -22.7002   23.5640 H   0  0  0  0  0  0
  -31.0912  -24.0636   22.5215 H   0  0  0  0  0  0
  -31.7564  -22.4939   22.1360 H   0  0  0  0  0  0
  -31.3926  -16.8620   22.0378 H   0  0  0  0  0  0
  -31.5869  -17.0351   20.3609 H   0  0  0  0  0  0
  -29.1170  -15.6036   21.2287 H   0  0  0  0  0  0
  1 25  1  0  0  0
  1 30  2  0  0  0
  1 90  1  0  0  0
  2  3  1  0  0  0
  2 25  1  0  0  0
  2 92  1  0  0  0
  2 93  1  0  0  0
  3  4  1  0  0  0
  3 94  1  0  0  0
  3 95  1  0  0  0
  4  5  1  0  0  0
  4 96  1  0  0  0
  4 97  1  0  0  0
  5  6  1  0  0  0
  5 26  1  0  0  0
  5 98  1  0  0  0
  6 25  1  0  0  0
  6 99  1  0  0  0
  6100  1  0  0  0
  7  8  2  0  0  0
  7 26  1  0  0  0
  7 29  1  0  0  0
  8  9  1  0  0  0
  8 22  1  0  0  0
  9 10  1  0  0  0
  9 27  2  0  0  0
 10 11  2  0  0  0
 10 15  1  0  0  0
 11 12  1  0  0  0
 11101  1  0  0  0
 12 13  2  0  0  0
 12102  1  0  0  0
 13 14  1  0  0  0
 13 31  1  0  0  0
 14 15  2  0  0  0
 14103  1  0  0  0
 15104  1  0  0  0
 16 17  2  0  0  0
 16 21  1  0  0  0
 16 31  1  0  0  0
 17 18  1  0  0  0
 17105  1  0  0  0
 18 19  2  0  0  0
 18106  1  0  0  0
 19 20  1  0  0  0
 19 24  1  0  0  0
 20 21  2  0  0  0
 20107  1  0  0  0
 21 23  1  0  0  0
 22 28  1  0  0  0
 22 32  2  0  0  0
 26 27  1  0  0  0
 28108  1  0  0  0
 28109  1  0  0  0
 29110  1  0  0  0
 29111  1  0  0  0
 33 34  1  0  0  0
 33 66  1  0  0  0
 33 70  2  0  0  0
 34 36  1  0  0  0
 34 59  1  0  0  0
 34112  1  0  0  0
 35 44  2  0  0  0
 35 45  1  0  0  0
 35 68  1  0  0  0
 36 56  1  0  0  0
 36113  1  0  0  0
 37 39  1  0  0  0
 37 47  1  0  0  0
 37 66  1  0  0  0
 37114  1  0  0  0
 38 43  2  0  0  0
 38 46  1  0  0  0
 38 47  1  0  0  0
 39 64  1  0  0  0
 39 67  2  0  0  0
 40 52  1  0  0  0
 40 53  2  0  0  0
 40 58  1  0  0  0
 41115  1  0  0  0
 41116  1  0  0  0
 41117  1  0  0  0
 41 48  1  0  0  0
 42 43  1  0  0  0
 42 66  1  0  0  0
 42118  1  0  0  0
 42119  1  0  0  0
 43 44  1  0  0  0
 44120  1  0  0  0
 45 46  2  0  0  0
 45121  1  0  0  0
 46122  1  0  0  0
 47123  1  0  0  0
 47124  1  0  0  0
 48 56  1  0  0  0
 48 65  1  0  0  0
 48125  1  0  0  0
 49 50  1  0  0  0
 49 53  1  0  0  0
 49 64  1  0  0  0
 49126  1  0  0  0
 50 51  1  0  0  0
 50127  1  0  0  0
 50128  1  0  0  0
 51 52  1  0  0  0
 51129  1  0  0  0
 51130  1  0  0  0
 52131  1  0  0  0
 52132  1  0  0  0
 53 54  1  0  0  0
 54 55  2  0  0  0
 54133  1  0  0  0
 55 57  1  0  0  0
 55134  1  0  0  0
 56 69  2  0  0  0
 57 58  2  0  0  0
 57135  1  0  0  0
 58136  1  0  0  0
 59 60  1  0  0  0
 59 61  1  0  0  0
 59 62  1  0  0  0
 60137  1  0  0  0
 60138  1  0  0  0
 60139  1  0  0  0
 61140  1  0  0  0
 61141  1  0  0  0
 61142  1  0  0  0
 62143  1  0  0  0
 62144  1  0  0  0
 62145  1  0  0  0
 63 65  1  0  0  0
 63146  1  0  0  0
 63147  1  0  0  0
 63148  1  0  0  0
 64149  1  0  0  0
 65150  1  0  0  0
 68 82  1  0  0  0
 71 72  1  0  0  0
 71 73  2  0  0  0
 71 77  1  0  0  0
 72 74  2  0  0  0
 72 83  1  0  0  0
 73 76  1  0  0  0
 73 84  1  0  0  0
 74 75  1  0  0  0
 74 85  1  0  0  0
 75 76  2  0  0  0
 75 86  1  0  0  0
 76 89  1  0  0  0
 77 91  2  0  0  0
 77 80  1  0  0  0
 78 79  1  0  0  0
 78 82  1  0  0  0
 78151  1  0  0  0
 78152  1  0  0  0
 79 83  1  0  0  0
 79153  1  0  0  0
 79154  1  0  0  0
 80 81  1  0  0  0
 80 83  1  0  0  0
 80155  1  0  0  0
 81 82  1  0  0  0
 81 87  1  0  0  0
 81156  1  0  0  0
 82157  1  0  0  0
 83 88  1  0  0  0
 84158  1  0  0  0
 84159  1  0  0  0
 84160  1  0  0  0
 85161  1  0  0  0
 85162  1  0  0  0
 85163  1  0  0  0
 86164  1  0  0  0
 86165  1  0  0  0
 86166  1  0  0  0
 87167  1  0  0  0
 87168  1  0  0  0
 87169  1  0  0  0
 88170  1  0  0  0
 88171  1  0  0  0
 88172  1  0  0  0
 89 90  1  0  0  0
 89173  1  0  0  0
 89174  1  0  0  0
 90175  1  0  0  0
M  ISO  4   1 100  68 101  82 101  90 100
M  END
> <chiral flag>
0

> <version>
0

> <s_m_source_file>
/data/baiqing/PycharmProjects/Reinvent-master-3.2/result/LINK_invent/BTK/process_docking_weight1_custom_sum_contain_oxygen_bond_distance_aromatic_linkinvent_7_9_3/rearranged_h_0165.sdf

> <i_m_source_file_index>
43

> <r_mmod_Potential_Energy-OPLS-2005>
156.196228027344

> <r_mmod_Stretch_Energy-OPLS-2005>
65.1433715820312

> <r_mmod_Bend_Energy-OPLS-2005>
176.297149658203

> <r_mmod_Torsional_Energy-OPLS-2005>
319.468902587891

> <r_mmod_Improper_Torsional_Energy-OPLS-2005>
5.63183116912842

> <r_mmod_Van_der_Waal_Energy-OPLS-2005>
174.27751159668

> <r_mmod_Electrostatic_Energy-OPLS-2005>
-413.87939453125

> <r_mmod_Solvation_Energy-OPLS-2005>
-200.137985229492

> <b_mmod_Minimization_Converged-OPLS-2005>
0

> <r_mmod_RMS_Derivative-OPLS-2005>
1.20352339744568

$$$$
43
                    3D
 Structure written by MMmdl.
168178  0  0  1  0            999 V2000
  -30.6281  -14.8966   20.4276 C   0  0  0  0  0  0
  -30.4186  -12.5639   19.4835 C   0  0  0  0  0  0
  -29.5045  -12.5148   18.2428 C   0  0  0  0  0  0
  -28.0420  -12.3012   18.6712 C   0  0  0  0  0  0
  -27.6210  -13.2399   19.8308 C   0  0  2  0  0  0
  -28.6695  -13.3047   20.9617 C   0  0  0  0  0  0
  -25.2441  -13.8190   20.5730 C   0  0  0  0  0  0
  -24.1753  -13.0425   20.9246 C   0  0  0  0  0  0
  -24.6362  -11.6911   20.8781 C   0  0  0  0  0  0
  -23.9049  -10.4285   21.0429 C   0  0  0  0  0  0
  -24.3601   -9.4199   21.9199 C   0  0  0  0  0  0
  -23.6286   -8.2230   22.0755 C   0  0  0  0  0  0
  -22.4269   -8.0266   21.3543 C   0  0  0  0  0  0
  -21.9905   -9.0241   20.4648 C   0  0  0  0  0  0
  -22.7229  -10.2125   20.3070 C   0  0  0  0  0  0
  -21.6848   -6.0729   22.5277 C   0  0  0  0  0  0
  -21.4008   -6.5632   23.8209 C   0  0  0  0  0  0
  -21.3660   -5.6786   24.9171 C   0  0  0  0  0  0
  -21.6044   -4.3048   24.7226 C   0  0  0  0  0  0
  -21.8821   -3.8141   23.4347 C   0  0  0  0  0  0
  -21.9189   -4.6958   22.3403 C   0  0  0  0  0  0
  -22.7776  -13.5206   21.1894 C   0  0  0  0  0  0
  -22.1658   -4.2145   21.0982 F   0  0  0  0  0  0
  -21.5637   -3.4535   25.7741 F   0  0  0  0  0  0
  -29.9446  -13.6863   20.3430 N   0  0  0  0  0  0
  -26.2848  -12.9405   20.3265 N   0  0  0  0  0  0
  -25.9291  -11.6546   20.5770 N   0  0  0  0  0  0
  -22.0412  -12.8200   22.0446 N   0  0  0  0  0  0
  -25.4110  -15.1918   20.4150 N   0  0  0  0  0  0
  -31.8441  -14.8522   20.2146 O   0  0  0  0  0  0
  -21.6631   -6.8866   21.4235 O   0  0  0  0  0  0
  -22.3466  -14.5511   20.6733 O   0  0  0  0  0  0
  -24.6415  -31.8469   23.1918 C   0  0  0  0  0  0
  -25.9198  -32.4706   23.8292 C   0  0  1  0  0  0
  -27.2115  -27.1666   20.1573 C   0  0  0  0  0  0
  -25.5960  -33.8510   24.2215 N   0  0  0  0  0  0
  -23.4428  -30.4680   21.5362 C   0  0  2  0  0  0
  -24.8927  -28.8994   20.1129 C   0  0  0  0  0  0
  -22.7552  -29.4563   22.4866 C   0  0  0  0  0  0
  -18.0300  -28.1392   22.8474 C   0  0  0  0  0  0
  -24.1490  -36.7251   23.2639 C   0  0  0  0  0  0
  -25.9969  -30.7310   21.3868 C   0  0  0  0  0  0
  -26.0696  -29.3443   20.7306 C   0  0  0  0  0  0
  -27.2351  -28.4942   20.7353 C   0  0  0  0  0  0
  -26.0167  -26.8196   19.4934 C   0  0  0  0  0  0
  -24.8771  -27.6493   19.4774 C   0  0  0  0  0  0
  -23.6690  -29.7990   20.1550 C   0  0  0  0  0  0
  -25.4119  -36.3033   24.0320 C   0  0  1  0  0  0
  -20.5912  -28.3716   23.1235 C   0  0  2  0  0  0
  -20.6786  -26.9421   22.5398 C   0  0  0  0  0  0
  -19.5761  -26.6382   21.5203 C   0  0  0  0  0  0
  -18.1942  -26.7932   22.1616 C   0  0  0  0  0  0
  -19.1556  -28.8867   23.2852 C   0  0  0  0  0  0
  -18.9476  -30.1466   23.8876 C   0  0  0  0  0  0
  -17.6475  -30.6591   24.0552 C   0  0  0  0  0  0
  -25.9070  -34.9409   23.5072 C   0  0  0  0  0  0
  -16.5363  -29.9083   23.6334 C   0  0  0  0  0  0
  -16.7284  -28.6500   23.0357 C   0  0  0  0  0  0
  -26.4539  -31.6558   25.0715 C   0  0  0  0  0  0
  -25.3738  -31.3730   26.1419 C   0  0  0  0  0  0
  -27.0405  -30.2957   24.6276 C   0  0  0  0  0  0
  -27.6079  -32.4316   25.7495 C   0  0  0  0  0  0
  -27.5578  -37.1780   24.8465 C   0  0  0  0  0  0
  -21.4245  -29.3050   22.3609 N   0  0  0  0  0  0
  -26.4282  -37.3747   23.9416 N   0  0  0  0  0  0
  -24.7129  -31.0358   22.0933 N   0  0  0  0  0  0
  -23.4204  -28.8103   23.3004 O   0  0  0  0  0  0
  -28.2475  -26.1765   20.1865 O   0  0  0  0  0  0
  -26.5641  -34.8902   22.4641 O   0  0  0  0  0  0
  -23.5539  -32.1331   23.7159 O   0  0  0  0  0  0
  -29.4587  -21.6223   18.9939 C   0  0  0  0  0  0
  -29.1220  -23.0345   19.0107 C   0  0  0  0  0  0
  -29.1196  -21.0120   20.1844 C   0  0  0  0  0  0
  -28.5898  -23.3948   20.2256 C   0  0  0  0  0  0
  -28.7936  -22.8405   23.3553 C   0  0  0  0  0  0
  -29.0498  -21.3565   23.3013 C   0  0  0  0  0  0
  -28.6706  -18.3039   19.6719 C   0  0  0  0  0  0
  -30.6371  -18.8062   20.9037 C   0  0  0  0  0  0
  -28.7490  -16.7440   20.1033 C   0  0  0  0  0  0
  -30.7211  -17.2816   21.4066 C   0  0  0  0  0  0
  -29.2213  -19.4342   20.6339 C   0  0  0  0  0  0
  -28.1024  -21.9952   22.3054 C   0  0  0  0  0  0
  -30.0588  -20.9140   17.8035 C   0  0  0  0  0  0
  -29.2917  -23.9657   17.8357 C   0  0  0  0  0  0
  -27.9056  -24.7817   20.7474 C   0  0  0  0  0  0
  -28.6258  -22.1371   20.9522 N   0  0  0  0  0  0
  -30.0212  -16.1703   20.6621 N   0  0  0  0  0  0
  -31.4557  -12.6851   19.1678 H   0  0  0  0  0  0
  -30.3849  -11.6191   20.0285 H   0  0  0  0  0  0
  -29.8185  -11.7163   17.5693 H   0  0  0  0  0  0
  -29.5942  -13.4455   17.6806 H   0  0  0  0  0  0
  -27.9411  -11.2613   18.9843 H   0  0  0  0  0  0
  -27.3745  -12.4281   17.8181 H   0  0  0  0  0  0
  -27.5639  -14.2255   19.3790 H   0  0  0  0  0  0
  -28.7544  -12.3489   21.4808 H   0  0  0  0  0  0
  -28.3783  -14.0428   21.7106 H   0  0  0  0  0  0
  -25.2742   -9.5683   22.4776 H   0  0  0  0  0  0
  -24.0003   -7.4616   22.7466 H   0  0  0  0  0  0
  -21.0840   -8.8757   19.8950 H   0  0  0  0  0  0
  -22.3683  -10.9665   19.6181 H   0  0  0  0  0  0
  -21.1992   -7.6137   23.9713 H   0  0  0  0  0  0
  -21.1483   -6.0515   25.9075 H   0  0  0  0  0  0
  -22.0602   -2.7605   23.2846 H   0  0  0  0  0  0
  -22.4025  -11.9865   22.4850 H   0  0  0  0  0  0
  -21.1026  -13.1229   22.2649 H   0  0  0  0  0  0
  -24.6450  -15.8453   20.5362 H   0  0  0  0  0  0
  -26.2628  -15.6332   20.0964 H   0  0  0  0  0  0
  -26.7258  -32.5333   23.1020 H   0  0  0  0  0  0
  -25.0127  -33.9625   25.0376 H   0  0  0  0  0  0
  -22.7443  -31.2934   21.3833 H   0  0  0  0  0  0
  -23.3764  -35.9570   23.3280 H   0  0  0  0  0  0
  -24.3584  -36.8899   22.2058 H   0  0  0  0  0  0
  -23.7229  -37.6435   23.6686 H   0  0  0  0  0  0
  -26.1491  -31.4863   20.6144 H   0  0  0  0  0  0
  -26.8687  -30.7809   22.0277 H   0  0  0  0  0  0
  -28.1329  -28.8286   21.2355 H   0  0  0  0  0  0
  -25.9477  -25.8620   18.9969 H   0  0  0  0  0  0
  -23.9812  -27.3067   18.9783 H   0  0  0  0  0  0
  -23.8052  -30.5737   19.3996 H   0  0  0  0  0  0
  -22.7851  -29.2404   19.8435 H   0  0  0  0  0  0
  -25.1305  -36.1862   25.0812 H   0  0  0  0  0  0
  -21.0008  -28.3306   24.1353 H   0  0  0  0  0  0
  -20.5673  -26.2328   23.3613 H   0  0  0  0  0  0
  -21.6656  -26.7425   22.1203 H   0  0  0  0  0  0
  -19.6926  -25.6286   21.1251 H   0  0  0  0  0  0
  -19.6707  -27.3174   20.6718 H   0  0  0  0  0  0
  -17.4214  -26.6664   21.4020 H   0  0  0  0  0  0
  -18.0354  -26.0077   22.9017 H   0  0  0  0  0  0
  -19.7951  -30.7284   24.2244 H   0  0  0  0  0  0
  -17.5029  -31.6269   24.5154 H   0  0  0  0  0  0
  -15.5363  -30.2979   23.7676 H   0  0  0  0  0  0
  -15.8682  -28.0812   22.7091 H   0  0  0  0  0  0
  -24.5934  -30.7053   25.7748 H   0  0  0  0  0  0
  -24.8908  -32.2901   26.4800 H   0  0  0  0  0  0
  -25.8046  -30.8942   27.0224 H   0  0  0  0  0  0
  -26.3015  -29.6672   24.1292 H   0  0  0  0  0  0
  -27.4033  -29.7259   25.4844 H   0  0  0  0  0  0
  -27.8919  -30.4191   23.9578 H   0  0  0  0  0  0
  -27.2688  -33.3642   26.2017 H   0  0  0  0  0  0
  -28.3926  -32.6833   25.0344 H   0  0  0  0  0  0
  -28.0711  -31.8472   26.5456 H   0  0  0  0  0  0
  -28.2579  -38.0094   24.7536 H   0  0  0  0  0  0
  -28.1090  -36.2626   24.6260 H   0  0  0  0  0  0
  -27.2298  -37.1388   25.8868 H   0  0  0  0  0  0
  -20.9449  -29.8760   21.6787 H   0  0  0  0  0  0
  -26.0148  -38.2812   24.1434 H   0  0  0  0  0  0
  -29.6136  -23.4875   23.0496 H   0  0  0  0  0  0
  -28.1865  -23.2149   24.1769 H   0  0  0  0  0  0
  -28.6102  -20.7394   24.0822 H   0  0  0  0  0  0
  -30.0390  -21.0494   22.9686 H   0  0  0  0  0  0
  -27.6303  -18.5372   19.4431 H   0  0  0  0  0  0
  -29.1893  -18.3932   18.7178 H   0  0  0  0  0  0
  -31.2366  -18.8913   19.9975 H   0  0  0  0  0  0
  -31.1520  -19.4275   21.6365 H   0  0  0  0  0  0
  -28.4838  -16.1640   19.2211 H   0  0  0  0  0  0
  -27.9727  -16.5510   20.8439 H   0  0  0  0  0  0
  -30.3236  -17.2497   22.4216 H   0  0  0  0  0  0
  -31.7771  -17.0319   21.5178 H   0  0  0  0  0  0
  -28.6513  -19.3312   21.5569 H   0  0  0  0  0  0
  -27.0309  -21.8086   22.3470 H   0  0  0  0  0  0
  -30.6073  -21.6071   17.1654 H   0  0  0  0  0  0
  -29.2738  -20.4491   17.2069 H   0  0  0  0  0  0
  -30.7579  -20.1397   18.1146 H   0  0  0  0  0  0
  -30.3494  -24.1460   17.6435 H   0  0  0  0  0  0
  -28.8071  -24.9268   18.0067 H   0  0  0  0  0  0
  -28.8500  -23.5278   16.9400 H   0  0  0  0  0  0
  -28.0997  -24.8757   21.8138 H   0  0  0  0  0  0
  -26.8278  -24.6331   20.6980 H   0  0  0  0  0  0
  1 25  1  0  0  0
  1 30  2  0  0  0
  1 87  1  0  0  0
  2  3  1  0  0  0
  2 25  1  0  0  0
  2 88  1  0  0  0
  2 89  1  0  0  0
  3  4  1  0  0  0
  3 90  1  0  0  0
  3 91  1  0  0  0
  4  5  1  0  0  0
  4 92  1  0  0  0
  4 93  1  0  0  0
  5  6  1  0  0  0
  5 26  1  0  0  0
  5 94  1  0  0  0
  6 25  1  0  0  0
  6 95  1  0  0  0
  6 96  1  0  0  0
  7  8  2  0  0  0
  7 26  1  0  0  0
  7 29  1  0  0  0
  8  9  1  0  0  0
  8 22  1  0  0  0
  9 10  1  0  0  0
  9 27  2  0  0  0
 10 11  2  0  0  0
 10 15  1  0  0  0
 11 12  1  0  0  0
 11 97  1  0  0  0
 12 13  2  0  0  0
 12 98  1  0  0  0
 13 14  1  0  0  0
 13 31  1  0  0  0
 14 15  2  0  0  0
 14 99  1  0  0  0
 15100  1  0  0  0
 16 17  2  0  0  0
 16 21  1  0  0  0
 16 31  1  0  0  0
 17 18  1  0  0  0
 17101  1  0  0  0
 18 19  2  0  0  0
 18102  1  0  0  0
 19 20  1  0  0  0
 19 24  1  0  0  0
 20 21  2  0  0  0
 20103  1  0  0  0
 21 23  1  0  0  0
 22 28  1  0  0  0
 22 32  2  0  0  0
 26 27  1  0  0  0
 28104  1  0  0  0
 28105  1  0  0  0
 29106  1  0  0  0
 29107  1  0  0  0
 33 34  1  0  0  0
 33 66  1  0  0  0
 33 70  2  0  0  0
 34 36  1  0  0  0
 34 59  1  0  0  0
 34108  1  0  0  0
 35 44  2  0  0  0
 35 45  1  0  0  0
 35 68  1  0  0  0
 36 56  1  0  0  0
 36109  1  0  0  0
 37 39  1  0  0  0
 37 47  1  0  0  0
 37 66  1  0  0  0
 37110  1  0  0  0
 38 43  2  0  0  0
 38 46  1  0  0  0
 38 47  1  0  0  0
 39 64  1  0  0  0
 39 67  2  0  0  0
 40 52  1  0  0  0
 40 53  2  0  0  0
 40 58  1  0  0  0
 41111  1  0  0  0
 41112  1  0  0  0
 41113  1  0  0  0
 41 48  1  0  0  0
 42 43  1  0  0  0
 42 66  1  0  0  0
 42114  1  0  0  0
 42115  1  0  0  0
 43 44  1  0  0  0
 44116  1  0  0  0
 45 46  2  0  0  0
 45117  1  0  0  0
 46118  1  0  0  0
 47119  1  0  0  0
 47120  1  0  0  0
 48 56  1  0  0  0
 48 65  1  0  0  0
 48121  1  0  0  0
 49 50  1  0  0  0
 49 53  1  0  0  0
 49 64  1  0  0  0
 49122  1  0  0  0
 50 51  1  0  0  0
 50123  1  0  0  0
 50124  1  0  0  0
 51 52  1  0  0  0
 51125  1  0  0  0
 51126  1  0  0  0
 52127  1  0  0  0
 52128  1  0  0  0
 53 54  1  0  0  0
 54 55  2  0  0  0
 54129  1  0  0  0
 55 57  1  0  0  0
 55130  1  0  0  0
 56 69  2  0  0  0
 57 58  2  0  0  0
 57131  1  0  0  0
 58132  1  0  0  0
 59 60  1  0  0  0
 59 61  1  0  0  0
 59 62  1  0  0  0
 60133  1  0  0  0
 60134  1  0  0  0
 60135  1  0  0  0
 61136  1  0  0  0
 61137  1  0  0  0
 61138  1  0  0  0
 62139  1  0  0  0
 62140  1  0  0  0
 62141  1  0  0  0
 63 65  1  0  0  0
 63142  1  0  0  0
 63143  1  0  0  0
 63144  1  0  0  0
 64145  1  0  0  0
 65146  1  0  0  0
 68 85  1  0  0  0
 71 72  1  0  0  0
 71 73  2  0  0  0
 71 83  1  0  0  0
 72 74  2  0  0  0
 72 84  1  0  0  0
 73 86  1  0  0  0
 73 81  1  0  0  0
 74 85  1  0  0  0
 74 86  1  0  0  0
 75 76  1  0  0  0
 75 82  1  0  0  0
 75147  1  0  0  0
 75148  1  0  0  0
 76 82  1  0  0  0
 76149  1  0  0  0
 76150  1  0  0  0
 77 79  1  0  0  0
 77 81  1  0  0  0
 77151  1  0  0  0
 77152  1  0  0  0
 78 80  1  0  0  0
 78 81  1  0  0  0
 78153  1  0  0  0
 78154  1  0  0  0
 79 87  1  0  0  0
 79155  1  0  0  0
 79156  1  0  0  0
 80 87  1  0  0  0
 80157  1  0  0  0
 80158  1  0  0  0
 81159  1  0  0  0
 82 86  1  0  0  0
 82160  1  0  0  0
 83161  1  0  0  0
 83162  1  0  0  0
 83163  1  0  0  0
 84164  1  0  0  0
 84165  1  0  0  0
 84166  1  0  0  0
 85167  1  0  0  0
 85168  1  0  0  0
M  ISO  4   1 100  68 101  85 101  87 100
M  END
> <chiral flag>
0

> <version>
0

> <s_m_source_file>
/data/baiqing/PycharmProjects/Reinvent-master-3.2/result/LINK_invent/BTK/process_docking_weight1_custom_sum_contain_oxygen_bond_distance_aromatic_linkinvent_7_9_3/rearranged_h_0165.sdf

> <i_m_source_file_index>
44

> <r_mmod_Potential_Energy-OPLS-2005>
659.63232421875

> <r_mmod_Stretch_Energy-OPLS-2005>
203.255111694336

> <r_mmod_Bend_Energy-OPLS-2005>
268.204010009766

> <r_mmod_Torsional_Energy-OPLS-2005>
402.950012207031

> <r_mmod_Improper_Torsional_Energy-OPLS-2005>
2.69141888618469

> <r_mmod_Van_der_Waal_Energy-OPLS-2005>
108.647926330566

> <r_mmod_Electrostatic_Energy-OPLS-2005>
-295.319061279297

> <r_mmod_Solvation_Energy-OPLS-2005>
-198.603088378906

> <b_mmod_Minimization_Converged-OPLS-2005>
0

> <r_mmod_RMS_Derivative-OPLS-2005>
1.05910110473633

$$$$
44
                    3D
 Structure written by MMmdl.
158167  0  0  1  0            999 V2000
  -30.5891  -14.8902   20.4378 C   0  0  0  0  0  0
  -30.4286  -12.5527   19.4913 C   0  0  0  0  0  0
  -29.5153  -12.5310   18.2460 C   0  0  0  0  0  0
  -28.0438  -12.3325   18.6595 C   0  0  0  0  0  0
  -27.6307  -13.2501   19.8412 C   0  0  2  0  0  0
  -28.6745  -13.2648   20.9767 C   0  0  0  0  0  0
  -25.2484  -13.8212   20.5719 C   0  0  0  0  0  0
  -24.1794  -13.0444   20.9221 C   0  0  0  0  0  0
  -24.6403  -11.6928   20.8735 C   0  0  0  0  0  0
  -23.9084  -10.4295   21.0374 C   0  0  0  0  0  0
  -24.3623   -9.4215   21.9160 C   0  0  0  0  0  0
  -23.6320   -8.2240   22.0731 C   0  0  0  0  0  0
  -22.4298   -8.0265   21.3527 C   0  0  0  0  0  0
  -21.9929   -9.0237   20.4632 C   0  0  0  0  0  0
  -22.7244  -10.2128   20.3035 C   0  0  0  0  0  0
  -21.6858   -6.0728   22.5275 C   0  0  0  0  0  0
  -21.4001   -6.5631   23.8206 C   0  0  0  0  0  0
  -21.3678   -5.6791   24.9174 C   0  0  0  0  0  0
  -21.6056   -4.3056   24.7220 C   0  0  0  0  0  0
  -21.8820   -3.8139   23.4345 C   0  0  0  0  0  0
  -21.9194   -4.6953   22.3401 C   0  0  0  0  0  0
  -22.7817  -13.5223   21.1880 C   0  0  0  0  0  0
  -22.1663   -4.2131   21.0981 F   0  0  0  0  0  0
  -21.5655   -3.4542   25.7739 F   0  0  0  0  0  0
  -29.9506  -13.6562   20.3714 N   0  0  0  0  0  0
  -26.2894  -12.9447   20.3262 N   0  0  0  0  0  0
  -25.9334  -11.6569   20.5730 N   0  0  0  0  0  0
  -22.0464  -12.8210   22.0429 N   0  0  0  0  0  0
  -25.4184  -15.1940   20.4163 N   0  0  0  0  0  0
  -31.7964  -14.9045   20.1710 O   0  0  0  0  0  0
  -21.6647   -6.8866   21.4238 O   0  0  0  0  0  0
  -22.3502  -14.5538   20.6733 O   0  0  0  0  0  0
  -24.6411  -31.8475   23.1911 C   0  0  0  0  0  0
  -25.9202  -32.4711   23.8290 C   0  0  1  0  0  0
  -27.2027  -27.1580   20.1366 C   0  0  0  0  0  0
  -25.5966  -33.8520   24.2208 N   0  0  0  0  0  0
  -23.4411  -30.4695   21.5393 C   0  0  2  0  0  0
  -24.8857  -28.9041   20.1081 C   0  0  0  0  0  0
  -22.7550  -29.4568   22.4892 C   0  0  0  0  0  0
  -18.0292  -28.1392   22.8480 C   0  0  0  0  0  0
  -24.1491  -36.7266   23.2641 C   0  0  0  0  0  0
  -25.9971  -30.7269   21.3865 C   0  0  0  0  0  0
  -26.0654  -29.3428   20.7232 C   0  0  0  0  0  0
  -27.2278  -28.4859   20.7187 C   0  0  0  0  0  0
  -25.9964  -26.8178   19.4835 C   0  0  0  0  0  0
  -24.8630  -27.6552   19.4734 C   0  0  0  0  0  0
  -23.6634  -29.8046   20.1562 C   0  0  0  0  0  0
  -25.4118  -36.3043   24.0320 C   0  0  1  0  0  0
  -20.5900  -28.3724   23.1249 C   0  0  2  0  0  0
  -20.6789  -26.9439   22.5399 C   0  0  0  0  0  0
  -19.5770  -26.6378   21.5210 C   0  0  0  0  0  0
  -18.1948  -26.7933   22.1614 C   0  0  0  0  0  0
  -19.1549  -28.8875   23.2860 C   0  0  0  0  0  0
  -18.9462  -30.1464   23.8887 C   0  0  0  0  0  0
  -17.6466  -30.6597   24.0544 C   0  0  0  0  0  0
  -25.9074  -34.9421   23.5072 C   0  0  0  0  0  0
  -16.5354  -29.9084   23.6334 C   0  0  0  0  0  0
  -16.7280  -28.6496   23.0373 C   0  0  0  0  0  0
  -26.4513  -31.6583   25.0735 C   0  0  0  0  0  0
  -25.3689  -31.3785   26.1433 C   0  0  0  0  0  0
  -27.0356  -30.2977   24.6307 C   0  0  0  0  0  0
  -27.6065  -32.4329   25.7515 C   0  0  0  0  0  0
  -27.5583  -37.1781   24.8452 C   0  0  0  0  0  0
  -21.4248  -29.3050   22.3633 N   0  0  0  0  0  0
  -26.4272  -37.3764   23.9413 N   0  0  0  0  0  0
  -24.7139  -31.0346   22.0938 N   0  0  0  0  0  0
  -23.4216  -28.8114   23.3021 O   0  0  0  0  0  0
  -28.2492  -26.1743   20.2091 O   0  0  0  0  0  0
  -26.5650  -34.8908   22.4641 O   0  0  0  0  0  0
  -23.5550  -32.1350   23.7147 O   0  0  0  0  0  0
  -30.8153  -21.3271   20.7983 C   0  0  0  0  0  0
  -28.9341  -23.4071   20.3535 C   0  0  0  0  0  0
  -29.5388  -20.8460   20.4321 C   0  0  0  0  0  0
  -28.5919  -21.9686   20.2244 C   0  0  0  0  0  0
  -30.2766  -23.6224   20.7327 C   0  0  0  0  0  0
  -30.4388  -18.5886   19.5820 C   0  0  0  0  0  0
  -28.7822  -18.4628   21.2908 C   0  0  0  0  0  0
  -30.0629  -17.0785   19.2289 C   0  0  0  0  0  0
  -29.4139  -16.9688   21.5264 C   0  0  0  0  0  0
  -30.8486  -25.0152   20.9285 C   0  0  0  0  0  0
  -27.9196  -24.6652   20.0758 C   0  0  0  0  0  0
  -31.1664  -22.6258   20.9456 N   0  0  0  0  0  0
  -29.3709  -19.3721   20.2553 N   0  0  0  0  0  0
  -29.8628  -16.1143   20.3633 N   0  0  0  0  0  0
  -27.3226  -21.6592   19.8577 F   0  0  0  0  0  0
  -31.4676  -12.6833   19.1849 H   0  0  0  0  0  0
  -30.3919  -11.5952   20.0143 H   0  0  0  0  0  0
  -29.8272  -11.7375   17.5642 H   0  0  0  0  0  0
  -29.6188  -13.4675   17.6946 H   0  0  0  0  0  0
  -27.9216  -11.2885   18.9454 H   0  0  0  0  0  0
  -27.3831  -12.4895   17.8043 H   0  0  0  0  0  0
  -27.6016  -14.2597   19.4316 H   0  0  0  0  0  0
  -28.7508  -12.2885   21.4594 H   0  0  0  0  0  0
  -28.3867  -13.9769   21.7511 H   0  0  0  0  0  0
  -25.2752   -9.5723   22.4749 H   0  0  0  0  0  0
  -24.0039   -7.4638   22.7459 H   0  0  0  0  0  0
  -21.0848   -8.8758   19.8957 H   0  0  0  0  0  0
  -22.3677  -10.9664   19.6167 H   0  0  0  0  0  0
  -21.1959   -7.6134   23.9703 H   0  0  0  0  0  0
  -21.1522   -6.0511   25.9086 H   0  0  0  0  0  0
  -22.0584   -2.7598   23.2829 H   0  0  0  0  0  0
  -22.4089  -11.9887   22.4839 H   0  0  0  0  0  0
  -21.1072  -13.1217   22.2607 H   0  0  0  0  0  0
  -24.6538  -15.8501   20.5282 H   0  0  0  0  0  0
  -26.2772  -15.6349   20.1107 H   0  0  0  0  0  0
  -26.7274  -32.5314   23.1031 H   0  0  0  0  0  0
  -25.0081  -33.9645   25.0332 H   0  0  0  0  0  0
  -22.7427  -31.2952   21.3900 H   0  0  0  0  0  0
  -23.3769  -35.9579   23.3251 H   0  0  0  0  0  0
  -24.3601  -36.8945   22.2068 H   0  0  0  0  0  0
  -23.7214  -37.6437   23.6700 H   0  0  0  0  0  0
  -26.1513  -31.4838   20.6165 H   0  0  0  0  0  0
  -26.8692  -30.7726   22.0274 H   0  0  0  0  0  0
  -28.1282  -28.8155   21.2191 H   0  0  0  0  0  0
  -25.8838  -25.8654   18.9892 H   0  0  0  0  0  0
  -23.9601  -27.3169   18.9824 H   0  0  0  0  0  0
  -23.7983  -30.5804   19.4021 H   0  0  0  0  0  0
  -22.7767  -29.2483   19.8474 H   0  0  0  0  0  0
  -25.1298  -36.1874   25.0813 H   0  0  0  0  0  0
  -20.9981  -28.3297   24.1377 H   0  0  0  0  0  0
  -20.5695  -26.2336   23.3605 H   0  0  0  0  0  0
  -21.6653  -26.7465   22.1189 H   0  0  0  0  0  0
  -19.6931  -25.6282   21.1269 H   0  0  0  0  0  0
  -19.6705  -27.3154   20.6710 H   0  0  0  0  0  0
  -17.4218  -26.6666   21.4020 H   0  0  0  0  0  0
  -18.0358  -26.0082   22.9017 H   0  0  0  0  0  0
  -19.7941  -30.7262   24.2280 H   0  0  0  0  0  0
  -17.5025  -31.6286   24.5122 H   0  0  0  0  0  0
  -15.5361  -30.2976   23.7675 H   0  0  0  0  0  0
  -15.8677  -28.0787   22.7129 H   0  0  0  0  0  0
  -24.5813  -30.7224   25.7716 H   0  0  0  0  0  0
  -24.8943  -32.2983   26.4871 H   0  0  0  0  0  0
  -25.7943  -30.8899   27.0210 H   0  0  0  0  0  0
  -26.2962  -29.6727   24.1294 H   0  0  0  0  0  0
  -27.3937  -29.7269   25.4884 H   0  0  0  0  0  0
  -27.8893  -30.4203   23.9634 H   0  0  0  0  0  0
  -27.2673  -33.3623   26.2100 H   0  0  0  0  0  0
  -28.3877  -32.6908   25.0352 H   0  0  0  0  0  0
  -28.0742  -31.8452   26.5425 H   0  0  0  0  0  0
  -28.2557  -38.0120   24.7556 H   0  0  0  0  0  0
  -28.1117  -36.2659   24.6192 H   0  0  0  0  0  0
  -27.2321  -37.1329   25.8856 H   0  0  0  0  0  0
  -20.9462  -29.8766   21.6816 H   0  0  0  0  0  0
  -26.0144  -38.2826   24.1435 H   0  0  0  0  0  0
  -31.6241  -20.6364   20.9825 H   0  0  0  0  0  0
  -30.6975  -19.1068   18.6573 H   0  0  0  0  0  0
  -31.3432  -18.5882   20.1922 H   0  0  0  0  0  0
  -28.7513  -18.9878   22.2478 H   0  0  0  0  0  0
  -27.7362  -18.3300   21.0117 H   0  0  0  0  0  0
  -30.8370  -16.6926   18.5620 H   0  0  0  0  0  0
  -29.1539  -17.0695   18.6267 H   0  0  0  0  0  0
  -28.7006  -16.3861   22.1119 H   0  0  0  0  0  0
  -30.2836  -17.0761   22.1776 H   0  0  0  0  0  0
  -30.9261  -25.5328   19.9721 H   0  0  0  0  0  0
  -31.8455  -24.9851   21.3696 H   0  0  0  0  0  0
  -30.2222  -25.6043   21.5973 H   0  0  0  0  0  0
  -27.0503  -24.4817   20.7096 H   0  0  0  0  0  0
  -27.5790  -24.5078   19.0518 H   0  0  0  0  0  0
  1 25  1  0  0  0
  1 30  2  0  0  0
  1 84  1  0  0  0
  2  3  1  0  0  0
  2 25  1  0  0  0
  2 86  1  0  0  0
  2 87  1  0  0  0
  3  4  1  0  0  0
  3 88  1  0  0  0
  3 89  1  0  0  0
  4  5  1  0  0  0
  4 90  1  0  0  0
  4 91  1  0  0  0
  5  6  1  0  0  0
  5 26  1  0  0  0
  5 92  1  0  0  0
  6 25  1  0  0  0
  6 93  1  0  0  0
  6 94  1  0  0  0
  7  8  2  0  0  0
  7 26  1  0  0  0
  7 29  1  0  0  0
  8  9  1  0  0  0
  8 22  1  0  0  0
  9 10  1  0  0  0
  9 27  2  0  0  0
 10 11  2  0  0  0
 10 15  1  0  0  0
 11 12  1  0  0  0
 11 95  1  0  0  0
 12 13  2  0  0  0
 12 96  1  0  0  0
 13 14  1  0  0  0
 13 31  1  0  0  0
 14 15  2  0  0  0
 14 97  1  0  0  0
 15 98  1  0  0  0
 16 17  2  0  0  0
 16 21  1  0  0  0
 16 31  1  0  0  0
 17 18  1  0  0  0
 17 99  1  0  0  0
 18 19  2  0  0  0
 18100  1  0  0  0
 19 20  1  0  0  0
 19 24  1  0  0  0
 20 21  2  0  0  0
 20101  1  0  0  0
 21 23  1  0  0  0
 22 28  1  0  0  0
 22 32  2  0  0  0
 26 27  1  0  0  0
 28102  1  0  0  0
 28103  1  0  0  0
 29104  1  0  0  0
 29105  1  0  0  0
 33 34  1  0  0  0
 33 66  1  0  0  0
 33 70  2  0  0  0
 34 36  1  0  0  0
 34 59  1  0  0  0
 34106  1  0  0  0
 35 44  2  0  0  0
 35 45  1  0  0  0
 35 68  1  0  0  0
 36 56  1  0  0  0
 36107  1  0  0  0
 37 39  1  0  0  0
 37 47  1  0  0  0
 37 66  1  0  0  0
 37108  1  0  0  0
 38 43  2  0  0  0
 38 46  1  0  0  0
 38 47  1  0  0  0
 39 64  1  0  0  0
 39 67  2  0  0  0
 40 52  1  0  0  0
 40 53  2  0  0  0
 40 58  1  0  0  0
 41109  1  0  0  0
 41110  1  0  0  0
 41111  1  0  0  0
 41 48  1  0  0  0
 42 43  1  0  0  0
 42 66  1  0  0  0
 42112  1  0  0  0
 42113  1  0  0  0
 43 44  1  0  0  0
 44114  1  0  0  0
 45 46  2  0  0  0
 45115  1  0  0  0
 46116  1  0  0  0
 47117  1  0  0  0
 47118  1  0  0  0
 48 56  1  0  0  0
 48 65  1  0  0  0
 48119  1  0  0  0
 49 50  1  0  0  0
 49 53  1  0  0  0
 49 64  1  0  0  0
 49120  1  0  0  0
 50 51  1  0  0  0
 50121  1  0  0  0
 50122  1  0  0  0
 51 52  1  0  0  0
 51123  1  0  0  0
 51124  1  0  0  0
 52125  1  0  0  0
 52126  1  0  0  0
 53 54  1  0  0  0
 54 55  2  0  0  0
 54127  1  0  0  0
 55 57  1  0  0  0
 55128  1  0  0  0
 56 69  2  0  0  0
 57 58  2  0  0  0
 57129  1  0  0  0
 58130  1  0  0  0
 59 60  1  0  0  0
 59 61  1  0  0  0
 59 62  1  0  0  0
 60131  1  0  0  0
 60132  1  0  0  0
 60133  1  0  0  0
 61134  1  0  0  0
 61135  1  0  0  0
 61136  1  0  0  0
 62137  1  0  0  0
 62138  1  0  0  0
 62139  1  0  0  0
 63 65  1  0  0  0
 63140  1  0  0  0
 63141  1  0  0  0
 63142  1  0  0  0
 64143  1  0  0  0
 65144  1  0  0  0
 68 81  1  0  0  0
 71 73  2  0  0  0
 71 82  1  0  0  0
 71145  1  0  0  0
 72 74  2  0  0  0
 72 75  1  0  0  0
 72 81  1  0  0  0
 73 74  1  0  0  0
 73 83  1  0  0  0
 74 85  1  0  0  0
 75 80  1  0  0  0
 75 82  2  0  0  0
 76 78  1  0  0  0
 76 83  1  0  0  0
 76146  1  0  0  0
 76147  1  0  0  0
 77 79  1  0  0  0
 77 83  1  0  0  0
 77148  1  0  0  0
 77149  1  0  0  0
 78 84  1  0  0  0
 78150  1  0  0  0
 78151  1  0  0  0
 79 84  1  0  0  0
 79152  1  0  0  0
 79153  1  0  0  0
 80154  1  0  0  0
 80155  1  0  0  0
 80156  1  0  0  0
 81157  1  0  0  0
 81158  1  0  0  0
M  ISO  4   1 100  68 101  81 101  84 100
M  END
> <chiral flag>
0

> <version>
0

> <s_m_source_file>
/data/baiqing/PycharmProjects/Reinvent-master-3.2/result/LINK_invent/BTK/process_docking_weight1_custom_sum_contain_oxygen_bond_distance_aromatic_linkinvent_7_9_3/rearranged_h_0165.sdf

> <i_m_source_file_index>
45

> <r_mmod_Potential_Energy-OPLS-2005>
550.590576171875

> <r_mmod_Stretch_Energy-OPLS-2005>
206.897399902344

> <r_mmod_Bend_Energy-OPLS-2005>
239.580444335938

> <r_mmod_Torsional_Energy-OPLS-2005>
377.829864501953

> <r_mmod_Improper_Torsional_Energy-OPLS-2005>
18.883638381958

> <r_mmod_Van_der_Waal_Energy-OPLS-2005>
145.955505371094

> <r_mmod_Electrostatic_Energy-OPLS-2005>
-390.033447265625

> <r_mmod_Solvation_Energy-OPLS-2005>
-212.057968139648

> <b_mmod_Minimization_Converged-OPLS-2005>
0

> <r_mmod_RMS_Derivative-OPLS-2005>
2.77336883544922

$$$$
45
                    3D
 Structure written by MMmdl.
164173  0  0  1  0            999 V2000
  -30.4781  -15.1015   20.3789 C   0  0  0  0  0  0
  -30.4361  -12.6874   19.5309 C   0  0  0  0  0  0
  -29.5287  -12.5597   18.2820 C   0  0  0  0  0  0
  -28.0667  -12.3123   18.6979 C   0  0  0  0  0  0
  -27.6165  -13.2659   19.8359 C   0  0  2  0  0  0
  -28.6518  -13.3542   20.9780 C   0  0  0  0  0  0
  -25.2380  -13.8265   20.5704 C   0  0  0  0  0  0
  -24.1740  -13.0464   20.9256 C   0  0  0  0  0  0
  -24.6376  -11.6955   20.8764 C   0  0  0  0  0  0
  -23.9075  -10.4320   21.0385 C   0  0  0  0  0  0
  -24.3622   -9.4253   21.9167 C   0  0  0  0  0  0
  -23.6314   -8.2269   22.0712 C   0  0  0  0  0  0
  -22.4301   -8.0293   21.3498 C   0  0  0  0  0  0
  -21.9930   -9.0279   20.4612 C   0  0  0  0  0  0
  -22.7244  -10.2161   20.3039 C   0  0  0  0  0  0
  -21.6861   -6.0755   22.5277 C   0  0  0  0  0  0
  -21.4030   -6.5645   23.8224 C   0  0  0  0  0  0
  -21.3653   -5.6778   24.9169 C   0  0  0  0  0  0
  -21.6066   -4.3048   24.7224 C   0  0  0  0  0  0
  -21.8814   -3.8146   23.4334 C   0  0  0  0  0  0
  -21.9207   -4.6978   22.3397 C   0  0  0  0  0  0
  -22.7765  -13.5206   21.1939 C   0  0  0  0  0  0
  -22.1655   -4.2166   21.0966 F   0  0  0  0  0  0
  -21.5637   -3.4525   25.7722 F   0  0  0  0  0  0
  -29.9105  -13.8112   20.3721 N   0  0  0  0  0  0
  -26.2806  -12.9524   20.3235 N   0  0  0  0  0  0
  -25.9311  -11.6636   20.5767 N   0  0  0  0  0  0
  -22.0411  -12.8161   22.0466 N   0  0  0  0  0  0
  -25.3977  -15.2002   20.4041 N   0  0  0  0  0  0
  -31.6976  -15.1180   20.1519 O   0  0  0  0  0  0
  -21.6662   -6.8888   21.4228 O   0  0  0  0  0  0
  -22.3467  -14.5530   20.6813 O   0  0  0  0  0  0
  -24.6579  -31.8347   23.1872 C   0  0  0  0  0  0
  -25.9299  -32.4633   23.8301 C   0  0  1  0  0  0
  -27.2092  -27.0428   20.1655 C   0  0  0  0  0  0
  -25.6046  -33.8471   24.2219 N   0  0  0  0  0  0
  -23.4672  -30.4533   21.5316 C   0  0  2  0  0  0
  -24.9117  -28.8620   20.1174 C   0  0  0  0  0  0
  -22.7640  -29.4498   22.4823 C   0  0  0  0  0  0
  -18.0337  -28.1353   22.8483 C   0  0  0  0  0  0
  -24.1493  -36.7201   23.2660 C   0  0  0  0  0  0
  -26.0321  -30.6738   21.4060 C   0  0  0  0  0  0
  -26.0955  -29.2798   20.7407 C   0  0  0  0  0  0
  -27.2467  -28.3903   20.7401 C   0  0  0  0  0  0
  -25.9995  -26.7502   19.5011 C   0  0  0  0  0  0
  -24.8812  -27.6123   19.4806 C   0  0  0  0  0  0
  -23.7018  -29.7844   20.1522 C   0  0  0  0  0  0
  -25.4127  -36.3001   24.0337 C   0  0  1  0  0  0
  -20.5959  -28.3734   23.1181 C   0  0  2  0  0  0
  -20.6784  -26.9427   22.5374 C   0  0  0  0  0  0
  -19.5746  -26.6355   21.5187 C   0  0  0  0  0  0
  -18.1942  -26.7912   22.1606 C   0  0  0  0  0  0
  -19.1595  -28.8866   23.2821 C   0  0  0  0  0  0
  -18.9480  -30.1444   23.8880 C   0  0  0  0  0  0
  -17.6470  -30.6562   24.0535 C   0  0  0  0  0  0
  -25.9086  -34.9381   23.5066 C   0  0  0  0  0  0
  -16.5369  -29.9038   23.6319 C   0  0  0  0  0  0
  -16.7314  -28.6432   23.0396 C   0  0  0  0  0  0
  -26.4609  -31.6548   25.0787 C   0  0  0  0  0  0
  -25.3791  -31.3705   26.1472 C   0  0  0  0  0  0
  -27.0563  -30.2964   24.6452 C   0  0  0  0  0  0
  -27.6126  -32.4393   25.7526 C   0  0  0  0  0  0
  -27.5585  -37.1751   24.8486 C   0  0  0  0  0  0
  -21.4323  -29.3055   22.3562 N   0  0  0  0  0  0
  -26.4286  -37.3720   23.9434 N   0  0  0  0  0  0
  -24.7390  -31.0134   22.0937 N   0  0  0  0  0  0
  -23.4230  -28.8064   23.3032 O   0  0  0  0  0  0
  -28.2313  -25.9990   20.1672 O   0  0  0  0  0  0
  -26.5630  -34.8892   22.4622 O   0  0  0  0  0  0
  -23.5680  -32.1273   23.7023 O   0  0  0  0  0  0
  -29.5071  -20.4739   18.6493 C   0  0  0  0  0  0
  -29.6111  -21.7775   18.0402 C   0  0  0  0  0  0
  -29.7285  -19.2558   17.9210 C   0  0  0  0  0  0
  -29.0631  -22.9733   18.6070 C   0  0  0  0  0  0
  -28.5978  -23.0265   19.9446 C   0  0  0  0  0  0
  -28.7000  -21.6746   20.6164 C   0  0  0  0  0  0
  -29.9231  -17.9869   18.5639 C   0  0  0  0  0  0
  -29.1503  -20.3574   20.0163 C   0  0  0  0  0  0
  -29.6880  -17.8086   19.9606 C   0  0  0  0  0  0
  -30.4937  -21.9651   16.8029 C   0  0  0  0  0  0
  -29.5251  -19.2420   16.3989 C   0  0  0  0  0  0
  -28.9537  -24.2294   17.7398 C   0  0  0  0  0  0
  -28.2804  -21.6401   22.0750 C   0  0  0  0  0  0
  -30.3180  -16.7830   17.7017 C   0  0  0  0  0  0
  -27.9284  -24.4760   20.5377 C   0  0  0  0  0  0
  -29.2499  -19.0297   20.5992 N   0  0  0  0  0  0
  -29.6903  -16.3216   20.5066 N   0  0  0  0  0  0
  -31.4691  -12.8580   19.2271 H   0  0  0  0  0  0
  -30.4543  -11.7552   20.0983 H   0  0  0  0  0  0
  -29.8778  -11.7530   17.6371 H   0  0  0  0  0  0
  -29.5924  -13.4732   17.6902 H   0  0  0  0  0  0
  -27.9916  -11.2790   19.0389 H   0  0  0  0  0  0
  -27.3992  -12.3928   17.8381 H   0  0  0  0  0  0
  -27.5586  -14.2567   19.3827 H   0  0  0  0  0  0
  -28.7700  -12.3908   21.4777 H   0  0  0  0  0  0
  -28.3241  -14.0604   21.7433 H   0  0  0  0  0  0
  -25.2733   -9.5779   22.4788 H   0  0  0  0  0  0
  -24.0047   -7.4653   22.7421 H   0  0  0  0  0  0
  -21.0864   -8.8798   19.8914 H   0  0  0  0  0  0
  -22.3660  -10.9721   19.6183 H   0  0  0  0  0  0
  -21.2005   -7.6147   23.9738 H   0  0  0  0  0  0
  -21.1465   -6.0493   25.9077 H   0  0  0  0  0  0
  -22.0592   -2.7615   23.2831 H   0  0  0  0  0  0
  -22.4004  -11.9794   22.4821 H   0  0  0  0  0  0
  -21.1037  -13.1194   22.2680 H   0  0  0  0  0  0
  -24.6187  -15.8425   20.4972 H   0  0  0  0  0  0
  -26.2142  -15.6327   19.9911 H   0  0  0  0  0  0
  -26.7397  -32.5176   23.1045 H   0  0  0  0  0  0
  -25.0370  -33.9594   25.0502 H   0  0  0  0  0  0
  -22.7785  -31.2836   21.3690 H   0  0  0  0  0  0
  -23.3799  -35.9483   23.3270 H   0  0  0  0  0  0
  -24.3602  -36.8881   22.2087 H   0  0  0  0  0  0
  -23.7185  -37.6359   23.6730 H   0  0  0  0  0  0
  -26.2284  -31.4302   20.6457 H   0  0  0  0  0  0
  -26.8872  -30.7029   22.0671 H   0  0  0  0  0  0
  -28.1493  -28.7102   21.2408 H   0  0  0  0  0  0
  -25.8972  -25.8010   18.9964 H   0  0  0  0  0  0
  -23.9812  -27.2865   18.9772 H   0  0  0  0  0  0
  -23.8691  -30.5600   19.4039 H   0  0  0  0  0  0
  -22.8122  -29.2459   19.8224 H   0  0  0  0  0  0
  -25.1306  -36.1827   25.0829 H   0  0  0  0  0  0
  -21.0050  -28.3291   24.1292 H   0  0  0  0  0  0
  -20.5617  -26.2367   23.3601 H   0  0  0  0  0  0
  -21.6643  -26.7354   22.1190 H   0  0  0  0  0  0
  -19.6898  -25.6251   21.1238 H   0  0  0  0  0  0
  -19.6659  -27.3128   20.6674 H   0  0  0  0  0  0
  -17.4215  -26.6733   21.3992 H   0  0  0  0  0  0
  -18.0300  -26.0011   22.8943 H   0  0  0  0  0  0
  -19.7949  -30.7246   24.2272 H   0  0  0  0  0  0
  -17.5008  -31.6236   24.5119 H   0  0  0  0  0  0
  -15.5363  -30.2909   23.7603 H   0  0  0  0  0  0
  -15.8721  -28.0662   22.7197 H   0  0  0  0  0  0
  -24.5998  -30.7033   25.7763 H   0  0  0  0  0  0
  -24.8951  -32.2862   26.4885 H   0  0  0  0  0  0
  -25.8069  -30.8884   27.0271 H   0  0  0  0  0  0
  -26.3247  -29.6601   24.1458 H   0  0  0  0  0  0
  -27.4198  -29.7332   25.5056 H   0  0  0  0  0  0
  -27.9134  -30.4238   23.9835 H   0  0  0  0  0  0
  -27.2737  -33.3783   26.1920 H   0  0  0  0  0  0
  -28.3968  -32.6821   25.0340 H   0  0  0  0  0  0
  -28.0778  -31.8670   26.5562 H   0  0  0  0  0  0
  -28.2549  -38.0096   24.7582 H   0  0  0  0  0  0
  -28.1130  -36.2626   24.6242 H   0  0  0  0  0  0
  -27.2321  -37.1301   25.8893 H   0  0  0  0  0  0
  -20.9589  -29.8813   21.6746 H   0  0  0  0  0  0
  -26.0146  -38.2788   24.1436 H   0  0  0  0  0  0
  -31.2610  -21.1932   16.7451 H   0  0  0  0  0  0
  -31.0503  -22.9016   16.8603 H   0  0  0  0  0  0
  -29.9171  -21.9760   15.8800 H   0  0  0  0  0  0
  -30.4590  -19.2872   15.8407 H   0  0  0  0  0  0
  -28.8731  -20.0515   16.0777 H   0  0  0  0  0  0
  -28.9801  -18.3517   16.0778 H   0  0  0  0  0  0
  -28.9148  -23.9938   16.6768 H   0  0  0  0  0  0
  -29.7941  -24.9020   17.9151 H   0  0  0  0  0  0
  -28.0238  -24.7670   17.9279 H   0  0  0  0  0  0
  -27.2129  -21.8415   22.1746 H   0  0  0  0  0  0
  -28.8302  -22.3910   22.6399 H   0  0  0  0  0  0
  -28.4859  -20.6717   22.5291 H   0  0  0  0  0  0
  -31.2329  -16.3327   18.0743 H   0  0  0  0  0  0
  -30.5683  -17.0137   16.6697 H   0  0  0  0  0  0
  -29.5234  -16.0341   17.6846 H   0  0  0  0  0  0
  -28.1003  -24.4442   21.6112 H   0  0  0  0  0  0
  -26.8498  -24.3415   20.4602 H   0  0  0  0  0  0
  -28.8027  -16.1038   20.9300 H   0  0  0  0  0  0
  1 25  1  0  0  0
  1 30  2  0  0  0
  1 87  1  0  0  0
  2  3  1  0  0  0
  2 25  1  0  0  0
  2 88  1  0  0  0
  2 89  1  0  0  0
  3  4  1  0  0  0
  3 90  1  0  0  0
  3 91  1  0  0  0
  4  5  1  0  0  0
  4 92  1  0  0  0
  4 93  1  0  0  0
  5  6  1  0  0  0
  5 26  1  0  0  0
  5 94  1  0  0  0
  6 25  1  0  0  0
  6 95  1  0  0  0
  6 96  1  0  0  0
  7  8  2  0  0  0
  7 26  1  0  0  0
  7 29  1  0  0  0
  8  9  1  0  0  0
  8 22  1  0  0  0
  9 10  1  0  0  0
  9 27  2  0  0  0
 10 11  2  0  0  0
 10 15  1  0  0  0
 11 12  1  0  0  0
 11 97  1  0  0  0
 12 13  2  0  0  0
 12 98  1  0  0  0
 13 14  1  0  0  0
 13 31  1  0  0  0
 14 15  2  0  0  0
 14 99  1  0  0  0
 15100  1  0  0  0
 16 17  2  0  0  0
 16 21  1  0  0  0
 16 31  1  0  0  0
 17 18  1  0  0  0
 17101  1  0  0  0
 18 19  2  0  0  0
 18102  1  0  0  0
 19 20  1  0  0  0
 19 24  1  0  0  0
 20 21  2  0  0  0
 20103  1  0  0  0
 21 23  1  0  0  0
 22 28  1  0  0  0
 22 32  2  0  0  0
 26 27  1  0  0  0
 28104  1  0  0  0
 28105  1  0  0  0
 29106  1  0  0  0
 29107  1  0  0  0
 33 34  1  0  0  0
 33 66  1  0  0  0
 33 70  2  0  0  0
 34 36  1  0  0  0
 34 59  1  0  0  0
 34108  1  0  0  0
 35 44  2  0  0  0
 35 45  1  0  0  0
 35 68  1  0  0  0
 36 56  1  0  0  0
 36109  1  0  0  0
 37 39  1  0  0  0
 37 47  1  0  0  0
 37 66  1  0  0  0
 37110  1  0  0  0
 38 43  2  0  0  0
 38 46  1  0  0  0
 38 47  1  0  0  0
 39 64  1  0  0  0
 39 67  2  0  0  0
 40 52  1  0  0  0
 40 53  2  0  0  0
 40 58  1  0  0  0
 41111  1  0  0  0
 41112  1  0  0  0
 41113  1  0  0  0
 41 48  1  0  0  0
 42 43  1  0  0  0
 42 66  1  0  0  0
 42114  1  0  0  0
 42115  1  0  0  0
 43 44  1  0  0  0
 44116  1  0  0  0
 45 46  2  0  0  0
 45117  1  0  0  0
 46118  1  0  0  0
 47119  1  0  0  0
 47120  1  0  0  0
 48 56  1  0  0  0
 48 65  1  0  0  0
 48121  1  0  0  0
 49 50  1  0  0  0
 49 53  1  0  0  0
 49 64  1  0  0  0
 49122  1  0  0  0
 50 51  1  0  0  0
 50123  1  0  0  0
 50124  1  0  0  0
 51 52  1  0  0  0
 51125  1  0  0  0
 51126  1  0  0  0
 52127  1  0  0  0
 52128  1  0  0  0
 53 54  1  0  0  0
 54 55  2  0  0  0
 54129  1  0  0  0
 55 57  1  0  0  0
 55130  1  0  0  0
 56 69  2  0  0  0
 57 58  2  0  0  0
 57131  1  0  0  0
 58132  1  0  0  0
 59 60  1  0  0  0
 59 61  1  0  0  0
 59 62  1  0  0  0
 60133  1  0  0  0
 60134  1  0  0  0
 60135  1  0  0  0
 61136  1  0  0  0
 61137  1  0  0  0
 61138  1  0  0  0
 62139  1  0  0  0
 62140  1  0  0  0
 62141  1  0  0  0
 63 65  1  0  0  0
 63142  1  0  0  0
 63143  1  0  0  0
 63144  1  0  0  0
 64145  1  0  0  0
 65146  1  0  0  0
 68 85  1  0  0  0
 71 72  2  0  0  0
 71 73  1  0  0  0
 71 78  1  0  0  0
 72 74  1  0  0  0
 72 80  1  0  0  0
 73 77  2  0  0  0
 73 81  1  0  0  0
 74 75  2  0  0  0
 74 82  1  0  0  0
 75 76  1  0  0  0
 75 85  1  0  0  0
 76 78  2  0  0  0
 76 83  1  0  0  0
 77 79  1  0  0  0
 77 84  1  0  0  0
 78 86  1  0  0  0
 79 86  2  0  0  0
 79 87  1  0  0  0
 80147  1  0  0  0
 80148  1  0  0  0
 80149  1  0  0  0
 81150  1  0  0  0
 81151  1  0  0  0
 81152  1  0  0  0
 82153  1  0  0  0
 82154  1  0  0  0
 82155  1  0  0  0
 83156  1  0  0  0
 83157  1  0  0  0
 83158  1  0  0  0
 84159  1  0  0  0
 84160  1  0  0  0
 84161  1  0  0  0
 85162  1  0  0  0
 85163  1  0  0  0
 87164  1  0  0  0
M  ISO  4   1 100  68 101  85 101  87 100
M  END
> <chiral flag>
0

> <version>
0

> <s_m_source_file>
/data/baiqing/PycharmProjects/Reinvent-master-3.2/result/LINK_invent/BTK/process_docking_weight1_custom_sum_contain_oxygen_bond_distance_aromatic_linkinvent_7_9_3/rearranged_h_0165.sdf

> <i_m_source_file_index>
46

> <r_mmod_Potential_Energy-OPLS-2005>
780.684326171875

> <r_mmod_Stretch_Energy-OPLS-2005>
372.841979980469

> <r_mmod_Bend_Energy-OPLS-2005>
294.878112792969

> <r_mmod_Torsional_Energy-OPLS-2005>
312.851989746094

> <r_mmod_Improper_Torsional_Energy-OPLS-2005>
6.89290809631348

> <r_mmod_Van_der_Waal_Energy-OPLS-2005>
179.61540222168

> <r_mmod_Electrostatic_Energy-OPLS-2005>
-472.037414550781

> <r_mmod_Solvation_Energy-OPLS-2005>
-214.783157348633

> <b_mmod_Minimization_Converged-OPLS-2005>
0

> <r_mmod_RMS_Derivative-OPLS-2005>
4.32961940765381

$$$$
46
                    3D
 Structure written by MMmdl.
168177  0  0  1  0            999 V2000
  -30.6252  -14.7900   20.4527 C   0  0  0  0  0  0
  -30.4146  -12.4867   19.4832 C   0  0  0  0  0  0
  -29.5013  -12.5153   18.2392 C   0  0  0  0  0  0
  -28.0306  -12.3306   18.6554 C   0  0  0  0  0  0
  -27.6316  -13.2409   19.8471 C   0  0  2  0  0  0
  -28.6745  -13.2194   20.9842 C   0  0  0  0  0  0
  -25.2474  -13.8208   20.5709 C   0  0  0  0  0  0
  -24.1779  -13.0443   20.9215 C   0  0  0  0  0  0
  -24.6378  -11.6924   20.8753 C   0  0  0  0  0  0
  -23.9067  -10.4293   21.0411 C   0  0  0  0  0  0
  -24.3622   -9.4216   21.9190 C   0  0  0  0  0  0
  -23.6310   -8.2244   22.0753 C   0  0  0  0  0  0
  -22.4293   -8.0278   21.3543 C   0  0  0  0  0  0
  -21.9921   -9.0245   20.4643 C   0  0  0  0  0  0
  -22.7239  -10.2130   20.3060 C   0  0  0  0  0  0
  -21.6851   -6.0745   22.5283 C   0  0  0  0  0  0
  -21.4005   -6.5649   23.8214 C   0  0  0  0  0  0
  -21.3659   -5.6804   24.9179 C   0  0  0  0  0  0
  -21.6044   -4.3067   24.7225 C   0  0  0  0  0  0
  -21.8823   -3.8156   23.4344 C   0  0  0  0  0  0
  -21.9191   -4.6970   22.3400 C   0  0  0  0  0  0
  -22.7806  -13.5225   21.1875 C   0  0  0  0  0  0
  -22.1671   -4.2156   21.0978 F   0  0  0  0  0  0
  -21.5633   -3.4544   25.7737 F   0  0  0  0  0  0
  -29.9615  -13.5794   20.3826 N   0  0  0  0  0  0
  -26.2891  -12.9428   20.3287 N   0  0  0  0  0  0
  -25.9307  -11.6564   20.5756 N   0  0  0  0  0  0
  -22.0453  -12.8208   22.0423 N   0  0  0  0  0  0
  -25.4176  -15.1927   20.4142 N   0  0  0  0  0  0
  -31.8294  -14.7965   20.1717 O   0  0  0  0  0  0
  -21.6644   -6.8884   21.4246 O   0  0  0  0  0  0
  -22.3485  -14.5530   20.6722 O   0  0  0  0  0  0
  -24.6365  -31.8525   23.1967 C   0  0  0  0  0  0
  -25.9183  -32.4732   23.8313 C   0  0  1  0  0  0
  -27.2081  -27.2273   20.1263 C   0  0  0  0  0  0
  -25.5978  -33.8528   24.2235 N   0  0  0  0  0  0
  -23.4319  -30.4766   21.5408 C   0  0  2  0  0  0
  -24.8753  -28.9195   20.1074 C   0  0  0  0  0  0
  -22.7522  -29.4601   22.4908 C   0  0  0  0  0  0
  -18.0296  -28.1389   22.8491 C   0  0  0  0  0  0
  -24.1497  -36.7252   23.2640 C   0  0  0  0  0  0
  -25.9815  -30.7553   21.3804 C   0  0  0  0  0  0
  -26.0487  -29.3753   20.7192 C   0  0  0  0  0  0
  -27.2149  -28.5398   20.7214 C   0  0  0  0  0  0
  -26.0066  -26.8429   19.4960 C   0  0  0  0  0  0
  -24.8603  -27.6616   19.4862 C   0  0  0  0  0  0
  -23.6488  -29.8105   20.1562 C   0  0  0  0  0  0
  -25.4126  -36.3041   24.0325 C   0  0  1  0  0  0
  -20.5913  -28.3703   23.1266 C   0  0  2  0  0  0
  -20.6793  -26.9417   22.5408 C   0  0  0  0  0  0
  -19.5763  -26.6382   21.5220 C   0  0  0  0  0  0
  -18.1940  -26.7934   22.1621 C   0  0  0  0  0  0
  -19.1554  -28.8866   23.2872 C   0  0  0  0  0  0
  -18.9462  -30.1471   23.8884 C   0  0  0  0  0  0
  -17.6458  -30.6587   24.0558 C   0  0  0  0  0  0
  -25.9078  -34.9422   23.5075 C   0  0  0  0  0  0
  -16.5349  -29.9078   23.6342 C   0  0  0  0  0  0
  -16.7282  -28.6498   23.0363 C   0  0  0  0  0  0
  -26.4537  -31.6575   25.0722 C   0  0  0  0  0  0
  -25.3738  -31.3733   26.1423 C   0  0  0  0  0  0
  -27.0382  -30.2982   24.6240 C   0  0  0  0  0  0
  -27.6084  -32.4325   25.7497 C   0  0  0  0  0  0
  -27.5572  -37.1789   24.8465 C   0  0  0  0  0  0
  -21.4230  -29.3045   22.3654 N   0  0  0  0  0  0
  -26.4281  -37.3756   23.9415 N   0  0  0  0  0  0
  -24.7026  -31.0476   22.0944 N   0  0  0  0  0  0
  -23.4220  -28.8149   23.3017 O   0  0  0  0  0  0
  -28.2862  -26.3083   20.2315 O   0  0  0  0  0  0
  -26.5629  -34.8904   22.4635 O   0  0  0  0  0  0
  -23.5509  -32.1356   23.7255 O   0  0  0  0  0  0
  -29.6794  -21.5233   20.8567 C   0  0  0  0  0  0
  -29.4896  -22.9445   20.6698 C   0  0  0  0  0  0
  -27.5003  -22.4946   19.4115 C   0  0  0  0  0  0
  -28.4099  -23.5031   19.9075 C   0  0  0  0  0  0
  -27.6981  -21.0673   19.6171 C   0  0  0  0  0  0
  -28.8323  -20.5194   20.3007 C   0  0  0  0  0  0
  -29.4706  -18.3123   19.1761 C   0  0  0  0  0  0
  -30.4235  -17.0745   19.4335 C   0  0  0  0  0  0
  -29.0834  -16.6592   21.4099 C   0  0  0  0  0  0
  -29.2155  -18.2548   21.6183 C   0  0  2  0  0  0
  -30.5322  -23.8780   21.2575 C   0  0  0  0  0  0
  -26.2736  -22.9062   18.5957 C   0  0  0  0  0  0
  -26.6560  -20.0845   19.0802 C   0  0  0  0  0  0
  -28.2133  -18.7297   22.6818 C   0  0  0  0  0  0
  -28.4021  -25.0539   19.3978 C   0  0  0  0  0  0
  -29.1057  -19.0766   20.3833 N   0  0  0  0  0  0
  -29.9211  -16.0065   20.3536 N   0  0  0  0  0  0
  -31.4578  -12.5928   19.1830 H   0  0  0  0  0  0
  -30.3507  -11.5213   19.9871 H   0  0  0  0  0  0
  -29.7940  -11.7375   17.5321 H   0  0  0  0  0  0
  -29.6170  -13.4663   17.7171 H   0  0  0  0  0  0
  -27.8960  -11.2834   18.9265 H   0  0  0  0  0  0
  -27.3689  -12.5102   17.8061 H   0  0  0  0  0  0
  -27.6142  -14.2561   19.4502 H   0  0  0  0  0  0
  -28.7247  -12.2379   21.4588 H   0  0  0  0  0  0
  -28.3991  -13.9269   21.7677 H   0  0  0  0  0  0
  -25.2744   -9.5709   22.4794 H   0  0  0  0  0  0
  -24.0013   -7.4638   22.7479 H   0  0  0  0  0  0
  -21.0853   -8.8770   19.8945 H   0  0  0  0  0  0
  -22.3689  -10.9686   19.6195 H   0  0  0  0  0  0
  -21.1997   -7.6157   23.9722 H   0  0  0  0  0  0
  -21.1480   -6.0528   25.9086 H   0  0  0  0  0  0
  -22.0602   -2.7620   23.2827 H   0  0  0  0  0  0
  -22.4064  -11.9830   22.4743 H   0  0  0  0  0  0
  -21.1087  -13.1249   22.2683 H   0  0  0  0  0  0
  -24.6548  -15.8493   20.5354 H   0  0  0  0  0  0
  -26.2745  -15.6309   20.1023 H   0  0  0  0  0  0
  -26.7246  -32.5353   23.1040 H   0  0  0  0  0  0
  -25.0199  -33.9661   25.0432 H   0  0  0  0  0  0
  -22.7294  -31.3000   21.3953 H   0  0  0  0  0  0
  -23.3771  -35.9570   23.3292 H   0  0  0  0  0  0
  -24.3588  -36.8878   22.2054 H   0  0  0  0  0  0
  -23.7239  -37.6445   23.6671 H   0  0  0  0  0  0
  -26.1294  -31.5170   20.6134 H   0  0  0  0  0  0
  -26.8555  -30.7979   22.0183 H   0  0  0  0  0  0
  -28.1096  -28.8810   21.2235 H   0  0  0  0  0  0
  -25.9016  -25.8674   19.0546 H   0  0  0  0  0  0
  -23.9557  -27.3018   19.0159 H   0  0  0  0  0  0
  -23.7741  -30.5868   19.4009 H   0  0  0  0  0  0
  -22.7656  -29.2458   19.8526 H   0  0  0  0  0  0
  -25.1317  -36.1863   25.0817 H   0  0  0  0  0  0
  -21.0007  -28.3266   24.1386 H   0  0  0  0  0  0
  -20.5712  -26.2303   23.3615 H   0  0  0  0  0  0
  -21.6654  -26.7451   22.1183 H   0  0  0  0  0  0
  -19.6929  -25.6291   21.1254 H   0  0  0  0  0  0
  -19.6704  -27.3189   20.6752 H   0  0  0  0  0  0
  -17.4226  -26.6705   21.4004 H   0  0  0  0  0  0
  -18.0308  -26.0056   22.8991 H   0  0  0  0  0  0
  -19.7936  -30.7290   24.2236 H   0  0  0  0  0  0
  -17.5007  -31.6263   24.5156 H   0  0  0  0  0  0
  -15.5346  -30.2958   23.7691 H   0  0  0  0  0  0
  -15.8683  -28.0804   22.7090 H   0  0  0  0  0  0
  -24.5952  -30.7038   25.7751 H   0  0  0  0  0  0
  -24.8884  -32.2892   26.4794 H   0  0  0  0  0  0
  -25.8040  -30.8958   27.0231 H   0  0  0  0  0  0
  -26.2971  -29.6718   24.1257 H   0  0  0  0  0  0
  -27.4037  -29.7264   25.4782 H   0  0  0  0  0  0
  -27.8868  -30.4241   23.9509 H   0  0  0  0  0  0
  -27.2705  -33.3654   26.2016 H   0  0  0  0  0  0
  -28.3927  -32.6828   25.0344 H   0  0  0  0  0  0
  -28.0713  -31.8476   26.5451 H   0  0  0  0  0  0
  -28.2595  -38.0082   24.7506 H   0  0  0  0  0  0
  -28.1058  -36.2612   24.6295 H   0  0  0  0  0  0
  -27.2284  -37.1435   25.8865 H   0  0  0  0  0  0
  -20.9433  -29.8732   21.6821 H   0  0  0  0  0  0
  -26.0145  -38.2823   24.1405 H   0  0  0  0  0  0
  -30.5462  -21.1913   21.4099 H   0  0  0  0  0  0
  -28.5570  -17.9666   18.6909 H   0  0  0  0  0  0
  -29.9485  -18.9885   18.4658 H   0  0  0  0  0  0
  -31.3843  -17.4348   19.8073 H   0  0  0  0  0  0
  -30.6369  -16.6117   18.4681 H   0  0  0  0  0  0
  -28.0450  -16.4170   21.1798 H   0  0  0  0  0  0
  -29.2925  -16.1688   22.3623 H   0  0  0  0  0  0
  -30.2147  -18.4409   22.0157 H   0  0  0  0  0  0
  -31.0818  -23.3965   22.0670 H   0  0  0  0  0  0
  -30.0666  -24.7759   21.6667 H   0  0  0  0  0  0
  -31.2475  -24.1770   20.4907 H   0  0  0  0  0  0
  -26.2755  -23.9217   18.2266 H   0  0  0  0  0  0
  -25.3699  -22.7884   19.1951 H   0  0  0  0  0  0
  -26.1734  -22.2825   17.7067 H   0  0  0  0  0  0
  -25.6396  -20.4624   19.1813 H   0  0  0  0  0  0
  -26.6606  -19.1405   19.6241 H   0  0  0  0  0  0
  -26.8454  -19.8689   18.0287 H   0  0  0  0  0  0
  -27.1864  -18.6595   22.3180 H   0  0  0  0  0  0
  -28.3927  -19.7643   22.9767 H   0  0  0  0  0  0
  -28.2798  -18.1233   23.5855 H   0  0  0  0  0  0
  -27.8561  -25.1752   18.4688 H   0  0  0  0  0  0
  -29.4173  -25.1573   19.0163 H   0  0  0  0  0  0
  1 25  1  0  0  0
  1 30  2  0  0  0
  1 87  1  0  0  0
  2  3  1  0  0  0
  2 25  1  0  0  0
  2 88  1  0  0  0
  2 89  1  0  0  0
  3  4  1  0  0  0
  3 90  1  0  0  0
  3 91  1  0  0  0
  4  5  1  0  0  0
  4 92  1  0  0  0
  4 93  1  0  0  0
  5  6  1  0  0  0
  5 26  1  0  0  0
  5 94  1  0  0  0
  6 25  1  0  0  0
  6 95  1  0  0  0
  6 96  1  0  0  0
  7  8  2  0  0  0
  7 26  1  0  0  0
  7 29  1  0  0  0
  8  9  1  0  0  0
  8 22  1  0  0  0
  9 10  1  0  0  0
  9 27  2  0  0  0
 10 11  2  0  0  0
 10 15  1  0  0  0
 11 12  1  0  0  0
 11 97  1  0  0  0
 12 13  2  0  0  0
 12 98  1  0  0  0
 13 14  1  0  0  0
 13 31  1  0  0  0
 14 15  2  0  0  0
 14 99  1  0  0  0
 15100  1  0  0  0
 16 17  2  0  0  0
 16 21  1  0  0  0
 16 31  1  0  0  0
 17 18  1  0  0  0
 17101  1  0  0  0
 18 19  2  0  0  0
 18102  1  0  0  0
 19 20  1  0  0  0
 19 24  1  0  0  0
 20 21  2  0  0  0
 20103  1  0  0  0
 21 23  1  0  0  0
 22 28  1  0  0  0
 22 32  2  0  0  0
 26 27  1  0  0  0
 28104  1  0  0  0
 28105  1  0  0  0
 29106  1  0  0  0
 29107  1  0  0  0
 33 34  1  0  0  0
 33 66  1  0  0  0
 33 70  2  0  0  0
 34 36  1  0  0  0
 34 59  1  0  0  0
 34108  1  0  0  0
 35 44  2  0  0  0
 35 45  1  0  0  0
 35 68  1  0  0  0
 36 56  1  0  0  0
 36109  1  0  0  0
 37 39  1  0  0  0
 37 47  1  0  0  0
 37 66  1  0  0  0
 37110  1  0  0  0
 38 43  2  0  0  0
 38 46  1  0  0  0
 38 47  1  0  0  0
 39 64  1  0  0  0
 39 67  2  0  0  0
 40 52  1  0  0  0
 40 53  2  0  0  0
 40 58  1  0  0  0
 41111  1  0  0  0
 41112  1  0  0  0
 41113  1  0  0  0
 41 48  1  0  0  0
 42 43  1  0  0  0
 42 66  1  0  0  0
 42114  1  0  0  0
 42115  1  0  0  0
 43 44  1  0  0  0
 44116  1  0  0  0
 45 46  2  0  0  0
 45117  1  0  0  0
 46118  1  0  0  0
 47119  1  0  0  0
 47120  1  0  0  0
 48 56  1  0  0  0
 48 65  1  0  0  0
 48121  1  0  0  0
 49 50  1  0  0  0
 49 53  1  0  0  0
 49 64  1  0  0  0
 49122  1  0  0  0
 50 51  1  0  0  0
 50123  1  0  0  0
 50124  1  0  0  0
 51 52  1  0  0  0
 51125  1  0  0  0
 51126  1  0  0  0
 52127  1  0  0  0
 52128  1  0  0  0
 53 54  1  0  0  0
 54 55  2  0  0  0
 54129  1  0  0  0
 55 57  1  0  0  0
 55130  1  0  0  0
 56 69  2  0  0  0
 57 58  2  0  0  0
 57131  1  0  0  0
 58132  1  0  0  0
 59 60  1  0  0  0
 59 61  1  0  0  0
 59 62  1  0  0  0
 60133  1  0  0  0
 60134  1  0  0  0
 60135  1  0  0  0
 61136  1  0  0  0
 61137  1  0  0  0
 61138  1  0  0  0
 62139  1  0  0  0
 62140  1  0  0  0
 62141  1  0  0  0
 63 65  1  0  0  0
 63142  1  0  0  0
 63143  1  0  0  0
 63144  1  0  0  0
 64145  1  0  0  0
 65146  1  0  0  0
 68 85  1  0  0  0
 71 72  2  0  0  0
 71 76  1  0  0  0
 71147  1  0  0  0
 72 74  1  0  0  0
 72 81  1  0  0  0
 73 74  2  0  0  0
 73 75  1  0  0  0
 73 82  1  0  0  0
 74 85  1  0  0  0
 75 76  2  0  0  0
 75 83  1  0  0  0
 76 86  1  0  0  0
 77 78  1  0  0  0
 77 86  1  0  0  0
 77148  1  0  0  0
 77149  1  0  0  0
 78 87  1  0  0  0
 78150  1  0  0  0
 78151  1  0  0  0
 79 80  1  0  0  0
 79 87  1  0  0  0
 79152  1  0  0  0
 79153  1  0  0  0
 80 84  1  0  0  0
 80 86  1  0  0  0
 80154  1  0  0  0
 81155  1  0  0  0
 81156  1  0  0  0
 81157  1  0  0  0
 82158  1  0  0  0
 82159  1  0  0  0
 82160  1  0  0  0
 83161  1  0  0  0
 83162  1  0  0  0
 83163  1  0  0  0
 84164  1  0  0  0
 84165  1  0  0  0
 84166  1  0  0  0
 85167  1  0  0  0
 85168  1  0  0  0
M  ISO  4   1 100  68 101  85 101  87 100
M  END
> <chiral flag>
0

> <version>
0

> <s_m_source_file>
/data/baiqing/PycharmProjects/Reinvent-master-3.2/result/LINK_invent/BTK/process_docking_weight1_custom_sum_contain_oxygen_bond_distance_aromatic_linkinvent_7_9_3/rearranged_h_0165.sdf

> <i_m_source_file_index>
47

> <r_mmod_Potential_Energy-OPLS-2005>
472.785339355469

> <r_mmod_Stretch_Energy-OPLS-2005>
146.546325683594

> <r_mmod_Bend_Energy-OPLS-2005>
226.253799438477

> <r_mmod_Torsional_Energy-OPLS-2005>
384.068450927734

> <r_mmod_Improper_Torsional_Energy-OPLS-2005>
19.0819301605225

> <r_mmod_Van_der_Waal_Energy-OPLS-2005>
153.014373779297

> <r_mmod_Electrostatic_Energy-OPLS-2005>
-367.735992431641

> <r_mmod_Solvation_Energy-OPLS-2005>
-198.37646484375

> <b_mmod_Minimization_Converged-OPLS-2005>
0

> <r_mmod_RMS_Derivative-OPLS-2005>
2.03557205200195

$$$$
47
                    3D
 Structure written by MMmdl.
175185  0  0  1  0            999 V2000
  -30.6090  -14.6117   20.5562 C   0  0  0  0  0  0
  -30.4415  -12.4011   19.4141 C   0  0  0  0  0  0
  -29.4905  -12.5442   18.2017 C   0  0  0  0  0  0
  -28.0142  -12.3710   18.6207 C   0  0  0  0  0  0
  -27.6617  -13.1962   19.8857 C   0  0  2  0  0  0
  -28.7178  -12.9298   20.9823 C   0  0  0  0  0  0
  -25.2606  -13.8130   20.5662 C   0  0  0  0  0  0
  -24.1848  -13.0431   20.9170 C   0  0  0  0  0  0
  -24.6390  -11.6899   20.8777 C   0  0  0  0  0  0
  -23.9035  -10.4299   21.0436 C   0  0  0  0  0  0
  -24.3602   -9.4213   21.9198 C   0  0  0  0  0  0
  -23.6280   -8.2239   22.0766 C   0  0  0  0  0  0
  -22.4267   -8.0290   21.3533 C   0  0  0  0  0  0
  -21.9893   -9.0266   20.4646 C   0  0  0  0  0  0
  -22.7222  -10.2153   20.3057 C   0  0  0  0  0  0
  -21.6830   -6.0730   22.5281 C   0  0  0  0  0  0
  -21.4007   -6.5644   23.8222 C   0  0  0  0  0  0
  -21.3657   -5.6803   24.9184 C   0  0  0  0  0  0
  -21.6039   -4.3066   24.7255 C   0  0  0  0  0  0
  -21.8807   -3.8147   23.4376 C   0  0  0  0  0  0
  -21.9197   -4.6962   22.3435 C   0  0  0  0  0  0
  -22.7864  -13.5232   21.1838 C   0  0  0  0  0  0
  -22.1641   -4.2140   21.1001 F   0  0  0  0  0  0
  -21.5640   -3.4546   25.7766 F   0  0  0  0  0  0
  -30.0131  -13.3756   20.4433 N   0  0  0  0  0  0
  -26.3034  -12.9263   20.3443 N   0  0  0  0  0  0
  -25.9324  -11.6446   20.5876 N   0  0  0  0  0  0
  -22.0522  -12.8254   22.0427 N   0  0  0  0  0  0
  -25.4405  -15.1834   20.4036 N   0  0  0  0  0  0
  -31.7293  -14.7816   20.0586 O   0  0  0  0  0  0
  -21.6627   -6.8872   21.4240 O   0  0  0  0  0  0
  -22.3512  -14.5517   20.6682 O   0  0  0  0  0  0
  -24.6242  -31.8602   23.2010 C   0  0  0  0  0  0
  -25.9079  -32.4787   23.8353 C   0  0  1  0  0  0
  -27.2353  -27.3455   20.1234 C   0  0  0  0  0  0
  -25.5899  -33.8582   24.2292 N   0  0  0  0  0  0
  -23.4179  -30.4799   21.5441 C   0  0  2  0  0  0
  -24.8669  -28.9275   20.1201 C   0  0  0  0  0  0
  -22.7470  -29.4618   22.4962 C   0  0  0  0  0  0
  -18.0282  -28.1385   22.8485 C   0  0  0  0  0  0
  -24.1488  -36.7313   23.2641 C   0  0  0  0  0  0
  -25.9531  -30.8010   21.3636 C   0  0  0  0  0  0
  -26.0321  -29.4245   20.7190 C   0  0  0  0  0  0
  -27.2225  -28.6444   20.7086 C   0  0  0  0  0  0
  -26.0507  -26.8835   19.5153 C   0  0  0  0  0  0
  -24.8751  -27.6608   19.5122 C   0  0  0  0  0  0
  -23.6333  -29.8060   20.1630 C   0  0  0  0  0  0
  -25.4107  -36.3097   24.0340 C   0  0  1  0  0  0
  -20.5879  -28.3684   23.1296 C   0  0  2  0  0  0
  -20.6767  -26.9410   22.5417 C   0  0  0  0  0  0
  -19.5750  -26.6383   21.5215 C   0  0  0  0  0  0
  -18.1929  -26.7926   22.1627 C   0  0  0  0  0  0
  -19.1532  -28.8854   23.2885 C   0  0  0  0  0  0
  -18.9456  -30.1452   23.8898 C   0  0  0  0  0  0
  -17.6455  -30.6590   24.0563 C   0  0  0  0  0  0
  -25.9036  -34.9460   23.5115 C   0  0  0  0  0  0
  -16.5346  -29.9086   23.6327 C   0  0  0  0  0  0
  -16.7268  -28.6509   23.0346 C   0  0  0  0  0  0
  -26.4478  -31.6576   25.0701 C   0  0  0  0  0  0
  -25.3740  -31.3697   26.1455 C   0  0  0  0  0  0
  -27.0294  -30.3011   24.6090 C   0  0  0  0  0  0
  -27.6066  -32.4286   25.7449 C   0  0  0  0  0  0
  -27.5578  -37.1807   24.8474 C   0  0  0  0  0  0
  -21.4180  -29.3037   22.3697 N   0  0  0  0  0  0
  -26.4300  -37.3778   23.9405 N   0  0  0  0  0  0
  -24.6842  -31.0640   22.0954 N   0  0  0  0  0  0
  -23.4193  -28.8172   23.3043 O   0  0  0  0  0  0
  -28.3717  -26.5374   20.0812 O   0  0  0  0  0  0
  -26.5612  -34.8923   22.4691 O   0  0  0  0  0  0
  -23.5404  -32.1380   23.7360 O   0  0  0  0  0  0
  -31.0623  -19.5222   20.6317 C   0  0  0  0  0  0
  -32.3486  -20.1239   20.8088 C   0  0  0  0  0  0
  -33.4389  -19.3505   21.2835 C   0  0  0  0  0  0
  -31.0003  -18.0891   20.8594 C   0  0  0  0  0  0
  -33.2348  -17.9842   21.5314 C   0  0  0  0  0  0
  -28.6822  -17.2740   21.6714 C   0  0  0  0  0  0
  -28.5766  -20.6174   20.8161 C   0  0  0  0  0  0
  -28.9137  -15.8305   22.0742 C   0  0  0  0  0  0
  -29.9168  -20.4471   20.1251 C   0  0  1  0  0  0
  -29.7735  -17.1720   20.6149 C   0  0  2  0  0  0
  -29.5217  -21.7994   20.8198 C   0  0  1  0  0  0
  -32.6070  -21.5879   20.4537 C   0  0  0  0  0  0
  -34.8325  -19.9408   21.4991 C   0  0  0  0  0  0
  -34.3610  -17.0599   21.9613 C   0  0  0  0  0  0
  -29.7871  -25.3584   21.6601 C   0  0  0  0  0  0
  -28.0352  -23.9137   20.4027 C   0  0  0  0  0  0
  -28.4245  -25.3556   20.9548 C   0  0  2  0  0  0
  -32.0489  -17.3971   21.3469 N   0  0  0  0  0  0
  -29.8110  -15.6815   20.9193 N   0  0  0  0  0  0
  -29.1222  -22.9668   19.9347 N   0  3  0  0  0  0
  -31.4746  -12.5561   19.0963 H   0  0  0  0  0  0
  -30.4126  -11.3829   19.8060 H   0  0  0  0  0  0
  -29.7516  -11.8176   17.4306 H   0  0  0  0  0  0
  -29.6152  -13.5280   17.7459 H   0  0  0  0  0  0
  -27.8468  -11.3118   18.8179 H   0  0  0  0  0  0
  -27.3495  -12.6340   17.7971 H   0  0  0  0  0  0
  -27.7151  -14.2495   19.6103 H   0  0  0  0  0  0
  -28.7549  -11.8606   21.2014 H   0  0  0  0  0  0
  -28.4828  -13.3470   21.9533 H   0  0  0  0  0  0
  -25.2758   -9.5661   22.4765 H   0  0  0  0  0  0
  -23.9997   -7.4628   22.7486 H   0  0  0  0  0  0
  -21.0808   -8.8793   19.8974 H   0  0  0  0  0  0
  -22.3691  -10.9695   19.6171 H   0  0  0  0  0  0
  -21.2005   -7.6162   23.9692 H   0  0  0  0  0  0
  -21.1445   -6.0563   25.9066 H   0  0  0  0  0  0
  -22.0593   -2.7616   23.2903 H   0  0  0  0  0  0
  -22.4145  -11.9904   22.4777 H   0  0  0  0  0  0
  -21.1141  -13.1292   22.2642 H   0  0  0  0  0  0
  -24.6872  -15.8541   20.5065 H   0  0  0  0  0  0
  -26.3095  -15.5998   20.0957 H   0  0  0  0  0  0
  -26.7148  -32.5473   23.1109 H   0  0  0  0  0  0
  -25.0032  -33.9733   25.0425 H   0  0  0  0  0  0
  -22.7110  -31.2988   21.3971 H   0  0  0  0  0  0
  -23.3733  -35.9667   23.3340 H   0  0  0  0  0  0
  -24.3574  -36.8890   22.2048 H   0  0  0  0  0  0
  -23.7267  -37.6543   23.6626 H   0  0  0  0  0  0
  -26.0662  -31.5566   20.5852 H   0  0  0  0  0  0
  -26.8408  -30.8660   21.9803 H   0  0  0  0  0  0
  -28.1261  -29.0294   21.1606 H   0  0  0  0  0  0
  -26.0338  -25.9168   19.0340 H   0  0  0  0  0  0
  -23.9812  -27.2748   19.0416 H   0  0  0  0  0  0
  -23.7521  -30.5773   19.4016 H   0  0  0  0  0  0
  -22.7548  -29.2312   19.8646 H   0  0  0  0  0  0
  -25.1287  -36.1962   25.0835 H   0  0  0  0  0  0
  -20.9961  -28.3251   24.1419 H   0  0  0  0  0  0
  -20.5660  -26.2296   23.3616 H   0  0  0  0  0  0
  -21.6638  -26.7436   22.1214 H   0  0  0  0  0  0
  -19.6910  -25.6294   21.1245 H   0  0  0  0  0  0
  -19.6687  -27.3194   20.6748 H   0  0  0  0  0  0
  -17.4196  -26.6663   21.4033 H   0  0  0  0  0  0
  -18.0337  -26.0070   22.9030 H   0  0  0  0  0  0
  -19.7934  -30.7267   24.2264 H   0  0  0  0  0  0
  -17.5013  -31.6268   24.5169 H   0  0  0  0  0  0
  -15.5346  -30.2990   23.7650 H   0  0  0  0  0  0
  -15.8670  -28.0825   22.7053 H   0  0  0  0  0  0
  -24.5924  -30.7021   25.7805 H   0  0  0  0  0  0
  -24.8916  -32.2851   26.4894 H   0  0  0  0  0  0
  -25.8103  -30.8886   27.0220 H   0  0  0  0  0  0
  -26.2825  -29.6775   24.1164 H   0  0  0  0  0  0
  -27.4075  -29.7245   25.4542 H   0  0  0  0  0  0
  -27.8663  -30.4317   23.9227 H   0  0  0  0  0  0
  -27.2708  -33.3589   26.2042 H   0  0  0  0  0  0
  -28.3860  -32.6834   25.0255 H   0  0  0  0  0  0
  -28.0749  -31.8394   26.5344 H   0  0  0  0  0  0
  -28.2630  -38.0069   24.7482 H   0  0  0  0  0  0
  -28.1039  -36.2603   24.6347 H   0  0  0  0  0  0
  -27.2298  -37.1527   25.8881 H   0  0  0  0  0  0
  -20.9364  -29.8752   21.6902 H   0  0  0  0  0  0
  -26.0196  -38.2864   24.1383 H   0  0  0  0  0  0
  -28.9034  -17.9687   22.4826 H   0  0  0  0  0  0
  -27.6929  -17.4617   21.2511 H   0  0  0  0  0  0
  -28.4197  -20.1282   21.7746 H   0  0  0  0  0  0
  -27.6888  -20.6929   20.1900 H   0  0  0  0  0  0
  -27.9607  -15.3067   22.0331 H   0  0  0  0  0  0
  -29.4104  -15.7191   23.0405 H   0  0  0  0  0  0
  -29.8954  -20.4112   19.0376 H   0  0  0  0  0  0
  -29.3700  -17.3677   19.6199 H   0  0  0  0  0  0
  -29.9815  -22.0822   21.7657 H   0  0  0  0  0  0
  -31.8870  -22.0088   19.7591 H   0  0  0  0  0  0
  -33.5615  -21.6984   19.9399 H   0  0  0  0  0  0
  -32.6256  -22.1987   21.3571 H   0  0  0  0  0  0
  -34.8406  -21.0241   21.6033 H   0  0  0  0  0  0
  -35.4865  -19.6737   20.6675 H   0  0  0  0  0  0
  -35.2827  -19.5545   22.4130 H   0  0  0  0  0  0
  -35.1713  -17.0984   21.2335 H   0  0  0  0  0  0
  -34.0333  -16.0230   22.0309 H   0  0  0  0  0  0
  -34.7547  -17.3512   22.9349 H   0  0  0  0  0  0
  -29.8421  -24.5649   22.4054 H   0  0  0  0  0  0
  -29.9510  -26.3046   22.1758 H   0  0  0  0  0  0
  -30.6061  -25.2216   20.9538 H   0  0  0  0  0  0
  -27.3251  -24.0305   19.5855 H   0  0  0  0  0  0
  -27.4791  -23.3908   21.1841 H   0  0  0  0  0  0
  -27.6942  -25.5543   21.7423 H   0  0  0  0  0  0
  -28.8187  -22.5887   19.0519 H   0  0  0  0  0  0
  -29.9424  -23.5137   19.7232 H   0  0  0  0  0  0
  1 25  1  0  0  0
  1 30  2  0  0  0
  1 89  1  0  0  0
  2  3  1  0  0  0
  2 25  1  0  0  0
  2 91  1  0  0  0
  2 92  1  0  0  0
  3  4  1  0  0  0
  3 93  1  0  0  0
  3 94  1  0  0  0
  4  5  1  0  0  0
  4 95  1  0  0  0
  4 96  1  0  0  0
  5  6  1  0  0  0
  5 26  1  0  0  0
  5 97  1  0  0  0
  6 25  1  0  0  0
  6 98  1  0  0  0
  6 99  1  0  0  0
  7  8  2  0  0  0
  7 26  1  0  0  0
  7 29  1  0  0  0
  8  9  1  0  0  0
  8 22  1  0  0  0
  9 10  1  0  0  0
  9 27  2  0  0  0
 10 11  2  0  0  0
 10 15  1  0  0  0
 11 12  1  0  0  0
 11100  1  0  0  0
 12 13  2  0  0  0
 12101  1  0  0  0
 13 14  1  0  0  0
 13 31  1  0  0  0
 14 15  2  0  0  0
 14102  1  0  0  0
 15103  1  0  0  0
 16 17  2  0  0  0
 16 21  1  0  0  0
 16 31  1  0  0  0
 17 18  1  0  0  0
 17104  1  0  0  0
 18 19  2  0  0  0
 18105  1  0  0  0
 19 20  1  0  0  0
 19 24  1  0  0  0
 20 21  2  0  0  0
 20106  1  0  0  0
 21 23  1  0  0  0
 22 28  1  0  0  0
 22 32  2  0  0  0
 26 27  1  0  0  0
 28107  1  0  0  0
 28108  1  0  0  0
 29109  1  0  0  0
 29110  1  0  0  0
 33 34  1  0  0  0
 33 66  1  0  0  0
 33 70  2  0  0  0
 34 36  1  0  0  0
 34 59  1  0  0  0
 34111  1  0  0  0
 35 44  2  0  0  0
 35 45  1  0  0  0
 35 68  1  0  0  0
 36 56  1  0  0  0
 36112  1  0  0  0
 37 39  1  0  0  0
 37 47  1  0  0  0
 37 66  1  0  0  0
 37113  1  0  0  0
 38 43  2  0  0  0
 38 46  1  0  0  0
 38 47  1  0  0  0
 39 64  1  0  0  0
 39 67  2  0  0  0
 40 52  1  0  0  0
 40 53  2  0  0  0
 40 58  1  0  0  0
 41114  1  0  0  0
 41115  1  0  0  0
 41116  1  0  0  0
 41 48  1  0  0  0
 42 43  1  0  0  0
 42 66  1  0  0  0
 42117  1  0  0  0
 42118  1  0  0  0
 43 44  1  0  0  0
 44119  1  0  0  0
 45 46  2  0  0  0
 45120  1  0  0  0
 46121  1  0  0  0
 47122  1  0  0  0
 47123  1  0  0  0
 48 56  1  0  0  0
 48 65  1  0  0  0
 48124  1  0  0  0
 49 50  1  0  0  0
 49 53  1  0  0  0
 49 64  1  0  0  0
 49125  1  0  0  0
 50 51  1  0  0  0
 50126  1  0  0  0
 50127  1  0  0  0
 51 52  1  0  0  0
 51128  1  0  0  0
 51129  1  0  0  0
 52130  1  0  0  0
 52131  1  0  0  0
 53 54  1  0  0  0
 54 55  2  0  0  0
 54132  1  0  0  0
 55 57  1  0  0  0
 55133  1  0  0  0
 56 69  2  0  0  0
 57 58  2  0  0  0
 57134  1  0  0  0
 58135  1  0  0  0
 59 60  1  0  0  0
 59 61  1  0  0  0
 59 62  1  0  0  0
 60136  1  0  0  0
 60137  1  0  0  0
 60138  1  0  0  0
 61139  1  0  0  0
 61140  1  0  0  0
 61141  1  0  0  0
 62142  1  0  0  0
 62143  1  0  0  0
 62144  1  0  0  0
 63 65  1  0  0  0
 63145  1  0  0  0
 63146  1  0  0  0
 63147  1  0  0  0
 64148  1  0  0  0
 65149  1  0  0  0
 68 87  1  0  0  0
 71 72  2  0  0  0
 71 74  1  0  0  0
 71 79  1  0  0  0
 72 73  1  0  0  0
 72 82  1  0  0  0
 73 75  2  0  0  0
 73 83  1  0  0  0
 74 88  2  0  0  0
 74 80  1  0  0  0
 75 84  1  0  0  0
 75 88  1  0  0  0
 76 78  1  0  0  0
 76 80  1  0  0  0
 76150  1  0  0  0
 76151  1  0  0  0
 77 79  1  0  0  0
 77 81  1  0  0  0
 77152  1  0  0  0
 77153  1  0  0  0
 78 89  1  0  0  0
 78154  1  0  0  0
 78155  1  0  0  0
 79 81  1  0  0  0
 79156  1  0  0  0
 80 89  1  0  0  0
 80157  1  0  0  0
 81 90  1  0  0  0
 81158  1  0  0  0
 82159  1  0  0  0
 82160  1  0  0  0
 82161  1  0  0  0
 83162  1  0  0  0
 83163  1  0  0  0
 83164  1  0  0  0
 84165  1  0  0  0
 84166  1  0  0  0
 84167  1  0  0  0
 85168  1  0  0  0
 85169  1  0  0  0
 85170  1  0  0  0
 85 87  1  0  0  0
 86 87  1  0  0  0
 86 90  1  0  0  0
 86171  1  0  0  0
 86172  1  0  0  0
 87173  1  0  0  0
 90174  1  0  0  0
 90175  1  0  0  0
M  CHG  1  90   1
M  ISO  4   1 100  68 101  87 101  89 100
M  END
> <chiral flag>
0

> <version>
0

> <s_m_source_file>
/data/baiqing/PycharmProjects/Reinvent-master-3.2/result/LINK_invent/BTK/process_docking_weight1_custom_sum_contain_oxygen_bond_distance_aromatic_linkinvent_7_9_3/rearranged_h_0165.sdf

> <i_m_source_file_index>
48

> <r_mmod_Potential_Energy-OPLS-2005>
-133.614364624023

> <r_mmod_Stretch_Energy-OPLS-2005>
86.6898574829102

> <r_mmod_Bend_Energy-OPLS-2005>
186.26481628418

> <r_mmod_Torsional_Energy-OPLS-2005>
356.826782226562

> <r_mmod_Improper_Torsional_Energy-OPLS-2005>
10.1217823028564

> <r_mmod_Van_der_Waal_Energy-OPLS-2005>
148.802825927734

> <r_mmod_Electrostatic_Energy-OPLS-2005>
-477.172882080078

> <r_mmod_Solvation_Energy-OPLS-2005>
-479.8173828125

> <b_mmod_Minimization_Converged-OPLS-2005>
0

> <r_mmod_RMS_Derivative-OPLS-2005>
3.74539709091187

$$$$
48
                    3D
 Structure written by MMmdl.
170179  0  0  1  0            999 V2000
  -30.6587  -14.6749   20.4788 C   0  0  0  0  0  0
  -30.4165  -12.4150   19.4626 C   0  0  0  0  0  0
  -29.4999  -12.4992   18.2249 C   0  0  0  0  0  0
  -28.0225  -12.3448   18.6364 C   0  0  0  0  0  0
  -27.6403  -13.2323   19.8524 C   0  0  2  0  0  0
  -28.6854  -13.1479   20.9842 C   0  0  0  0  0  0
  -25.2514  -13.8214   20.5723 C   0  0  0  0  0  0
  -24.1797  -13.0462   20.9218 C   0  0  0  0  0  0
  -24.6382  -11.6937   20.8759 C   0  0  0  0  0  0
  -23.9055  -10.4308   21.0413 C   0  0  0  0  0  0
  -24.3607   -9.4227   21.9188 C   0  0  0  0  0  0
  -23.6300   -8.2252   22.0756 C   0  0  0  0  0  0
  -22.4281   -8.0279   21.3543 C   0  0  0  0  0  0
  -21.9909   -9.0253   20.4651 C   0  0  0  0  0  0
  -22.7226  -10.2143   20.3065 C   0  0  0  0  0  0
  -21.6856   -6.0739   22.5285 C   0  0  0  0  0  0
  -21.4009   -6.5641   23.8220 C   0  0  0  0  0  0
  -21.3663   -5.6790   24.9181 C   0  0  0  0  0  0
  -21.6050   -4.3054   24.7225 C   0  0  0  0  0  0
  -21.8816   -3.8149   23.4345 C   0  0  0  0  0  0
  -21.9188   -4.6965   22.3403 C   0  0  0  0  0  0
  -22.7818  -13.5253   21.1856 C   0  0  0  0  0  0
  -22.1663   -4.2152   21.0982 F   0  0  0  0  0  0
  -21.5634   -3.4537   25.7739 F   0  0  0  0  0  0
  -29.9865  -13.4792   20.3965 N   0  0  0  0  0  0
  -26.2928  -12.9416   20.3306 N   0  0  0  0  0  0
  -25.9309  -11.6553   20.5762 N   0  0  0  0  0  0
  -22.0427  -12.8280   22.0413 N   0  0  0  0  0  0
  -25.4240  -15.1938   20.4171 N   0  0  0  0  0  0
  -31.8541  -14.7161   20.1664 O   0  0  0  0  0  0
  -21.6645   -6.8882   21.4249 O   0  0  0  0  0  0
  -22.3519  -14.5551   20.6678 O   0  0  0  0  0  0
  -24.6283  -31.8575   23.2014 C   0  0  0  0  0  0
  -25.9122  -32.4774   23.8345 C   0  0  1  0  0  0
  -27.2192  -27.2918   20.1225 C   0  0  0  0  0  0
  -25.5930  -33.8578   24.2268 N   0  0  0  0  0  0
  -23.4229  -30.4805   21.5434 C   0  0  2  0  0  0
  -24.8667  -28.9285   20.1090 C   0  0  0  0  0  0
  -22.7492  -29.4608   22.4925 C   0  0  0  0  0  0
  -18.0289  -28.1397   22.8484 C   0  0  0  0  0  0
  -24.1482  -36.7295   23.2638 C   0  0  0  0  0  0
  -25.9643  -30.7801   21.3736 C   0  0  0  0  0  0
  -26.0351  -29.4047   20.7158 C   0  0  0  0  0  0
  -27.2106  -28.5965   20.7129 C   0  0  0  0  0  0
  -26.0249  -26.8659   19.4996 C   0  0  0  0  0  0
  -24.8645  -27.6665   19.4929 C   0  0  0  0  0  0
  -23.6384  -29.8146   20.1579 C   0  0  0  0  0  0
  -25.4110  -36.3084   24.0327 C   0  0  1  0  0  0
  -20.5891  -28.3698   23.1280 C   0  0  2  0  0  0
  -20.6782  -26.9418   22.5414 C   0  0  0  0  0  0
  -19.5759  -26.6381   21.5221 C   0  0  0  0  0  0
  -18.1936  -26.7939   22.1621 C   0  0  0  0  0  0
  -19.1541  -28.8865   23.2876 C   0  0  0  0  0  0
  -18.9460  -30.1466   23.8893 C   0  0  0  0  0  0
  -17.6459  -30.6596   24.0561 C   0  0  0  0  0  0
  -25.9048  -34.9453   23.5095 C   0  0  0  0  0  0
  -16.5352  -29.9096   23.6333 C   0  0  0  0  0  0
  -16.7273  -28.6514   23.0353 C   0  0  0  0  0  0
  -26.4497  -31.6613   25.0737 C   0  0  0  0  0  0
  -25.3724  -31.3774   26.1465 C   0  0  0  0  0  0
  -27.0345  -30.3037   24.6210 C   0  0  0  0  0  0
  -27.6047  -32.4365   25.7512 C   0  0  0  0  0  0
  -27.5580  -37.1802   24.8457 C   0  0  0  0  0  0
  -21.4205  -29.3047   22.3677 N   0  0  0  0  0  0
  -26.4283  -37.3784   23.9411 N   0  0  0  0  0  0
  -24.6911  -31.0568   22.0966 N   0  0  0  0  0  0
  -23.4209  -28.8151   23.3013 O   0  0  0  0  0  0
  -28.3484  -26.4575   20.2033 O   0  0  0  0  0  0
  -26.5612  -34.8922   22.4662 O   0  0  0  0  0  0
  -23.5450  -32.1376   23.7339 O   0  0  0  0  0  0
  -31.2646  -21.9226   21.6628 C   0  0  0  0  0  0
  -30.3288  -22.9459   21.3671 C   0  0  0  0  0  0
  -30.9326  -20.5685   21.4025 C   0  0  0  0  0  0
  -29.1044  -22.6102   20.7338 C   0  0  0  0  0  0
  -29.6672  -20.2526   20.8491 C   0  0  0  0  0  0
  -28.9629  -17.9656   21.7831 C   0  0  0  0  0  0
  -29.4073  -18.1759   19.3860 C   0  0  0  0  0  0
  -29.6964  -16.5572   21.8035 C   0  0  0  0  0  0
  -30.2788  -16.8728   19.4608 C   0  0  0  0  0  0
  -32.6099  -22.2817   22.2981 C   0  0  0  0  0  0
  -30.6489  -24.3867   21.7681 C   0  0  0  0  0  0
  -31.9588  -19.4836   21.7308 C   0  0  0  0  0  0
  -27.1176  -23.9990   21.6242 C   0  0  0  0  0  0
  -28.4159  -25.0853   19.6209 C   0  0  0  0  0  0
  -28.0159  -23.7264   20.4059 C   0  0  1  0  0  0
  -28.8002  -21.2725   20.5067 N   0  0  0  0  0  0
  -29.2942  -18.8698   20.6668 N   0  0  0  0  0  0
  -29.9352  -15.8624   20.5070 N   0  0  0  0  0  0
  -31.4597  -12.5147   19.1581 H   0  0  0  0  0  0
  -30.3376  -11.4358   19.9382 H   0  0  0  0  0  0
  -29.7704  -11.7277   17.5018 H   0  0  0  0  0  0
  -29.6457  -13.4572   17.7230 H   0  0  0  0  0  0
  -27.8592  -11.2946   18.8794 H   0  0  0  0  0  0
  -27.3692  -12.5633   17.7905 H   0  0  0  0  0  0
  -27.6404  -14.2602   19.4891 H   0  0  0  0  0  0
  -28.7108  -12.1489   21.4218 H   0  0  0  0  0  0
  -28.4288  -13.8313   21.7933 H   0  0  0  0  0  0
  -25.2736   -9.5722   22.4777 H   0  0  0  0  0  0
  -24.0015   -7.4645   22.7475 H   0  0  0  0  0  0
  -21.0837   -8.8762   19.8961 H   0  0  0  0  0  0
  -22.3663  -10.9681   19.6188 H   0  0  0  0  0  0
  -21.1996   -7.6144   23.9729 H   0  0  0  0  0  0
  -21.1497   -6.0515   25.9088 H   0  0  0  0  0  0
  -22.0592   -2.7610   23.2836 H   0  0  0  0  0  0
  -22.4003  -11.9953   22.4850 H   0  0  0  0  0  0
  -21.1040  -13.1339   22.2559 H   0  0  0  0  0  0
  -24.6615  -15.8515   20.5368 H   0  0  0  0  0  0
  -26.2845  -15.6342   20.1161 H   0  0  0  0  0  0
  -26.7186  -32.5429   23.1088 H   0  0  0  0  0  0
  -25.0114  -33.9717   25.0437 H   0  0  0  0  0  0
  -22.7174  -31.3019   21.4001 H   0  0  0  0  0  0
  -23.3749  -35.9623   23.3295 H   0  0  0  0  0  0
  -24.3569  -36.8926   22.2053 H   0  0  0  0  0  0
  -23.7226  -37.6489   23.6669 H   0  0  0  0  0  0
  -26.0958  -31.5404   20.6025 H   0  0  0  0  0  0
  -26.8456  -30.8311   22.0019 H   0  0  0  0  0  0
  -28.1070  -28.9552   21.1988 H   0  0  0  0  0  0
  -25.9501  -25.8914   19.0422 H   0  0  0  0  0  0
  -23.9646  -27.2931   19.0230 H   0  0  0  0  0  0
  -23.7668  -30.5912   19.4030 H   0  0  0  0  0  0
  -22.7560  -29.2501   19.8519 H   0  0  0  0  0  0
  -25.1295  -36.1931   25.0820 H   0  0  0  0  0  0
  -20.9985  -28.3274   24.1400 H   0  0  0  0  0  0
  -20.5693  -26.2310   23.3618 H   0  0  0  0  0  0
  -21.6649  -26.7455   22.1201 H   0  0  0  0  0  0
  -19.6919  -25.6286   21.1266 H   0  0  0  0  0  0
  -19.6709  -27.3177   20.6742 H   0  0  0  0  0  0
  -17.4219  -26.6700   21.4008 H   0  0  0  0  0  0
  -18.0312  -26.0077   22.9008 H   0  0  0  0  0  0
  -19.7935  -30.7285   24.2260 H   0  0  0  0  0  0
  -17.5014  -31.6277   24.5166 H   0  0  0  0  0  0
  -15.5350  -30.2998   23.7661 H   0  0  0  0  0  0
  -15.8672  -28.0832   22.7075 H   0  0  0  0  0  0
  -24.5867  -30.7160   25.7798 H   0  0  0  0  0  0
  -24.8948  -32.2955   26.4903 H   0  0  0  0  0  0
  -25.8027  -30.8934   27.0239 H   0  0  0  0  0  0
  -26.2927  -29.6795   24.1210 H   0  0  0  0  0  0
  -27.4012  -29.7298   25.4730 H   0  0  0  0  0  0
  -27.8811  -30.4333   23.9462 H   0  0  0  0  0  0
  -27.2639  -33.3654   26.2103 H   0  0  0  0  0  0
  -28.3849  -32.6959   25.0343 H   0  0  0  0  0  0
  -28.0731  -31.8495   26.5421 H   0  0  0  0  0  0
  -28.2589  -38.0108   24.7523 H   0  0  0  0  0  0
  -28.1083  -36.2642   24.6257 H   0  0  0  0  0  0
  -27.2303  -37.1425   25.8858 H   0  0  0  0  0  0
  -20.9401  -29.8767   21.6873 H   0  0  0  0  0  0
  -26.0165  -38.2856   24.1428 H   0  0  0  0  0  0
  -29.1294  -18.4814   22.7304 H   0  0  0  0  0  0
  -27.8885  -17.7875   21.7298 H   0  0  0  0  0  0
  -28.4020  -17.9294   19.0430 H   0  0  0  0  0  0
  -29.8274  -18.8566   18.6441 H   0  0  0  0  0  0
  -29.1433  -15.8916   22.4662 H   0  0  0  0  0  0
  -30.6667  -16.6776   22.2876 H   0  0  0  0  0  0
  -31.3217  -17.1676   19.5897 H   0  0  0  0  0  0
  -30.2363  -16.3821   18.4868 H   0  0  0  0  0  0
  -32.5054  -22.3471   23.3815 H   0  0  0  0  0  0
  -32.9862  -23.2361   21.9328 H   0  0  0  0  0  0
  -33.4023  -21.5683   22.0831 H   0  0  0  0  0  0
  -31.1664  -24.4265   22.7268 H   0  0  0  0  0  0
  -29.7652  -25.0011   21.9052 H   0  0  0  0  0  0
  -31.2814  -24.8647   21.0199 H   0  0  0  0  0  0
  -32.8771  -19.6440   21.1666 H   0  0  0  0  0  0
  -31.6441  -18.4786   21.4819 H   0  0  0  0  0  0
  -32.1985  -19.4938   22.7943 H   0  0  0  0  0  0
  -26.7152  -23.0660   22.0208 H   0  0  0  0  0  0
  -26.2738  -24.6348   21.3592 H   0  0  0  0  0  0
  -27.6628  -24.4902   22.4284 H   0  0  0  0  0  0
  -27.9015  -25.0903   18.6600 H   0  0  0  0  0  0
  -29.4539  -24.9655   19.3133 H   0  0  0  0  0  0
  -27.3611  -23.2147   19.6982 H   0  0  0  0  0  0
  1 25  1  0  0  0
  1 30  2  0  0  0
  1 88  1  0  0  0
  2  3  1  0  0  0
  2 25  1  0  0  0
  2 89  1  0  0  0
  2 90  1  0  0  0
  3  4  1  0  0  0
  3 91  1  0  0  0
  3 92  1  0  0  0
  4  5  1  0  0  0
  4 93  1  0  0  0
  4 94  1  0  0  0
  5  6  1  0  0  0
  5 26  1  0  0  0
  5 95  1  0  0  0
  6 25  1  0  0  0
  6 96  1  0  0  0
  6 97  1  0  0  0
  7  8  2  0  0  0
  7 26  1  0  0  0
  7 29  1  0  0  0
  8  9  1  0  0  0
  8 22  1  0  0  0
  9 10  1  0  0  0
  9 27  2  0  0  0
 10 11  2  0  0  0
 10 15  1  0  0  0
 11 12  1  0  0  0
 11 98  1  0  0  0
 12 13  2  0  0  0
 12 99  1  0  0  0
 13 14  1  0  0  0
 13 31  1  0  0  0
 14 15  2  0  0  0
 14100  1  0  0  0
 15101  1  0  0  0
 16 17  2  0  0  0
 16 21  1  0  0  0
 16 31  1  0  0  0
 17 18  1  0  0  0
 17102  1  0  0  0
 18 19  2  0  0  0
 18103  1  0  0  0
 19 20  1  0  0  0
 19 24  1  0  0  0
 20 21  2  0  0  0
 20104  1  0  0  0
 21 23  1  0  0  0
 22 28  1  0  0  0
 22 32  2  0  0  0
 26 27  1  0  0  0
 28105  1  0  0  0
 28106  1  0  0  0
 29107  1  0  0  0
 29108  1  0  0  0
 33 34  1  0  0  0
 33 66  1  0  0  0
 33 70  2  0  0  0
 34 36  1  0  0  0
 34 59  1  0  0  0
 34109  1  0  0  0
 35 44  2  0  0  0
 35 45  1  0  0  0
 35 68  1  0  0  0
 36 56  1  0  0  0
 36110  1  0  0  0
 37 39  1  0  0  0
 37 47  1  0  0  0
 37 66  1  0  0  0
 37111  1  0  0  0
 38 43  2  0  0  0
 38 46  1  0  0  0
 38 47  1  0  0  0
 39 64  1  0  0  0
 39 67  2  0  0  0
 40 52  1  0  0  0
 40 53  2  0  0  0
 40 58  1  0  0  0
 41112  1  0  0  0
 41113  1  0  0  0
 41114  1  0  0  0
 41 48  1  0  0  0
 42 43  1  0  0  0
 42 66  1  0  0  0
 42115  1  0  0  0
 42116  1  0  0  0
 43 44  1  0  0  0
 44117  1  0  0  0
 45 46  2  0  0  0
 45118  1  0  0  0
 46119  1  0  0  0
 47120  1  0  0  0
 47121  1  0  0  0
 48 56  1  0  0  0
 48 65  1  0  0  0
 48122  1  0  0  0
 49 50  1  0  0  0
 49 53  1  0  0  0
 49 64  1  0  0  0
 49123  1  0  0  0
 50 51  1  0  0  0
 50124  1  0  0  0
 50125  1  0  0  0
 51 52  1  0  0  0
 51126  1  0  0  0
 51127  1  0  0  0
 52128  1  0  0  0
 52129  1  0  0  0
 53 54  1  0  0  0
 54 55  2  0  0  0
 54130  1  0  0  0
 55 57  1  0  0  0
 55131  1  0  0  0
 56 69  2  0  0  0
 57 58  2  0  0  0
 57132  1  0  0  0
 58133  1  0  0  0
 59 60  1  0  0  0
 59 61  1  0  0  0
 59 62  1  0  0  0
 60134  1  0  0  0
 60135  1  0  0  0
 60136  1  0  0  0
 61137  1  0  0  0
 61138  1  0  0  0
 61139  1  0  0  0
 62140  1  0  0  0
 62141  1  0  0  0
 62142  1  0  0  0
 63 65  1  0  0  0
 63143  1  0  0  0
 63144  1  0  0  0
 63145  1  0  0  0
 64146  1  0  0  0
 65147  1  0  0  0
 68 84  1  0  0  0
 71 72  2  0  0  0
 71 73  1  0  0  0
 71 80  1  0  0  0
 72 74  1  0  0  0
 72 81  1  0  0  0
 73 75  2  0  0  0
 73 82  1  0  0  0
 74 85  1  0  0  0
 74 86  2  0  0  0
 75 86  1  0  0  0
 75 87  1  0  0  0
 76 78  1  0  0  0
 76 87  1  0  0  0
 76148  1  0  0  0
 76149  1  0  0  0
 77 79  1  0  0  0
 77 87  1  0  0  0
 77150  1  0  0  0
 77151  1  0  0  0
 78 88  1  0  0  0
 78152  1  0  0  0
 78153  1  0  0  0
 79 88  1  0  0  0
 79154  1  0  0  0
 79155  1  0  0  0
 80156  1  0  0  0
 80157  1  0  0  0
 80158  1  0  0  0
 81159  1  0  0  0
 81160  1  0  0  0
 81161  1  0  0  0
 82162  1  0  0  0
 82163  1  0  0  0
 82164  1  0  0  0
 83165  1  0  0  0
 83166  1  0  0  0
 83167  1  0  0  0
 83 85  1  0  0  0
 84 85  1  0  0  0
 84168  1  0  0  0
 84169  1  0  0  0
 85170  1  0  0  0
M  ISO  4   1 100  68 101  84 101  88 100
M  END
> <chiral flag>
0

> <version>
0

> <s_m_source_file>
/data/baiqing/PycharmProjects/Reinvent-master-3.2/result/LINK_invent/BTK/process_docking_weight1_custom_sum_contain_oxygen_bond_distance_aromatic_linkinvent_7_9_3/rearranged_h_0165.sdf

> <i_m_source_file_index>
49

> <r_mmod_Potential_Energy-OPLS-2005>
136.233871459961

> <r_mmod_Stretch_Energy-OPLS-2005>
103.624183654785

> <r_mmod_Bend_Energy-OPLS-2005>
197.937728881836

> <r_mmod_Torsional_Energy-OPLS-2005>
375.792907714844

> <r_mmod_Improper_Torsional_Energy-OPLS-2005>
15.9787139892578

> <r_mmod_Van_der_Waal_Energy-OPLS-2005>
156.494995117188

> <r_mmod_Electrostatic_Energy-OPLS-2005>
-552.383239746094

> <r_mmod_Solvation_Energy-OPLS-2005>
-223.906860351562

> <b_mmod_Minimization_Converged-OPLS-2005>
0

> <r_mmod_RMS_Derivative-OPLS-2005>
1.43763041496277

$$$$
49
                    3D
 Structure written by MMmdl.
163172  0  0  1  0            999 V2000
  -30.6071  -14.9145   20.4563 C   0  0  0  0  0  0
  -30.4249  -12.5784   19.4980 C   0  0  0  0  0  0
  -29.5042  -12.5516   18.2575 C   0  0  0  0  0  0
  -28.0470  -12.3252   18.6867 C   0  0  0  0  0  0
  -27.6332  -13.2569   19.8551 C   0  0  2  0  0  0
  -28.6842  -13.2816   20.9915 C   0  0  0  0  0  0
  -25.2473  -13.8249   20.5788 C   0  0  0  0  0  0
  -24.1795  -13.0458   20.9231 C   0  0  0  0  0  0
  -24.6420  -11.6930   20.8748 C   0  0  0  0  0  0
  -23.9110  -10.4297   21.0372 C   0  0  0  0  0  0
  -24.3644   -9.4189   21.9128 C   0  0  0  0  0  0
  -23.6309   -8.2226   22.0705 C   0  0  0  0  0  0
  -22.4266   -8.0280   21.3530 C   0  0  0  0  0  0
  -21.9935   -9.0238   20.4597 C   0  0  0  0  0  0
  -22.7294  -10.2111   20.3009 C   0  0  0  0  0  0
  -21.6876   -6.0725   22.5261 C   0  0  0  0  0  0
  -21.4006   -6.5621   23.8185 C   0  0  0  0  0  0
  -21.3661   -5.6785   24.9153 C   0  0  0  0  0  0
  -21.6058   -4.3044   24.7214 C   0  0  0  0  0  0
  -21.8847   -3.8130   23.4331 C   0  0  0  0  0  0
  -21.9184   -4.6947   22.3379 C   0  0  0  0  0  0
  -22.7796  -13.5136   21.1918 C   0  0  0  0  0  0
  -22.1670   -4.2132   21.0965 F   0  0  0  0  0  0
  -21.5626   -3.4533   25.7726 F   0  0  0  0  0  0
  -29.9662  -13.6758   20.3966 N   0  0  0  0  0  0
  -26.2932  -12.9515   20.3402 N   0  0  0  0  0  0
  -25.9385  -11.6633   20.5854 N   0  0  0  0  0  0
  -22.0504  -12.8021   22.0432 N   0  0  0  0  0  0
  -25.4233  -15.1996   20.4243 N   0  0  0  0  0  0
  -31.7800  -14.9571   20.0723 O   0  0  0  0  0  0
  -21.6645   -6.8873   21.4227 O   0  0  0  0  0  0
  -22.3400  -14.5425   20.6802 O   0  0  0  0  0  0
  -24.6447  -31.8458   23.1869 C   0  0  0  0  0  0
  -25.9239  -32.4660   23.8262 C   0  0  1  0  0  0
  -27.2243  -27.1651   20.1126 C   0  0  0  0  0  0
  -25.5948  -33.8465   24.2178 N   0  0  0  0  0  0
  -23.4418  -30.4713   21.5320 C   0  0  2  0  0  0
  -24.8855  -28.9010   20.0980 C   0  0  0  0  0  0
  -22.7572  -29.4622   22.4879 C   0  0  0  0  0  0
  -18.0361  -28.1385   22.8478 C   0  0  0  0  0  0
  -24.1482  -36.7250   23.2654 C   0  0  0  0  0  0
  -25.9988  -30.7261   21.3789 C   0  0  0  0  0  0
  -26.0647  -29.3433   20.7112 C   0  0  0  0  0  0
  -27.2303  -28.4929   20.7026 C   0  0  0  0  0  0
  -26.0074  -26.8076   19.4868 C   0  0  0  0  0  0
  -24.8704  -27.6443   19.4729 C   0  0  0  0  0  0
  -23.6538  -29.7939   20.1531 C   0  0  0  0  0  0
  -25.4116  -36.3017   24.0326 C   0  0  1  0  0  0
  -20.5963  -28.3786   23.1251 C   0  0  2  0  0  0
  -20.6861  -26.9468   22.5416 C   0  0  0  0  0  0
  -19.5828  -26.6440   21.5189 C   0  0  0  0  0  0
  -18.2017  -26.7950   22.1584 C   0  0  0  0  0  0
  -19.1588  -28.8909   23.2824 C   0  0  0  0  0  0
  -18.9482  -30.1508   23.8832 C   0  0  0  0  0  0
  -17.6471  -30.6602   24.0551 C   0  0  0  0  0  0
  -25.9090  -34.9397   23.5072 C   0  0  0  0  0  0
  -16.5363  -29.9075   23.6298 C   0  0  0  0  0  0
  -16.7320  -28.6498   23.0334 C   0  0  0  0  0  0
  -26.4569  -31.6525   25.0708 C   0  0  0  0  0  0
  -25.3760  -31.3692   26.1398 C   0  0  0  0  0  0
  -27.0448  -30.2904   24.6316 C   0  0  0  0  0  0
  -27.6057  -32.4357   25.7493 C   0  0  0  0  0  0
  -27.5571  -37.1768   24.8488 C   0  0  0  0  0  0
  -21.4263  -29.3127   22.3608 N   0  0  0  0  0  0
  -26.4287  -37.3722   23.9423 N   0  0  0  0  0  0
  -24.7148  -31.0365   22.0856 N   0  0  0  0  0  0
  -23.4245  -28.8188   23.3005 O   0  0  0  0  0  0
  -28.2960  -26.2057   20.2221 O   0  0  0  0  0  0
  -26.5701  -34.8909   22.4667 O   0  0  0  0  0  0
  -23.5591  -32.1356   23.7130 O   0  0  0  0  0  0
  -29.5384  -22.9152   20.9008 C   0  0  0  0  0  0
  -29.5212  -20.3913   20.3421 C   0  0  0  0  0  0
  -29.9325  -21.5330   21.1380 C   0  0  0  0  0  0
  -28.7492  -23.3567   19.7967 C   0  0  0  0  0  0
  -28.7749  -20.8327   19.1922 C   0  0  0  0  0  0
  -28.4358  -22.2420   18.9203 C   0  0  0  0  0  0
  -29.5071  -18.2296   22.0539 C   0  0  0  0  0  0
  -29.8363  -16.6893   22.0731 C   0  0  0  0  0  0
  -29.8455  -17.4261   19.8568 C   0  0  0  0  0  0
  -29.9752  -18.8177   20.7094 C   0  0  2  0  0  0
  -30.9164  -21.3125   22.2669 C   0  0  0  0  0  0
  -28.3936  -19.7189   18.2231 C   0  0  0  0  0  0
  -27.7569  -22.6306   17.6030 C   0  0  0  0  0  0
  -28.4301  -24.9305   19.3709 C   0  0  0  0  0  0
  -29.9074  -16.1319   20.7051 N   0  0  0  0  0  0
  -31.4626  -12.7053   19.1848 H   0  0  0  0  0  0
  -30.3893  -11.6226   20.0228 H   0  0  0  0  0  0
  -29.8241  -11.7690   17.5690 H   0  0  0  0  0  0
  -29.5832  -13.4931   17.7104 H   0  0  0  0  0  0
  -27.9570  -11.2864   19.0074 H   0  0  0  0  0  0
  -27.3714  -12.4513   17.8407 H   0  0  0  0  0  0
  -27.6012  -14.2617   19.4320 H   0  0  0  0  0  0
  -28.7645  -12.3085   21.4763 H   0  0  0  0  0  0
  -28.3981  -13.9935   21.7689 H   0  0  0  0  0  0
  -25.2810   -9.5629   22.4681 H   0  0  0  0  0  0
  -24.0027   -7.4596   22.7404 H   0  0  0  0  0  0
  -21.0885   -8.8741   19.8874 H   0  0  0  0  0  0
  -22.3771  -10.9619   19.6069 H   0  0  0  0  0  0
  -21.2009   -7.6128   23.9690 H   0  0  0  0  0  0
  -21.1459   -6.0501   25.9050 H   0  0  0  0  0  0
  -22.0627   -2.7589   23.2842 H   0  0  0  0  0  0
  -22.4246  -11.9711   22.4814 H   0  0  0  0  0  0
  -21.1077  -13.0885   22.2690 H   0  0  0  0  0  0
  -24.6789  -15.8780   20.5577 H   0  0  0  0  0  0
  -26.3086  -15.6177   20.1680 H   0  0  0  0  0  0
  -26.7308  -32.5260   23.0996 H   0  0  0  0  0  0
  -24.9958  -33.9540   25.0230 H   0  0  0  0  0  0
  -22.7476  -31.3018   21.3861 H   0  0  0  0  0  0
  -23.3721  -35.9597   23.3299 H   0  0  0  0  0  0
  -24.3581  -36.8890   22.2071 H   0  0  0  0  0  0
  -23.7237  -37.6449   23.6705 H   0  0  0  0  0  0
  -26.1721  -31.4802   20.6126 H   0  0  0  0  0  0
  -26.8657  -30.7604   22.0262 H   0  0  0  0  0  0
  -28.1281  -28.8314   21.1947 H   0  0  0  0  0  0
  -25.8656  -25.8289   19.0545 H   0  0  0  0  0  0
  -23.9656  -27.2928   18.9957 H   0  0  0  0  0  0
  -23.7628  -30.5645   19.3876 H   0  0  0  0  0  0
  -22.7654  -29.2287   19.8644 H   0  0  0  0  0  0
  -25.1286  -36.1846   25.0809 H   0  0  0  0  0  0
  -21.0069  -28.3432   24.1383 H   0  0  0  0  0  0
  -20.5807  -26.2400   23.3645 H   0  0  0  0  0  0
  -21.6738  -26.7497   22.1243 H   0  0  0  0  0  0
  -19.6919  -25.6368   21.1157 H   0  0  0  0  0  0
  -19.6787  -27.3335   20.6781 H   0  0  0  0  0  0
  -17.4285  -26.6709   21.3992 H   0  0  0  0  0  0
  -18.0478  -26.0029   22.8953 H   0  0  0  0  0  0
  -19.7972  -30.7333   24.2133 H   0  0  0  0  0  0
  -17.5012  -31.6263   24.5166 H   0  0  0  0  0  0
  -15.5351  -30.2963   23.7610 H   0  0  0  0  0  0
  -15.8735  -28.0779   22.7106 H   0  0  0  0  0  0
  -24.5881  -30.7128   25.7693 H   0  0  0  0  0  0
  -24.9039  -32.2876   26.4901 H   0  0  0  0  0  0
  -25.8046  -30.8768   27.0131 H   0  0  0  0  0  0
  -26.3083  -29.6576   24.1345 H   0  0  0  0  0  0
  -27.4054  -29.7251   25.4927 H   0  0  0  0  0  0
  -27.8999  -30.4092   23.9651 H   0  0  0  0  0  0
  -27.2555  -33.3627   26.2046 H   0  0  0  0  0  0
  -28.3849  -32.6981   25.0326 H   0  0  0  0  0  0
  -28.0766  -31.8538   26.5418 H   0  0  0  0  0  0
  -28.2609  -38.0046   24.7498 H   0  0  0  0  0  0
  -28.1040  -36.2573   24.6341 H   0  0  0  0  0  0
  -27.2311  -37.1462   25.8901 H   0  0  0  0  0  0
  -20.9508  -29.8849   21.6751 H   0  0  0  0  0  0
  -26.0148  -38.2805   24.1346 H   0  0  0  0  0  0
  -29.9222  -23.6862   21.5557 H   0  0  0  0  0  0
  -28.4324  -18.3704   22.1507 H   0  0  0  0  0  0
  -29.9572  -18.7328   22.9118 H   0  0  0  0  0  0
  -29.0962  -16.1518   22.6689 H   0  0  0  0  0  0
  -30.7994  -16.5313   22.5644 H   0  0  0  0  0  0
  -28.8742  -17.3721   19.3745 H   0  0  0  0  0  0
  -30.5753  -17.3965   19.0475 H   0  0  0  0  0  0
  -31.0567  -18.9076   20.7923 H   0  0  0  0  0  0
  -31.4906  -22.2163   22.4828 H   0  0  0  0  0  0
  -31.6454  -20.5458   22.0131 H   0  0  0  0  0  0
  -30.3905  -21.0200   23.1746 H   0  0  0  0  0  0
  -27.6222  -19.0932   18.6701 H   0  0  0  0  0  0
  -29.2748  -19.1162   18.0142 H   0  0  0  0  0  0
  -28.0341  -19.9876   17.2423 H   0  0  0  0  0  0
  -28.3362  -23.4177   17.1222 H   0  0  0  0  0  0
  -26.7476  -23.0004   17.7774 H   0  0  0  0  0  0
  -27.6826  -21.8740   16.8349 H   0  0  0  0  0  0
  -27.6471  -24.9426   18.6217 H   0  0  0  0  0  0
  -29.3120  -25.1731   18.7800 H   0  0  0  0  0  0
  1 25  1  0  0  0
  1 30  2  0  0  0
  1 85  1  0  0  0
  2  3  1  0  0  0
  2 25  1  0  0  0
  2 86  1  0  0  0
  2 87  1  0  0  0
  3  4  1  0  0  0
  3 88  1  0  0  0
  3 89  1  0  0  0
  4  5  1  0  0  0
  4 90  1  0  0  0
  4 91  1  0  0  0
  5  6  1  0  0  0
  5 26  1  0  0  0
  5 92  1  0  0  0
  6 25  1  0  0  0
  6 93  1  0  0  0
  6 94  1  0  0  0
  7  8  2  0  0  0
  7 26  1  0  0  0
  7 29  1  0  0  0
  8  9  1  0  0  0
  8 22  1  0  0  0
  9 10  1  0  0  0
  9 27  2  0  0  0
 10 11  2  0  0  0
 10 15  1  0  0  0
 11 12  1  0  0  0
 11 95  1  0  0  0
 12 13  2  0  0  0
 12 96  1  0  0  0
 13 14  1  0  0  0
 13 31  1  0  0  0
 14 15  2  0  0  0
 14 97  1  0  0  0
 15 98  1  0  0  0
 16 17  2  0  0  0
 16 21  1  0  0  0
 16 31  1  0  0  0
 17 18  1  0  0  0
 17 99  1  0  0  0
 18 19  2  0  0  0
 18100  1  0  0  0
 19 20  1  0  0  0
 19 24  1  0  0  0
 20 21  2  0  0  0
 20101  1  0  0  0
 21 23  1  0  0  0
 22 28  1  0  0  0
 22 32  2  0  0  0
 26 27  1  0  0  0
 28102  1  0  0  0
 28103  1  0  0  0
 29104  1  0  0  0
 29105  1  0  0  0
 33 34  1  0  0  0
 33 66  1  0  0  0
 33 70  2  0  0  0
 34 36  1  0  0  0
 34 59  1  0  0  0
 34106  1  0  0  0
 35 44  2  0  0  0
 35 45  1  0  0  0
 35 68  1  0  0  0
 36 56  1  0  0  0
 36107  1  0  0  0
 37 39  1  0  0  0
 37 47  1  0  0  0
 37 66  1  0  0  0
 37108  1  0  0  0
 38 43  2  0  0  0
 38 46  1  0  0  0
 38 47  1  0  0  0
 39 64  1  0  0  0
 39 67  2  0  0  0
 40 52  1  0  0  0
 40 53  2  0  0  0
 40 58  1  0  0  0
 41109  1  0  0  0
 41110  1  0  0  0
 41111  1  0  0  0
 41 48  1  0  0  0
 42 43  1  0  0  0
 42 66  1  0  0  0
 42112  1  0  0  0
 42113  1  0  0  0
 43 44  1  0  0  0
 44114  1  0  0  0
 45 46  2  0  0  0
 45115  1  0  0  0
 46116  1  0  0  0
 47117  1  0  0  0
 47118  1  0  0  0
 48 56  1  0  0  0
 48 65  1  0  0  0
 48119  1  0  0  0
 49 50  1  0  0  0
 49 53  1  0  0  0
 49 64  1  0  0  0
 49120  1  0  0  0
 50 51  1  0  0  0
 50121  1  0  0  0
 50122  1  0  0  0
 51 52  1  0  0  0
 51123  1  0  0  0
 51124  1  0  0  0
 52125  1  0  0  0
 52126  1  0  0  0
 53 54  1  0  0  0
 54 55  2  0  0  0
 54127  1  0  0  0
 55 57  1  0  0  0
 55128  1  0  0  0
 56 69  2  0  0  0
 57 58  2  0  0  0
 57129  1  0  0  0
 58130  1  0  0  0
 59 60  1  0  0  0
 59 61  1  0  0  0
 59 62  1  0  0  0
 60131  1  0  0  0
 60132  1  0  0  0
 60133  1  0  0  0
 61134  1  0  0  0
 61135  1  0  0  0
 61136  1  0  0  0
 62137  1  0  0  0
 62138  1  0  0  0
 62139  1  0  0  0
 63 65  1  0  0  0
 63140  1  0  0  0
 63141  1  0  0  0
 63142  1  0  0  0
 64143  1  0  0  0
 65144  1  0  0  0
 68 84  1  0  0  0
 71 73  2  0  0  0
 71 74  1  0  0  0
 71145  1  0  0  0
 72 73  1  0  0  0
 72 75  2  0  0  0
 72 80  1  0  0  0
 73 81  1  0  0  0
 74 76  2  0  0  0
 74 84  1  0  0  0
 75 76  1  0  0  0
 75 82  1  0  0  0
 76 83  1  0  0  0
 77 78  1  0  0  0
 77 80  1  0  0  0
 77146  1  0  0  0
 77147  1  0  0  0
 78 85  1  0  0  0
 78148  1  0  0  0
 78149  1  0  0  0
 79 80  1  0  0  0
 79 85  1  0  0  0
 79150  1  0  0  0
 79151  1  0  0  0
 80152  1  0  0  0
 81153  1  0  0  0
 81154  1  0  0  0
 81155  1  0  0  0
 82156  1  0  0  0
 82157  1  0  0  0
 82158  1  0  0  0
 83159  1  0  0  0
 83160  1  0  0  0
 83161  1  0  0  0
 84162  1  0  0  0
 84163  1  0  0  0
M  ISO  4   1 100  68 101  84 101  85 100
M  END
> <chiral flag>
0

> <version>
0

> <s_m_source_file>
/data/baiqing/PycharmProjects/Reinvent-master-3.2/result/LINK_invent/BTK/process_docking_weight1_custom_sum_contain_oxygen_bond_distance_aromatic_linkinvent_7_9_3/rearranged_h_0165.sdf

> <i_m_source_file_index>
50

> <r_mmod_Potential_Energy-OPLS-2005>
717.494140625

> <r_mmod_Stretch_Energy-OPLS-2005>
233.69758605957

> <r_mmod_Bend_Energy-OPLS-2005>
315.923156738281

> <r_mmod_Torsional_Energy-OPLS-2005>
340.109130859375

> <r_mmod_Improper_Torsional_Energy-OPLS-2005>
10.523549079895

> <r_mmod_Van_der_Waal_Energy-OPLS-2005>
152.752304077148

> <r_mmod_Electrostatic_Energy-OPLS-2005>
-306.373352050781

> <r_mmod_Solvation_Energy-OPLS-2005>
-195.215438842773

> <b_mmod_Minimization_Converged-OPLS-2005>
0

> <r_mmod_RMS_Derivative-OPLS-2005>
6.35312175750732

$$$$
50
                    3D
 Structure written by MMmdl.
165173  0  0  1  0            999 V2000
  -30.6228  -14.6711   20.5263 C   0  0  0  0  0  0
  -30.4443  -12.4249   19.4654 C   0  0  0  0  0  0
  -29.5165  -12.5168   18.2334 C   0  0  0  0  0  0
  -28.0431  -12.3391   18.6476 C   0  0  0  0  0  0
  -27.6530  -13.2186   19.8645 C   0  0  2  0  0  0
  -28.6942  -13.0923   20.9995 C   0  0  0  0  0  0
  -25.2549  -13.8157   20.5679 C   0  0  0  0  0  0
  -24.1831  -13.0453   20.9195 C   0  0  0  0  0  0
  -24.6391  -11.6915   20.8744 C   0  0  0  0  0  0
  -23.9055  -10.4299   21.0414 C   0  0  0  0  0  0
  -24.3603   -9.4216   21.9198 C   0  0  0  0  0  0
  -23.6291   -8.2246   22.0764 C   0  0  0  0  0  0
  -22.4274   -8.0275   21.3550 C   0  0  0  0  0  0
  -21.9903   -9.0250   20.4646 C   0  0  0  0  0  0
  -22.7225  -10.2143   20.3064 C   0  0  0  0  0  0
  -21.6857   -6.0739   22.5280 C   0  0  0  0  0  0
  -21.4016   -6.5641   23.8213 C   0  0  0  0  0  0
  -21.3661   -5.6795   24.9175 C   0  0  0  0  0  0
  -21.6030   -4.3055   24.7230 C   0  0  0  0  0  0
  -21.8823   -3.8152   23.4354 C   0  0  0  0  0  0
  -21.9194   -4.6966   22.3410 C   0  0  0  0  0  0
  -22.7841  -13.5239   21.1855 C   0  0  0  0  0  0
  -22.1666   -4.2149   21.0994 F   0  0  0  0  0  0
  -21.5626   -3.4546   25.7751 F   0  0  0  0  0  0
  -30.0035  -13.4508   20.4323 N   0  0  0  0  0  0
  -26.2967  -12.9350   20.3294 N   0  0  0  0  0  0
  -25.9311  -11.6509   20.5722 N   0  0  0  0  0  0
  -22.0481  -12.8257   22.0409 N   0  0  0  0  0  0
  -25.4245  -15.1882   20.4048 N   0  0  0  0  0  0
  -31.7906  -14.8262   20.1591 O   0  0  0  0  0  0
  -21.6645   -6.8883   21.4242 O   0  0  0  0  0  0
  -22.3547  -14.5552   20.6679 O   0  0  0  0  0  0
  -24.6335  -31.8602   23.1999 C   0  0  0  0  0  0
  -25.9172  -32.4774   23.8343 C   0  0  1  0  0  0
  -27.2175  -27.2828   20.1011 C   0  0  0  0  0  0
  -25.6001  -33.8572   24.2290 N   0  0  0  0  0  0
  -23.4306  -30.4817   21.5446 C   0  0  2  0  0  0
  -24.8705  -28.9335   20.1117 C   0  0  0  0  0  0
  -22.7506  -29.4626   22.4885 C   0  0  0  0  0  0
  -18.0213  -28.1409   22.8377 C   0  0  0  0  0  0
  -24.1491  -36.7285   23.2638 C   0  0  0  0  0  0
  -25.9758  -30.7670   21.3864 C   0  0  0  0  0  0
  -26.0440  -29.3949   20.7225 C   0  0  0  0  0  0
  -27.2199  -28.5807   20.7123 C   0  0  0  0  0  0
  -26.0233  -26.9042   19.4421 C   0  0  0  0  0  0
  -24.8621  -27.6960   19.4612 C   0  0  0  0  0  0
  -23.6469  -29.8184   20.1620 C   0  0  0  0  0  0
  -25.4122  -36.3077   24.0326 C   0  0  1  0  0  0
  -20.5819  -28.3744   23.1136 C   0  0  2  0  0  0
  -20.6702  -26.9427   22.5394 C   0  0  0  0  0  0
  -19.5671  -26.6240   21.5210 C   0  0  0  0  0  0
  -18.1860  -26.7885   22.1644 C   0  0  0  0  0  0
  -19.1476  -28.8896   23.2719 C   0  0  0  0  0  0
  -18.9413  -30.1492   23.8758 C   0  0  0  0  0  0
  -17.6410  -30.6564   24.0542 C   0  0  0  0  0  0
  -25.9075  -34.9448   23.5099 C   0  0  0  0  0  0
  -16.5291  -29.9062   23.6323 C   0  0  0  0  0  0
  -16.7190  -28.6526   23.0253 C   0  0  0  0  0  0
  -26.4510  -31.6603   25.0737 C   0  0  0  0  0  0
  -25.3693  -31.3765   26.1427 C   0  0  0  0  0  0
  -27.0380  -30.3021   24.6248 C   0  0  0  0  0  0
  -27.6073  -32.4339   25.7528 C   0  0  0  0  0  0
  -27.5578  -37.1805   24.8472 C   0  0  0  0  0  0
  -21.4210  -29.3057   22.3567 N   0  0  0  0  0  0
  -26.4295  -37.3769   23.9412 N   0  0  0  0  0  0
  -24.6980  -31.0542   22.0989 N   0  0  0  0  0  0
  -23.4176  -28.8203   23.3031 O   0  0  0  0  0  0
  -28.3012  -26.3759   20.1457 O   0  0  0  0  0  0
  -26.5613  -34.8903   22.4645 O   0  0  0  0  0  0
  -23.5483  -32.1465   23.7272 O   0  0  0  0  0  0
  -26.8648  -20.5874   21.9103 C   0  0  0  0  0  0
  -27.6436  -19.4665   21.5285 C   0  0  0  0  0  0
  -27.1602  -21.8885   21.4240 C   0  0  0  0  0  0
  -29.2133  -20.9931   20.4386 C   0  0  0  0  0  0
  -28.8147  -19.6269   20.7447 C   0  0  0  0  0  0
  -28.3994  -22.1640   20.7542 C   0  0  0  0  0  0
  -25.6582  -20.3779   22.8378 C   0  0  0  0  0  0
  -27.1539  -18.0808   21.9527 C   0  0  0  0  0  0
  -26.0776  -22.9464   21.6307 C   0  0  0  0  0  0
  -30.5466  -21.2139   19.7384 C   0  0  0  0  0  0
  -29.4986  -18.3116   20.1600 C   0  0  0  0  0  0
  -28.9067  -23.6582   20.4164 C   0  0  0  0  0  0
  -30.1652  -17.2052   21.1122 C   0  0  0  0  0  0
  -27.9324  -24.9406   20.3704 C   0  0  0  0  0  0
  -29.8360  -15.7422   20.8782 N   0  0  0  0  0  0
  -31.4839  -12.5640   19.1670 H   0  0  0  0  0  0
  -30.3954  -11.4327   19.9165 H   0  0  0  0  0  0
  -29.7960  -11.7578   17.5023 H   0  0  0  0  0  0
  -29.6514  -13.4807   17.7434 H   0  0  0  0  0  0
  -27.9018  -11.2869   18.8955 H   0  0  0  0  0  0
  -27.3839  -12.5387   17.8031 H   0  0  0  0  0  0
  -27.6703  -14.2507   19.5142 H   0  0  0  0  0  0
  -28.7181  -12.0716   21.3875 H   0  0  0  0  0  0
  -28.4244  -13.7269   21.8465 H   0  0  0  0  0  0
  -25.2746   -9.5720   22.4777 H   0  0  0  0  0  0
  -23.9991   -7.4657   22.7499 H   0  0  0  0  0  0
  -21.0825   -8.8758   19.8975 H   0  0  0  0  0  0
  -22.3650  -10.9676   19.6175 H   0  0  0  0  0  0
  -21.2011   -7.6153   23.9718 H   0  0  0  0  0  0
  -21.1470   -6.0532   25.9079 H   0  0  0  0  0  0
  -22.0598   -2.7614   23.2857 H   0  0  0  0  0  0
  -22.4077  -11.9899   22.4766 H   0  0  0  0  0  0
  -21.1105  -13.1307   22.2614 H   0  0  0  0  0  0
  -24.6440  -15.8304   20.4834 H   0  0  0  0  0  0
  -26.2528  -15.6193   20.0183 H   0  0  0  0  0  0
  -26.7245  -32.5400   23.1094 H   0  0  0  0  0  0
  -25.0157  -33.9748   25.0444 H   0  0  0  0  0  0
  -22.7311  -31.3070   21.3951 H   0  0  0  0  0  0
  -23.3745  -35.9627   23.3319 H   0  0  0  0  0  0
  -24.3561  -36.8903   22.2046 H   0  0  0  0  0  0
  -23.7244  -37.6491   23.6643 H   0  0  0  0  0  0
  -26.1233  -31.5286   20.6230 H   0  0  0  0  0  0
  -26.8488  -30.8058   22.0256 H   0  0  0  0  0  0
  -28.1148  -28.9268   21.2099 H   0  0  0  0  0  0
  -25.9491  -25.9881   18.8791 H   0  0  0  0  0  0
  -23.9692  -27.3472   18.9612 H   0  0  0  0  0  0
  -23.7840  -30.5944   19.4086 H   0  0  0  0  0  0
  -22.7698  -29.2533   19.8456 H   0  0  0  0  0  0
  -25.1284  -36.1931   25.0810 H   0  0  0  0  0  0
  -20.9912  -28.3381   24.1259 H   0  0  0  0  0  0
  -20.5591  -26.2461   23.3723 H   0  0  0  0  0  0
  -21.6596  -26.7439   22.1232 H   0  0  0  0  0  0
  -19.6810  -25.6044   21.1519 H   0  0  0  0  0  0
  -19.6620  -27.2816   20.6554 H   0  0  0  0  0  0
  -17.4040  -26.6464   21.4166 H   0  0  0  0  0  0
  -18.0332  -26.0147   22.9185 H   0  0  0  0  0  0
  -19.7912  -30.7320   24.2058 H   0  0  0  0  0  0
  -17.4960  -31.6220   24.5165 H   0  0  0  0  0  0
  -15.5294  -30.2975   23.7652 H   0  0  0  0  0  0
  -15.8556  -28.0922   22.6923 H   0  0  0  0  0  0
  -24.5847  -30.7176   25.7685 H   0  0  0  0  0  0
  -24.8895  -32.2942   26.4837 H   0  0  0  0  0  0
  -25.7940  -30.8884   27.0209 H   0  0  0  0  0  0
  -26.2986  -29.6780   24.1206 H   0  0  0  0  0  0
  -27.4012  -29.7271   25.4784 H   0  0  0  0  0  0
  -27.8871  -30.4320   23.9533 H   0  0  0  0  0  0
  -27.2679  -33.3622   26.2130 H   0  0  0  0  0  0
  -28.3845  -32.6963   25.0335 H   0  0  0  0  0  0
  -28.0769  -31.8449   26.5433 H   0  0  0  0  0  0
  -28.2589  -38.0101   24.7476 H   0  0  0  0  0  0
  -28.1076  -36.2629   24.6329 H   0  0  0  0  0  0
  -27.2286  -37.1468   25.8872 H   0  0  0  0  0  0
  -20.9447  -29.8892   21.6858 H   0  0  0  0  0  0
  -26.0185  -38.2841   24.1416 H   0  0  0  0  0  0
  -25.7868  -19.5510   23.5338 H   0  0  0  0  0  0
  -24.7613  -20.1972   22.2443 H   0  0  0  0  0  0
  -25.4745  -21.2398   23.4813 H   0  0  0  0  0  0
  -26.0743  -18.0059   21.8417 H   0  0  0  0  0  0
  -27.4000  -17.9126   23.0020 H   0  0  0  0  0  0
  -27.5444  -17.2493   21.3772 H   0  0  0  0  0  0
  -25.0863  -22.5292   21.7971 H   0  0  0  0  0  0
  -25.8975  -23.5258   20.7319 H   0  0  0  0  0  0
  -26.3065  -23.5767   22.4875 H   0  0  0  0  0  0
  -31.2599  -20.4165   19.9464 H   0  0  0  0  0  0
  -31.0316  -22.1243   20.0850 H   0  0  0  0  0  0
  -30.3988  -21.2884   18.6610 H   0  0  0  0  0  0
  -30.2159  -18.5755   19.3839 H   0  0  0  0  0  0
  -28.7122  -17.8170   19.5887 H   0  0  0  0  0  0
  -29.3803  -23.6216   19.4350 H   0  0  0  0  0  0
  -29.7054  -23.8799   21.1254 H   0  0  0  0  0  0
  -29.8666  -17.4232   22.1370 H   0  0  0  0  0  0
  -31.2489  -17.3356   21.1081 H   0  0  0  0  0  0
  -27.4262  -24.9992   21.3280 H   0  0  0  0  0  0
  -27.2298  -24.6422   19.6005 H   0  0  0  0  0  0
  -28.8968  -15.4749   21.1354 H   0  0  0  0  0  0
  1 25  1  0  0  0
  1 30  2  0  0  0
  1 85  1  0  0  0
  2  3  1  0  0  0
  2 25  1  0  0  0
  2 86  1  0  0  0
  2 87  1  0  0  0
  3  4  1  0  0  0
  3 88  1  0  0  0
  3 89  1  0  0  0
  4  5  1  0  0  0
  4 90  1  0  0  0
  4 91  1  0  0  0
  5  6  1  0  0  0
  5 26  1  0  0  0
  5 92  1  0  0  0
  6 25  1  0  0  0
  6 93  1  0  0  0
  6 94  1  0  0  0
  7  8  2  0  0  0
  7 26  1  0  0  0
  7 29  1  0  0  0
  8  9  1  0  0  0
  8 22  1  0  0  0
  9 10  1  0  0  0
  9 27  2  0  0  0
 10 11  2  0  0  0
 10 15  1  0  0  0
 11 12  1  0  0  0
 11 95  1  0  0  0
 12 13  2  0  0  0
 12 96  1  0  0  0
 13 14  1  0  0  0
 13 31  1  0  0  0
 14 15  2  0  0  0
 14 97  1  0  0  0
 15 98  1  0  0  0
 16 17  2  0  0  0
 16 21  1  0  0  0
 16 31  1  0  0  0
 17 18  1  0  0  0
 17 99  1  0  0  0
 18 19  2  0  0  0
 18100  1  0  0  0
 19 20  1  0  0  0
 19 24  1  0  0  0
 20 21  2  0  0  0
 20101  1  0  0  0
 21 23  1  0  0  0
 22 28  1  0  0  0
 22 32  2  0  0  0
 26 27  1  0  0  0
 28102  1  0  0  0
 28103  1  0  0  0
 29104  1  0  0  0
 29105  1  0  0  0
 33 34  1  0  0  0
 33 66  1  0  0  0
 33 70  2  0  0  0
 34 36  1  0  0  0
 34 59  1  0  0  0
 34106  1  0  0  0
 35 44  2  0  0  0
 35 45  1  0  0  0
 35 68  1  0  0  0
 36 56  1  0  0  0
 36107  1  0  0  0
 37 39  1  0  0  0
 37 47  1  0  0  0
 37 66  1  0  0  0
 37108  1  0  0  0
 38 43  2  0  0  0
 38 46  1  0  0  0
 38 47  1  0  0  0
 39 64  1  0  0  0
 39 67  2  0  0  0
 40 52  1  0  0  0
 40 53  2  0  0  0
 40 58  1  0  0  0
 41109  1  0  0  0
 41110  1  0  0  0
 41111  1  0  0  0
 41 48  1  0  0  0
 42 43  1  0  0  0
 42 66  1  0  0  0
 42112  1  0  0  0
 42113  1  0  0  0
 43 44  1  0  0  0
 44114  1  0  0  0
 45 46  2  0  0  0
 45115  1  0  0  0
 46116  1  0  0  0
 47117  1  0  0  0
 47118  1  0  0  0
 48 56  1  0  0  0
 48 65  1  0  0  0
 48119  1  0  0  0
 49 50  1  0  0  0
 49 53  1  0  0  0
 49 64  1  0  0  0
 49120  1  0  0  0
 50 51  1  0  0  0
 50121  1  0  0  0
 50122  1  0  0  0
 51 52  1  0  0  0
 51123  1  0  0  0
 51124  1  0  0  0
 52125  1  0  0  0
 52126  1  0  0  0
 53 54  1  0  0  0
 54 55  2  0  0  0
 54127  1  0  0  0
 55 57  1  0  0  0
 55128  1  0  0  0
 56 69  2  0  0  0
 57 58  2  0  0  0
 57129  1  0  0  0
 58130  1  0  0  0
 59 60  1  0  0  0
 59 61  1  0  0  0
 59 62  1  0  0  0
 60131  1  0  0  0
 60132  1  0  0  0
 60133  1  0  0  0
 61134  1  0  0  0
 61135  1  0  0  0
 61136  1  0  0  0
 62137  1  0  0  0
 62138  1  0  0  0
 62139  1  0  0  0
 63 65  1  0  0  0
 63140  1  0  0  0
 63141  1  0  0  0
 63142  1  0  0  0
 64143  1  0  0  0
 65144  1  0  0  0
 68 84  1  0  0  0
 71 72  2  0  0  0
 71 73  1  0  0  0
 71 77  1  0  0  0
 72 75  1  0  0  0
 72 78  1  0  0  0
 73 76  2  0  0  0
 73 79  1  0  0  0
 74 75  2  0  0  0
 74 76  1  0  0  0
 74 80  1  0  0  0
 75 81  1  0  0  0
 76 82  1  0  0  0
 77145  1  0  0  0
 77146  1  0  0  0
 77147  1  0  0  0
 78148  1  0  0  0
 78149  1  0  0  0
 78150  1  0  0  0
 79151  1  0  0  0
 79152  1  0  0  0
 79153  1  0  0  0
 80154  1  0  0  0
 80155  1  0  0  0
 80156  1  0  0  0
 81 83  1  0  0  0
 81157  1  0  0  0
 81158  1  0  0  0
 82 84  1  0  0  0
 82159  1  0  0  0
 82160  1  0  0  0
 83 85  1  0  0  0
 83161  1  0  0  0
 83162  1  0  0  0
 84163  1  0  0  0
 84164  1  0  0  0
 85165  1  0  0  0
M  ISO  4   1 100  68 101  84 101  85 100
M  END
> <chiral flag>
0

> <version>
0

> <s_m_source_file>
/data/baiqing/PycharmProjects/Reinvent-master-3.2/result/LINK_invent/BTK/process_docking_weight1_custom_sum_contain_oxygen_bond_distance_aromatic_linkinvent_7_9_3/rearranged_h_0165.sdf

> <i_m_source_file_index>
51

> <r_mmod_Potential_Energy-OPLS-2005>
152.937789916992

> <r_mmod_Stretch_Energy-OPLS-2005>
118.332725524902

> <r_mmod_Bend_Energy-OPLS-2005>
179.1513671875

> <r_mmod_Torsional_Energy-OPLS-2005>
237.046234130859

> <r_mmod_Improper_Torsional_Energy-OPLS-2005>
4.73084354400635

> <r_mmod_Van_der_Waal_Energy-OPLS-2005>
185.709442138672

> <r_mmod_Electrostatic_Energy-OPLS-2005>
-430.187225341797

> <r_mmod_Solvation_Energy-OPLS-2005>
-208.252624511719

> <b_mmod_Minimization_Converged-OPLS-2005>
0

> <r_mmod_RMS_Derivative-OPLS-2005>
4.76691055297852

$$$$
51
                    3D
 Structure written by MMmdl.
169179  0  0  1  0            999 V2000
  -30.6997  -14.7665   20.4712 C   0  0  0  0  0  0
  -30.4118  -12.4933   19.4622 C   0  0  0  0  0  0
  -29.4911  -12.5036   18.2262 C   0  0  0  0  0  0
  -28.0278  -12.3147   18.6599 C   0  0  0  0  0  0
  -27.6314  -13.2398   19.8412 C   0  0  2  0  0  0
  -28.6876  -13.2345   20.9709 C   0  0  0  0  0  0
  -25.2450  -13.8230   20.5698 C   0  0  0  0  0  0
  -24.1771  -13.0451   20.9245 C   0  0  0  0  0  0
  -24.6386  -11.6943   20.8790 C   0  0  0  0  0  0
  -23.9084  -10.4304   21.0431 C   0  0  0  0  0  0
  -24.3633   -9.4213   21.9202 C   0  0  0  0  0  0
  -23.6309   -8.2241   22.0750 C   0  0  0  0  0  0
  -22.4292   -8.0282   21.3537 C   0  0  0  0  0  0
  -21.9935   -9.0262   20.4644 C   0  0  0  0  0  0
  -22.7265  -10.2145   20.3069 C   0  0  0  0  0  0
  -21.6857   -6.0735   22.5280 C   0  0  0  0  0  0
  -21.4020   -6.5636   23.8212 C   0  0  0  0  0  0
  -21.3655   -5.6788   24.9170 C   0  0  0  0  0  0
  -21.6050   -4.3051   24.7228 C   0  0  0  0  0  0
  -21.8830   -3.8150   23.4348 C   0  0  0  0  0  0
  -21.9196   -4.6962   22.3405 C   0  0  0  0  0  0
  -22.7796  -13.5209   21.1878 C   0  0  0  0  0  0
  -22.1671   -4.2154   21.0978 F   0  0  0  0  0  0
  -21.5622   -3.4537   25.7739 F   0  0  0  0  0  0
  -29.9670  -13.5980   20.3546 N   0  0  0  0  0  0
  -26.2896  -12.9465   20.3317 N   0  0  0  0  0  0
  -25.9315  -11.6602   20.5813 N   0  0  0  0  0  0
  -22.0445  -12.8192   22.0431 N   0  0  0  0  0  0
  -25.4036  -15.1947   20.4026 N   0  0  0  0  0  0
  -31.9083  -14.6859   20.2390 O   0  0  0  0  0  0
  -21.6651   -6.8878   21.4238 O   0  0  0  0  0  0
  -22.3478  -14.5507   20.6707 O   0  0  0  0  0  0
  -24.6323  -31.8541   23.1982 C   0  0  0  0  0  0
  -25.9144  -32.4752   23.8329 C   0  0  1  0  0  0
  -27.2076  -27.2586   20.1357 C   0  0  0  0  0  0
  -25.5929  -33.8552   24.2246 N   0  0  0  0  0  0
  -23.4293  -30.4792   21.5404 C   0  0  2  0  0  0
  -24.8777  -28.9313   20.1041 C   0  0  0  0  0  0
  -22.7503  -29.4608   22.4892 C   0  0  0  0  0  0
  -18.0290  -28.1378   22.8516 C   0  0  0  0  0  0
  -24.1491  -36.7295   23.2639 C   0  0  0  0  0  0
  -25.9763  -30.7674   21.3796 C   0  0  0  0  0  0
  -26.0486  -29.3903   20.7222 C   0  0  0  0  0  0
  -27.2216  -28.5658   20.7300 C   0  0  0  0  0  0
  -26.0257  -26.8811   19.4645 C   0  0  0  0  0  0
  -24.8715  -27.6845   19.4608 C   0  0  0  0  0  0
  -23.6487  -29.8181   20.1544 C   0  0  0  0  0  0
  -25.4116  -36.3062   24.0317 C   0  0  1  0  0  0
  -20.5894  -28.3718   23.1278 C   0  0  2  0  0  0
  -20.6803  -26.9435   22.5417 C   0  0  0  0  0  0
  -19.5768  -26.6389   21.5234 C   0  0  0  0  0  0
  -18.1941  -26.7932   22.1632 C   0  0  0  0  0  0
  -19.1534  -28.8863   23.2894 C   0  0  0  0  0  0
  -18.9442  -30.1468   23.8907 C   0  0  0  0  0  0
  -17.6437  -30.6595   24.0551 C   0  0  0  0  0  0
  -25.9058  -34.9434   23.5083 C   0  0  0  0  0  0
  -16.5339  -29.9074   23.6328 C   0  0  0  0  0  0
  -16.7271  -28.6480   23.0381 C   0  0  0  0  0  0
  -26.4502  -31.6578   25.0719 C   0  0  0  0  0  0
  -25.3723  -31.3733   26.1442 C   0  0  0  0  0  0
  -27.0351  -30.2992   24.6208 C   0  0  0  0  0  0
  -27.6043  -32.4328   25.7510 C   0  0  0  0  0  0
  -27.5575  -37.1801   24.8461 C   0  0  0  0  0  0
  -21.4197  -29.3087   22.3671 N   0  0  0  0  0  0
  -26.4289  -37.3761   23.9400 N   0  0  0  0  0  0
  -24.6983  -31.0519   22.0957 N   0  0  0  0  0  0
  -23.4213  -28.8130   23.2966 O   0  0  0  0  0  0
  -28.2452  -26.3003   20.2018 O   0  0  0  0  0  0
  -26.5634  -34.8918   22.4660 O   0  0  0  0  0  0
  -23.5464  -32.1359   23.7276 O   0  0  0  0  0  0
  -28.0099  -22.7374   19.5907 C   0  0  0  0  0  0
  -28.4742  -23.5584   20.6487 C   0  0  0  0  0  0
  -28.2813  -21.3293   19.4773 C   0  0  0  0  0  0
  -29.2743  -22.8506   21.6028 C   0  0  0  0  0  0
  -29.4963  -21.4142   21.5387 C   0  0  0  0  0  0
  -29.0266  -20.5820   20.4579 C   0  0  0  0  0  0
  -30.1708  -17.3224   18.3429 C   0  0  0  0  0  0
  -28.6566  -17.5243   18.5875 C   0  0  0  0  0  0
  -30.7130  -18.6126   20.4352 C   0  0  0  0  0  0
  -28.8455  -16.6630   20.9062 C   0  0  0  0  0  0
  -30.8479  -17.1913   19.7210 C   0  0  1  0  0  0
  -28.4340  -17.9775   20.0653 C   0  0  1  0  0  0
  -27.7358  -20.6645   18.2339 C   0  0  0  0  0  0
  -29.8776  -23.6524   22.7525 C   0  0  0  0  0  0
  -30.1990  -20.7405   22.7161 C   0  0  0  0  0  0
  -27.8633  -25.0254   20.9037 C   0  0  0  0  0  0
  -29.3235  -19.1356   20.3969 N   0  0  0  0  0  0
  -30.1316  -16.0561   20.4125 N   0  0  0  0  0  0
  -31.4479  -12.5934   19.1367 H   0  0  0  0  0  0
  -30.3638  -11.5328   19.9776 H   0  0  0  0  0  0
  -29.7795  -11.7137   17.5303 H   0  0  0  0  0  0
  -29.6019  -13.4465   17.6877 H   0  0  0  0  0  0
  -27.9072  -11.2719   18.9553 H   0  0  0  0  0  0
  -27.3584  -12.4732   17.8138 H   0  0  0  0  0  0
  -27.6035  -14.2437   19.4186 H   0  0  0  0  0  0
  -28.7531  -12.2508   21.4386 H   0  0  0  0  0  0
  -28.4287  -13.9324   21.7677 H   0  0  0  0  0  0
  -25.2767   -9.5703   22.4790 H   0  0  0  0  0  0
  -24.0027   -7.4626   22.7459 H   0  0  0  0  0  0
  -21.0870   -8.8789   19.8940 H   0  0  0  0  0  0
  -22.3720  -10.9689   19.6187 H   0  0  0  0  0  0
  -21.2021   -7.6147   23.9719 H   0  0  0  0  0  0
  -21.1455   -6.0513   25.9069 H   0  0  0  0  0  0
  -22.0609   -2.7616   23.2852 H   0  0  0  0  0  0
  -22.4094  -11.9871   22.4833 H   0  0  0  0  0  0
  -21.1048  -13.1187   22.2625 H   0  0  0  0  0  0
  -24.6204  -15.8323   20.4907 H   0  0  0  0  0  0
  -26.2361  -15.6358   20.0377 H   0  0  0  0  0  0
  -26.7214  -32.5403   23.1077 H   0  0  0  0  0  0
  -25.0040  -33.9677   25.0366 H   0  0  0  0  0  0
  -22.7260  -31.3010   21.3961 H   0  0  0  0  0  0
  -23.3737  -35.9643   23.3296 H   0  0  0  0  0  0
  -24.3578  -36.8929   22.2051 H   0  0  0  0  0  0
  -23.7261  -37.6502   23.6679 H   0  0  0  0  0  0
  -26.1154  -31.5264   20.6086 H   0  0  0  0  0  0
  -26.8546  -30.8173   22.0114 H   0  0  0  0  0  0
  -28.1146  -28.9021   21.2369 H   0  0  0  0  0  0
  -25.9781  -25.9226   18.9669 H   0  0  0  0  0  0
  -23.9795  -27.3328   18.9604 H   0  0  0  0  0  0
  -23.7735  -30.5971   19.4014 H   0  0  0  0  0  0
  -22.7673  -29.2512   19.8480 H   0  0  0  0  0  0
  -25.1299  -36.1900   25.0805 H   0  0  0  0  0  0
  -20.9999  -28.3296   24.1404 H   0  0  0  0  0  0
  -21.6655  -26.7540   22.1155 H   0  0  0  0  0  0
  -20.5797  -26.2307   23.3620 H   0  0  0  0  0  0
  -19.6943  -25.6301   21.1243 H   0  0  0  0  0  0
  -19.6681  -27.3202   20.6754 H   0  0  0  0  0  0
  -17.4233  -26.6736   21.3994 H   0  0  0  0  0  0
  -18.0306  -26.0048   22.8997 H   0  0  0  0  0  0
  -19.7901  -30.7294   24.2278 H   0  0  0  0  0  0
  -17.4979  -31.6301   24.5113 H   0  0  0  0  0  0
  -15.5340  -30.2993   23.7614 H   0  0  0  0  0  0
  -15.8671  -28.0784   22.7109 H   0  0  0  0  0  0
  -24.5906  -30.7074   25.7776 H   0  0  0  0  0  0
  -24.8919  -32.2905   26.4855 H   0  0  0  0  0  0
  -25.8043  -30.8921   27.0228 H   0  0  0  0  0  0
  -26.2935  -29.6741   24.1226 H   0  0  0  0  0  0
  -27.4016  -29.7250   25.4729 H   0  0  0  0  0  0
  -27.8821  -30.4259   23.9464 H   0  0  0  0  0  0
  -27.2632  -33.3630   26.2074 H   0  0  0  0  0  0
  -28.3875  -32.6888   25.0361 H   0  0  0  0  0  0
  -28.0699  -31.8467   26.5445 H   0  0  0  0  0  0
  -28.2585  -38.0104   24.7499 H   0  0  0  0  0  0
  -28.1071  -36.2628   24.6295 H   0  0  0  0  0  0
  -27.2291  -37.1466   25.8865 H   0  0  0  0  0  0
  -20.9382  -29.8799   21.6878 H   0  0  0  0  0  0
  -26.0157  -38.2831   24.1407 H   0  0  0  0  0  0
  -27.3848  -23.2117   18.8479 H   0  0  0  0  0  0
  -30.5828  -18.1816   17.8123 H   0  0  0  0  0  0
  -30.3517  -16.4460   17.7212 H   0  0  0  0  0  0
  -28.1428  -16.5739   18.4360 H   0  0  0  0  0  0
  -28.2332  -18.1676   17.8272 H   0  0  0  0  0  0
  -31.3687  -19.3356   19.9468 H   0  0  0  0  0  0
  -31.0613  -18.5283   21.4637 H   0  0  0  0  0  0
  -28.0462  -15.9340   20.8333 H   0  0  0  0  0  0
  -28.9350  -16.8956   21.9691 H   0  0  0  0  0  0
  -31.9127  -16.9917   19.5939 H   0  0  0  0  0  0
  -27.3912  -18.2375   20.2535 H   0  0  0  0  0  0
  -27.0486  -19.8646   18.5026 H   0  0  0  0  0  0
  -28.5636  -20.2821   17.6375 H   0  0  0  0  0  0
  -27.1836  -21.3604   17.6013 H   0  0  0  0  0  0
  -30.0474  -24.6924   22.4748 H   0  0  0  0  0  0
  -29.2208  -23.6306   23.6219 H   0  0  0  0  0  0
  -30.8549  -23.2661   23.0426 H   0  0  0  0  0  0
  -31.2759  -20.7089   22.5519 H   0  0  0  0  0  0
  -30.0043  -21.2446   23.6625 H   0  0  0  0  0  0
  -29.8351  -19.7258   22.8703 H   0  0  0  0  0  0
  -27.9700  -25.2529   21.9632 H   0  0  0  0  0  0
  -26.7901  -24.8652   20.8151 H   0  0  0  0  0  0
  1 25  1  0  0  0
  1 30  2  0  0  0
  1 88  1  0  0  0
  2  3  1  0  0  0
  2 25  1  0  0  0
  2 89  1  0  0  0
  2 90  1  0  0  0
  3  4  1  0  0  0
  3 91  1  0  0  0
  3 92  1  0  0  0
  4  5  1  0  0  0
  4 93  1  0  0  0
  4 94  1  0  0  0
  5  6  1  0  0  0
  5 26  1  0  0  0
  5 95  1  0  0  0
  6 25  1  0  0  0
  6 96  1  0  0  0
  6 97  1  0  0  0
  7  8  2  0  0  0
  7 26  1  0  0  0
  7 29  1  0  0  0
  8  9  1  0  0  0
  8 22  1  0  0  0
  9 10  1  0  0  0
  9 27  2  0  0  0
 10 11  2  0  0  0
 10 15  1  0  0  0
 11 12  1  0  0  0
 11 98  1  0  0  0
 12 13  2  0  0  0
 12 99  1  0  0  0
 13 14  1  0  0  0
 13 31  1  0  0  0
 14 15  2  0  0  0
 14100  1  0  0  0
 15101  1  0  0  0
 16 17  2  0  0  0
 16 21  1  0  0  0
 16 31  1  0  0  0
 17 18  1  0  0  0
 17102  1  0  0  0
 18 19  2  0  0  0
 18103  1  0  0  0
 19 20  1  0  0  0
 19 24  1  0  0  0
 20 21  2  0  0  0
 20104  1  0  0  0
 21 23  1  0  0  0
 22 28  1  0  0  0
 22 32  2  0  0  0
 26 27  1  0  0  0
 28105  1  0  0  0
 28106  1  0  0  0
 29107  1  0  0  0
 29108  1  0  0  0
 33 34  1  0  0  0
 33 66  1  0  0  0
 33 70  2  0  0  0
 34 36  1  0  0  0
 34 59  1  0  0  0
 34109  1  0  0  0
 35 44  2  0  0  0
 35 45  1  0  0  0
 35 68  1  0  0  0
 36 56  1  0  0  0
 36110  1  0  0  0
 37 39  1  0  0  0
 37 47  1  0  0  0
 37 66  1  0  0  0
 37111  1  0  0  0
 38 43  2  0  0  0
 38 46  1  0  0  0
 38 47  1  0  0  0
 39 64  1  0  0  0
 39 67  2  0  0  0
 40 52  1  0  0  0
 40 53  2  0  0  0
 40 58  1  0  0  0
 41112  1  0  0  0
 41113  1  0  0  0
 41114  1  0  0  0
 41 48  1  0  0  0
 42 43  1  0  0  0
 42 66  1  0  0  0
 42115  1  0  0  0
 42116  1  0  0  0
 43 44  1  0  0  0
 44117  1  0  0  0
 45 46  2  0  0  0
 45118  1  0  0  0
 46119  1  0  0  0
 47120  1  0  0  0
 47121  1  0  0  0
 48 56  1  0  0  0
 48 65  1  0  0  0
 48122  1  0  0  0
 49 50  1  0  0  0
 49 53  1  0  0  0
 49 64  1  0  0  0
 49123  1  0  0  0
 50 51  1  0  0  0
 50124  1  0  0  0
 50125  1  0  0  0
 51 52  1  0  0  0
 51126  1  0  0  0
 51127  1  0  0  0
 52128  1  0  0  0
 52129  1  0  0  0
 53 54  1  0  0  0
 54 55  2  0  0  0
 54130  1  0  0  0
 55 57  1  0  0  0
 55131  1  0  0  0
 56 69  2  0  0  0
 57 58  2  0  0  0
 57132  1  0  0  0
 58133  1  0  0  0
 59 60  1  0  0  0
 59 61  1  0  0  0
 59 62  1  0  0  0
 60134  1  0  0  0
 60135  1  0  0  0
 60136  1  0  0  0
 61137  1  0  0  0
 61138  1  0  0  0
 61139  1  0  0  0
 62140  1  0  0  0
 62141  1  0  0  0
 62142  1  0  0  0
 63 65  1  0  0  0
 63143  1  0  0  0
 63144  1  0  0  0
 63145  1  0  0  0
 64146  1  0  0  0
 65147  1  0  0  0
 68 86  1  0  0  0
 71 72  2  0  0  0
 71 73  1  0  0  0
 71148  1  0  0  0
 72 74  1  0  0  0
 72 86  1  0  0  0
 73 76  2  0  0  0
 73 83  1  0  0  0
 74 75  2  0  0  0
 74 84  1  0  0  0
 75 76  1  0  0  0
 75 85  1  0  0  0
 76 87  1  0  0  0
 77 78  1  0  0  0
 77149  1  0  0  0
 77150  1  0  0  0
 77 81  1  0  0  0
 78151  1  0  0  0
 78152  1  0  0  0
 78 82  1  0  0  0
 79 81  1  0  0  0
 79 87  1  0  0  0
 79153  1  0  0  0
 79154  1  0  0  0
 80 82  1  0  0  0
 80 88  1  0  0  0
 80155  1  0  0  0
 80156  1  0  0  0
 81 88  1  0  0  0
 81157  1  0  0  0
 82 87  1  0  0  0
 82158  1  0  0  0
 83159  1  0  0  0
 83160  1  0  0  0
 83161  1  0  0  0
 84162  1  0  0  0
 84163  1  0  0  0
 84164  1  0  0  0
 85165  1  0  0  0
 85166  1  0  0  0
 85167  1  0  0  0
 86168  1  0  0  0
 86169  1  0  0  0
M  ISO  4   1 100  68 101  86 101  88 100
M  END
> <chiral flag>
0

> <version>
0

> <s_m_source_file>
/data/baiqing/PycharmProjects/Reinvent-master-3.2/result/LINK_invent/BTK/process_docking_weight1_custom_sum_contain_oxygen_bond_distance_aromatic_linkinvent_7_9_3/rearranged_h_0165.sdf

> <i_m_source_file_index>
52

> <r_mmod_Potential_Energy-OPLS-2005>
579.224792480469

> <r_mmod_Stretch_Energy-OPLS-2005>
145.266128540039

> <r_mmod_Bend_Energy-OPLS-2005>
248.150665283203

> <r_mmod_Torsional_Energy-OPLS-2005>
445.968383789062

> <r_mmod_Improper_Torsional_Energy-OPLS-2005>
15.3775234222412

> <r_mmod_Van_der_Waal_Energy-OPLS-2005>
193.155776977539

> <r_mmod_Electrostatic_Energy-OPLS-2005>
-375.526275634766

> <r_mmod_Solvation_Energy-OPLS-2005>
-199.494613647461

> <b_mmod_Minimization_Converged-OPLS-2005>
0

> <r_mmod_RMS_Derivative-OPLS-2005>
2.42258644104004

$$$$
52
                    3D
 Structure written by MMmdl.
166175  0  0  1  0            999 V2000
  -30.6091  -14.5474   20.5425 C   0  0  0  0  0  0
  -30.4441  -12.3539   19.3928 C   0  0  0  0  0  0
  -29.4889  -12.5261   18.1894 C   0  0  0  0  0  0
  -28.0120  -12.3625   18.6083 C   0  0  0  0  0  0
  -27.6593  -13.1936   19.8691 C   0  0  2  0  0  0
  -28.7136  -12.9554   20.9744 C   0  0  0  0  0  0
  -25.2614  -13.8123   20.5690 C   0  0  0  0  0  0
  -24.1851  -13.0397   20.9174 C   0  0  0  0  0  0
  -24.6398  -11.6875   20.8735 C   0  0  0  0  0  0
  -23.9059  -10.4268   21.0412 C   0  0  0  0  0  0
  -24.3607   -9.4187   21.9195 C   0  0  0  0  0  0
  -23.6282   -8.2232   22.0776 C   0  0  0  0  0  0
  -22.4273   -8.0271   21.3552 C   0  0  0  0  0  0
  -21.9894   -9.0244   20.4661 C   0  0  0  0  0  0
  -22.7228  -10.2123   20.3067 C   0  0  0  0  0  0
  -21.6844   -6.0733   22.5281 C   0  0  0  0  0  0
  -21.4010   -6.5638   23.8215 C   0  0  0  0  0  0
  -21.3659   -5.6791   24.9176 C   0  0  0  0  0  0
  -21.6049   -4.3060   24.7226 C   0  0  0  0  0  0
  -21.8820   -3.8149   23.4347 C   0  0  0  0  0  0
  -21.9192   -4.6959   22.3403 C   0  0  0  0  0  0
  -22.7885  -13.5229   21.1817 C   0  0  0  0  0  0
  -22.1659   -4.2149   21.0981 F   0  0  0  0  0  0
  -21.5634   -3.4545   25.7740 F   0  0  0  0  0  0
  -30.0267  -13.3204   20.4183 N   0  0  0  0  0  0
  -26.3025  -12.9261   20.3363 N   0  0  0  0  0  0
  -25.9320  -11.6435   20.5766 N   0  0  0  0  0  0
  -22.0506  -12.8250   22.0389 N   0  0  0  0  0  0
  -25.4278  -15.1838   20.4109 N   0  0  0  0  0  0
  -31.7604  -14.7856   20.1614 O   0  0  0  0  0  0
  -21.6640   -6.8868   21.4250 O   0  0  0  0  0  0
  -22.3585  -14.5529   20.6654 O   0  0  0  0  0  0
  -24.6175  -31.8619   23.2031 C   0  0  0  0  0  0
  -25.9028  -32.4790   23.8360 C   0  0  1  0  0  0
  -27.2398  -27.3695   20.1442 C   0  0  0  0  0  0
  -25.5865  -33.8583   24.2281 N   0  0  0  0  0  0
  -23.4132  -30.4808   21.5420 C   0  0  2  0  0  0
  -24.8663  -28.9322   20.1212 C   0  0  0  0  0  0
  -22.7442  -29.4618   22.4927 C   0  0  0  0  0  0
  -18.0277  -28.1371   22.8472 C   0  0  0  0  0  0
  -24.1467  -36.7285   23.2646 C   0  0  0  0  0  0
  -25.9453  -30.8138   21.3640 C   0  0  0  0  0  0
  -26.0269  -29.4373   20.7208 C   0  0  0  0  0  0
  -27.2198  -28.6683   20.7210 C   0  0  0  0  0  0
  -26.0638  -26.8902   19.5318 C   0  0  0  0  0  0
  -24.8842  -27.6616   19.5169 C   0  0  0  0  0  0
  -23.6302  -29.8064   20.1591 C   0  0  0  0  0  0
  -25.4096  -36.3088   24.0336 C   0  0  1  0  0  0
  -20.5876  -28.3663   23.1270 C   0  0  2  0  0  0
  -20.6761  -26.9384   22.5396 C   0  0  0  0  0  0
  -19.5740  -26.6378   21.5188 C   0  0  0  0  0  0
  -18.1928  -26.7910   22.1613 C   0  0  0  0  0  0
  -19.1533  -28.8825   23.2871 C   0  0  0  0  0  0
  -18.9468  -30.1427   23.8882 C   0  0  0  0  0  0
  -17.6479  -30.6563   24.0567 C   0  0  0  0  0  0
  -25.9030  -34.9450   23.5115 C   0  0  0  0  0  0
  -16.5361  -29.9084   23.6312 C   0  0  0  0  0  0
  -16.7271  -28.6495   23.0343 C   0  0  0  0  0  0
  -26.4474  -31.6603   25.0690 C   0  0  0  0  0  0
  -25.3737  -31.3720   26.1440 C   0  0  0  0  0  0
  -27.0350  -30.3059   24.6079 C   0  0  0  0  0  0
  -27.6051  -32.4362   25.7419 C   0  0  0  0  0  0
  -27.5574  -37.1787   24.8480 C   0  0  0  0  0  0
  -21.4167  -29.3025   22.3687 N   0  0  0  0  0  0
  -26.4291  -37.3776   23.9420 N   0  0  0  0  0  0
  -24.6770  -31.0669   22.0958 N   0  0  0  0  0  0
  -23.4184  -28.8173   23.3001 O   0  0  0  0  0  0
  -28.3883  -26.5892   20.1442 O   0  0  0  0  0  0
  -26.5619  -34.8916   22.4694 O   0  0  0  0  0  0
  -23.5339  -32.1400   23.7372 O   0  0  0  0  0  0
  -29.7875  -18.3858   23.2671 C   0  0  0  0  0  0
  -30.0981  -17.9752   20.5312 C   0  0  0  0  0  0
  -29.6765  -17.0761   22.7643 C   0  0  0  0  0  0
  -30.0378  -19.4936   22.4353 C   0  0  0  0  0  0
  -30.1610  -19.3212   21.0292 C   0  0  0  0  0  0
  -29.9023  -16.8484   21.3867 C   0  0  0  0  0  0
  -27.8934  -15.4030   23.7255 C   0  0  0  0  0  0
  -28.3644  -16.2412   24.8828 C   0  0  0  0  0  0
  -29.2964  -15.9737   23.7170 C   0  0  0  0  0  0
  -30.1569  -20.8435   23.1209 C   0  0  0  0  0  0
  -28.7561  -24.0601   19.9006 C   0  0  0  0  0  0
  -29.3256  -21.5702   19.7256 C   0  0  0  0  0  0
  -28.3322  -25.2825   20.7993 C   0  0  0  0  0  0
  -30.4670  -20.5387   20.0970 C   0  0  2  0  0  0
  -29.7212  -15.5139   20.8861 N   0  0  0  0  0  0
  -29.1182  -22.7720   20.6118 N   0  3  0  0  0  0
  -31.1953  -19.9839   18.5552 Cl  0  0  0  0  0  0
  -31.4786  -12.5059   19.0783 H   0  0  0  0  0  0
  -30.3927  -11.3371   19.7848 H   0  0  0  0  0  0
  -29.7365  -11.8101   17.4046 H   0  0  0  0  0  0
  -29.6277  -13.5174   17.7528 H   0  0  0  0  0  0
  -27.8333  -11.3039   18.7980 H   0  0  0  0  0  0
  -27.3537  -12.6377   17.7829 H   0  0  0  0  0  0
  -27.6977  -14.2408   19.5702 H   0  0  0  0  0  0
  -28.7174  -11.9067   21.2759 H   0  0  0  0  0  0
  -28.4819  -13.5129   21.8790 H   0  0  0  0  0  0
  -25.2739   -9.5675   22.4770 H   0  0  0  0  0  0
  -23.9980   -7.4645   22.7513 H   0  0  0  0  0  0
  -21.0807   -8.8763   19.8986 H   0  0  0  0  0  0
  -22.3665  -10.9668   19.6181 H   0  0  0  0  0  0
  -21.2000   -7.6146   23.9719 H   0  0  0  0  0  0
  -21.1477   -6.0522   25.9079 H   0  0  0  0  0  0
  -22.0598   -2.7615   23.2847 H   0  0  0  0  0  0
  -22.4081  -11.9873   22.4738 H   0  0  0  0  0  0
  -21.1157  -13.1361   22.2642 H   0  0  0  0  0  0
  -24.6454  -15.8204   20.5110 H   0  0  0  0  0  0
  -26.2626  -15.6388   20.0659 H   0  0  0  0  0  0
  -26.7098  -32.5538   23.1139 H   0  0  0  0  0  0
  -25.0052  -33.9754   25.0443 H   0  0  0  0  0  0
  -22.7019  -31.2946   21.3906 H   0  0  0  0  0  0
  -23.3735  -35.9612   23.3335 H   0  0  0  0  0  0
  -24.3584  -36.8894   22.2062 H   0  0  0  0  0  0
  -23.7215  -37.6487   23.6658 H   0  0  0  0  0  0
  -26.0547  -31.5688   20.5853 H   0  0  0  0  0  0
  -26.8337  -30.8851   21.9812 H   0  0  0  0  0  0
  -28.1183  -29.0567   21.1848 H   0  0  0  0  0  0
  -26.0608  -25.9156   19.0638 H   0  0  0  0  0  0
  -23.9982  -27.2680   19.0400 H   0  0  0  0  0  0
  -23.7519  -30.5779   19.3981 H   0  0  0  0  0  0
  -22.7532  -29.2309   19.8553 H   0  0  0  0  0  0
  -25.1273  -36.1965   25.0833 H   0  0  0  0  0  0
  -20.9965  -28.3237   24.1390 H   0  0  0  0  0  0
  -20.5660  -26.2276   23.3599 H   0  0  0  0  0  0
  -21.6632  -26.7422   22.1193 H   0  0  0  0  0  0
  -19.6904  -25.6295   21.1211 H   0  0  0  0  0  0
  -19.6657  -27.3178   20.6697 H   0  0  0  0  0  0
  -17.4189  -26.6638   21.4019 H   0  0  0  0  0  0
  -18.0330  -26.0025   22.8979 H   0  0  0  0  0  0
  -19.7957  -30.7204   24.2265 H   0  0  0  0  0  0
  -17.5055  -31.6242   24.5160 H   0  0  0  0  0  0
  -15.5380  -30.2999   23.7601 H   0  0  0  0  0  0
  -15.8677  -28.0819   22.7049 H   0  0  0  0  0  0
  -24.5884  -30.7101   25.7778 H   0  0  0  0  0  0
  -24.8941  -32.2872   26.4894 H   0  0  0  0  0  0
  -25.8060  -30.8880   27.0200 H   0  0  0  0  0  0
  -26.2883  -29.6744   24.1250 H   0  0  0  0  0  0
  -27.4290  -29.7367   25.4509 H   0  0  0  0  0  0
  -27.8629  -30.4416   23.9123 H   0  0  0  0  0  0
  -27.2681  -33.3677   26.1977 H   0  0  0  0  0  0
  -28.3821  -32.6932   25.0206 H   0  0  0  0  0  0
  -28.0766  -31.8530   26.5338 H   0  0  0  0  0  0
  -28.2606  -38.0068   24.7536 H   0  0  0  0  0  0
  -28.1059  -36.2605   24.6312 H   0  0  0  0  0  0
  -27.2304  -37.1461   25.8889 H   0  0  0  0  0  0
  -20.9333  -29.8792   21.6956 H   0  0  0  0  0  0
  -26.0175  -38.2850   24.1448 H   0  0  0  0  0  0
  -29.6621  -18.5477   24.3285 H   0  0  0  0  0  0
  -30.1864  -17.7892   19.4717 H   0  0  0  0  0  0
  -27.1608  -15.8512   23.0561 H   0  0  0  0  0  0
  -27.7435  -14.3481   23.9424 H   0  0  0  0  0  0
  -28.5491  -15.7238   25.8218 H   0  0  0  0  0  0
  -27.9012  -17.2204   24.9765 H   0  0  0  0  0  0
  -30.1293  -15.2922   23.8812 H   0  0  0  0  0  0
  -30.9941  -21.4308   22.7468 H   0  0  0  0  0  0
  -30.3237  -20.7154   24.1919 H   0  0  0  0  0  0
  -29.2331  -21.4086   23.0111 H   0  0  0  0  0  0
  -29.6245  -24.3601   19.3169 H   0  0  0  0  0  0
  -27.9554  -23.8628   19.1881 H   0  0  0  0  0  0
  -28.3821  -21.0566   19.5345 H   0  0  0  0  0  0
  -29.6087  -21.9851   18.7575 H   0  0  0  0  0  0
  -27.3479  -25.1014   21.2344 H   0  0  0  0  0  0
  -29.0191  -25.3463   21.6447 H   0  0  0  0  0  0
  -31.2864  -21.0863   20.5597 H   0  0  0  0  0  0
  -28.8191  -15.1142   21.0881 H   0  0  0  0  0  0
  -28.3947  -22.5348   21.2745 H   0  0  0  0  0  0
  -29.9691  -22.9319   21.1292 H   0  0  0  0  0  0
  1 25  1  0  0  0
  1 30  2  0  0  0
  1 85  1  0  0  0
  2  3  1  0  0  0
  2 25  1  0  0  0
  2 88  1  0  0  0
  2 89  1  0  0  0
  3  4  1  0  0  0
  3 90  1  0  0  0
  3 91  1  0  0  0
  4  5  1  0  0  0
  4 92  1  0  0  0
  4 93  1  0  0  0
  5  6  1  0  0  0
  5 26  1  0  0  0
  5 94  1  0  0  0
  6 25  1  0  0  0
  6 95  1  0  0  0
  6 96  1  0  0  0
  7  8  2  0  0  0
  7 26  1  0  0  0
  7 29  1  0  0  0
  8  9  1  0  0  0
  8 22  1  0  0  0
  9 10  1  0  0  0
  9 27  2  0  0  0
 10 11  2  0  0  0
 10 15  1  0  0  0
 11 12  1  0  0  0
 11 97  1  0  0  0
 12 13  2  0  0  0
 12 98  1  0  0  0
 13 14  1  0  0  0
 13 31  1  0  0  0
 14 15  2  0  0  0
 14 99  1  0  0  0
 15100  1  0  0  0
 16 17  2  0  0  0
 16 21  1  0  0  0
 16 31  1  0  0  0
 17 18  1  0  0  0
 17101  1  0  0  0
 18 19  2  0  0  0
 18102  1  0  0  0
 19 20  1  0  0  0
 19 24  1  0  0  0
 20 21  2  0  0  0
 20103  1  0  0  0
 21 23  1  0  0  0
 22 28  1  0  0  0
 22 32  2  0  0  0
 26 27  1  0  0  0
 28104  1  0  0  0
 28105  1  0  0  0
 29106  1  0  0  0
 29107  1  0  0  0
 33 34  1  0  0  0
 33 66  1  0  0  0
 33 70  2  0  0  0
 34 36  1  0  0  0
 34 59  1  0  0  0
 34108  1  0  0  0
 35 44  2  0  0  0
 35 45  1  0  0  0
 35 68  1  0  0  0
 36 56  1  0  0  0
 36109  1  0  0  0
 37 39  1  0  0  0
 37 47  1  0  0  0
 37 66  1  0  0  0
 37110  1  0  0  0
 38 43  2  0  0  0
 38 46  1  0  0  0
 38 47  1  0  0  0
 39 64  1  0  0  0
 39 67  2  0  0  0
 40 52  1  0  0  0
 40 53  2  0  0  0
 40 58  1  0  0  0
 41111  1  0  0  0
 41112  1  0  0  0
 41113  1  0  0  0
 41 48  1  0  0  0
 42 43  1  0  0  0
 42 66  1  0  0  0
 42114  1  0  0  0
 42115  1  0  0  0
 43 44  1  0  0  0
 44116  1  0  0  0
 45 46  2  0  0  0
 45117  1  0  0  0
 46118  1  0  0  0
 47119  1  0  0  0
 47120  1  0  0  0
 48 56  1  0  0  0
 48 65  1  0  0  0
 48121  1  0  0  0
 49 50  1  0  0  0
 49 53  1  0  0  0
 49 64  1  0  0  0
 49122  1  0  0  0
 50 51  1  0  0  0
 50123  1  0  0  0
 50124  1  0  0  0
 51 52  1  0  0  0
 51125  1  0  0  0
 51126  1  0  0  0
 52127  1  0  0  0
 52128  1  0  0  0
 53 54  1  0  0  0
 54 55  2  0  0  0
 54129  1  0  0  0
 55 57  1  0  0  0
 55130  1  0  0  0
 56 69  2  0  0  0
 57 58  2  0  0  0
 57131  1  0  0  0
 58132  1  0  0  0
 59 60  1  0  0  0
 59 61  1  0  0  0
 59 62  1  0  0  0
 60133  1  0  0  0
 60134  1  0  0  0
 60135  1  0  0  0
 61136  1  0  0  0
 61137  1  0  0  0
 61138  1  0  0  0
 62139  1  0  0  0
 62140  1  0  0  0
 62141  1  0  0  0
 63 65  1  0  0  0
 63142  1  0  0  0
 63143  1  0  0  0
 63144  1  0  0  0
 64145  1  0  0  0
 65146  1  0  0  0
 68 83  1  0  0  0
 71 73  2  0  0  0
 71 74  1  0  0  0
 71147  1  0  0  0
 72 75  1  0  0  0
 72 76  2  0  0  0
 72148  1  0  0  0
 73 76  1  0  0  0
 73 79  1  0  0  0
 74 75  2  0  0  0
 74 80  1  0  0  0
 75 84  1  0  0  0
 76 85  1  0  0  0
 77 78  1  0  0  0
 77 79  1  0  0  0
 77149  1  0  0  0
 77150  1  0  0  0
 78 79  1  0  0  0
 78151  1  0  0  0
 78152  1  0  0  0
 79153  1  0  0  0
 80154  1  0  0  0
 80155  1  0  0  0
 80156  1  0  0  0
 81 83  1  0  0  0
 81 86  1  0  0  0
 81157  1  0  0  0
 81158  1  0  0  0
 82 84  1  0  0  0
 82 86  1  0  0  0
 82159  1  0  0  0
 82160  1  0  0  0
 83161  1  0  0  0
 83162  1  0  0  0
 84 87  1  0  0  0
 84163  1  0  0  0
 85164  1  0  0  0
 86165  1  0  0  0
 86166  1  0  0  0
M  CHG  1  86   1
M  ISO  4   1 100  68 101  83 101  85 100
M  END
> <chiral flag>
0

> <version>
0

> <s_m_source_file>
/data/baiqing/PycharmProjects/Reinvent-master-3.2/result/LINK_invent/BTK/process_docking_weight1_custom_sum_contain_oxygen_bond_distance_aromatic_linkinvent_7_9_3/rearranged_h_0165.sdf

> <i_m_source_file_index>
53

> <r_mmod_Potential_Energy-OPLS-2005>
-29.8361301422119

> <r_mmod_Stretch_Energy-OPLS-2005>
59.0587043762207

> <r_mmod_Bend_Energy-OPLS-2005>
129.069839477539

> <r_mmod_Torsional_Energy-OPLS-2005>
317.953918457031

> <r_mmod_Improper_Torsional_Energy-OPLS-2005>
8.10746669769287

> <r_mmod_Van_der_Waal_Energy-OPLS-2005>
140.761001586914

> <r_mmod_Electrostatic_Energy-OPLS-2005>
-251.294952392578

> <r_mmod_Solvation_Energy-OPLS-2005>
-460.813171386719

> <b_mmod_Minimization_Converged-OPLS-2005>
0

> <r_mmod_RMS_Derivative-OPLS-2005>
3.65581035614014

$$$$
53
                    3D
 Structure written by MMmdl.
178189  0  0  1  0            999 V2000
  -30.6854  -14.6223   20.4663 C   0  0  0  0  0  0
  -30.4255  -12.3797   19.4498 C   0  0  0  0  0  0
  -29.5028  -12.4913   18.2189 C   0  0  0  0  0  0
  -28.0270  -12.3389   18.6368 C   0  0  0  0  0  0
  -27.6487  -13.2242   19.8552 C   0  0  2  0  0  0
  -28.7000  -13.1286   20.9828 C   0  0  0  0  0  0
  -25.2558  -13.8186   20.5724 C   0  0  0  0  0  0
  -24.1818  -13.0446   20.9196 C   0  0  0  0  0  0
  -24.6402  -11.6920   20.8747 C   0  0  0  0  0  0
  -23.9074  -10.4297   21.0399 C   0  0  0  0  0  0
  -24.3619   -9.4211   21.9173 C   0  0  0  0  0  0
  -23.6289   -8.2243   22.0756 C   0  0  0  0  0  0
  -22.4268   -8.0288   21.3545 C   0  0  0  0  0  0
  -21.9902   -9.0259   20.4648 C   0  0  0  0  0  0
  -22.7243  -10.2129   20.3052 C   0  0  0  0  0  0
  -21.6848   -6.0735   22.5275 C   0  0  0  0  0  0
  -21.4019   -6.5628   23.8212 C   0  0  0  0  0  0
  -21.3663   -5.6775   24.9166 C   0  0  0  0  0  0
  -21.6045   -4.3041   24.7211 C   0  0  0  0  0  0
  -21.8817   -3.8143   23.4334 C   0  0  0  0  0  0
  -21.9194   -4.6968   22.3394 C   0  0  0  0  0  0
  -22.7837  -13.5244   21.1843 C   0  0  0  0  0  0
  -22.1664   -4.2163   21.0972 F   0  0  0  0  0  0
  -21.5634   -3.4517   25.7719 F   0  0  0  0  0  0
  -30.0117  -13.4328   20.3955 N   0  0  0  0  0  0
  -26.2988  -12.9383   20.3334 N   0  0  0  0  0  0
  -25.9332  -11.6532   20.5760 N   0  0  0  0  0  0
  -22.0473  -12.8246   22.0397 N   0  0  0  0  0  0
  -25.4271  -15.1909   20.4188 N   0  0  0  0  0  0
  -31.8810  -14.6967   20.1698 O   0  0  0  0  0  0
  -21.6638   -6.8880   21.4241 O   0  0  0  0  0  0
  -22.3528  -14.5555   20.6692 O   0  0  0  0  0  0
  -24.6233  -31.8610   23.2054 C   0  0  0  0  0  0
  -25.9088  -32.4787   23.8366 C   0  0  1  0  0  0
  -27.2287  -27.3536   20.1111 C   0  0  0  0  0  0
  -25.5909  -33.8589   24.2298 N   0  0  0  0  0  0
  -23.4182  -30.4837   21.5464 C   0  0  2  0  0  0
  -24.8703  -28.9497   20.1030 C   0  0  0  0  0  0
  -22.7471  -29.4612   22.4940 C   0  0  0  0  0  0
  -18.0279  -28.1393   22.8488 C   0  0  0  0  0  0
  -24.1487  -36.7300   23.2639 C   0  0  0  0  0  0
  -25.9570  -30.8036   21.3727 C   0  0  0  0  0  0
  -26.0376  -29.4364   20.7088 C   0  0  0  0  0  0
  -27.2247  -28.6486   20.7068 C   0  0  0  0  0  0
  -26.0492  -26.9170   19.4711 C   0  0  0  0  0  0
  -24.8776  -27.6947   19.4728 C   0  0  0  0  0  0
  -23.6336  -29.8220   20.1594 C   0  0  0  0  0  0
  -25.4111  -36.3091   24.0333 C   0  0  1  0  0  0
  -20.5878  -28.3687   23.1297 C   0  0  2  0  0  0
  -20.6771  -26.9410   22.5422 C   0  0  0  0  0  0
  -19.5745  -26.6388   21.5221 C   0  0  0  0  0  0
  -18.1922  -26.7938   22.1629 C   0  0  0  0  0  0
  -19.1532  -28.8864   23.2884 C   0  0  0  0  0  0
  -18.9459  -30.1465   23.8891 C   0  0  0  0  0  0
  -17.6457  -30.6594   24.0571 C   0  0  0  0  0  0
  -25.9044  -34.9455   23.5116 C   0  0  0  0  0  0
  -16.5348  -29.9096   23.6331 C   0  0  0  0  0  0
  -16.7266  -28.6523   23.0344 C   0  0  0  0  0  0
  -26.4483  -31.6591   25.0727 C   0  0  0  0  0  0
  -25.3726  -31.3730   26.1462 C   0  0  0  0  0  0
  -27.0323  -30.3015   24.6166 C   0  0  0  0  0  0
  -27.6046  -32.4322   25.7491 C   0  0  0  0  0  0
  -27.5579  -37.1805   24.8462 C   0  0  0  0  0  0
  -21.4189  -29.3037   22.3697 N   0  0  0  0  0  0
  -26.4293  -37.3783   23.9407 N   0  0  0  0  0  0
  -24.6843  -31.0633   22.0990 N   0  0  0  0  0  0
  -23.4208  -28.8137   23.3003 O   0  0  0  0  0  0
  -28.2810  -26.4436   20.2248 O   0  0  0  0  0  0
  -26.5615  -34.8921   22.4682 O   0  0  0  0  0  0
  -23.5399  -32.1390   23.7388 O   0  0  0  0  0  0
  -29.0195  -22.6400   20.2390 C   0  0  0  0  0  0
  -29.7166  -22.9253   19.0344 C   0  0  0  0  0  0
  -29.0216  -21.2631   20.6996 C   0  0  0  0  0  0
  -30.4396  -21.9019   18.3533 C   0  0  0  0  0  0
  -29.6847  -20.2032   19.9894 C   0  0  0  0  0  0
  -30.4458  -20.5661   18.8492 C   0  0  0  0  0  0
  -33.4620  -18.5122   18.8199 C   0  0  0  0  0  0
  -33.5659  -19.0450   17.4113 C   0  0  0  0  0  0
  -29.0101  -24.7771   21.8456 C   0  0  0  0  0  0
  -28.8842  -17.8632   19.4989 C   0  0  0  0  0  0
  -30.5956  -18.1996   21.2515 C   0  0  0  0  0  0
  -29.6368  -16.5021   19.3170 C   0  0  0  0  0  0
  -30.2213  -16.7350   21.6856 C   0  0  0  0  0  0
  -28.2558  -23.7324   21.0621 C   0  0  1  0  0  0
  -32.6373  -19.7074   18.4022 C   0  0  0  0  0  0
  -27.8536  -25.2596   20.9915 C   0  0  2  0  0  0
  -29.6748  -24.3473   18.4811 C   0  0  0  0  0  0
  -28.2871  -20.9070   21.9897 C   0  0  0  0  0  0
  -31.1821  -22.2447   17.0601 C   0  0  0  0  0  0
  -29.5941  -18.8119   20.3687 N   0  0  0  0  0  0
  -29.9491  -15.7772   20.5773 N   0  0  0  0  0  0
  -31.1974  -19.5468   18.2475 N   0  0  0  0  0  0
  -31.4701  -12.4725   19.1476 H   0  0  0  0  0  0
  -30.3363  -11.3971   19.9153 H   0  0  0  0  0  0
  -29.7633  -11.7307   17.4827 H   0  0  0  0  0  0
  -29.6514  -13.4555   17.7289 H   0  0  0  0  0  0
  -27.8622  -11.2883   18.8796 H   0  0  0  0  0  0
  -27.3747  -12.5630   17.7922 H   0  0  0  0  0  0
  -27.6485  -14.2512   19.4955 H   0  0  0  0  0  0
  -28.7064  -12.1328   21.4270 H   0  0  0  0  0  0
  -28.4623  -13.8245   21.7886 H   0  0  0  0  0  0
  -25.2760   -9.5680   22.4744 H   0  0  0  0  0  0
  -23.9997   -7.4634   22.7469 H   0  0  0  0  0  0
  -21.0832   -8.8787   19.8943 H   0  0  0  0  0  0
  -22.3715  -10.9668   19.6162 H   0  0  0  0  0  0
  -21.2006   -7.6133   23.9720 H   0  0  0  0  0  0
  -21.1495   -6.0499   25.9070 H   0  0  0  0  0  0
  -22.0596   -2.7612   23.2822 H   0  0  0  0  0  0
  -22.4068  -11.9909   22.4808 H   0  0  0  0  0  0
  -21.1097  -13.1300   22.2591 H   0  0  0  0  0  0
  -24.6668  -15.8507   20.5409 H   0  0  0  0  0  0
  -26.2933  -15.6308   20.1377 H   0  0  0  0  0  0
  -26.7159  -32.5479   23.1122 H   0  0  0  0  0  0
  -25.0049  -33.9744   25.0434 H   0  0  0  0  0  0
  -22.7096  -31.3021   21.4050 H   0  0  0  0  0  0
  -23.3746  -35.9636   23.3312 H   0  0  0  0  0  0
  -24.3571  -36.8910   22.2050 H   0  0  0  0  0  0
  -23.7248  -37.6510   23.6652 H   0  0  0  0  0  0
  -26.0843  -31.5722   20.6089 H   0  0  0  0  0  0
  -26.8374  -30.8506   22.0022 H   0  0  0  0  0  0
  -28.1130  -29.0035   21.2108 H   0  0  0  0  0  0
  -26.0243  -25.9406   19.0067 H   0  0  0  0  0  0
  -23.9834  -27.3141   18.9985 H   0  0  0  0  0  0
  -23.7498  -30.6013   19.4053 H   0  0  0  0  0  0
  -22.7560  -29.2484   19.8556 H   0  0  0  0  0  0
  -25.1289  -36.1947   25.0827 H   0  0  0  0  0  0
  -20.9964  -28.3261   24.1419 H   0  0  0  0  0  0
  -20.5676  -26.2288   23.3618 H   0  0  0  0  0  0
  -21.6640  -26.7451   22.1208 H   0  0  0  0  0  0
  -19.6903  -25.6297   21.1252 H   0  0  0  0  0  0
  -19.6686  -27.3199   20.6752 H   0  0  0  0  0  0
  -17.4191  -26.6682   21.4031 H   0  0  0  0  0  0
  -18.0320  -26.0087   22.9033 H   0  0  0  0  0  0
  -19.7934  -30.7292   24.2250 H   0  0  0  0  0  0
  -17.5013  -31.6268   24.5179 H   0  0  0  0  0  0
  -15.5348  -30.2996   23.7674 H   0  0  0  0  0  0
  -15.8666  -28.0851   22.7047 H   0  0  0  0  0  0
  -24.5888  -30.7090   25.7796 H   0  0  0  0  0  0
  -24.8931  -32.2902   26.4895 H   0  0  0  0  0  0
  -25.8056  -30.8900   27.0231 H   0  0  0  0  0  0
  -26.2899  -29.6771   24.1185 H   0  0  0  0  0  0
  -27.4021  -29.7262   25.4662 H   0  0  0  0  0  0
  -27.8764  -30.4301   23.9388 H   0  0  0  0  0  0
  -27.2658  -33.3620   26.2072 H   0  0  0  0  0  0
  -28.3853  -32.6889   25.0317 H   0  0  0  0  0  0
  -28.0719  -31.8447   26.5404 H   0  0  0  0  0  0
  -28.2602  -38.0098   24.7508 H   0  0  0  0  0  0
  -28.1072  -36.2629   24.6287 H   0  0  0  0  0  0
  -27.2297  -37.1461   25.8867 H   0  0  0  0  0  0
  -20.9363  -29.8770   21.6918 H   0  0  0  0  0  0
  -26.0174  -38.2859   24.1408 H   0  0  0  0  0  0
  -34.3036  -18.6930   19.4865 H   0  0  0  0  0  0
  -32.9719  -17.5479   18.9444 H   0  0  0  0  0  0
  -33.1305  -18.4417   16.6160 H   0  0  0  0  0  0
  -34.4867  -19.5642   17.1492 H   0  0  0  0  0  0
  -30.0131  -25.0266   21.5087 H   0  0  0  0  0  0
  -28.8804  -24.7775   22.9263 H   0  0  0  0  0  0
  -27.9004  -17.6776   19.9315 H   0  0  0  0  0  0
  -28.7035  -18.3117   18.5204 H   0  0  0  0  0  0
  -31.5616  -18.1885   20.7481 H   0  0  0  0  0  0
  -30.7250  -18.8265   22.1344 H   0  0  0  0  0  0
  -30.5659  -16.6813   18.7742 H   0  0  0  0  0  0
  -29.0477  -15.8550   18.6658 H   0  0  0  0  0  0
  -29.3296  -16.7654   22.3125 H   0  0  0  0  0  0
  -31.0131  -16.3514   22.3320 H   0  0  0  0  0  0
  -27.4430  -23.2186   21.5653 H   0  0  0  0  0  0
  -32.9308  -20.6827   18.7915 H   0  0  0  0  0  0
  -26.9602  -25.4960   21.5711 H   0  0  0  0  0  0
  -30.1938  -25.0291   19.1535 H   0  0  0  0  0  0
  -28.6410  -24.6761   18.3795 H   0  0  0  0  0  0
  -30.1258  -24.4792   17.5010 H   0  0  0  0  0  0
  -28.5306  -21.6157   22.7817 H   0  0  0  0  0  0
  -28.5466  -19.9223   22.3751 H   0  0  0  0  0  0
  -27.2097  -20.9145   21.8244 H   0  0  0  0  0  0
  -30.4894  -22.6527   16.3250 H   0  0  0  0  0  0
  -31.6550  -21.3924   16.5777 H   0  0  0  0  0  0
  -31.9613  -22.9822   17.2519 H   0  0  0  0  0  0
  -30.8712  -18.7010   18.7119 H   0  0  0  0  0  0
  1 25  1  0  0  0
  1 30  2  0  0  0
  1 91  1  0  0  0
  2  3  1  0  0  0
  2 25  1  0  0  0
  2 93  1  0  0  0
  2 94  1  0  0  0
  3  4  1  0  0  0
  3 95  1  0  0  0
  3 96  1  0  0  0
  4  5  1  0  0  0
  4 97  1  0  0  0
  4 98  1  0  0  0
  5  6  1  0  0  0
  5 26  1  0  0  0
  5 99  1  0  0  0
  6 25  1  0  0  0
  6100  1  0  0  0
  6101  1  0  0  0
  7  8  2  0  0  0
  7 26  1  0  0  0
  7 29  1  0  0  0
  8  9  1  0  0  0
  8 22  1  0  0  0
  9 10  1  0  0  0
  9 27  2  0  0  0
 10 11  2  0  0  0
 10 15  1  0  0  0
 11 12  1  0  0  0
 11102  1  0  0  0
 12 13  2  0  0  0
 12103  1  0  0  0
 13 14  1  0  0  0
 13 31  1  0  0  0
 14 15  2  0  0  0
 14104  1  0  0  0
 15105  1  0  0  0
 16 17  2  0  0  0
 16 21  1  0  0  0
 16 31  1  0  0  0
 17 18  1  0  0  0
 17106  1  0  0  0
 18 19  2  0  0  0
 18107  1  0  0  0
 19 20  1  0  0  0
 19 24  1  0  0  0
 20 21  2  0  0  0
 20108  1  0  0  0
 21 23  1  0  0  0
 22 28  1  0  0  0
 22 32  2  0  0  0
 26 27  1  0  0  0
 28109  1  0  0  0
 28110  1  0  0  0
 29111  1  0  0  0
 29112  1  0  0  0
 33 34  1  0  0  0
 33 66  1  0  0  0
 33 70  2  0  0  0
 34 36  1  0  0  0
 34 59  1  0  0  0
 34113  1  0  0  0
 35 44  2  0  0  0
 35 45  1  0  0  0
 35 68  1  0  0  0
 36 56  1  0  0  0
 36114  1  0  0  0
 37 39  1  0  0  0
 37 47  1  0  0  0
 37 66  1  0  0  0
 37115  1  0  0  0
 38 43  2  0  0  0
 38 46  1  0  0  0
 38 47  1  0  0  0
 39 64  1  0  0  0
 39 67  2  0  0  0
 40 52  1  0  0  0
 40 53  2  0  0  0
 40 58  1  0  0  0
 41116  1  0  0  0
 41117  1  0  0  0
 41118  1  0  0  0
 41 48  1  0  0  0
 42 43  1  0  0  0
 42 66  1  0  0  0
 42119  1  0  0  0
 42120  1  0  0  0
 43 44  1  0  0  0
 44121  1  0  0  0
 45 46  2  0  0  0
 45122  1  0  0  0
 46123  1  0  0  0
 47124  1  0  0  0
 47125  1  0  0  0
 48 56  1  0  0  0
 48 65  1  0  0  0
 48126  1  0  0  0
 49 50  1  0  0  0
 49 53  1  0  0  0
 49 64  1  0  0  0
 49127  1  0  0  0
 50 51  1  0  0  0
 50128  1  0  0  0
 50129  1  0  0  0
 51 52  1  0  0  0
 51130  1  0  0  0
 51131  1  0  0  0
 52132  1  0  0  0
 52133  1  0  0  0
 53 54  1  0  0  0
 54 55  2  0  0  0
 54134  1  0  0  0
 55 57  1  0  0  0
 55135  1  0  0  0
 56 69  2  0  0  0
 57 58  2  0  0  0
 57136  1  0  0  0
 58137  1  0  0  0
 59 60  1  0  0  0
 59 61  1  0  0  0
 59 62  1  0  0  0
 60138  1  0  0  0
 60139  1  0  0  0
 60140  1  0  0  0
 61141  1  0  0  0
 61142  1  0  0  0
 61143  1  0  0  0
 62144  1  0  0  0
 62145  1  0  0  0
 62146  1  0  0  0
 63 65  1  0  0  0
 63147  1  0  0  0
 63148  1  0  0  0
 63149  1  0  0  0
 64150  1  0  0  0
 65151  1  0  0  0
 68 86  1  0  0  0
 71 72  2  0  0  0
 71 73  1  0  0  0
 71 84  1  0  0  0
 72 74  1  0  0  0
 72 87  1  0  0  0
 73 75  2  0  0  0
 73 88  1  0  0  0
 74 76  2  0  0  0
 74 89  1  0  0  0
 75 76  1  0  0  0
 75 90  1  0  0  0
 76 92  1  0  0  0
 77 78  1  0  0  0
 77 85  1  0  0  0
 77152  1  0  0  0
 77153  1  0  0  0
 78 85  1  0  0  0
 78154  1  0  0  0
 78155  1  0  0  0
 79 84  1  0  0  0
 79 86  1  0  0  0
 79156  1  0  0  0
 79157  1  0  0  0
 80 82  1  0  0  0
 80 90  1  0  0  0
 80158  1  0  0  0
 80159  1  0  0  0
 81 83  1  0  0  0
 81 90  1  0  0  0
 81160  1  0  0  0
 81161  1  0  0  0
 82 91  1  0  0  0
 82162  1  0  0  0
 82163  1  0  0  0
 83 91  1  0  0  0
 83164  1  0  0  0
 83165  1  0  0  0
 84 86  1  0  0  0
 84166  1  0  0  0
 85 92  1  0  0  0
 85167  1  0  0  0
 86168  1  0  0  0
 87169  1  0  0  0
 87170  1  0  0  0
 87171  1  0  0  0
 88172  1  0  0  0
 88173  1  0  0  0
 88174  1  0  0  0
 89175  1  0  0  0
 89176  1  0  0  0
 89177  1  0  0  0
 92178  1  0  0  0
M  ISO  4   1 100  68 101  86 101  91 100
M  END
> <chiral flag>
0

> <version>
0

> <s_m_source_file>
/data/baiqing/PycharmProjects/Reinvent-master-3.2/result/LINK_invent/BTK/process_docking_weight1_custom_sum_contain_oxygen_bond_distance_aromatic_linkinvent_7_9_3/rearranged_h_0165.sdf

> <i_m_source_file_index>
54

> <r_mmod_Potential_Energy-OPLS-2005>
405.473358154297

> <r_mmod_Stretch_Energy-OPLS-2005>
84.5658569335938

> <r_mmod_Bend_Energy-OPLS-2005>
216.457412719727

> <r_mmod_Torsional_Energy-OPLS-2005>
480.273956298828

> <r_mmod_Improper_Torsional_Energy-OPLS-2005>
18.6118087768555

> <r_mmod_Van_der_Waal_Energy-OPLS-2005>
167.178787231445

> <r_mmod_Electrostatic_Energy-OPLS-2005>
-418.883575439453

> <r_mmod_Solvation_Energy-OPLS-2005>
-194.930099487305

> <b_mmod_Minimization_Converged-OPLS-2005>
0

> <r_mmod_RMS_Derivative-OPLS-2005>
1.90392863750458

$$$$
54
                    3D
 Structure written by MMmdl.
157166  0  0  1  0            999 V2000
  -30.5940  -14.8157   20.4572 C   0  0  0  0  0  0
  -30.4362  -12.5038   19.4806 C   0  0  0  0  0  0
  -29.5126  -12.5209   18.2419 C   0  0  0  0  0  0
  -28.0401  -12.3333   18.6534 C   0  0  0  0  0  0
  -27.6379  -13.2380   19.8484 C   0  0  2  0  0  0
  -28.6849  -13.1997   20.9828 C   0  0  0  0  0  0
  -25.2491  -13.8203   20.5700 C   0  0  0  0  0  0
  -24.1787  -13.0432   20.9207 C   0  0  0  0  0  0
  -24.6395  -11.6921   20.8745 C   0  0  0  0  0  0
  -23.9073  -10.4295   21.0404 C   0  0  0  0  0  0
  -24.3621   -9.4212   21.9180 C   0  0  0  0  0  0
  -23.6294   -8.2251   22.0754 C   0  0  0  0  0  0
  -22.4277   -8.0283   21.3546 C   0  0  0  0  0  0
  -21.9917   -9.0254   20.4643 C   0  0  0  0  0  0
  -22.7247  -10.2135   20.3053 C   0  0  0  0  0  0
  -21.6854   -6.0732   22.5272 C   0  0  0  0  0  0
  -21.4023   -6.5638   23.8204 C   0  0  0  0  0  0
  -21.3660   -5.6793   24.9166 C   0  0  0  0  0  0
  -21.6045   -4.3053   24.7219 C   0  0  0  0  0  0
  -21.8822   -3.8144   23.4340 C   0  0  0  0  0  0
  -21.9198   -4.6962   22.3395 C   0  0  0  0  0  0
  -22.7812  -13.5215   21.1856 C   0  0  0  0  0  0
  -22.1661   -4.2149   21.0973 F   0  0  0  0  0  0
  -21.5629   -3.4536   25.7732 F   0  0  0  0  0  0
  -29.9764  -13.5779   20.3952 N   0  0  0  0  0  0
  -26.2921  -12.9421   20.3278 N   0  0  0  0  0  0
  -25.9329  -11.6556   20.5754 N   0  0  0  0  0  0
  -22.0457  -12.8195   22.0411 N   0  0  0  0  0  0
  -25.4145  -15.1927   20.4122 N   0  0  0  0  0  0
  -31.7920  -14.8994   20.1721 O   0  0  0  0  0  0
  -21.6641   -6.8879   21.4240 O   0  0  0  0  0  0
  -22.3499  -14.5522   20.6714 O   0  0  0  0  0  0
  -24.6398  -31.8500   23.1965 C   0  0  0  0  0  0
  -25.9206  -32.4725   23.8312 C   0  0  1  0  0  0
  -27.2102  -27.1934   20.1316 C   0  0  0  0  0  0
  -25.5977  -33.8526   24.2233 N   0  0  0  0  0  0
  -23.4369  -30.4737   21.5447 C   0  0  2  0  0  0
  -24.8839  -28.9230   20.1045 C   0  0  0  0  0  0
  -22.7544  -29.4574   22.4926 C   0  0  0  0  0  0
  -18.0306  -28.1373   22.8487 C   0  0  0  0  0  0
  -24.1486  -36.7264   23.2641 C   0  0  0  0  0  0
  -25.9897  -30.7408   21.3874 C   0  0  0  0  0  0
  -26.0599  -29.3590   20.7287 C   0  0  0  0  0  0
  -27.2231  -28.5072   20.7358 C   0  0  0  0  0  0
  -26.0128  -26.8683   19.4458 C   0  0  0  0  0  0
  -24.8720  -27.6891   19.4470 C   0  0  0  0  0  0
  -23.6544  -29.8122   20.1596 C   0  0  0  0  0  0
  -25.4120  -36.3052   24.0320 C   0  0  1  0  0  0
  -20.5913  -28.3696   23.1261 C   0  0  2  0  0  0
  -20.6789  -26.9403   22.5420 C   0  0  0  0  0  0
  -19.5774  -26.6377   21.5214 C   0  0  0  0  0  0
  -18.1947  -26.7929   22.1602 C   0  0  0  0  0  0
  -19.1558  -28.8859   23.2857 C   0  0  0  0  0  0
  -18.9470  -30.1466   23.8864 C   0  0  0  0  0  0
  -17.6463  -30.6569   24.0573 C   0  0  0  0  0  0
  -25.9073  -34.9423   23.5079 C   0  0  0  0  0  0
  -16.5357  -29.9059   23.6340 C   0  0  0  0  0  0
  -16.7290  -28.6481   23.0358 C   0  0  0  0  0  0
  -26.4541  -31.6550   25.0712 C   0  0  0  0  0  0
  -25.3731  -31.3709   26.1406 C   0  0  0  0  0  0
  -27.0383  -30.2954   24.6228 C   0  0  0  0  0  0
  -27.6106  -32.4276   25.7466 C   0  0  0  0  0  0
  -27.5572  -37.1808   24.8474 C   0  0  0  0  0  0
  -21.4249  -29.3018   22.3642 N   0  0  0  0  0  0
  -26.4297  -37.3754   23.9394 N   0  0  0  0  0  0
  -24.7087  -31.0404   22.0984 N   0  0  0  0  0  0
  -23.4210  -28.8122   23.3061 O   0  0  0  0  0  0
  -28.2496  -26.2060   20.2248 O   0  0  0  0  0  0
  -26.5640  -34.8918   22.4645 O   0  0  0  0  0  0
  -23.5537  -32.1358   23.7229 O   0  0  0  0  0  0
  -29.1974  -22.5983   19.1374 C   0  0  0  0  0  0
  -29.2198  -20.3547   20.3273 C   0  0  0  0  0  0
  -28.6375  -23.3548   20.2072 C   0  0  0  0  0  0
  -28.7584  -21.1305   21.4540 C   0  0  0  0  0  0
  -28.4903  -22.5673   21.4016 C   0  0  0  0  0  0
  -29.4726  -21.1870   19.1872 C   0  0  0  0  0  0
  -30.0643  -18.0672   19.1785 C   0  0  0  0  0  0
  -29.1935  -18.7236   20.2299 C   0  0  1  0  0  0
  -30.1823  -17.4493   20.5406 C   0  0  1  0  0  0
  -28.4419  -20.3869   22.7473 C   0  0  0  0  0  0
  -27.9436  -23.2622   22.6426 C   0  0  0  0  0  0
  -27.8685  -24.7584   19.9076 C   0  0  0  0  0  0
  -29.8125  -15.9687   20.6078 N   0  0  0  0  0  0
  -29.9108  -20.6163   18.0408 F   0  0  0  0  0  0
  -31.4748  -12.6417   19.1751 H   0  0  0  0  0  0
  -30.3957  -11.5350   19.9807 H   0  0  0  0  0  0
  -29.8076  -11.7433   17.5364 H   0  0  0  0  0  0
  -29.6242  -13.4695   17.7145 H   0  0  0  0  0  0
  -27.9010  -11.2844   18.9171 H   0  0  0  0  0  0
  -27.3843  -12.5210   17.8033 H   0  0  0  0  0  0
  -27.6223  -14.2551   19.4573 H   0  0  0  0  0  0
  -28.7397  -12.2043   21.4259 H   0  0  0  0  0  0
  -28.4093  -13.8810   21.7893 H   0  0  0  0  0  0
  -25.2765   -9.5685   22.4753 H   0  0  0  0  0  0
  -23.9993   -7.4648   22.7480 H   0  0  0  0  0  0
  -21.0849   -8.8783   19.8947 H   0  0  0  0  0  0
  -22.3706  -10.9677   19.6162 H   0  0  0  0  0  0
  -21.2021   -7.6146   23.9710 H   0  0  0  0  0  0
  -21.1477   -6.0519   25.9070 H   0  0  0  0  0  0
  -22.0604   -2.7607   23.2843 H   0  0  0  0  0  0
  -22.4082  -11.9851   22.4782 H   0  0  0  0  0  0
  -21.1075  -13.1217   22.2619 H   0  0  0  0  0  0
  -24.6424  -15.8406   20.5249 H   0  0  0  0  0  0
  -26.2509  -15.6363   20.0557 H   0  0  0  0  0  0
  -26.7272  -32.5353   23.1045 H   0  0  0  0  0  0
  -25.0151  -33.9640   25.0399 H   0  0  0  0  0  0
  -22.7379  -31.3004   21.4029 H   0  0  0  0  0  0
  -23.3761  -35.9586   23.3302 H   0  0  0  0  0  0
  -24.3560  -36.8903   22.2055 H   0  0  0  0  0  0
  -23.7237  -37.6461   23.6671 H   0  0  0  0  0  0
  -26.1356  -31.4950   20.6128 H   0  0  0  0  0  0
  -26.8659  -30.7922   22.0222 H   0  0  0  0  0  0
  -28.1117  -28.8304   21.2602 H   0  0  0  0  0  0
  -25.9003  -25.9400   18.9080 H   0  0  0  0  0  0
  -23.9815  -27.3567   18.9309 H   0  0  0  0  0  0
  -23.7728  -30.5912   19.4065 H   0  0  0  0  0  0
  -22.7715  -29.2456   19.8559 H   0  0  0  0  0  0
  -25.1314  -36.1902   25.0818 H   0  0  0  0  0  0
  -20.9999  -28.3279   24.1384 H   0  0  0  0  0  0
  -20.5685  -26.2298   23.3630 H   0  0  0  0  0  0
  -21.6660  -26.7412   22.1224 H   0  0  0  0  0  0
  -19.6938  -25.6286   21.1247 H   0  0  0  0  0  0
  -19.6736  -27.3189   20.6749 H   0  0  0  0  0  0
  -17.4240  -26.6730   21.3972 H   0  0  0  0  0  0
  -18.0302  -26.0035   22.8954 H   0  0  0  0  0  0
  -19.7941  -30.7311   24.2190 H   0  0  0  0  0  0
  -17.5005  -31.6239   24.5193 H   0  0  0  0  0  0
  -15.5353  -30.2948   23.7665 H   0  0  0  0  0  0
  -15.8701  -28.0794   22.7066 H   0  0  0  0  0  0
  -24.6011  -30.6924   25.7748 H   0  0  0  0  0  0
  -24.8786  -32.2858   26.4669 H   0  0  0  0  0  0
  -25.8039  -30.9044   27.0274 H   0  0  0  0  0  0
  -26.2964  -29.6689   24.1259 H   0  0  0  0  0  0
  -27.4058  -29.7232   25.4756 H   0  0  0  0  0  0
  -27.8857  -30.4213   23.9487 H   0  0  0  0  0  0
  -27.2772  -33.3650   26.1921 H   0  0  0  0  0  0
  -28.3964  -32.6688   25.0295 H   0  0  0  0  0  0
  -28.0703  -31.8450   26.5461 H   0  0  0  0  0  0
  -28.2636  -38.0059   24.7448 H   0  0  0  0  0  0
  -28.1028  -36.2585   24.6393 H   0  0  0  0  0  0
  -27.2280  -37.1583   25.8881 H   0  0  0  0  0  0
  -20.9455  -29.8719   21.6822 H   0  0  0  0  0  0
  -26.0179  -38.2844   24.1348 H   0  0  0  0  0  0
  -29.3285  -23.0882   18.1840 H   0  0  0  0  0  0
  -30.9623  -18.5833   18.8450 H   0  0  0  0  0  0
  -29.5468  -17.5181   18.3947 H   0  0  0  0  0  0
  -28.1378  -18.4582   20.2112 H   0  0  0  0  0  0
  -31.0673  -17.7121   21.1173 H   0  0  0  0  0  0
  -28.6920  -19.3286   22.6971 H   0  0  0  0  0  0
  -27.3796  -20.4623   22.9840 H   0  0  0  0  0  0
  -29.0056  -20.8015   23.5829 H   0  0  0  0  0  0
  -27.9498  -24.3475   22.5436 H   0  0  0  0  0  0
  -28.5495  -23.0331   23.5195 H   0  0  0  0  0  0
  -26.9178  -22.9500   22.8385 H   0  0  0  0  0  0
  -27.7018  -24.7367   18.8297 H   0  0  0  0  0  0
  -26.8894  -24.5881   20.3570 H   0  0  0  0  0  0
  -28.8369  -15.7821   20.7834 H   0  0  0  0  0  0
  1 25  1  0  0  0
  1 30  2  0  0  0
  1 83  1  0  0  0
  2  3  1  0  0  0
  2 25  1  0  0  0
  2 85  1  0  0  0
  2 86  1  0  0  0
  3  4  1  0  0  0
  3 87  1  0  0  0
  3 88  1  0  0  0
  4  5  1  0  0  0
  4 89  1  0  0  0
  4 90  1  0  0  0
  5  6  1  0  0  0
  5 26  1  0  0  0
  5 91  1  0  0  0
  6 25  1  0  0  0
  6 92  1  0  0  0
  6 93  1  0  0  0
  7  8  2  0  0  0
  7 26  1  0  0  0
  7 29  1  0  0  0
  8  9  1  0  0  0
  8 22  1  0  0  0
  9 10  1  0  0  0
  9 27  2  0  0  0
 10 11  2  0  0  0
 10 15  1  0  0  0
 11 12  1  0  0  0
 11 94  1  0  0  0
 12 13  2  0  0  0
 12 95  1  0  0  0
 13 14  1  0  0  0
 13 31  1  0  0  0
 14 15  2  0  0  0
 14 96  1  0  0  0
 15 97  1  0  0  0
 16 17  2  0  0  0
 16 21  1  0  0  0
 16 31  1  0  0  0
 17 18  1  0  0  0
 17 98  1  0  0  0
 18 19  2  0  0  0
 18 99  1  0  0  0
 19 20  1  0  0  0
 19 24  1  0  0  0
 20 21  2  0  0  0
 20100  1  0  0  0
 21 23  1  0  0  0
 22 28  1  0  0  0
 22 32  2  0  0  0
 26 27  1  0  0  0
 28101  1  0  0  0
 28102  1  0  0  0
 29103  1  0  0  0
 29104  1  0  0  0
 33 34  1  0  0  0
 33 66  1  0  0  0
 33 70  2  0  0  0
 34 36  1  0  0  0
 34 59  1  0  0  0
 34105  1  0  0  0
 35 44  2  0  0  0
 35 45  1  0  0  0
 35 68  1  0  0  0
 36 56  1  0  0  0
 36106  1  0  0  0
 37 39  1  0  0  0
 37 47  1  0  0  0
 37 66  1  0  0  0
 37107  1  0  0  0
 38 43  2  0  0  0
 38 46  1  0  0  0
 38 47  1  0  0  0
 39 64  1  0  0  0
 39 67  2  0  0  0
 40 52  1  0  0  0
 40 53  2  0  0  0
 40 58  1  0  0  0
 41108  1  0  0  0
 41109  1  0  0  0
 41110  1  0  0  0
 41 48  1  0  0  0
 42 43  1  0  0  0
 42 66  1  0  0  0
 42111  1  0  0  0
 42112  1  0  0  0
 43 44  1  0  0  0
 44113  1  0  0  0
 45 46  2  0  0  0
 45114  1  0  0  0
 46115  1  0  0  0
 47116  1  0  0  0
 47117  1  0  0  0
 48 56  1  0  0  0
 48 65  1  0  0  0
 48118  1  0  0  0
 49 50  1  0  0  0
 49 53  1  0  0  0
 49 64  1  0  0  0
 49119  1  0  0  0
 50 51  1  0  0  0
 50120  1  0  0  0
 50121  1  0  0  0
 51 52  1  0  0  0
 51122  1  0  0  0
 51123  1  0  0  0
 52124  1  0  0  0
 52125  1  0  0  0
 53 54  1  0  0  0
 54 55  2  0  0  0
 54126  1  0  0  0
 55 57  1  0  0  0
 55127  1  0  0  0
 56 69  2  0  0  0
 57 58  2  0  0  0
 57128  1  0  0  0
 58129  1  0  0  0
 59 60  1  0  0  0
 59 61  1  0  0  0
 59 62  1  0  0  0
 60130  1  0  0  0
 60131  1  0  0  0
 60132  1  0  0  0
 61133  1  0  0  0
 61134  1  0  0  0
 61135  1  0  0  0
 62136  1  0  0  0
 62137  1  0  0  0
 62138  1  0  0  0
 63 65  1  0  0  0
 63139  1  0  0  0
 63140  1  0  0  0
 63141  1  0  0  0
 64142  1  0  0  0
 65143  1  0  0  0
 68 82  1  0  0  0
 71 73  2  0  0  0
 71 76  1  0  0  0
 71144  1  0  0  0
 72 74  1  0  0  0
 72 76  2  0  0  0
 72 78  1  0  0  0
 73 75  1  0  0  0
 73 82  1  0  0  0
 74 75  2  0  0  0
 74 80  1  0  0  0
 75 81  1  0  0  0
 76 84  1  0  0  0
 77 78  1  0  0  0
 77 79  1  0  0  0
 77145  1  0  0  0
 77146  1  0  0  0
 78 79  1  0  0  0
 78147  1  0  0  0
 79 83  1  0  0  0
 79148  1  0  0  0
 80149  1  0  0  0
 80150  1  0  0  0
 80151  1  0  0  0
 81152  1  0  0  0
 81153  1  0  0  0
 81154  1  0  0  0
 82155  1  0  0  0
 82156  1  0  0  0
 83157  1  0  0  0
M  ISO  4   1 100  68 101  82 101  83 100
M  END
> <chiral flag>
0

> <version>
0

> <s_m_source_file>
/data/baiqing/PycharmProjects/Reinvent-master-3.2/result/LINK_invent/BTK/process_docking_weight1_custom_sum_contain_oxygen_bond_distance_aromatic_linkinvent_7_9_3/rearranged_h_0165.sdf

> <i_m_source_file_index>
55

> <r_mmod_Potential_Energy-OPLS-2005>
413.394592285156

> <r_mmod_Stretch_Energy-OPLS-2005>
181.509201049805

> <r_mmod_Bend_Energy-OPLS-2005>
220.99006652832

> <r_mmod_Torsional_Energy-OPLS-2005>
294.9892578125

> <r_mmod_Improper_Torsional_Energy-OPLS-2005>
11.1487703323364

> <r_mmod_Van_der_Waal_Energy-OPLS-2005>
149.12646484375

> <r_mmod_Electrostatic_Energy-OPLS-2005>
-369.744506835938

> <r_mmod_Solvation_Energy-OPLS-2005>
-205.788452148438

> <b_mmod_Minimization_Converged-OPLS-2005>
0

> <r_mmod_RMS_Derivative-OPLS-2005>
1.65191113948822

$$$$
55
                    3D
 Structure written by MMmdl.
177187  0  0  1  0            999 V2000
  -30.6541  -14.6905   20.4760 C   0  0  0  0  0  0
  -30.4287  -12.4218   19.4706 C   0  0  0  0  0  0
  -29.5098  -12.4993   18.2329 C   0  0  0  0  0  0
  -28.0350  -12.3284   18.6477 C   0  0  0  0  0  0
  -27.6434  -13.2269   19.8514 C   0  0  2  0  0  0
  -28.6889  -13.1583   20.9853 C   0  0  0  0  0  0
  -25.2509  -13.8172   20.5713 C   0  0  0  0  0  0
  -24.1789  -13.0422   20.9189 C   0  0  0  0  0  0
  -24.6378  -11.6899   20.8750 C   0  0  0  0  0  0
  -23.9053  -10.4281   21.0418 C   0  0  0  0  0  0
  -24.3604   -9.4198   21.9206 C   0  0  0  0  0  0
  -23.6274   -8.2233   22.0774 C   0  0  0  0  0  0
  -22.4261   -8.0271   21.3555 C   0  0  0  0  0  0
  -21.9887   -9.0247   20.4657 C   0  0  0  0  0  0
  -22.7221  -10.2127   20.3069 C   0  0  0  0  0  0
  -21.6844   -6.0732   22.5279 C   0  0  0  0  0  0
  -21.4021   -6.5639   23.8213 C   0  0  0  0  0  0
  -21.3661   -5.6789   24.9171 C   0  0  0  0  0  0
  -21.6043   -4.3054   24.7221 C   0  0  0  0  0  0
  -21.8815   -3.8147   23.4337 C   0  0  0  0  0  0
  -21.9187   -4.6964   22.3398 C   0  0  0  0  0  0
  -22.7817  -13.5234   21.1822 C   0  0  0  0  0  0
  -22.1658   -4.2153   21.0974 F   0  0  0  0  0  0
  -21.5617   -3.4535   25.7733 F   0  0  0  0  0  0
  -29.9965  -13.4847   20.4020 N   0  0  0  0  0  0
  -26.2945  -12.9378   20.3288 N   0  0  0  0  0  0
  -25.9307  -11.6526   20.5748 N   0  0  0  0  0  0
  -22.0422  -12.8273   22.0384 N   0  0  0  0  0  0
  -25.4197  -15.1895   20.4188 N   0  0  0  0  0  0
  -31.8398  -14.7746   20.1432 O   0  0  0  0  0  0
  -21.6617   -6.8876   21.4243 O   0  0  0  0  0  0
  -22.3522  -14.5544   20.6654 O   0  0  0  0  0  0
  -24.6264  -31.8588   23.2019 C   0  0  0  0  0  0
  -25.9114  -32.4772   23.8341 C   0  0  1  0  0  0
  -27.2172  -27.2986   20.1230 C   0  0  0  0  0  0
  -25.5929  -33.8573   24.2259 N   0  0  0  0  0  0
  -23.4186  -30.4836   21.5452 C   0  0  2  0  0  0
  -24.8625  -28.9345   20.1154 C   0  0  0  0  0  0
  -22.7465  -29.4626   22.4935 C   0  0  0  0  0  0
  -18.0281  -28.1385   22.8480 C   0  0  0  0  0  0
  -24.1495  -36.7294   23.2633 C   0  0  0  0  0  0
  -25.9618  -30.7833   21.3765 C   0  0  0  0  0  0
  -26.0333  -29.4089   20.7199 C   0  0  0  0  0  0
  -27.2127  -28.6035   20.7116 C   0  0  0  0  0  0
  -26.0224  -26.8844   19.4911 C   0  0  0  0  0  0
  -24.8605  -27.6783   19.4921 C   0  0  0  0  0  0
  -23.6336  -29.8190   20.1609 C   0  0  0  0  0  0
  -25.4121  -36.3075   24.0315 C   0  0  1  0  0  0
  -20.5880  -28.3689   23.1284 C   0  0  2  0  0  0
  -20.6778  -26.9413   22.5405 C   0  0  0  0  0  0
  -19.5754  -26.6385   21.5208 C   0  0  0  0  0  0
  -18.1931  -26.7926   22.1615 C   0  0  0  0  0  0
  -19.1532  -28.8850   23.2878 C   0  0  0  0  0  0
  -18.9460  -30.1453   23.8895 C   0  0  0  0  0  0
  -17.6463  -30.6586   24.0564 C   0  0  0  0  0  0
  -25.9055  -34.9447   23.5088 C   0  0  0  0  0  0
  -16.5351  -29.9085   23.6333 C   0  0  0  0  0  0
  -16.7273  -28.6502   23.0350 C   0  0  0  0  0  0
  -26.4486  -31.6586   25.0719 C   0  0  0  0  0  0
  -25.3715  -31.3747   26.1447 C   0  0  0  0  0  0
  -27.0319  -30.2997   24.6199 C   0  0  0  0  0  0
  -27.6035  -32.4325   25.7502 C   0  0  0  0  0  0
  -27.5580  -37.1805   24.8458 C   0  0  0  0  0  0
  -21.4177  -29.3047   22.3679 N   0  0  0  0  0  0
  -26.4295  -37.3773   23.9398 N   0  0  0  0  0  0
  -24.6876  -31.0597   22.0976 N   0  0  0  0  0  0
  -23.4188  -28.8161   23.3012 O   0  0  0  0  0  0
  -28.3547  -26.4668   20.1388 O   0  0  0  0  0  0
  -26.5628  -34.8913   22.4653 O   0  0  0  0  0  0
  -23.5431  -32.1395   23.7347 O   0  0  0  0  0  0
  -30.6201  -22.2289   18.4615 C   0  0  0  0  0  0
  -29.6574  -22.7563   19.3599 C   0  0  0  0  0  0
  -29.2403  -24.1609   19.1713 C   0  0  0  0  0  0
  -29.7117  -24.8351   17.9899 C   0  0  0  0  0  0
  -30.7052  -24.2643   17.1548 C   0  0  0  0  0  0
  -31.1749  -22.9704   17.4123 C   0  0  0  0  0  0
  -30.5893  -18.1625   21.7543 C   0  0  0  0  0  0
  -29.5188  -18.1781   19.5853 C   0  0  0  0  0  0
  -29.1096  -21.9675   21.8800 C   0  0  0  0  0  0
  -30.2130  -16.6531   21.9752 C   0  0  0  0  0  0
  -29.1748  -16.6349   19.7542 C   0  0  0  0  0  0
  -30.4293  -21.2145   21.9384 C   0  0  0  0  0  0
  -29.1160  -21.6692   20.3823 C   0  0  2  0  0  0
  -29.6014  -19.0282   20.8952 C   0  0  0  0  0  0
  -29.1180  -26.1724   17.5404 C   0  0  0  0  0  0
  -31.2695  -25.0177   15.9530 C   0  0  0  0  0  0
  -33.3756  -22.1957   17.1839 C   0  0  0  0  0  0
  -28.2449  -24.9732   20.0974 C   0  0  0  0  0  0
  -29.9369  -15.8428   20.7670 N   0  0  0  0  0  0
  -30.0539  -20.4976   20.7097 N   0  3  2  0  0  0
  -32.1041  -22.3979   16.5821 O   0  0  0  0  0  0
  -31.4739  -12.5256   19.1728 H   0  0  0  0  0  0
  -30.3546  -11.4450   19.9513 H   0  0  0  0  0  0
  -29.7864  -11.7316   17.5083 H   0  0  0  0  0  0
  -29.6468  -13.4575   17.7286 H   0  0  0  0  0  0
  -27.8886  -11.2801   18.9087 H   0  0  0  0  0  0
  -27.3786  -12.5257   17.7985 H   0  0  0  0  0  0
  -27.6364  -14.2478   19.4713 H   0  0  0  0  0  0
  -28.7084  -12.1653   21.4366 H   0  0  0  0  0  0
  -28.4308  -13.8511   21.7874 H   0  0  0  0  0  0
  -25.2754   -9.5669   22.4775 H   0  0  0  0  0  0
  -23.9980   -7.4626   22.7506 H   0  0  0  0  0  0
  -21.0808   -8.8775   19.8971 H   0  0  0  0  0  0
  -22.3693  -10.9666   19.6173 H   0  0  0  0  0  0
  -21.2035   -7.6154   23.9720 H   0  0  0  0  0  0
  -21.1483   -6.0518   25.9075 H   0  0  0  0  0  0
  -22.0592   -2.7607   23.2824 H   0  0  0  0  0  0
  -22.3995  -11.9966   22.4865 H   0  0  0  0  0  0
  -21.1048  -13.1368   22.2534 H   0  0  0  0  0  0
  -24.6525  -15.8408   20.5462 H   0  0  0  0  0  0
  -26.2736  -15.6367   20.1149 H   0  0  0  0  0  0
  -26.7179  -32.5426   23.1083 H   0  0  0  0  0  0
  -25.0072  -33.9723   25.0401 H   0  0  0  0  0  0
  -22.7123  -31.3040   21.4031 H   0  0  0  0  0  0
  -23.3751  -35.9633   23.3290 H   0  0  0  0  0  0
  -24.3589  -36.8927   22.2049 H   0  0  0  0  0  0
  -23.7259  -37.6494   23.6669 H   0  0  0  0  0  0
  -26.0992  -31.5469   20.6096 H   0  0  0  0  0  0
  -26.8396  -30.8283   22.0094 H   0  0  0  0  0  0
  -28.1124  -28.9679   21.1874 H   0  0  0  0  0  0
  -25.9559  -25.9412   18.9723 H   0  0  0  0  0  0
  -23.9661  -27.3130   19.0065 H   0  0  0  0  0  0
  -23.7570  -30.5952   19.4050 H   0  0  0  0  0  0
  -22.7516  -29.2526   19.8570 H   0  0  0  0  0  0
  -25.1306  -36.1915   25.0808 H   0  0  0  0  0  0
  -20.9968  -28.3268   24.1409 H   0  0  0  0  0  0
  -20.5687  -26.2299   23.3602 H   0  0  0  0  0  0
  -21.6650  -26.7457   22.1198 H   0  0  0  0  0  0
  -19.6921  -25.6294   21.1246 H   0  0  0  0  0  0
  -19.6691  -27.3190   20.6732 H   0  0  0  0  0  0
  -17.4201  -26.6664   21.4021 H   0  0  0  0  0  0
  -18.0336  -26.0070   22.9014 H   0  0  0  0  0  0
  -19.7937  -30.7268   24.2263 H   0  0  0  0  0  0
  -17.5020  -31.6270   24.5158 H   0  0  0  0  0  0
  -15.5355  -30.2990   23.7659 H   0  0  0  0  0  0
  -15.8670  -28.0828   22.7067 H   0  0  0  0  0  0
  -24.5886  -30.7096   25.7785 H   0  0  0  0  0  0
  -24.8916  -32.2928   26.4849 H   0  0  0  0  0  0
  -25.8038  -30.8943   27.0234 H   0  0  0  0  0  0
  -26.2898  -29.6759   24.1206 H   0  0  0  0  0  0
  -27.3969  -29.7247   25.4719 H   0  0  0  0  0  0
  -27.8790  -30.4249   23.9452 H   0  0  0  0  0  0
  -27.2626  -33.3625   26.2065 H   0  0  0  0  0  0
  -28.3862  -32.6885   25.0350 H   0  0  0  0  0  0
  -28.0680  -31.8459   26.5440 H   0  0  0  0  0  0
  -28.2591  -38.0106   24.7508 H   0  0  0  0  0  0
  -28.1081  -36.2639   24.6282 H   0  0  0  0  0  0
  -27.2299  -37.1451   25.8860 H   0  0  0  0  0  0
  -20.9345  -29.8772   21.6896 H   0  0  0  0  0  0
  -26.0166  -38.2843   24.1397 H   0  0  0  0  0  0
  -30.9503  -21.2040   18.5218 H   0  0  0  0  0  0
  -31.5816  -18.2085   21.3056 H   0  0  0  0  0  0
  -30.7061  -18.5835   22.7500 H   0  0  0  0  0  0
  -28.7811  -18.6288   18.9192 H   0  0  0  0  0  0
  -30.4690  -18.2559   19.0557 H   0  0  0  0  0  0
  -29.1906  -23.0069   22.1874 H   0  0  0  0  0  0
  -28.3137  -21.4491   22.4193 H   0  0  0  0  0  0
  -29.3235  -16.6002   22.6051 H   0  0  0  0  0  0
  -31.0076  -16.1811   22.5551 H   0  0  0  0  0  0
  -29.2632  -16.1491   18.7800 H   0  0  0  0  0  0
  -28.1214  -16.5526   20.0231 H   0  0  0  0  0  0
  -30.5513  -20.6495   22.8584 H   0  0  0  0  0  0
  -31.2891  -21.8661   21.7710 H   0  0  0  0  0  0
  -28.1464  -21.3035   20.0400 H   0  0  0  0  0  0
  -28.6256  -19.0368   21.3816 H   0  0  0  0  0  0
  -28.0477  -26.2085   17.7278 H   0  0  0  0  0  0
  -29.1918  -26.3409   16.4683 H   0  0  0  0  0  0
  -29.6069  -27.0091   18.0406 H   0  0  0  0  0  0
  -30.5758  -24.9581   15.1137 H   0  0  0  0  0  0
  -32.2272  -24.6167   15.6215 H   0  0  0  0  0  0
  -31.4441  -26.0675   16.1897 H   0  0  0  0  0  0
  -34.0553  -21.7468   16.4586 H   0  0  0  0  0  0
  -33.3264  -21.5326   18.0481 H   0  0  0  0  0  0
  -33.8110  -23.1450   17.4999 H   0  0  0  0  0  0
  -28.4107  -24.6628   21.1243 H   0  0  0  0  0  0
  -27.2440  -24.6169   19.8730 H   0  0  0  0  0  0
  -30.8439  -20.5156   20.0852 H   0  0  0  0  0  0
  1 25  1  0  0  0
  1 30  2  0  0  0
  1 89  1  0  0  0
  2  3  1  0  0  0
  2 25  1  0  0  0
  2 92  1  0  0  0
  2 93  1  0  0  0
  3  4  1  0  0  0
  3 94  1  0  0  0
  3 95  1  0  0  0
  4  5  1  0  0  0
  4 96  1  0  0  0
  4 97  1  0  0  0
  5  6  1  0  0  0
  5 26  1  0  0  0
  5 98  1  0  0  0
  6 25  1  0  0  0
  6 99  1  0  0  0
  6100  1  0  0  0
  7  8  2  0  0  0
  7 26  1  0  0  0
  7 29  1  0  0  0
  8  9  1  0  0  0
  8 22  1  0  0  0
  9 10  1  0  0  0
  9 27  2  0  0  0
 10 11  2  0  0  0
 10 15  1  0  0  0
 11 12  1  0  0  0
 11101  1  0  0  0
 12 13  2  0  0  0
 12102  1  0  0  0
 13 14  1  0  0  0
 13 31  1  0  0  0
 14 15  2  0  0  0
 14103  1  0  0  0
 15104  1  0  0  0
 16 17  2  0  0  0
 16 21  1  0  0  0
 16 31  1  0  0  0
 17 18  1  0  0  0
 17105  1  0  0  0
 18 19  2  0  0  0
 18106  1  0  0  0
 19 20  1  0  0  0
 19 24  1  0  0  0
 20 21  2  0  0  0
 20107  1  0  0  0
 21 23  1  0  0  0
 22 28  1  0  0  0
 22 32  2  0  0  0
 26 27  1  0  0  0
 28108  1  0  0  0
 28109  1  0  0  0
 29110  1  0  0  0
 29111  1  0  0  0
 33 34  1  0  0  0
 33 66  1  0  0  0
 33 70  2  0  0  0
 34 36  1  0  0  0
 34 59  1  0  0  0
 34112  1  0  0  0
 35 44  2  0  0  0
 35 45  1  0  0  0
 35 68  1  0  0  0
 36 56  1  0  0  0
 36113  1  0  0  0
 37 39  1  0  0  0
 37 47  1  0  0  0
 37 66  1  0  0  0
 37114  1  0  0  0
 38 43  2  0  0  0
 38 46  1  0  0  0
 38 47  1  0  0  0
 39 64  1  0  0  0
 39 67  2  0  0  0
 40 52  1  0  0  0
 40 53  2  0  0  0
 40 58  1  0  0  0
 41115  1  0  0  0
 41116  1  0  0  0
 41117  1  0  0  0
 41 48  1  0  0  0
 42 43  1  0  0  0
 42 66  1  0  0  0
 42118  1  0  0  0
 42119  1  0  0  0
 43 44  1  0  0  0
 44120  1  0  0  0
 45 46  2  0  0  0
 45121  1  0  0  0
 46122  1  0  0  0
 47123  1  0  0  0
 47124  1  0  0  0
 48 56  1  0  0  0
 48 65  1  0  0  0
 48125  1  0  0  0
 49 50  1  0  0  0
 49 53  1  0  0  0
 49 64  1  0  0  0
 49126  1  0  0  0
 50 51  1  0  0  0
 50127  1  0  0  0
 50128  1  0  0  0
 51 52  1  0  0  0
 51129  1  0  0  0
 51130  1  0  0  0
 52131  1  0  0  0
 52132  1  0  0  0
 53 54  1  0  0  0
 54 55  2  0  0  0
 54133  1  0  0  0
 55 57  1  0  0  0
 55134  1  0  0  0
 56 69  2  0  0  0
 57 58  2  0  0  0
 57135  1  0  0  0
 58136  1  0  0  0
 59 60  1  0  0  0
 59 61  1  0  0  0
 59 62  1  0  0  0
 60137  1  0  0  0
 60138  1  0  0  0
 60139  1  0  0  0
 61140  1  0  0  0
 61141  1  0  0  0
 61142  1  0  0  0
 62143  1  0  0  0
 62144  1  0  0  0
 62145  1  0  0  0
 63 65  1  0  0  0
 63146  1  0  0  0
 63147  1  0  0  0
 63148  1  0  0  0
 64149  1  0  0  0
 65150  1  0  0  0
 68 88  1  0  0  0
 71 72  2  0  0  0
 71 76  1  0  0  0
 71151  1  0  0  0
 72 73  1  0  0  0
 72 83  1  0  0  0
 73 74  2  0  0  0
 73 88  1  0  0  0
 74 75  1  0  0  0
 74 85  1  0  0  0
 75 76  2  0  0  0
 75 86  1  0  0  0
 76 91  1  0  0  0
 77 80  1  0  0  0
 77152  1  0  0  0
 77153  1  0  0  0
 77 84  1  0  0  0
 78 81  1  0  0  0
 78 84  1  0  0  0
 78154  1  0  0  0
 78155  1  0  0  0
 79 82  1  0  0  0
 79 83  1  0  0  0
 79156  1  0  0  0
 79157  1  0  0  0
 80 89  1  0  0  0
 80158  1  0  0  0
 80159  1  0  0  0
 81 89  1  0  0  0
 81160  1  0  0  0
 81161  1  0  0  0
 82162  1  0  0  0
 82163  1  0  0  0
 82 90  1  0  0  0
 83 90  1  0  0  0
 83164  1  0  0  0
 84 90  1  0  0  0
 84165  1  0  0  0
 85166  1  0  0  0
 85167  1  0  0  0
 85168  1  0  0  0
 86169  1  0  0  0
 86170  1  0  0  0
 86171  1  0  0  0
 87 91  1  0  0  0
 87172  1  0  0  0
 87173  1  0  0  0
 87174  1  0  0  0
 88175  1  0  0  0
 88176  1  0  0  0
 90177  1  0  0  0
M  CHG  1  90   1
M  ISO  4   1 100  68 101  88 101  89 100
M  END
> <chiral flag>
0

> <version>
0

> <s_m_source_file>
/data/baiqing/PycharmProjects/Reinvent-master-3.2/result/LINK_invent/BTK/process_docking_weight1_custom_sum_contain_oxygen_bond_distance_aromatic_linkinvent_7_9_3/rearranged_h_0165.sdf

> <i_m_source_file_index>
56

> <r_mmod_Potential_Energy-OPLS-2005>
348.027191162109

> <r_mmod_Stretch_Energy-OPLS-2005>
121.976654052734

> <r_mmod_Bend_Energy-OPLS-2005>
196.829895019531

> <r_mmod_Torsional_Energy-OPLS-2005>
421.51171875

> <r_mmod_Improper_Torsional_Energy-OPLS-2005>
5.01599216461182

> <r_mmod_Van_der_Waal_Energy-OPLS-2005>
163.637069702148

> <r_mmod_Electrostatic_Energy-OPLS-2005>
-184.446136474609

> <r_mmod_Solvation_Energy-OPLS-2005>
-438.033264160156

> <b_mmod_Minimization_Converged-OPLS-2005>
0

> <r_mmod_RMS_Derivative-OPLS-2005>
2.12943911552429

$$$$
56
                    3D
 Structure written by MMmdl.
167178  0  0  1  0            999 V2000
  -30.6402  -14.4556   20.6652 C   0  0  0  0  0  0
  -30.4284  -12.3294   19.3992 C   0  0  0  0  0  0
  -29.4937  -12.5444   18.1920 C   0  0  0  0  0  0
  -28.0022  -12.4019   18.5855 C   0  0  0  0  0  0
  -27.6508  -13.1934   19.8697 C   0  0  2  0  0  0
  -28.6880  -12.9151   20.9765 C   0  0  0  0  0  0
  -25.2513  -13.8073   20.5600 C   0  0  0  0  0  0
  -24.1810  -13.0392   20.9308 C   0  0  0  0  0  0
  -24.6329  -11.6885   20.8758 C   0  0  0  0  0  0
  -23.8995  -10.4262   21.0407 C   0  0  0  0  0  0
  -24.3549   -9.4223   21.9205 C   0  0  0  0  0  0
  -23.6260   -8.2229   22.0740 C   0  0  0  0  0  0
  -22.4257   -8.0239   21.3514 C   0  0  0  0  0  0
  -21.9876   -9.0238   20.4634 C   0  0  0  0  0  0
  -22.7178  -10.2122   20.3091 C   0  0  0  0  0  0
  -21.6865   -6.0715   22.5289 C   0  0  0  0  0  0
  -21.4041   -6.5631   23.8230 C   0  0  0  0  0  0
  -21.3676   -5.6800   24.9197 C   0  0  0  0  0  0
  -21.6061   -4.3059   24.7264 C   0  0  0  0  0  0
  -21.8820   -3.8126   23.4384 C   0  0  0  0  0  0
  -21.9193   -4.6942   22.3427 C   0  0  0  0  0  0
  -22.7799  -13.5143   21.1918 C   0  0  0  0  0  0
  -22.1649   -4.2097   21.1013 F   0  0  0  0  0  0
  -21.5623   -3.4562   25.7789 F   0  0  0  0  0  0
  -30.0147  -13.2660   20.4570 N   0  0  0  0  0  0
  -26.2919  -12.9218   20.3274 N   0  0  0  0  0  0
  -25.9276  -11.6410   20.5761 N   0  0  0  0  0  0
  -22.0374  -12.8102   22.0391 N   0  0  0  0  0  0
  -25.4136  -15.1729   20.3683 N   0  0  0  0  0  0
  -31.7344  -14.7355   20.1506 O   0  0  0  0  0  0
  -21.6617   -6.8853   21.4246 O   0  0  0  0  0  0
  -22.3495  -14.5490   20.6795 O   0  0  0  0  0  0
  -24.6289  -31.8683   23.2155 C   0  0  0  0  0  0
  -25.9248  -32.4794   23.8421 C   0  0  1  0  0  0
  -27.1645  -27.3425   20.1280 C   0  0  0  0  0  0
  -25.6142  -33.8603   24.2379 N   0  0  0  0  0  0
  -23.4164  -30.5122   21.5381 C   0  0  2  0  0  0
  -24.8475  -28.9763   20.0936 C   0  0  0  0  0  0
  -22.7430  -29.4850   22.4735 C   0  0  0  0  0  0
  -18.0324  -28.1333   22.8478 C   0  0  0  0  0  0
  -24.1530  -36.7285   23.2626 C   0  0  0  0  0  0
  -25.9505  -30.8187   21.3752 C   0  0  0  0  0  0
  -26.0215  -29.4555   20.6927 C   0  0  0  0  0  0
  -27.1955  -28.6452   20.6998 C   0  0  0  0  0  0
  -25.9874  -26.9204   19.4815 C   0  0  0  0  0  0
  -24.8281  -27.7129   19.4816 C   0  0  0  0  0  0
  -23.6311  -29.8757   20.1426 C   0  0  0  0  0  0
  -25.4161  -36.3088   24.0319 C   0  0  1  0  0  0
  -20.5851  -28.3931   23.1142 C   0  0  2  0  0  0
  -20.6919  -26.9461   22.5560 C   0  0  0  0  0  0
  -19.5861  -26.6045   21.5609 C   0  0  0  0  0  0
  -18.2032  -26.7618   22.2116 C   0  0  0  0  0  0
  -19.1470  -28.8987   23.2743 C   0  0  0  0  0  0
  -18.9213  -30.1556   23.8788 C   0  0  0  0  0  0
  -17.6209  -30.6476   24.0622 C   0  0  0  0  0  0
  -25.9070  -34.9459   23.5093 C   0  0  0  0  0  0
  -16.5186  -29.8976   23.6236 C   0  0  0  0  0  0
  -16.7235  -28.6425   23.0204 C   0  0  0  0  0  0
  -26.4642  -31.6535   25.0750 C   0  0  0  0  0  0
  -25.3880  -31.3599   26.1477 C   0  0  0  0  0  0
  -27.0491  -30.2986   24.6116 C   0  0  0  0  0  0
  -27.6181  -32.4238   25.7541 C   0  0  0  0  0  0
  -27.5594  -37.1839   24.8466 C   0  0  0  0  0  0
  -21.4157  -29.3179   22.3324 N   0  0  0  0  0  0
  -26.4336  -37.3779   23.9385 N   0  0  0  0  0  0
  -24.6813  -31.0830   22.1014 N   0  0  0  0  0  0
  -23.4062  -28.8497   23.2969 O   0  0  0  0  0  0
  -28.2216  -26.4662   20.3268 O   0  0  0  0  0  0
  -26.5493  -34.8909   22.4585 O   0  0  0  0  0  0
  -23.5480  -32.1516   23.7485 O   0  0  0  0  0  0
  -28.3637  -19.5065   20.5002 C   0  0  0  0  0  0
  -28.0018  -20.8792   20.4922 C   0  0  0  0  0  0
  -26.6910  -19.0668   22.1749 C   0  0  0  0  0  0
  -27.7704  -18.5911   21.3971 C   0  0  0  0  0  0
  -26.2535  -20.4090   22.1195 C   0  0  0  0  0  0
  -26.9897  -21.3685   21.3567 C   0  0  0  0  0  0
  -24.5217  -21.9478   23.5572 C   0  0  0  0  0  0
  -24.8556  -20.6966   24.3392 C   0  0  0  0  0  0
  -28.9334  -16.8683   22.9433 C   0  0  0  0  0  0
  -27.0955  -25.0552   21.7187 C   0  0  0  0  0  0
  -29.8841  -15.6763   22.7227 C   0  0  0  0  0  0
  -29.3181  -16.5808   20.6045 C   0  0  0  0  0  0
  -28.2694  -17.1413   21.5964 C   0  0  2  0  0  0
  -24.9430  -20.6886   22.8339 C   0  0  0  0  0  0
  -26.8228  -23.9779   20.7899 C   0  0  1  0  0  0
  -28.0319  -24.9857   20.4852 C   0  0  1  0  0  0
  -29.8630  -15.3962   21.2752 N   0  0  0  0  0  0
  -26.7567  -22.7407   21.6012 N   0  0  0  0  0  0
  -31.4678  -12.4890   19.0953 H   0  0  0  0  0  0
  -30.3682  -11.3028   19.7704 H   0  0  0  0  0  0
  -29.7334  -11.8353   17.3990 H   0  0  0  0  0  0
  -29.6749  -13.5446   17.7877 H   0  0  0  0  0  0
  -27.7769  -11.3410   18.7365 H   0  0  0  0  0  0
  -27.3721  -12.7482   17.7704 H   0  0  0  0  0  0
  -27.6991  -14.2511   19.6139 H   0  0  0  0  0  0
  -28.6700  -11.8568   21.2360 H   0  0  0  0  0  0
  -28.4333  -13.4293   21.9005 H   0  0  0  0  0  0
  -25.2685   -9.5741   22.4790 H   0  0  0  0  0  0
  -24.0026   -7.4625   22.7425 H   0  0  0  0  0  0
  -21.0818   -8.8776   19.8880 H   0  0  0  0  0  0
  -22.3633  -10.9706   19.6231 H   0  0  0  0  0  0
  -21.2045   -7.6139   23.9747 H   0  0  0  0  0  0
  -21.1484   -6.0499   25.9097 H   0  0  0  0  0  0
  -22.0551   -2.7582   23.2921 H   0  0  0  0  0  0
  -22.3967  -11.9834   22.4898 H   0  0  0  0  0  0
  -21.1003  -13.1227   22.2507 H   0  0  0  0  0  0
  -24.6065  -15.7868   20.4228 H   0  0  0  0  0  0
  -26.1492  -15.5454   19.7699 H   0  0  0  0  0  0
  -26.7323  -32.5404   23.1166 H   0  0  0  0  0  0
  -25.0676  -33.9737   25.0768 H   0  0  0  0  0  0
  -22.7084  -31.3375   21.4062 H   0  0  0  0  0  0
  -23.3805  -35.9589   23.3272 H   0  0  0  0  0  0
  -24.3672  -36.8884   22.2036 H   0  0  0  0  0  0
  -23.7263  -37.6488   23.6629 H   0  0  0  0  0  0
  -26.0917  -31.6011   20.6276 H   0  0  0  0  0  0
  -26.8283  -30.8366   22.0095 H   0  0  0  0  0  0
  -28.0955  -28.9745   21.2101 H   0  0  0  0  0  0
  -25.9187  -25.9401   19.0421 H   0  0  0  0  0  0
  -23.9148  -27.3370   19.0562 H   0  0  0  0  0  0
  -23.7834  -30.6777   19.4041 H   0  0  0  0  0  0
  -22.7360  -29.3451   19.8145 H   0  0  0  0  0  0
  -25.1344  -36.1936   25.0800 H   0  0  0  0  0  0
  -21.0003  -28.4047   24.1284 H   0  0  0  0  0  0
  -21.6865  -26.7863   22.1272 H   0  0  0  0  0  0
  -20.6062  -26.2119   23.3694 H   0  0  0  0  0  0
  -19.6804  -25.5708   21.2530 H   0  0  0  0  0  0
  -19.6900  -27.2428   20.6829 H   0  0  0  0  0  0
  -17.4286  -26.5750   21.4655 H   0  0  0  0  0  0
  -18.0650  -26.0182   22.9960 H   0  0  0  0  0  0
  -19.7589  -30.7485   24.2123 H   0  0  0  0  0  0
  -17.4650  -31.5966   24.5486 H   0  0  0  0  0  0
  -15.5149  -30.2858   23.7484 H   0  0  0  0  0  0
  -15.8643  -28.0768   22.6803 H   0  0  0  0  0  0
  -24.6144  -30.6859   25.7815 H   0  0  0  0  0  0
  -24.9045  -32.2706   26.4960 H   0  0  0  0  0  0
  -25.8294  -30.8777   27.0218 H   0  0  0  0  0  0
  -26.3142  -29.6832   24.0935 H   0  0  0  0  0  0
  -27.4063  -29.7128   25.4602 H   0  0  0  0  0  0
  -27.9059  -30.4344   23.9509 H   0  0  0  0  0  0
  -27.2876  -33.3571   26.2115 H   0  0  0  0  0  0
  -28.4082  -32.6723   25.0431 H   0  0  0  0  0  0
  -28.0826  -31.8358   26.5470 H   0  0  0  0  0  0
  -28.2589  -38.0149   24.7537 H   0  0  0  0  0  0
  -28.1114  -36.2685   24.6299 H   0  0  0  0  0  0
  -27.2307  -37.1488   25.8863 H   0  0  0  0  0  0
  -20.9404  -29.8932   21.6469 H   0  0  0  0  0  0
  -26.0194  -38.2831   24.1421 H   0  0  0  0  0  0
  -29.1597  -19.1613   19.8527 H   0  0  0  0  0  0
  -28.5601  -21.5608   19.8661 H   0  0  0  0  0  0
  -26.1753  -18.3842   22.8407 H   0  0  0  0  0  0
  -25.2187  -22.7618   23.7136 H   0  0  0  0  0  0
  -23.4717  -22.2360   23.5540 H   0  0  0  0  0  0
  -24.0233  -20.1943   24.8224 H   0  0  0  0  0  0
  -25.7847  -20.7217   24.9077 H   0  0  0  0  0  0
  -29.5128  -17.7303   23.2907 H   0  0  0  0  0  0
  -28.1942  -16.6603   23.7273 H   0  0  0  0  0  0
  -27.5251  -24.7950   22.6767 H   0  0  0  0  0  0
  -26.2477  -25.7237   21.8131 H   0  0  0  0  0  0
  -29.5705  -14.8028   23.3033 H   0  0  0  0  0  0
  -30.8967  -15.9464   23.0316 H   0  0  0  0  0  0
  -30.1256  -17.2889   20.4472 H   0  0  0  0  0  0
  -28.8461  -16.3360   19.6488 H   0  0  0  0  0  0
  -27.4005  -16.4796   21.5415 H   0  0  0  0  0  0
  -24.1406  -20.1761   22.2921 H   0  0  0  0  0  0
  -25.9079  -24.0780   20.2071 H   0  0  0  0  0  0
  -27.9575  -24.7489   19.4322 H   0  0  0  0  0  0
  -26.1378  -22.8802   22.3888 H   0  0  0  0  0  0
  1 25  1  0  0  0
  1 30  2  0  0  0
  1 87  1  0  0  0
  2  3  1  0  0  0
  2 25  1  0  0  0
  2 89  1  0  0  0
  2 90  1  0  0  0
  3  4  1  0  0  0
  3 91  1  0  0  0
  3 92  1  0  0  0
  4  5  1  0  0  0
  4 93  1  0  0  0
  4 94  1  0  0  0
  5  6  1  0  0  0
  5 26  1  0  0  0
  5 95  1  0  0  0
  6 25  1  0  0  0
  6 96  1  0  0  0
  6 97  1  0  0  0
  7  8  2  0  0  0
  7 26  1  0  0  0
  7 29  1  0  0  0
  8  9  1  0  0  0
  8 22  1  0  0  0
  9 10  1  0  0  0
  9 27  2  0  0  0
 10 11  2  0  0  0
 10 15  1  0  0  0
 11 12  1  0  0  0
 11 98  1  0  0  0
 12 13  2  0  0  0
 12 99  1  0  0  0
 13 14  1  0  0  0
 13 31  1  0  0  0
 14 15  2  0  0  0
 14100  1  0  0  0
 15101  1  0  0  0
 16 17  2  0  0  0
 16 21  1  0  0  0
 16 31  1  0  0  0
 17 18  1  0  0  0
 17102  1  0  0  0
 18 19  2  0  0  0
 18103  1  0  0  0
 19 20  1  0  0  0
 19 24  1  0  0  0
 20 21  2  0  0  0
 20104  1  0  0  0
 21 23  1  0  0  0
 22 28  1  0  0  0
 22 32  2  0  0  0
 26 27  1  0  0  0
 28105  1  0  0  0
 28106  1  0  0  0
 29107  1  0  0  0
 29108  1  0  0  0
 33 34  1  0  0  0
 33 66  1  0  0  0
 33 70  2  0  0  0
 34 36  1  0  0  0
 34 59  1  0  0  0
 34109  1  0  0  0
 35 44  2  0  0  0
 35 45  1  0  0  0
 35 68  1  0  0  0
 36 56  1  0  0  0
 36110  1  0  0  0
 37 39  1  0  0  0
 37 47  1  0  0  0
 37 66  1  0  0  0
 37111  1  0  0  0
 38 43  2  0  0  0
 38 46  1  0  0  0
 38 47  1  0  0  0
 39 64  1  0  0  0
 39 67  2  0  0  0
 40 52  1  0  0  0
 40 53  2  0  0  0
 40 58  1  0  0  0
 41112  1  0  0  0
 41113  1  0  0  0
 41114  1  0  0  0
 41 48  1  0  0  0
 42 43  1  0  0  0
 42 66  1  0  0  0
 42115  1  0  0  0
 42116  1  0  0  0
 43 44  1  0  0  0
 44117  1  0  0  0
 45 46  2  0  0  0
 45118  1  0  0  0
 46119  1  0  0  0
 47120  1  0  0  0
 47121  1  0  0  0
 48 56  1  0  0  0
 48 65  1  0  0  0
 48122  1  0  0  0
 49 50  1  0  0  0
 49 53  1  0  0  0
 49 64  1  0  0  0
 49123  1  0  0  0
 50 51  1  0  0  0
 50124  1  0  0  0
 50125  1  0  0  0
 51 52  1  0  0  0
 51126  1  0  0  0
 51127  1  0  0  0
 52128  1  0  0  0
 52129  1  0  0  0
 53 54  1  0  0  0
 54 55  2  0  0  0
 54130  1  0  0  0
 55 57  1  0  0  0
 55131  1  0  0  0
 56 69  2  0  0  0
 57 58  2  0  0  0
 57132  1  0  0  0
 58133  1  0  0  0
 59 60  1  0  0  0
 59 61  1  0  0  0
 59 62  1  0  0  0
 60134  1  0  0  0
 60135  1  0  0  0
 60136  1  0  0  0
 61137  1  0  0  0
 61138  1  0  0  0
 61139  1  0  0  0
 62140  1  0  0  0
 62141  1  0  0  0
 62142  1  0  0  0
 63 65  1  0  0  0
 63143  1  0  0  0
 63144  1  0  0  0
 63145  1  0  0  0
 64146  1  0  0  0
 65147  1  0  0  0
 68 86  1  0  0  0
 71 72  2  0  0  0
 71 74  1  0  0  0
 71148  1  0  0  0
 72 76  1  0  0  0
 72149  1  0  0  0
 73 74  2  0  0  0
 73 75  1  0  0  0
 73150  1  0  0  0
 74 83  1  0  0  0
 75 76  2  0  0  0
 75 84  1  0  0  0
 76 88  1  0  0  0
 77 78  1  0  0  0
 77 84  1  0  0  0
 77151  1  0  0  0
 77152  1  0  0  0
 78 84  1  0  0  0
 78153  1  0  0  0
 78154  1  0  0  0
 79 81  1  0  0  0
 79 83  1  0  0  0
 79155  1  0  0  0
 79156  1  0  0  0
 80 85  1  0  0  0
 80 86  1  0  0  0
 80157  1  0  0  0
 80158  1  0  0  0
 81 87  1  0  0  0
 81159  1  0  0  0
 81160  1  0  0  0
 82 83  1  0  0  0
 82 87  1  0  0  0
 82161  1  0  0  0
 82162  1  0  0  0
 83163  1  0  0  0
 84164  1  0  0  0
 85 86  1  0  0  0
 85 88  1  0  0  0
 85165  1  0  0  0
 86166  1  0  0  0
 88167  1  0  0  0
M  ISO  4   1 100  68 101  86 101  87 100
M  END
> <chiral flag>
0

> <version>
0

> <s_m_source_file>
/data/baiqing/PycharmProjects/Reinvent-master-3.2/result/LINK_invent/BTK/process_docking_weight1_custom_sum_contain_oxygen_bond_distance_aromatic_linkinvent_7_9_3/rearranged_h_0165.sdf

> <i_m_source_file_index>
57

> <r_mmod_Potential_Energy-OPLS-2005>
514.267822265625

> <r_mmod_Stretch_Energy-OPLS-2005>
73.6134719848633

> <r_mmod_Bend_Energy-OPLS-2005>
335.573425292969

> <r_mmod_Torsional_Energy-OPLS-2005>
420.54443359375

> <r_mmod_Improper_Torsional_Energy-OPLS-2005>
11.7774658203125

> <r_mmod_Van_der_Waal_Energy-OPLS-2005>
148.292282104492

> <r_mmod_Electrostatic_Energy-OPLS-2005>
-322.933258056641

> <r_mmod_Solvation_Energy-OPLS-2005>
-194.969543457031

> <b_mmod_Minimization_Converged-OPLS-2005>
0

> <r_mmod_RMS_Derivative-OPLS-2005>
17.8105964660645

$$$$
57
                    3D
 Structure written by MMmdl.
173183  0  0  1  0            999 V2000
  -30.7747  -14.4650   20.5349 C   0  0  0  0  0  0
  -30.3865  -12.2996   19.4373 C   0  0  0  0  0  0
  -29.4803  -12.4837   18.2073 C   0  0  0  0  0  0
  -28.0026  -12.3567   18.6199 C   0  0  0  0  0  0
  -27.6449  -13.2248   19.8569 C   0  0  2  0  0  0
  -28.6871  -13.0762   20.9842 C   0  0  0  0  0  0
  -25.2515  -13.8215   20.5709 C   0  0  0  0  0  0
  -24.1792  -13.0463   20.9195 C   0  0  0  0  0  0
  -24.6379  -11.6940   20.8753 C   0  0  0  0  0  0
  -23.9066  -10.4312   21.0407 C   0  0  0  0  0  0
  -24.3619   -9.4223   21.9179 C   0  0  0  0  0  0
  -23.6290   -8.2261   22.0754 C   0  0  0  0  0  0
  -22.4274   -8.0292   21.3553 C   0  0  0  0  0  0
  -21.9912   -9.0265   20.4655 C   0  0  0  0  0  0
  -22.7245  -10.2141   20.3060 C   0  0  0  0  0  0
  -21.6858   -6.0735   22.5281 C   0  0  0  0  0  0
  -21.4017   -6.5637   23.8217 C   0  0  0  0  0  0
  -21.3658   -5.6790   24.9177 C   0  0  0  0  0  0
  -21.6039   -4.3055   24.7226 C   0  0  0  0  0  0
  -21.8818   -3.8149   23.4345 C   0  0  0  0  0  0
  -21.9196   -4.6966   22.3404 C   0  0  0  0  0  0
  -22.7817  -13.5244   21.1861 C   0  0  0  0  0  0
  -22.1662   -4.2152   21.0981 F   0  0  0  0  0  0
  -21.5626   -3.4530   25.7729 F   0  0  0  0  0  0
  -30.0105  -13.3439   20.4076 N   0  0  0  0  0  0
  -26.2941  -12.9424   20.3328 N   0  0  0  0  0  0
  -25.9309  -11.6567   20.5782 N   0  0  0  0  0  0
  -22.0481  -12.8227   22.0423 N   0  0  0  0  0  0
  -25.4241  -15.1939   20.4148 N   0  0  0  0  0  0
  -31.9587  -14.4293   20.2068 O   0  0  0  0  0  0
  -21.6640   -6.8891   21.4251 O   0  0  0  0  0  0
  -22.3499  -14.5554   20.6722 O   0  0  0  0  0  0
  -24.6122  -31.8689   23.2110 C   0  0  0  0  0  0
  -25.9018  -32.4828   23.8394 C   0  0  1  0  0  0
  -27.2310  -27.4441   20.0817 C   0  0  0  0  0  0
  -25.5892  -33.8635   24.2324 N   0  0  0  0  0  0
  -23.3985  -30.4918   21.5519 C   0  0  2  0  0  0
  -24.8426  -28.9599   20.1153 C   0  0  0  0  0  0
  -22.7383  -29.4654   22.5003 C   0  0  0  0  0  0
  -18.0260  -28.1371   22.8492 C   0  0  0  0  0  0
  -24.1491  -36.7317   23.2635 C   0  0  0  0  0  0
  -25.9263  -30.8362   21.3626 C   0  0  0  0  0  0
  -26.0019  -29.4704   20.7110 C   0  0  0  0  0  0
  -27.1950  -28.7149   20.7004 C   0  0  0  0  0  0
  -26.0452  -26.9372   19.5029 C   0  0  0  0  0  0
  -24.8578  -27.6907   19.5127 C   0  0  0  0  0  0
  -23.6032  -29.8233   20.1662 C   0  0  0  0  0  0
  -25.4111  -36.3114   24.0330 C   0  0  1  0  0  0
  -20.5844  -28.3648   23.1329 C   0  0  2  0  0  0
  -20.6748  -26.9390   22.5415 C   0  0  0  0  0  0
  -19.5728  -26.6381   21.5210 C   0  0  0  0  0  0
  -18.1905  -26.7917   22.1622 C   0  0  0  0  0  0
  -19.1508  -28.8824   23.2907 C   0  0  0  0  0  0
  -18.9442  -30.1434   23.8914 C   0  0  0  0  0  0
  -17.6449  -30.6585   24.0559 C   0  0  0  0  0  0
  -25.9037  -34.9478   23.5122 C   0  0  0  0  0  0
  -16.5338  -29.9087   23.6330 C   0  0  0  0  0  0
  -16.7251  -28.6500   23.0353 C   0  0  0  0  0  0
  -26.4452  -31.6608   25.0720 C   0  0  0  0  0  0
  -25.3727  -31.3710   26.1472 C   0  0  0  0  0  0
  -27.0269  -30.3050   24.6085 C   0  0  0  0  0  0
  -27.6032  -32.4322   25.7484 C   0  0  0  0  0  0
  -27.5586  -37.1808   24.8453 C   0  0  0  0  0  0
  -21.4120  -29.3030   22.3753 N   0  0  0  0  0  0
  -26.4294  -37.3796   23.9407 N   0  0  0  0  0  0
  -24.6636  -31.0791   22.1001 N   0  0  0  0  0  0
  -23.4167  -28.8194   23.3038 O   0  0  0  0  0  0
  -28.4103  -26.7308   20.1075 O   0  0  0  0  0  0
  -26.5604  -34.8927   22.4688 O   0  0  0  0  0  0
  -23.5322  -32.1435   23.7522 O   0  0  0  0  0  0
  -30.5106  -22.8421   20.7411 C   0  0  0  0  0  0
  -28.8629  -23.3588   18.5506 C   0  0  0  0  0  0
  -30.3529  -21.8371   19.7589 C   0  0  0  0  0  0
  -29.9556  -24.1330   20.5797 C   0  0  0  0  0  0
  -29.4767  -22.0922   18.6746 C   0  0  0  0  0  0
  -29.1446  -24.4116   19.4485 C   0  0  0  0  0  0
  -31.8498  -16.9618   19.2553 C   0  0  0  0  0  0
  -32.0084  -18.3837   18.8030 C   0  0  0  0  0  0
  -29.9643  -18.2838   20.0682 C   0  0  0  0  0  0
  -31.7278  -19.9231   20.9529 C   0  0  0  0  0  0
  -30.3845  -16.8034   19.7049 C   0  0  2  0  0  0
  -31.3939  -20.7348   19.7275 C   0  0  1  0  0  0
  -31.1625  -19.2038   19.7444 C   0  0  1  0  0  0
  -30.3488  -25.2143   21.5725 C   0  0  0  0  0  0
  -29.3010  -21.0995   17.5395 C   0  0  0  0  0  0
  -32.5839  -21.3159   18.9659 C   0  0  0  0  0  0
  -29.7744  -16.0814   22.0373 C   0  0  0  0  0  0
  -28.7157  -25.8287   19.0387 C   0  0  0  0  0  0
  -30.1455  -15.6730   20.6804 N   0  0  0  0  0  0
  -31.4348  -12.3354   19.1347 H   0  0  0  0  0  0
  -30.2472  -11.3117   19.8782 H   0  0  0  0  0  0
  -29.7180  -11.7384   17.4473 H   0  0  0  0  0  0
  -29.6595  -13.4598   17.7539 H   0  0  0  0  0  0
  -27.8182  -11.3045   18.8400 H   0  0  0  0  0  0
  -27.3525  -12.6098   17.7814 H   0  0  0  0  0  0
  -27.6697  -14.2632   19.5238 H   0  0  0  0  0  0
  -28.6615  -12.0709   21.4059 H   0  0  0  0  0  0
  -28.4451  -13.7487   21.8058 H   0  0  0  0  0  0
  -25.2768   -9.5685   22.4757 H   0  0  0  0  0  0
  -23.9998   -7.4650   22.7465 H   0  0  0  0  0  0
  -21.0849   -8.8777   19.8957 H   0  0  0  0  0  0
  -22.3700  -10.9674   19.6159 H   0  0  0  0  0  0
  -21.2015   -7.6145   23.9705 H   0  0  0  0  0  0
  -21.1475   -6.0533   25.9076 H   0  0  0  0  0  0
  -22.0598   -2.7613   23.2842 H   0  0  0  0  0  0
  -22.4094  -11.9868   22.4780 H   0  0  0  0  0  0
  -21.1097  -13.1235   22.2641 H   0  0  0  0  0  0
  -24.6661  -15.8563   20.5410 H   0  0  0  0  0  0
  -26.2901  -15.6345   20.1306 H   0  0  0  0  0  0
  -26.7086  -32.5542   23.1160 H   0  0  0  0  0  0
  -25.0036  -33.9802   25.0462 H   0  0  0  0  0  0
  -22.6862  -31.3079   21.4139 H   0  0  0  0  0  0
  -23.3758  -35.9647   23.3291 H   0  0  0  0  0  0
  -24.3581  -36.8944   22.2053 H   0  0  0  0  0  0
  -23.7243  -37.6517   23.6657 H   0  0  0  0  0  0
  -26.0364  -31.6036   20.5949 H   0  0  0  0  0  0
  -26.8147  -30.8883   21.9800 H   0  0  0  0  0  0
  -28.0917  -29.1057   21.1610 H   0  0  0  0  0  0
  -26.0098  -25.9528   19.0610 H   0  0  0  0  0  0
  -23.9613  -27.2832   19.0661 H   0  0  0  0  0  0
  -23.7054  -30.5966   19.4040 H   0  0  0  0  0  0
  -22.7284  -29.2383   19.8760 H   0  0  0  0  0  0
  -25.1294  -36.1975   25.0824 H   0  0  0  0  0  0
  -20.9933  -28.3203   24.1448 H   0  0  0  0  0  0
  -20.5651  -26.2253   23.3592 H   0  0  0  0  0  0
  -21.6619  -26.7427   22.1208 H   0  0  0  0  0  0
  -19.6888  -25.6297   21.1231 H   0  0  0  0  0  0
  -19.6676  -27.3201   20.6751 H   0  0  0  0  0  0
  -17.4172  -26.6663   21.4028 H   0  0  0  0  0  0
  -18.0308  -26.0055   22.9013 H   0  0  0  0  0  0
  -19.7917  -30.7243   24.2293 H   0  0  0  0  0  0
  -17.5006  -31.6270   24.5149 H   0  0  0  0  0  0
  -15.5340  -30.3001   23.7645 H   0  0  0  0  0  0
  -15.8644  -28.0836   22.7061 H   0  0  0  0  0  0
  -24.5882  -30.7081   25.7796 H   0  0  0  0  0  0
  -24.8943  -32.2874   26.4949 H   0  0  0  0  0  0
  -25.8090  -30.8846   27.0206 H   0  0  0  0  0  0
  -26.2801  -29.6844   24.1120 H   0  0  0  0  0  0
  -27.4004  -29.7259   25.4539 H   0  0  0  0  0  0
  -27.8653  -30.4359   23.9240 H   0  0  0  0  0  0
  -27.2646  -33.3608   26.2092 H   0  0  0  0  0  0
  -28.3830  -32.6910   25.0308 H   0  0  0  0  0  0
  -28.0705  -31.8425   26.5380 H   0  0  0  0  0  0
  -28.2581  -38.0128   24.7533 H   0  0  0  0  0  0
  -28.1103  -36.2658   24.6238 H   0  0  0  0  0  0
  -27.2299  -37.1407   25.8852 H   0  0  0  0  0  0
  -20.9266  -29.8779   21.7009 H   0  0  0  0  0  0
  -26.0182  -38.2868   24.1435 H   0  0  0  0  0  0
  -31.2059  -22.6709   21.5516 H   0  0  0  0  0  0
  -28.2584  -23.5647   17.6778 H   0  0  0  0  0  0
  -32.5257  -16.8255   20.1025 H   0  0  0  0  0  0
  -32.1393  -16.2636   18.4688 H   0  0  0  0  0  0
  -31.6395  -18.5062   17.7838 H   0  0  0  0  0  0
  -33.0608  -18.6596   18.8209 H   0  0  0  0  0  0
  -29.6618  -18.4304   21.1022 H   0  0  0  0  0  0
  -29.1031  -18.5765   19.4690 H   0  0  0  0  0  0
  -31.0771  -20.0465   21.8172 H   0  0  0  0  0  0
  -32.7702  -19.7250   21.1937 H   0  0  0  0  0  0
  -29.8116  -16.5359   18.8148 H   0  0  0  0  0  0
  -31.0596  -24.8421   22.3111 H   0  0  0  0  0  0
  -29.4746  -25.5814   22.1104 H   0  0  0  0  0  0
  -30.8209  -26.0526   21.0576 H   0  0  0  0  0  0
  -28.3949  -21.3111   16.9707 H   0  0  0  0  0  0
  -29.2252  -20.0773   17.8978 H   0  0  0  0  0  0
  -30.1470  -21.1571   16.8546 H   0  0  0  0  0  0
  -32.8179  -22.3210   19.3187 H   0  0  0  0  0  0
  -32.3590  -21.3713   17.9009 H   0  0  0  0  0  0
  -33.4881  -20.7257   19.1015 H   0  0  0  0  0  0
  -30.5108  -16.7853   22.4296 H   0  0  0  0  0  0
  -29.7366  -15.2515   22.7428 H   0  0  0  0  0  0
  -28.7943  -16.5572   22.0414 H   0  0  0  0  0  0
  -27.9520  -25.7781   18.2646 H   0  0  0  0  0  0
  -29.5751  -26.2643   18.5278 H   0  0  0  0  0  0
  1 25  1  0  0  0
  1 30  2  0  0  0
  1 89  1  0  0  0
  2  3  1  0  0  0
  2 25  1  0  0  0
  2 90  1  0  0  0
  2 91  1  0  0  0
  3  4  1  0  0  0
  3 92  1  0  0  0
  3 93  1  0  0  0
  4  5  1  0  0  0
  4 94  1  0  0  0
  4 95  1  0  0  0
  5  6  1  0  0  0
  5 26  1  0  0  0
  5 96  1  0  0  0
  6 25  1  0  0  0
  6 97  1  0  0  0
  6 98  1  0  0  0
  7  8  2  0  0  0
  7 26  1  0  0  0
  7 29  1  0  0  0
  8  9  1  0  0  0
  8 22  1  0  0  0
  9 10  1  0  0  0
  9 27  2  0  0  0
 10 11  2  0  0  0
 10 15  1  0  0  0
 11 12  1  0  0  0
 11 99  1  0  0  0
 12 13  2  0  0  0
 12100  1  0  0  0
 13 14  1  0  0  0
 13 31  1  0  0  0
 14 15  2  0  0  0
 14101  1  0  0  0
 15102  1  0  0  0
 16 17  2  0  0  0
 16 21  1  0  0  0
 16 31  1  0  0  0
 17 18  1  0  0  0
 17103  1  0  0  0
 18 19  2  0  0  0
 18104  1  0  0  0
 19 20  1  0  0  0
 19 24  1  0  0  0
 20 21  2  0  0  0
 20105  1  0  0  0
 21 23  1  0  0  0
 22 28  1  0  0  0
 22 32  2  0  0  0
 26 27  1  0  0  0
 28106  1  0  0  0
 28107  1  0  0  0
 29108  1  0  0  0
 29109  1  0  0  0
 33 34  1  0  0  0
 33 66  1  0  0  0
 33 70  2  0  0  0
 34 36  1  0  0  0
 34 59  1  0  0  0
 34110  1  0  0  0
 35 44  2  0  0  0
 35 45  1  0  0  0
 35 68  1  0  0  0
 36 56  1  0  0  0
 36111  1  0  0  0
 37 39  1  0  0  0
 37 47  1  0  0  0
 37 66  1  0  0  0
 37112  1  0  0  0
 38 43  2  0  0  0
 38 46  1  0  0  0
 38 47  1  0  0  0
 39 64  1  0  0  0
 39 67  2  0  0  0
 40 52  1  0  0  0
 40 53  2  0  0  0
 40 58  1  0  0  0
 41113  1  0  0  0
 41114  1  0  0  0
 41115  1  0  0  0
 41 48  1  0  0  0
 42 43  1  0  0  0
 42 66  1  0  0  0
 42116  1  0  0  0
 42117  1  0  0  0
 43 44  1  0  0  0
 44118  1  0  0  0
 45 46  2  0  0  0
 45119  1  0  0  0
 46120  1  0  0  0
 47121  1  0  0  0
 47122  1  0  0  0
 48 56  1  0  0  0
 48 65  1  0  0  0
 48123  1  0  0  0
 49 50  1  0  0  0
 49 53  1  0  0  0
 49 64  1  0  0  0
 49124  1  0  0  0
 50 51  1  0  0  0
 50125  1  0  0  0
 50126  1  0  0  0
 51 52  1  0  0  0
 51127  1  0  0  0
 51128  1  0  0  0
 52129  1  0  0  0
 52130  1  0  0  0
 53 54  1  0  0  0
 54 55  2  0  0  0
 54131  1  0  0  0
 55 57  1  0  0  0
 55132  1  0  0  0
 56 69  2  0  0  0
 57 58  2  0  0  0
 57133  1  0  0  0
 58134  1  0  0  0
 59 60  1  0  0  0
 59 61  1  0  0  0
 59 62  1  0  0  0
 60135  1  0  0  0
 60136  1  0  0  0
 60137  1  0  0  0
 61138  1  0  0  0
 61139  1  0  0  0
 61140  1  0  0  0
 62141  1  0  0  0
 62142  1  0  0  0
 62143  1  0  0  0
 63 65  1  0  0  0
 63144  1  0  0  0
 63145  1  0  0  0
 63146  1  0  0  0
 64147  1  0  0  0
 65148  1  0  0  0
 68 88  1  0  0  0
 71 73  2  0  0  0
 71 74  1  0  0  0
 71149  1  0  0  0
 72 75  2  0  0  0
 72 76  1  0  0  0
 72150  1  0  0  0
 73 75  1  0  0  0
 73 82  1  0  0  0
 74 76  2  0  0  0
 74 84  1  0  0  0
 75 85  1  0  0  0
 76 88  1  0  0  0
 77 78  1  0  0  0
 77 81  1  0  0  0
 77151  1  0  0  0
 77152  1  0  0  0
 78153  1  0  0  0
 78154  1  0  0  0
 78 83  1  0  0  0
 79 81  1  0  0  0
 79 83  1  0  0  0
 79155  1  0  0  0
 79156  1  0  0  0
 80 82  1  0  0  0
 80 83  1  0  0  0
 80157  1  0  0  0
 80158  1  0  0  0
 81 89  1  0  0  0
 81159  1  0  0  0
 82 83  1  0  0  0
 82 86  1  0  0  0
 84160  1  0  0  0
 84161  1  0  0  0
 84162  1  0  0  0
 85163  1  0  0  0
 85164  1  0  0  0
 85165  1  0  0  0
 86166  1  0  0  0
 86167  1  0  0  0
 86168  1  0  0  0
 87 89  1  0  0  0
 87169  1  0  0  0
 87170  1  0  0  0
 87171  1  0  0  0
 88172  1  0  0  0
 88173  1  0  0  0
M  ISO  4   1 100  68 101  88 101  89 100
M  END
> <chiral flag>
0

> <version>
0

> <s_m_source_file>
/data/baiqing/PycharmProjects/Reinvent-master-3.2/result/LINK_invent/BTK/process_docking_weight1_custom_sum_contain_oxygen_bond_distance_aromatic_linkinvent_7_9_3/rearranged_h_0165.sdf

> <i_m_source_file_index>
58

> <r_mmod_Potential_Energy-OPLS-2005>
403.326202392578

> <r_mmod_Stretch_Energy-OPLS-2005>
50.3548545837402

> <r_mmod_Bend_Energy-OPLS-2005>
178.301605224609

> <r_mmod_Torsional_Energy-OPLS-2005>
432.12744140625

> <r_mmod_Improper_Torsional_Energy-OPLS-2005>
15.8409519195557

> <r_mmod_Van_der_Waal_Energy-OPLS-2005>
173.473175048828

> <r_mmod_Electrostatic_Energy-OPLS-2005>
-295.471649169922

> <r_mmod_Solvation_Energy-OPLS-2005>
-178.124664306641

> <b_mmod_Minimization_Converged-OPLS-2005>
0

> <r_mmod_RMS_Derivative-OPLS-2005>
1.98375844955444

$$$$
59
                    3D
 Structure written by MMmdl.
187197  0  0  1  0            999 V2000
  -30.5684  -15.0590   20.4406 C   0  0  0  0  0  0
  -30.4439  -12.6605   19.5431 C   0  0  0  0  0  0
  -29.5373  -12.5521   18.2922 C   0  0  0  0  0  0
  -28.0762  -12.3224   18.7036 C   0  0  0  0  0  0
  -27.6329  -13.2677   19.8465 C   0  0  2  0  0  0
  -28.6711  -13.3571   20.9915 C   0  0  0  0  0  0
  -25.2314  -13.7986   20.5371 C   0  0  0  0  0  0
  -24.1728  -13.0292   20.9154 C   0  0  0  0  0  0
  -24.6440  -11.6828   20.8807 C   0  0  0  0  0  0
  -23.9131  -10.4219   21.0450 C   0  0  0  0  0  0
  -24.3654   -9.4128   21.9224 C   0  0  0  0  0  0
  -23.6294   -8.2192   22.0775 C   0  0  0  0  0  0
  -22.4279   -8.0265   21.3557 C   0  0  0  0  0  0
  -21.9938   -9.0257   20.4661 C   0  0  0  0  0  0
  -22.7309  -10.2099   20.3082 C   0  0  0  0  0  0
  -21.6846   -6.0725   22.5278 C   0  0  0  0  0  0
  -21.3993   -6.5622   23.8211 C   0  0  0  0  0  0
  -21.3646   -5.6777   24.9175 C   0  0  0  0  0  0
  -21.6043   -4.3047   24.7235 C   0  0  0  0  0  0
  -21.8828   -3.8138   23.4365 C   0  0  0  0  0  0
  -21.9188   -4.6948   22.3411 C   0  0  0  0  0  0
  -22.7759  -13.5108   21.1822 C   0  0  0  0  0  0
  -22.1662   -4.2129   21.0993 F   0  0  0  0  0  0
  -21.5635   -3.4533   25.7753 F   0  0  0  0  0  0
  -29.9518  -13.7886   20.4091 N   0  0  0  0  0  0
  -26.2929  -12.9405   20.3287 N   0  0  0  0  0  0
  -25.9409  -11.6527   20.5878 N   0  0  0  0  0  0
  -22.0438  -12.8165   22.0447 N   0  0  0  0  0  0
  -25.3637  -15.1546   20.3141 N   0  0  0  0  0  0
  -31.7166  -15.0734   19.9865 O   0  0  0  0  0  0
  -21.6635   -6.8872   21.4251 O   0  0  0  0  0  0
  -22.3433  -14.5426   20.6671 O   0  0  0  0  0  0
  -24.6468  -31.8401   23.1820 C   0  0  0  0  0  0
  -25.9213  -32.4662   23.8232 C   0  0  1  0  0  0
  -27.2355  -27.0974   20.1631 C   0  0  0  0  0  0
  -25.5971  -33.8470   24.2161 N   0  0  0  0  0  0
  -23.4535  -30.4521   21.5273 C   0  0  2  0  0  0
  -24.9117  -28.8667   20.1184 C   0  0  0  0  0  0
  -22.7552  -29.4536   22.4830 C   0  0  0  0  0  0
  -18.0343  -28.1404   22.8415 C   0  0  0  0  0  0
  -24.1494  -36.7245   23.2640 C   0  0  0  0  0  0
  -26.0111  -30.6998   21.3916 C   0  0  0  0  0  0
  -26.0865  -29.3005   20.7474 C   0  0  0  0  0  0
  -27.2469  -28.4294   20.7584 C   0  0  0  0  0  0
  -26.0478  -26.7941   19.4713 C   0  0  0  0  0  0
  -24.9041  -27.6232   19.4648 C   0  0  0  0  0  0
  -23.6885  -29.7730   20.1504 C   0  0  0  0  0  0
  -25.4125  -36.3009   24.0321 C   0  0  1  0  0  0
  -20.5921  -28.3774   23.1249 C   0  0  2  0  0  0
  -20.6800  -26.9416   22.5580 C   0  0  0  0  0  0
  -19.5951  -26.6500   21.5155 C   0  0  0  0  0  0
  -18.2117  -26.7948   22.1562 C   0  0  0  0  0  0
  -19.1550  -28.8910   23.2880 C   0  0  0  0  0  0
  -18.9391  -30.1461   23.9010 C   0  0  0  0  0  0
  -17.6352  -30.6475   24.0688 C   0  0  0  0  0  0
  -25.9086  -34.9386   23.5040 C   0  0  0  0  0  0
  -16.5283  -29.8951   23.6347 C   0  0  0  0  0  0
  -16.7279  -28.6469   23.0207 C   0  0  0  0  0  0
  -26.4534  -31.6546   25.0676 C   0  0  0  0  0  0
  -25.3733  -31.3770   26.1393 C   0  0  0  0  0  0
  -27.0421  -30.2939   24.6271 C   0  0  0  0  0  0
  -27.6035  -32.4335   25.7492 C   0  0  0  0  0  0
  -27.5571  -37.1782   24.8466 C   0  0  0  0  0  0
  -21.4238  -29.2997   22.3496 N   0  0  0  0  0  0
  -26.4271  -37.3729   23.9417 N   0  0  0  0  0  0
  -24.7227  -31.0208   22.0885 N   0  0  0  0  0  0
  -23.4138  -28.8179   23.3089 O   0  0  0  0  0  0
  -28.2907  -26.1009   20.1502 O   0  0  0  0  0  0
  -26.5630  -34.8885   22.4593 O   0  0  0  0  0  0
  -23.5568  -32.1312   23.6984 O   0  0  0  0  0  0
  -30.0243  -16.4664   21.0867 C   0  0  0  0  0  0
  -26.7530  -21.5820   19.9216 C   0  0  0  0  0  0
  -28.1370  -21.5968   20.1552 C   0  0  0  0  0  0
  -29.8940  -16.3944   22.4911 C   0  0  0  0  0  0
  -25.9210  -20.9478   20.8683 C   0  0  0  0  0  0
  -28.6099  -16.6345   23.0366 C   0  0  0  0  0  0
  -27.5379  -16.9236   22.1439 C   0  0  0  0  0  0
  -27.8390  -17.3650   20.8147 C   0  0  0  0  0  0
  -29.1969  -17.6228   20.5396 C   0  0  0  0  0  0
  -26.5819  -20.3739   21.9790 C   0  0  0  0  0  0
  -28.6466  -20.3583   20.8708 C   0  0  0  0  0  0
  -27.6804  -23.2234   18.4279 C   0  0  0  0  0  0
  -26.3603  -22.4496   18.7205 C   0  0  0  0  0  0
  -28.5721  -23.1379   19.6935 C   0  0  2  0  0  0
  -31.0256  -15.8510   23.3573 C   0  0  0  0  0  0
  -24.4014  -20.9614   20.7762 C   0  0  0  0  0  0
  -28.3488  -16.4688   24.5303 C   0  0  0  0  0  0
  -26.1161  -16.8274   22.6908 C   0  0  0  0  0  0
  -26.8130  -17.8210   19.7733 C   0  0  0  0  0  0
  -25.8534  -20.0696   23.2739 C   0  0  0  0  0  0
  -25.1673  -23.4038   18.9723 C   0  0  0  0  0  0
  -25.9915  -21.5675   17.5084 C   0  0  0  0  0  0
  -30.0713  -23.2030   19.3764 C   0  0  0  0  0  0
  -28.1153  -24.5760   20.5291 C   0  0  0  0  0  0
  -27.9009  -20.0640   21.9563 N   0  0  0  0  0  0
  -29.4448  -19.1325   20.4550 N   0  0  0  0  0  0
  -31.4806  -12.7999   19.2275 H   0  0  0  0  0  0
  -30.4374  -11.7230   20.1019 H   0  0  0  0  0  0
  -29.8738  -11.7356   17.6507 H   0  0  0  0  0  0
  -29.6143  -13.4647   17.7011 H   0  0  0  0  0  0
  -27.9995  -11.2859   19.0377 H   0  0  0  0  0  0
  -27.4143  -12.4262   17.8436 H   0  0  0  0  0  0
  -27.5747  -14.2600   19.3938 H   0  0  0  0  0  0
  -28.7727  -12.3993   21.5061 H   0  0  0  0  0  0
  -28.3405  -14.0826   21.7357 H   0  0  0  0  0  0
  -25.2766   -9.5579   22.4860 H   0  0  0  0  0  0
  -23.9954   -7.4578   22.7498 H   0  0  0  0  0  0
  -21.0866   -8.8829   19.8986 H   0  0  0  0  0  0
  -22.3787  -10.9680   19.6232 H   0  0  0  0  0  0
  -21.1980   -7.6127   23.9712 H   0  0  0  0  0  0
  -21.1448   -6.0508   25.9071 H   0  0  0  0  0  0
  -22.0619   -2.7606   23.2875 H   0  0  0  0  0  0
  -22.3979  -11.9779   22.4834 H   0  0  0  0  0  0
  -21.1099  -13.1276   22.2685 H   0  0  0  0  0  0
  -24.5924  -15.7977   20.4404 H   0  0  0  0  0  0
  -26.2476  -15.6226   20.1693 H   0  0  0  0  0  0
  -26.7270  -32.5272   23.0962 H   0  0  0  0  0  0
  -25.0164  -33.9605   25.0343 H   0  0  0  0  0  0
  -22.7613  -31.2780   21.3637 H   0  0  0  0  0  0
  -23.3744  -35.9583   23.3267 H   0  0  0  0  0  0
  -24.3599  -36.8899   22.2058 H   0  0  0  0  0  0
  -23.7252  -37.6438   23.6693 H   0  0  0  0  0  0
  -26.1685  -31.4441   20.6097 H   0  0  0  0  0  0
  -26.8801  -30.7571   22.0324 H   0  0  0  0  0  0
  -28.1347  -28.7566   21.2774 H   0  0  0  0  0  0
  -26.0150  -25.8744   18.9196 H   0  0  0  0  0  0
  -24.0210  -27.2995   18.9329 H   0  0  0  0  0  0
  -23.8350  -30.5424   19.3909 H   0  0  0  0  0  0
  -22.8053  -29.2155   19.8357 H   0  0  0  0  0  0
  -25.1314  -36.1824   25.0811 H   0  0  0  0  0  0
  -21.0029  -28.3453   24.1353 H   0  0  0  0  0  0
  -20.5331  -26.2449   23.3839 H   0  0  0  0  0  0
  -21.6754  -26.7174   22.1790 H   0  0  0  0  0  0
  -19.6908  -27.3450   20.6758 H   0  0  0  0  0  0
  -19.7179  -25.6492   21.1013 H   0  0  0  0  0  0
  -17.4384  -26.6524   21.4012 H   0  0  0  0  0  0
  -18.0725  -26.0136   22.9019 H   0  0  0  0  0  0
  -19.7810  -30.7256   24.2569 H   0  0  0  0  0  0
  -17.4767  -31.6060   24.5466 H   0  0  0  0  0  0
  -15.5284  -30.2824   23.7666 H   0  0  0  0  0  0
  -15.8691  -28.0860   22.6784 H   0  0  0  0  0  0
  -24.5904  -30.7108   25.7754 H   0  0  0  0  0  0
  -24.8941  -32.2966   26.4750 H   0  0  0  0  0  0
  -25.8043  -30.9018   27.0208 H   0  0  0  0  0  0
  -26.3052  -29.6643   24.1259 H   0  0  0  0  0  0
  -27.4015  -29.7255   25.4858 H   0  0  0  0  0  0
  -27.8958  -30.4166   23.9600 H   0  0  0  0  0  0
  -27.2577  -33.3635   26.2008 H   0  0  0  0  0  0
  -28.3884  -32.6893   25.0369 H   0  0  0  0  0  0
  -28.0636  -31.8501   26.5476 H   0  0  0  0  0  0
  -28.2570  -38.0092   24.7504 H   0  0  0  0  0  0
  -28.1078  -36.2619   24.6293 H   0  0  0  0  0  0
  -27.2291  -37.1429   25.8866 H   0  0  0  0  0  0
  -20.9542  -29.8411   21.6374 H   0  0  0  0  0  0
  -26.0131  -38.2790   24.1410 H   0  0  0  0  0  0
  -27.5183  -24.2354   18.0634 H   0  0  0  0  0  0
  -28.2147  -22.7179   17.6197 H   0  0  0  0  0  0
  -31.9378  -15.6814   22.7893 H   0  0  0  0  0  0
  -30.7382  -14.9112   23.8297 H   0  0  0  0  0  0
  -31.2814  -16.5688   24.1381 H   0  0  0  0  0  0
  -24.0022  -21.9063   21.1410 H   0  0  0  0  0  0
  -23.9532  -20.1583   21.3589 H   0  0  0  0  0  0
  -24.0671  -20.8183   19.7478 H   0  0  0  0  0  0
  -29.2420  -16.2498   25.1111 H   0  0  0  0  0  0
  -27.6391  -15.6598   24.7061 H   0  0  0  0  0  0
  -27.9345  -17.3939   24.9368 H   0  0  0  0  0  0
  -25.8707  -15.7877   22.9001 H   0  0  0  0  0  0
  -25.3490  -17.2205   22.0319 H   0  0  0  0  0  0
  -26.0323  -17.3631   23.6307 H   0  0  0  0  0  0
  -26.7571  -17.0918   18.9681 H   0  0  0  0  0  0
  -27.1037  -18.7571   19.2986 H   0  0  0  0  0  0
  -25.8145  -17.9741   20.1609 H   0  0  0  0  0  0
  -25.4718  -20.9991   23.6945 H   0  0  0  0  0  0
  -26.5281  -19.6200   24.0049 H   0  0  0  0  0  0
  -25.0164  -19.3884   23.1271 H   0  0  0  0  0  0
  -25.2306  -23.9469   19.9117 H   0  0  0  0  0  0
  -24.2143  -22.8832   18.9840 H   0  0  0  0  0  0
  -25.0790  -24.1238   18.1593 H   0  0  0  0  0  0
  -26.7712  -20.8449   17.2715 H   0  0  0  0  0  0
  -25.8254  -22.1838   16.6220 H   0  0  0  0  0  0
  -25.0778  -21.0016   17.6826 H   0  0  0  0  0  0
  -30.3654  -22.4446   18.6477 H   0  0  0  0  0  0
  -30.6647  -23.0485   20.2782 H   0  0  0  0  0  0
  -30.3385  -24.1803   18.9699 H   0  0  0  0  0  0
  -27.0798  -24.4733   20.8386 H   0  0  0  0  0  0
  -28.6534  -24.5097   21.4789 H   0  0  0  0  0  0
  -30.2678  -19.3735   19.9122 H   0  0  0  0  0  0
  1 25  1  0  0  0
  1 30  2  0  0  0
  1 71  1  0  0  0
  2  3  1  0  0  0
  2 25  1  0  0  0
  2 97  1  0  0  0
  2 98  1  0  0  0
  3  4  1  0  0  0
  3 99  1  0  0  0
  3100  1  0  0  0
  4  5  1  0  0  0
  4101  1  0  0  0
  4102  1  0  0  0
  5  6  1  0  0  0
  5 26  1  0  0  0
  5103  1  0  0  0
  6 25  1  0  0  0
  6104  1  0  0  0
  6105  1  0  0  0
  7  8  2  0  0  0
  7 26  1  0  0  0
  7 29  1  0  0  0
  8  9  1  0  0  0
  8 22  1  0  0  0
  9 10  1  0  0  0
  9 27  2  0  0  0
 10 11  2  0  0  0
 10 15  1  0  0  0
 11 12  1  0  0  0
 11106  1  0  0  0
 12 13  2  0  0  0
 12107  1  0  0  0
 13 14  1  0  0  0
 13 31  1  0  0  0
 14 15  2  0  0  0
 14108  1  0  0  0
 15109  1  0  0  0
 16 17  2  0  0  0
 16 21  1  0  0  0
 16 31  1  0  0  0
 17 18  1  0  0  0
 17110  1  0  0  0
 18 19  2  0  0  0
 18111  1  0  0  0
 19 20  1  0  0  0
 19 24  1  0  0  0
 20 21  2  0  0  0
 20112  1  0  0  0
 21 23  1  0  0  0
 22 28  1  0  0  0
 22 32  2  0  0  0
 26 27  1  0  0  0
 28113  1  0  0  0
 28114  1  0  0  0
 29115  1  0  0  0
 29116  1  0  0  0
 33 34  1  0  0  0
 33 66  1  0  0  0
 33 70  2  0  0  0
 34 36  1  0  0  0
 34 59  1  0  0  0
 34117  1  0  0  0
 35 44  2  0  0  0
 35 45  1  0  0  0
 35 68  1  0  0  0
 36 56  1  0  0  0
 36118  1  0  0  0
 37 39  1  0  0  0
 37 47  1  0  0  0
 37 66  1  0  0  0
 37119  1  0  0  0
 38 43  2  0  0  0
 38 46  1  0  0  0
 38 47  1  0  0  0
 39 64  1  0  0  0
 39 67  2  0  0  0
 40 52  1  0  0  0
 40 53  2  0  0  0
 40 58  1  0  0  0
 41120  1  0  0  0
 41121  1  0  0  0
 41122  1  0  0  0
 41 48  1  0  0  0
 42 43  1  0  0  0
 42 66  1  0  0  0
 42123  1  0  0  0
 42124  1  0  0  0
 43 44  1  0  0  0
 44125  1  0  0  0
 45 46  2  0  0  0
 45126  1  0  0  0
 46127  1  0  0  0
 47128  1  0  0  0
 47129  1  0  0  0
 48 56  1  0  0  0
 48 65  1  0  0  0
 48130  1  0  0  0
 49 50  1  0  0  0
 49 53  1  0  0  0
 49 64  1  0  0  0
 49131  1  0  0  0
 50 51  1  0  0  0
 50132  1  0  0  0
 50133  1  0  0  0
 51 52  1  0  0  0
 51134  1  0  0  0
 51135  1  0  0  0
 52136  1  0  0  0
 52137  1  0  0  0
 53 54  1  0  0  0
 54 55  2  0  0  0
 54138  1  0  0  0
 55 57  1  0  0  0
 55139  1  0  0  0
 56 69  2  0  0  0
 57 58  2  0  0  0
 57140  1  0  0  0
 58141  1  0  0  0
 59 60  1  0  0  0
 59 61  1  0  0  0
 59 62  1  0  0  0
 60142  1  0  0  0
 60143  1  0  0  0
 60144  1  0  0  0
 61145  1  0  0  0
 61146  1  0  0  0
 61147  1  0  0  0
 62148  1  0  0  0
 62149  1  0  0  0
 62150  1  0  0  0
 63 65  1  0  0  0
 63151  1  0  0  0
 63152  1  0  0  0
 63153  1  0  0  0
 64154  1  0  0  0
 65155  1  0  0  0
 68 94  1  0  0  0
 71 74  2  0  0  0
 71 79  1  0  0  0
 72 73  1  0  0  0
 72 75  2  0  0  0
 72 83  1  0  0  0
 73 81  2  0  0  0
 73 84  1  0  0  0
 74 76  1  0  0  0
 74 85  1  0  0  0
 75 80  1  0  0  0
 75 86  1  0  0  0
 76 77  2  0  0  0
 76 87  1  0  0  0
 77 78  1  0  0  0
 77 88  1  0  0  0
 78 79  2  0  0  0
 78 89  1  0  0  0
 79 96  1  0  0  0
 80 90  1  0  0  0
 80 95  2  0  0  0
 81 95  1  0  0  0
 81 96  1  0  0  0
 82 83  1  0  0  0
 82 84  1  0  0  0
 82156  1  0  0  0
 82157  1  0  0  0
 83 91  1  0  0  0
 83 92  1  0  0  0
 84 93  1  0  0  0
 84 94  1  0  0  0
 85158  1  0  0  0
 85159  1  0  0  0
 85160  1  0  0  0
 86161  1  0  0  0
 86162  1  0  0  0
 86163  1  0  0  0
 87164  1  0  0  0
 87165  1  0  0  0
 87166  1  0  0  0
 88167  1  0  0  0
 88168  1  0  0  0
 88169  1  0  0  0
 89170  1  0  0  0
 89171  1  0  0  0
 89172  1  0  0  0
 90173  1  0  0  0
 90174  1  0  0  0
 90175  1  0  0  0
 91176  1  0  0  0
 91177  1  0  0  0
 91178  1  0  0  0
 92179  1  0  0  0
 92180  1  0  0  0
 92181  1  0  0  0
 93182  1  0  0  0
 93183  1  0  0  0
 93184  1  0  0  0
 94185  1  0  0  0
 94186  1  0  0  0
 96187  1  0  0  0
M  ISO  4   1 100  68 101  71 100  94 101
M  END
> <chiral flag>
0

> <version>
0

> <s_m_source_file>
/data/baiqing/PycharmProjects/Reinvent-master-3.2/result/LINK_invent/BTK/process_docking_weight1_custom_sum_contain_oxygen_bond_distance_aromatic_linkinvent_7_9_3/rearranged_h_0165.sdf

> <i_m_source_file_index>
59

> <r_mmod_Potential_Energy-OPLS-2005>
1217.76818847656

> <r_mmod_Stretch_Energy-OPLS-2005>
367.650665283203

> <r_mmod_Bend_Energy-OPLS-2005>
476.562347412109

> <r_mmod_Torsional_Energy-OPLS-2005>
692.412048339844

> <r_mmod_Improper_Torsional_Energy-OPLS-2005>
32.1073112487793

> <r_mmod_Van_der_Waal_Energy-OPLS-2005>
167.08967590332

> <r_mmod_Electrostatic_Energy-OPLS-2005>
-567.50634765625

> <r_mmod_Solvation_Energy-OPLS-2005>
-198.903121948242

> <b_mmod_Minimization_Converged-OPLS-2005>
0

> <r_mmod_RMS_Derivative-OPLS-2005>
6.17068004608154

$$$$
60
                    3D
 Structure written by MMmdl.
179188  0  0  1  0            999 V2000
  -30.6424  -14.4886   20.5383 C   0  0  0  0  0  0
  -30.4444  -12.3120   19.3980 C   0  0  0  0  0  0
  -29.4896  -12.4964   18.1974 C   0  0  0  0  0  0
  -28.0062  -12.3763   18.6061 C   0  0  0  0  0  0
  -27.6650  -13.1985   19.8759 C   0  0  2  0  0  0
  -28.7174  -12.9274   20.9749 C   0  0  0  0  0  0
  -25.2642  -13.8198   20.5719 C   0  0  0  0  0  0
  -24.1894  -13.0483   20.9209 C   0  0  0  0  0  0
  -24.6434  -11.6936   20.8764 C   0  0  0  0  0  0
  -23.9103  -10.4329   21.0433 C   0  0  0  0  0  0
  -24.3662   -9.4234   21.9187 C   0  0  0  0  0  0
  -23.6355   -8.2254   22.0727 C   0  0  0  0  0  0
  -22.4321   -8.0323   21.3539 C   0  0  0  0  0  0
  -21.9991   -9.0266   20.4579 C   0  0  0  0  0  0
  -22.7321  -10.2157   20.3027 C   0  0  0  0  0  0
  -21.6866   -6.0788   22.5314 C   0  0  0  0  0  0
  -21.3993   -6.5671   23.8264 C   0  0  0  0  0  0
  -21.3643   -5.6811   24.9213 C   0  0  0  0  0  0
  -21.6055   -4.3074   24.7248 C   0  0  0  0  0  0
  -21.8837   -3.8180   23.4365 C   0  0  0  0  0  0
  -21.9193   -4.7008   22.3439 C   0  0  0  0  0  0
  -22.7893  -13.5225   21.1893 C   0  0  0  0  0  0
  -22.1692   -4.2224   21.1019 F   0  0  0  0  0  0
  -21.5601   -3.4519   25.7724 F   0  0  0  0  0  0
  -30.0449  -13.2699   20.4354 N   0  0  0  0  0  0
  -26.3075  -12.9327   20.3419 N   0  0  0  0  0  0
  -25.9359  -11.6502   20.5792 N   0  0  0  0  0  0
  -22.0592  -12.8101   22.0378 N   0  0  0  0  0  0
  -25.4393  -15.1938   20.4121 N   0  0  0  0  0  0
  -31.8048  -14.6876   20.1645 O   0  0  0  0  0  0
  -21.6662   -6.8927   21.4275 O   0  0  0  0  0  0
  -22.3513  -14.5511   20.6758 O   0  0  0  0  0  0
  -24.6183  -31.8748   23.2132 C   0  0  0  0  0  0
  -25.9068  -32.4860   23.8433 C   0  0  1  0  0  0
  -27.2274  -27.4365   20.0519 C   0  0  0  0  0  0
  -25.5919  -33.8665   24.2351 N   0  0  0  0  0  0
  -23.4026  -30.5044   21.5598 C   0  0  2  0  0  0
  -24.8417  -28.9772   20.1155 C   0  0  0  0  0  0
  -22.7422  -29.4726   22.5026 C   0  0  0  0  0  0
  -18.0297  -28.1374   22.8522 C   0  0  0  0  0  0
  -24.1513  -36.7368   23.2646 C   0  0  0  0  0  0
  -25.9362  -30.8326   21.3715 C   0  0  0  0  0  0
  -26.0072  -29.4680   20.7152 C   0  0  0  0  0  0
  -27.1979  -28.7018   20.6926 C   0  0  0  0  0  0
  -26.0294  -26.9639   19.4565 C   0  0  0  0  0  0
  -24.8472  -27.7206   19.4925 C   0  0  0  0  0  0
  -23.6075  -29.8496   20.1710 C   0  0  0  0  0  0
  -25.4136  -36.3162   24.0337 C   0  0  1  0  0  0
  -20.5887  -28.3686   23.1340 C   0  0  2  0  0  0
  -20.6825  -26.9429   22.5426 C   0  0  0  0  0  0
  -19.5788  -26.6386   21.5256 C   0  0  0  0  0  0
  -18.1944  -26.7935   22.1635 C   0  0  0  0  0  0
  -19.1535  -28.8843   23.2929 C   0  0  0  0  0  0
  -18.9452  -30.1447   23.8942 C   0  0  0  0  0  0
  -17.6449  -30.6592   24.0570 C   0  0  0  0  0  0
  -25.9042  -34.9510   23.5139 C   0  0  0  0  0  0
  -16.5341  -29.9084   23.6320 C   0  0  0  0  0  0
  -16.7271  -28.6488   23.0367 C   0  0  0  0  0  0
  -26.4443  -31.6619   25.0757 C   0  0  0  0  0  0
  -25.3614  -31.3686   26.1395 C   0  0  0  0  0  0
  -27.0334  -30.3095   24.6124 C   0  0  0  0  0  0
  -27.5986  -32.4322   25.7587 C   0  0  0  0  0  0
  -27.5586  -37.1914   24.8486 C   0  0  0  0  0  0
  -21.4157  -29.3060   22.3732 N   0  0  0  0  0  0
  -26.4360  -37.3801   23.9345 N   0  0  0  0  0  0
  -24.6709  -31.0835   22.1064 N   0  0  0  0  0  0
  -23.4181  -28.8257   23.3065 O   0  0  0  0  0  0
  -28.4098  -26.7085   20.0315 O   0  0  0  0  0  0
  -26.5588  -34.8950   22.4692 O   0  0  0  0  0  0
  -23.5372  -32.1524   23.7512 O   0  0  0  0  0  0
  -30.4251  -19.4087   21.5007 C   0  0  0  0  0  0
  -30.2929  -19.4276   22.9256 C   0  0  0  0  0  0
  -30.4981  -18.1387   20.8412 C   0  0  0  0  0  0
  -30.3541  -18.2160   23.6632 C   0  0  0  0  0  0
  -30.3217  -16.9685   22.9930 C   0  0  0  0  0  0
  -30.2968  -16.9399   21.5752 C   0  0  0  0  0  0
  -31.3892  -21.8075   20.9961 C   0  0  0  0  0  0
  -31.2685  -23.0066   20.0308 C   0  0  0  0  0  0
  -28.9458  -22.4902   19.4991 C   0  0  0  0  0  0
  -30.3572  -20.7094   20.6490 C   0  0  2  0  0  0
  -28.9244  -21.2920   20.4791 C   0  0  2  0  0  0
  -30.0031  -20.7011   23.7296 C   0  0  0  0  0  0
  -30.7062  -18.0453   19.3235 C   0  0  0  0  0  0
  -30.3372  -18.2736   25.1983 C   0  0  0  0  0  0
  -30.2302  -15.6812   23.8151 C   0  0  0  0  0  0
  -27.8784  -20.2382   20.0524 C   0  0  0  0  0  0
  -29.7261  -15.7002   20.8573 C   0  0  0  0  0  0
  -29.8509  -24.8326   19.1805 C   0  0  0  0  0  0
  -28.4931  -25.5887   19.1302 C   0  0  0  0  0  0
  -29.8834  -23.5557   19.9681 N   0  3  2  0  0  0
  -31.4763  -12.4529   19.0746 H   0  0  0  0  0  0
  -30.3869  -11.2964   19.7882 H   0  0  0  0  0  0
  -29.7070  -11.7625   17.4214 H   0  0  0  0  0  0
  -29.6626  -13.4747   17.7470 H   0  0  0  0  0  0
  -27.7856  -11.3227   18.7737 H   0  0  0  0  0  0
  -27.3690  -12.6890   17.7784 H   0  0  0  0  0  0
  -27.7107  -14.2499   19.5963 H   0  0  0  0  0  0
  -28.7034  -11.8698   21.2433 H   0  0  0  0  0  0
  -28.4928  -13.4338   21.9122 H   0  0  0  0  0  0
  -25.2826   -9.5695   22.4719 H   0  0  0  0  0  0
  -24.0099   -7.4628   22.7402 H   0  0  0  0  0  0
  -21.0974   -8.8828   19.8770 H   0  0  0  0  0  0
  -22.3882  -10.9729   19.6109 H   0  0  0  0  0  0
  -21.2019   -7.6184   23.9772 H   0  0  0  0  0  0
  -21.1411   -6.0532   25.9112 H   0  0  0  0  0  0
  -22.0614   -2.7641   23.2861 H   0  0  0  0  0  0
  -22.4328  -11.9788   22.4771 H   0  0  0  0  0  0
  -21.1122  -13.0860   22.2517 H   0  0  0  0  0  0
  -24.6770  -15.8586   20.4864 H   0  0  0  0  0  0
  -26.3028  -15.6180   20.0986 H   0  0  0  0  0  0
  -26.7162  -32.5583   23.1224 H   0  0  0  0  0  0
  -25.0080  -33.9818   25.0497 H   0  0  0  0  0  0
  -22.6924  -31.3245   21.4308 H   0  0  0  0  0  0
  -23.3777  -35.9708   23.3334 H   0  0  0  0  0  0
  -24.3587  -36.8971   22.2063 H   0  0  0  0  0  0
  -23.7292  -37.6583   23.6656 H   0  0  0  0  0  0
  -26.0471  -31.6007   20.6047 H   0  0  0  0  0  0
  -26.8248  -30.8848   21.9867 H   0  0  0  0  0  0
  -28.0971  -29.0814   21.1566 H   0  0  0  0  0  0
  -25.9624  -26.0187   18.9408 H   0  0  0  0  0  0
  -23.9505  -27.3374   19.0264 H   0  0  0  0  0  0
  -23.7226  -30.6336   19.4226 H   0  0  0  0  0  0
  -22.7252  -29.2837   19.8692 H   0  0  0  0  0  0
  -25.1343  -36.2077   25.0842 H   0  0  0  0  0  0
  -20.9978  -28.3279   24.1474 H   0  0  0  0  0  0
  -20.5856  -26.2283   23.3609 H   0  0  0  0  0  0
  -21.6687  -26.7575   22.1156 H   0  0  0  0  0  0
  -19.6968  -25.6309   21.1274 H   0  0  0  0  0  0
  -19.6716  -27.3208   20.6796 H   0  0  0  0  0  0
  -17.4257  -26.6759   21.3974 H   0  0  0  0  0  0
  -18.0258  -26.0030   22.8968 H   0  0  0  0  0  0
  -19.7914  -30.7243   24.2335 H   0  0  0  0  0  0
  -17.5002  -31.6272   24.5165 H   0  0  0  0  0  0
  -15.5340  -30.2993   23.7607 H   0  0  0  0  0  0
  -15.8686  -28.0783   22.7096 H   0  0  0  0  0  0
  -24.5804  -30.7073   25.7606 H   0  0  0  0  0  0
  -24.8754  -32.2832   26.4822 H   0  0  0  0  0  0
  -25.7833  -30.8790   27.0173 H   0  0  0  0  0  0
  -26.2950  -29.6862   24.1057 H   0  0  0  0  0  0
  -27.4037  -29.7308   25.4595 H   0  0  0  0  0  0
  -27.8786  -30.4487   23.9368 H   0  0  0  0  0  0
  -27.2593  -33.3636   26.2135 H   0  0  0  0  0  0
  -28.3842  -32.6838   25.0448 H   0  0  0  0  0  0
  -28.0577  -31.8431   26.5537 H   0  0  0  0  0  0
  -28.2684  -38.0120   24.7393 H   0  0  0  0  0  0
  -28.1007  -36.2655   24.6554 H   0  0  0  0  0  0
  -27.2234  -37.1833   25.8861 H   0  0  0  0  0  0
  -20.9314  -29.8712   21.6898 H   0  0  0  0  0  0
  -26.0289  -38.2938   24.1136 H   0  0  0  0  0  0
  -31.3184  -22.1778   22.0133 H   0  0  0  0  0  0
  -32.3951  -21.3925   20.9211 H   0  0  0  0  0  0
  -31.5740  -22.6989   19.0274 H   0  0  0  0  0  0
  -31.9718  -23.7819   20.3345 H   0  0  0  0  0  0
  -27.9255  -22.8533   19.4097 H   0  0  0  0  0  0
  -29.2336  -22.1563   18.4977 H   0  0  0  0  0  0
  -30.6446  -20.4655   19.6336 H   0  0  0  0  0  0
  -28.5703  -21.6738   21.4318 H   0  0  0  0  0  0
  -29.6965  -21.5645   23.1536 H   0  0  0  0  0  0
  -30.8598  -20.9961   24.3353 H   0  0  0  0  0  0
  -29.1636  -20.5199   24.4044 H   0  0  0  0  0  0
  -31.5240  -18.6823   18.9886 H   0  0  0  0  0  0
  -29.8036  -18.3159   18.7761 H   0  0  0  0  0  0
  -30.9977  -17.0505   18.9937 H   0  0  0  0  0  0
  -29.3349  -18.5320   25.5434 H   0  0  0  0  0  0
  -31.0357  -19.0312   25.5584 H   0  0  0  0  0  0
  -30.6341  -17.3504   25.6949 H   0  0  0  0  0  0
  -31.1280  -15.5558   24.4219 H   0  0  0  0  0  0
  -30.1312  -14.7704   23.2308 H   0  0  0  0  0  0
  -29.3634  -15.7231   24.4764 H   0  0  0  0  0  0
  -28.0957  -19.8128   19.0722 H   0  0  0  0  0  0
  -26.8835  -20.6782   19.9962 H   0  0  0  0  0  0
  -27.8128  -19.4167   20.7680 H   0  0  0  0  0  0
  -29.2684  -15.9974   19.9146 H   0  0  0  0  0  0
  -28.8551  -15.4252   21.4455 H   0  0  0  0  0  0
  -30.6125  -25.5207   19.5592 H   0  0  0  0  0  0
  -30.1489  -24.5944   18.1592 H   0  0  0  0  0  0
  -27.6706  -24.9012   19.2917 H   0  0  0  0  0  0
  -28.3668  -25.9854   18.1194 H   0  0  0  0  0  0
  -29.6124  -23.7965   20.9101 H   0  0  0  0  0  0
  1 25  1  0  0  0
  1 30  2  0  0  0
  1 87  1  0  0  0
  2  3  1  0  0  0
  2 25  1  0  0  0
  2 91  1  0  0  0
  2 92  1  0  0  0
  3  4  1  0  0  0
  3 93  1  0  0  0
  3 94  1  0  0  0
  4  5  1  0  0  0
  4 95  1  0  0  0
  4 96  1  0  0  0
  5  6  1  0  0  0
  5 26  1  0  0  0
  5 97  1  0  0  0
  6 25  1  0  0  0
  6 98  1  0  0  0
  6 99  1  0  0  0
  7  8  2  0  0  0
  7 26  1  0  0  0
  7 29  1  0  0  0
  8  9  1  0  0  0
  8 22  1  0  0  0
  9 10  1  0  0  0
  9 27  2  0  0  0
 10 11  2  0  0  0
 10 15  1  0  0  0
 11 12  1  0  0  0
 11100  1  0  0  0
 12 13  2  0  0  0
 12101  1  0  0  0
 13 14  1  0  0  0
 13 31  1  0  0  0
 14 15  2  0  0  0
 14102  1  0  0  0
 15103  1  0  0  0
 16 17  2  0  0  0
 16 21  1  0  0  0
 16 31  1  0  0  0
 17 18  1  0  0  0
 17104  1  0  0  0
 18 19  2  0  0  0
 18105  1  0  0  0
 19 20  1  0  0  0
 19 24  1  0  0  0
 20 21  2  0  0  0
 20106  1  0  0  0
 21 23  1  0  0  0
 22 28  1  0  0  0
 22 32  2  0  0  0
 26 27  1  0  0  0
 28107  1  0  0  0
 28108  1  0  0  0
 29109  1  0  0  0
 29110  1  0  0  0
 33 34  1  0  0  0
 33 66  1  0  0  0
 33 70  2  0  0  0
 34 36  1  0  0  0
 34 59  1  0  0  0
 34111  1  0  0  0
 35 44  2  0  0  0
 35 45  1  0  0  0
 35 68  1  0  0  0
 36 56  1  0  0  0
 36112  1  0  0  0
 37 39  1  0  0  0
 37 47  1  0  0  0
 37 66  1  0  0  0
 37113  1  0  0  0
 38 43  2  0  0  0
 38 46  1  0  0  0
 38 47  1  0  0  0
 39 64  1  0  0  0
 39 67  2  0  0  0
 40 52  1  0  0  0
 40 53  2  0  0  0
 40 58  1  0  0  0
 41114  1  0  0  0
 41115  1  0  0  0
 41116  1  0  0  0
 41 48  1  0  0  0
 42 43  1  0  0  0
 42 66  1  0  0  0
 42117  1  0  0  0
 42118  1  0  0  0
 43 44  1  0  0  0
 44119  1  0  0  0
 45 46  2  0  0  0
 45120  1  0  0  0
 46121  1  0  0  0
 47122  1  0  0  0
 47123  1  0  0  0
 48 56  1  0  0  0
 48 65  1  0  0  0
 48124  1  0  0  0
 49 50  1  0  0  0
 49 53  1  0  0  0
 49 64  1  0  0  0
 49125  1  0  0  0
 50 51  1  0  0  0
 50126  1  0  0  0
 50127  1  0  0  0
 51 52  1  0  0  0
 51128  1  0  0  0
 51129  1  0  0  0
 52130  1  0  0  0
 52131  1  0  0  0
 53 54  1  0  0  0
 54 55  2  0  0  0
 54132  1  0  0  0
 55 57  1  0  0  0
 55133  1  0  0  0
 56 69  2  0  0  0
 57 58  2  0  0  0
 57134  1  0  0  0
 58135  1  0  0  0
 59 60  1  0  0  0
 59 61  1  0  0  0
 59 62  1  0  0  0
 60136  1  0  0  0
 60137  1  0  0  0
 60138  1  0  0  0
 61139  1  0  0  0
 61140  1  0  0  0
 61141  1  0  0  0
 62142  1  0  0  0
 62143  1  0  0  0
 62144  1  0  0  0
 63 65  1  0  0  0
 63145  1  0  0  0
 63146  1  0  0  0
 63147  1  0  0  0
 64148  1  0  0  0
 65149  1  0  0  0
 68 89  1  0  0  0
 71 72  2  0  0  0
 71 73  1  0  0  0
 71 80  1  0  0  0
 72 74  1  0  0  0
 72 82  1  0  0  0
 73 76  2  0  0  0
 73 83  1  0  0  0
 74 75  2  0  0  0
 74 84  1  0  0  0
 75 76  1  0  0  0
 75 85  1  0  0  0
 76 87  1  0  0  0
 77 78  1  0  0  0
 77 80  1  0  0  0
 77150  1  0  0  0
 77151  1  0  0  0
 78 90  1  0  0  0
 78152  1  0  0  0
 78153  1  0  0  0
 79 81  1  0  0  0
 79 90  1  0  0  0
 79154  1  0  0  0
 79155  1  0  0  0
 80 81  1  0  0  0
 80156  1  0  0  0
 81 86  1  0  0  0
 81157  1  0  0  0
 82158  1  0  0  0
 82159  1  0  0  0
 82160  1  0  0  0
 83161  1  0  0  0
 83162  1  0  0  0
 83163  1  0  0  0
 84164  1  0  0  0
 84165  1  0  0  0
 84166  1  0  0  0
 85167  1  0  0  0
 85168  1  0  0  0
 85169  1  0  0  0
 86170  1  0  0  0
 86171  1  0  0  0
 86172  1  0  0  0
 87173  1  0  0  0
 87174  1  0  0  0
 88 89  1  0  0  0
 88175  1  0  0  0
 88176  1  0  0  0
 88 90  1  0  0  0
 89177  1  0  0  0
 89178  1  0  0  0
 90179  1  0  0  0
M  CHG  1  90   1
M  ISO  4   1 100  68 101  87 100  89 101
M  END
> <chiral flag>
0

> <version>
0

> <s_m_source_file>
/data/baiqing/PycharmProjects/Reinvent-master-3.2/result/LINK_invent/BTK/process_docking_weight1_custom_sum_contain_oxygen_bond_distance_aromatic_linkinvent_7_9_3/rearranged_h_0165.sdf

> <i_m_source_file_index>
60

> <r_mmod_Potential_Energy-OPLS-2005>
15.5277137756348

> <r_mmod_Stretch_Energy-OPLS-2005>
53.0642776489258

> <r_mmod_Bend_Energy-OPLS-2005>
131.627716064453

> <r_mmod_Torsional_Energy-OPLS-2005>
251.225173950195

> <r_mmod_Improper_Torsional_Energy-OPLS-2005>
9.50552940368652

> <r_mmod_Van_der_Waal_Energy-OPLS-2005>
197.006057739258

> <r_mmod_Electrostatic_Energy-OPLS-2005>
-234.991577148438

> <r_mmod_Solvation_Energy-OPLS-2005>
-407.952362060547

> <b_mmod_Minimization_Converged-OPLS-2005>
0

> <r_mmod_RMS_Derivative-OPLS-2005>
5.15671730041504

$$$$
61
                    3D
 Structure written by MMmdl.
168179  0  0  1  0            999 V2000
  -30.5648  -15.1063   20.3931 C   0  0  0  0  0  0
  -30.4140  -12.7117   19.5040 C   0  0  0  0  0  0
  -29.5115  -12.5443   18.2629 C   0  0  0  0  0  0
  -28.0566  -12.3034   18.6962 C   0  0  0  0  0  0
  -27.6073  -13.2738   19.8190 C   0  0  2  0  0  0
  -28.6476  -13.4284   20.9476 C   0  0  0  0  0  0
  -25.2373  -13.8264   20.5765 C   0  0  0  0  0  0
  -24.1724  -13.0447   20.9260 C   0  0  0  0  0  0
  -24.6380  -11.6944   20.8774 C   0  0  0  0  0  0
  -23.9082  -10.4298   21.0416 C   0  0  0  0  0  0
  -24.3632   -9.4210   21.9190 C   0  0  0  0  0  0
  -23.6300   -8.2247   22.0758 C   0  0  0  0  0  0
  -22.4280   -8.0287   21.3549 C   0  0  0  0  0  0
  -21.9920   -9.0261   20.4652 C   0  0  0  0  0  0
  -22.7255  -10.2135   20.3064 C   0  0  0  0  0  0
  -21.6857   -6.0740   22.5279 C   0  0  0  0  0  0
  -21.4020   -6.5642   23.8213 C   0  0  0  0  0  0
  -21.3662   -5.6794   24.9175 C   0  0  0  0  0  0
  -21.6043   -4.3057   24.7225 C   0  0  0  0  0  0
  -21.8817   -3.8149   23.4345 C   0  0  0  0  0  0
  -21.9193   -4.6968   22.3402 C   0  0  0  0  0  0
  -22.7742  -13.5194   21.1907 C   0  0  0  0  0  0
  -22.1659   -4.2153   21.0980 F   0  0  0  0  0  0
  -21.5623   -3.4541   25.7738 F   0  0  0  0  0  0
  -29.8908  -13.8722   20.3052 N   0  0  0  0  0  0
  -26.2794  -12.9539   20.3237 N   0  0  0  0  0  0
  -25.9313  -11.6641   20.5743 N   0  0  0  0  0  0
  -22.0400  -12.8176   22.0463 N   0  0  0  0  0  0
  -25.4019  -15.1998   20.4234 N   0  0  0  0  0  0
  -31.7868  -15.0090   20.2296 O   0  0  0  0  0  0
  -21.6642   -6.8884   21.4242 O   0  0  0  0  0  0
  -22.3417  -14.5492   20.6743 O   0  0  0  0  0  0
  -24.6535  -31.8341   23.1786 C   0  0  0  0  0  0
  -25.9260  -32.4640   23.8216 C   0  0  1  0  0  0
  -27.2050  -27.0221   20.1794 C   0  0  0  0  0  0
  -25.5974  -33.8453   24.2130 N   0  0  0  0  0  0
  -23.4619  -30.4497   21.5270 C   0  0  2  0  0  0
  -24.9109  -28.8530   20.1155 C   0  0  0  0  0  0
  -22.7616  -29.4496   22.4823 C   0  0  0  0  0  0
  -18.0315  -28.1401   22.8468 C   0  0  0  0  0  0
  -24.1493  -36.7231   23.2642 C   0  0  0  0  0  0
  -26.0251  -30.6720   21.3934 C   0  0  0  0  0  0
  -26.0933  -29.2707   20.7399 C   0  0  0  0  0  0
  -27.2423  -28.3751   20.7463 C   0  0  0  0  0  0
  -25.9980  -26.7327   19.5094 C   0  0  0  0  0  0
  -24.8824  -27.6018   19.4812 C   0  0  0  0  0  0
  -23.6950  -29.7716   20.1504 C   0  0  0  0  0  0
  -25.4129  -36.2997   24.0303 C   0  0  1  0  0  0
  -20.5934  -28.3736   23.1210 C   0  0  2  0  0  0
  -20.6796  -26.9428   22.5400 C   0  0  0  0  0  0
  -19.5770  -26.6377   21.5209 C   0  0  0  0  0  0
  -18.1953  -26.7935   22.1623 C   0  0  0  0  0  0
  -19.1573  -28.8888   23.2827 C   0  0  0  0  0  0
  -18.9487  -30.1479   23.8860 C   0  0  0  0  0  0
  -17.6481  -30.6591   24.0557 C   0  0  0  0  0  0
  -25.9089  -34.9376   23.5029 C   0  0  0  0  0  0
  -16.5374  -29.9080   23.6338 C   0  0  0  0  0  0
  -16.7298  -28.6501   23.0354 C   0  0  0  0  0  0
  -26.4546  -31.6549   25.0703 C   0  0  0  0  0  0
  -25.3700  -31.3786   26.1380 C   0  0  0  0  0  0
  -27.0422  -30.2924   24.6366 C   0  0  0  0  0  0
  -27.6054  -32.4337   25.7502 C   0  0  0  0  0  0
  -27.5575  -37.1770   24.8461 C   0  0  0  0  0  0
  -21.4295  -29.3044   22.3569 N   0  0  0  0  0  0
  -26.4280  -37.3722   23.9410 N   0  0  0  0  0  0
  -24.7342  -31.0097   22.0876 N   0  0  0  0  0  0
  -23.4209  -28.8054   23.3020 O   0  0  0  0  0  0
  -28.2316  -25.9760   20.1993 O   0  0  0  0  0  0
  -26.5679  -34.8894   22.4612 O   0  0  0  0  0  0
  -23.5627  -32.1273   23.6938 O   0  0  0  0  0  0
  -28.7833  -21.5840   20.3207 C   0  0  0  0  0  0
  -29.4490  -20.3854   19.6607 C   0  0  0  0  0  0
  -30.0804  -20.7982   18.4332 C   0  0  0  0  0  0
  -29.8505  -22.0787   17.8315 C   0  0  0  0  0  0
  -28.7302  -23.0299   19.8286 C   0  0  0  0  0  0
  -29.2923  -23.1804   18.5402 C   0  0  0  0  0  0
  -32.3688  -19.4529   18.2892 C   0  0  0  0  0  0
  -32.3612  -20.3827   17.1204 C   0  0  0  0  0  0
  -29.0765  -22.6547   15.3790 C   0  0  0  0  0  0
  -29.7107  -21.2969   15.2919 C   0  0  0  0  0  0
  -30.7706  -17.7860   20.5950 C   0  0  0  0  0  0
  -28.7618  -17.3556   20.4409 C   0  0  0  0  0  0
  -29.5904  -18.6822   19.9894 C   0  0  0  0  0  0
  -31.0406  -19.8764   17.6911 C   0  0  0  0  0  0
  -30.1715  -22.2746   16.3606 C   0  0  0  0  0  0
  -29.2914  -24.5724   17.9035 C   0  0  0  0  0  0
  -27.9633  -24.4108   20.4730 C   0  0  0  0  0  0
  -30.0193  -16.4662   20.4634 N   0  0  0  0  0  0
  -31.4438  -12.8609   19.1768 H   0  0  0  0  0  0
  -30.4270  -11.7993   20.1025 H   0  0  0  0  0  0
  -29.8610  -11.7165   17.6448 H   0  0  0  0  0  0
  -29.5694  -13.4398   17.6421 H   0  0  0  0  0  0
  -27.9899  -11.2750   19.0527 H   0  0  0  0  0  0
  -27.3857  -12.3744   17.8392 H   0  0  0  0  0  0
  -27.5294  -14.2473   19.3334 H   0  0  0  0  0  0
  -28.7841  -12.4983   21.5004 H   0  0  0  0  0  0
  -28.3170  -14.1789   21.6673 H   0  0  0  0  0  0
  -25.2774   -9.5685   22.4771 H   0  0  0  0  0  0
  -24.0011   -7.4634   22.7470 H   0  0  0  0  0  0
  -21.0852   -8.8784   19.8953 H   0  0  0  0  0  0
  -22.3715  -10.9679   19.6177 H   0  0  0  0  0  0
  -21.2026   -7.6152   23.9720 H   0  0  0  0  0  0
  -21.1478   -6.0524   25.9077 H   0  0  0  0  0  0
  -22.0596   -2.7612   23.2843 H   0  0  0  0  0  0
  -22.4026  -11.9854   22.4874 H   0  0  0  0  0  0
  -21.1012  -13.1187   22.2664 H   0  0  0  0  0  0
  -24.6370  -15.8534   20.5514 H   0  0  0  0  0  0
  -26.2564  -15.6439   20.1151 H   0  0  0  0  0  0
  -26.7325  -32.5211   23.0934 H   0  0  0  0  0  0
  -25.0099  -33.9551   25.0265 H   0  0  0  0  0  0
  -22.7700  -31.2785   21.3637 H   0  0  0  0  0  0
  -23.3765  -35.9552   23.3271 H   0  0  0  0  0  0
  -24.3578  -36.8905   22.2064 H   0  0  0  0  0  0
  -23.7240  -37.6409   23.6710 H   0  0  0  0  0  0
  -26.1918  -31.4181   20.6153 H   0  0  0  0  0  0
  -26.8909  -30.7279   22.0413 H   0  0  0  0  0  0
  -28.1449  -28.6933   21.2492 H   0  0  0  0  0  0
  -25.8945  -25.7794   19.0121 H   0  0  0  0  0  0
  -23.9832  -27.2787   18.9746 H   0  0  0  0  0  0
  -23.8448  -30.5423   19.3934 H   0  0  0  0  0  0
  -22.8064  -29.2219   19.8348 H   0  0  0  0  0  0
  -25.1321  -36.1803   25.0793 H   0  0  0  0  0  0
  -21.0022  -28.3334   24.1333 H   0  0  0  0  0  0
  -20.5686  -26.2350   23.3628 H   0  0  0  0  0  0
  -21.6662  -26.7421   22.1204 H   0  0  0  0  0  0
  -19.6933  -25.6277   21.1264 H   0  0  0  0  0  0
  -19.6709  -27.3165   20.6721 H   0  0  0  0  0  0
  -17.4220  -26.6667   21.4031 H   0  0  0  0  0  0
  -18.0360  -26.0090   22.9035 H   0  0  0  0  0  0
  -19.7963  -30.7304   24.2214 H   0  0  0  0  0  0
  -17.5033  -31.6266   24.5166 H   0  0  0  0  0  0
  -15.5372  -30.2965   23.7684 H   0  0  0  0  0  0
  -15.8701  -28.0804   22.7086 H   0  0  0  0  0  0
  -24.5861  -30.7159   25.7694 H   0  0  0  0  0  0
  -24.8918  -32.2993   26.4735 H   0  0  0  0  0  0
  -25.7949  -30.8990   27.0206 H   0  0  0  0  0  0
  -26.3063  -29.6623   24.1357 H   0  0  0  0  0  0
  -27.3972  -29.7258   25.4985 H   0  0  0  0  0  0
  -27.8998  -30.4125   23.9742 H   0  0  0  0  0  0
  -27.2629  -33.3665   26.1995 H   0  0  0  0  0  0
  -28.3914  -32.6856   25.0370 H   0  0  0  0  0  0
  -28.0666  -31.8521   26.5495 H   0  0  0  0  0  0
  -28.2562  -38.0094   24.7520 H   0  0  0  0  0  0
  -28.1100  -36.2621   24.6266 H   0  0  0  0  0  0
  -27.2294  -37.1387   25.8863 H   0  0  0  0  0  0
  -20.9525  -29.8744   21.6724 H   0  0  0  0  0  0
  -26.0133  -38.2780   24.1430 H   0  0  0  0  0  0
  -28.2817  -21.3889   21.2580 H   0  0  0  0  0  0
  -32.6559  -19.8752   19.2504 H   0  0  0  0  0  0
  -32.7282  -18.4449   18.0910 H   0  0  0  0  0  0
  -32.6869  -19.9774   16.1644 H   0  0  0  0  0  0
  -32.6786  -21.4023   17.3282 H   0  0  0  0  0  0
  -28.0540  -22.7023   15.7494 H   0  0  0  0  0  0
  -29.3215  -23.3643   14.5913 H   0  0  0  0  0  0
  -30.3740  -21.1174   14.4480 H   0  0  0  0  0  0
  -29.0938  -20.4513   15.5892 H   0  0  0  0  0  0
  -30.9927  -18.0492   21.6305 H   0  0  0  0  0  0
  -31.6960  -17.7936   20.0299 H   0  0  0  0  0  0
  -28.0119  -17.0485   19.7108 H   0  0  0  0  0  0
  -28.2969  -17.4639   21.4224 H   0  0  0  0  0  0
  -29.5747  -18.3972   18.9418 H   0  0  0  0  0  0
  -30.5029  -19.1520   17.0816 H   0  0  0  0  0  0
  -31.1352  -22.7630   16.2275 H   0  0  0  0  0  0
  -29.8247  -25.2699   18.5480 H   0  0  0  0  0  0
  -28.2726  -24.9323   17.7560 H   0  0  0  0  0  0
  -29.8020  -24.6497   16.9474 H   0  0  0  0  0  0
  -28.0696  -24.3030   21.5525 H   0  0  0  0  0  0
  -26.9024  -24.2370   20.2994 H   0  0  0  0  0  0
  1 25  1  0  0  0
  1 30  2  0  0  0
  1 88  1  0  0  0
  2  3  1  0  0  0
  2 25  1  0  0  0
  2 89  1  0  0  0
  2 90  1  0  0  0
  3  4  1  0  0  0
  3 91  1  0  0  0
  3 92  1  0  0  0
  4  5  1  0  0  0
  4 93  1  0  0  0
  4 94  1  0  0  0
  5  6  1  0  0  0
  5 26  1  0  0  0
  5 95  1  0  0  0
  6 25  1  0  0  0
  6 96  1  0  0  0
  6 97  1  0  0  0
  7  8  2  0  0  0
  7 26  1  0  0  0
  7 29  1  0  0  0
  8  9  1  0  0  0
  8 22  1  0  0  0
  9 10  1  0  0  0
  9 27  2  0  0  0
 10 11  2  0  0  0
 10 15  1  0  0  0
 11 12  1  0  0  0
 11 98  1  0  0  0
 12 13  2  0  0  0
 12 99  1  0  0  0
 13 14  1  0  0  0
 13 31  1  0  0  0
 14 15  2  0  0  0
 14100  1  0  0  0
 15101  1  0  0  0
 16 17  2  0  0  0
 16 21  1  0  0  0
 16 31  1  0  0  0
 17 18  1  0  0  0
 17102  1  0  0  0
 18 19  2  0  0  0
 18103  1  0  0  0
 19 20  1  0  0  0
 19 24  1  0  0  0
 20 21  2  0  0  0
 20104  1  0  0  0
 21 23  1  0  0  0
 22 28  1  0  0  0
 22 32  2  0  0  0
 26 27  1  0  0  0
 28105  1  0  0  0
 28106  1  0  0  0
 29107  1  0  0  0
 29108  1  0  0  0
 33 34  1  0  0  0
 33 66  1  0  0  0
 33 70  2  0  0  0
 34 36  1  0  0  0
 34 59  1  0  0  0
 34109  1  0  0  0
 35 44  2  0  0  0
 35 45  1  0  0  0
 35 68  1  0  0  0
 36 56  1  0  0  0
 36110  1  0  0  0
 37 39  1  0  0  0
 37 47  1  0  0  0
 37 66  1  0  0  0
 37111  1  0  0  0
 38 43  2  0  0  0
 38 46  1  0  0  0
 38 47  1  0  0  0
 39 64  1  0  0  0
 39 67  2  0  0  0
 40 52  1  0  0  0
 40 53  2  0  0  0
 40 58  1  0  0  0
 41112  1  0  0  0
 41113  1  0  0  0
 41114  1  0  0  0
 41 48  1  0  0  0
 42 43  1  0  0  0
 42 66  1  0  0  0
 42115  1  0  0  0
 42116  1  0  0  0
 43 44  1  0  0  0
 44117  1  0  0  0
 45 46  2  0  0  0
 45118  1  0  0  0
 46119  1  0  0  0
 47120  1  0  0  0
 47121  1  0  0  0
 48 56  1  0  0  0
 48 65  1  0  0  0
 48122  1  0  0  0
 49 50  1  0  0  0
 49 53  1  0  0  0
 49 64  1  0  0  0
 49123  1  0  0  0
 50 51  1  0  0  0
 50124  1  0  0  0
 50125  1  0  0  0
 51 52  1  0  0  0
 51126  1  0  0  0
 51127  1  0  0  0
 52128  1  0  0  0
 52129  1  0  0  0
 53 54  1  0  0  0
 54 55  2  0  0  0
 54130  1  0  0  0
 55 57  1  0  0  0
 55131  1  0  0  0
 56 69  2  0  0  0
 57 58  2  0  0  0
 57132  1  0  0  0
 58133  1  0  0  0
 59 60  1  0  0  0
 59 61  1  0  0  0
 59 62  1  0  0  0
 60134  1  0  0  0
 60135  1  0  0  0
 60136  1  0  0  0
 61137  1  0  0  0
 61138  1  0  0  0
 61139  1  0  0  0
 62140  1  0  0  0
 62141  1  0  0  0
 62142  1  0  0  0
 63 65  1  0  0  0
 63143  1  0  0  0
 63144  1  0  0  0
 63145  1  0  0  0
 64146  1  0  0  0
 65147  1  0  0  0
 68 87  1  0  0  0
 71 72  2  0  0  0
 71 75  1  0  0  0
 71148  1  0  0  0
 72 73  1  0  0  0
 72 83  1  0  0  0
 73 74  2  0  0  0
 73 84  1  0  0  0
 74 76  1  0  0  0
 74 85  1  0  0  0
 75 76  2  0  0  0
 75 87  1  0  0  0
 76 86  1  0  0  0
 77 78  1  0  0  0
 77 84  1  0  0  0
 77149  1  0  0  0
 77150  1  0  0  0
 78 84  1  0  0  0
 78151  1  0  0  0
 78152  1  0  0  0
 79 80  1  0  0  0
 79 85  1  0  0  0
 79153  1  0  0  0
 79154  1  0  0  0
 80 85  1  0  0  0
 80155  1  0  0  0
 80156  1  0  0  0
 81 83  1  0  0  0
 81 88  1  0  0  0
 81157  1  0  0  0
 81158  1  0  0  0
 82 83  1  0  0  0
 82 88  1  0  0  0
 82159  1  0  0  0
 82160  1  0  0  0
 83161  1  0  0  0
 84162  1  0  0  0
 85163  1  0  0  0
 86164  1  0  0  0
 86165  1  0  0  0
 86166  1  0  0  0
 87167  1  0  0  0
 87168  1  0  0  0
M  ISO  4   1 100  68 101  87 101  88 100
M  END
> <chiral flag>
0

> <version>
0

> <s_m_source_file>
/data/baiqing/PycharmProjects/Reinvent-master-3.2/result/LINK_invent/BTK/process_docking_weight1_custom_sum_contain_oxygen_bond_distance_aromatic_linkinvent_7_9_3/rearranged_h_0165.sdf

> <i_m_source_file_index>
61

> <r_mmod_Potential_Energy-OPLS-2005>
1122.77038574219

> <r_mmod_Stretch_Energy-OPLS-2005>
402.657928466797

> <r_mmod_Bend_Energy-OPLS-2005>
440.324432373047

> <r_mmod_Torsional_Energy-OPLS-2005>
351.464263916016

> <r_mmod_Improper_Torsional_Energy-OPLS-2005>
4.44946002960205

> <r_mmod_Van_der_Waal_Energy-OPLS-2005>
153.982147216797

> <r_mmod_Electrostatic_Energy-OPLS-2005>
-344.121734619141

> <r_mmod_Solvation_Energy-OPLS-2005>
-202.141403198242

> <b_mmod_Minimization_Converged-OPLS-2005>
0

> <r_mmod_RMS_Derivative-OPLS-2005>
0.721826434135437

$$$$
62
                    3D
 Structure written by MMmdl.
160169  0  0  1  0            999 V2000
  -30.5985  -14.9551   20.4421 C   0  0  0  0  0  0
  -30.4137  -12.5968   19.5220 C   0  0  0  0  0  0
  -29.5187  -12.5578   18.2638 C   0  0  0  0  0  0
  -28.0443  -12.3625   18.6583 C   0  0  0  0  0  0
  -27.6201  -13.2780   19.8393 C   0  0  2  0  0  0
  -28.6571  -13.3278   20.9826 C   0  0  0  0  0  0
  -25.2360  -13.8286   20.5702 C   0  0  0  0  0  0
  -24.1725  -13.0442   20.9237 C   0  0  0  0  0  0
  -24.6399  -11.6962   20.8751 C   0  0  0  0  0  0
  -23.9110  -10.4305   21.0404 C   0  0  0  0  0  0
  -24.3651   -9.4223   21.9185 C   0  0  0  0  0  0
  -23.6315   -8.2255   22.0761 C   0  0  0  0  0  0
  -22.4292   -8.0294   21.3550 C   0  0  0  0  0  0
  -21.9941   -9.0271   20.4638 C   0  0  0  0  0  0
  -22.7281  -10.2145   20.3051 C   0  0  0  0  0  0
  -21.6858   -6.0762   22.5277 C   0  0  0  0  0  0
  -21.4004   -6.5653   23.8220 C   0  0  0  0  0  0
  -21.3661   -5.6795   24.9175 C   0  0  0  0  0  0
  -21.6041   -4.3059   24.7201 C   0  0  0  0  0  0
  -21.8817   -3.8165   23.4324 C   0  0  0  0  0  0
  -21.9180   -4.6990   22.3388 C   0  0  0  0  0  0
  -22.7732  -13.5189   21.1882 C   0  0  0  0  0  0
  -22.1658   -4.2181   21.0965 F   0  0  0  0  0  0
  -21.5628   -3.4532   25.7712 F   0  0  0  0  0  0
  -29.9402  -13.7212   20.3911 N   0  0  0  0  0  0
  -26.2826  -12.9584   20.3240 N   0  0  0  0  0  0
  -25.9339  -11.6681   20.5732 N   0  0  0  0  0  0
  -22.0387  -12.8173   22.0431 N   0  0  0  0  0  0
  -25.3939  -15.2013   20.4093 N   0  0  0  0  0  0
  -31.7936  -14.9354   20.1295 O   0  0  0  0  0  0
  -21.6643   -6.8904   21.4247 O   0  0  0  0  0  0
  -22.3405  -14.5494   20.6725 O   0  0  0  0  0  0
  -24.6488  -31.8414   23.1892 C   0  0  0  0  0  0
  -25.9256  -32.4686   23.8284 C   0  0  1  0  0  0
  -27.1959  -27.0983   20.1606 C   0  0  0  0  0  0
  -25.6009  -33.8491   24.2201 N   0  0  0  0  0  0
  -23.4516  -30.4663   21.5345 C   0  0  2  0  0  0
  -24.8963  -28.8896   20.1105 C   0  0  0  0  0  0
  -22.7577  -29.4566   22.4854 C   0  0  0  0  0  0
  -18.0299  -28.1426   22.8461 C   0  0  0  0  0  0
  -24.1474  -36.7207   23.2640 C   0  0  0  0  0  0
  -26.0132  -30.7058   21.3900 C   0  0  0  0  0  0
  -26.0791  -29.3136   20.7323 C   0  0  0  0  0  0
  -27.2338  -28.4380   20.7348 C   0  0  0  0  0  0
  -25.9928  -26.7968   19.4845 C   0  0  0  0  0  0
  -24.8686  -27.6440   19.4691 C   0  0  0  0  0  0
  -23.6790  -29.7994   20.1525 C   0  0  0  0  0  0
  -25.4106  -36.3006   24.0322 C   0  0  1  0  0  0
  -20.5921  -28.3733   23.1214 C   0  0  2  0  0  0
  -20.6776  -26.9441   22.5385 C   0  0  0  0  0  0
  -19.5756  -26.6395   21.5191 C   0  0  0  0  0  0
  -18.1926  -26.7983   22.1574 C   0  0  0  0  0  0
  -19.1565  -28.8895   23.2834 C   0  0  0  0  0  0
  -18.9492  -30.1496   23.8856 C   0  0  0  0  0  0
  -17.6488  -30.6622   24.0550 C   0  0  0  0  0  0
  -25.9063  -34.9396   23.5041 C   0  0  0  0  0  0
  -16.5372  -29.9111   23.6357 C   0  0  0  0  0  0
  -16.7287  -28.6527   23.0374 C   0  0  0  0  0  0
  -26.4580  -31.6578   25.0732 C   0  0  0  0  0  0
  -25.3753  -31.3824   26.1432 C   0  0  0  0  0  0
  -27.0432  -30.2963   24.6345 C   0  0  0  0  0  0
  -27.6158  -32.4338   25.7482 C   0  0  0  0  0  0
  -27.5572  -37.1740   24.8466 C   0  0  0  0  0  0
  -21.4265  -29.3069   22.3591 N   0  0  0  0  0  0
  -26.4244  -37.3747   23.9450 N   0  0  0  0  0  0
  -24.7253  -31.0259   22.0927 N   0  0  0  0  0  0
  -23.4201  -28.8119   23.3024 O   0  0  0  0  0  0
  -28.1966  -26.0524   20.2083 O   0  0  0  0  0  0
  -26.5624  -34.8933   22.4611 O   0  0  0  0  0  0
  -23.5592  -32.1266   23.7107 O   0  0  0  0  0  0
  -28.0563  -20.5820   19.8968 C   0  0  0  0  0  0
  -29.1678  -20.0448   20.6289 C   0  0  0  0  0  0
  -27.7001  -21.9948   19.7885 C   0  0  0  0  0  0
  -29.9323  -21.1303   21.2157 C   0  0  0  0  0  0
  -29.5904  -22.5648   21.1003 C   0  0  0  0  0  0
  -28.4206  -23.0820   20.4246 C   0  0  0  0  0  0
  -28.8836  -17.0635   20.2020 C   0  0  0  0  0  0
  -30.7649  -17.5363   20.8619 C   0  0  0  0  0  0
  -29.4379  -18.4035   20.8845 C   0  0  0  0  0  0
  -26.4558  -22.3167   18.9684 C   0  0  0  0  0  0
  -31.1470  -20.7069   22.0408 C   0  0  0  0  0  0
  -30.4893  -23.6148   21.7472 C   0  0  0  0  0  0
  -27.7555  -24.6108   20.6378 C   0  0  0  0  0  0
  -30.0053  -16.2175   20.7834 N   0  0  0  0  0  0
  -31.4593  -12.7032   19.2294 H   0  0  0  0  0  0
  -30.3587  -11.6482   20.0586 H   0  0  0  0  0  0
  -29.8370  -11.7602   17.5927 H   0  0  0  0  0  0
  -29.6328  -13.4904   17.7082 H   0  0  0  0  0  0
  -27.9060  -11.3161   18.9269 H   0  0  0  0  0  0
  -27.3991  -12.5446   17.7984 H   0  0  0  0  0  0
  -27.5728  -14.2833   19.4198 H   0  0  0  0  0  0
  -28.7305  -12.3648   21.4918 H   0  0  0  0  0  0
  -28.3509  -14.0550   21.7375 H   0  0  0  0  0  0
  -25.2798   -9.5680   22.4758 H   0  0  0  0  0  0
  -24.0012   -7.4637   22.7480 H   0  0  0  0  0  0
  -21.0877   -8.8771   19.8934 H   0  0  0  0  0  0
  -22.3742  -10.9669   19.6141 H   0  0  0  0  0  0
  -21.2008   -7.6161   23.9733 H   0  0  0  0  0  0
  -21.1485   -6.0524   25.9083 H   0  0  0  0  0  0
  -22.0595   -2.7624   23.2798 H   0  0  0  0  0  0
  -22.4010  -11.9817   22.4784 H   0  0  0  0  0  0
  -21.1002  -13.1180   22.2655 H   0  0  0  0  0  0
  -24.6139  -15.8451   20.4984 H   0  0  0  0  0  0
  -26.2317  -15.6373   20.0471 H   0  0  0  0  0  0
  -26.7316  -32.5267   23.1009 H   0  0  0  0  0  0
  -25.0312  -33.9627   25.0448 H   0  0  0  0  0  0
  -22.7561  -31.2949   21.3790 H   0  0  0  0  0  0
  -23.3805  -35.9467   23.3211 H   0  0  0  0  0  0
  -24.3554  -36.8897   22.2070 H   0  0  0  0  0  0
  -23.7155  -37.6345   23.6716 H   0  0  0  0  0  0
  -26.1717  -31.4575   20.6153 H   0  0  0  0  0  0
  -26.8844  -30.7536   22.0309 H   0  0  0  0  0  0
  -28.1370  -28.7592   21.2318 H   0  0  0  0  0  0
  -25.8924  -25.8507   18.9720 H   0  0  0  0  0  0
  -23.9697  -27.3151   18.9643 H   0  0  0  0  0  0
  -23.8216  -30.5738   19.3978 H   0  0  0  0  0  0
  -22.7893  -29.2496   19.8389 H   0  0  0  0  0  0
  -25.1294  -36.1770   25.0810 H   0  0  0  0  0  0
  -21.0008  -28.3300   24.1336 H   0  0  0  0  0  0
  -20.5614  -26.2380   23.3621 H   0  0  0  0  0  0
  -21.6649  -26.7409   22.1221 H   0  0  0  0  0  0
  -19.6902  -25.6287   21.1265 H   0  0  0  0  0  0
  -19.6716  -27.3160   20.6690 H   0  0  0  0  0  0
  -17.4220  -26.6773   21.3959 H   0  0  0  0  0  0
  -18.0265  -26.0132   22.8961 H   0  0  0  0  0  0
  -19.7973  -30.7309   24.2221 H   0  0  0  0  0  0
  -17.5051  -31.6309   24.5157 H   0  0  0  0  0  0
  -15.5378  -30.3001   23.7744 H   0  0  0  0  0  0
  -15.8672  -28.0828   22.7151 H   0  0  0  0  0  0
  -24.6034  -30.7018   25.7810 H   0  0  0  0  0  0
  -24.8851  -32.3032   26.4607 H   0  0  0  0  0  0
  -25.8065  -30.9233   27.0334 H   0  0  0  0  0  0
  -26.3044  -29.6688   24.1352 H   0  0  0  0  0  0
  -27.4044  -29.7257   25.4912 H   0  0  0  0  0  0
  -27.8953  -30.4204   23.9655 H   0  0  0  0  0  0
  -27.2869  -33.3817   26.1743 H   0  0  0  0  0  0
  -28.4134  -32.6550   25.0371 H   0  0  0  0  0  0
  -28.0611  -31.8603   26.5619 H   0  0  0  0  0  0
  -28.2555  -38.0073   24.7560 H   0  0  0  0  0  0
  -28.1102  -36.2614   24.6199 H   0  0  0  0  0  0
  -27.2307  -37.1231   25.8868 H   0  0  0  0  0  0
  -20.9467  -29.8790   21.6769 H   0  0  0  0  0  0
  -26.0087  -38.2776   24.1560 H   0  0  0  0  0  0
  -27.4010  -19.8611   19.4255 H   0  0  0  0  0  0
  -28.8948  -17.0937   19.1084 H   0  0  0  0  0  0
  -27.8850  -16.7920   20.5563 H   0  0  0  0  0  0
  -31.3836  -17.6545   21.7564 H   0  0  0  0  0  0
  -31.3802  -17.7267   19.9770 H   0  0  0  0  0  0
  -29.0912  -18.3338   21.9199 H   0  0  0  0  0  0
  -26.0983  -21.4461   18.4161 H   0  0  0  0  0  0
  -26.6677  -23.0936   18.2305 H   0  0  0  0  0  0
  -25.6353  -22.6551   19.6033 H   0  0  0  0  0  0
  -30.8994  -19.8726   22.6993 H   0  0  0  0  0  0
  -31.5305  -21.4834   22.6995 H   0  0  0  0  0  0
  -31.9574  -20.3900   21.3816 H   0  0  0  0  0  0
  -31.5478  -23.3624   21.6764 H   0  0  0  0  0  0
  -30.2283  -23.7600   22.7948 H   0  0  0  0  0  0
  -30.3883  -24.5770   21.2433 H   0  0  0  0  0  0
  -27.7265  -24.6990   21.7244 H   0  0  0  0  0  0
  -26.7010  -24.4959   20.4010 H   0  0  0  0  0  0
  1 25  1  0  0  0
  1 30  2  0  0  0
  1 84  1  0  0  0
  2  3  1  0  0  0
  2 25  1  0  0  0
  2 85  1  0  0  0
  2 86  1  0  0  0
  3  4  1  0  0  0
  3 87  1  0  0  0
  3 88  1  0  0  0
  4  5  1  0  0  0
  4 89  1  0  0  0
  4 90  1  0  0  0
  5  6  1  0  0  0
  5 26  1  0  0  0
  5 91  1  0  0  0
  6 25  1  0  0  0
  6 92  1  0  0  0
  6 93  1  0  0  0
  7  8  2  0  0  0
  7 26  1  0  0  0
  7 29  1  0  0  0
  8  9  1  0  0  0
  8 22  1  0  0  0
  9 10  1  0  0  0
  9 27  2  0  0  0
 10 11  2  0  0  0
 10 15  1  0  0  0
 11 12  1  0  0  0
 11 94  1  0  0  0
 12 13  2  0  0  0
 12 95  1  0  0  0
 13 14  1  0  0  0
 13 31  1  0  0  0
 14 15  2  0  0  0
 14 96  1  0  0  0
 15 97  1  0  0  0
 16 17  2  0  0  0
 16 21  1  0  0  0
 16 31  1  0  0  0
 17 18  1  0  0  0
 17 98  1  0  0  0
 18 19  2  0  0  0
 18 99  1  0  0  0
 19 20  1  0  0  0
 19 24  1  0  0  0
 20 21  2  0  0  0
 20100  1  0  0  0
 21 23  1  0  0  0
 22 28  1  0  0  0
 22 32  2  0  0  0
 26 27  1  0  0  0
 28101  1  0  0  0
 28102  1  0  0  0
 29103  1  0  0  0
 29104  1  0  0  0
 33 34  1  0  0  0
 33 66  1  0  0  0
 33 70  2  0  0  0
 34 36  1  0  0  0
 34 59  1  0  0  0
 34105  1  0  0  0
 35 44  2  0  0  0
 35 45  1  0  0  0
 35 68  1  0  0  0
 36 56  1  0  0  0
 36106  1  0  0  0
 37 39  1  0  0  0
 37 47  1  0  0  0
 37 66  1  0  0  0
 37107  1  0  0  0
 38 43  2  0  0  0
 38 46  1  0  0  0
 38 47  1  0  0  0
 39 64  1  0  0  0
 39 67  2  0  0  0
 40 52  1  0  0  0
 40 53  2  0  0  0
 40 58  1  0  0  0
 41108  1  0  0  0
 41109  1  0  0  0
 41110  1  0  0  0
 41 48  1  0  0  0
 42 43  1  0  0  0
 42 66  1  0  0  0
 42111  1  0  0  0
 42112  1  0  0  0
 43 44  1  0  0  0
 44113  1  0  0  0
 45 46  2  0  0  0
 45114  1  0  0  0
 46115  1  0  0  0
 47116  1  0  0  0
 47117  1  0  0  0
 48 56  1  0  0  0
 48 65  1  0  0  0
 48118  1  0  0  0
 49 50  1  0  0  0
 49 53  1  0  0  0
 49 64  1  0  0  0
 49119  1  0  0  0
 50 51  1  0  0  0
 50120  1  0  0  0
 50121  1  0  0  0
 51 52  1  0  0  0
 51122  1  0  0  0
 51123  1  0  0  0
 52124  1  0  0  0
 52125  1  0  0  0
 53 54  1  0  0  0
 54 55  2  0  0  0
 54126  1  0  0  0
 55 57  1  0  0  0
 55127  1  0  0  0
 56 69  2  0  0  0
 57 58  2  0  0  0
 57128  1  0  0  0
 58129  1  0  0  0
 59 60  1  0  0  0
 59 61  1  0  0  0
 59 62  1  0  0  0
 60130  1  0  0  0
 60131  1  0  0  0
 60132  1  0  0  0
 61133  1  0  0  0
 61134  1  0  0  0
 61135  1  0  0  0
 62136  1  0  0  0
 62137  1  0  0  0
 62138  1  0  0  0
 63 65  1  0  0  0
 63139  1  0  0  0
 63140  1  0  0  0
 63141  1  0  0  0
 64142  1  0  0  0
 65143  1  0  0  0
 68 83  1  0  0  0
 71 72  2  0  0  0
 71 73  1  0  0  0
 71144  1  0  0  0
 72 74  1  0  0  0
 72 79  1  0  0  0
 73 76  2  0  0  0
 73 80  1  0  0  0
 74 75  2  0  0  0
 74 81  1  0  0  0
 75 76  1  0  0  0
 75 82  1  0  0  0
 76 83  1  0  0  0
 77 79  1  0  0  0
 77 84  1  0  0  0
 77145  1  0  0  0
 77146  1  0  0  0
 78 79  1  0  0  0
 78 84  1  0  0  0
 78147  1  0  0  0
 78148  1  0  0  0
 79149  1  0  0  0
 80150  1  0  0  0
 80151  1  0  0  0
 80152  1  0  0  0
 81153  1  0  0  0
 81154  1  0  0  0
 81155  1  0  0  0
 82156  1  0  0  0
 82157  1  0  0  0
 82158  1  0  0  0
 83159  1  0  0  0
 83160  1  0  0  0
M  ISO  4   1 100  68 101  83 101  84 100
M  END
> <chiral flag>
0

> <version>
0

> <s_m_source_file>
/data/baiqing/PycharmProjects/Reinvent-master-3.2/result/LINK_invent/BTK/process_docking_weight1_custom_sum_contain_oxygen_bond_distance_aromatic_linkinvent_7_9_3/rearranged_h_0165.sdf

> <i_m_source_file_index>
62

> <r_mmod_Potential_Energy-OPLS-2005>
683.433776855469

> <r_mmod_Stretch_Energy-OPLS-2005>
263.094940185547

> <r_mmod_Bend_Energy-OPLS-2005>
305.646087646484

> <r_mmod_Torsional_Energy-OPLS-2005>
293.222778320312

> <r_mmod_Improper_Torsional_Energy-OPLS-2005>
10.88694190979

> <r_mmod_Van_der_Waal_Energy-OPLS-2005>
137.993240356445

> <r_mmod_Electrostatic_Energy-OPLS-2005>
-334.293273925781

> <r_mmod_Solvation_Energy-OPLS-2005>
-208.267517089844

> <b_mmod_Minimization_Converged-OPLS-2005>
0

> <r_mmod_RMS_Derivative-OPLS-2005>
4.4192910194397

$$$$
63
                    3D
 Structure written by MMmdl.
161170  0  0  1  0            999 V2000
  -30.5853  -14.9230   20.4729 C   0  0  0  0  0  0
  -30.4417  -12.5864   19.4898 C   0  0  0  0  0  0
  -29.5196  -12.5376   18.2492 C   0  0  0  0  0  0
  -28.0518  -12.3185   18.6627 C   0  0  0  0  0  0
  -27.6333  -13.2346   19.8412 C   0  0  2  0  0  0
  -28.6826  -13.2162   20.9757 C   0  0  0  0  0  0
  -25.2414  -13.8156   20.5628 C   0  0  0  0  0  0
  -24.1750  -13.0399   20.9216 C   0  0  0  0  0  0
  -24.6373  -11.6893   20.8766 C   0  0  0  0  0  0
  -23.9057  -10.4278   21.0432 C   0  0  0  0  0  0
  -24.3608   -9.4195   21.9206 C   0  0  0  0  0  0
  -23.6290   -8.2229   22.0764 C   0  0  0  0  0  0
  -22.4273   -8.0270   21.3554 C   0  0  0  0  0  0
  -21.9914   -9.0239   20.4652 C   0  0  0  0  0  0
  -22.7240  -10.2117   20.3067 C   0  0  0  0  0  0
  -21.6848   -6.0728   22.5280 C   0  0  0  0  0  0
  -21.4005   -6.5630   23.8212 C   0  0  0  0  0  0
  -21.3664   -5.6782   24.9176 C   0  0  0  0  0  0
  -21.6049   -4.3044   24.7227 C   0  0  0  0  0  0
  -21.8813   -3.8138   23.4348 C   0  0  0  0  0  0
  -21.9192   -4.6955   22.3403 C   0  0  0  0  0  0
  -22.7771  -13.5196   21.1873 C   0  0  0  0  0  0
  -22.1665   -4.2140   21.0984 F   0  0  0  0  0  0
  -21.5642   -3.4529   25.7745 F   0  0  0  0  0  0
  -29.9529  -13.6753   20.3898 N   0  0  0  0  0  0
  -26.2880  -12.9390   20.3233 N   0  0  0  0  0  0
  -25.9309  -11.6531   20.5748 N   0  0  0  0  0  0
  -22.0409  -12.8208   22.0435 N   0  0  0  0  0  0
  -25.3918  -15.1872   20.3916 N   0  0  0  0  0  0
  -31.7764  -14.9521   20.1416 O   0  0  0  0  0  0
  -21.6631   -6.8869   21.4246 O   0  0  0  0  0  0
  -22.3465  -14.5507   20.6716 O   0  0  0  0  0  0
  -24.6408  -31.8474   23.1908 C   0  0  0  0  0  0
  -25.9188  -32.4713   23.8297 C   0  0  1  0  0  0
  -27.2269  -27.1774   20.1509 C   0  0  0  0  0  0
  -25.5943  -33.8519   24.2212 N   0  0  0  0  0  0
  -23.4446  -30.4659   21.5355 C   0  0  2  0  0  0
  -24.8966  -28.8941   20.1162 C   0  0  0  0  0  0
  -22.7564  -29.4562   22.4875 C   0  0  0  0  0  0
  -18.0305  -28.1406   22.8477 C   0  0  0  0  0  0
  -24.1490  -36.7263   23.2641 C   0  0  0  0  0  0
  -25.9975  -30.7340   21.3824 C   0  0  0  0  0  0
  -26.0731  -29.3459   20.7305 C   0  0  0  0  0  0
  -27.2449  -28.5038   20.7306 C   0  0  0  0  0  0
  -26.0266  -26.8120   19.5088 C   0  0  0  0  0  0
  -24.8827  -27.6380   19.4908 C   0  0  0  0  0  0
  -23.6712  -29.7936   20.1556 C   0  0  0  0  0  0
  -25.4119  -36.3044   24.0321 C   0  0  1  0  0  0
  -20.5917  -28.3722   23.1245 C   0  0  2  0  0  0
  -20.6786  -26.9428   22.5405 C   0  0  0  0  0  0
  -19.5756  -26.6388   21.5217 C   0  0  0  0  0  0
  -18.1939  -26.7945   22.1628 C   0  0  0  0  0  0
  -19.1562  -28.8884   23.2852 C   0  0  0  0  0  0
  -18.9476  -30.1481   23.8875 C   0  0  0  0  0  0
  -17.6472  -30.6595   24.0566 C   0  0  0  0  0  0
  -25.9068  -34.9415   23.5075 C   0  0  0  0  0  0
  -16.5364  -29.9089   23.6342 C   0  0  0  0  0  0
  -16.7290  -28.6516   23.0351 C   0  0  0  0  0  0
  -26.4513  -31.6565   25.0723 C   0  0  0  0  0  0
  -25.3699  -31.3727   26.1419 C   0  0  0  0  0  0
  -27.0358  -30.2969   24.6252 C   0  0  0  0  0  0
  -27.6057  -32.4307   25.7504 C   0  0  0  0  0  0
  -27.5576  -37.1790   24.8463 C   0  0  0  0  0  0
  -21.4257  -29.3051   22.3627 N   0  0  0  0  0  0
  -26.4285  -37.3754   23.9410 N   0  0  0  0  0  0
  -24.7141  -31.0360   22.0923 N   0  0  0  0  0  0
  -23.4219  -28.8105   23.3012 O   0  0  0  0  0  0
  -28.2750  -26.2000   20.1326 O   0  0  0  0  0  0
  -26.5657  -34.8907   22.4655 O   0  0  0  0  0  0
  -23.5537  -32.1328   23.7147 O   0  0  0  0  0  0
  -29.5862  -21.3217   19.6727 C   0  0  0  0  0  0
  -29.3305  -22.7617   19.7587 C   0  0  0  0  0  0
  -28.2750  -20.9755   21.5926 C   0  0  0  0  0  0
  -29.0676  -20.3357   20.5888 C   0  0  0  0  0  0
  -28.5054  -23.3808   20.7619 C   0  0  0  0  0  0
  -28.0015  -22.3989   21.6890 C   0  0  0  0  0  0
  -28.3566  -17.9135   21.5457 C   0  0  0  0  0  0
  -28.6286  -16.3878   21.3609 C   0  0  0  0  0  0
  -30.3262  -17.6247   20.3238 C   0  0  0  0  0  0
  -29.0923  -18.6843   20.4423 C   0  0  2  0  0  0
  -28.9506  -25.4493   22.2784 C   0  0  0  0  0  0
  -26.9019  -22.0779   23.8211 C   0  0  0  0  0  0
  -28.1607  -24.9784   21.0443 C   0  0  1  0  0  0
  -29.8875  -16.1662   20.6349 N   0  0  0  0  0  0
  -27.2022  -22.8986   22.6987 O   0  0  0  0  0  0
  -31.4731  -12.7431   19.1693 H   0  0  0  0  0  0
  -30.4452  -11.6261   20.0080 H   0  0  0  0  0  0
  -29.8432  -11.7490   17.5688 H   0  0  0  0  0  0
  -29.6045  -13.4739   17.6956 H   0  0  0  0  0  0
  -27.9436  -11.2730   18.9542 H   0  0  0  0  0  0
  -27.3898  -12.4659   17.8082 H   0  0  0  0  0  0
  -27.6065  -14.2388   19.4217 H   0  0  0  0  0  0
  -28.7857  -12.2104   21.3852 H   0  0  0  0  0  0
  -28.3705  -13.8269   21.8170 H   0  0  0  0  0  0
  -25.2753   -9.5677   22.4778 H   0  0  0  0  0  0
  -23.9999   -7.4621   22.7483 H   0  0  0  0  0  0
  -21.0847   -8.8755   19.8961 H   0  0  0  0  0  0
  -22.3708  -10.9649   19.6164 H   0  0  0  0  0  0
  -21.1980   -7.6135   23.9712 H   0  0  0  0  0  0
  -21.1505   -6.0513   25.9078 H   0  0  0  0  0  0
  -22.0592   -2.7601   23.2842 H   0  0  0  0  0  0
  -22.4013  -11.9875   22.4839 H   0  0  0  0  0  0
  -21.1024  -13.1251   22.2615 H   0  0  0  0  0  0
  -24.6123  -15.8276   20.4959 H   0  0  0  0  0  0
  -26.2206  -15.6327   20.0219 H   0  0  0  0  0  0
  -26.7263  -32.5342   23.1042 H   0  0  0  0  0  0
  -25.0059  -33.9635   25.0338 H   0  0  0  0  0  0
  -22.7464  -31.2917   21.3822 H   0  0  0  0  0  0
  -23.3756  -35.9592   23.3292 H   0  0  0  0  0  0
  -24.3581  -36.8909   22.2059 H   0  0  0  0  0  0
  -23.7241  -37.6457   23.6684 H   0  0  0  0  0  0
  -26.1447  -31.4861   20.6060 H   0  0  0  0  0  0
  -26.8719  -30.7912   22.0188 H   0  0  0  0  0  0
  -28.1484  -28.8482   21.2138 H   0  0  0  0  0  0
  -25.9651  -25.8435   19.0321 H   0  0  0  0  0  0
  -23.9842  -27.2872   19.0010 H   0  0  0  0  0  0
  -23.8072  -30.5672   19.3988 H   0  0  0  0  0  0
  -22.7864  -29.2341   19.8464 H   0  0  0  0  0  0
  -25.1304  -36.1880   25.0814 H   0  0  0  0  0  0
  -21.0020  -28.3306   24.1364 H   0  0  0  0  0  0
  -20.5691  -26.2330   23.3618 H   0  0  0  0  0  0
  -21.6649  -26.7435   22.1200 H   0  0  0  0  0  0
  -19.6907  -25.6292   21.1266 H   0  0  0  0  0  0
  -19.6696  -27.3184   20.6736 H   0  0  0  0  0  0
  -17.4210  -26.6701   21.4028 H   0  0  0  0  0  0
  -18.0327  -26.0095   22.9033 H   0  0  0  0  0  0
  -19.7946  -30.7308   24.2233 H   0  0  0  0  0  0
  -17.5020  -31.6273   24.5172 H   0  0  0  0  0  0
  -15.5362  -30.2983   23.7672 H   0  0  0  0  0  0
  -15.8695  -28.0833   22.7062 H   0  0  0  0  0  0
  -24.5894  -30.7063   25.7732 H   0  0  0  0  0  0
  -24.8857  -32.2890   26.4807 H   0  0  0  0  0  0
  -25.7988  -30.8926   27.0223 H   0  0  0  0  0  0
  -26.2951  -29.6710   24.1265 H   0  0  0  0  0  0
  -27.4004  -29.7251   25.4794 H   0  0  0  0  0  0
  -27.8851  -30.4225   23.9530 H   0  0  0  0  0  0
  -27.2678  -33.3628   26.2045 H   0  0  0  0  0  0
  -28.3891  -32.6832   25.0345 H   0  0  0  0  0  0
  -28.0699  -31.8448   26.5448 H   0  0  0  0  0  0
  -28.2583  -38.0098   24.7519 H   0  0  0  0  0  0
  -28.1084  -36.2628   24.6277 H   0  0  0  0  0  0
  -27.2298  -37.1424   25.8867 H   0  0  0  0  0  0
  -20.9471  -29.8764   21.6804 H   0  0  0  0  0  0
  -26.0153  -38.2825   24.1415 H   0  0  0  0  0  0
  -30.1818  -20.9690   18.8418 H   0  0  0  0  0  0
  -29.7800  -23.4049   19.0148 H   0  0  0  0  0  0
  -27.8082  -20.3194   22.3074 H   0  0  0  0  0  0
  -28.7550  -18.2177   22.5151 H   0  0  0  0  0  0
  -27.2883  -18.1306   21.5573 H   0  0  0  0  0  0
  -27.8219  -15.9612   20.7788 H   0  0  0  0  0  0
  -28.6427  -15.9019   22.3362 H   0  0  0  0  0  0
  -31.0982  -17.8885   21.0478 H   0  0  0  0  0  0
  -30.7929  -17.6797   19.3397 H   0  0  0  0  0  0
  -28.5110  -18.5254   19.5324 H   0  0  0  0  0  0
  -28.8046  -24.7949   23.1366 H   0  0  0  0  0  0
  -28.6497  -26.4512   22.5858 H   0  0  0  0  0  0
  -30.0194  -25.4778   22.0672 H   0  0  0  0  0  0
  -26.4147  -22.6812   24.5875 H   0  0  0  0  0  0
  -27.8047  -21.6561   24.2661 H   0  0  0  0  0  0
  -26.2159  -21.2730   23.5553 H   0  0  0  0  0  0
  -27.1086  -24.9605   21.3280 H   0  0  0  0  0  0
  1 25  1  0  0  0
  1 30  2  0  0  0
  1 84  1  0  0  0
  2  3  1  0  0  0
  2 25  1  0  0  0
  2 86  1  0  0  0
  2 87  1  0  0  0
  3  4  1  0  0  0
  3 88  1  0  0  0
  3 89  1  0  0  0
  4  5  1  0  0  0
  4 90  1  0  0  0
  4 91  1  0  0  0
  5  6  1  0  0  0
  5 26  1  0  0  0
  5 92  1  0  0  0
  6 25  1  0  0  0
  6 93  1  0  0  0
  6 94  1  0  0  0
  7  8  2  0  0  0
  7 26  1  0  0  0
  7 29  1  0  0  0
  8  9  1  0  0  0
  8 22  1  0  0  0
  9 10  1  0  0  0
  9 27  2  0  0  0
 10 11  2  0  0  0
 10 15  1  0  0  0
 11 12  1  0  0  0
 11 95  1  0  0  0
 12 13  2  0  0  0
 12 96  1  0  0  0
 13 14  1  0  0  0
 13 31  1  0  0  0
 14 15  2  0  0  0
 14 97  1  0  0  0
 15 98  1  0  0  0
 16 17  2  0  0  0
 16 21  1  0  0  0
 16 31  1  0  0  0
 17 18  1  0  0  0
 17 99  1  0  0  0
 18 19  2  0  0  0
 18100  1  0  0  0
 19 20  1  0  0  0
 19 24  1  0  0  0
 20 21  2  0  0  0
 20101  1  0  0  0
 21 23  1  0  0  0
 22 28  1  0  0  0
 22 32  2  0  0  0
 26 27  1  0  0  0
 28102  1  0  0  0
 28103  1  0  0  0
 29104  1  0  0  0
 29105  1  0  0  0
 33 34  1  0  0  0
 33 66  1  0  0  0
 33 70  2  0  0  0
 34 36  1  0  0  0
 34 59  1  0  0  0
 34106  1  0  0  0
 35 44  2  0  0  0
 35 45  1  0  0  0
 35 68  1  0  0  0
 36 56  1  0  0  0
 36107  1  0  0  0
 37 39  1  0  0  0
 37 47  1  0  0  0
 37 66  1  0  0  0
 37108  1  0  0  0
 38 43  2  0  0  0
 38 46  1  0  0  0
 38 47  1  0  0  0
 39 64  1  0  0  0
 39 67  2  0  0  0
 40 52  1  0  0  0
 40 53  2  0  0  0
 40 58  1  0  0  0
 41109  1  0  0  0
 41110  1  0  0  0
 41111  1  0  0  0
 41 48  1  0  0  0
 42 43  1  0  0  0
 42 66  1  0  0  0
 42112  1  0  0  0
 42113  1  0  0  0
 43 44  1  0  0  0
 44114  1  0  0  0
 45 46  2  0  0  0
 45115  1  0  0  0
 46116  1  0  0  0
 47117  1  0  0  0
 47118  1  0  0  0
 48 56  1  0  0  0
 48 65  1  0  0  0
 48119  1  0  0  0
 49 50  1  0  0  0
 49 53  1  0  0  0
 49 64  1  0  0  0
 49120  1  0  0  0
 50 51  1  0  0  0
 50121  1  0  0  0
 50122  1  0  0  0
 51 52  1  0  0  0
 51123  1  0  0  0
 51124  1  0  0  0
 52125  1  0  0  0
 52126  1  0  0  0
 53 54  1  0  0  0
 54 55  2  0  0  0
 54127  1  0  0  0
 55 57  1  0  0  0
 55128  1  0  0  0
 56 69  2  0  0  0
 57 58  2  0  0  0
 57129  1  0  0  0
 58130  1  0  0  0
 59 60  1  0  0  0
 59 61  1  0  0  0
 59 62  1  0  0  0
 60131  1  0  0  0
 60132  1  0  0  0
 60133  1  0  0  0
 61134  1  0  0  0
 61135  1  0  0  0
 61136  1  0  0  0
 62137  1  0  0  0
 62138  1  0  0  0
 62139  1  0  0  0
 63 65  1  0  0  0
 63140  1  0  0  0
 63141  1  0  0  0
 63142  1  0  0  0
 64143  1  0  0  0
 65144  1  0  0  0
 68 83  1  0  0  0
 71 72  2  0  0  0
 71 74  1  0  0  0
 71145  1  0  0  0
 72 75  1  0  0  0
 72146  1  0  0  0
 73 74  2  0  0  0
 73 76  1  0  0  0
 73147  1  0  0  0
 74 80  1  0  0  0
 75 76  2  0  0  0
 75 83  1  0  0  0
 76 85  1  0  0  0
 77 78  1  0  0  0
 77 80  1  0  0  0
 77148  1  0  0  0
 77149  1  0  0  0
 78 84  1  0  0  0
 78150  1  0  0  0
 78151  1  0  0  0
 79 80  1  0  0  0
 79 84  1  0  0  0
 79152  1  0  0  0
 79153  1  0  0  0
 80154  1  0  0  0
 81155  1  0  0  0
 81156  1  0  0  0
 81157  1  0  0  0
 81 83  1  0  0  0
 82 85  1  0  0  0
 82158  1  0  0  0
 82159  1  0  0  0
 82160  1  0  0  0
 83161  1  0  0  0
M  ISO  4   1 100  68 101  83 101  84 100
M  END
> <chiral flag>
0

> <version>
0

> <s_m_source_file>
/data/baiqing/PycharmProjects/Reinvent-master-3.2/result/LINK_invent/BTK/process_docking_weight1_custom_sum_contain_oxygen_bond_distance_aromatic_linkinvent_7_9_3/rearranged_h_0165.sdf

> <i_m_source_file_index>
63

> <r_mmod_Potential_Energy-OPLS-2005>
676.780029296875

> <r_mmod_Stretch_Energy-OPLS-2005>
212.118621826172

> <r_mmod_Bend_Energy-OPLS-2005>
313.778900146484

> <r_mmod_Torsional_Energy-OPLS-2005>
337.409240722656

> <r_mmod_Improper_Torsional_Energy-OPLS-2005>
8.62109851837158

> <r_mmod_Van_der_Waal_Energy-OPLS-2005>
140.328430175781

> <r_mmod_Electrostatic_Energy-OPLS-2005>
-291.706451416016

> <r_mmod_Solvation_Energy-OPLS-2005>
-203.923767089844

> <b_mmod_Minimization_Converged-OPLS-2005>
0

> <r_mmod_RMS_Derivative-OPLS-2005>
1.38073861598969

$$$$
64
                    3D
 Structure written by MMmdl.
169179  0  0  1  0            999 V2000
  -30.6523  -14.5931   20.4901 C   0  0  0  0  0  0
  -30.4278  -12.3613   19.4442 C   0  0  0  0  0  0
  -29.5010  -12.4948   18.2161 C   0  0  0  0  0  0
  -28.0225  -12.3455   18.6290 C   0  0  0  0  0  0
  -27.6503  -13.2148   19.8604 C   0  0  2  0  0  0
  -28.6966  -13.0746   20.9893 C   0  0  0  0  0  0
  -25.2557  -13.8166   20.5691 C   0  0  0  0  0  0
  -24.1823  -13.0437   20.9191 C   0  0  0  0  0  0
  -24.6388  -11.6907   20.8737 C   0  0  0  0  0  0
  -23.9057  -10.4292   21.0398 C   0  0  0  0  0  0
  -24.3611   -9.4206   21.9174 C   0  0  0  0  0  0
  -23.6296   -8.2237   22.0744 C   0  0  0  0  0  0
  -22.4276   -8.0274   21.3540 C   0  0  0  0  0  0
  -21.9908   -9.0241   20.4638 C   0  0  0  0  0  0
  -22.7231  -10.2122   20.3049 C   0  0  0  0  0  0
  -21.6852   -6.0732   22.5276 C   0  0  0  0  0  0
  -21.4009   -6.5638   23.8209 C   0  0  0  0  0  0
  -21.3660   -5.6790   24.9173 C   0  0  0  0  0  0
  -21.6046   -4.3054   24.7220 C   0  0  0  0  0  0
  -21.8820   -3.8144   23.4343 C   0  0  0  0  0  0
  -21.9192   -4.6959   22.3401 C   0  0  0  0  0  0
  -22.7849  -13.5235   21.1851 C   0  0  0  0  0  0
  -22.1661   -4.2146   21.0977 F   0  0  0  0  0  0
  -21.5636   -3.4537   25.7735 F   0  0  0  0  0  0
  -30.0126  -13.3883   20.4163 N   0  0  0  0  0  0
  -26.2974  -12.9343   20.3316 N   0  0  0  0  0  0
  -25.9313  -11.6499   20.5746 N   0  0  0  0  0  0
  -22.0485  -12.8227   22.0404 N   0  0  0  0  0  0
  -25.4294  -15.1888   20.4125 N   0  0  0  0  0  0
  -31.8294  -14.7246   20.1424 O   0  0  0  0  0  0
  -21.6640   -6.8872   21.4240 O   0  0  0  0  0  0
  -22.3535  -14.5535   20.6693 O   0  0  0  0  0  0
  -24.6206  -31.8636   23.2063 C   0  0  0  0  0  0
  -25.9074  -32.4799   23.8375 C   0  0  1  0  0  0
  -27.2264  -27.3782   20.1121 C   0  0  0  0  0  0
  -25.5916  -33.8602   24.2307 N   0  0  0  0  0  0
  -23.4130  -30.4871   21.5459 C   0  0  2  0  0  0
  -24.8628  -28.9499   20.1083 C   0  0  0  0  0  0
  -22.7445  -29.4640   22.4944 C   0  0  0  0  0  0
  -18.0279  -28.1383   22.8488 C   0  0  0  0  0  0
  -24.1488  -36.7304   23.2635 C   0  0  0  0  0  0
  -25.9483  -30.8132   21.3692 C   0  0  0  0  0  0
  -26.0272  -29.4444   20.7132 C   0  0  0  0  0  0
  -27.2166  -28.6665   20.7118 C   0  0  0  0  0  0
  -26.0510  -26.9205   19.4841 C   0  0  0  0  0  0
  -24.8726  -27.6904   19.4862 C   0  0  0  0  0  0
  -23.6260  -29.8212   20.1602 C   0  0  0  0  0  0
  -25.4106  -36.3098   24.0335 C   0  0  1  0  0  0
  -20.5877  -28.3679   23.1297 C   0  0  2  0  0  0
  -20.6771  -26.9409   22.5411 C   0  0  0  0  0  0
  -19.5751  -26.6385   21.5211 C   0  0  0  0  0  0
  -18.1928  -26.7928   22.1618 C   0  0  0  0  0  0
  -19.1529  -28.8846   23.2891 C   0  0  0  0  0  0
  -18.9455  -30.1446   23.8906 C   0  0  0  0  0  0
  -17.6460  -30.6591   24.0558 C   0  0  0  0  0  0
  -25.9043  -34.9464   23.5118 C   0  0  0  0  0  0
  -16.5348  -29.9088   23.6328 C   0  0  0  0  0  0
  -16.7269  -28.6503   23.0353 C   0  0  0  0  0  0
  -26.4483  -31.6592   25.0721 C   0  0  0  0  0  0
  -25.3740  -31.3720   26.1466 C   0  0  0  0  0  0
  -27.0314  -30.3022   24.6138 C   0  0  0  0  0  0
  -27.6055  -32.4314   25.7490 C   0  0  0  0  0  0
  -27.5587  -37.1794   24.8453 C   0  0  0  0  0  0
  -21.4165  -29.3041   22.3692 N   0  0  0  0  0  0
  -26.4283  -37.3792   23.9425 N   0  0  0  0  0  0
  -24.6787  -31.0698   22.0981 N   0  0  0  0  0  0
  -23.4191  -28.8180   23.3004 O   0  0  0  0  0  0
  -28.3085  -26.5109   20.1671 O   0  0  0  0  0  0
  -26.5605  -34.8927   22.4680 O   0  0  0  0  0  0
  -23.5379  -32.1411   23.7419 O   0  0  0  0  0  0
  -29.2353  -21.8147   21.8958 C   0  0  0  0  0  0
  -29.7683  -21.4212   20.6520 C   0  0  0  0  0  0
  -28.6983  -23.1133   22.0689 C   0  0  0  0  0  0
  -29.6994  -22.3969   19.6117 C   0  0  0  0  0  0
  -28.6979  -24.0344   20.9876 C   0  0  0  0  0  0
  -31.7138  -22.0725   17.9599 C   0  0  0  0  0  0
  -30.9239  -23.2344   17.4276 C   0  0  0  0  0  0
  -29.4924  -16.4665   21.7213 C   0  0  0  0  0  0
  -29.5989  -16.4983   19.2952 C   0  0  0  0  0  0
  -30.0922  -17.9163   21.7568 C   0  0  0  0  0  0
  -30.2337  -17.9194   19.3250 C   0  0  0  0  0  0
  -30.2225  -22.1466   18.2224 C   0  0  0  0  0  0
  -28.1471  -23.5029   23.4331 C   0  0  0  0  0  0
  -30.5677  -20.0781   20.5401 C   0  0  0  0  0  0
  -28.1222  -25.4754   21.1803 C   0  0  0  0  0  0
  -29.1649  -23.6445   19.7772 N   0  0  0  0  0  0
  -29.8366  -15.6957   20.5113 N   0  0  0  0  0  0
  -29.8612  -18.7336   20.5210 N   0  3  0  0  0  0
  -31.4716  -12.4691   19.1436 H   0  0  0  0  0  0
  -30.3429  -11.3665   19.8852 H   0  0  0  0  0  0
  -29.7569  -11.7429   17.4683 H   0  0  0  0  0  0
  -29.6533  -13.4631   17.7371 H   0  0  0  0  0  0
  -27.8489  -11.2928   18.8539 H   0  0  0  0  0  0
  -27.3703  -12.5838   17.7880 H   0  0  0  0  0  0
  -27.6641  -14.2483   19.5182 H   0  0  0  0  0  0
  -28.6960  -12.0612   21.3935 H   0  0  0  0  0  0
  -28.4574  -13.7365   21.8225 H   0  0  0  0  0  0
  -25.2753   -9.5687   22.4745 H   0  0  0  0  0  0
  -24.0009   -7.4627   22.7459 H   0  0  0  0  0  0
  -21.0838   -8.8753   19.8948 H   0  0  0  0  0  0
  -22.3685  -10.9654   19.6156 H   0  0  0  0  0  0
  -21.1997   -7.6145   23.9712 H   0  0  0  0  0  0
  -21.1488   -6.0518   25.9075 H   0  0  0  0  0  0
  -22.0603   -2.7606   23.2836 H   0  0  0  0  0  0
  -22.4106  -11.9888   22.4792 H   0  0  0  0  0  0
  -21.1096  -13.1241   22.2596 H   0  0  0  0  0  0
  -24.6650  -15.8462   20.5218 H   0  0  0  0  0  0
  -26.2868  -15.6237   20.0985 H   0  0  0  0  0  0
  -26.7144  -32.5501   23.1134 H   0  0  0  0  0  0
  -25.0073  -33.9753   25.0456 H   0  0  0  0  0  0
  -22.7048  -31.3061   21.4042 H   0  0  0  0  0  0
  -23.3764  -35.9620   23.3265 H   0  0  0  0  0  0
  -24.3596  -36.8951   22.2057 H   0  0  0  0  0  0
  -23.7219  -37.6490   23.6670 H   0  0  0  0  0  0
  -26.0700  -31.5789   20.6015 H   0  0  0  0  0  0
  -26.8325  -30.8639   21.9934 H   0  0  0  0  0  0
  -28.1094  -29.0339   21.1986 H   0  0  0  0  0  0
  -26.0395  -25.9453   19.0170 H   0  0  0  0  0  0
  -23.9791  -27.3049   19.0144 H   0  0  0  0  0  0
  -23.7373  -30.5975   19.4024 H   0  0  0  0  0  0
  -22.7500  -29.2425   19.8616 H   0  0  0  0  0  0
  -25.1279  -36.1945   25.0825 H   0  0  0  0  0  0
  -20.9968  -28.3248   24.1419 H   0  0  0  0  0  0
  -20.5675  -26.2287   23.3601 H   0  0  0  0  0  0
  -21.6640  -26.7448   22.1206 H   0  0  0  0  0  0
  -19.6914  -25.6299   21.1236 H   0  0  0  0  0  0
  -19.6697  -27.3196   20.6743 H   0  0  0  0  0  0
  -17.4201  -26.6674   21.4017 H   0  0  0  0  0  0
  -18.0330  -26.0069   22.9013 H   0  0  0  0  0  0
  -19.7933  -30.7250   24.2287 H   0  0  0  0  0  0
  -17.5021  -31.6276   24.5147 H   0  0  0  0  0  0
  -15.5352  -30.2993   23.7661 H   0  0  0  0  0  0
  -15.8665  -28.0828   22.7068 H   0  0  0  0  0  0
  -24.5900  -30.7082   25.7802 H   0  0  0  0  0  0
  -24.8950  -32.2883   26.4922 H   0  0  0  0  0  0
  -25.8082  -30.8878   27.0220 H   0  0  0  0  0  0
  -26.2866  -29.6788   24.1173 H   0  0  0  0  0  0
  -27.4040  -29.7263   25.4620 H   0  0  0  0  0  0
  -27.8727  -30.4325   23.9327 H   0  0  0  0  0  0
  -27.2672  -33.3609   26.2081 H   0  0  0  0  0  0
  -28.3862  -32.6874   25.0316 H   0  0  0  0  0  0
  -28.0724  -31.8427   26.5397 H   0  0  0  0  0  0
  -28.2561  -38.0136   24.7570 H   0  0  0  0  0  0
  -28.1127  -36.2673   24.6180 H   0  0  0  0  0  0
  -27.2324  -37.1319   25.8858 H   0  0  0  0  0  0
  -20.9324  -29.8771   21.6921 H   0  0  0  0  0  0
  -26.0165  -38.2858   24.1470 H   0  0  0  0  0  0
  -29.2768  -21.1339   22.7344 H   0  0  0  0  0  0
  -32.3881  -22.2697   18.7916 H   0  0  0  0  0  0
  -32.0633  -21.3402   17.2350 H   0  0  0  0  0  0
  -30.7532  -23.2649   16.3532 H   0  0  0  0  0  0
  -31.0773  -24.2017   17.9031 H   0  0  0  0  0  0
  -28.4044  -16.5262   21.7799 H   0  0  0  0  0  0
  -29.8048  -15.9219   22.6139 H   0  0  0  0  0  0
  -29.9603  -15.9661   18.4126 H   0  0  0  0  0  0
  -28.5211  -16.5890   19.1562 H   0  0  0  0  0  0
  -31.1672  -17.8315   21.9238 H   0  0  0  0  0  0
  -29.6947  -18.4540   22.6188 H   0  0  0  0  0  0
  -29.9513  -18.4616   18.4209 H   0  0  0  0  0  0
  -31.3193  -17.8130   19.2906 H   0  0  0  0  0  0
  -29.5741  -21.4626   17.6770 H   0  0  0  0  0  0
  -28.1392  -22.6564   24.1209 H   0  0  0  0  0  0
  -27.1217  -23.8655   23.3515 H   0  0  0  0  0  0
  -28.7557  -24.2867   23.8850 H   0  0  0  0  0  0
  -31.2792  -20.0846   21.3673 H   0  0  0  0  0  0
  -31.2158  -20.1406   19.6685 H   0  0  0  0  0  0
  -28.5600  -25.8813   22.0923 H   0  0  0  0  0  0
  -27.0630  -25.3406   21.4078 H   0  0  0  0  0  0
  -28.8710  -18.9154   20.4559 H   0  0  0  0  0  0
  1 25  1  0  0  0
  1 30  2  0  0  0
  1 87  1  0  0  0
  2  3  1  0  0  0
  2 25  1  0  0  0
  2 89  1  0  0  0
  2 90  1  0  0  0
  3  4  1  0  0  0
  3 91  1  0  0  0
  3 92  1  0  0  0
  4  5  1  0  0  0
  4 93  1  0  0  0
  4 94  1  0  0  0
  5  6  1  0  0  0
  5 26  1  0  0  0
  5 95  1  0  0  0
  6 25  1  0  0  0
  6 96  1  0  0  0
  6 97  1  0  0  0
  7  8  2  0  0  0
  7 26  1  0  0  0
  7 29  1  0  0  0
  8  9  1  0  0  0
  8 22  1  0  0  0
  9 10  1  0  0  0
  9 27  2  0  0  0
 10 11  2  0  0  0
 10 15  1  0  0  0
 11 12  1  0  0  0
 11 98  1  0  0  0
 12 13  2  0  0  0
 12 99  1  0  0  0
 13 14  1  0  0  0
 13 31  1  0  0  0
 14 15  2  0  0  0
 14100  1  0  0  0
 15101  1  0  0  0
 16 17  2  0  0  0
 16 21  1  0  0  0
 16 31  1  0  0  0
 17 18  1  0  0  0
 17102  1  0  0  0
 18 19  2  0  0  0
 18103  1  0  0  0
 19 20  1  0  0  0
 19 24  1  0  0  0
 20 21  2  0  0  0
 20104  1  0  0  0
 21 23  1  0  0  0
 22 28  1  0  0  0
 22 32  2  0  0  0
 26 27  1  0  0  0
 28105  1  0  0  0
 28106  1  0  0  0
 29107  1  0  0  0
 29108  1  0  0  0
 33 34  1  0  0  0
 33 66  1  0  0  0
 33 70  2  0  0  0
 34 36  1  0  0  0
 34 59  1  0  0  0
 34109  1  0  0  0
 35 44  2  0  0  0
 35 45  1  0  0  0
 35 68  1  0  0  0
 36 56  1  0  0  0
 36110  1  0  0  0
 37 39  1  0  0  0
 37 47  1  0  0  0
 37 66  1  0  0  0
 37111  1  0  0  0
 38 43  2  0  0  0
 38 46  1  0  0  0
 38 47  1  0  0  0
 39 64  1  0  0  0
 39 67  2  0  0  0
 40 52  1  0  0  0
 40 53  2  0  0  0
 40 58  1  0  0  0
 41112  1  0  0  0
 41113  1  0  0  0
 41114  1  0  0  0
 41 48  1  0  0  0
 42 43  1  0  0  0
 42 66  1  0  0  0
 42115  1  0  0  0
 42116  1  0  0  0
 43 44  1  0  0  0
 44117  1  0  0  0
 45 46  2  0  0  0
 45118  1  0  0  0
 46119  1  0  0  0
 47120  1  0  0  0
 47121  1  0  0  0
 48 56  1  0  0  0
 48 65  1  0  0  0
 48122  1  0  0  0
 49 50  1  0  0  0
 49 53  1  0  0  0
 49 64  1  0  0  0
 49123  1  0  0  0
 50 51  1  0  0  0
 50124  1  0  0  0
 50125  1  0  0  0
 51 52  1  0  0  0
 51126  1  0  0  0
 51127  1  0  0  0
 52128  1  0  0  0
 52129  1  0  0  0
 53 54  1  0  0  0
 54 55  2  0  0  0
 54130  1  0  0  0
 55 57  1  0  0  0
 55131  1  0  0  0
 56 69  2  0  0  0
 57 58  2  0  0  0
 57132  1  0  0  0
 58133  1  0  0  0
 59 60  1  0  0  0
 59 61  1  0  0  0
 59 62  1  0  0  0
 60134  1  0  0  0
 60135  1  0  0  0
 60136  1  0  0  0
 61137  1  0  0  0
 61138  1  0  0  0
 61139  1  0  0  0
 62140  1  0  0  0
 62141  1  0  0  0
 62142  1  0  0  0
 63 65  1  0  0  0
 63143  1  0  0  0
 63144  1  0  0  0
 63145  1  0  0  0
 64146  1  0  0  0
 65147  1  0  0  0
 68 85  1  0  0  0
 71 72  2  0  0  0
 71 73  1  0  0  0
 71148  1  0  0  0
 72 74  1  0  0  0
 72 84  1  0  0  0
 73 75  2  0  0  0
 73 83  1  0  0  0
 74 86  2  0  0  0
 74 82  1  0  0  0
 75 85  1  0  0  0
 75 86  1  0  0  0
 76 77  1  0  0  0
 76 82  1  0  0  0
 76149  1  0  0  0
 76150  1  0  0  0
 77 82  1  0  0  0
 77151  1  0  0  0
 77152  1  0  0  0
 78 80  1  0  0  0
 78 87  1  0  0  0
 78153  1  0  0  0
 78154  1  0  0  0
 79 81  1  0  0  0
 79 87  1  0  0  0
 79155  1  0  0  0
 79156  1  0  0  0
 80 88  1  0  0  0
 80157  1  0  0  0
 80158  1  0  0  0
 81 88  1  0  0  0
 81159  1  0  0  0
 81160  1  0  0  0
 82161  1  0  0  0
 83162  1  0  0  0
 83163  1  0  0  0
 83164  1  0  0  0
 84165  1  0  0  0
 84166  1  0  0  0
 84 88  1  0  0  0
 85167  1  0  0  0
 85168  1  0  0  0
 88169  1  0  0  0
M  CHG  1  88   1
M  ISO  4   1 100  68 101  85 101  87 100
M  END
> <chiral flag>
0

> <version>
0

> <s_m_source_file>
/data/baiqing/PycharmProjects/Reinvent-master-3.2/result/LINK_invent/BTK/process_docking_weight1_custom_sum_contain_oxygen_bond_distance_aromatic_linkinvent_7_9_3/rearranged_h_0165.sdf

> <i_m_source_file_index>
64

> <r_mmod_Potential_Energy-OPLS-2005>
59.3183326721191

> <r_mmod_Stretch_Energy-OPLS-2005>
62.7048988342285

> <r_mmod_Bend_Energy-OPLS-2005>
127.012519836426

> <r_mmod_Torsional_Energy-OPLS-2005>
445.083953857422

> <r_mmod_Improper_Torsional_Energy-OPLS-2005>
15.7201299667358

> <r_mmod_Van_der_Waal_Energy-OPLS-2005>
142.292663574219

> <r_mmod_Electrostatic_Energy-OPLS-2005>
-324.567901611328

> <r_mmod_Solvation_Energy-OPLS-2005>
-445.664398193359

> <b_mmod_Minimization_Converged-OPLS-2005>
0

> <r_mmod_RMS_Derivative-OPLS-2005>
1.10443305969238

$$$$
65
                    3D
 Structure written by MMmdl.
164173  0  0  1  0            999 V2000
  -30.6850  -14.5833   20.5048 C   0  0  0  0  0  0
  -30.4211  -12.3598   19.4488 C   0  0  0  0  0  0
  -29.4981  -12.4888   18.2192 C   0  0  0  0  0  0
  -28.0221  -12.3381   18.6355 C   0  0  0  0  0  0
  -27.6496  -13.2177   19.8592 C   0  0  2  0  0  0
  -28.6952  -13.0964   20.9896 C   0  0  0  0  0  0
  -25.2557  -13.8188   20.5703 C   0  0  0  0  0  0
  -24.1822  -13.0452   20.9187 C   0  0  0  0  0  0
  -24.6391  -11.6918   20.8743 C   0  0  0  0  0  0
  -23.9063  -10.4300   21.0406 C   0  0  0  0  0  0
  -24.3618   -9.4217   21.9184 C   0  0  0  0  0  0
  -23.6296   -8.2249   22.0750 C   0  0  0  0  0  0
  -22.4275   -8.0288   21.3541 C   0  0  0  0  0  0
  -21.9913   -9.0261   20.4643 C   0  0  0  0  0  0
  -22.7236  -10.2143   20.3054 C   0  0  0  0  0  0
  -21.6863   -6.0745   22.5276 C   0  0  0  0  0  0
  -21.4017   -6.5645   23.8212 C   0  0  0  0  0  0
  -21.3655   -5.6792   24.9172 C   0  0  0  0  0  0
  -21.6040   -4.3055   24.7218 C   0  0  0  0  0  0
  -21.8823   -3.8152   23.4339 C   0  0  0  0  0  0
  -21.9190   -4.6971   22.3398 C   0  0  0  0  0  0
  -22.7844  -13.5245   21.1847 C   0  0  0  0  0  0
  -22.1661   -4.2164   21.0976 F   0  0  0  0  0  0
  -21.5625   -3.4534   25.7728 F   0  0  0  0  0  0
  -30.0116  -13.3974   20.4123 N   0  0  0  0  0  0
  -26.2978  -12.9367   20.3334 N   0  0  0  0  0  0
  -25.9321  -11.6522   20.5777 N   0  0  0  0  0  0
  -22.0482  -12.8240   22.0398 N   0  0  0  0  0  0
  -25.4305  -15.1909   20.4154 N   0  0  0  0  0  0
  -31.8653  -14.6844   20.1572 O   0  0  0  0  0  0
  -21.6639   -6.8885   21.4236 O   0  0  0  0  0  0
  -22.3529  -14.5547   20.6689 O   0  0  0  0  0  0
  -24.6227  -31.8633   23.2061 C   0  0  0  0  0  0
  -25.9091  -32.4798   23.8374 C   0  0  1  0  0  0
  -27.2284  -27.3586   20.0906 C   0  0  0  0  0  0
  -25.5925  -33.8597   24.2308 N   0  0  0  0  0  0
  -23.4130  -30.4889   21.5492 C   0  0  2  0  0  0
  -24.8560  -28.9502   20.1093 C   0  0  0  0  0  0
  -22.7447  -29.4647   22.4964 C   0  0  0  0  0  0
  -18.0285  -28.1380   22.8499 C   0  0  0  0  0  0
  -24.1483  -36.7293   23.2639 C   0  0  0  0  0  0
  -25.9508  -30.8053   21.3700 C   0  0  0  0  0  0
  -26.0235  -29.4368   20.7087 C   0  0  0  0  0  0
  -27.2078  -28.6495   20.6951 C   0  0  0  0  0  0
  -26.0249  -26.9014   19.5023 C   0  0  0  0  0  0
  -24.8565  -27.6849   19.5034 C   0  0  0  0  0  0
  -23.6231  -29.8272   20.1621 C   0  0  0  0  0  0
  -25.4111  -36.3101   24.0338 C   0  0  1  0  0  0
  -20.5881  -28.3679   23.1303 C   0  0  2  0  0  0
  -20.6771  -26.9409   22.5417 C   0  0  0  0  0  0
  -19.5749  -26.6389   21.5215 C   0  0  0  0  0  0
  -18.1928  -26.7931   22.1628 C   0  0  0  0  0  0
  -19.1533  -28.8850   23.2897 C   0  0  0  0  0  0
  -18.9461  -30.1450   23.8913 C   0  0  0  0  0  0
  -17.6459  -30.6587   24.0570 C   0  0  0  0  0  0
  -25.9047  -34.9465   23.5121 C   0  0  0  0  0  0
  -16.5352  -29.9088   23.6330 C   0  0  0  0  0  0
  -16.7270  -28.6502   23.0363 C   0  0  0  0  0  0
  -26.4492  -31.6594   25.0725 C   0  0  0  0  0  0
  -25.3744  -31.3706   26.1463 C   0  0  0  0  0  0
  -27.0324  -30.3031   24.6131 C   0  0  0  0  0  0
  -27.6062  -32.4318   25.7493 C   0  0  0  0  0  0
  -27.5580  -37.1808   24.8470 C   0  0  0  0  0  0
  -21.4171  -29.3036   22.3700 N   0  0  0  0  0  0
  -26.4292  -37.3792   23.9411 N   0  0  0  0  0  0
  -24.6812  -31.0679   22.0992 N   0  0  0  0  0  0
  -23.4193  -28.8189   23.3030 O   0  0  0  0  0  0
  -28.3812  -26.5679   20.1487 O   0  0  0  0  0  0
  -26.5609  -34.8927   22.4683 O   0  0  0  0  0  0
  -23.5401  -32.1414   23.7417 O   0  0  0  0  0  0
  -28.1548  -22.8738   19.3681 C   0  0  0  0  0  0
  -28.4885  -21.5518   19.7792 C   0  0  0  0  0  0
  -29.8182  -23.7815   20.8533 C   0  0  0  0  0  0
  -28.8194  -24.0193   19.8815 C   0  0  0  0  0  0
  -30.1605  -22.4612   21.2645 C   0  0  0  0  0  0
  -29.5147  -21.3119   20.7288 C   0  0  0  0  0  0
  -29.9116  -18.0654   19.6380 C   0  0  0  0  0  0
  -29.3655  -17.8262   22.0736 C   0  0  0  0  0  0
  -29.5405  -16.5455   19.5626 C   0  0  0  0  0  0
  -30.2754  -16.5618   21.9070 C   0  0  0  0  0  0
  -29.2910  -18.7925   20.8527 C   0  0  0  0  0  0
  -31.2723  -22.2787   22.2813 C   0  0  0  0  0  0
  -29.8069  -25.8262   18.4057 C   0  0  0  0  0  0
  -28.5891  -25.4313   19.2512 C   0  0  2  0  0  0
  -29.9475  -15.7189   20.7338 N   0  0  0  0  0  0
  -29.9565  -20.0499   21.1582 O   0  0  0  0  0  0
  -31.4657  -12.4564   19.1465 H   0  0  0  0  0  0
  -30.3289  -11.3702   19.8996 H   0  0  0  0  0  0
  -29.7546  -11.7327   17.4759 H   0  0  0  0  0  0
  -29.6508  -13.4565   17.7382 H   0  0  0  0  0  0
  -27.8555  -11.2868   18.8744 H   0  0  0  0  0  0
  -27.3662  -12.5630   17.7943 H   0  0  0  0  0  0
  -27.6602  -14.2482   19.5066 H   0  0  0  0  0  0
  -28.6910  -12.0922   21.4158 H   0  0  0  0  0  0
  -28.4561  -13.7787   21.8079 H   0  0  0  0  0  0
  -25.2765   -9.5702   22.4761 H   0  0  0  0  0  0
  -24.0009   -7.4644   22.7476 H   0  0  0  0  0  0
  -21.0842   -8.8781   19.8953 H   0  0  0  0  0  0
  -22.3691  -10.9685   19.6165 H   0  0  0  0  0  0
  -21.2017   -7.6155   23.9724 H   0  0  0  0  0  0
  -21.1468   -6.0519   25.9079 H   0  0  0  0  0  0
  -22.0605   -2.7615   23.2830 H   0  0  0  0  0  0
  -22.4093  -11.9904   22.4793 H   0  0  0  0  0  0
  -21.1108  -13.1287   22.2617 H   0  0  0  0  0  0
  -24.6742  -15.8547   20.5414 H   0  0  0  0  0  0
  -26.3003  -15.6264   20.1365 H   0  0  0  0  0  0
  -26.7159  -32.5477   23.1124 H   0  0  0  0  0  0
  -25.0091  -33.9750   25.0467 H   0  0  0  0  0  0
  -22.7049  -31.3087   21.4120 H   0  0  0  0  0  0
  -23.3753  -35.9618   23.3314 H   0  0  0  0  0  0
  -24.3570  -36.8892   22.2049 H   0  0  0  0  0  0
  -23.7226  -37.6498   23.6645 H   0  0  0  0  0  0
  -26.0781  -31.5734   20.6063 H   0  0  0  0  0  0
  -26.8331  -30.8508   21.9969 H   0  0  0  0  0  0
  -28.1063  -29.0232   21.1658 H   0  0  0  0  0  0
  -25.9325  -25.9186   19.0677 H   0  0  0  0  0  0
  -23.9548  -27.2966   19.0499 H   0  0  0  0  0  0
  -23.7380  -30.6061   19.4076 H   0  0  0  0  0  0
  -22.7426  -29.2565   19.8615 H   0  0  0  0  0  0
  -25.1289  -36.1963   25.0831 H   0  0  0  0  0  0
  -20.9978  -28.3248   24.1422 H   0  0  0  0  0  0
  -20.5674  -26.2286   23.3608 H   0  0  0  0  0  0
  -21.6641  -26.7445   22.1209 H   0  0  0  0  0  0
  -19.6904  -25.6303   21.1237 H   0  0  0  0  0  0
  -19.6685  -27.3207   20.6751 H   0  0  0  0  0  0
  -17.4199  -26.6691   21.4024 H   0  0  0  0  0  0
  -18.0320  -26.0064   22.9016 H   0  0  0  0  0  0
  -19.7934  -30.7259   24.2293 H   0  0  0  0  0  0
  -17.5017  -31.6270   24.5162 H   0  0  0  0  0  0
  -15.5355  -30.2997   23.7639 H   0  0  0  0  0  0
  -15.8672  -28.0815   22.7086 H   0  0  0  0  0  0
  -24.5932  -30.7036   25.7802 H   0  0  0  0  0  0
  -24.8917  -32.2851   26.4914 H   0  0  0  0  0  0
  -25.8094  -30.8883   27.0224 H   0  0  0  0  0  0
  -26.2874  -29.6799   24.1170 H   0  0  0  0  0  0
  -27.4062  -29.7271   25.4603 H   0  0  0  0  0  0
  -27.8728  -30.4343   23.9311 H   0  0  0  0  0  0
  -27.2690  -33.3622   26.2078 H   0  0  0  0  0  0
  -28.3875  -32.6868   25.0321 H   0  0  0  0  0  0
  -28.0725  -31.8432   26.5405 H   0  0  0  0  0  0
  -28.2619  -38.0089   24.7519 H   0  0  0  0  0  0
  -28.1059  -36.2624   24.6304 H   0  0  0  0  0  0
  -27.2297  -37.1465   25.8874 H   0  0  0  0  0  0
  -20.9336  -29.8760   21.6919 H   0  0  0  0  0  0
  -26.0180  -38.2869   24.1412 H   0  0  0  0  0  0
  -27.3978  -23.0018   18.6065 H   0  0  0  0  0  0
  -27.9642  -20.7250   19.3233 H   0  0  0  0  0  0
  -30.3618  -24.6262   21.2531 H   0  0  0  0  0  0
  -29.6093  -18.5718   18.7208 H   0  0  0  0  0  0
  -30.9981  -18.1573   19.6818 H   0  0  0  0  0  0
  -29.6698  -18.3813   22.9615 H   0  0  0  0  0  0
  -28.3553  -17.4763   22.2914 H   0  0  0  0  0  0
  -29.9550  -16.1313   18.6407 H   0  0  0  0  0  0
  -28.4592  -16.4589   19.4593 H   0  0  0  0  0  0
  -30.2072  -15.9474   22.8067 H   0  0  0  0  0  0
  -31.3180  -16.8784   21.8378 H   0  0  0  0  0  0
  -28.2342  -18.9779   20.6608 H   0  0  0  0  0  0
  -32.1495  -21.8443   21.8021 H   0  0  0  0  0  0
  -30.9545  -21.6088   23.0804 H   0  0  0  0  0  0
  -31.5655  -23.2265   22.7331 H   0  0  0  0  0  0
  -30.0290  -25.0655   17.6564 H   0  0  0  0  0  0
  -30.6966  -25.9558   19.0226 H   0  0  0  0  0  0
  -29.6286  -26.7635   17.8782 H   0  0  0  0  0  0
  -27.7883  -25.3238   18.5267 H   0  0  0  0  0  0
  1 25  1  0  0  0
  1 30  2  0  0  0
  1 85  1  0  0  0
  2  3  1  0  0  0
  2 25  1  0  0  0
  2 87  1  0  0  0
  2 88  1  0  0  0
  3  4  1  0  0  0
  3 89  1  0  0  0
  3 90  1  0  0  0
  4  5  1  0  0  0
  4 91  1  0  0  0
  4 92  1  0  0  0
  5  6  1  0  0  0
  5 26  1  0  0  0
  5 93  1  0  0  0
  6 25  1  0  0  0
  6 94  1  0  0  0
  6 95  1  0  0  0
  7  8  2  0  0  0
  7 26  1  0  0  0
  7 29  1  0  0  0
  8  9  1  0  0  0
  8 22  1  0  0  0
  9 10  1  0  0  0
  9 27  2  0  0  0
 10 11  2  0  0  0
 10 15  1  0  0  0
 11 12  1  0  0  0
 11 96  1  0  0  0
 12 13  2  0  0  0
 12 97  1  0  0  0
 13 14  1  0  0  0
 13 31  1  0  0  0
 14 15  2  0  0  0
 14 98  1  0  0  0
 15 99  1  0  0  0
 16 17  2  0  0  0
 16 21  1  0  0  0
 16 31  1  0  0  0
 17 18  1  0  0  0
 17100  1  0  0  0
 18 19  2  0  0  0
 18101  1  0  0  0
 19 20  1  0  0  0
 19 24  1  0  0  0
 20 21  2  0  0  0
 20102  1  0  0  0
 21 23  1  0  0  0
 22 28  1  0  0  0
 22 32  2  0  0  0
 26 27  1  0  0  0
 28103  1  0  0  0
 28104  1  0  0  0
 29105  1  0  0  0
 29106  1  0  0  0
 33 34  1  0  0  0
 33 66  1  0  0  0
 33 70  2  0  0  0
 34 36  1  0  0  0
 34 59  1  0  0  0
 34107  1  0  0  0
 35 44  2  0  0  0
 35 45  1  0  0  0
 35 68  1  0  0  0
 36 56  1  0  0  0
 36108  1  0  0  0
 37 39  1  0  0  0
 37 47  1  0  0  0
 37 66  1  0  0  0
 37109  1  0  0  0
 38 43  2  0  0  0
 38 46  1  0  0  0
 38 47  1  0  0  0
 39 64  1  0  0  0
 39 67  2  0  0  0
 40 52  1  0  0  0
 40 53  2  0  0  0
 40 58  1  0  0  0
 41110  1  0  0  0
 41111  1  0  0  0
 41112  1  0  0  0
 41 48  1  0  0  0
 42 43  1  0  0  0
 42 66  1  0  0  0
 42113  1  0  0  0
 42114  1  0  0  0
 43 44  1  0  0  0
 44115  1  0  0  0
 45 46  2  0  0  0
 45116  1  0  0  0
 46117  1  0  0  0
 47118  1  0  0  0
 47119  1  0  0  0
 48 56  1  0  0  0
 48 65  1  0  0  0
 48120  1  0  0  0
 49 50  1  0  0  0
 49 53  1  0  0  0
 49 64  1  0  0  0
 49121  1  0  0  0
 50 51  1  0  0  0
 50122  1  0  0  0
 50123  1  0  0  0
 51 52  1  0  0  0
 51124  1  0  0  0
 51125  1  0  0  0
 52126  1  0  0  0
 52127  1  0  0  0
 53 54  1  0  0  0
 54 55  2  0  0  0
 54128  1  0  0  0
 55 57  1  0  0  0
 55129  1  0  0  0
 56 69  2  0  0  0
 57 58  2  0  0  0
 57130  1  0  0  0
 58131  1  0  0  0
 59 60  1  0  0  0
 59 61  1  0  0  0
 59 62  1  0  0  0
 60132  1  0  0  0
 60133  1  0  0  0
 60134  1  0  0  0
 61135  1  0  0  0
 61136  1  0  0  0
 61137  1  0  0  0
 62138  1  0  0  0
 62139  1  0  0  0
 62140  1  0  0  0
 63 65  1  0  0  0
 63141  1  0  0  0
 63142  1  0  0  0
 63143  1  0  0  0
 64144  1  0  0  0
 65145  1  0  0  0
 68 84  1  0  0  0
 71 72  2  0  0  0
 71 74  1  0  0  0
 71146  1  0  0  0
 72 76  1  0  0  0
 72147  1  0  0  0
 73 74  2  0  0  0
 73 75  1  0  0  0
 73148  1  0  0  0
 74 84  1  0  0  0
 75 76  2  0  0  0
 75 82  1  0  0  0
 76 86  1  0  0  0
 77 79  1  0  0  0
 77 81  1  0  0  0
 77149  1  0  0  0
 77150  1  0  0  0
 78 80  1  0  0  0
 78 81  1  0  0  0
 78151  1  0  0  0
 78152  1  0  0  0
 79 85  1  0  0  0
 79153  1  0  0  0
 79154  1  0  0  0
 80 85  1  0  0  0
 80155  1  0  0  0
 80156  1  0  0  0
 81 86  1  0  0  0
 81157  1  0  0  0
 82158  1  0  0  0
 82159  1  0  0  0
 82160  1  0  0  0
 83161  1  0  0  0
 83162  1  0  0  0
 83163  1  0  0  0
 83 84  1  0  0  0
 84164  1  0  0  0
M  ISO  4   1 100  68 101  84 101  85 100
M  END
> <chiral flag>
0

> <version>
0

> <s_m_source_file>
/data/baiqing/PycharmProjects/Reinvent-master-3.2/result/LINK_invent/BTK/process_docking_weight1_custom_sum_contain_oxygen_bond_distance_aromatic_linkinvent_7_9_3/rearranged_h_0165.sdf

> <i_m_source_file_index>
65

> <r_mmod_Potential_Energy-OPLS-2005>
259.461334228516

> <r_mmod_Stretch_Energy-OPLS-2005>
64.492919921875

> <r_mmod_Bend_Energy-OPLS-2005>
144.397674560547

> <r_mmod_Torsional_Energy-OPLS-2005>
353.343627929688

> <r_mmod_Improper_Torsional_Energy-OPLS-2005>
10.2293663024902

> <r_mmod_Van_der_Waal_Energy-OPLS-2005>
150.419067382812

> <r_mmod_Electrostatic_Energy-OPLS-2005>
-304.855834960938

> <r_mmod_Solvation_Energy-OPLS-2005>
-193.550720214844

> <b_mmod_Minimization_Converged-OPLS-2005>
0

> <r_mmod_RMS_Derivative-OPLS-2005>
1.29614388942719

$$$$
66
                    3D
 Structure written by MMmdl.
165175  0  0  1  0            999 V2000
  -30.6657  -14.7393   20.4532 C   0  0  0  0  0  0
  -30.4083  -12.4666   19.4609 C   0  0  0  0  0  0
  -29.4857  -12.5131   18.2252 C   0  0  0  0  0  0
  -28.0233  -12.2972   18.6513 C   0  0  0  0  0  0
  -27.6234  -13.2101   19.8377 C   0  0  2  0  0  0
  -28.6762  -13.2186   20.9719 C   0  0  0  0  0  0
  -25.2455  -13.8085   20.5680 C   0  0  0  0  0  0
  -24.1749  -13.0356   20.9254 C   0  0  0  0  0  0
  -24.6343  -11.6848   20.8814 C   0  0  0  0  0  0
  -23.9025  -10.4236   21.0459 C   0  0  0  0  0  0
  -24.3597   -9.4148   21.9229 C   0  0  0  0  0  0
  -23.6261   -8.2195   22.0764 C   0  0  0  0  0  0
  -22.4261   -8.0237   21.3548 C   0  0  0  0  0  0
  -21.9894   -9.0219   20.4654 C   0  0  0  0  0  0
  -22.7220  -10.2093   20.3079 C   0  0  0  0  0  0
  -21.6849   -6.0706   22.5287 C   0  0  0  0  0  0
  -21.4011   -6.5624   23.8206 C   0  0  0  0  0  0
  -21.3669   -5.6791   24.9183 C   0  0  0  0  0  0
  -21.6043   -4.3046   24.7258 C   0  0  0  0  0  0
  -21.8819   -3.8127   23.4379 C   0  0  0  0  0  0
  -21.9168   -4.6925   22.3422 C   0  0  0  0  0  0
  -22.7793  -13.5185   21.1872 C   0  0  0  0  0  0
  -22.1647   -4.2112   21.0993 F   0  0  0  0  0  0
  -21.5638   -3.4530   25.7767 F   0  0  0  0  0  0
  -29.9745  -13.5509   20.3721 N   0  0  0  0  0  0
  -26.2856  -12.9252   20.3297 N   0  0  0  0  0  0
  -25.9275  -11.6436   20.5861 N   0  0  0  0  0  0
  -22.0390  -12.8208   22.0427 N   0  0  0  0  0  0
  -25.4049  -15.1799   20.4044 N   0  0  0  0  0  0
  -31.8704  -14.7424   20.1774 O   0  0  0  0  0  0
  -21.6614   -6.8851   21.4242 O   0  0  0  0  0  0
  -22.3508  -14.5501   20.6689 O   0  0  0  0  0  0
  -24.6285  -31.8564   23.1984 C   0  0  0  0  0  0
  -25.9110  -32.4812   23.8315 C   0  0  1  0  0  0
  -27.2336  -27.2923   20.1061 C   0  0  0  0  0  0
  -25.5885  -33.8613   24.2227 N   0  0  0  0  0  0
  -23.4254  -30.4790   21.5397 C   0  0  2  0  0  0
  -24.8716  -28.9205   20.1054 C   0  0  0  0  0  0
  -22.7465  -29.4621   22.4873 C   0  0  0  0  0  0
  -18.0278  -28.1390   22.8443 C   0  0  0  0  0  0
  -24.1490  -36.7359   23.2638 C   0  0  0  0  0  0
  -25.9658  -30.7765   21.3683 C   0  0  0  0  0  0
  -26.0386  -29.3964   20.7158 C   0  0  0  0  0  0
  -27.2163  -28.5908   20.7124 C   0  0  0  0  0  0
  -26.0334  -26.8488   19.5151 C   0  0  0  0  0  0
  -24.8713  -27.6518   19.4978 C   0  0  0  0  0  0
  -23.6436  -29.8127   20.1542 C   0  0  0  0  0  0
  -25.4118  -36.3122   24.0309 C   0  0  1  0  0  0
  -20.5884  -28.3702   23.1278 C   0  0  2  0  0  0
  -20.6795  -26.9416   22.5429 C   0  0  0  0  0  0
  -19.5795  -26.6376   21.5213 C   0  0  0  0  0  0
  -18.1949  -26.7924   22.1593 C   0  0  0  0  0  0
  -19.1525  -28.8853   23.2853 C   0  0  0  0  0  0
  -18.9459  -30.1454   23.8870 C   0  0  0  0  0  0
  -17.6464  -30.6583   24.0557 C   0  0  0  0  0  0
  -25.9048  -34.9498   23.5077 C   0  0  0  0  0  0
  -16.5351  -29.9090   23.6323 C   0  0  0  0  0  0
  -16.7261  -28.6523   23.0300 C   0  0  0  0  0  0
  -26.4477  -31.6671   25.0715 C   0  0  0  0  0  0
  -25.3713  -31.3834   26.1463 C   0  0  0  0  0  0
  -27.0350  -30.3118   24.6187 C   0  0  0  0  0  0
  -27.6025  -32.4422   25.7479 C   0  0  0  0  0  0
  -27.5581  -37.1855   24.8435 C   0  0  0  0  0  0
  -21.4170  -29.3037   22.3644 N   0  0  0  0  0  0
  -26.4293  -37.3823   23.9381 N   0  0  0  0  0  0
  -24.6941  -31.0532   22.0953 N   0  0  0  0  0  0
  -23.4163  -28.8162   23.2965 O   0  0  0  0  0  0
  -28.3521  -26.4483   20.2133 O   0  0  0  0  0  0
  -26.5635  -34.8974   22.4652 O   0  0  0  0  0  0
  -23.5435  -32.1333   23.7297 O   0  0  0  0  0  0
  -29.7719  -22.0966   17.8210 C   0  0  0  0  0  0
  -29.6048  -21.1176   18.8173 C   0  0  0  0  0  0
  -28.7194  -22.8433   20.3276 C   0  0  0  0  0  0
  -29.4019  -23.4287   18.0774 C   0  0  0  0  0  0
  -28.8980  -23.8579   19.3112 C   0  0  0  0  0  0
  -29.0543  -21.4411   20.0781 C   0  0  0  0  0  0
  -29.5745  -24.5412   17.0705 C   0  0  0  0  0  0
  -30.6063  -18.5086   21.1768 C   0  0  0  0  0  0
  -28.6054  -18.0041   19.8609 C   0  0  0  0  0  0
  -30.7497  -16.9893   21.5828 C   0  0  0  0  0  0
  -28.7779  -16.4562   20.1538 C   0  0  0  0  0  0
  -28.8044  -25.4412   19.2222 C   0  0  2  0  0  0
  -28.9969  -25.8218   17.7204 C   0  0  1  0  0  0
  -29.1510  -18.9614   20.9580 C   0  0  0  0  0  0
  -27.7499  -26.2989   16.9510 C   0  0  0  0  0  0
  -30.0413  -15.9503   20.7702 N   0  0  0  0  0  0
  -28.8340  -20.4253   21.0351 O   0  0  0  0  0  0
  -30.3438  -11.4986   19.9617 H   0  0  0  0  0  0
  -31.4466  -12.5713   19.1479 H   0  0  0  0  0  0
  -29.7819  -11.7611   17.4924 H   0  0  0  0  0  0
  -29.5799  -13.4810   17.7301 H   0  0  0  0  0  0
  -27.9079  -11.2487   18.9321 H   0  0  0  0  0  0
  -27.3543  -12.4584   17.8059 H   0  0  0  0  0  0
  -27.5682  -14.1983   19.4028 H   0  0  0  0  0  0
  -28.7222  -12.2510   21.4740 H   0  0  0  0  0  0
  -28.4038  -13.9483   21.7337 H   0  0  0  0  0  0
  -25.2734   -9.5592   22.4844 H   0  0  0  0  0  0
  -23.9930   -7.4569   22.7499 H   0  0  0  0  0  0
  -21.0828   -8.8780   19.8954 H   0  0  0  0  0  0
  -22.3719  -10.9665   19.6206 H   0  0  0  0  0  0
  -21.2018   -7.6133   23.9710 H   0  0  0  0  0  0
  -21.1502   -6.0526   25.9094 H   0  0  0  0  0  0
  -22.0595   -2.7587   23.2902 H   0  0  0  0  0  0
  -22.3982  -11.9874   22.4860 H   0  0  0  0  0  0
  -21.1005  -13.1267   22.2589 H   0  0  0  0  0  0
  -24.6259  -15.8209   20.5023 H   0  0  0  0  0  0
  -26.2431  -15.6225   20.0578 H   0  0  0  0  0  0
  -26.7171  -32.5486   23.1063 H   0  0  0  0  0  0
  -25.0013  -33.9783   25.0362 H   0  0  0  0  0  0
  -22.7185  -31.2989   21.3946 H   0  0  0  0  0  0
  -23.3751  -35.9697   23.3283 H   0  0  0  0  0  0
  -24.3545  -36.9038   22.2053 H   0  0  0  0  0  0
  -23.7275  -37.6563   23.6689 H   0  0  0  0  0  0
  -26.0764  -31.5313   20.5879 H   0  0  0  0  0  0
  -26.8540  -30.8473   21.9843 H   0  0  0  0  0  0
  -28.1071  -28.9487   21.2113 H   0  0  0  0  0  0
  -25.9772  -25.8526   19.1025 H   0  0  0  0  0  0
  -23.9722  -27.2714   19.0338 H   0  0  0  0  0  0
  -23.7806  -30.5920   19.4040 H   0  0  0  0  0  0
  -22.7568  -29.2633   19.8367 H   0  0  0  0  0  0
  -25.1325  -36.1962   25.0804 H   0  0  0  0  0  0
  -20.9970  -28.3310   24.1408 H   0  0  0  0  0  0
  -20.5710  -26.2294   23.3620 H   0  0  0  0  0  0
  -21.6666  -26.7466   22.1218 H   0  0  0  0  0  0
  -19.6985  -25.6286   21.1244 H   0  0  0  0  0  0
  -19.6783  -27.3177   20.6731 H   0  0  0  0  0  0
  -17.4232  -26.6602   21.3992 H   0  0  0  0  0  0
  -18.0376  -26.0093   22.9015 H   0  0  0  0  0  0
  -19.7945  -30.7269   24.2209 H   0  0  0  0  0  0
  -17.5035  -31.6264   24.5170 H   0  0  0  0  0  0
  -15.5354  -30.2990   23.7721 H   0  0  0  0  0  0
  -15.8643  -28.0899   22.6966 H   0  0  0  0  0  0
  -24.5814  -30.7260   25.7810 H   0  0  0  0  0  0
  -24.8985  -32.3027   26.4928 H   0  0  0  0  0  0
  -25.8047  -30.8969   27.0214 H   0  0  0  0  0  0
  -26.2969  -29.6891   24.1125 H   0  0  0  0  0  0
  -27.3980  -29.7359   25.4709 H   0  0  0  0  0  0
  -27.8840  -30.4458   23.9483 H   0  0  0  0  0  0
  -27.2615  -33.3697   26.2093 H   0  0  0  0  0  0
  -28.3826  -32.7057   25.0324 H   0  0  0  0  0  0
  -28.0719  -31.8538   26.5377 H   0  0  0  0  0  0
  -28.2605  -38.0146   24.7490 H   0  0  0  0  0  0
  -28.1078  -36.2694   24.6247 H   0  0  0  0  0  0
  -27.2286  -37.1502   25.8830 H   0  0  0  0  0  0
  -20.9302  -29.8786   21.6919 H   0  0  0  0  0  0
  -26.0180  -38.2918   24.1325 H   0  0  0  0  0  0
  -30.1938  -21.8248   16.8631 H   0  0  0  0  0  0
  -29.9049  -20.1109   18.5837 H   0  0  0  0  0  0
  -28.3382  -23.1381   21.2958 H   0  0  0  0  0  0
  -29.0935  -24.2742   16.1303 H   0  0  0  0  0  0
  -30.6418  -24.6556   16.8739 H   0  0  0  0  0  0
  -31.1898  -18.7039   20.2759 H   0  0  0  0  0  0
  -31.0445  -19.1250   21.9639 H   0  0  0  0  0  0
  -27.5466  -18.2044   19.6832 H   0  0  0  0  0  0
  -29.0999  -18.2005   18.9133 H   0  0  0  0  0  0
  -30.3557  -16.8788   22.5918 H   0  0  0  0  0  0
  -31.8137  -16.7601   21.6722 H   0  0  0  0  0  0
  -27.9630  -16.1432   20.8063 H   0  0  0  0  0  0
  -28.6561  -15.9543   19.1927 H   0  0  0  0  0  0
  -29.8392  -25.5686   19.5470 H   0  0  0  0  0  0
  -29.7425  -26.6143   17.6309 H   0  0  0  0  0  0
  -28.6251  -18.6329   21.8556 H   0  0  0  0  0  0
  -27.4218  -27.2795   17.2944 H   0  0  0  0  0  0
  -26.9170  -25.5969   17.0334 H   0  0  0  0  0  0
  -27.9731  -26.4195   15.8892 H   0  0  0  0  0  0
  1 25  1  0  0  0
  1 30  2  0  0  0
  1 86  1  0  0  0
  2  3  1  0  0  0
  2 25  1  0  0  0
  2 88  1  0  0  0
  2 89  1  0  0  0
  3  4  1  0  0  0
  3 90  1  0  0  0
  3 91  1  0  0  0
  4  5  1  0  0  0
  4 92  1  0  0  0
  4 93  1  0  0  0
  5  6  1  0  0  0
  5 26  1  0  0  0
  5 94  1  0  0  0
  6 25  1  0  0  0
  6 95  1  0  0  0
  6 96  1  0  0  0
  7  8  2  0  0  0
  7 26  1  0  0  0
  7 29  1  0  0  0
  8  9  1  0  0  0
  8 22  1  0  0  0
  9 10  1  0  0  0
  9 27  2  0  0  0
 10 11  2  0  0  0
 10 15  1  0  0  0
 11 12  1  0  0  0
 11 97  1  0  0  0
 12 13  2  0  0  0
 12 98  1  0  0  0
 13 14  1  0  0  0
 13 31  1  0  0  0
 14 15  2  0  0  0
 14 99  1  0  0  0
 15100  1  0  0  0
 16 17  2  0  0  0
 16 21  1  0  0  0
 16 31  1  0  0  0
 17 18  1  0  0  0
 17101  1  0  0  0
 18 19  2  0  0  0
 18102  1  0  0  0
 19 20  1  0  0  0
 19 24  1  0  0  0
 20 21  2  0  0  0
 20103  1  0  0  0
 21 23  1  0  0  0
 22 28  1  0  0  0
 22 32  2  0  0  0
 26 27  1  0  0  0
 28104  1  0  0  0
 28105  1  0  0  0
 29106  1  0  0  0
 29107  1  0  0  0
 33 34  1  0  0  0
 33 66  1  0  0  0
 33 70  2  0  0  0
 34 36  1  0  0  0
 34 59  1  0  0  0
 34108  1  0  0  0
 35 44  2  0  0  0
 35 45  1  0  0  0
 35 68  1  0  0  0
 36 56  1  0  0  0
 36109  1  0  0  0
 37 39  1  0  0  0
 37 47  1  0  0  0
 37 66  1  0  0  0
 37110  1  0  0  0
 38 43  2  0  0  0
 38 46  1  0  0  0
 38 47  1  0  0  0
 39 64  1  0  0  0
 39 67  2  0  0  0
 40 52  1  0  0  0
 40 53  2  0  0  0
 40 58  1  0  0  0
 41111  1  0  0  0
 41112  1  0  0  0
 41113  1  0  0  0
 41 48  1  0  0  0
 42 43  1  0  0  0
 42 66  1  0  0  0
 42114  1  0  0  0
 42115  1  0  0  0
 43 44  1  0  0  0
 44116  1  0  0  0
 45 46  2  0  0  0
 45117  1  0  0  0
 46118  1  0  0  0
 47119  1  0  0  0
 47120  1  0  0  0
 48 56  1  0  0  0
 48 65  1  0  0  0
 48121  1  0  0  0
 49 50  1  0  0  0
 49 53  1  0  0  0
 49 64  1  0  0  0
 49122  1  0  0  0
 50 51  1  0  0  0
 50123  1  0  0  0
 50124  1  0  0  0
 51 52  1  0  0  0
 51125  1  0  0  0
 51126  1  0  0  0
 52127  1  0  0  0
 52128  1  0  0  0
 53 54  1  0  0  0
 54 55  2  0  0  0
 54129  1  0  0  0
 55 57  1  0  0  0
 55130  1  0  0  0
 56 69  2  0  0  0
 57 58  2  0  0  0
 57131  1  0  0  0
 58132  1  0  0  0
 59 60  1  0  0  0
 59 61  1  0  0  0
 59 62  1  0  0  0
 60133  1  0  0  0
 60134  1  0  0  0
 60135  1  0  0  0
 61136  1  0  0  0
 61137  1  0  0  0
 61138  1  0  0  0
 62139  1  0  0  0
 62140  1  0  0  0
 62141  1  0  0  0
 63 65  1  0  0  0
 63142  1  0  0  0
 63143  1  0  0  0
 63144  1  0  0  0
 64145  1  0  0  0
 65146  1  0  0  0
 68 82  1  0  0  0
 71 72  2  0  0  0
 71 74  1  0  0  0
 71147  1  0  0  0
 72 76  1  0  0  0
 72148  1  0  0  0
 73 75  1  0  0  0
 73 76  2  0  0  0
 73149  1  0  0  0
 74 75  2  0  0  0
 74 77  1  0  0  0
 75 82  1  0  0  0
 76 87  1  0  0  0
 77 83  1  0  0  0
 77150  1  0  0  0
 77151  1  0  0  0
 78 80  1  0  0  0
 78 84  1  0  0  0
 78152  1  0  0  0
 78153  1  0  0  0
 79 81  1  0  0  0
 79 84  1  0  0  0
 79154  1  0  0  0
 79155  1  0  0  0
 80 86  1  0  0  0
 80156  1  0  0  0
 80157  1  0  0  0
 81 86  1  0  0  0
 81158  1  0  0  0
 81159  1  0  0  0
 82 83  1  0  0  0
 82160  1  0  0  0
 83 85  1  0  0  0
 83161  1  0  0  0
 84 87  1  0  0  0
 84162  1  0  0  0
 85163  1  0  0  0
 85164  1  0  0  0
 85165  1  0  0  0
M  ISO  4   1 100  68 101  82 101  86 100
M  END
> <chiral flag>
0

> <version>
0

> <s_m_source_file>
/data/baiqing/PycharmProjects/Reinvent-master-3.2/result/LINK_invent/BTK/process_docking_weight1_custom_sum_contain_oxygen_bond_distance_aromatic_linkinvent_7_9_3/rearranged_h_0165.sdf

> <i_m_source_file_index>
66

> <r_mmod_Potential_Energy-OPLS-2005>
535.955261230469

> <r_mmod_Stretch_Energy-OPLS-2005>
106.33814239502

> <r_mmod_Bend_Energy-OPLS-2005>
359.546325683594

> <r_mmod_Torsional_Energy-OPLS-2005>
331.147857666016

> <r_mmod_Improper_Torsional_Energy-OPLS-2005>
3.24633836746216

> <r_mmod_Van_der_Waal_Energy-OPLS-2005>
137.753707885742

> <r_mmod_Electrostatic_Energy-OPLS-2005>
-282.617431640625

> <r_mmod_Solvation_Energy-OPLS-2005>
-201.563766479492

> <b_mmod_Minimization_Converged-OPLS-2005>
0

> <r_mmod_RMS_Derivative-OPLS-2005>
4.56128787994385

$$$$
67
                    3D
 Structure written by MMmdl.
157166  0  0  1  0            999 V2000
  -30.6352  -14.6788   20.4839 C   0  0  0  0  0  0
  -30.4331  -12.4189   19.4554 C   0  0  0  0  0  0
  -29.5062  -12.5037   18.2236 C   0  0  0  0  0  0
  -28.0303  -12.3380   18.6378 C   0  0  0  0  0  0
  -27.6457  -13.2256   19.8518 C   0  0  2  0  0  0
  -28.6928  -13.1273   20.9830 C   0  0  0  0  0  0
  -25.2528  -13.8188   20.5683 C   0  0  0  0  0  0
  -24.1814  -13.0439   20.9202 C   0  0  0  0  0  0
  -24.6396  -11.6916   20.8744 C   0  0  0  0  0  0
  -23.9068  -10.4295   21.0402 C   0  0  0  0  0  0
  -24.3619   -9.4212   21.9181 C   0  0  0  0  0  0
  -23.6297   -8.2245   22.0752 C   0  0  0  0  0  0
  -22.4279   -8.0278   21.3542 C   0  0  0  0  0  0
  -21.9912   -9.0253   20.4644 C   0  0  0  0  0  0
  -22.7239  -10.2134   20.3051 C   0  0  0  0  0  0
  -21.6853   -6.0737   22.5281 C   0  0  0  0  0  0
  -21.4015   -6.5640   23.8216 C   0  0  0  0  0  0
  -21.3661   -5.6793   24.9178 C   0  0  0  0  0  0
  -21.6044   -4.3057   24.7226 C   0  0  0  0  0  0
  -21.8821   -3.8147   23.4348 C   0  0  0  0  0  0
  -21.9195   -4.6964   22.3405 C   0  0  0  0  0  0
  -22.7835  -13.5223   21.1867 C   0  0  0  0  0  0
  -22.1661   -4.2150   21.0982 F   0  0  0  0  0  0
  -21.5629   -3.4540   25.7738 F   0  0  0  0  0  0
  -29.9997  -13.4654   20.4040 N   0  0  0  0  0  0
  -26.2957  -12.9386   20.3281 N   0  0  0  0  0  0
  -25.9326  -11.6534   20.5746 N   0  0  0  0  0  0
  -22.0483  -12.8213   22.0424 N   0  0  0  0  0  0
  -25.4211  -15.1912   20.4096 N   0  0  0  0  0  0
  -31.8239  -14.7884   20.1754 O   0  0  0  0  0  0
  -21.6641   -6.8878   21.4242 O   0  0  0  0  0  0
  -22.3517  -14.5529   20.6714 O   0  0  0  0  0  0
  -24.6308  -31.8586   23.2032 C   0  0  0  0  0  0
  -25.9142  -32.4773   23.8361 C   0  0  1  0  0  0
  -27.2098  -27.2801   20.1109 C   0  0  0  0  0  0
  -25.5945  -33.8575   24.2281 N   0  0  0  0  0  0
  -23.4247  -30.4870   21.5479 C   0  0  2  0  0  0
  -24.8676  -28.9466   20.1112 C   0  0  0  0  0  0
  -22.7498  -29.4627   22.4924 C   0  0  0  0  0  0
  -18.0291  -28.1389   22.8482 C   0  0  0  0  0  0
  -24.1491  -36.7290   23.2638 C   0  0  0  0  0  0
  -25.9730  -30.7772   21.3817 C   0  0  0  0  0  0
  -26.0437  -29.4045   20.7184 C   0  0  0  0  0  0
  -27.2189  -28.5854   20.7075 C   0  0  0  0  0  0
  -26.0017  -26.8959   19.4765 C   0  0  0  0  0  0
  -24.8515  -27.6990   19.4805 C   0  0  0  0  0  0
  -23.6402  -29.8317   20.1613 C   0  0  0  0  0  0
  -25.4117  -36.3080   24.0328 C   0  0  1  0  0  0
  -20.5896  -28.3697   23.1269 C   0  0  2  0  0  0
  -20.6782  -26.9417   22.5402 C   0  0  0  0  0  0
  -19.5756  -26.6385   21.5208 C   0  0  0  0  0  0
  -18.1938  -26.7930   22.1624 C   0  0  0  0  0  0
  -19.1545  -28.8860   23.2871 C   0  0  0  0  0  0
  -18.9466  -30.1461   23.8889 C   0  0  0  0  0  0
  -17.6465  -30.6589   24.0562 C   0  0  0  0  0  0
  -25.9056  -34.9449   23.5102 C   0  0  0  0  0  0
  -16.5355  -29.9086   23.6333 C   0  0  0  0  0  0
  -16.7277  -28.6505   23.0350 C   0  0  0  0  0  0
  -26.4507  -31.6587   25.0741 C   0  0  0  0  0  0
  -25.3729  -31.3730   26.1457 C   0  0  0  0  0  0
  -27.0350  -30.3005   24.6219 C   0  0  0  0  0  0
  -27.6063  -32.4322   25.7515 C   0  0  0  0  0  0
  -27.5580  -37.1803   24.8465 C   0  0  0  0  0  0
  -21.4207  -29.3051   22.3664 N   0  0  0  0  0  0
  -26.4293  -37.3776   23.9407 N   0  0  0  0  0  0
  -24.6956  -31.0575   22.1003 N   0  0  0  0  0  0
  -23.4210  -28.8149   23.3000 O   0  0  0  0  0  0
  -28.3004  -26.3770   20.1579 O   0  0  0  0  0  0
  -26.5620  -34.8917   22.4666 O   0  0  0  0  0  0
  -23.5462  -32.1398   23.7339 O   0  0  0  0  0  0
  -29.4386  -19.7456   20.1777 C   0  0  0  0  0  0
  -29.1071  -19.0187   17.5129 C   0  0  0  0  0  0
  -29.0019  -20.7762   19.2488 C   0  0  0  0  0  0
  -29.7059  -18.3608   19.7903 C   0  0  0  0  0  0
  -29.5476  -18.0395   18.4162 C   0  0  0  0  0  0
  -28.8308  -20.3350   17.9065 C   0  0  0  0  0  0
  -29.5570  -23.2338   18.8387 C   0  0  0  0  0  0
  -28.5474  -22.2805   19.4774 C   0  0  2  0  0  0
  -28.9759  -23.6851   20.1240 C   0  0  2  0  0  0
  -29.8564  -16.6692   17.8355 C   0  0  0  0  0  0
  -30.2449  -17.2605   20.8004 C   0  0  0  0  0  0
  -27.9725  -24.9177   20.0594 C   0  0  0  0  0  0
  -29.8567  -15.7930   20.7051 N   0  0  0  0  0  0
  -28.2275  -21.3792   16.6613 Cl  0  0  0  0  0  0
  -31.4741  -12.5415   19.1505 H   0  0  0  0  0  0
  -30.3701  -11.4343   19.9213 H   0  0  0  0  0  0
  -29.7777  -11.7403   17.4933 H   0  0  0  0  0  0
  -29.6422  -13.4645   17.7250 H   0  0  0  0  0  0
  -27.8751  -11.2872   18.8853 H   0  0  0  0  0  0
  -27.3745  -12.5497   17.7923 H   0  0  0  0  0  0
  -27.6488  -14.2530   19.4876 H   0  0  0  0  0  0
  -28.7151  -12.1218   21.4057 H   0  0  0  0  0  0
  -28.4389  -13.7971   21.8060 H   0  0  0  0  0  0
  -25.2766   -9.5693   22.4752 H   0  0  0  0  0  0
  -24.0013   -7.4638   22.7469 H   0  0  0  0  0  0
  -21.0844   -8.8771   19.8952 H   0  0  0  0  0  0
  -22.3695  -10.9671   19.6162 H   0  0  0  0  0  0
  -21.2006   -7.6149   23.9722 H   0  0  0  0  0  0
  -21.1479   -6.0520   25.9082 H   0  0  0  0  0  0
  -22.0598   -2.7609   23.2848 H   0  0  0  0  0  0
  -22.4100  -11.9872   22.4806 H   0  0  0  0  0  0
  -21.1099  -13.1234   22.2633 H   0  0  0  0  0  0
  -24.6499  -15.8409   20.5188 H   0  0  0  0  0  0
  -26.2627  -15.6353   20.0655 H   0  0  0  0  0  0
  -26.7207  -32.5426   23.1101 H   0  0  0  0  0  0
  -25.0091  -33.9717   25.0425 H   0  0  0  0  0  0
  -22.7201  -31.3095   21.4084 H   0  0  0  0  0  0
  -23.3754  -35.9622   23.3300 H   0  0  0  0  0  0
  -24.3581  -36.8913   22.2053 H   0  0  0  0  0  0
  -23.7244  -37.6492   23.6660 H   0  0  0  0  0  0
  -26.1129  -31.5412   20.6157 H   0  0  0  0  0  0
  -26.8507  -30.8205   22.0148 H   0  0  0  0  0  0
  -28.1181  -28.9324   21.1971 H   0  0  0  0  0  0
  -25.8829  -25.9549   18.9668 H   0  0  0  0  0  0
  -23.9520  -27.3436   18.9966 H   0  0  0  0  0  0
  -23.7656  -30.6126   19.4103 H   0  0  0  0  0  0
  -22.7576  -29.2682   19.8533 H   0  0  0  0  0  0
  -25.1298  -36.1931   25.0821 H   0  0  0  0  0  0
  -20.9987  -28.3271   24.1389 H   0  0  0  0  0  0
  -20.5685  -26.2305   23.3603 H   0  0  0  0  0  0
  -21.6650  -26.7445   22.1192 H   0  0  0  0  0  0
  -19.6918  -25.6295   21.1241 H   0  0  0  0  0  0
  -19.6697  -27.3191   20.6735 H   0  0  0  0  0  0
  -17.4205  -26.6668   21.4032 H   0  0  0  0  0  0
  -18.0347  -26.0076   22.9027 H   0  0  0  0  0  0
  -19.7942  -30.7279   24.2256 H   0  0  0  0  0  0
  -17.5019  -31.6268   24.5165 H   0  0  0  0  0  0
  -15.5355  -30.2985   23.7663 H   0  0  0  0  0  0
  -15.8677  -28.0823   22.7067 H   0  0  0  0  0  0
  -24.5915  -30.7067   25.7782 H   0  0  0  0  0  0
  -24.8905  -32.2894   26.4867 H   0  0  0  0  0  0
  -25.8046  -30.8919   27.0242 H   0  0  0  0  0  0
  -26.2934  -29.6756   24.1230 H   0  0  0  0  0  0
  -27.4019  -29.7265   25.4738 H   0  0  0  0  0  0
  -27.8819  -30.4281   23.9472 H   0  0  0  0  0  0
  -27.2677  -33.3629   26.2079 H   0  0  0  0  0  0
  -28.3883  -32.6869   25.0349 H   0  0  0  0  0  0
  -28.0717  -31.8451   26.5441 H   0  0  0  0  0  0
  -28.2596  -38.0102   24.7510 H   0  0  0  0  0  0
  -28.1078  -36.2632   24.6295 H   0  0  0  0  0  0
  -27.2295  -37.1456   25.8867 H   0  0  0  0  0  0
  -20.9384  -29.8791   21.6889 H   0  0  0  0  0  0
  -26.0173  -38.2850   24.1409 H   0  0  0  0  0  0
  -29.5602  -20.0199   21.2162 H   0  0  0  0  0  0
  -28.9673  -18.7606   16.4725 H   0  0  0  0  0  0
  -29.2545  -23.7388   17.9234 H   0  0  0  0  0  0
  -30.6085  -22.9555   18.8700 H   0  0  0  0  0  0
  -27.5098  -22.3156   19.1489 H   0  0  0  0  0  0
  -29.5859  -23.6292   21.0233 H   0  0  0  0  0  0
  -29.8298  -16.6781   16.7454 H   0  0  0  0  0  0
  -29.1229  -15.9340   18.1644 H   0  0  0  0  0  0
  -30.8557  -16.3430   18.1211 H   0  0  0  0  0  0
  -29.9693  -17.5837   21.8045 H   0  0  0  0  0  0
  -31.3336  -17.3252   20.7750 H   0  0  0  0  0  0
  -27.1997  -24.7156   20.8028 H   0  0  0  0  0  0
  -27.5001  -24.7771   19.0902 H   0  0  0  0  0  0
  -28.8838  -15.5991   20.8833 H   0  0  0  0  0  0
  1 25  1  0  0  0
  1 30  2  0  0  0
  1 83  1  0  0  0
  2  3  1  0  0  0
  2 25  1  0  0  0
  2 85  1  0  0  0
  2 86  1  0  0  0
  3  4  1  0  0  0
  3 87  1  0  0  0
  3 88  1  0  0  0
  4  5  1  0  0  0
  4 89  1  0  0  0
  4 90  1  0  0  0
  5  6  1  0  0  0
  5 26  1  0  0  0
  5 91  1  0  0  0
  6 25  1  0  0  0
  6 92  1  0  0  0
  6 93  1  0  0  0
  7  8  2  0  0  0
  7 26  1  0  0  0
  7 29  1  0  0  0
  8  9  1  0  0  0
  8 22  1  0  0  0
  9 10  1  0  0  0
  9 27  2  0  0  0
 10 11  2  0  0  0
 10 15  1  0  0  0
 11 12  1  0  0  0
 11 94  1  0  0  0
 12 13  2  0  0  0
 12 95  1  0  0  0
 13 14  1  0  0  0
 13 31  1  0  0  0
 14 15  2  0  0  0
 14 96  1  0  0  0
 15 97  1  0  0  0
 16 17  2  0  0  0
 16 21  1  0  0  0
 16 31  1  0  0  0
 17 18  1  0  0  0
 17 98  1  0  0  0
 18 19  2  0  0  0
 18 99  1  0  0  0
 19 20  1  0  0  0
 19 24  1  0  0  0
 20 21  2  0  0  0
 20100  1  0  0  0
 21 23  1  0  0  0
 22 28  1  0  0  0
 22 32  2  0  0  0
 26 27  1  0  0  0
 28101  1  0  0  0
 28102  1  0  0  0
 29103  1  0  0  0
 29104  1  0  0  0
 33 34  1  0  0  0
 33 66  1  0  0  0
 33 70  2  0  0  0
 34 36  1  0  0  0
 34 59  1  0  0  0
 34105  1  0  0  0
 35 44  2  0  0  0
 35 45  1  0  0  0
 35 68  1  0  0  0
 36 56  1  0  0  0
 36106  1  0  0  0
 37 39  1  0  0  0
 37 47  1  0  0  0
 37 66  1  0  0  0
 37107  1  0  0  0
 38 43  2  0  0  0
 38 46  1  0  0  0
 38 47  1  0  0  0
 39 64  1  0  0  0
 39 67  2  0  0  0
 40 52  1  0  0  0
 40 53  2  0  0  0
 40 58  1  0  0  0
 41108  1  0  0  0
 41109  1  0  0  0
 41110  1  0  0  0
 41 48  1  0  0  0
 42 43  1  0  0  0
 42 66  1  0  0  0
 42111  1  0  0  0
 42112  1  0  0  0
 43 44  1  0  0  0
 44113  1  0  0  0
 45 46  2  0  0  0
 45114  1  0  0  0
 46115  1  0  0  0
 47116  1  0  0  0
 47117  1  0  0  0
 48 56  1  0  0  0
 48 65  1  0  0  0
 48118  1  0  0  0
 49 50  1  0  0  0
 49 53  1  0  0  0
 49 64  1  0  0  0
 49119  1  0  0  0
 50 51  1  0  0  0
 50120  1  0  0  0
 50121  1  0  0  0
 51 52  1  0  0  0
 51122  1  0  0  0
 51123  1  0  0  0
 52124  1  0  0  0
 52125  1  0  0  0
 53 54  1  0  0  0
 54 55  2  0  0  0
 54126  1  0  0  0
 55 57  1  0  0  0
 55127  1  0  0  0
 56 69  2  0  0  0
 57 58  2  0  0  0
 57128  1  0  0  0
 58129  1  0  0  0
 59 60  1  0  0  0
 59 61  1  0  0  0
 59 62  1  0  0  0
 60130  1  0  0  0
 60131  1  0  0  0
 60132  1  0  0  0
 61133  1  0  0  0
 61134  1  0  0  0
 61135  1  0  0  0
 62136  1  0  0  0
 62137  1  0  0  0
 62138  1  0  0  0
 63 65  1  0  0  0
 63139  1  0  0  0
 63140  1  0  0  0
 63141  1  0  0  0
 64142  1  0  0  0
 65143  1  0  0  0
 68 82  1  0  0  0
 71 73  2  0  0  0
 71 74  1  0  0  0
 71144  1  0  0  0
 72 75  1  0  0  0
 72 76  2  0  0  0
 72145  1  0  0  0
 73 76  1  0  0  0
 73 78  1  0  0  0
 74 75  2  0  0  0
 74 81  1  0  0  0
 75 80  1  0  0  0
 76 84  1  0  0  0
 77 78  1  0  0  0
 77 79  1  0  0  0
 77146  1  0  0  0
 77147  1  0  0  0
 78 79  1  0  0  0
 78148  1  0  0  0
 79 82  1  0  0  0
 79149  1  0  0  0
 80150  1  0  0  0
 80151  1  0  0  0
 80152  1  0  0  0
 81 83  1  0  0  0
 81153  1  0  0  0
 81154  1  0  0  0
 82155  1  0  0  0
 82156  1  0  0  0
 83157  1  0  0  0
M  ISO  4   1 100  68 101  82 101  83 100
M  END
> <chiral flag>
0

> <version>
0

> <s_m_source_file>
/data/baiqing/PycharmProjects/Reinvent-master-3.2/result/LINK_invent/BTK/process_docking_weight1_custom_sum_contain_oxygen_bond_distance_aromatic_linkinvent_7_9_3/rearranged_h_0165.sdf

> <i_m_source_file_index>
67

> <r_mmod_Potential_Energy-OPLS-2005>
200.744384765625

> <r_mmod_Stretch_Energy-OPLS-2005>
116.596817016602

> <r_mmod_Bend_Energy-OPLS-2005>
221.212219238281

> <r_mmod_Torsional_Energy-OPLS-2005>
236.507705688477

> <r_mmod_Improper_Torsional_Energy-OPLS-2005>
5.33182287216187

> <r_mmod_Van_der_Waal_Energy-OPLS-2005>
153.415771484375

> <r_mmod_Electrostatic_Energy-OPLS-2005>
-396.320648193359

> <r_mmod_Solvation_Energy-OPLS-2005>
-204.345794677734

> <b_mmod_Minimization_Converged-OPLS-2005>
0

> <r_mmod_RMS_Derivative-OPLS-2005>
0.433574974536896

$$$$
68
                    3D
 Structure written by MMmdl.
162171  0  0  1  0            999 V2000
  -30.5747  -14.9228   20.3851 C   0  0  0  0  0  0
  -30.4352  -12.5699   19.4769 C   0  0  0  0  0  0
  -29.5097  -12.5105   18.2420 C   0  0  0  0  0  0
  -28.0457  -12.2963   18.6725 C   0  0  0  0  0  0
  -27.6238  -13.2283   19.8383 C   0  0  2  0  0  0
  -28.6788  -13.2874   20.9622 C   0  0  0  0  0  0
  -25.2482  -13.8161   20.5767 C   0  0  0  0  0  0
  -24.1767  -13.0413   20.9242 C   0  0  0  0  0  0
  -24.6361  -11.6890   20.8782 C   0  0  0  0  0  0
  -23.9044  -10.4275   21.0424 C   0  0  0  0  0  0
  -24.3604   -9.4190   21.9195 C   0  0  0  0  0  0
  -23.6284   -8.2224   22.0755 C   0  0  0  0  0  0
  -22.4267   -8.0268   21.3543 C   0  0  0  0  0  0
  -21.9900   -9.0242   20.4647 C   0  0  0  0  0  0
  -22.7224  -10.2122   20.3063 C   0  0  0  0  0  0
  -21.6847   -6.0729   22.5279 C   0  0  0  0  0  0
  -21.4010   -6.5636   23.8211 C   0  0  0  0  0  0
  -21.3658   -5.6790   24.9175 C   0  0  0  0  0  0
  -21.6044   -4.3053   24.7226 C   0  0  0  0  0  0
  -21.8820   -3.8143   23.4348 C   0  0  0  0  0  0
  -21.9191   -4.6958   22.3403 C   0  0  0  0  0  0
  -22.7794  -13.5208   21.1882 C   0  0  0  0  0  0
  -22.1661   -4.2145   21.0980 F   0  0  0  0  0  0
  -21.5630   -3.4537   25.7739 F   0  0  0  0  0  0
  -29.9483  -13.6808   20.3371 N   0  0  0  0  0  0
  -26.2874  -12.9335   20.3329 N   0  0  0  0  0  0
  -25.9289  -11.6490   20.5800 N   0  0  0  0  0  0
  -22.0433  -12.8206   22.0435 N   0  0  0  0  0  0
  -25.4205  -15.1891   20.4221 N   0  0  0  0  0  0
  -31.8015  -14.9398   20.2375 O   0  0  0  0  0  0
  -21.6631   -6.8869   21.4239 O   0  0  0  0  0  0
  -22.3491  -14.5514   20.6720 O   0  0  0  0  0  0
  -24.6424  -31.8460   23.1911 C   0  0  0  0  0  0
  -25.9206  -32.4702   23.8288 C   0  0  1  0  0  0
  -27.2170  -27.1529   20.1288 C   0  0  0  0  0  0
  -25.5962  -33.8508   24.2202 N   0  0  0  0  0  0
  -23.4442  -30.4684   21.5367 C   0  0  2  0  0  0
  -24.8920  -28.9042   20.1062 C   0  0  0  0  0  0
  -22.7562  -29.4559   22.4863 C   0  0  0  0  0  0
  -18.0305  -28.1395   22.8478 C   0  0  0  0  0  0
  -24.1493  -36.7257   23.2640 C   0  0  0  0  0  0
  -26.0007  -30.7229   21.3898 C   0  0  0  0  0  0
  -26.0692  -29.3380   20.7265 C   0  0  0  0  0  0
  -27.2275  -28.4756   20.7287 C   0  0  0  0  0  0
  -26.0055  -26.8200   19.4762 C   0  0  0  0  0  0
  -24.8723  -27.6572   19.4697 C   0  0  0  0  0  0
  -23.6688  -29.8040   20.1536 C   0  0  0  0  0  0
  -25.4123  -36.3035   24.0316 C   0  0  1  0  0  0
  -20.5918  -28.3719   23.1238 C   0  0  2  0  0  0
  -20.6790  -26.9424   22.5403 C   0  0  0  0  0  0
  -19.5763  -26.6382   21.5212 C   0  0  0  0  0  0
  -18.1945  -26.7934   22.1624 C   0  0  0  0  0  0
  -19.1562  -28.8876   23.2851 C   0  0  0  0  0  0
  -18.9477  -30.1472   23.8875 C   0  0  0  0  0  0
  -17.6473  -30.6591   24.0560 C   0  0  0  0  0  0
  -25.9075  -34.9410   23.5065 C   0  0  0  0  0  0
  -16.5364  -29.9083   23.6337 C   0  0  0  0  0  0
  -16.7289  -28.6503   23.0356 C   0  0  0  0  0  0
  -26.4529  -31.6567   25.0726 C   0  0  0  0  0  0
  -25.3714  -31.3757   26.1421 C   0  0  0  0  0  0
  -27.0394  -30.2962   24.6308 C   0  0  0  0  0  0
  -27.6057  -32.4334   25.7511 C   0  0  0  0  0  0
  -27.5577  -37.1784   24.8462 C   0  0  0  0  0  0
  -21.4256  -29.3048   22.3612 N   0  0  0  0  0  0
  -26.4285  -37.3749   23.9410 N   0  0  0  0  0  0
  -24.7156  -31.0330   22.0940 N   0  0  0  0  0  0
  -23.4214  -28.8101   23.3003 O   0  0  0  0  0  0
  -28.2765  -26.1806   20.2428 O   0  0  0  0  0  0
  -26.5654  -34.8904   22.4640 O   0  0  0  0  0  0
  -23.5548  -32.1333   23.7139 O   0  0  0  0  0  0
  -28.0324  -20.8700   20.3901 C   0  0  0  0  0  0
  -29.3535  -20.3619   20.1824 C   0  0  0  0  0  0
  -27.6966  -22.2820   20.3365 C   0  0  0  0  0  0
  -30.2709  -21.4600   20.0092 C   0  0  0  0  0  0
  -28.6713  -23.3053   20.0782 C   0  0  0  0  0  0
  -28.7918  -18.0079   18.9933 C   0  0  0  0  0  0
  -29.2926  -16.5312   18.9832 C   0  0  0  0  0  0
  -29.7343  -18.7723   19.9151 C   0  0  2  0  0  0
  -29.9786  -17.5477   20.9652 C   0  0  2  0  0  0
  -26.2339  -22.6720   20.4639 C   0  0  0  0  0  0
  -31.7460  -21.1820   19.7930 C   0  0  0  0  0  0
  -31.2869  -17.7133   21.7521 C   0  0  0  0  0  0
  -28.3082  -24.8166   19.5132 C   0  0  0  0  0  0
  -29.9476  -22.8138   19.9508 N   0  0  0  0  0  0
  -29.8243  -16.1386   20.3093 N   0  0  0  0  0  0
  -31.4681  -12.7208   19.1584 H   0  0  0  0  0  0
  -30.4229  -11.6243   20.0214 H   0  0  0  0  0  0
  -29.8236  -11.7096   17.5712 H   0  0  0  0  0  0
  -29.5937  -13.4381   17.6733 H   0  0  0  0  0  0
  -27.9458  -11.2557   18.9832 H   0  0  0  0  0  0
  -27.3759  -12.4246   17.8214 H   0  0  0  0  0  0
  -27.5583  -14.2164   19.4020 H   0  0  0  0  0  0
  -28.7709  -12.3267   21.4708 H   0  0  0  0  0  0
  -28.3887  -14.0185   21.7189 H   0  0  0  0  0  0
  -25.2746   -9.5669   22.4773 H   0  0  0  0  0  0
  -23.9993   -7.4612   22.7470 H   0  0  0  0  0  0
  -21.0832   -8.8760   19.8951 H   0  0  0  0  0  0
  -22.3683  -10.9665   19.6177 H   0  0  0  0  0  0
  -21.2000   -7.6144   23.9713 H   0  0  0  0  0  0
  -21.1480   -6.0521   25.9078 H   0  0  0  0  0  0
  -22.0602   -2.7606   23.2847 H   0  0  0  0  0  0
  -22.4046  -11.9870   22.4831 H   0  0  0  0  0  0
  -21.1050  -13.1233   22.2633 H   0  0  0  0  0  0
  -24.6601  -15.8480   20.5483 H   0  0  0  0  0  0
  -26.2866  -15.6316   20.1427 H   0  0  0  0  0  0
  -26.7270  -32.5309   23.1014 H   0  0  0  0  0  0
  -25.0094  -33.9626   25.0339 H   0  0  0  0  0  0
  -22.7459  -31.2944   21.3864 H   0  0  0  0  0  0
  -23.3760  -35.9583   23.3285 H   0  0  0  0  0  0
  -24.3581  -36.8906   22.2059 H   0  0  0  0  0  0
  -23.7240  -37.6446   23.6687 H   0  0  0  0  0  0
  -26.1589  -31.4806   20.6210 H   0  0  0  0  0  0
  -26.8704  -30.7676   22.0337 H   0  0  0  0  0  0
  -28.1205  -28.8007   21.2439 H   0  0  0  0  0  0
  -25.8536  -25.8707   18.9940 H   0  0  0  0  0  0
  -23.9699  -27.3165   18.9805 H   0  0  0  0  0  0
  -23.8046  -30.5818   19.4012 H   0  0  0  0  0  0
  -22.7833  -29.2474   19.8415 H   0  0  0  0  0  0
  -25.1310  -36.1861   25.0808 H   0  0  0  0  0  0
  -21.0010  -28.3308   24.1359 H   0  0  0  0  0  0
  -20.5688  -26.2332   23.3621 H   0  0  0  0  0  0
  -21.6656  -26.7434   22.1198 H   0  0  0  0  0  0
  -19.6924  -25.6287   21.1257 H   0  0  0  0  0  0
  -19.6700  -27.3180   20.6733 H   0  0  0  0  0  0
  -17.4214  -26.6678   21.4028 H   0  0  0  0  0  0
  -18.0344  -26.0082   22.9026 H   0  0  0  0  0  0
  -19.7952  -30.7295   24.2235 H   0  0  0  0  0  0
  -17.5025  -31.6268   24.5165 H   0  0  0  0  0  0
  -15.5363  -30.2977   23.7675 H   0  0  0  0  0  0
  -15.8690  -28.0814   22.7081 H   0  0  0  0  0  0
  -24.5901  -30.7095   25.7744 H   0  0  0  0  0  0
  -24.8895  -32.2940   26.4786 H   0  0  0  0  0  0
  -25.7998  -30.8972   27.0236 H   0  0  0  0  0  0
  -26.3014  -29.6683   24.1303 H   0  0  0  0  0  0
  -27.3992  -29.7263   25.4885 H   0  0  0  0  0  0
  -27.8930  -30.4195   23.9639 H   0  0  0  0  0  0
  -27.2646  -33.3651   26.2037 H   0  0  0  0  0  0
  -28.3897  -32.6867   25.0363 H   0  0  0  0  0  0
  -28.0694  -31.8495   26.5473 H   0  0  0  0  0  0
  -28.2578  -38.0096   24.7520 H   0  0  0  0  0  0
  -28.1089  -36.2626   24.6274 H   0  0  0  0  0  0
  -27.2297  -37.1411   25.8865 H   0  0  0  0  0  0
  -20.9462  -29.8766   21.6798 H   0  0  0  0  0  0
  -26.0150  -38.2815   24.1419 H   0  0  0  0  0  0
  -27.2311  -20.1557   20.5161 H   0  0  0  0  0  0
  -27.7756  -18.0428   19.3885 H   0  0  0  0  0  0
  -28.7638  -18.4335   17.9893 H   0  0  0  0  0  0
  -30.1029  -16.4431   18.2564 H   0  0  0  0  0  0
  -28.5045  -15.8762   18.6282 H   0  0  0  0  0  0
  -30.6651  -18.8268   19.3507 H   0  0  0  0  0  0
  -29.1648  -17.5928   21.6908 H   0  0  0  0  0  0
  -25.6743  -21.9259   21.0296 H   0  0  0  0  0  0
  -25.7757  -22.7620   19.4784 H   0  0  0  0  0  0
  -26.1253  -23.6263   20.9811 H   0  0  0  0  0  0
  -32.1053  -20.4360   20.5015 H   0  0  0  0  0  0
  -32.3487  -22.0805   19.9300 H   0  0  0  0  0  0
  -31.9197  -20.8121   18.7827 H   0  0  0  0  0  0
  -32.1553  -17.6577   21.0949 H   0  0  0  0  0  0
  -31.3932  -16.9445   22.5179 H   0  0  0  0  0  0
  -31.3153  -18.6805   22.2549 H   0  0  0  0  0  0
  -27.4246  -24.6666   18.9060 H   0  0  0  0  0  0
  -29.0682  -24.9879   18.7507 H   0  0  0  0  0  0
  1 25  1  0  0  0
  1 30  2  0  0  0
  1 85  1  0  0  0
  2  3  1  0  0  0
  2 25  1  0  0  0
  2 86  1  0  0  0
  2 87  1  0  0  0
  3  4  1  0  0  0
  3 88  1  0  0  0
  3 89  1  0  0  0
  4  5  1  0  0  0
  4 90  1  0  0  0
  4 91  1  0  0  0
  5  6  1  0  0  0
  5 26  1  0  0  0
  5 92  1  0  0  0
  6 25  1  0  0  0
  6 93  1  0  0  0
  6 94  1  0  0  0
  7  8  2  0  0  0
  7 26  1  0  0  0
  7 29  1  0  0  0
  8  9  1  0  0  0
  8 22  1  0  0  0
  9 10  1  0  0  0
  9 27  2  0  0  0
 10 11  2  0  0  0
 10 15  1  0  0  0
 11 12  1  0  0  0
 11 95  1  0  0  0
 12 13  2  0  0  0
 12 96  1  0  0  0
 13 14  1  0  0  0
 13 31  1  0  0  0
 14 15  2  0  0  0
 14 97  1  0  0  0
 15 98  1  0  0  0
 16 17  2  0  0  0
 16 21  1  0  0  0
 16 31  1  0  0  0
 17 18  1  0  0  0
 17 99  1  0  0  0
 18 19  2  0  0  0
 18100  1  0  0  0
 19 20  1  0  0  0
 19 24  1  0  0  0
 20 21  2  0  0  0
 20101  1  0  0  0
 21 23  1  0  0  0
 22 28  1  0  0  0
 22 32  2  0  0  0
 26 27  1  0  0  0
 28102  1  0  0  0
 28103  1  0  0  0
 29104  1  0  0  0
 29105  1  0  0  0
 33 34  1  0  0  0
 33 66  1  0  0  0
 33 70  2  0  0  0
 34 36  1  0  0  0
 34 59  1  0  0  0
 34106  1  0  0  0
 35 44  2  0  0  0
 35 45  1  0  0  0
 35 68  1  0  0  0
 36 56  1  0  0  0
 36107  1  0  0  0
 37 39  1  0  0  0
 37 47  1  0  0  0
 37 66  1  0  0  0
 37108  1  0  0  0
 38 43  2  0  0  0
 38 46  1  0  0  0
 38 47  1  0  0  0
 39 64  1  0  0  0
 39 67  2  0  0  0
 40 52  1  0  0  0
 40 53  2  0  0  0
 40 58  1  0  0  0
 41109  1  0  0  0
 41110  1  0  0  0
 41111  1  0  0  0
 41 48  1  0  0  0
 42 43  1  0  0  0
 42 66  1  0  0  0
 42112  1  0  0  0
 42113  1  0  0  0
 43 44  1  0  0  0
 44114  1  0  0  0
 45 46  2  0  0  0
 45115  1  0  0  0
 46116  1  0  0  0
 47117  1  0  0  0
 47118  1  0  0  0
 48 56  1  0  0  0
 48 65  1  0  0  0
 48119  1  0  0  0
 49 50  1  0  0  0
 49 53  1  0  0  0
 49 64  1  0  0  0
 49120  1  0  0  0
 50 51  1  0  0  0
 50121  1  0  0  0
 50122  1  0  0  0
 51 52  1  0  0  0
 51123  1  0  0  0
 51124  1  0  0  0
 52125  1  0  0  0
 52126  1  0  0  0
 53 54  1  0  0  0
 54 55  2  0  0  0
 54127  1  0  0  0
 55 57  1  0  0  0
 55128  1  0  0  0
 56 69  2  0  0  0
 57 58  2  0  0  0
 57129  1  0  0  0
 58130  1  0  0  0
 59 60  1  0  0  0
 59 61  1  0  0  0
 59 62  1  0  0  0
 60131  1  0  0  0
 60132  1  0  0  0
 60133  1  0  0  0
 61134  1  0  0  0
 61135  1  0  0  0
 61136  1  0  0  0
 62137  1  0  0  0
 62138  1  0  0  0
 62139  1  0  0  0
 63 65  1  0  0  0
 63140  1  0  0  0
 63141  1  0  0  0
 63142  1  0  0  0
 64143  1  0  0  0
 65144  1  0  0  0
 68 83  1  0  0  0
 71 72  2  0  0  0
 71 73  1  0  0  0
 71145  1  0  0  0
 72 74  1  0  0  0
 72 78  1  0  0  0
 73 75  2  0  0  0
 73 80  1  0  0  0
 74 81  1  0  0  0
 74 84  2  0  0  0
 75 83  1  0  0  0
 75 84  1  0  0  0
 76 77  1  0  0  0
 76 78  1  0  0  0
 76146  1  0  0  0
 76147  1  0  0  0
 77 85  1  0  0  0
 77148  1  0  0  0
 77149  1  0  0  0
 78 79  1  0  0  0
 78150  1  0  0  0
 79 82  1  0  0  0
 79 85  1  0  0  0
 79151  1  0  0  0
 80152  1  0  0  0
 80153  1  0  0  0
 80154  1  0  0  0
 81155  1  0  0  0
 81156  1  0  0  0
 81157  1  0  0  0
 82158  1  0  0  0
 82159  1  0  0  0
 82160  1  0  0  0
 83161  1  0  0  0
 83162  1  0  0  0
M  ISO  4   1 100  68 101  83 101  85 100
M  END
> <chiral flag>
0

> <version>
0

> <s_m_source_file>
/data/baiqing/PycharmProjects/Reinvent-master-3.2/result/LINK_invent/BTK/process_docking_weight1_custom_sum_contain_oxygen_bond_distance_aromatic_linkinvent_7_9_3/rearranged_h_0165.sdf

> <i_m_source_file_index>
68

> <r_mmod_Potential_Energy-OPLS-2005>
568.470397949219

> <r_mmod_Stretch_Energy-OPLS-2005>
213.287017822266

> <r_mmod_Bend_Energy-OPLS-2005>
301.014129638672

> <r_mmod_Torsional_Energy-OPLS-2005>
358.437225341797

> <r_mmod_Improper_Torsional_Energy-OPLS-2005>
14.8085584640503

> <r_mmod_Van_der_Waal_Energy-OPLS-2005>
130.007080078125

> <r_mmod_Electrostatic_Energy-OPLS-2005>
-417.929077148438

> <r_mmod_Solvation_Energy-OPLS-2005>
-212.546630859375

> <b_mmod_Minimization_Converged-OPLS-2005>
0

> <r_mmod_RMS_Derivative-OPLS-2005>
0.20918282866478

$$$$
69
                    3D
 Structure written by MMmdl.
167176  0  0  1  0            999 V2000
  -30.7045  -14.5889   20.5282 C   0  0  0  0  0  0
  -30.4191  -12.3793   19.4467 C   0  0  0  0  0  0
  -29.4957  -12.4939   18.2162 C   0  0  0  0  0  0
  -28.0209  -12.3314   18.6345 C   0  0  0  0  0  0
  -27.6486  -13.2093   19.8580 C   0  0  2  0  0  0
  -28.6945  -13.0603   20.9848 C   0  0  0  0  0  0
  -25.2535  -13.8132   20.5599 C   0  0  0  0  0  0
  -24.1820  -13.0420   20.9200 C   0  0  0  0  0  0
  -24.6390  -11.6897   20.8773 C   0  0  0  0  0  0
  -23.9058  -10.4288   21.0438 C   0  0  0  0  0  0
  -24.3616   -9.4198   21.9201 C   0  0  0  0  0  0
  -23.6295   -8.2235   22.0758 C   0  0  0  0  0  0
  -22.4272   -8.0281   21.3563 C   0  0  0  0  0  0
  -21.9916   -9.0252   20.4657 C   0  0  0  0  0  0
  -22.7243  -10.2133   20.3072 C   0  0  0  0  0  0
  -21.6862   -6.0722   22.5283 C   0  0  0  0  0  0
  -21.4011   -6.5631   23.8215 C   0  0  0  0  0  0
  -21.3657   -5.6795   24.9184 C   0  0  0  0  0  0
  -21.6053   -4.3058   24.7246 C   0  0  0  0  0  0
  -21.8824   -3.8131   23.4373 C   0  0  0  0  0  0
  -21.9207   -4.6942   22.3416 C   0  0  0  0  0  0
  -22.7848  -13.5214   21.1884 C   0  0  0  0  0  0
  -22.1663   -4.2117   21.0997 F   0  0  0  0  0  0
  -21.5649   -3.4548   25.7763 F   0  0  0  0  0  0
  -29.9998  -13.4171   20.4133 N   0  0  0  0  0  0
  -26.2974  -12.9308   20.3323 N   0  0  0  0  0  0
  -25.9322  -11.6476   20.5819 N   0  0  0  0  0  0
  -22.0507  -12.8180   22.0435 N   0  0  0  0  0  0
  -25.4213  -15.1821   20.3798 N   0  0  0  0  0  0
  -31.8738  -14.6523   20.1499 O   0  0  0  0  0  0
  -21.6656   -6.8866   21.4244 O   0  0  0  0  0  0
  -22.3529  -14.5531   20.6754 O   0  0  0  0  0  0
  -24.6214  -31.8642   23.2056 C   0  0  0  0  0  0
  -25.9069  -32.4800   23.8387 C   0  0  1  0  0  0
  -27.2298  -27.3709   20.1089 C   0  0  0  0  0  0
  -25.5890  -33.8604   24.2318 N   0  0  0  0  0  0
  -23.4128  -30.4886   21.5453 C   0  0  2  0  0  0
  -24.8602  -28.9416   20.1179 C   0  0  0  0  0  0
  -22.7438  -29.4685   22.4965 C   0  0  0  0  0  0
  -18.0285  -28.1395   22.8503 C   0  0  0  0  0  0
  -24.1482  -36.7311   23.2646 C   0  0  0  0  0  0
  -25.9500  -30.8118   21.3665 C   0  0  0  0  0  0
  -26.0264  -29.4405   20.7126 C   0  0  0  0  0  0
  -27.2192  -28.6665   20.6967 C   0  0  0  0  0  0
  -26.0471  -26.9057   19.4989 C   0  0  0  0  0  0
  -24.8684  -27.6761   19.5054 C   0  0  0  0  0  0
  -23.6258  -29.8159   20.1631 C   0  0  0  0  0  0
  -25.4102  -36.3106   24.0345 C   0  0  1  0  0  0
  -20.5876  -28.3737   23.1284 C   0  0  2  0  0  0
  -20.6776  -26.9440   22.5454 C   0  0  0  0  0  0
  -19.5760  -26.6387   21.5268 C   0  0  0  0  0  0
  -18.1936  -26.7932   22.1650 C   0  0  0  0  0  0
  -19.1527  -28.8881   23.2879 C   0  0  0  0  0  0
  -18.9443  -30.1501   23.8877 C   0  0  0  0  0  0
  -17.6437  -30.6607   24.0521 C   0  0  0  0  0  0
  -25.9042  -34.9465   23.5143 C   0  0  0  0  0  0
  -16.5334  -29.9091   23.6299 C   0  0  0  0  0  0
  -16.7267  -28.6501   23.0335 C   0  0  0  0  0  0
  -26.4469  -31.6590   25.0746 C   0  0  0  0  0  0
  -25.3724  -31.3692   26.1492 C   0  0  0  0  0  0
  -27.0318  -30.3029   24.6156 C   0  0  0  0  0  0
  -27.6044  -32.4330   25.7497 C   0  0  0  0  0  0
  -27.5579  -37.1812   24.8470 C   0  0  0  0  0  0
  -21.4163  -29.3082   22.3682 N   0  0  0  0  0  0
  -26.4287  -37.3789   23.9417 N   0  0  0  0  0  0
  -24.6801  -31.0696   22.0967 N   0  0  0  0  0  0
  -23.4154  -28.8258   23.3060 O   0  0  0  0  0  0
  -28.3622  -26.5637   20.1019 O   0  0  0  0  0  0
  -26.5621  -34.8928   22.4721 O   0  0  0  0  0  0
  -23.5389  -32.1411   23.7407 O   0  0  0  0  0  0
  -28.9800  -18.8408   20.7274 C   0  0  0  0  0  0
  -26.5963  -19.1718   22.1836 C   0  0  0  0  0  0
  -28.4521  -17.7306   21.4682 C   0  0  0  0  0  0
  -27.3099  -17.9640   22.2705 C   0  0  0  0  0  0
  -28.3138  -20.1195   20.7202 C   0  0  0  0  0  0
  -27.0644  -20.2267   21.3805 C   0  0  0  0  0  0
  -26.8646  -16.8981   23.2612 C   0  0  0  0  0  0
  -28.0591  -16.2096   23.9574 C   0  0  0  0  0  0
  -29.2846  -15.9627   23.0481 C   0  0  0  0  0  0
  -28.9940  -16.2656   21.5634 C   0  0  1  0  0  0
  -25.0957  -21.2151   20.5883 C   0  0  0  0  0  0
  -28.8707  -21.3756   19.9783 C   0  0  0  0  0  0
  -28.7123  -23.9791   19.9040 C   0  0  0  0  0  0
  -28.2267  -25.2405   20.7170 C   0  0  0  0  0  0
  -30.0745  -15.7915   20.6782 N   0  0  0  0  0  0
  -28.5850  -22.6812   20.6706 N   0  3  0  0  0  0
  -26.3259  -21.3802   21.2846 O   0  0  0  0  0  0
  -31.4636  -12.4680   19.1412 H   0  0  0  0  0  0
  -30.3341  -11.3896   19.8983 H   0  0  0  0  0  0
  -29.7580  -11.7374   17.4753 H   0  0  0  0  0  0
  -29.6418  -13.4597   17.7314 H   0  0  0  0  0  0
  -27.8662  -11.2800   18.8804 H   0  0  0  0  0  0
  -27.3574  -12.5473   17.7956 H   0  0  0  0  0  0
  -27.6702  -14.2427   19.5119 H   0  0  0  0  0  0
  -28.7118  -12.0318   21.3488 H   0  0  0  0  0  0
  -28.4331  -13.6520   21.8565 H   0  0  0  0  0  0
  -25.2759   -9.5678   22.4789 H   0  0  0  0  0  0
  -24.0011   -7.4606   22.7451 H   0  0  0  0  0  0
  -21.0864   -8.8784   19.8932 H   0  0  0  0  0  0
  -22.3709  -10.9690   19.6193 H   0  0  0  0  0  0
  -21.1972   -7.6135   23.9710 H   0  0  0  0  0  0
  -21.1479   -6.0526   25.9093 H   0  0  0  0  0  0
  -22.0598   -2.7592   23.2901 H   0  0  0  0  0  0
  -22.4128  -11.9808   22.4753 H   0  0  0  0  0  0
  -21.1138  -13.1192   22.2686 H   0  0  0  0  0  0
  -24.6490  -15.8331   20.4660 H   0  0  0  0  0  0
  -26.2596  -15.6105   20.0124 H   0  0  0  0  0  0
  -26.7162  -32.5501   23.1171 H   0  0  0  0  0  0
  -24.9991  -33.9750   25.0429 H   0  0  0  0  0  0
  -22.7068  -31.3085   21.4010 H   0  0  0  0  0  0
  -23.3742  -35.9650   23.3320 H   0  0  0  0  0  0
  -24.3576  -36.8917   22.2059 H   0  0  0  0  0  0
  -23.7227  -37.6521   23.6653 H   0  0  0  0  0  0
  -26.0745  -31.5750   20.5977 H   0  0  0  0  0  0
  -26.8341  -30.8654   21.9897 H   0  0  0  0  0  0
  -28.1215  -29.0500   21.1532 H   0  0  0  0  0  0
  -26.0336  -25.9379   19.0160 H   0  0  0  0  0  0
  -23.9740  -27.2884   19.0382 H   0  0  0  0  0  0
  -23.7399  -30.5890   19.4012 H   0  0  0  0  0  0
  -22.7464  -29.2418   19.8651 H   0  0  0  0  0  0
  -25.1277  -36.1990   25.0834 H   0  0  0  0  0  0
  -20.9950  -28.3355   24.1418 H   0  0  0  0  0  0
  -21.6645  -26.7458   22.1266 H   0  0  0  0  0  0
  -20.5682  -26.2367   23.3693 H   0  0  0  0  0  0
  -19.6909  -25.6296   21.1290 H   0  0  0  0  0  0
  -19.6715  -27.3206   20.6798 H   0  0  0  0  0  0
  -17.4238  -26.6704   21.4014 H   0  0  0  0  0  0
  -18.0291  -26.0066   22.9046 H   0  0  0  0  0  0
  -19.7894  -30.7358   24.2219 H   0  0  0  0  0  0
  -17.4977  -31.6316   24.5059 H   0  0  0  0  0  0
  -15.5330  -30.2987   23.7626 H   0  0  0  0  0  0
  -15.8696  -28.0815   22.7039 H   0  0  0  0  0  0
  -24.5891  -30.7050   25.7824 H   0  0  0  0  0  0
  -24.8916  -32.2837   26.4979 H   0  0  0  0  0  0
  -25.8066  -30.8836   27.0237 H   0  0  0  0  0  0
  -26.2876  -29.6792   24.1189 H   0  0  0  0  0  0
  -27.4059  -29.7270   25.4630 H   0  0  0  0  0  0
  -27.8726  -30.4358   23.9343 H   0  0  0  0  0  0
  -27.2656  -33.3621   26.2092 H   0  0  0  0  0  0
  -28.3810  -32.6906   25.0287 H   0  0  0  0  0  0
  -28.0756  -31.8453   26.5386 H   0  0  0  0  0  0
  -28.2609  -38.0095   24.7511 H   0  0  0  0  0  0
  -28.1059  -36.2633   24.6301 H   0  0  0  0  0  0
  -27.2307  -37.1474   25.8873 H   0  0  0  0  0  0
  -20.9355  -29.8737   21.6828 H   0  0  0  0  0  0
  -26.0189  -38.2880   24.1400 H   0  0  0  0  0  0
  -29.8950  -18.7166   20.1666 H   0  0  0  0  0  0
  -25.6884  -19.2973   22.7562 H   0  0  0  0  0  0
  -26.2650  -16.1600   22.7309 H   0  0  0  0  0  0
  -26.2090  -17.3265   24.0201 H   0  0  0  0  0  0
  -27.7223  -15.2757   24.4073 H   0  0  0  0  0  0
  -28.3900  -16.8350   24.7896 H   0  0  0  0  0  0
  -29.6361  -14.9424   23.1999 H   0  0  0  0  0  0
  -30.1014  -16.6066   23.3754 H   0  0  0  0  0  0
  -28.1346  -15.6742   21.2591 H   0  0  0  0  0  0
  -25.2657  -20.8018   19.5935 H   0  0  0  0  0  0
  -24.6180  -22.1871   20.4629 H   0  0  0  0  0  0
  -24.3994  -20.5661   21.1212 H   0  0  0  0  0  0
  -28.4279  -21.3923   18.9839 H   0  0  0  0  0  0
  -29.9465  -21.2734   19.8419 H   0  0  0  0  0  0
  -29.7538  -24.1120   19.6090 H   0  0  0  0  0  0
  -28.1350  -23.9060   18.9826 H   0  0  0  0  0  0
  -28.8044  -25.2859   21.6412 H   0  0  0  0  0  0
  -27.1999  -25.0669   21.0416 H   0  0  0  0  0  0
  -30.6738  -16.5438   20.3755 H   0  0  0  0  0  0
  -29.1546  -22.7117   21.5005 H   0  0  0  0  0  0
  -27.6268  -22.5816   20.9843 H   0  0  0  0  0  0
  1 25  1  0  0  0
  1 30  2  0  0  0
  1 85  1  0  0  0
  2  3  1  0  0  0
  2 25  1  0  0  0
  2 88  1  0  0  0
  2 89  1  0  0  0
  3  4  1  0  0  0
  3 90  1  0  0  0
  3 91  1  0  0  0
  4  5  1  0  0  0
  4 92  1  0  0  0
  4 93  1  0  0  0
  5  6  1  0  0  0
  5 26  1  0  0  0
  5 94  1  0  0  0
  6 25  1  0  0  0
  6 95  1  0  0  0
  6 96  1  0  0  0
  7  8  2  0  0  0
  7 26  1  0  0  0
  7 29  1  0  0  0
  8  9  1  0  0  0
  8 22  1  0  0  0
  9 10  1  0  0  0
  9 27  2  0  0  0
 10 11  2  0  0  0
 10 15  1  0  0  0
 11 12  1  0  0  0
 11 97  1  0  0  0
 12 13  2  0  0  0
 12 98  1  0  0  0
 13 14  1  0  0  0
 13 31  1  0  0  0
 14 15  2  0  0  0
 14 99  1  0  0  0
 15100  1  0  0  0
 16 17  2  0  0  0
 16 21  1  0  0  0
 16 31  1  0  0  0
 17 18  1  0  0  0
 17101  1  0  0  0
 18 19  2  0  0  0
 18102  1  0  0  0
 19 20  1  0  0  0
 19 24  1  0  0  0
 20 21  2  0  0  0
 20103  1  0  0  0
 21 23  1  0  0  0
 22 28  1  0  0  0
 22 32  2  0  0  0
 26 27  1  0  0  0
 28104  1  0  0  0
 28105  1  0  0  0
 29106  1  0  0  0
 29107  1  0  0  0
 33 34  1  0  0  0
 33 66  1  0  0  0
 33 70  2  0  0  0
 34 36  1  0  0  0
 34 59  1  0  0  0
 34108  1  0  0  0
 35 44  2  0  0  0
 35 45  1  0  0  0
 35 68  1  0  0  0
 36 56  1  0  0  0
 36109  1  0  0  0
 37 39  1  0  0  0
 37 47  1  0  0  0
 37 66  1  0  0  0
 37110  1  0  0  0
 38 43  2  0  0  0
 38 46  1  0  0  0
 38 47  1  0  0  0
 39 64  1  0  0  0
 39 67  2  0  0  0
 40 52  1  0  0  0
 40 53  2  0  0  0
 40 58  1  0  0  0
 41111  1  0  0  0
 41112  1  0  0  0
 41113  1  0  0  0
 41 48  1  0  0  0
 42 43  1  0  0  0
 42 66  1  0  0  0
 42114  1  0  0  0
 42115  1  0  0  0
 43 44  1  0  0  0
 44116  1  0  0  0
 45 46  2  0  0  0
 45117  1  0  0  0
 46118  1  0  0  0
 47119  1  0  0  0
 47120  1  0  0  0
 48 56  1  0  0  0
 48 65  1  0  0  0
 48121  1  0  0  0
 49 50  1  0  0  0
 49 53  1  0  0  0
 49 64  1  0  0  0
 49122  1  0  0  0
 50 51  1  0  0  0
 50123  1  0  0  0
 50124  1  0  0  0
 51 52  1  0  0  0
 51125  1  0  0  0
 51126  1  0  0  0
 52127  1  0  0  0
 52128  1  0  0  0
 53 54  1  0  0  0
 54 55  2  0  0  0
 54129  1  0  0  0
 55 57  1  0  0  0
 55130  1  0  0  0
 56 69  2  0  0  0
 57 58  2  0  0  0
 57131  1  0  0  0
 58132  1  0  0  0
 59 60  1  0  0  0
 59 61  1  0  0  0
 59 62  1  0  0  0
 60133  1  0  0  0
 60134  1  0  0  0
 60135  1  0  0  0
 61136  1  0  0  0
 61137  1  0  0  0
 61138  1  0  0  0
 62139  1  0  0  0
 62140  1  0  0  0
 62141  1  0  0  0
 63 65  1  0  0  0
 63142  1  0  0  0
 63143  1  0  0  0
 63144  1  0  0  0
 64145  1  0  0  0
 65146  1  0  0  0
 68 84  1  0  0  0
 71 73  2  0  0  0
 71 75  1  0  0  0
 71147  1  0  0  0
 72 74  2  0  0  0
 72 76  1  0  0  0
 72148  1  0  0  0
 73 74  1  0  0  0
 73 80  1  0  0  0
 74 77  1  0  0  0
 75 76  2  0  0  0
 75 82  1  0  0  0
 76 87  1  0  0  0
 77 78  1  0  0  0
 77149  1  0  0  0
 77150  1  0  0  0
 78 79  1  0  0  0
 78151  1  0  0  0
 78152  1  0  0  0
 79 80  1  0  0  0
 79153  1  0  0  0
 79154  1  0  0  0
 80 85  1  0  0  0
 80155  1  0  0  0
 81 87  1  0  0  0
 81156  1  0  0  0
 81157  1  0  0  0
 81158  1  0  0  0
 82 86  1  0  0  0
 82159  1  0  0  0
 82160  1  0  0  0
 83 84  1  0  0  0
 83 86  1  0  0  0
 83161  1  0  0  0
 83162  1  0  0  0
 84163  1  0  0  0
 84164  1  0  0  0
 85165  1  0  0  0
 86166  1  0  0  0
 86167  1  0  0  0
M  CHG  1  86   1
M  ISO  4   1 100  68 101  84 101  85 100
M  END
> <chiral flag>
0

> <version>
0

> <s_m_source_file>
/data/baiqing/PycharmProjects/Reinvent-master-3.2/result/LINK_invent/BTK/process_docking_weight1_custom_sum_contain_oxygen_bond_distance_aromatic_linkinvent_7_9_3/rearranged_h_0165.sdf

> <i_m_source_file_index>
69

> <r_mmod_Potential_Energy-OPLS-2005>
-77.4035491943359

> <r_mmod_Stretch_Energy-OPLS-2005>
64.1506271362305

> <r_mmod_Bend_Energy-OPLS-2005>
161.407730102539

> <r_mmod_Torsional_Energy-OPLS-2005>
307.694793701172

> <r_mmod_Improper_Torsional_Energy-OPLS-2005>
12.3755369186401

> <r_mmod_Van_der_Waal_Energy-OPLS-2005>
150.585678100586

> <r_mmod_Electrostatic_Energy-OPLS-2005>
-384.388336181641

> <r_mmod_Solvation_Energy-OPLS-2005>
-422.019561767578

> <b_mmod_Minimization_Converged-OPLS-2005>
0

> <r_mmod_RMS_Derivative-OPLS-2005>
3.25648808479309

$$$$
70
                    3D
 Structure written by MMmdl.
165174  0  0  1  0            999 V2000
  -30.7254  -14.5413   20.5303 C   0  0  0  0  0  0
  -30.4151  -12.3430   19.4407 C   0  0  0  0  0  0
  -29.4939  -12.4955   18.2140 C   0  0  0  0  0  0
  -28.0196  -12.3306   18.6322 C   0  0  0  0  0  0
  -27.6464  -13.2022   19.8595 C   0  0  2  0  0  0
  -28.6960  -13.0856   20.9889 C   0  0  0  0  0  0
  -25.2554  -13.8115   20.5710 C   0  0  0  0  0  0
  -24.1811  -13.0401   20.9206 C   0  0  0  0  0  0
  -24.6361  -11.6863   20.8753 C   0  0  0  0  0  0
  -23.9014  -10.4277   21.0429 C   0  0  0  0  0  0
  -24.3576   -9.4207   21.9208 C   0  0  0  0  0  0
  -23.6275   -8.2223   22.0757 C   0  0  0  0  0  0
  -22.4263   -8.0258   21.3545 C   0  0  0  0  0  0
  -21.9884   -9.0230   20.4649 C   0  0  0  0  0  0
  -22.7188  -10.2118   20.3077 C   0  0  0  0  0  0
  -21.6843   -6.0729   22.5274 C   0  0  0  0  0  0
  -21.3996   -6.5630   23.8208 C   0  0  0  0  0  0
  -21.3665   -5.6786   24.9172 C   0  0  0  0  0  0
  -21.6051   -4.3047   24.7223 C   0  0  0  0  0  0
  -21.8820   -3.8145   23.4338 C   0  0  0  0  0  0
  -21.9189   -4.6964   22.3396 C   0  0  0  0  0  0
  -22.7846  -13.5231   21.1869 C   0  0  0  0  0  0
  -22.1670   -4.2151   21.0972 F   0  0  0  0  0  0
  -21.5638   -3.4531   25.7741 F   0  0  0  0  0  0
  -30.0188  -13.3758   20.4152 N   0  0  0  0  0  0
  -26.2953  -12.9262   20.3334 N   0  0  0  0  0  0
  -25.9280  -11.6428   20.5765 N   0  0  0  0  0  0
  -22.0463  -12.8239   22.0421 N   0  0  0  0  0  0
  -25.4262  -15.1836   20.4122 N   0  0  0  0  0  0
  -31.8919  -14.6299   20.1395 O   0  0  0  0  0  0
  -21.6622   -6.8861   21.4236 O   0  0  0  0  0  0
  -22.3560  -14.5551   20.6722 O   0  0  0  0  0  0
  -24.6160  -31.8673   23.2086 C   0  0  0  0  0  0
  -25.9048  -32.4823   23.8387 C   0  0  1  0  0  0
  -27.2312  -27.4096   20.1070 C   0  0  0  0  0  0
  -25.5903  -33.8621   24.2320 N   0  0  0  0  0  0
  -23.4048  -30.4907   21.5507 C   0  0  2  0  0  0
  -24.8499  -28.9541   20.1146 C   0  0  0  0  0  0
  -22.7418  -29.4645   22.4992 C   0  0  0  0  0  0
  -18.0262  -28.1368   22.8494 C   0  0  0  0  0  0
  -24.1486  -36.7307   23.2637 C   0  0  0  0  0  0
  -25.9360  -30.8270   21.3636 C   0  0  0  0  0  0
  -26.0118  -29.4596   20.7103 C   0  0  0  0  0  0
  -27.2044  -28.6965   20.6991 C   0  0  0  0  0  0
  -26.0507  -26.9296   19.4925 C   0  0  0  0  0  0
  -24.8659  -27.6906   19.5005 C   0  0  0  0  0  0
  -23.6126  -29.8235   20.1651 C   0  0  0  0  0  0
  -25.4105  -36.3118   24.0344 C   0  0  1  0  0  0
  -20.5860  -28.3657   23.1326 C   0  0  2  0  0  0
  -20.6751  -26.9390   22.5422 C   0  0  0  0  0  0
  -19.5733  -26.6377   21.5211 C   0  0  0  0  0  0
  -18.1908  -26.7912   22.1616 C   0  0  0  0  0  0
  -19.1518  -28.8820   23.2900 C   0  0  0  0  0  0
  -18.9449  -30.1432   23.8905 C   0  0  0  0  0  0
  -17.6451  -30.6581   24.0552 C   0  0  0  0  0  0
  -25.9041  -34.9484   23.5132 C   0  0  0  0  0  0
  -16.5337  -29.9079   23.6332 C   0  0  0  0  0  0
  -16.7256  -28.6493   23.0357 C   0  0  0  0  0  0
  -26.4464  -31.6610   25.0730 C   0  0  0  0  0  0
  -25.3725  -31.3741   26.1486 C   0  0  0  0  0  0
  -27.0278  -30.3044   24.6115 C   0  0  0  0  0  0
  -27.6043  -32.4328   25.7489 C   0  0  0  0  0  0
  -27.5593  -37.1787   24.8447 C   0  0  0  0  0  0
  -21.4142  -29.3025   22.3732 N   0  0  0  0  0  0
  -26.4279  -37.3815   23.9438 N   0  0  0  0  0  0
  -24.6711  -31.0762   22.0992 N   0  0  0  0  0  0
  -23.4185  -28.8189   23.3032 O   0  0  0  0  0  0
  -28.3956  -26.6609   20.1519 O   0  0  0  0  0  0
  -26.5608  -34.8939   22.4698 O   0  0  0  0  0  0
  -23.5348  -32.1427   23.7470 O   0  0  0  0  0  0
  -29.6506  -20.8335   22.0893 C   0  0  0  0  0  0
  -29.5310  -20.7834   19.6871 C   0  0  0  0  0  0
  -29.4054  -22.9608   20.8495 C   0  0  0  0  0  0
  -29.5387  -22.2456   22.0782 C   0  0  0  0  0  0
  -29.6654  -20.0628   20.9036 C   0  0  0  0  0  0
  -29.3940  -22.2044   19.6445 C   0  0  0  0  0  0
  -29.3902  -24.4818   20.8218 C   0  0  0  0  0  0
  -30.1185  -17.9205   22.1831 C   0  0  0  0  0  0
  -29.5587  -17.8153   19.7579 C   0  0  0  0  0  0
  -30.8005  -16.5462   21.9369 C   0  0  0  0  0  0
  -29.1383  -16.3652   20.1174 C   0  0  0  0  0  0
  -29.5671  -22.9513   23.4293 C   0  0  0  0  0  0
  -28.9270  -22.1897   17.2790 C   0  0  0  0  0  0
  -28.2816  -25.2206   20.0255 C   0  0  0  0  0  0
  -29.8178  -18.6409   20.9391 N   0  0  0  0  0  0
  -30.0824  -15.6476   21.0036 N   0  0  0  0  0  0
  -30.2086  -25.1546   21.4604 O   0  0  0  0  0  0
  -29.2939  -22.8991   18.4552 O   0  0  0  0  0  0
  -31.4627  -12.4202   19.1417 H   0  0  0  0  0  0
  -30.3043  -11.3516   19.8841 H   0  0  0  0  0  0
  -29.7515  -11.7550   17.4548 H   0  0  0  0  0  0
  -29.6418  -13.4735   17.7513 H   0  0  0  0  0  0
  -27.8608  -11.2785   18.8682 H   0  0  0  0  0  0
  -27.3601  -12.5589   17.7942 H   0  0  0  0  0  0
  -27.6406  -14.2244   19.4977 H   0  0  0  0  0  0
  -28.6921  -12.0824   21.4191 H   0  0  0  0  0  0
  -28.4524  -13.7649   21.8078 H   0  0  0  0  0  0
  -25.2717   -9.5712   22.4774 H   0  0  0  0  0  0
  -24.0011   -7.4622   22.7466 H   0  0  0  0  0  0
  -21.0817   -8.8725   19.8966 H   0  0  0  0  0  0
  -22.3628  -10.9652   19.6185 H   0  0  0  0  0  0
  -21.1966   -7.6138   23.9707 H   0  0  0  0  0  0
  -21.1498   -6.0516   25.9074 H   0  0  0  0  0  0
  -22.0599   -2.7612   23.2822 H   0  0  0  0  0  0
  -22.3999  -11.9861   22.4805 H   0  0  0  0  0  0
  -21.1109  -13.1345   22.2633 H   0  0  0  0  0  0
  -24.6596  -15.8379   20.5214 H   0  0  0  0  0  0
  -26.2805  -15.6244   20.0986 H   0  0  0  0  0  0
  -26.7124  -32.5530   23.1150 H   0  0  0  0  0  0
  -25.0053  -33.9786   25.0467 H   0  0  0  0  0  0
  -22.6942  -31.3089   21.4133 H   0  0  0  0  0  0
  -23.3786  -35.9596   23.3246 H   0  0  0  0  0  0
  -24.3598  -36.8975   22.2062 H   0  0  0  0  0  0
  -23.7179  -37.6470   23.6684 H   0  0  0  0  0  0
  -26.0517  -31.5922   20.5945 H   0  0  0  0  0  0
  -26.8227  -30.8787   21.9838 H   0  0  0  0  0  0
  -28.1000  -29.0830   21.1650 H   0  0  0  0  0  0
  -26.0240  -25.9665   19.0041 H   0  0  0  0  0  0
  -23.9735  -27.2965   19.0343 H   0  0  0  0  0  0
  -23.7221  -30.5988   19.4055 H   0  0  0  0  0  0
  -22.7348  -29.2457   19.8701 H   0  0  0  0  0  0
  -25.1267  -36.1972   25.0830 H   0  0  0  0  0  0
  -20.9951  -28.3207   24.1446 H   0  0  0  0  0  0
  -20.5651  -26.2257   23.3605 H   0  0  0  0  0  0
  -21.6620  -26.7422   22.1223 H   0  0  0  0  0  0
  -19.6896  -25.6287   21.1239 H   0  0  0  0  0  0
  -19.6681  -27.3189   20.6745 H   0  0  0  0  0  0
  -17.4186  -26.6677   21.4002 H   0  0  0  0  0  0
  -18.0290  -26.0045   22.9001 H   0  0  0  0  0  0
  -19.7928  -30.7231   24.2289 H   0  0  0  0  0  0
  -17.5016  -31.6266   24.5144 H   0  0  0  0  0  0
  -15.5341  -30.2978   23.7653 H   0  0  0  0  0  0
  -15.8647  -28.0810   22.7075 H   0  0  0  0  0  0
  -24.5843  -30.7159   25.7822 H   0  0  0  0  0  0
  -24.8985  -32.2914   26.4984 H   0  0  0  0  0  0
  -25.8061  -30.8852   27.0217 H   0  0  0  0  0  0
  -26.2809  -29.6833   24.1158 H   0  0  0  0  0  0
  -27.4021  -29.7267   25.4576 H   0  0  0  0  0  0
  -27.8667  -30.4356   23.9276 H   0  0  0  0  0  0
  -27.2667  -33.3627   26.2077 H   0  0  0  0  0  0
  -28.3834  -32.6887   25.0300 H   0  0  0  0  0  0
  -28.0727  -31.8449   26.5390 H   0  0  0  0  0  0
  -28.2548  -38.0151   24.7612 H   0  0  0  0  0  0
  -28.1151  -36.2689   24.6110 H   0  0  0  0  0  0
  -27.2343  -37.1244   25.8854 H   0  0  0  0  0  0
  -20.9300  -29.8763   21.6973 H   0  0  0  0  0  0
  -26.0169  -38.2880   24.1505 H   0  0  0  0  0  0
  -29.7358  -20.3493   23.0505 H   0  0  0  0  0  0
  -29.5667  -20.2345   18.7599 H   0  0  0  0  0  0
  -30.7861  -18.5106   22.8116 H   0  0  0  0  0  0
  -29.1925  -17.7816   22.7446 H   0  0  0  0  0  0
  -28.7605  -18.2571   19.1605 H   0  0  0  0  0  0
  -30.4516  -17.7993   19.1311 H   0  0  0  0  0  0
  -30.9253  -16.0315   22.8913 H   0  0  0  0  0  0
  -31.8101  -16.7346   21.5665 H   0  0  0  0  0  0
  -29.0118  -15.8353   19.1729 H   0  0  0  0  0  0
  -28.1628  -16.3757   20.6028 H   0  0  0  0  0  0
  -29.3423  -22.2613   24.2434 H   0  0  0  0  0  0
  -28.8340  -23.7564   23.4850 H   0  0  0  0  0  0
  -30.5567  -23.3695   23.6163 H   0  0  0  0  0  0
  -28.6400  -22.9047   16.5073 H   0  0  0  0  0  0
  -28.0707  -21.5369   17.4538 H   0  0  0  0  0  0
  -29.7605  -21.6028   16.8931 H   0  0  0  0  0  0
  -27.3259  -24.8680   20.4137 H   0  0  0  0  0  0
  -28.3255  -24.9656   18.9685 H   0  0  0  0  0  0
  1 25  1  0  0  0
  1 30  2  0  0  0
  1 86  1  0  0  0
  2  3  1  0  0  0
  2 25  1  0  0  0
  2 89  1  0  0  0
  2 90  1  0  0  0
  3  4  1  0  0  0
  3 91  1  0  0  0
  3 92  1  0  0  0
  4  5  1  0  0  0
  4 93  1  0  0  0
  4 94  1  0  0  0
  5  6  1  0  0  0
  5 26  1  0  0  0
  5 95  1  0  0  0
  6 25  1  0  0  0
  6 96  1  0  0  0
  6 97  1  0  0  0
  7  8  2  0  0  0
  7 26  1  0  0  0
  7 29  1  0  0  0
  8  9  1  0  0  0
  8 22  1  0  0  0
  9 10  1  0  0  0
  9 27  2  0  0  0
 10 11  2  0  0  0
 10 15  1  0  0  0
 11 12  1  0  0  0
 11 98  1  0  0  0
 12 13  2  0  0  0
 12 99  1  0  0  0
 13 14  1  0  0  0
 13 31  1  0  0  0
 14 15  2  0  0  0
 14100  1  0  0  0
 15101  1  0  0  0
 16 17  2  0  0  0
 16 21  1  0  0  0
 16 31  1  0  0  0
 17 18  1  0  0  0
 17102  1  0  0  0
 18 19  2  0  0  0
 18103  1  0  0  0
 19 20  1  0  0  0
 19 24  1  0  0  0
 20 21  2  0  0  0
 20104  1  0  0  0
 21 23  1  0  0  0
 22 28  1  0  0  0
 22 32  2  0  0  0
 26 27  1  0  0  0
 28105  1  0  0  0
 28106  1  0  0  0
 29107  1  0  0  0
 29108  1  0  0  0
 33 34  1  0  0  0
 33 66  1  0  0  0
 33 70  2  0  0  0
 34 36  1  0  0  0
 34 59  1  0  0  0
 34109  1  0  0  0
 35 44  2  0  0  0
 35 45  1  0  0  0
 35 68  1  0  0  0
 36 56  1  0  0  0
 36110  1  0  0  0
 37 39  1  0  0  0
 37 47  1  0  0  0
 37 66  1  0  0  0
 37111  1  0  0  0
 38 43  2  0  0  0
 38 46  1  0  0  0
 38 47  1  0  0  0
 39 64  1  0  0  0
 39 67  2  0  0  0
 40 52  1  0  0  0
 40 53  2  0  0  0
 40 58  1  0  0  0
 41112  1  0  0  0
 41113  1  0  0  0
 41114  1  0  0  0
 41 48  1  0  0  0
 42 43  1  0  0  0
 42 66  1  0  0  0
 42115  1  0  0  0
 42116  1  0  0  0
 43 44  1  0  0  0
 44117  1  0  0  0
 45 46  2  0  0  0
 45118  1  0  0  0
 46119  1  0  0  0
 47120  1  0  0  0
 47121  1  0  0  0
 48 56  1  0  0  0
 48 65  1  0  0  0
 48122  1  0  0  0
 49 50  1  0  0  0
 49 53  1  0  0  0
 49 64  1  0  0  0
 49123  1  0  0  0
 50 51  1  0  0  0
 50124  1  0  0  0
 50125  1  0  0  0
 51 52  1  0  0  0
 51126  1  0  0  0
 51127  1  0  0  0
 52128  1  0  0  0
 52129  1  0  0  0
 53 54  1  0  0  0
 54 55  2  0  0  0
 54130  1  0  0  0
 55 57  1  0  0  0
 55131  1  0  0  0
 56 69  2  0  0  0
 57 58  2  0  0  0
 57132  1  0  0  0
 58133  1  0  0  0
 59 60  1  0  0  0
 59 61  1  0  0  0
 59 62  1  0  0  0
 60134  1  0  0  0
 60135  1  0  0  0
 60136  1  0  0  0
 61137  1  0  0  0
 61138  1  0  0  0
 61139  1  0  0  0
 62140  1  0  0  0
 62141  1  0  0  0
 62142  1  0  0  0
 63 65  1  0  0  0
 63143  1  0  0  0
 63144  1  0  0  0
 63145  1  0  0  0
 64146  1  0  0  0
 65147  1  0  0  0
 68 84  1  0  0  0
 71 74  2  0  0  0
 71 75  1  0  0  0
 71148  1  0  0  0
 72 75  2  0  0  0
 72 76  1  0  0  0
 72149  1  0  0  0
 73 74  1  0  0  0
 73 76  2  0  0  0
 73 77  1  0  0  0
 74 82  1  0  0  0
 75 85  1  0  0  0
 76 88  1  0  0  0
 77 84  1  0  0  0
 77 87  2  0  0  0
 78 80  1  0  0  0
 78 85  1  0  0  0
 78150  1  0  0  0
 78151  1  0  0  0
 79 81  1  0  0  0
 79 85  1  0  0  0
 79152  1  0  0  0
 79153  1  0  0  0
 80 86  1  0  0  0
 80154  1  0  0  0
 80155  1  0  0  0
 81 86  1  0  0  0
 81156  1  0  0  0
 81157  1  0  0  0
 82158  1  0  0  0
 82159  1  0  0  0
 82160  1  0  0  0
 83 88  1  0  0  0
 83161  1  0  0  0
 83162  1  0  0  0
 83163  1  0  0  0
 84164  1  0  0  0
 84165  1  0  0  0
M  ISO  4   1 100  68 101  84 101  86 100
M  END
> <chiral flag>
0

> <version>
0

> <s_m_source_file>
/data/baiqing/PycharmProjects/Reinvent-master-3.2/result/LINK_invent/BTK/process_docking_weight1_custom_sum_contain_oxygen_bond_distance_aromatic_linkinvent_7_9_3/rearranged_h_0165.sdf

> <i_m_source_file_index>
70

> <r_mmod_Potential_Energy-OPLS-2005>
292.088562011719

> <r_mmod_Stretch_Energy-OPLS-2005>
54.9392356872559

> <r_mmod_Bend_Energy-OPLS-2005>
130.348526000977

> <r_mmod_Torsional_Energy-OPLS-2005>
378.394073486328

> <r_mmod_Improper_Torsional_Energy-OPLS-2005>
5.52010917663574

> <r_mmod_Van_der_Waal_Energy-OPLS-2005>
181.521911621094

> <r_mmod_Electrostatic_Energy-OPLS-2005>
-248.430358886719

> <r_mmod_Solvation_Energy-OPLS-2005>
-235.089614868164

> <b_mmod_Minimization_Converged-OPLS-2005>
0

> <r_mmod_RMS_Derivative-OPLS-2005>
2.01606583595276

$$$$
71
                    3D
 Structure written by MMmdl.
153162  0  0  1  0            999 V2000
  -30.6937  -14.5926   20.5178 C   0  0  0  0  0  0
  -30.4181  -12.3739   19.4454 C   0  0  0  0  0  0
  -29.4949  -12.4973   18.2165 C   0  0  0  0  0  0
  -28.0193  -12.3470   18.6324 C   0  0  0  0  0  0
  -27.6483  -13.2246   19.8585 C   0  0  2  0  0  0
  -28.6949  -13.1019   20.9880 C   0  0  0  0  0  0
  -25.2534  -13.8195   20.5696 C   0  0  0  0  0  0
  -24.1813  -13.0445   20.9198 C   0  0  0  0  0  0
  -24.6395  -11.6922   20.8746 C   0  0  0  0  0  0
  -23.9070  -10.4298   21.0407 C   0  0  0  0  0  0
  -24.3622   -9.4211   21.9184 C   0  0  0  0  0  0
  -23.6295   -8.2246   22.0753 C   0  0  0  0  0  0
  -22.4276   -8.0284   21.3544 C   0  0  0  0  0  0
  -21.9915   -9.0259   20.4644 C   0  0  0  0  0  0
  -22.7245  -10.2137   20.3053 C   0  0  0  0  0  0
  -21.6853   -6.0738   22.5277 C   0  0  0  0  0  0
  -21.4015   -6.5640   23.8212 C   0  0  0  0  0  0
  -21.3658   -5.6793   24.9173 C   0  0  0  0  0  0
  -21.6041   -4.3057   24.7222 C   0  0  0  0  0  0
  -21.8820   -3.8147   23.4344 C   0  0  0  0  0  0
  -21.9193   -4.6964   22.3399 C   0  0  0  0  0  0
  -22.7833  -13.5227   21.1860 C   0  0  0  0  0  0
  -22.1662   -4.2151   21.0976 F   0  0  0  0  0  0
  -21.5628   -3.4540   25.7735 F   0  0  0  0  0  0
  -30.0095  -13.4129   20.4113 N   0  0  0  0  0  0
  -26.2968  -12.9395   20.3324 N   0  0  0  0  0  0
  -25.9325  -11.6541   20.5767 N   0  0  0  0  0  0
  -22.0481  -12.8208   22.0411 N   0  0  0  0  0  0
  -25.4232  -15.1918   20.4118 N   0  0  0  0  0  0
  -31.8621  -14.6847   20.1366 O   0  0  0  0  0  0
  -21.6639   -6.8880   21.4239 O   0  0  0  0  0  0
  -22.3516  -14.5532   20.6711 O   0  0  0  0  0  0
  -24.6251  -31.8621   23.2065 C   0  0  0  0  0  0
  -25.9113  -32.4784   23.8375 C   0  0  1  0  0  0
  -27.2153  -27.3353   20.1034 C   0  0  0  0  0  0
  -25.5946  -33.8585   24.2303 N   0  0  0  0  0  0
  -23.4161  -30.4895   21.5491 C   0  0  2  0  0  0
  -24.8600  -28.9552   20.1082 C   0  0  0  0  0  0
  -22.7467  -29.4636   22.4941 C   0  0  0  0  0  0
  -18.0284  -28.1380   22.8479 C   0  0  0  0  0  0
  -24.1490  -36.7287   23.2635 C   0  0  0  0  0  0
  -25.9583  -30.7961   21.3783 C   0  0  0  0  0  0
  -26.0297  -29.4271   20.7166 C   0  0  0  0  0  0
  -27.2100  -28.6275   20.7101 C   0  0  0  0  0  0
  -26.0217  -26.9237   19.4608 C   0  0  0  0  0  0
  -24.8571  -27.7070   19.4729 C   0  0  0  0  0  0
  -23.6286  -29.8328   20.1614 C   0  0  0  0  0  0
  -25.4113  -36.3083   24.0333 C   0  0  1  0  0  0
  -20.5884  -28.3682   23.1283 C   0  0  2  0  0  0
  -20.6778  -26.9409   22.5404 C   0  0  0  0  0  0
  -19.5755  -26.6388   21.5203 C   0  0  0  0  0  0
  -18.1932  -26.7921   22.1617 C   0  0  0  0  0  0
  -19.1537  -28.8848   23.2873 C   0  0  0  0  0  0
  -18.9464  -30.1448   23.8893 C   0  0  0  0  0  0
  -17.6469  -30.6583   24.0562 C   0  0  0  0  0  0
  -25.9053  -34.9454   23.5112 C   0  0  0  0  0  0
  -16.5358  -29.9083   23.6332 C   0  0  0  0  0  0
  -16.7272  -28.6501   23.0348 C   0  0  0  0  0  0
  -26.4496  -31.6579   25.0734 C   0  0  0  0  0  0
  -25.3729  -31.3745   26.1469 C   0  0  0  0  0  0
  -27.0309  -30.2990   24.6181 C   0  0  0  0  0  0
  -27.6081  -32.4287   25.7493 C   0  0  0  0  0  0
  -27.5575  -37.1801   24.8469 C   0  0  0  0  0  0
  -21.4184  -29.3041   22.3685 N   0  0  0  0  0  0
  -26.4291  -37.3777   23.9411 N   0  0  0  0  0  0
  -24.6852  -31.0651   22.1011 N   0  0  0  0  0  0
  -23.4205  -28.8162   23.3000 O   0  0  0  0  0  0
  -28.3257  -26.4782   20.1616 O   0  0  0  0  0  0
  -26.5607  -34.8914   22.4669 O   0  0  0  0  0  0
  -23.5420  -32.1421   23.7404 O   0  0  0  0  0  0
  -29.2836  -19.2088   21.7268 C   0  0  0  0  0  0
  -30.3459  -19.0343   19.5919 C   0  0  0  0  0  0
  -30.0168  -18.4057   20.8148 C   0  0  0  0  0  0
  -28.9413  -20.5541   21.4072 C   0  0  0  0  0  0
  -29.3479  -21.1018   20.1636 C   0  0  0  0  0  0
  -30.1315  -23.4770   19.3226 C   0  0  0  0  0  0
  -29.0039  -22.5180   19.6332 C   0  0  2  0  0  0
  -29.0820  -23.9309   20.3069 C   0  0  2  0  0  0
  -30.6444  -17.0323   21.2304 C   0  0  0  0  0  0
  -28.0649  -25.0463   19.9179 C   0  0  0  0  0  0
  -30.0240  -20.3204   19.2774 N   0  0  0  0  0  0
  -30.0117  -15.7101   20.9114 N   0  0  0  0  0  0
  -28.0418  -21.4977   22.5408 Cl  0  0  0  0  0  0
  -31.4617  -12.4691   19.1407 H   0  0  0  0  0  0
  -30.3299  -11.3844   19.8964 H   0  0  0  0  0  0
  -29.7520  -11.7406   17.4740 H   0  0  0  0  0  0
  -29.6457  -13.4639   17.7335 H   0  0  0  0  0  0
  -27.8503  -11.2951   18.8657 H   0  0  0  0  0  0
  -27.3641  -12.5783   17.7916 H   0  0  0  0  0  0
  -27.6626  -14.2576   19.5107 H   0  0  0  0  0  0
  -28.6982  -12.0933   21.4033 H   0  0  0  0  0  0
  -28.4508  -13.7682   21.8166 H   0  0  0  0  0  0
  -25.2766   -9.5682   22.4759 H   0  0  0  0  0  0
  -24.0003   -7.4635   22.7474 H   0  0  0  0  0  0
  -21.0846   -8.8779   19.8947 H   0  0  0  0  0  0
  -22.3707  -10.9677   19.6160 H   0  0  0  0  0  0
  -21.2010   -7.6150   23.9713 H   0  0  0  0  0  0
  -21.1478   -6.0523   25.9073 H   0  0  0  0  0  0
  -22.0600   -2.7610   23.2841 H   0  0  0  0  0  0
  -22.4105  -11.9868   22.4789 H   0  0  0  0  0  0
  -21.1096  -13.1225   22.2621 H   0  0  0  0  0  0
  -24.6571  -15.8465   20.5261 H   0  0  0  0  0  0
  -26.2739  -15.6333   20.0862 H   0  0  0  0  0  0
  -26.7181  -32.5457   23.1125 H   0  0  0  0  0  0
  -25.0126  -33.9741   25.0469 H   0  0  0  0  0  0
  -22.7083  -31.3096   21.4111 H   0  0  0  0  0  0
  -23.3762  -35.9609   23.3288 H   0  0  0  0  0  0
  -24.3586  -36.8911   22.2049 H   0  0  0  0  0  0
  -23.7230  -37.6483   23.6660 H   0  0  0  0  0  0
  -26.0916  -31.5618   20.6129 H   0  0  0  0  0  0
  -26.8387  -30.8394   22.0076 H   0  0  0  0  0  0
  -28.1038  -28.9809   21.2049 H   0  0  0  0  0  0
  -25.9459  -25.9791   18.9446 H   0  0  0  0  0  0
  -23.9632  -27.3423   18.9856 H   0  0  0  0  0  0
  -23.7453  -30.6138   19.4090 H   0  0  0  0  0  0
  -22.7489  -29.2629   19.8569 H   0  0  0  0  0  0
  -25.1287  -36.1940   25.0827 H   0  0  0  0  0  0
  -20.9967  -28.3256   24.1408 H   0  0  0  0  0  0
  -20.5683  -26.2290   23.3599 H   0  0  0  0  0  0
  -21.6646  -26.7446   22.1195 H   0  0  0  0  0  0
  -19.6922  -25.6304   21.1225 H   0  0  0  0  0  0
  -19.6697  -27.3205   20.6740 H   0  0  0  0  0  0
  -17.4201  -26.6663   21.4020 H   0  0  0  0  0  0
  -18.0336  -26.0057   22.9010 H   0  0  0  0  0  0
  -19.7945  -30.7253   24.2267 H   0  0  0  0  0  0
  -17.5029  -31.6263   24.5163 H   0  0  0  0  0  0
  -15.5361  -30.2986   23.7662 H   0  0  0  0  0  0
  -15.8668  -28.0826   22.7066 H   0  0  0  0  0  0
  -24.5940  -30.7031   25.7836 H   0  0  0  0  0  0
  -24.8876  -32.2915   26.4821 H   0  0  0  0  0  0
  -25.8058  -30.9011   27.0288 H   0  0  0  0  0  0
  -26.2862  -29.6757   24.1213 H   0  0  0  0  0  0
  -27.4001  -29.7233   25.4679 H   0  0  0  0  0  0
  -27.8746  -30.4254   23.9392 H   0  0  0  0  0  0
  -27.2758  -33.3669   26.1951 H   0  0  0  0  0  0
  -28.3962  -32.6687   25.0343 H   0  0  0  0  0  0
  -28.0642  -31.8450   26.5501 H   0  0  0  0  0  0
  -28.2609  -38.0082   24.7496 H   0  0  0  0  0  0
  -28.1054  -36.2614   24.6322 H   0  0  0  0  0  0
  -27.2291  -37.1481   25.8871 H   0  0  0  0  0  0
  -20.9357  -29.8784   21.6916 H   0  0  0  0  0  0
  -26.0174  -38.2854   24.1409 H   0  0  0  0  0  0
  -29.0184  -18.8115   22.6958 H   0  0  0  0  0  0
  -30.9386  -18.5079   18.8582 H   0  0  0  0  0  0
  -30.1364  -23.9317   18.3344 H   0  0  0  0  0  0
  -31.1137  -23.2514   19.7331 H   0  0  0  0  0  0
  -28.2360  -22.4066   18.8703 H   0  0  0  0  0  0
  -29.3623  -23.9356   21.3581 H   0  0  0  0  0  0
  -30.7778  -17.0525   22.3132 H   0  0  0  0  0  0
  -31.6636  -17.0483   20.8400 H   0  0  0  0  0  0
  -27.1460  -24.7704   20.4379 H   0  0  0  0  0  0
  -27.8661  -24.9287   18.8516 H   0  0  0  0  0  0
  -29.0403  -15.5868   21.1538 H   0  0  0  0  0  0
  1 25  1  0  0  0
  1 30  2  0  0  0
  1 82  1  0  0  0
  2  3  1  0  0  0
  2 25  1  0  0  0
  2 84  1  0  0  0
  2 85  1  0  0  0
  3  4  1  0  0  0
  3 86  1  0  0  0
  3 87  1  0  0  0
  4  5  1  0  0  0
  4 88  1  0  0  0
  4 89  1  0  0  0
  5  6  1  0  0  0
  5 26  1  0  0  0
  5 90  1  0  0  0
  6 25  1  0  0  0
  6 91  1  0  0  0
  6 92  1  0  0  0
  7  8  2  0  0  0
  7 26  1  0  0  0
  7 29  1  0  0  0
  8  9  1  0  0  0
  8 22  1  0  0  0
  9 10  1  0  0  0
  9 27  2  0  0  0
 10 11  2  0  0  0
 10 15  1  0  0  0
 11 12  1  0  0  0
 11 93  1  0  0  0
 12 13  2  0  0  0
 12 94  1  0  0  0
 13 14  1  0  0  0
 13 31  1  0  0  0
 14 15  2  0  0  0
 14 95  1  0  0  0
 15 96  1  0  0  0
 16 17  2  0  0  0
 16 21  1  0  0  0
 16 31  1  0  0  0
 17 18  1  0  0  0
 17 97  1  0  0  0
 18 19  2  0  0  0
 18 98  1  0  0  0
 19 20  1  0  0  0
 19 24  1  0  0  0
 20 21  2  0  0  0
 20 99  1  0  0  0
 21 23  1  0  0  0
 22 28  1  0  0  0
 22 32  2  0  0  0
 26 27  1  0  0  0
 28100  1  0  0  0
 28101  1  0  0  0
 29102  1  0  0  0
 29103  1  0  0  0
 33 34  1  0  0  0
 33 66  1  0  0  0
 33 70  2  0  0  0
 34 36  1  0  0  0
 34 59  1  0  0  0
 34104  1  0  0  0
 35 44  2  0  0  0
 35 45  1  0  0  0
 35 68  1  0  0  0
 36 56  1  0  0  0
 36105  1  0  0  0
 37 39  1  0  0  0
 37 47  1  0  0  0
 37 66  1  0  0  0
 37106  1  0  0  0
 38 43  2  0  0  0
 38 46  1  0  0  0
 38 47  1  0  0  0
 39 64  1  0  0  0
 39 67  2  0  0  0
 40 52  1  0  0  0
 40 53  2  0  0  0
 40 58  1  0  0  0
 41107  1  0  0  0
 41108  1  0  0  0
 41109  1  0  0  0
 41 48  1  0  0  0
 42 43  1  0  0  0
 42 66  1  0  0  0
 42110  1  0  0  0
 42111  1  0  0  0
 43 44  1  0  0  0
 44112  1  0  0  0
 45 46  2  0  0  0
 45113  1  0  0  0
 46114  1  0  0  0
 47115  1  0  0  0
 47116  1  0  0  0
 48 56  1  0  0  0
 48 65  1  0  0  0
 48117  1  0  0  0
 49 50  1  0  0  0
 49 53  1  0  0  0
 49 64  1  0  0  0
 49118  1  0  0  0
 50 51  1  0  0  0
 50119  1  0  0  0
 50120  1  0  0  0
 51 52  1  0  0  0
 51121  1  0  0  0
 51122  1  0  0  0
 52123  1  0  0  0
 52124  1  0  0  0
 53 54  1  0  0  0
 54 55  2  0  0  0
 54125  1  0  0  0
 55 57  1  0  0  0
 55126  1  0  0  0
 56 69  2  0  0  0
 57 58  2  0  0  0
 57127  1  0  0  0
 58128  1  0  0  0
 59 60  1  0  0  0
 59 61  1  0  0  0
 59 62  1  0  0  0
 60129  1  0  0  0
 60130  1  0  0  0
 60131  1  0  0  0
 61132  1  0  0  0
 61133  1  0  0  0
 61134  1  0  0  0
 62135  1  0  0  0
 62136  1  0  0  0
 62137  1  0  0  0
 63 65  1  0  0  0
 63138  1  0  0  0
 63139  1  0  0  0
 63140  1  0  0  0
 64141  1  0  0  0
 65142  1  0  0  0
 68 80  1  0  0  0
 71 73  2  0  0  0
 71 74  1  0  0  0
 71143  1  0  0  0
 72 73  1  0  0  0
 72 81  2  0  0  0
 72144  1  0  0  0
 73 79  1  0  0  0
 74 75  2  0  0  0
 74 83  1  0  0  0
 75 81  1  0  0  0
 75 77  1  0  0  0
 76 77  1  0  0  0
 76 78  1  0  0  0
 76145  1  0  0  0
 76146  1  0  0  0
 77 78  1  0  0  0
 77147  1  0  0  0
 78 80  1  0  0  0
 78148  1  0  0  0
 79 82  1  0  0  0
 79149  1  0  0  0
 79150  1  0  0  0
 80151  1  0  0  0
 80152  1  0  0  0
 82153  1  0  0  0
M  ISO  4   1 100  68 101  80 101  82 100
M  END
> <chiral flag>
0

> <version>
0

> <s_m_source_file>
/data/baiqing/PycharmProjects/Reinvent-master-3.2/result/LINK_invent/BTK/process_docking_weight1_custom_sum_contain_oxygen_bond_distance_aromatic_linkinvent_7_9_3/rearranged_h_0165.sdf

> <i_m_source_file_index>
71

> <r_mmod_Potential_Energy-OPLS-2005>
-42.4780921936035

> <r_mmod_Stretch_Energy-OPLS-2005>
67.5453262329102

> <r_mmod_Bend_Energy-OPLS-2005>
134.879165649414

> <r_mmod_Torsional_Energy-OPLS-2005>
235.995559692383

> <r_mmod_Improper_Torsional_Energy-OPLS-2005>
5.06033182144165

> <r_mmod_Van_der_Waal_Energy-OPLS-2005>
149.847015380859

> <r_mmod_Electrostatic_Energy-OPLS-2005>
-457.866607666016

> <r_mmod_Solvation_Energy-OPLS-2005>
-220.194442749023

> <b_mmod_Minimization_Converged-OPLS-2005>
0

> <r_mmod_RMS_Derivative-OPLS-2005>
0.708985030651093

$$$$
72
                    3D
 Structure written by MMmdl.
170179  0  0  1  0            999 V2000
  -30.6895  -14.6570   20.4965 C   0  0  0  0  0  0
  -30.4297  -12.4161   19.4444 C   0  0  0  0  0  0
  -29.4993  -12.4845   18.2162 C   0  0  0  0  0  0
  -28.0304  -12.2856   18.6388 C   0  0  0  0  0  0
  -27.6378  -13.1800   19.8401 C   0  0  2  0  0  0
  -28.6967  -13.1126   20.9716 C   0  0  0  0  0  0
  -25.2498  -13.8038   20.5637 C   0  0  0  0  0  0
  -24.1770  -13.0359   20.9209 C   0  0  0  0  0  0
  -24.6325  -11.6832   20.8791 C   0  0  0  0  0  0
  -23.9002  -10.4242   21.0446 C   0  0  0  0  0  0
  -24.3575   -9.4160   21.9208 C   0  0  0  0  0  0
  -23.6254   -8.2197   22.0762 C   0  0  0  0  0  0
  -22.4235   -8.0254   21.3552 C   0  0  0  0  0  0
  -21.9871   -9.0222   20.4651 C   0  0  0  0  0  0
  -22.7192  -10.2099   20.3070 C   0  0  0  0  0  0
  -21.6831   -6.0709   22.5278 C   0  0  0  0  0  0
  -21.3996   -6.5617   23.8209 C   0  0  0  0  0  0
  -21.3657   -5.6774   24.9172 C   0  0  0  0  0  0
  -21.6053   -4.3041   24.7229 C   0  0  0  0  0  0
  -21.8820   -3.8129   23.4350 C   0  0  0  0  0  0
  -21.9184   -4.6939   22.3402 C   0  0  0  0  0  0
  -22.7803  -13.5208   21.1850 C   0  0  0  0  0  0
  -22.1662   -4.2125   21.0981 F   0  0  0  0  0  0
  -21.5631   -3.4531   25.7747 F   0  0  0  0  0  0
  -29.9975  -13.4719   20.3868 N   0  0  0  0  0  0
  -26.2897  -12.9152   20.3249 N   0  0  0  0  0  0
  -25.9234  -11.6359   20.5780 N   0  0  0  0  0  0
  -22.0414  -12.8252   22.0421 N   0  0  0  0  0  0
  -25.4083  -15.1756   20.3958 N   0  0  0  0  0  0
  -31.8858  -14.6928   20.1924 O   0  0  0  0  0  0
  -21.6612   -6.8848   21.4238 O   0  0  0  0  0  0
  -22.3526  -14.5520   20.6670 O   0  0  0  0  0  0
  -24.6216  -31.8623   23.2034 C   0  0  0  0  0  0
  -25.9084  -32.4787   23.8338 C   0  0  1  0  0  0
  -27.2333  -27.3594   20.1119 C   0  0  0  0  0  0
  -25.5918  -33.8579   24.2286 N   0  0  0  0  0  0
  -23.4126  -30.4834   21.5464 C   0  0  2  0  0  0
  -24.8601  -28.9359   20.1176 C   0  0  0  0  0  0
  -22.7433  -29.4638   22.4971 C   0  0  0  0  0  0
  -18.0276  -28.1362   22.8498 C   0  0  0  0  0  0
  -24.1490  -36.7289   23.2637 C   0  0  0  0  0  0
  -25.9486  -30.8039   21.3685 C   0  0  0  0  0  0
  -26.0251  -29.4317   20.7158 C   0  0  0  0  0  0
  -27.2165  -28.6554   20.7006 C   0  0  0  0  0  0
  -26.0476  -26.8986   19.5052 C   0  0  0  0  0  0
  -24.8701  -27.6716   19.5043 C   0  0  0  0  0  0
  -23.6253  -29.8109   20.1637 C   0  0  0  0  0  0
  -25.4112  -36.3085   24.0338 C   0  0  1  0  0  0
  -20.5868  -28.3664   23.1301 C   0  0  2  0  0  0
  -20.6778  -26.9400   22.5410 C   0  0  0  0  0  0
  -19.5761  -26.6384   21.5203 C   0  0  0  0  0  0
  -18.1935  -26.7913   22.1611 C   0  0  0  0  0  0
  -19.1526  -28.8830   23.2895 C   0  0  0  0  0  0
  -18.9449  -30.1432   23.8912 C   0  0  0  0  0  0
  -17.6454  -30.6579   24.0553 C   0  0  0  0  0  0
  -25.9049  -34.9456   23.5109 C   0  0  0  0  0  0
  -16.5345  -29.9080   23.6322 C   0  0  0  0  0  0
  -16.7264  -28.6482   23.0375 C   0  0  0  0  0  0
  -26.4496  -31.6568   25.0679 C   0  0  0  0  0  0
  -25.3749  -31.3678   26.1411 C   0  0  0  0  0  0
  -27.0336  -30.3008   24.6079 C   0  0  0  0  0  0
  -27.6073  -32.4283   25.7445 C   0  0  0  0  0  0
  -27.5582  -37.1791   24.8464 C   0  0  0  0  0  0
  -21.4158  -29.3025   22.3702 N   0  0  0  0  0  0
  -26.4294  -37.3777   23.9411 N   0  0  0  0  0  0
  -24.6791  -31.0664   22.0961 N   0  0  0  0  0  0
  -23.4176  -28.8207   23.3057 O   0  0  0  0  0  0
  -28.3857  -26.5762   20.0801 O   0  0  0  0  0  0
  -26.5610  -34.8926   22.4669 O   0  0  0  0  0  0
  -23.5398  -32.1398   23.7401 O   0  0  0  0  0  0
  -32.1664  -22.2934   20.1693 C   0  0  0  0  0  0
  -31.1954  -23.2914   19.8934 C   0  0  0  0  0  0
  -31.7408  -21.0436   20.6829 C   0  0  0  0  0  0
  -29.8170  -22.9891   20.0514 C   0  0  0  0  0  0
  -30.3580  -20.8073   20.8414 C   0  0  0  0  0  0
  -28.4811  -17.7199   20.6960 C   0  0  0  0  0  0
  -28.6901  -16.2265   20.4268 C   0  0  0  0  0  0
  -30.7470  -17.1345   21.1090 C   0  0  0  0  0  0
  -29.8625  -18.3396   20.6233 C   0  0  2  0  0  0
  -33.6523  -22.5473   19.9149 C   0  0  0  0  0  0
  -31.6395  -24.6764   19.4224 C   0  0  0  0  0  0
  -32.7651  -19.9733   21.0747 C   0  0  0  0  0  0
  -27.4898  -23.2930   19.0113 C   0  0  0  0  0  0
  -28.3276  -25.1948   20.5806 C   0  0  0  0  0  0
  -28.7197  -24.0208   19.5887 C   0  0  1  0  0  0
  -29.4300  -21.7617   20.5373 N   0  0  0  0  0  0
  -30.0479  -15.8422   20.8275 N   0  0  0  0  0  0
  -29.9161  -19.5909   21.4186 N   0  0  0  0  0  0
  -31.4666  -12.5334   19.1277 H   0  0  0  0  0  0
  -30.3795  -11.4347   19.9198 H   0  0  0  0  0  0
  -29.7860  -11.7266   17.4859 H   0  0  0  0  0  0
  -29.6131  -13.4475   17.7144 H   0  0  0  0  0  0
  -27.9004  -11.2355   18.9032 H   0  0  0  0  0  0
  -27.3675  -12.4706   17.7928 H   0  0  0  0  0  0
  -27.6067  -14.1707   19.4096 H   0  0  0  0  0  0
  -28.7382  -12.1073   21.3934 H   0  0  0  0  0  0
  -28.4466  -13.7619   21.8102 H   0  0  0  0  0  0
  -25.2718   -9.5631   22.4782 H   0  0  0  0  0  0
  -23.9961   -7.4579   22.7477 H   0  0  0  0  0  0
  -21.0798   -8.8733   19.8959 H   0  0  0  0  0  0
  -22.3657  -10.9638   19.6181 H   0  0  0  0  0  0
  -21.1986   -7.6124   23.9706 H   0  0  0  0  0  0
  -21.1480   -6.0505   25.9074 H   0  0  0  0  0  0
  -22.0607   -2.7591   23.2851 H   0  0  0  0  0  0
  -22.4007  -11.9947   22.4885 H   0  0  0  0  0  0
  -21.1025  -13.1299   22.2571 H   0  0  0  0  0  0
  -24.6315  -15.8174   20.5114 H   0  0  0  0  0  0
  -26.2453  -15.6261   20.0505 H   0  0  0  0  0  0
  -26.7135  -32.5486   23.1077 H   0  0  0  0  0  0
  -25.0077  -33.9714   25.0441 H   0  0  0  0  0  0
  -22.7036  -31.3012   21.4022 H   0  0  0  0  0  0
  -23.3759  -35.9614   23.3301 H   0  0  0  0  0  0
  -24.3579  -36.8902   22.2049 H   0  0  0  0  0  0
  -23.7241  -37.6494   23.6651 H   0  0  0  0  0  0
  -26.0718  -31.5703   20.6023 H   0  0  0  0  0  0
  -26.8323  -30.8541   21.9922 H   0  0  0  0  0  0
  -28.1174  -29.0384   21.1588 H   0  0  0  0  0  0
  -26.0286  -25.9398   19.0149 H   0  0  0  0  0  0
  -23.9789  -27.2862   19.0279 H   0  0  0  0  0  0
  -23.7356  -30.5823   19.4015 H   0  0  0  0  0  0
  -22.7486  -29.2314   19.8694 H   0  0  0  0  0  0
  -25.1299  -36.1929   25.0835 H   0  0  0  0  0  0
  -20.9952  -28.3232   24.1422 H   0  0  0  0  0  0
  -20.5673  -26.2271   23.3597 H   0  0  0  0  0  0
  -21.6656  -26.7450   22.1206 H   0  0  0  0  0  0
  -19.6939  -25.6299   21.1227 H   0  0  0  0  0  0
  -19.6710  -27.3194   20.6732 H   0  0  0  0  0  0
  -17.4211  -26.6655   21.4011 H   0  0  0  0  0  0
  -18.0341  -26.0043   22.8991 H   0  0  0  0  0  0
  -19.7930  -30.7235   24.2304 H   0  0  0  0  0  0
  -17.5015  -31.6270   24.5138 H   0  0  0  0  0  0
  -15.5347  -30.2992   23.7641 H   0  0  0  0  0  0
  -15.8657  -28.0794   22.7122 H   0  0  0  0  0  0
  -24.5942  -30.7005   25.7736 H   0  0  0  0  0  0
  -24.8912  -32.2828   26.4835 H   0  0  0  0  0  0
  -25.8089  -30.8857   27.0178 H   0  0  0  0  0  0
  -26.2875  -29.6736   24.1181 H   0  0  0  0  0  0
  -27.4153  -29.7269   25.4533 H   0  0  0  0  0  0
  -27.8696  -30.4315   23.9206 H   0  0  0  0  0  0
  -27.2706  -33.3591   26.2015 H   0  0  0  0  0  0
  -28.3889  -32.6810   25.0271 H   0  0  0  0  0  0
  -28.0724  -31.8393   26.5357 H   0  0  0  0  0  0
  -28.2606  -38.0084   24.7527 H   0  0  0  0  0  0
  -28.1079  -36.2620   24.6286 H   0  0  0  0  0  0
  -27.2297  -37.1437   25.8866 H   0  0  0  0  0  0
  -20.9323  -29.8702   21.6885 H   0  0  0  0  0  0
  -26.0184  -38.2859   24.1405 H   0  0  0  0  0  0
  -28.0671  -17.8349   21.7009 H   0  0  0  0  0  0
  -27.7781  -18.1843   20.0036 H   0  0  0  0  0  0
  -28.5747  -16.0468   19.3567 H   0  0  0  0  0  0
  -27.9381  -15.6822   20.9872 H   0  0  0  0  0  0
  -30.9146  -17.1837   22.1854 H   0  0  0  0  0  0
  -31.7285  -17.1751   20.6343 H   0  0  0  0  0  0
  -30.1002  -18.5570   19.5794 H   0  0  0  0  0  0
  -33.8312  -23.2996   19.1497 H   0  0  0  0  0  0
  -34.1488  -21.6493   19.5492 H   0  0  0  0  0  0
  -34.1511  -22.8631   20.8315 H   0  0  0  0  0  0
  -32.5824  -24.9773   19.8783 H   0  0  0  0  0  0
  -30.9343  -25.4575   19.6996 H   0  0  0  0  0  0
  -31.7560  -24.6889   18.3384 H   0  0  0  0  0  0
  -32.9412  -19.2962   20.2384 H   0  0  0  0  0  0
  -32.4357  -19.3793   21.9261 H   0  0  0  0  0  0
  -33.7214  -20.3975   21.3786 H   0  0  0  0  0  0
  -27.7862  -22.5904   18.2320 H   0  0  0  0  0  0
  -26.7797  -23.9819   18.5630 H   0  0  0  0  0  0
  -26.9662  -22.7255   19.7817 H   0  0  0  0  0  0
  -29.0400  -25.1741   21.4053 H   0  0  0  0  0  0
  -27.3648  -24.9841   21.0477 H   0  0  0  0  0  0
  -29.1417  -24.5150   18.7136 H   0  0  0  0  0  0
  -30.4251  -19.4178   22.2758 H   0  0  0  0  0  0
  1 25  1  0  0  0
  1 30  2  0  0  0
  1 87  1  0  0  0
  2  3  1  0  0  0
  2 25  1  0  0  0
  2 89  1  0  0  0
  2 90  1  0  0  0
  3  4  1  0  0  0
  3 91  1  0  0  0
  3 92  1  0  0  0
  4  5  1  0  0  0
  4 93  1  0  0  0
  4 94  1  0  0  0
  5  6  1  0  0  0
  5 26  1  0  0  0
  5 95  1  0  0  0
  6 25  1  0  0  0
  6 96  1  0  0  0
  6 97  1  0  0  0
  7  8  2  0  0  0
  7 26  1  0  0  0
  7 29  1  0  0  0
  8  9  1  0  0  0
  8 22  1  0  0  0
  9 10  1  0  0  0
  9 27  2  0  0  0
 10 11  2  0  0  0
 10 15  1  0  0  0
 11 12  1  0  0  0
 11 98  1  0  0  0
 12 13  2  0  0  0
 12 99  1  0  0  0
 13 14  1  0  0  0
 13 31  1  0  0  0
 14 15  2  0  0  0
 14100  1  0  0  0
 15101  1  0  0  0
 16 17  2  0  0  0
 16 21  1  0  0  0
 16 31  1  0  0  0
 17 18  1  0  0  0
 17102  1  0  0  0
 18 19  2  0  0  0
 18103  1  0  0  0
 19 20  1  0  0  0
 19 24  1  0  0  0
 20 21  2  0  0  0
 20104  1  0  0  0
 21 23  1  0  0  0
 22 28  1  0  0  0
 22 32  2  0  0  0
 26 27  1  0  0  0
 28105  1  0  0  0
 28106  1  0  0  0
 29107  1  0  0  0
 29108  1  0  0  0
 33 34  1  0  0  0
 33 66  1  0  0  0
 33 70  2  0  0  0
 34 36  1  0  0  0
 34 59  1  0  0  0
 34109  1  0  0  0
 35 44  2  0  0  0
 35 45  1  0  0  0
 35 68  1  0  0  0
 36 56  1  0  0  0
 36110  1  0  0  0
 37 39  1  0  0  0
 37 47  1  0  0  0
 37 66  1  0  0  0
 37111  1  0  0  0
 38 43  2  0  0  0
 38 46  1  0  0  0
 38 47  1  0  0  0
 39 64  1  0  0  0
 39 67  2  0  0  0
 40 52  1  0  0  0
 40 53  2  0  0  0
 40 58  1  0  0  0
 41112  1  0  0  0
 41113  1  0  0  0
 41114  1  0  0  0
 41 48  1  0  0  0
 42 43  1  0  0  0
 42 66  1  0  0  0
 42115  1  0  0  0
 42116  1  0  0  0
 43 44  1  0  0  0
 44117  1  0  0  0
 45 46  2  0  0  0
 45118  1  0  0  0
 46119  1  0  0  0
 47120  1  0  0  0
 47121  1  0  0  0
 48 56  1  0  0  0
 48 65  1  0  0  0
 48122  1  0  0  0
 49 50  1  0  0  0
 49 53  1  0  0  0
 49 64  1  0  0  0
 49123  1  0  0  0
 50 51  1  0  0  0
 50124  1  0  0  0
 50125  1  0  0  0
 51 52  1  0  0  0
 51126  1  0  0  0
 51127  1  0  0  0
 52128  1  0  0  0
 52129  1  0  0  0
 53 54  1  0  0  0
 54 55  2  0  0  0
 54130  1  0  0  0
 55 57  1  0  0  0
 55131  1  0  0  0
 56 69  2  0  0  0
 57 58  2  0  0  0
 57132  1  0  0  0
 58133  1  0  0  0
 59 60  1  0  0  0
 59 61  1  0  0  0
 59 62  1  0  0  0
 60134  1  0  0  0
 60135  1  0  0  0
 60136  1  0  0  0
 61137  1  0  0  0
 61138  1  0  0  0
 61139  1  0  0  0
 62140  1  0  0  0
 62141  1  0  0  0
 62142  1  0  0  0
 63 65  1  0  0  0
 63143  1  0  0  0
 63144  1  0  0  0
 63145  1  0  0  0
 64146  1  0  0  0
 65147  1  0  0  0
 68 84  1  0  0  0
 71 72  2  0  0  0
 71 73  1  0  0  0
 71 80  1  0  0  0
 72 74  1  0  0  0
 72 81  1  0  0  0
 73 75  2  0  0  0
 73 82  1  0  0  0
 74 85  1  0  0  0
 74 86  2  0  0  0
 75 86  1  0  0  0
 75 88  1  0  0  0
 76 77  1  0  0  0
 76 79  1  0  0  0
 76148  1  0  0  0
 76149  1  0  0  0
 77 87  1  0  0  0
 77150  1  0  0  0
 77151  1  0  0  0
 78 79  1  0  0  0
 78 87  1  0  0  0
 78152  1  0  0  0
 78153  1  0  0  0
 79 88  1  0  0  0
 79154  1  0  0  0
 80155  1  0  0  0
 80156  1  0  0  0
 80157  1  0  0  0
 81158  1  0  0  0
 81159  1  0  0  0
 81160  1  0  0  0
 82161  1  0  0  0
 82162  1  0  0  0
 82163  1  0  0  0
 83164  1  0  0  0
 83165  1  0  0  0
 83166  1  0  0  0
 83 85  1  0  0  0
 84 85  1  0  0  0
 84167  1  0  0  0
 84168  1  0  0  0
 85169  1  0  0  0
 88170  1  0  0  0
M  ISO  4   1 100  68 101  84 101  87 100
M  END
> <chiral flag>
0

> <version>
0

> <s_m_source_file>
/data/baiqing/PycharmProjects/Reinvent-master-3.2/result/LINK_invent/BTK/process_docking_weight1_custom_sum_contain_oxygen_bond_distance_aromatic_linkinvent_7_9_3/rearranged_h_0165.sdf

> <i_m_source_file_index>
72

> <r_mmod_Potential_Energy-OPLS-2005>
18.3895950317383

> <r_mmod_Stretch_Energy-OPLS-2005>
72.4563064575195

> <r_mmod_Bend_Energy-OPLS-2005>
167.714828491211

> <r_mmod_Torsional_Energy-OPLS-2005>
364.979766845703

> <r_mmod_Improper_Torsional_Energy-OPLS-2005>
9.79040622711182

> <r_mmod_Van_der_Waal_Energy-OPLS-2005>
162.548294067383

> <r_mmod_Electrostatic_Energy-OPLS-2005>
-571.744750976562

> <r_mmod_Solvation_Energy-OPLS-2005>
-232.954315185547

> <b_mmod_Minimization_Converged-OPLS-2005>
0

> <r_mmod_RMS_Derivative-OPLS-2005>
2.04838871955872

$$$$
73
                    3D
 Structure written by MMmdl.
169179  0  0  1  0            999 V2000
  -30.6503  -14.6783   20.4894 C   0  0  0  0  0  0
  -30.4218  -12.4222   19.4527 C   0  0  0  0  0  0
  -29.4953  -12.5042   18.2217 C   0  0  0  0  0  0
  -28.0211  -12.3337   18.6376 C   0  0  0  0  0  0
  -27.6371  -13.2194   19.8522 C   0  0  2  0  0  0
  -28.6872  -13.1394   20.9816 C   0  0  0  0  0  0
  -25.2491  -13.8160   20.5710 C   0  0  0  0  0  0
  -24.1779  -13.0422   20.9233 C   0  0  0  0  0  0
  -24.6363  -11.6900   20.8771 C   0  0  0  0  0  0
  -23.9042  -10.4285   21.0412 C   0  0  0  0  0  0
  -24.3604   -9.4204   21.9182 C   0  0  0  0  0  0
  -23.6290   -8.2237   22.0745 C   0  0  0  0  0  0
  -22.4275   -8.0271   21.3533 C   0  0  0  0  0  0
  -21.9909   -9.0243   20.4638 C   0  0  0  0  0  0
  -22.7224  -10.2130   20.3053 C   0  0  0  0  0  0
  -21.6856   -6.0737   22.5282 C   0  0  0  0  0  0
  -21.4013   -6.5640   23.8214 C   0  0  0  0  0  0
  -21.3659   -5.6787   24.9176 C   0  0  0  0  0  0
  -21.6045   -4.3051   24.7227 C   0  0  0  0  0  0
  -21.8819   -3.8150   23.4346 C   0  0  0  0  0  0
  -21.9195   -4.6966   22.3406 C   0  0  0  0  0  0
  -22.7802  -13.5213   21.1884 C   0  0  0  0  0  0
  -22.1659   -4.2153   21.0979 F   0  0  0  0  0  0
  -21.5632   -3.4533   25.7737 F   0  0  0  0  0  0
  -29.9916  -13.4760   20.3959 N   0  0  0  0  0  0
  -26.2908  -12.9345   20.3322 N   0  0  0  0  0  0
  -25.9291  -11.6502   20.5792 N   0  0  0  0  0  0
  -22.0447  -12.8199   22.0438 N   0  0  0  0  0  0
  -25.4190  -15.1879   20.4102 N   0  0  0  0  0  0
  -31.8385  -14.7691   20.1692 O   0  0  0  0  0  0
  -21.6636   -6.8874   21.4239 O   0  0  0  0  0  0
  -22.3494  -14.5521   20.6727 O   0  0  0  0  0  0
  -24.6270  -31.8583   23.2015 C   0  0  0  0  0  0
  -25.9111  -32.4772   23.8353 C   0  0  1  0  0  0
  -27.2257  -27.3192   20.1261 C   0  0  0  0  0  0
  -25.5926  -33.8572   24.2289 N   0  0  0  0  0  0
  -23.4212  -30.4802   21.5430 C   0  0  2  0  0  0
  -24.8692  -28.9312   20.1144 C   0  0  0  0  0  0
  -22.7477  -29.4618   22.4935 C   0  0  0  0  0  0
  -18.0287  -28.1383   22.8489 C   0  0  0  0  0  0
  -24.1489  -36.7292   23.2639 C   0  0  0  0  0  0
  -25.9610  -30.7907   21.3701 C   0  0  0  0  0  0
  -26.0374  -29.4167   20.7162 C   0  0  0  0  0  0
  -27.2227  -28.6229   20.7082 C   0  0  0  0  0  0
  -26.0377  -26.8822   19.5031 C   0  0  0  0  0  0
  -24.8708  -27.6690   19.4983 C   0  0  0  0  0  0
  -23.6371  -29.8104   20.1603 C   0  0  0  0  0  0
  -25.4113  -36.3082   24.0331 C   0  0  1  0  0  0
  -20.5886  -28.3688   23.1278 C   0  0  2  0  0  0
  -20.6773  -26.9408   22.5409 C   0  0  0  0  0  0
  -19.5749  -26.6380   21.5209 C   0  0  0  0  0  0
  -18.1927  -26.7929   22.1619 C   0  0  0  0  0  0
  -19.1538  -28.8852   23.2880 C   0  0  0  0  0  0
  -18.9462  -30.1456   23.8894 C   0  0  0  0  0  0
  -17.6463  -30.6584   24.0564 C   0  0  0  0  0  0
  -25.9045  -34.9448   23.5108 C   0  0  0  0  0  0
  -16.5353  -29.9083   23.6330 C   0  0  0  0  0  0
  -16.7274  -28.6500   23.0351 C   0  0  0  0  0  0
  -26.4501  -31.6580   25.0720 C   0  0  0  0  0  0
  -25.3748  -31.3702   26.1454 C   0  0  0  0  0  0
  -27.0342  -30.3009   24.6157 C   0  0  0  0  0  0
  -27.6065  -32.4307   25.7489 C   0  0  0  0  0  0
  -27.5584  -37.1797   24.8463 C   0  0  0  0  0  0
  -21.4187  -29.3045   22.3678 N   0  0  0  0  0  0
  -26.4290  -37.3780   23.9414 N   0  0  0  0  0  0
  -24.6883  -31.0599   22.0959 N   0  0  0  0  0  0
  -23.4191  -28.8153   23.3018 O   0  0  0  0  0  0
  -28.3382  -26.4680   20.1401 O   0  0  0  0  0  0
  -26.5610  -34.8916   22.4674 O   0  0  0  0  0  0
  -23.5431  -32.1382   23.7339 O   0  0  0  0  0  0
  -28.0844  -23.7170   18.3939 C   0  0  0  0  0  0
  -28.4668  -23.8714   19.7248 C   0  0  0  0  0  0
  -29.1209  -22.7924   20.3713 C   0  0  0  0  0  0
  -29.4429  -21.5442   19.6840 C   0  0  0  0  0  0
  -29.0302  -21.5613   18.3075 C   0  0  0  0  0  0
  -29.3946  -23.2424   21.7989 C   0  0  0  0  0  0
  -29.0236  -24.7583   21.8480 C   0  0  0  0  0  0
  -30.3411  -16.7156   21.9347 C   0  0  0  0  0  0
  -29.0306  -16.5558   19.9254 C   0  0  0  0  0  0
  -30.7941  -18.1580   21.5176 C   0  0  0  0  0  0
  -29.4098  -18.0470   19.5512 C   0  0  0  0  0  0
  -28.1364  -25.0808   20.6283 C   0  0  1  0  0  0
  -29.3322  -20.4619   17.2969 C   0  0  0  0  0  0
  -31.4328  -20.9165   21.2177 C   0  0  0  0  0  0
  -30.3786  -20.3542   20.2368 C   0  0  1  0  0  0
  -28.3617  -22.5854   17.7158 N   0  0  0  0  0  0
  -29.9401  -15.8164   20.8358 N   0  0  0  0  0  0
  -29.8389  -18.9565   20.6661 N   0  3  0  0  0  0
  -31.4629  -12.5372   19.1464 H   0  0  0  0  0  0
  -30.3544  -11.4404   19.9242 H   0  0  0  0  0  0
  -29.7675  -11.7418   17.4909 H   0  0  0  0  0  0
  -29.6277  -13.4653   17.7231 H   0  0  0  0  0  0
  -27.8655  -11.2825   18.8819 H   0  0  0  0  0  0
  -27.3636  -12.5473   17.7930 H   0  0  0  0  0  0
  -27.6243  -14.2395   19.4791 H   0  0  0  0  0  0
  -28.7135  -12.1391   21.4167 H   0  0  0  0  0  0
  -28.4300  -13.8203   21.7947 H   0  0  0  0  0  0
  -25.2749   -9.5687   22.4755 H   0  0  0  0  0  0
  -24.0010   -7.4626   22.7456 H   0  0  0  0  0  0
  -21.0849   -8.8749   19.8939 H   0  0  0  0  0  0
  -22.3674  -10.9664   19.6163 H   0  0  0  0  0  0
  -21.1999   -7.6146   23.9725 H   0  0  0  0  0  0
  -21.1477   -6.0512   25.9076 H   0  0  0  0  0  0
  -22.0602   -2.7613   23.2848 H   0  0  0  0  0  0
  -22.4067  -11.9857   22.4816 H   0  0  0  0  0  0
  -21.1058  -13.1209   22.2631 H   0  0  0  0  0  0
  -24.6530  -15.8435   20.5169 H   0  0  0  0  0  0
  -26.2652  -15.6216   20.0688 H   0  0  0  0  0  0
  -26.7179  -32.5443   23.1106 H   0  0  0  0  0  0
  -25.0102  -33.9724   25.0454 H   0  0  0  0  0  0
  -22.7163  -31.3006   21.3965 H   0  0  0  0  0  0
  -23.3757  -35.9615   23.3281 H   0  0  0  0  0  0
  -24.3591  -36.8935   22.2057 H   0  0  0  0  0  0
  -23.7226  -37.6482   23.6674 H   0  0  0  0  0  0
  -26.0882  -31.5517   20.5987 H   0  0  0  0  0  0
  -26.8434  -30.8450   21.9970 H   0  0  0  0  0  0
  -28.1225  -28.9906   21.1813 H   0  0  0  0  0  0
  -26.0031  -25.9135   19.0270 H   0  0  0  0  0  0
  -23.9750  -27.2905   19.0248 H   0  0  0  0  0  0
  -23.7571  -30.5835   19.4005 H   0  0  0  0  0  0
  -22.7586  -29.2375   19.8586 H   0  0  0  0  0  0
  -25.1291  -36.1936   25.0823 H   0  0  0  0  0  0
  -20.9982  -28.3262   24.1398 H   0  0  0  0  0  0
  -20.5666  -26.2298   23.3611 H   0  0  0  0  0  0
  -21.6641  -26.7429   22.1209 H   0  0  0  0  0  0
  -19.6905  -25.6290   21.1243 H   0  0  0  0  0  0
  -19.6687  -27.3188   20.6737 H   0  0  0  0  0  0
  -17.4199  -26.6687   21.4019 H   0  0  0  0  0  0
  -18.0321  -26.0066   22.9009 H   0  0  0  0  0  0
  -19.7934  -30.7275   24.2263 H   0  0  0  0  0  0
  -17.5011  -31.6265   24.5162 H   0  0  0  0  0  0
  -15.5354  -30.2981   23.7653 H   0  0  0  0  0  0
  -15.8678  -28.0817   22.7071 H   0  0  0  0  0  0
  -24.5922  -30.7046   25.7787 H   0  0  0  0  0  0
  -24.8935  -32.2856   26.4906 H   0  0  0  0  0  0
  -25.8087  -30.8865   27.0216 H   0  0  0  0  0  0
  -26.2903  -29.6750   24.1207 H   0  0  0  0  0  0
  -27.4080  -29.7270   25.4648 H   0  0  0  0  0  0
  -27.8758  -30.4308   23.9350 H   0  0  0  0  0  0
  -27.2690  -33.3614   26.2067 H   0  0  0  0  0  0
  -28.3881  -32.6852   25.0318 H   0  0  0  0  0  0
  -28.0727  -31.8425   26.5410 H   0  0  0  0  0  0
  -28.2582  -38.0113   24.7534 H   0  0  0  0  0  0
  -28.1100  -36.2644   24.6258 H   0  0  0  0  0  0
  -27.2305  -37.1409   25.8866 H   0  0  0  0  0  0
  -20.9366  -29.8783   21.6904 H   0  0  0  0  0  0
  -26.0169  -38.2851   24.1426 H   0  0  0  0  0  0
  -27.5493  -24.4935   17.8663 H   0  0  0  0  0  0
  -30.4337  -23.1410   22.0990 H   0  0  0  0  0  0
  -28.7739  -22.6654   22.4851 H   0  0  0  0  0  0
  -29.9506  -25.3214   21.7358 H   0  0  0  0  0  0
  -28.5840  -25.0688   22.7963 H   0  0  0  0  0  0
  -29.4945  -16.7941   22.6187 H   0  0  0  0  0  0
  -31.1391  -16.2526   22.5180 H   0  0  0  0  0  0
  -28.9111  -15.9992   18.9943 H   0  0  0  0  0  0
  -28.0493  -16.5597   20.4003 H   0  0  0  0  0  0
  -31.7434  -18.0700   20.9874 H   0  0  0  0  0  0
  -31.0007  -18.6986   22.4419 H   0  0  0  0  0  0
  -28.5439  -18.4949   19.0700 H   0  0  0  0  0  0
  -30.2064  -18.0091   18.8076 H   0  0  0  0  0  0
  -27.1002  -24.9390   20.9414 H   0  0  0  0  0  0
  -30.2854  -19.9630   17.4467 H   0  0  0  0  0  0
  -29.3809  -20.8763   16.2891 H   0  0  0  0  0  0
  -28.5328  -19.7239   17.2807 H   0  0  0  0  0  0
  -31.8313  -21.8644   20.8562 H   0  0  0  0  0  0
  -32.3053  -20.2722   21.3153 H   0  0  0  0  0  0
  -31.0238  -21.0606   22.2167 H   0  0  0  0  0  0
  -31.0241  -20.1179   19.3947 H   0  0  0  0  0  0
  -29.0285  -19.1276   21.2434 H   0  0  0  0  0  0
  1 25  1  0  0  0
  1 30  2  0  0  0
  1 87  1  0  0  0
  2  3  1  0  0  0
  2 25  1  0  0  0
  2 89  1  0  0  0
  2 90  1  0  0  0
  3  4  1  0  0  0
  3 91  1  0  0  0
  3 92  1  0  0  0
  4  5  1  0  0  0
  4 93  1  0  0  0
  4 94  1  0  0  0
  5  6  1  0  0  0
  5 26  1  0  0  0
  5 95  1  0  0  0
  6 25  1  0  0  0
  6 96  1  0  0  0
  6 97  1  0  0  0
  7  8  2  0  0  0
  7 26  1  0  0  0
  7 29  1  0  0  0
  8  9  1  0  0  0
  8 22  1  0  0  0
  9 10  1  0  0  0
  9 27  2  0  0  0
 10 11  2  0  0  0
 10 15  1  0  0  0
 11 12  1  0  0  0
 11 98  1  0  0  0
 12 13  2  0  0  0
 12 99  1  0  0  0
 13 14  1  0  0  0
 13 31  1  0  0  0
 14 15  2  0  0  0
 14100  1  0  0  0
 15101  1  0  0  0
 16 17  2  0  0  0
 16 21  1  0  0  0
 16 31  1  0  0  0
 17 18  1  0  0  0
 17102  1  0  0  0
 18 19  2  0  0  0
 18103  1  0  0  0
 19 20  1  0  0  0
 19 24  1  0  0  0
 20 21  2  0  0  0
 20104  1  0  0  0
 21 23  1  0  0  0
 22 28  1  0  0  0
 22 32  2  0  0  0
 26 27  1  0  0  0
 28105  1  0  0  0
 28106  1  0  0  0
 29107  1  0  0  0
 29108  1  0  0  0
 33 34  1  0  0  0
 33 66  1  0  0  0
 33 70  2  0  0  0
 34 36  1  0  0  0
 34 59  1  0  0  0
 34109  1  0  0  0
 35 44  2  0  0  0
 35 45  1  0  0  0
 35 68  1  0  0  0
 36 56  1  0  0  0
 36110  1  0  0  0
 37 39  1  0  0  0
 37 47  1  0  0  0
 37 66  1  0  0  0
 37111  1  0  0  0
 38 43  2  0  0  0
 38 46  1  0  0  0
 38 47  1  0  0  0
 39 64  1  0  0  0
 39 67  2  0  0  0
 40 52  1  0  0  0
 40 53  2  0  0  0
 40 58  1  0  0  0
 41112  1  0  0  0
 41113  1  0  0  0
 41114  1  0  0  0
 41 48  1  0  0  0
 42 43  1  0  0  0
 42 66  1  0  0  0
 42115  1  0  0  0
 42116  1  0  0  0
 43 44  1  0  0  0
 44117  1  0  0  0
 45 46  2  0  0  0
 45118  1  0  0  0
 46119  1  0  0  0
 47120  1  0  0  0
 47121  1  0  0  0
 48 56  1  0  0  0
 48 65  1  0  0  0
 48122  1  0  0  0
 49 50  1  0  0  0
 49 53  1  0  0  0
 49 64  1  0  0  0
 49123  1  0  0  0
 50 51  1  0  0  0
 50124  1  0  0  0
 50125  1  0  0  0
 51 52  1  0  0  0
 51126  1  0  0  0
 51127  1  0  0  0
 52128  1  0  0  0
 52129  1  0  0  0
 53 54  1  0  0  0
 54 55  2  0  0  0
 54130  1  0  0  0
 55 57  1  0  0  0
 55131  1  0  0  0
 56 69  2  0  0  0
 57 58  2  0  0  0
 57132  1  0  0  0
 58133  1  0  0  0
 59 60  1  0  0  0
 59 61  1  0  0  0
 59 62  1  0  0  0
 60134  1  0  0  0
 60135  1  0  0  0
 60136  1  0  0  0
 61137  1  0  0  0
 61138  1  0  0  0
 61139  1  0  0  0
 62140  1  0  0  0
 62141  1  0  0  0
 62142  1  0  0  0
 63 65  1  0  0  0
 63143  1  0  0  0
 63144  1  0  0  0
 63145  1  0  0  0
 64146  1  0  0  0
 65147  1  0  0  0
 68 82  1  0  0  0
 71 72  2  0  0  0
 71 86  1  0  0  0
 71148  1  0  0  0
 72 73  1  0  0  0
 72 82  1  0  0  0
 73 74  2  0  0  0
 73 76  1  0  0  0
 74 75  1  0  0  0
 74 85  1  0  0  0
 75 83  1  0  0  0
 75 86  2  0  0  0
 76 77  1  0  0  0
 76149  1  0  0  0
 76150  1  0  0  0
 77 82  1  0  0  0
 77151  1  0  0  0
 77152  1  0  0  0
 78 80  1  0  0  0
 78 87  1  0  0  0
 78153  1  0  0  0
 78154  1  0  0  0
 79 81  1  0  0  0
 79 87  1  0  0  0
 79155  1  0  0  0
 79156  1  0  0  0
 80157  1  0  0  0
 80158  1  0  0  0
 80 88  1  0  0  0
 81 88  1  0  0  0
 81159  1  0  0  0
 81160  1  0  0  0
 82161  1  0  0  0
 83162  1  0  0  0
 83163  1  0  0  0
 83164  1  0  0  0
 84165  1  0  0  0
 84166  1  0  0  0
 84167  1  0  0  0
 84 85  1  0  0  0
 85 88  1  0  0  0
 85168  1  0  0  0
 88169  1  0  0  0
M  CHG  1  88   1
M  ISO  4   1 100  68 101  82 101  87 100
M  END
> <chiral flag>
0

> <version>
0

> <s_m_source_file>
/data/baiqing/PycharmProjects/Reinvent-master-3.2/result/LINK_invent/BTK/process_docking_weight1_custom_sum_contain_oxygen_bond_distance_aromatic_linkinvent_7_9_3/rearranged_h_0165.sdf

> <i_m_source_file_index>
73

> <r_mmod_Potential_Energy-OPLS-2005>
215.722106933594

> <r_mmod_Stretch_Energy-OPLS-2005>
101.648918151855

> <r_mmod_Bend_Energy-OPLS-2005>
229.536163330078

> <r_mmod_Torsional_Energy-OPLS-2005>
427.171905517578

> <r_mmod_Improper_Torsional_Energy-OPLS-2005>
5.51797914505005

> <r_mmod_Van_der_Waal_Energy-OPLS-2005>
152.441925048828

> <r_mmod_Electrostatic_Energy-OPLS-2005>
-309.948059082031

> <r_mmod_Solvation_Energy-OPLS-2005>
-447.8583984375

> <b_mmod_Minimization_Converged-OPLS-2005>
0

> <r_mmod_RMS_Derivative-OPLS-2005>
1.30821180343628

$$$$
74
                    3D
 Structure written by MMmdl.
167176  0  0  1  0            999 V2000
  -30.6326  -14.6829   20.4871 C   0  0  0  0  0  0
  -30.4384  -12.4298   19.4533 C   0  0  0  0  0  0
  -29.5059  -12.4966   18.2246 C   0  0  0  0  0  0
  -28.0308  -12.3360   18.6410 C   0  0  0  0  0  0
  -27.6463  -13.2266   19.8524 C   0  0  2  0  0  0
  -28.6934  -13.1290   20.9838 C   0  0  0  0  0  0
  -25.2527  -13.8192   20.5661 C   0  0  0  0  0  0
  -24.1817  -13.0435   20.9200 C   0  0  0  0  0  0
  -24.6414  -11.6917   20.8761 C   0  0  0  0  0  0
  -23.9093  -10.4287   21.0417 C   0  0  0  0  0  0
  -24.3630   -9.4196   21.9195 C   0  0  0  0  0  0
  -23.6292   -8.2240   22.0765 C   0  0  0  0  0  0
  -22.4277   -8.0282   21.3550 C   0  0  0  0  0  0
  -21.9923   -9.0262   20.4656 C   0  0  0  0  0  0
  -22.7267  -10.2136   20.3065 C   0  0  0  0  0  0
  -21.6855   -6.0735   22.5275 C   0  0  0  0  0  0
  -21.4022   -6.5639   23.8206 C   0  0  0  0  0  0
  -21.3656   -5.6793   24.9168 C   0  0  0  0  0  0
  -21.6042   -4.3054   24.7221 C   0  0  0  0  0  0
  -21.8822   -3.8146   23.4340 C   0  0  0  0  0  0
  -21.9191   -4.6965   22.3394 C   0  0  0  0  0  0
  -22.7838  -13.5223   21.1844 C   0  0  0  0  0  0
  -22.1658   -4.2140   21.0977 F   0  0  0  0  0  0
  -21.5621   -3.4539   25.7737 F   0  0  0  0  0  0
  -29.9988  -13.4707   20.4057 N   0  0  0  0  0  0
  -26.2957  -12.9394   20.3282 N   0  0  0  0  0  0
  -25.9342  -11.6544   20.5772 N   0  0  0  0  0  0
  -22.0485  -12.8208   22.0402 N   0  0  0  0  0  0
  -25.4188  -15.1913   20.4013 N   0  0  0  0  0  0
  -31.8154  -14.8022   20.1523 O   0  0  0  0  0  0
  -21.6641   -6.8879   21.4237 O   0  0  0  0  0  0
  -22.3525  -14.5524   20.6691 O   0  0  0  0  0  0
  -24.6262  -31.8594   23.2014 C   0  0  0  0  0  0
  -25.9106  -32.4797   23.8348 C   0  0  1  0  0  0
  -27.2349  -27.3255   20.1201 C   0  0  0  0  0  0
  -25.5925  -33.8590   24.2277 N   0  0  0  0  0  0
  -23.4217  -30.4784   21.5460 C   0  0  2  0  0  0
  -24.8732  -28.9286   20.1165 C   0  0  0  0  0  0
  -22.7489  -29.4596   22.4964 C   0  0  0  0  0  0
  -18.0283  -28.1378   22.8488 C   0  0  0  0  0  0
  -24.1493  -36.7292   23.2639 C   0  0  0  0  0  0
  -25.9604  -30.7919   21.3716 C   0  0  0  0  0  0
  -26.0398  -29.4150   20.7207 C   0  0  0  0  0  0
  -27.2278  -28.6237   20.7168 C   0  0  0  0  0  0
  -26.0519  -26.8866   19.4954 C   0  0  0  0  0  0
  -24.8779  -27.6661   19.4987 C   0  0  0  0  0  0
  -23.6380  -29.8070   20.1641 C   0  0  0  0  0  0
  -25.4115  -36.3086   24.0325 C   0  0  1  0  0  0
  -20.5881  -28.3676   23.1311 C   0  0  2  0  0  0
  -20.6773  -26.9402   22.5418 C   0  0  0  0  0  0
  -19.5743  -26.6379   21.5228 C   0  0  0  0  0  0
  -18.1916  -26.7931   22.1627 C   0  0  0  0  0  0
  -19.1536  -28.8842   23.2887 C   0  0  0  0  0  0
  -18.9457  -30.1450   23.8897 C   0  0  0  0  0  0
  -17.6456  -30.6585   24.0562 C   0  0  0  0  0  0
  -25.9051  -34.9463   23.5099 C   0  0  0  0  0  0
  -16.5347  -29.9073   23.6342 C   0  0  0  0  0  0
  -16.7269  -28.6491   23.0354 C   0  0  0  0  0  0
  -26.4485  -31.6613   25.0725 C   0  0  0  0  0  0
  -25.3702  -31.3738   26.1444 C   0  0  0  0  0  0
  -27.0350  -30.3053   24.6165 C   0  0  0  0  0  0
  -27.6045  -32.4364   25.7487 C   0  0  0  0  0  0
  -27.5588  -37.1789   24.8460 C   0  0  0  0  0  0
  -21.4201  -29.3029   22.3716 N   0  0  0  0  0  0
  -26.4295  -37.3781   23.9410 N   0  0  0  0  0  0
  -24.6883  -31.0599   22.0969 N   0  0  0  0  0  0
  -23.4212  -28.8138   23.3045 O   0  0  0  0  0  0
  -28.3381  -26.4664   20.0915 O   0  0  0  0  0  0
  -26.5620  -34.8925   22.4671 O   0  0  0  0  0  0
  -23.5425  -32.1397   23.7333 O   0  0  0  0  0  0
  -27.4817  -22.8311   20.6027 C   0  0  0  0  0  0
  -28.5174  -23.8162   20.5511 C   0  0  0  0  0  0
  -27.7889  -21.4259   20.4572 C   0  0  0  0  0  0
  -29.7998  -23.2893   20.2403 C   0  0  0  0  0  0
  -29.1299  -20.9956   20.2475 C   0  0  0  0  0  0
  -29.1484  -18.3976   20.8660 C   0  0  0  0  0  0
  -30.8086  -19.3028   19.4232 C   0  0  0  0  0  0
  -30.2750  -17.2777   20.7121 C   0  0  2  0  0  0
  -30.9488  -17.7605   19.4129 C   0  0  2  0  0  0
  -26.0381  -23.2740   20.8121 C   0  0  0  0  0  0
  -26.6793  -20.3744   20.4789 C   0  0  0  0  0  0
  -30.9847  -24.2172   20.0439 C   0  0  0  0  0  0
  -28.3105  -25.3256   21.0231 C   0  0  0  0  0  0
  -30.0801  -21.9545   20.1001 N   0  0  0  0  0  0
  -29.5487  -19.6142   20.0908 N   0  0  0  0  0  0
  -29.8693  -15.8072   20.7149 N   0  0  0  0  0  0
  -32.3430  -17.3080   19.2765 N   0  3  0  0  0  0
  -31.4731  -12.5704   19.1358 H   0  0  0  0  0  0
  -30.4014  -11.4451   19.9214 H   0  0  0  0  0  0
  -29.7749  -11.7219   17.5049 H   0  0  0  0  0  0
  -29.6394  -13.4495   17.7108 H   0  0  0  0  0  0
  -27.8739  -11.2857   18.8924 H   0  0  0  0  0  0
  -27.3749  -12.5451   17.7948 H   0  0  0  0  0  0
  -27.6502  -14.2535   19.4862 H   0  0  0  0  0  0
  -28.7178  -12.1228   21.4047 H   0  0  0  0  0  0
  -28.4397  -13.7985   21.8076 H   0  0  0  0  0  0
  -25.2777   -9.5652   22.4770 H   0  0  0  0  0  0
  -23.9983   -7.4634   22.7494 H   0  0  0  0  0  0
  -21.0847   -8.8800   19.8963 H   0  0  0  0  0  0
  -22.3742  -10.9674   19.6165 H   0  0  0  0  0  0
  -21.2036   -7.6151   23.9703 H   0  0  0  0  0  0
  -21.1470   -6.0529   25.9068 H   0  0  0  0  0  0
  -22.0609   -2.7606   23.2851 H   0  0  0  0  0  0
  -22.4107  -11.9865   22.4769 H   0  0  0  0  0  0
  -21.1108  -13.1232   22.2614 H   0  0  0  0  0  0
  -24.6412  -15.8361   20.4966 H   0  0  0  0  0  0
  -26.2416  -15.6232   20.0017 H   0  0  0  0  0  0
  -26.7180  -32.5479   23.1102 H   0  0  0  0  0  0
  -25.0090  -33.9726   25.0438 H   0  0  0  0  0  0
  -22.7159  -31.2983   21.4003 H   0  0  0  0  0  0
  -23.3774  -35.9607   23.3283 H   0  0  0  0  0  0
  -24.3584  -36.8925   22.2057 H   0  0  0  0  0  0
  -23.7231  -37.6475   23.6682 H   0  0  0  0  0  0
  -26.0835  -31.5534   20.5995 H   0  0  0  0  0  0
  -26.8433  -30.8505   21.9966 H   0  0  0  0  0  0
  -28.1272  -28.9949   21.1886 H   0  0  0  0  0  0
  -26.0360  -25.9231   19.0058 H   0  0  0  0  0  0
  -23.9823  -27.2875   19.0268 H   0  0  0  0  0  0
  -23.7539  -30.5817   19.4054 H   0  0  0  0  0  0
  -22.7592  -29.2314   19.8676 H   0  0  0  0  0  0
  -25.1294  -36.1935   25.0820 H   0  0  0  0  0  0
  -20.9952  -28.3237   24.1438 H   0  0  0  0  0  0
  -20.5729  -26.2259   23.3596 H   0  0  0  0  0  0
  -21.6633  -26.7458   22.1175 H   0  0  0  0  0  0
  -19.6900  -25.6292   21.1247 H   0  0  0  0  0  0
  -19.6696  -27.3198   20.6776 H   0  0  0  0  0  0
  -17.4199  -26.6706   21.4018 H   0  0  0  0  0  0
  -18.0275  -26.0077   22.9020 H   0  0  0  0  0  0
  -19.7928  -30.7259   24.2270 H   0  0  0  0  0  0
  -17.5006  -31.6269   24.5149 H   0  0  0  0  0  0
  -15.5339  -30.2958   23.7674 H   0  0  0  0  0  0
  -15.8674  -28.0808   22.7068 H   0  0  0  0  0  0
  -24.5880  -30.7099   25.7748 H   0  0  0  0  0  0
  -24.8883  -32.2897   26.4878 H   0  0  0  0  0  0
  -25.8004  -30.8898   27.0220 H   0  0  0  0  0  0
  -26.2933  -29.6779   24.1212 H   0  0  0  0  0  0
  -27.4095  -29.7340   25.4662 H   0  0  0  0  0  0
  -27.8771  -30.4366   23.9364 H   0  0  0  0  0  0
  -27.2680  -33.3705   26.1994 H   0  0  0  0  0  0
  -28.3876  -32.6850   25.0316 H   0  0  0  0  0  0
  -28.0687  -31.8530   26.5440 H   0  0  0  0  0  0
  -28.2569  -38.0120   24.7557 H   0  0  0  0  0  0
  -28.1113  -36.2651   24.6236 H   0  0  0  0  0  0
  -27.2297  -37.1363   25.8855 H   0  0  0  0  0  0
  -20.9377  -29.8786   21.6954 H   0  0  0  0  0  0
  -26.0178  -38.2846   24.1454 H   0  0  0  0  0  0
  -28.9884  -18.6527   21.9146 H   0  0  0  0  0  0
  -28.2018  -18.0235   20.4772 H   0  0  0  0  0  0
  -30.8167  -19.7017   18.4075 H   0  0  0  0  0  0
  -31.6226  -19.7726   19.9744 H   0  0  0  0  0  0
  -30.9768  -17.4202   21.5358 H   0  0  0  0  0  0
  -30.3795  -17.3670   18.5689 H   0  0  0  0  0  0
  -25.8924  -24.3460   20.7144 H   0  0  0  0  0  0
  -25.6854  -22.9718   21.7976 H   0  0  0  0  0  0
  -25.3857  -22.8428   20.0534 H   0  0  0  0  0  0
  -25.6680  -20.7734   20.4739 H   0  0  0  0  0  0
  -26.7625  -19.7450   21.3631 H   0  0  0  0  0  0
  -26.7601  -19.7395   19.5952 H   0  0  0  0  0  0
  -31.3897  -24.5373   21.0032 H   0  0  0  0  0  0
  -30.6844  -25.1049   19.4868 H   0  0  0  0  0  0
  -31.7797  -23.7326   19.4775 H   0  0  0  0  0  0
  -29.1281  -25.5262   21.7174 H   0  0  0  0  0  0
  -27.4418  -25.4011   21.6749 H   0  0  0  0  0  0
  -28.8968  -15.6247   20.9135 H   0  0  0  0  0  0
  -32.9446  -17.7515   19.9472 H   0  0  0  0  0  0
  -32.6927  -17.4863   18.3518 H   0  0  0  0  0  0
  -32.3636  -16.3074   19.4540 H   0  0  0  0  0  0
  1 25  1  0  0  0
  1 30  2  0  0  0
  1 86  1  0  0  0
  2  3  1  0  0  0
  2 25  1  0  0  0
  2 88  1  0  0  0
  2 89  1  0  0  0
  3  4  1  0  0  0
  3 90  1  0  0  0
  3 91  1  0  0  0
  4  5  1  0  0  0
  4 92  1  0  0  0
  4 93  1  0  0  0
  5  6  1  0  0  0
  5 26  1  0  0  0
  5 94  1  0  0  0
  6 25  1  0  0  0
  6 95  1  0  0  0
  6 96  1  0  0  0
  7  8  2  0  0  0
  7 26  1  0  0  0
  7 29  1  0  0  0
  8  9  1  0  0  0
  8 22  1  0  0  0
  9 10  1  0  0  0
  9 27  2  0  0  0
 10 11  2  0  0  0
 10 15  1  0  0  0
 11 12  1  0  0  0
 11 97  1  0  0  0
 12 13  2  0  0  0
 12 98  1  0  0  0
 13 14  1  0  0  0
 13 31  1  0  0  0
 14 15  2  0  0  0
 14 99  1  0  0  0
 15100  1  0  0  0
 16 17  2  0  0  0
 16 21  1  0  0  0
 16 31  1  0  0  0
 17 18  1  0  0  0
 17101  1  0  0  0
 18 19  2  0  0  0
 18102  1  0  0  0
 19 20  1  0  0  0
 19 24  1  0  0  0
 20 21  2  0  0  0
 20103  1  0  0  0
 21 23  1  0  0  0
 22 28  1  0  0  0
 22 32  2  0  0  0
 26 27  1  0  0  0
 28104  1  0  0  0
 28105  1  0  0  0
 29106  1  0  0  0
 29107  1  0  0  0
 33 34  1  0  0  0
 33 66  1  0  0  0
 33 70  2  0  0  0
 34 36  1  0  0  0
 34 59  1  0  0  0
 34108  1  0  0  0
 35 44  2  0  0  0
 35 45  1  0  0  0
 35 68  1  0  0  0
 36 56  1  0  0  0
 36109  1  0  0  0
 37 39  1  0  0  0
 37 47  1  0  0  0
 37 66  1  0  0  0
 37110  1  0  0  0
 38 43  2  0  0  0
 38 46  1  0  0  0
 38 47  1  0  0  0
 39 64  1  0  0  0
 39 67  2  0  0  0
 40 52  1  0  0  0
 40 53  2  0  0  0
 40 58  1  0  0  0
 41111  1  0  0  0
 41112  1  0  0  0
 41113  1  0  0  0
 41 48  1  0  0  0
 42 43  1  0  0  0
 42 66  1  0  0  0
 42114  1  0  0  0
 42115  1  0  0  0
 43 44  1  0  0  0
 44116  1  0  0  0
 45 46  2  0  0  0
 45117  1  0  0  0
 46118  1  0  0  0
 47119  1  0  0  0
 47120  1  0  0  0
 48 56  1  0  0  0
 48 65  1  0  0  0
 48121  1  0  0  0
 49 50  1  0  0  0
 49 53  1  0  0  0
 49 64  1  0  0  0
 49122  1  0  0  0
 50 51  1  0  0  0
 50123  1  0  0  0
 50124  1  0  0  0
 51 52  1  0  0  0
 51125  1  0  0  0
 51126  1  0  0  0
 52127  1  0  0  0
 52128  1  0  0  0
 53 54  1  0  0  0
 54 55  2  0  0  0
 54129  1  0  0  0
 55 57  1  0  0  0
 55130  1  0  0  0
 56 69  2  0  0  0
 57 58  2  0  0  0
 57131  1  0  0  0
 58132  1  0  0  0
 59 60  1  0  0  0
 59 61  1  0  0  0
 59 62  1  0  0  0
 60133  1  0  0  0
 60134  1  0  0  0
 60135  1  0  0  0
 61136  1  0  0  0
 61137  1  0  0  0
 61138  1  0  0  0
 62139  1  0  0  0
 62140  1  0  0  0
 62141  1  0  0  0
 63 65  1  0  0  0
 63142  1  0  0  0
 63143  1  0  0  0
 63144  1  0  0  0
 64145  1  0  0  0
 65146  1  0  0  0
 68 83  1  0  0  0
 71 72  2  0  0  0
 71 73  1  0  0  0
 71 80  1  0  0  0
 72 74  1  0  0  0
 72 83  1  0  0  0
 73 75  2  0  0  0
 73 81  1  0  0  0
 74 82  1  0  0  0
 74 84  2  0  0  0
 75 84  1  0  0  0
 75 85  1  0  0  0
 76 78  1  0  0  0
 76 85  1  0  0  0
 76147  1  0  0  0
 76148  1  0  0  0
 77 79  1  0  0  0
 77 85  1  0  0  0
 77149  1  0  0  0
 77150  1  0  0  0
 78 79  1  0  0  0
 78 86  1  0  0  0
 78151  1  0  0  0
 79 87  1  0  0  0
 79152  1  0  0  0
 80153  1  0  0  0
 80154  1  0  0  0
 80155  1  0  0  0
 81156  1  0  0  0
 81157  1  0  0  0
 81158  1  0  0  0
 82159  1  0  0  0
 82160  1  0  0  0
 82161  1  0  0  0
 83162  1  0  0  0
 83163  1  0  0  0
 86164  1  0  0  0
 87165  1  0  0  0
 87166  1  0  0  0
 87167  1  0  0  0
M  CHG  1  87   1
M  ISO  4   1 100  68 101  83 101  86 100
M  END
> <chiral flag>
0

> <version>
0

> <s_m_source_file>
/data/baiqing/PycharmProjects/Reinvent-master-3.2/result/LINK_invent/BTK/process_docking_weight1_custom_sum_contain_oxygen_bond_distance_aromatic_linkinvent_7_9_3/rearranged_h_0165.sdf

> <i_m_source_file_index>
74

> <r_mmod_Potential_Energy-OPLS-2005>
-398.327453613281

> <r_mmod_Stretch_Energy-OPLS-2005>
91.5932006835938

> <r_mmod_Bend_Energy-OPLS-2005>
191.546630859375

> <r_mmod_Torsional_Energy-OPLS-2005>
334.275726318359

> <r_mmod_Improper_Torsional_Energy-OPLS-2005>
7.94993352890015

> <r_mmod_Van_der_Waal_Energy-OPLS-2005>
155.695053100586

> <r_mmod_Electrostatic_Energy-OPLS-2005>
-758.502624511719

> <r_mmod_Solvation_Energy-OPLS-2005>
-477.198913574219

> <b_mmod_Minimization_Converged-OPLS-2005>
0

> <r_mmod_RMS_Derivative-OPLS-2005>
2.45864725112915

$$$$
75
                    3D
 Structure written by MMmdl.
167176  0  0  1  0            999 V2000
  -30.6559  -14.6646   20.4388 C   0  0  0  0  0  0
  -30.4236  -12.3998   19.4675 C   0  0  0  0  0  0
  -29.5068  -12.4831   18.2274 C   0  0  0  0  0  0
  -28.0281  -12.3344   18.6372 C   0  0  0  0  0  0
  -27.6438  -13.2283   19.8479 C   0  0  2  0  0  0
  -28.6896  -13.1528   20.9823 C   0  0  0  0  0  0
  -25.2520  -13.8199   20.5676 C   0  0  0  0  0  0
  -24.1810  -13.0440   20.9195 C   0  0  0  0  0  0
  -24.6401  -11.6921   20.8731 C   0  0  0  0  0  0
  -23.9076  -10.4295   21.0393 C   0  0  0  0  0  0
  -24.3621   -9.4216   21.9174 C   0  0  0  0  0  0
  -23.6296   -8.2250   22.0750 C   0  0  0  0  0  0
  -22.4276   -8.0286   21.3536 C   0  0  0  0  0  0
  -21.9912   -9.0264   20.4639 C   0  0  0  0  0  0
  -22.7249  -10.2136   20.3043 C   0  0  0  0  0  0
  -21.6853   -6.0737   22.5272 C   0  0  0  0  0  0
  -21.4026   -6.5635   23.8211 C   0  0  0  0  0  0
  -21.3660   -5.6780   24.9166 C   0  0  0  0  0  0
  -21.6041   -4.3044   24.7213 C   0  0  0  0  0  0
  -21.8822   -3.8144   23.4329 C   0  0  0  0  0  0
  -21.9202   -4.6964   22.3386 C   0  0  0  0  0  0
  -22.7822  -13.5208   21.1855 C   0  0  0  0  0  0
  -22.1665   -4.2158   21.0960 F   0  0  0  0  0  0
  -21.5632   -3.4525   25.7722 F   0  0  0  0  0  0
  -29.9985  -13.4644   20.3985 N   0  0  0  0  0  0
  -26.2950  -12.9398   20.3274 N   0  0  0  0  0  0
  -25.9333  -11.6543   20.5751 N   0  0  0  0  0  0
  -22.0466  -12.8204   22.0407 N   0  0  0  0  0  0
  -25.4216  -15.1915   20.4074 N   0  0  0  0  0  0
  -31.8490  -14.7387   20.1392 O   0  0  0  0  0  0
  -21.6643   -6.8881   21.4232 O   0  0  0  0  0  0
  -22.3505  -14.5525   20.6710 O   0  0  0  0  0  0
  -24.6236  -31.8596   23.2028 C   0  0  0  0  0  0
  -25.9103  -32.4772   23.8345 C   0  0  1  0  0  0
  -27.2225  -27.3233   20.1068 C   0  0  0  0  0  0
  -25.5924  -33.8573   24.2286 N   0  0  0  0  0  0
  -23.4164  -30.4811   21.5465 C   0  0  2  0  0  0
  -24.8629  -28.9411   20.1052 C   0  0  0  0  0  0
  -22.7475  -29.4596   22.4956 C   0  0  0  0  0  0
  -18.0291  -28.1388   22.8486 C   0  0  0  0  0  0
  -24.1479  -36.7275   23.2635 C   0  0  0  0  0  0
  -25.9547  -30.7899   21.3736 C   0  0  0  0  0  0
  -26.0281  -29.4161   20.7190 C   0  0  0  0  0  0
  -27.2058  -28.6131   20.7227 C   0  0  0  0  0  0
  -26.0320  -26.8978   19.4787 C   0  0  0  0  0  0
  -24.8665  -27.6867   19.4789 C   0  0  0  0  0  0
  -23.6289  -29.8178   20.1595 C   0  0  0  0  0  0
  -25.4104  -36.3071   24.0326 C   0  0  1  0  0  0
  -20.5887  -28.3668   23.1312 C   0  0  2  0  0  0
  -20.6773  -26.9393   22.5425 C   0  0  0  0  0  0
  -19.5746  -26.6386   21.5221 C   0  0  0  0  0  0
  -18.1927  -26.7935   22.1630 C   0  0  0  0  0  0
  -19.1543  -28.8850   23.2889 C   0  0  0  0  0  0
  -18.9458  -30.1457   23.8894 C   0  0  0  0  0  0
  -17.6455  -30.6579   24.0574 C   0  0  0  0  0  0
  -25.9044  -34.9442   23.5104 C   0  0  0  0  0  0
  -16.5354  -29.9068   23.6337 C   0  0  0  0  0  0
  -16.7279  -28.6501   23.0338 C   0  0  0  0  0  0
  -26.4502  -31.6563   25.0693 C   0  0  0  0  0  0
  -25.3748  -31.3692   26.1422 C   0  0  0  0  0  0
  -27.0333  -30.2994   24.6096 C   0  0  0  0  0  0
  -27.6060  -32.4295   25.7484 C   0  0  0  0  0  0
  -27.5570  -37.1786   24.8461 C   0  0  0  0  0  0
  -21.4192  -29.3013   22.3706 N   0  0  0  0  0  0
  -26.4282  -37.3763   23.9412 N   0  0  0  0  0  0
  -24.6838  -31.0607   22.0982 N   0  0  0  0  0  0
  -23.4208  -28.8133   23.3028 O   0  0  0  0  0  0
  -28.3451  -26.4858   20.1820 O   0  0  0  0  0  0
  -26.5605  -34.8921   22.4666 O   0  0  0  0  0  0
  -23.5408  -32.1405   23.7359 O   0  0  0  0  0  0
  -29.7181  -21.8634   20.6113 C   0  0  0  0  0  0
  -29.5208  -23.2830   20.5514 C   0  0  0  0  0  0
  -28.5579  -23.8479   19.6612 C   0  0  0  0  0  0
  -27.7749  -22.8790   18.9650 C   0  0  0  0  0  0
  -28.9711  -20.9939   19.7820 C   0  0  0  0  0  0
  -30.5598  -18.5021   17.6994 C   0  0  0  0  0  0
  -29.3273  -19.3168   18.0618 C   0  0  0  0  0  0
  -29.3277  -18.4300   20.3703 C   0  0  0  0  0  0
  -30.3142  -17.2092   19.9704 C   0  0  2  0  0  0
  -30.5928  -17.1454   18.4245 C   0  0  2  0  0  0
  -30.4144  -24.1866   21.3808 C   0  0  0  0  0  0
  -26.6795  -23.2751   17.9894 C   0  0  0  0  0  0
  -28.5492  -25.3783   19.2347 C   0  0  0  0  0  0
  -27.9745  -21.5303   19.0366 N   0  0  0  0  0  0
  -29.3726  -19.6403   19.4824 N   0  0  0  0  0  0
  -29.9063  -15.8202   20.4557 N   0  0  0  0  0  0
  -31.8817  -16.4900   18.1307 N   0  3  0  0  0  0
  -31.4692  -12.4959   19.1690 H   0  0  0  0  0  0
  -30.3400  -11.4225   19.9462 H   0  0  0  0  0  0
  -29.7696  -11.7048   17.5094 H   0  0  0  0  0  0
  -29.6594  -13.4334   17.7156 H   0  0  0  0  0  0
  -27.8599  -11.2849   18.8822 H   0  0  0  0  0  0
  -27.3796  -12.5533   17.7881 H   0  0  0  0  0  0
  -27.6417  -14.2512   19.4718 H   0  0  0  0  0  0
  -28.7010  -12.1597   21.4338 H   0  0  0  0  0  0
  -28.4405  -13.8507   21.7836 H   0  0  0  0  0  0
  -25.2763   -9.5703   22.4755 H   0  0  0  0  0  0
  -24.0009   -7.4639   22.7462 H   0  0  0  0  0  0
  -21.0851   -8.8767   19.8937 H   0  0  0  0  0  0
  -22.3695  -10.9665   19.6146 H   0  0  0  0  0  0
  -21.2016   -7.6145   23.9713 H   0  0  0  0  0  0
  -21.1482   -6.0511   25.9072 H   0  0  0  0  0  0
  -22.0603   -2.7608   23.2826 H   0  0  0  0  0  0
  -22.4043  -11.9847   22.4800 H   0  0  0  0  0  0
  -21.1088  -13.1245   22.2595 H   0  0  0  0  0  0
  -24.6484  -15.8416   20.5084 H   0  0  0  0  0  0
  -26.2615  -15.6349   20.0612 H   0  0  0  0  0  0
  -26.7149  -32.5462   23.1075 H   0  0  0  0  0  0
  -25.0083  -33.9712   25.0440 H   0  0  0  0  0  0
  -22.7072  -31.2993   21.4066 H   0  0  0  0  0  0
  -23.3748  -35.9595   23.3286 H   0  0  0  0  0  0
  -24.3574  -36.8913   22.2051 H   0  0  0  0  0  0
  -23.7226  -37.6469   23.6670 H   0  0  0  0  0  0
  -26.0760  -31.5507   20.6016 H   0  0  0  0  0  0
  -26.8397  -30.8470   21.9949 H   0  0  0  0  0  0
  -28.0970  -28.9667   21.2218 H   0  0  0  0  0  0
  -25.9652  -25.9307   19.0124 H   0  0  0  0  0  0
  -23.9707  -27.3154   19.0006 H   0  0  0  0  0  0
  -23.7404  -30.5941   19.4015 H   0  0  0  0  0  0
  -22.7503  -29.2415   19.8626 H   0  0  0  0  0  0
  -25.1277  -36.1913   25.0813 H   0  0  0  0  0  0
  -20.9975  -28.3242   24.1436 H   0  0  0  0  0  0
  -20.5694  -26.2259   23.3612 H   0  0  0  0  0  0
  -21.6640  -26.7431   22.1211 H   0  0  0  0  0  0
  -19.6898  -25.6300   21.1235 H   0  0  0  0  0  0
  -19.6696  -27.3217   20.6768 H   0  0  0  0  0  0
  -17.4199  -26.6708   21.4025 H   0  0  0  0  0  0
  -18.0308  -26.0085   22.9031 H   0  0  0  0  0  0
  -19.7925  -30.7286   24.2259 H   0  0  0  0  0  0
  -17.4995  -31.6258   24.5176 H   0  0  0  0  0  0
  -15.5349  -30.2949   23.7658 H   0  0  0  0  0  0
  -15.8693  -28.0814   22.7035 H   0  0  0  0  0  0
  -24.5928  -30.7023   25.7760 H   0  0  0  0  0  0
  -24.8924  -32.2854   26.4832 H   0  0  0  0  0  0
  -25.8084  -30.8888   27.0198 H   0  0  0  0  0  0
  -26.2871  -29.6762   24.1139 H   0  0  0  0  0  0
  -27.4085  -29.7218   25.4554 H   0  0  0  0  0  0
  -27.8722  -30.4293   23.9255 H   0  0  0  0  0  0
  -27.2658  -33.3598   26.2044 H   0  0  0  0  0  0
  -28.3888  -32.6847   25.0329 H   0  0  0  0  0  0
  -28.0691  -31.8422   26.5423 H   0  0  0  0  0  0
  -28.2566  -38.0099   24.7515 H   0  0  0  0  0  0
  -28.1088  -36.2631   24.6272 H   0  0  0  0  0  0
  -27.2291  -37.1417   25.8864 H   0  0  0  0  0  0
  -20.9367  -29.8733   21.6918 H   0  0  0  0  0  0
  -26.0161  -38.2827   24.1449 H   0  0  0  0  0  0
  -30.5194  -21.4589   21.2142 H   0  0  0  0  0  0
  -31.4480  -19.0908   17.9351 H   0  0  0  0  0  0
  -30.5760  -18.3486   16.6188 H   0  0  0  0  0  0
  -28.4102  -18.7696   17.8350 H   0  0  0  0  0  0
  -29.3229  -20.2137   17.4391 H   0  0  0  0  0  0
  -29.5312  -18.7415   21.3950 H   0  0  0  0  0  0
  -28.2981  -18.0734   20.3659 H   0  0  0  0  0  0
  -31.2605  -17.4513   20.4568 H   0  0  0  0  0  0
  -29.8058  -16.5336   17.9774 H   0  0  0  0  0  0
  -30.9221  -23.6270   22.1668 H   0  0  0  0  0  0
  -29.8301  -24.9707   21.8632 H   0  0  0  0  0  0
  -31.1725  -24.6571   20.7547 H   0  0  0  0  0  0
  -25.8921  -23.8236   18.5028 H   0  0  0  0  0  0
  -26.2120  -22.4004   17.5362 H   0  0  0  0  0  0
  -27.0719  -23.8831   17.1746 H   0  0  0  0  0  0
  -27.9700  -25.5363   18.3292 H   0  0  0  0  0  0
  -29.5647  -25.5467   18.8753 H   0  0  0  0  0  0
  -28.9263  -15.6901   20.6537 H   0  0  0  0  0  0
  -32.6444  -17.1317   18.2579 H   0  0  0  0  0  0
  -31.9099  -16.1371   17.1903 H   0  0  0  0  0  0
  -32.0161  -15.7198   18.7842 H   0  0  0  0  0  0
  1 25  1  0  0  0
  1 30  2  0  0  0
  1 86  1  0  0  0
  2  3  1  0  0  0
  2 25  1  0  0  0
  2 88  1  0  0  0
  2 89  1  0  0  0
  3  4  1  0  0  0
  3 90  1  0  0  0
  3 91  1  0  0  0
  4  5  1  0  0  0
  4 92  1  0  0  0
  4 93  1  0  0  0
  5  6  1  0  0  0
  5 26  1  0  0  0
  5 94  1  0  0  0
  6 25  1  0  0  0
  6 95  1  0  0  0
  6 96  1  0  0  0
  7  8  2  0  0  0
  7 26  1  0  0  0
  7 29  1  0  0  0
  8  9  1  0  0  0
  8 22  1  0  0  0
  9 10  1  0  0  0
  9 27  2  0  0  0
 10 11  2  0  0  0
 10 15  1  0  0  0
 11 12  1  0  0  0
 11 97  1  0  0  0
 12 13  2  0  0  0
 12 98  1  0  0  0
 13 14  1  0  0  0
 13 31  1  0  0  0
 14 15  2  0  0  0
 14 99  1  0  0  0
 15100  1  0  0  0
 16 17  2  0  0  0
 16 21  1  0  0  0
 16 31  1  0  0  0
 17 18  1  0  0  0
 17101  1  0  0  0
 18 19  2  0  0  0
 18102  1  0  0  0
 19 20  1  0  0  0
 19 24  1  0  0  0
 20 21  2  0  0  0
 20103  1  0  0  0
 21 23  1  0  0  0
 22 28  1  0  0  0
 22 32  2  0  0  0
 26 27  1  0  0  0
 28104  1  0  0  0
 28105  1  0  0  0
 29106  1  0  0  0
 29107  1  0  0  0
 33 34  1  0  0  0
 33 66  1  0  0  0
 33 70  2  0  0  0
 34 36  1  0  0  0
 34 59  1  0  0  0
 34108  1  0  0  0
 35 44  2  0  0  0
 35 45  1  0  0  0
 35 68  1  0  0  0
 36 56  1  0  0  0
 36109  1  0  0  0
 37 39  1  0  0  0
 37 47  1  0  0  0
 37 66  1  0  0  0
 37110  1  0  0  0
 38 43  2  0  0  0
 38 46  1  0  0  0
 38 47  1  0  0  0
 39 64  1  0  0  0
 39 67  2  0  0  0
 40 52  1  0  0  0
 40 53  2  0  0  0
 40 58  1  0  0  0
 41111  1  0  0  0
 41112  1  0  0  0
 41113  1  0  0  0
 41 48  1  0  0  0
 42 43  1  0  0  0
 42 66  1  0  0  0
 42114  1  0  0  0
 42115  1  0  0  0
 43 44  1  0  0  0
 44116  1  0  0  0
 45 46  2  0  0  0
 45117  1  0  0  0
 46118  1  0  0  0
 47119  1  0  0  0
 47120  1  0  0  0
 48 56  1  0  0  0
 48 65  1  0  0  0
 48121  1  0  0  0
 49 50  1  0  0  0
 49 53  1  0  0  0
 49 64  1  0  0  0
 49122  1  0  0  0
 50 51  1  0  0  0
 50123  1  0  0  0
 50124  1  0  0  0
 51 52  1  0  0  0
 51125  1  0  0  0
 51126  1  0  0  0
 52127  1  0  0  0
 52128  1  0  0  0
 53 54  1  0  0  0
 54 55  2  0  0  0
 54129  1  0  0  0
 55 57  1  0  0  0
 55130  1  0  0  0
 56 69  2  0  0  0
 57 58  2  0  0  0
 57131  1  0  0  0
 58132  1  0  0  0
 59 60  1  0  0  0
 59 61  1  0  0  0
 59 62  1  0  0  0
 60133  1  0  0  0
 60134  1  0  0  0
 60135  1  0  0  0
 61136  1  0  0  0
 61137  1  0  0  0
 61138  1  0  0  0
 62139  1  0  0  0
 62140  1  0  0  0
 62141  1  0  0  0
 63 65  1  0  0  0
 63142  1  0  0  0
 63143  1  0  0  0
 63144  1  0  0  0
 64145  1  0  0  0
 65146  1  0  0  0
 68 83  1  0  0  0
 71 72  2  0  0  0
 71 75  1  0  0  0
 71147  1  0  0  0
 72 73  1  0  0  0
 72 81  1  0  0  0
 73 74  2  0  0  0
 73 83  1  0  0  0
 74 82  1  0  0  0
 74 84  1  0  0  0
 75 84  2  0  0  0
 75 85  1  0  0  0
 76 77  1  0  0  0
 76 80  1  0  0  0
 76148  1  0  0  0
 76149  1  0  0  0
 77 85  1  0  0  0
 77150  1  0  0  0
 77151  1  0  0  0
 78 79  1  0  0  0
 78 85  1  0  0  0
 78152  1  0  0  0
 78153  1  0  0  0
 79 80  1  0  0  0
 79 86  1  0  0  0
 79154  1  0  0  0
 80 87  1  0  0  0
 80155  1  0  0  0
 81156  1  0  0  0
 81157  1  0  0  0
 81158  1  0  0  0
 82159  1  0  0  0
 82160  1  0  0  0
 82161  1  0  0  0
 83162  1  0  0  0
 83163  1  0  0  0
 86164  1  0  0  0
 87165  1  0  0  0
 87166  1  0  0  0
 87167  1  0  0  0
M  CHG  1  87   1
M  ISO  4   1 100  68 101  83 101  86 100
M  END
> <chiral flag>
0

> <version>
0

> <s_m_source_file>
/data/baiqing/PycharmProjects/Reinvent-master-3.2/result/LINK_invent/BTK/process_docking_weight1_custom_sum_contain_oxygen_bond_distance_aromatic_linkinvent_7_9_3/rearranged_h_0165.sdf

> <i_m_source_file_index>
75

> <r_mmod_Potential_Energy-OPLS-2005>
-339.569976806641

> <r_mmod_Stretch_Energy-OPLS-2005>
91.3577651977539

> <r_mmod_Bend_Energy-OPLS-2005>
169.495544433594

> <r_mmod_Torsional_Energy-OPLS-2005>
321.971954345703

> <r_mmod_Improper_Torsional_Energy-OPLS-2005>
15.4312601089478

> <r_mmod_Van_der_Waal_Energy-OPLS-2005>
166.838790893555

> <r_mmod_Electrostatic_Energy-OPLS-2005>
-686.228393554688

> <r_mmod_Solvation_Energy-OPLS-2005>
-475.296508789062

> <b_mmod_Minimization_Converged-OPLS-2005>
0

> <r_mmod_RMS_Derivative-OPLS-2005>
2.3608067035675

$$$$
76
                    3D
 Structure written by MMmdl.
176185  0  0  1  0            999 V2000
  -30.7447  -14.4102   20.6297 C   0  0  0  0  0  0
  -30.4181  -12.2929   19.4082 C   0  0  0  0  0  0
  -29.4882  -12.5153   18.1995 C   0  0  0  0  0  0
  -28.0112  -12.3756   18.6147 C   0  0  0  0  0  0
  -27.6652  -13.2052   19.8796 C   0  0  2  0  0  0
  -28.7060  -12.9645   20.9969 C   0  0  0  0  0  0
  -25.2601  -13.8161   20.5680 C   0  0  0  0  0  0
  -24.1848  -13.0444   20.9178 C   0  0  0  0  0  0
  -24.6395  -11.6907   20.8734 C   0  0  0  0  0  0
  -23.9059  -10.4294   21.0404 C   0  0  0  0  0  0
  -24.3611   -9.4209   21.9183 C   0  0  0  0  0  0
  -23.6287   -8.2244   22.0754 C   0  0  0  0  0  0
  -22.4271   -8.0280   21.3544 C   0  0  0  0  0  0
  -21.9904   -9.0254   20.4647 C   0  0  0  0  0  0
  -22.7231  -10.2135   20.3054 C   0  0  0  0  0  0
  -21.6851   -6.0734   22.5278 C   0  0  0  0  0  0
  -21.4014   -6.5639   23.8211 C   0  0  0  0  0  0
  -21.3658   -5.6792   24.9174 C   0  0  0  0  0  0
  -21.6043   -4.3054   24.7226 C   0  0  0  0  0  0
  -21.8820   -3.8146   23.4346 C   0  0  0  0  0  0
  -21.9193   -4.6962   22.3402 C   0  0  0  0  0  0
  -22.7870  -13.5243   21.1840 C   0  0  0  0  0  0
  -22.1662   -4.2147   21.0980 F   0  0  0  0  0  0
  -21.5629   -3.4538   25.7739 F   0  0  0  0  0  0
  -30.0440  -13.2591   20.4521 N   0  0  0  0  0  0
  -26.3042  -12.9329   20.3385 N   0  0  0  0  0  0
  -25.9324  -11.6490   20.5770 N   0  0  0  0  0  0
  -22.0506  -12.8235   22.0391 N   0  0  0  0  0  0
  -25.4339  -15.1876   20.4065 N   0  0  0  0  0  0
  -31.8186  -14.6409   20.0673 O   0  0  0  0  0  0
  -21.6637   -6.8877   21.4240 O   0  0  0  0  0  0
  -22.3562  -14.5556   20.6693 O   0  0  0  0  0  0
  -24.6146  -31.8698   23.2126 C   0  0  0  0  0  0
  -25.9045  -32.4832   23.8414 C   0  0  1  0  0  0
  -27.2280  -27.4383   20.0882 C   0  0  0  0  0  0
  -25.5905  -33.8630   24.2343 N   0  0  0  0  0  0
  -23.4013  -30.4963   21.5539 C   0  0  2  0  0  0
  -24.8454  -28.9700   20.1124 C   0  0  0  0  0  0
  -22.7410  -29.4670   22.4994 C   0  0  0  0  0  0
  -18.0270  -28.1376   22.8490 C   0  0  0  0  0  0
  -24.1483  -36.7314   23.2638 C   0  0  0  0  0  0
  -25.9319  -30.8365   21.3661 C   0  0  0  0  0  0
  -26.0083  -29.4741   20.7079 C   0  0  0  0  0  0
  -27.2033  -28.7173   20.6915 C   0  0  0  0  0  0
  -26.0441  -26.9594   19.4739 C   0  0  0  0  0  0
  -24.8585  -27.7118   19.4923 C   0  0  0  0  0  0
  -23.6080  -29.8355   20.1664 C   0  0  0  0  0  0
  -25.4105  -36.3116   24.0338 C   0  0  1  0  0  0
  -20.5862  -28.3663   23.1316 C   0  0  2  0  0  0
  -20.6762  -26.9399   22.5416 C   0  0  0  0  0  0
  -19.5742  -26.6385   21.5209 C   0  0  0  0  0  0
  -18.1918  -26.7925   22.1617 C   0  0  0  0  0  0
  -19.1520  -28.8835   23.2901 C   0  0  0  0  0  0
  -18.9451  -30.1441   23.8911 C   0  0  0  0  0  0
  -17.6457  -30.6585   24.0563 C   0  0  0  0  0  0
  -25.9034  -34.9481   23.5135 C   0  0  0  0  0  0
  -16.5345  -29.9086   23.6329 C   0  0  0  0  0  0
  -16.7261  -28.6502   23.0350 C   0  0  0  0  0  0
  -26.4471  -31.6606   25.0738 C   0  0  0  0  0  0
  -25.3737  -31.3716   26.1488 C   0  0  0  0  0  0
  -27.0298  -30.3048   24.6110 C   0  0  0  0  0  0
  -27.6054  -32.4319   25.7494 C   0  0  0  0  0  0
  -27.5579  -37.1811   24.8466 C   0  0  0  0  0  0
  -21.4140  -29.3034   22.3728 N   0  0  0  0  0  0
  -26.4293  -37.3798   23.9410 N   0  0  0  0  0  0
  -24.6677  -31.0807   22.1027 N   0  0  0  0  0  0
  -23.4188  -28.8197   23.3021 O   0  0  0  0  0  0
  -28.3849  -26.6800   20.1272 O   0  0  0  0  0  0
  -26.5592  -34.8927   22.4694 O   0  0  0  0  0  0
  -23.5339  -32.1446   23.7524 O   0  0  0  0  0  0
  -30.3754  -17.6743   20.5530 C   0  0  0  0  0  0
  -30.1865  -17.1978   23.0578 C   0  0  0  0  0  0
  -30.0859  -19.1059   21.0607 C   0  0  0  0  0  0
  -28.8682  -17.9978   22.9624 C   0  0  0  0  0  0
  -28.1880  -22.2056   20.5230 C   0  0  0  0  0  0
  -29.9445  -22.4879   22.1846 C   0  0  0  0  0  0
  -27.4527  -21.1395   21.3742 C   0  0  2  0  0  0
  -29.3127  -21.4455   23.1486 C   0  0  1  0  0  0
  -30.6922  -16.6750   21.6957 C   0  0  1  0  0  0
  -28.3485  -20.4306   22.4371 C   0  0  2  0  0  0
  -26.6328  -20.1646   20.5039 C   0  0  0  0  0  0
  -30.3266  -20.8334   24.1459 C   0  0  0  0  0  0
  -29.3540  -24.4342   20.7166 C   0  0  0  0  0  0
  -28.1791  -25.2568   20.1352 C   0  0  0  0  0  0
  -30.1634  -15.3306   21.4165 N   0  0  0  0  0  0
  -28.8994  -19.1120   21.9616 N   0  3  1  0  0  0
  -28.8931  -23.1812   21.3954 N   0  3  1  0  0  0
  -30.8889  -21.8411   24.9700 O   0  0  0  0  0  0
  -31.4624  -12.3862   19.1043 H   0  0  0  0  0  0
  -30.3125  -11.2759   19.7892 H   0  0  0  0  0  0
  -29.7220  -11.8022   17.4077 H   0  0  0  0  0  0
  -29.6601  -13.5074   17.7787 H   0  0  0  0  0  0
  -27.8177  -11.3185   18.8009 H   0  0  0  0  0  0
  -27.3594  -12.6613   17.7884 H   0  0  0  0  0  0
  -27.7181  -14.2568   19.5971 H   0  0  0  0  0  0
  -28.6726  -11.9242   21.3241 H   0  0  0  0  0  0
  -28.4620  -13.5504   21.8836 H   0  0  0  0  0  0
  -25.2758   -9.5685   22.4755 H   0  0  0  0  0  0
  -23.9998   -7.4636   22.7472 H   0  0  0  0  0  0
  -21.0837   -8.8771   19.8951 H   0  0  0  0  0  0
  -22.3690  -10.9673   19.6161 H   0  0  0  0  0  0
  -21.2004   -7.6148   23.9714 H   0  0  0  0  0  0
  -21.1478   -6.0522   25.9077 H   0  0  0  0  0  0
  -22.0601   -2.7608   23.2848 H   0  0  0  0  0  0
  -22.4108  -11.9882   22.4765 H   0  0  0  0  0  0
  -21.1125  -13.1265   22.2597 H   0  0  0  0  0  0
  -24.6608  -15.8391   20.4855 H   0  0  0  0  0  0
  -26.2762  -15.6123   20.0408 H   0  0  0  0  0  0
  -26.7116  -32.5544   23.1179 H   0  0  0  0  0  0
  -25.0069  -33.9797   25.0497 H   0  0  0  0  0  0
  -22.6894  -31.3131   21.4192 H   0  0  0  0  0  0
  -23.3746  -35.9647   23.3309 H   0  0  0  0  0  0
  -24.3575  -36.8920   22.2051 H   0  0  0  0  0  0
  -23.7232  -37.6521   23.6645 H   0  0  0  0  0  0
  -26.0463  -31.6054   20.6006 H   0  0  0  0  0  0
  -26.8194  -30.8857   21.9856 H   0  0  0  0  0  0
  -28.0989  -29.1016   21.1601 H   0  0  0  0  0  0
  -26.0080  -26.0035   18.9725 H   0  0  0  0  0  0
  -23.9657  -27.3207   19.0235 H   0  0  0  0  0  0
  -23.7156  -30.6139   19.4100 H   0  0  0  0  0  0
  -22.7315  -29.2567   19.8695 H   0  0  0  0  0  0
  -25.1279  -36.1986   25.0831 H   0  0  0  0  0  0
  -20.9949  -28.3227   24.1438 H   0  0  0  0  0  0
  -20.5661  -26.2271   23.3603 H   0  0  0  0  0  0
  -21.6635  -26.7444   22.1212 H   0  0  0  0  0  0
  -19.6905  -25.6299   21.1230 H   0  0  0  0  0  0
  -19.6686  -27.3202   20.6743 H   0  0  0  0  0  0
  -17.4193  -26.6677   21.4013 H   0  0  0  0  0  0
  -18.0313  -26.0059   22.9004 H   0  0  0  0  0  0
  -19.7930  -30.7247   24.2288 H   0  0  0  0  0  0
  -17.5018  -31.6266   24.5162 H   0  0  0  0  0  0
  -15.5348  -30.2996   23.7650 H   0  0  0  0  0  0
  -15.8657  -28.0829   22.7062 H   0  0  0  0  0  0
  -24.5915  -30.7052   25.7832 H   0  0  0  0  0  0
  -24.8918  -32.2872   26.4926 H   0  0  0  0  0  0
  -25.8093  -30.8900   27.0251 H   0  0  0  0  0  0
  -26.2841  -29.6814   24.1161 H   0  0  0  0  0  0
  -27.4065  -29.7279   25.4566 H   0  0  0  0  0  0
  -27.8678  -30.4369   23.9262 H   0  0  0  0  0  0
  -27.2687  -33.3620   26.2086 H   0  0  0  0  0  0
  -28.3855  -32.6875   25.0311 H   0  0  0  0  0  0
  -28.0728  -31.8431   26.5396 H   0  0  0  0  0  0
  -28.2609  -38.0098   24.7509 H   0  0  0  0  0  0
  -28.1063  -36.2631   24.6298 H   0  0  0  0  0  0
  -27.2297  -37.1471   25.8870 H   0  0  0  0  0  0
  -20.9292  -29.8775   21.6972 H   0  0  0  0  0  0
  -26.0185  -38.2878   24.1413 H   0  0  0  0  0  0
  -31.2059  -17.6936   19.8455 H   0  0  0  0  0  0
  -29.5135  -17.3300   19.9790 H   0  0  0  0  0  0
  -30.0796  -16.3785   23.7704 H   0  0  0  0  0  0
  -30.9510  -17.8453   23.4896 H   0  0  0  0  0  0
  -29.9068  -19.7535   20.2037 H   0  0  0  0  0  0
  -30.9673  -19.4991   21.5648 H   0  0  0  0  0  0
  -28.5989  -18.3495   23.9583 H   0  0  0  0  0  0
  -28.0642  -17.3218   22.6692 H   0  0  0  0  0  0
  -27.4485  -22.7116   19.9026 H   0  0  0  0  0  0
  -28.8937  -21.7509   19.8275 H   0  0  0  0  0  0
  -30.6741  -22.0229   21.5204 H   0  0  0  0  0  0
  -30.4950  -23.2285   22.7666 H   0  0  0  0  0  0
  -26.7113  -21.7003   21.9479 H   0  0  0  0  0  0
  -28.6437  -22.0334   23.7809 H   0  0  0  0  0  0
  -31.7781  -16.5920   21.7864 H   0  0  0  0  0  0
  -27.6292  -20.1459   23.2084 H   0  0  0  0  0  0
  -27.2575  -19.5847   19.8238 H   0  0  0  0  0  0
  -25.9165  -20.7086   19.8863 H   0  0  0  0  0  0
  -26.0540  -19.4698   21.1148 H   0  0  0  0  0  0
  -31.1332  -20.3083   23.6354 H   0  0  0  0  0  0
  -29.8343  -20.1115   24.7984 H   0  0  0  0  0  0
  -29.8624  -25.0528   21.4572 H   0  0  0  0  0  0
  -30.0884  -24.2126   19.9411 H   0  0  0  0  0  0
  -27.2971  -25.0415   20.7426 H   0  0  0  0  0  0
  -27.9653  -24.9124   19.1223 H   0  0  0  0  0  0
  -29.2897  -15.0597   21.8425 H   0  0  0  0  0  0
  -28.1546  -18.8223   21.3413 H   0  0  0  0  0  0
  -28.2160  -23.5053   22.0731 H   0  0  0  0  0  0
  -31.4840  -21.4234   25.5885 H   0  0  0  0  0  0
  1 25  1  0  0  0
  1 30  2  0  0  0
  1 85  1  0  0  0
  2  3  1  0  0  0
  2 25  1  0  0  0
  2 89  1  0  0  0
  2 90  1  0  0  0
  3  4  1  0  0  0
  3 91  1  0  0  0
  3 92  1  0  0  0
  4  5  1  0  0  0
  4 93  1  0  0  0
  4 94  1  0  0  0
  5  6  1  0  0  0
  5 26  1  0  0  0
  5 95  1  0  0  0
  6 25  1  0  0  0
  6 96  1  0  0  0
  6 97  1  0  0  0
  7  8  2  0  0  0
  7 26  1  0  0  0
  7 29  1  0  0  0
  8  9  1  0  0  0
  8 22  1  0  0  0
  9 10  1  0  0  0
  9 27  2  0  0  0
 10 11  2  0  0  0
 10 15  1  0  0  0
 11 12  1  0  0  0
 11 98  1  0  0  0
 12 13  2  0  0  0
 12 99  1  0  0  0
 13 14  1  0  0  0
 13 31  1  0  0  0
 14 15  2  0  0  0
 14100  1  0  0  0
 15101  1  0  0  0
 16 17  2  0  0  0
 16 21  1  0  0  0
 16 31  1  0  0  0
 17 18  1  0  0  0
 17102  1  0  0  0
 18 19  2  0  0  0
 18103  1  0  0  0
 19 20  1  0  0  0
 19 24  1  0  0  0
 20 21  2  0  0  0
 20104  1  0  0  0
 21 23  1  0  0  0
 22 28  1  0  0  0
 22 32  2  0  0  0
 26 27  1  0  0  0
 28105  1  0  0  0
 28106  1  0  0  0
 29107  1  0  0  0
 29108  1  0  0  0
 33 34  1  0  0  0
 33 66  1  0  0  0
 33 70  2  0  0  0
 34 36  1  0  0  0
 34 59  1  0  0  0
 34109  1  0  0  0
 35 44  2  0  0  0
 35 45  1  0  0  0
 35 68  1  0  0  0
 36 56  1  0  0  0
 36110  1  0  0  0
 37 39  1  0  0  0
 37 47  1  0  0  0
 37 66  1  0  0  0
 37111  1  0  0  0
 38 43  2  0  0  0
 38 46  1  0  0  0
 38 47  1  0  0  0
 39 64  1  0  0  0
 39 67  2  0  0  0
 40 52  1  0  0  0
 40 53  2  0  0  0
 40 58  1  0  0  0
 41112  1  0  0  0
 41113  1  0  0  0
 41114  1  0  0  0
 41 48  1  0  0  0
 42 43  1  0  0  0
 42 66  1  0  0  0
 42115  1  0  0  0
 42116  1  0  0  0
 43 44  1  0  0  0
 44117  1  0  0  0
 45 46  2  0  0  0
 45118  1  0  0  0
 46119  1  0  0  0
 47120  1  0  0  0
 47121  1  0  0  0
 48 56  1  0  0  0
 48 65  1  0  0  0
 48122  1  0  0  0
 49 50  1  0  0  0
 49 53  1  0  0  0
 49 64  1  0  0  0
 49123  1  0  0  0
 50 51  1  0  0  0
 50124  1  0  0  0
 50125  1  0  0  0
 51 52  1  0  0  0
 51126  1  0  0  0
 51127  1  0  0  0
 52128  1  0  0  0
 52129  1  0  0  0
 53 54  1  0  0  0
 54 55  2  0  0  0
 54130  1  0  0  0
 55 57  1  0  0  0
 55131  1  0  0  0
 56 69  2  0  0  0
 57 58  2  0  0  0
 57132  1  0  0  0
 58133  1  0  0  0
 59 60  1  0  0  0
 59 61  1  0  0  0
 59 62  1  0  0  0
 60134  1  0  0  0
 60135  1  0  0  0
 60136  1  0  0  0
 61137  1  0  0  0
 61138  1  0  0  0
 61139  1  0  0  0
 62140  1  0  0  0
 62141  1  0  0  0
 62142  1  0  0  0
 63 65  1  0  0  0
 63143  1  0  0  0
 63144  1  0  0  0
 63145  1  0  0  0
 64146  1  0  0  0
 65147  1  0  0  0
 68 84  1  0  0  0
 71 73  1  0  0  0
 71 79  1  0  0  0
 71148  1  0  0  0
 71149  1  0  0  0
 72 74  1  0  0  0
 72 79  1  0  0  0
 72150  1  0  0  0
 72151  1  0  0  0
 73152  1  0  0  0
 73153  1  0  0  0
 73 86  1  0  0  0
 74 86  1  0  0  0
 74154  1  0  0  0
 74155  1  0  0  0
 75 77  1  0  0  0
 75 87  1  0  0  0
 75156  1  0  0  0
 75157  1  0  0  0
 76 78  1  0  0  0
 76 87  1  0  0  0
 76158  1  0  0  0
 76159  1  0  0  0
 77 80  1  0  0  0
 77 81  1  0  0  0
 77160  1  0  0  0
 78 80  1  0  0  0
 78 82  1  0  0  0
 78161  1  0  0  0
 79 85  1  0  0  0
 79162  1  0  0  0
 80 86  1  0  0  0
 80163  1  0  0  0
 81164  1  0  0  0
 81165  1  0  0  0
 81166  1  0  0  0
 82 88  1  0  0  0
 82167  1  0  0  0
 82168  1  0  0  0
 83 84  1  0  0  0
 83169  1  0  0  0
 83170  1  0  0  0
 83 87  1  0  0  0
 84171  1  0  0  0
 84172  1  0  0  0
 85173  1  0  0  0
 86174  1  0  0  0
 87175  1  0  0  0
 88176  1  0  0  0
M  CHG  2  86   1  87   1
M  ISO  4   1 100  68 101  84 101  85 100
M  END
> <chiral flag>
0

> <version>
0

> <s_m_source_file>
/data/baiqing/PycharmProjects/Reinvent-master-3.2/result/LINK_invent/BTK/process_docking_weight1_custom_sum_contain_oxygen_bond_distance_aromatic_linkinvent_7_9_3/rearranged_h_0165.sdf

> <i_m_source_file_index>
76

> <r_mmod_Potential_Energy-OPLS-2005>
-94.1919403076172

> <r_mmod_Stretch_Energy-OPLS-2005>
44.0516471862793

> <r_mmod_Bend_Energy-OPLS-2005>
133.896926879883

> <r_mmod_Torsional_Energy-OPLS-2005>
328.324279785156

> <r_mmod_Improper_Torsional_Energy-OPLS-2005>
2.26394271850586

> <r_mmod_Van_der_Waal_Energy-OPLS-2005>
148.540939331055

> <r_mmod_Electrostatic_Energy-OPLS-2005>
200.900939941406

> <r_mmod_Solvation_Energy-OPLS-2005>
-962.393249511719

> <b_mmod_Minimization_Converged-OPLS-2005>
0

> <r_mmod_RMS_Derivative-OPLS-2005>
0.351511061191559

$$$$
77
                    3D
 Structure written by MMmdl.
173183  0  0  1  0            999 V2000
  -30.6226  -14.7923   20.4396 C   0  0  0  0  0  0
  -30.4253  -12.4819   19.4900 C   0  0  0  0  0  0
  -29.5155  -12.5136   18.2428 C   0  0  0  0  0  0
  -28.0409  -12.3384   18.6522 C   0  0  0  0  0  0
  -27.6373  -13.2458   19.8453 C   0  0  2  0  0  0
  -28.6801  -13.2162   20.9840 C   0  0  0  0  0  0
  -25.2476  -13.8227   20.5685 C   0  0  0  0  0  0
  -24.1781  -13.0452   20.9196 C   0  0  0  0  0  0
  -24.6396  -11.6934   20.8730 C   0  0  0  0  0  0
  -23.9079  -10.4301   21.0396 C   0  0  0  0  0  0
  -24.3625   -9.4208   21.9176 C   0  0  0  0  0  0
  -23.6282   -8.2244   22.0752 C   0  0  0  0  0  0
  -22.4263   -8.0282   21.3547 C   0  0  0  0  0  0
  -21.9907   -9.0258   20.4652 C   0  0  0  0  0  0
  -22.7249  -10.2132   20.3051 C   0  0  0  0  0  0
  -21.6858   -6.0721   22.5265 C   0  0  0  0  0  0
  -21.4026   -6.5623   23.8194 C   0  0  0  0  0  0
  -21.3662   -5.6772   24.9160 C   0  0  0  0  0  0
  -21.6040   -4.3035   24.7209 C   0  0  0  0  0  0
  -21.8822   -3.8132   23.4337 C   0  0  0  0  0  0
  -21.9195   -4.6946   22.3391 C   0  0  0  0  0  0
  -22.7796  -13.5215   21.1848 C   0  0  0  0  0  0
  -22.1660   -4.2139   21.0969 F   0  0  0  0  0  0
  -21.5633   -3.4517   25.7726 F   0  0  0  0  0  0
  -29.9756  -13.5703   20.3955 N   0  0  0  0  0  0
  -26.2920  -12.9466   20.3251 N   0  0  0  0  0  0
  -25.9336  -11.6592   20.5724 N   0  0  0  0  0  0
  -22.0446  -12.8212   22.0414 N   0  0  0  0  0  0
  -25.4130  -15.1952   20.4100 N   0  0  0  0  0  0
  -31.8182  -14.8115   20.1374 O   0  0  0  0  0  0
  -21.6631   -6.8870   21.4227 O   0  0  0  0  0  0
  -22.3468  -14.5505   20.6684 O   0  0  0  0  0  0
  -24.6326  -31.8530   23.1956 C   0  0  0  0  0  0
  -25.9142  -32.4738   23.8305 C   0  0  1  0  0  0
  -27.2046  -27.2317   20.1379 C   0  0  0  0  0  0
  -25.5925  -33.8543   24.2230 N   0  0  0  0  0  0
  -23.4293  -30.4751   21.5417 C   0  0  2  0  0  0
  -24.8720  -28.9127   20.1136 C   0  0  0  0  0  0
  -22.7505  -29.4588   22.4915 C   0  0  0  0  0  0
  -18.0292  -28.1383   22.8475 C   0  0  0  0  0  0
  -24.1491  -36.7271   23.2641 C   0  0  0  0  0  0
  -25.9776  -30.7572   21.3780 C   0  0  0  0  0  0
  -26.0473  -29.3773   20.7186 C   0  0  0  0  0  0
  -27.2212  -28.5533   20.7075 C   0  0  0  0  0  0
  -26.0072  -26.8337   19.5123 C   0  0  0  0  0  0
  -24.8585  -27.6512   19.4968 C   0  0  0  0  0  0
  -23.6466  -29.8073   20.1585 C   0  0  0  0  0  0
  -25.4120  -36.3058   24.0323 C   0  0  1  0  0  0
  -20.5896  -28.3696   23.1266 C   0  0  2  0  0  0
  -20.6780  -26.9410   22.5410 C   0  0  0  0  0  0
  -19.5756  -26.6375   21.5209 C   0  0  0  0  0  0
  -18.1936  -26.7922   22.1618 C   0  0  0  0  0  0
  -19.1543  -28.8858   23.2861 C   0  0  0  0  0  0
  -18.9465  -30.1459   23.8881 C   0  0  0  0  0  0
  -17.6462  -30.6584   24.0558 C   0  0  0  0  0  0
  -25.9064  -34.9429   23.5081 C   0  0  0  0  0  0
  -16.5355  -29.9078   23.6329 C   0  0  0  0  0  0
  -16.7277  -28.6498   23.0347 C   0  0  0  0  0  0
  -26.4494  -31.6578   25.0715 C   0  0  0  0  0  0
  -25.3704  -31.3745   26.1432 C   0  0  0  0  0  0
  -27.0343  -30.2987   24.6231 C   0  0  0  0  0  0
  -27.6035  -32.4334   25.7489 C   0  0  0  0  0  0
  -27.5581  -37.1790   24.8462 C   0  0  0  0  0  0
  -21.4211  -29.3035   22.3655 N   0  0  0  0  0  0
  -26.4291  -37.3762   23.9408 N   0  0  0  0  0  0
  -24.6994  -31.0470   22.0943 N   0  0  0  0  0  0
  -23.4189  -28.8132   23.3028 O   0  0  0  0  0  0
  -28.2971  -26.3330   20.1323 O   0  0  0  0  0  0
  -26.5649  -34.8911   22.4662 O   0  0  0  0  0  0
  -23.5476  -32.1363   23.7246 O   0  0  0  0  0  0
  -31.6430  -17.7722   20.3984 C   0  0  0  0  0  0
  -29.3893  -18.5906   20.3407 C   0  0  0  0  0  0
  -31.2128  -20.1583   19.8334 C   0  0  0  0  0  0
  -32.1041  -19.0669   20.1008 C   0  0  0  0  0  0
  -29.7982  -19.9821   20.0625 C   0  0  0  0  0  0
  -30.2810  -17.4327   20.4487 C   0  0  0  0  0  0
  -32.4027  -22.4692   20.2270 C   0  0  0  0  0  0
  -27.4936  -23.7096   19.8276 C   0  0  0  0  0  0
  -29.3780  -23.9409   20.5635 C   0  0  0  0  0  0
  -32.8230  -23.6152   19.2936 C   0  0  0  0  0  0
  -31.2594  -22.2272   18.0868 C   0  0  0  0  0  0
  -31.8775  -21.4311   19.2461 C   0  0  2  0  0  0
  -28.4782  -22.6397   20.4764 C   0  0  2  0  0  0
  -28.1359  -24.9057   20.6179 C   0  0  1  0  0  0
  -33.6265  -19.1974   20.0187 C   0  0  0  0  0  0
  -32.7254  -23.7864   16.8083 C   0  0  0  0  0  0
  -28.7010  -21.1512   19.7800 C   0  0  2  0  0  0
  -29.8895  -15.9811   20.6092 N   0  0  0  0  0  0
  -31.9923  -23.5168   18.0643 N   0  3  2  0  0  0
  -27.5181  -20.5770   20.0016 F   0  0  0  0  0  0
  -31.4681  -12.5924   19.1900 H   0  0  0  0  0  0
  -30.3638  -11.5143   19.9923 H   0  0  0  0  0  0
  -29.8070  -11.7310   17.5414 H   0  0  0  0  0  0
  -29.6443  -13.4612   17.7158 H   0  0  0  0  0  0
  -27.9004  -11.2913   18.9232 H   0  0  0  0  0  0
  -27.3871  -12.5239   17.7991 H   0  0  0  0  0  0
  -27.6213  -14.2625   19.4486 H   0  0  0  0  0  0
  -28.7239  -12.2306   21.4515 H   0  0  0  0  0  0
  -28.4099  -13.9203   21.7727 H   0  0  0  0  0  0
  -25.2776   -9.5667   22.4735 H   0  0  0  0  0  0
  -23.9986   -7.4630   22.7475 H   0  0  0  0  0  0
  -21.0833   -8.8784   19.8955 H   0  0  0  0  0  0
  -22.3715  -10.9659   19.6144 H   0  0  0  0  0  0
  -21.2023   -7.6131   23.9693 H   0  0  0  0  0  0
  -21.1483   -6.0504   25.9056 H   0  0  0  0  0  0
  -22.0603   -2.7589   23.2832 H   0  0  0  0  0  0
  -22.4068  -11.9899   22.4849 H   0  0  0  0  0  0
  -21.1067  -13.1243   22.2613 H   0  0  0  0  0  0
  -24.6412  -15.8457   20.5146 H   0  0  0  0  0  0
  -26.2515  -15.6334   20.0535 H   0  0  0  0  0  0
  -26.7205  -32.5363   23.1035 H   0  0  0  0  0  0
  -25.0045  -33.9669   25.0358 H   0  0  0  0  0  0
  -22.7263  -31.2982   21.3963 H   0  0  0  0  0  0
  -23.3757  -35.9597   23.3301 H   0  0  0  0  0  0
  -24.3578  -36.8904   22.2056 H   0  0  0  0  0  0
  -23.7241  -37.6466   23.6679 H   0  0  0  0  0  0
  -26.1254  -31.5193   20.6114 H   0  0  0  0  0  0
  -26.8506  -30.7984   22.0178 H   0  0  0  0  0  0
  -28.1286  -28.9096   21.1740 H   0  0  0  0  0  0
  -25.9504  -25.8671   19.0341 H   0  0  0  0  0  0
  -23.9589  -27.2925   19.0147 H   0  0  0  0  0  0
  -23.7749  -30.5835   19.4031 H   0  0  0  0  0  0
  -22.7611  -29.2471   19.8528 H   0  0  0  0  0  0
  -25.1305  -36.1892   25.0814 H   0  0  0  0  0  0
  -20.9980  -28.3275   24.1389 H   0  0  0  0  0  0
  -20.5667  -26.2304   23.3616 H   0  0  0  0  0  0
  -21.6650  -26.7424   22.1215 H   0  0  0  0  0  0
  -19.6917  -25.6280   21.1252 H   0  0  0  0  0  0
  -19.6692  -27.3173   20.6728 H   0  0  0  0  0  0
  -17.4200  -26.6656   21.4028 H   0  0  0  0  0  0
  -18.0340  -26.0073   22.9024 H   0  0  0  0  0  0
  -19.7944  -30.7281   24.2236 H   0  0  0  0  0  0
  -17.5021  -31.6264   24.5162 H   0  0  0  0  0  0
  -15.5358  -30.2972   23.7673 H   0  0  0  0  0  0
  -15.8677  -28.0817   22.7066 H   0  0  0  0  0  0
  -24.5852  -30.7131   25.7756 H   0  0  0  0  0  0
  -24.8930  -32.2926   26.4869 H   0  0  0  0  0  0
  -25.8003  -30.8896   27.0206 H   0  0  0  0  0  0
  -26.2938  -29.6732   24.1236 H   0  0  0  0  0  0
  -27.3986  -29.7259   25.4769 H   0  0  0  0  0  0
  -27.8833  -30.4251   23.9509 H   0  0  0  0  0  0
  -27.2620  -33.3633   26.2052 H   0  0  0  0  0  0
  -28.3841  -32.6902   25.0315 H   0  0  0  0  0  0
  -28.0707  -31.8476   26.5416 H   0  0  0  0  0  0
  -28.2588  -38.0098   24.7523 H   0  0  0  0  0  0
  -28.1088  -36.2628   24.6269 H   0  0  0  0  0  0
  -27.2302  -37.1417   25.8866 H   0  0  0  0  0  0
  -20.9402  -29.8746   21.6849 H   0  0  0  0  0  0
  -26.0163  -38.2832   24.1412 H   0  0  0  0  0  0
  -32.3955  -17.0158   20.5516 H   0  0  0  0  0  0
  -28.3315  -18.3911   20.4216 H   0  0  0  0  0  0
  -31.6305  -22.7641   20.9253 H   0  0  0  0  0  0
  -33.2411  -22.1220   20.8279 H   0  0  0  0  0  0
  -26.4424  -23.5383   20.0640 H   0  0  0  0  0  0
  -27.6239  -23.8012   18.7478 H   0  0  0  0  0  0
  -29.9742  -24.1374   19.6794 H   0  0  0  0  0  0
  -29.9812  -24.0115   21.4677 H   0  0  0  0  0  0
  -33.8760  -23.4943   19.0365 H   0  0  0  0  0  0
  -32.7189  -24.5902   19.7696 H   0  0  0  0  0  0
  -30.2230  -22.4931   18.2251 H   0  0  0  0  0  0
  -31.3188  -21.6822   17.1428 H   0  0  0  0  0  0
  -32.7666  -21.0748   18.7313 H   0  0  0  0  0  0
  -28.1363  -22.4626   21.4986 H   0  0  0  0  0  0
  -27.7400  -24.9317   21.6350 H   0  0  0  0  0  0
  -34.1335  -18.3654   20.5091 H   0  0  0  0  0  0
  -33.9921  -20.0976   20.5066 H   0  0  0  0  0  0
  -33.9581  -19.2006   18.9796 H   0  0  0  0  0  0
  -33.2090  -24.7633   16.8497 H   0  0  0  0  0  0
  -32.0433  -23.7900   15.9570 H   0  0  0  0  0  0
  -33.4910  -23.0328   16.6219 H   0  0  0  0  0  0
  -28.6578  -21.2509   18.6972 H   0  0  0  0  0  0
  -28.9106  -15.8213   20.7879 H   0  0  0  0  0  0
  -31.2923  -24.2402   18.1335 H   0  0  0  0  0  0
  1 25  1  0  0  0
  1 30  2  0  0  0
  1 88  1  0  0  0
  2  3  1  0  0  0
  2 25  1  0  0  0
  2 91  1  0  0  0
  2 92  1  0  0  0
  3  4  1  0  0  0
  3 93  1  0  0  0
  3 94  1  0  0  0
  4  5  1  0  0  0
  4 95  1  0  0  0
  4 96  1  0  0  0
  5  6  1  0  0  0
  5 26  1  0  0  0
  5 97  1  0  0  0
  6 25  1  0  0  0
  6 98  1  0  0  0
  6 99  1  0  0  0
  7  8  2  0  0  0
  7 26  1  0  0  0
  7 29  1  0  0  0
  8  9  1  0  0  0
  8 22  1  0  0  0
  9 10  1  0  0  0
  9 27  2  0  0  0
 10 11  2  0  0  0
 10 15  1  0  0  0
 11 12  1  0  0  0
 11100  1  0  0  0
 12 13  2  0  0  0
 12101  1  0  0  0
 13 14  1  0  0  0
 13 31  1  0  0  0
 14 15  2  0  0  0
 14102  1  0  0  0
 15103  1  0  0  0
 16 17  2  0  0  0
 16 21  1  0  0  0
 16 31  1  0  0  0
 17 18  1  0  0  0
 17104  1  0  0  0
 18 19  2  0  0  0
 18105  1  0  0  0
 19 20  1  0  0  0
 19 24  1  0  0  0
 20 21  2  0  0  0
 20106  1  0  0  0
 21 23  1  0  0  0
 22 28  1  0  0  0
 22 32  2  0  0  0
 26 27  1  0  0  0
 28107  1  0  0  0
 28108  1  0  0  0
 29109  1  0  0  0
 29110  1  0  0  0
 33 34  1  0  0  0
 33 66  1  0  0  0
 33 70  2  0  0  0
 34 36  1  0  0  0
 34 59  1  0  0  0
 34111  1  0  0  0
 35 44  2  0  0  0
 35 45  1  0  0  0
 35 68  1  0  0  0
 36 56  1  0  0  0
 36112  1  0  0  0
 37 39  1  0  0  0
 37 47  1  0  0  0
 37 66  1  0  0  0
 37113  1  0  0  0
 38 43  2  0  0  0
 38 46  1  0  0  0
 38 47  1  0  0  0
 39 64  1  0  0  0
 39 67  2  0  0  0
 40 52  1  0  0  0
 40 53  2  0  0  0
 40 58  1  0  0  0
 41114  1  0  0  0
 41115  1  0  0  0
 41116  1  0  0  0
 41 48  1  0  0  0
 42 43  1  0  0  0
 42 66  1  0  0  0
 42117  1  0  0  0
 42118  1  0  0  0
 43 44  1  0  0  0
 44119  1  0  0  0
 45 46  2  0  0  0
 45120  1  0  0  0
 46121  1  0  0  0
 47122  1  0  0  0
 47123  1  0  0  0
 48 56  1  0  0  0
 48 65  1  0  0  0
 48124  1  0  0  0
 49 50  1  0  0  0
 49 53  1  0  0  0
 49 64  1  0  0  0
 49125  1  0  0  0
 50 51  1  0  0  0
 50126  1  0  0  0
 50127  1  0  0  0
 51 52  1  0  0  0
 51128  1  0  0  0
 51129  1  0  0  0
 52130  1  0  0  0
 52131  1  0  0  0
 53 54  1  0  0  0
 54 55  2  0  0  0
 54132  1  0  0  0
 55 57  1  0  0  0
 55133  1  0  0  0
 56 69  2  0  0  0
 57 58  2  0  0  0
 57134  1  0  0  0
 58135  1  0  0  0
 59 60  1  0  0  0
 59 61  1  0  0  0
 59 62  1  0  0  0
 60136  1  0  0  0
 60137  1  0  0  0
 60138  1  0  0  0
 61139  1  0  0  0
 61140  1  0  0  0
 61141  1  0  0  0
 62142  1  0  0  0
 62143  1  0  0  0
 62144  1  0  0  0
 63 65  1  0  0  0
 63145  1  0  0  0
 63146  1  0  0  0
 63147  1  0  0  0
 64148  1  0  0  0
 65149  1  0  0  0
 68 84  1  0  0  0
 71 74  2  0  0  0
 71 76  1  0  0  0
 71150  1  0  0  0
 72 75  1  0  0  0
 72 76  2  0  0  0
 72151  1  0  0  0
 73 74  1  0  0  0
 73 75  2  0  0  0
 73 82  1  0  0  0
 74 85  1  0  0  0
 75 87  1  0  0  0
 76 88  1  0  0  0
 77 80  1  0  0  0
 77 82  1  0  0  0
 77152  1  0  0  0
 77153  1  0  0  0
 78 84  1  0  0  0
 78154  1  0  0  0
 78155  1  0  0  0
 78 83  1  0  0  0
 79 83  1  0  0  0
 79 84  1  0  0  0
 79156  1  0  0  0
 79157  1  0  0  0
 80 89  1  0  0  0
 80158  1  0  0  0
 80159  1  0  0  0
 81 82  1  0  0  0
 81 89  1  0  0  0
 81160  1  0  0  0
 81161  1  0  0  0
 82162  1  0  0  0
 83 87  1  0  0  0
 83163  1  0  0  0
 84164  1  0  0  0
 85165  1  0  0  0
 85166  1  0  0  0
 85167  1  0  0  0
 86168  1  0  0  0
 86169  1  0  0  0
 86170  1  0  0  0
 86 89  1  0  0  0
 87 90  1  0  0  0
 87171  1  0  0  0
 88172  1  0  0  0
 89173  1  0  0  0
M  CHG  1  89   1
M  ISO  4   1 100  68 101  84 101  88 100
M  END
> <chiral flag>
0

> <version>
0

> <s_m_source_file>
/data/baiqing/PycharmProjects/Reinvent-master-3.2/result/LINK_invent/BTK/process_docking_weight1_custom_sum_contain_oxygen_bond_distance_aromatic_linkinvent_7_9_3/rearranged_h_0165.sdf

> <i_m_source_file_index>
77

> <r_mmod_Potential_Energy-OPLS-2005>
333.638702392578

> <r_mmod_Stretch_Energy-OPLS-2005>
170.505615234375

> <r_mmod_Bend_Energy-OPLS-2005>
301.629272460938

> <r_mmod_Torsional_Energy-OPLS-2005>
312.290283203125

> <r_mmod_Improper_Torsional_Energy-OPLS-2005>
6.20925951004028

> <r_mmod_Van_der_Waal_Energy-OPLS-2005>
155.954467773438

> <r_mmod_Electrostatic_Energy-OPLS-2005>
-268.738891601562

> <r_mmod_Solvation_Energy-OPLS-2005>
-447.001007080078

> <b_mmod_Minimization_Converged-OPLS-2005>
0

> <r_mmod_RMS_Derivative-OPLS-2005>
2.00870180130005

$$$$
78
                    3D
 Structure written by MMmdl.
167176  0  0  1  0            999 V2000
  -30.5535  -14.9797   20.4241 C   0  0  0  0  0  0
  -30.4325  -12.6073   19.5077 C   0  0  0  0  0  0
  -29.5117  -12.5474   18.2654 C   0  0  0  0  0  0
  -28.0441  -12.3382   18.6778 C   0  0  0  0  0  0
  -27.6279  -13.2611   19.8490 C   0  0  2  0  0  0
  -28.6720  -13.2891   20.9850 C   0  0  0  0  0  0
  -25.2400  -13.8258   20.5705 C   0  0  0  0  0  0
  -24.1737  -13.0444   20.9257 C   0  0  0  0  0  0
  -24.6414  -11.6958   20.8814 C   0  0  0  0  0  0
  -23.9110  -10.4297   21.0433 C   0  0  0  0  0  0
  -24.3658   -9.4192   21.9196 C   0  0  0  0  0  0
  -23.6331   -8.2227   22.0750 C   0  0  0  0  0  0
  -22.4296   -8.0287   21.3548 C   0  0  0  0  0  0
  -21.9949   -9.0259   20.4625 C   0  0  0  0  0  0
  -22.7294  -10.2137   20.3055 C   0  0  0  0  0  0
  -21.6856   -6.0744   22.5281 C   0  0  0  0  0  0
  -21.4009   -6.5651   23.8209 C   0  0  0  0  0  0
  -21.3663   -5.6806   24.9181 C   0  0  0  0  0  0
  -21.6043   -4.3064   24.7231 C   0  0  0  0  0  0
  -21.8824   -3.8162   23.4348 C   0  0  0  0  0  0
  -21.9187   -4.6977   22.3403 C   0  0  0  0  0  0
  -22.7753  -13.5189   21.1897 C   0  0  0  0  0  0
  -22.1656   -4.2168   21.0986 F   0  0  0  0  0  0
  -21.5633   -3.4538   25.7740 F   0  0  0  0  0  0
  -29.9506  -13.7126   20.3944 N   0  0  0  0  0  0
  -26.2867  -12.9531   20.3332 N   0  0  0  0  0  0
  -25.9357  -11.6649   20.5851 N   0  0  0  0  0  0
  -22.0433  -12.8132   22.0461 N   0  0  0  0  0  0
  -25.4002  -15.1964   20.4021 N   0  0  0  0  0  0
  -31.7011  -15.0434   19.9667 O   0  0  0  0  0  0
  -21.6645   -6.8895   21.4245 O   0  0  0  0  0  0
  -22.3404  -14.5483   20.6742 O   0  0  0  0  0  0
  -24.6452  -31.8399   23.1882 C   0  0  0  0  0  0
  -25.9202  -32.4693   23.8284 C   0  0  1  0  0  0
  -27.1958  -27.0840   20.1392 C   0  0  0  0  0  0
  -25.5941  -33.8503   24.2205 N   0  0  0  0  0  0
  -23.4511  -30.4581   21.5347 C   0  0  2  0  0  0
  -24.8968  -28.8792   20.0971 C   0  0  0  0  0  0
  -22.7569  -29.4526   22.4869 C   0  0  0  0  0  0
  -18.0313  -28.1402   22.8461 C   0  0  0  0  0  0
  -24.1477  -36.7261   23.2646 C   0  0  0  0  0  0
  -26.0084  -30.6855   21.4016 C   0  0  0  0  0  0
  -26.0676  -29.2927   20.7446 C   0  0  0  0  0  0
  -27.2062  -28.3989   20.7702 C   0  0  0  0  0  0
  -26.0230  -26.8066   19.4071 C   0  0  0  0  0  0
  -24.8903  -27.6532   19.4144 C   0  0  0  0  0  0
  -23.6773  -29.7892   20.1511 C   0  0  0  0  0  0
  -25.4113  -36.3040   24.0318 C   0  0  1  0  0  0
  -20.5917  -28.3724   23.1269 C   0  0  2  0  0  0
  -20.6790  -26.9404   22.5500 C   0  0  0  0  0  0
  -19.5832  -26.6371   21.5255 C   0  0  0  0  0  0
  -18.1955  -26.7961   22.1530 C   0  0  0  0  0  0
  -19.1558  -28.8875   23.2871 C   0  0  0  0  0  0
  -18.9472  -30.1460   23.8923 C   0  0  0  0  0  0
  -17.6480  -30.6598   24.0613 C   0  0  0  0  0  0
  -25.9058  -34.9411   23.5079 C   0  0  0  0  0  0
  -16.5369  -29.9099   23.6364 C   0  0  0  0  0  0
  -16.7295  -28.6525   23.0352 C   0  0  0  0  0  0
  -26.4509  -31.6595   25.0754 C   0  0  0  0  0  0
  -25.3690  -31.3789   26.1456 C   0  0  0  0  0  0
  -27.0405  -30.3000   24.6371 C   0  0  0  0  0  0
  -27.6038  -32.4379   25.7540 C   0  0  0  0  0  0
  -27.5569  -37.1778   24.8461 C   0  0  0  0  0  0
  -21.4255  -29.3038   22.3613 N   0  0  0  0  0  0
  -26.4281  -37.3746   23.9397 N   0  0  0  0  0  0
  -24.7224  -31.0169   22.0977 N   0  0  0  0  0  0
  -23.4180  -28.8094   23.3053 O   0  0  0  0  0  0
  -28.2123  -26.0626   20.3011 O   0  0  0  0  0  0
  -26.5652  -34.8892   22.4655 O   0  0  0  0  0  0
  -23.5562  -32.1328   23.7056 O   0  0  0  0  0  0
  -29.0245  -21.9204   20.1186 C   0  0  0  0  0  0
  -27.2800  -20.2532   20.1509 C   0  0  0  0  0  0
  -28.6738  -20.4617   20.2045 C   0  0  0  0  0  0
  -28.0779  -23.0847   20.1050 C   0  0  0  0  0  0
  -26.7305  -22.6738   20.2903 C   0  0  0  0  0  0
  -26.3326  -21.3072   20.2518 C   0  0  0  0  0  0
  -28.7996  -16.9916   22.9228 C   0  0  0  0  0  0
  -28.0859  -17.4862   21.6738 C   0  0  0  0  0  0
  -30.0002  -16.1884   22.4386 C   0  0  0  0  0  0
  -29.1265  -17.4725   20.5378 C   0  0  1  0  0  0
  -25.6377  -23.7048   20.4771 C   0  0  0  0  0  0
  -30.7739  -19.4115   21.3078 C   0  0  0  0  0  0
  -24.4813  -19.7470   20.4394 C   0  0  0  0  0  0
  -28.3590  -24.6631   19.5961 C   0  0  0  0  0  0
  -29.6587  -19.0989   20.3022 C   0  0  2  0  0  0
  -29.9368  -16.1526   20.9765 N   0  0  0  0  0  0
  -24.9704  -21.0752   20.2857 O   0  0  0  0  0  0
  -31.4673  -12.7498   19.1921 H   0  0  0  0  0  0
  -30.4251  -11.6569   20.0452 H   0  0  0  0  0  0
  -29.8274  -11.7514   17.5900 H   0  0  0  0  0  0
  -29.5973  -13.4794   17.7059 H   0  0  0  0  0  0
  -27.9210  -11.2937   18.9666 H   0  0  0  0  0  0
  -27.3869  -12.4965   17.8225 H   0  0  0  0  0  0
  -27.5918  -14.2685   19.4315 H   0  0  0  0  0  0
  -28.7654  -12.3104   21.4583 H   0  0  0  0  0  0
  -28.3535  -13.9806   21.7655 H   0  0  0  0  0  0
  -25.2792   -9.5668   22.4763 H   0  0  0  0  0  0
  -24.0030   -7.4622   22.7460 H   0  0  0  0  0  0
  -21.0878   -8.8800   19.8922 H   0  0  0  0  0  0
  -22.3771  -10.9686   19.6161 H   0  0  0  0  0  0
  -21.2003   -7.6157   23.9735 H   0  0  0  0  0  0
  -21.1478   -6.0521   25.9085 H   0  0  0  0  0  0
  -22.0598   -2.7619   23.2845 H   0  0  0  0  0  0
  -22.4082  -11.9792   22.4806 H   0  0  0  0  0  0
  -21.1053  -13.1098   22.2719 H   0  0  0  0  0  0
  -24.6313  -15.8514   20.5010 H   0  0  0  0  0  0
  -26.2507  -15.6258   20.0669 H   0  0  0  0  0  0
  -26.7258  -32.5258   23.0990 H   0  0  0  0  0  0
  -25.0039  -33.9650   25.0325 H   0  0  0  0  0  0
  -22.7570  -31.2868   21.3801 H   0  0  0  0  0  0
  -23.3749  -35.9583   23.3295 H   0  0  0  0  0  0
  -24.3567  -36.8911   22.2065 H   0  0  0  0  0  0
  -23.7221  -37.6439   23.6704 H   0  0  0  0  0  0
  -26.1708  -31.4301   20.6214 H   0  0  0  0  0  0
  -26.8799  -30.7362   22.0432 H   0  0  0  0  0  0
  -28.0782  -28.6888   21.3398 H   0  0  0  0  0  0
  -25.9351  -25.8822   18.8590 H   0  0  0  0  0  0
  -24.0036  -27.3488   18.8737 H   0  0  0  0  0  0
  -23.8198  -30.5659   19.4004 H   0  0  0  0  0  0
  -22.7875  -29.2394   19.8360 H   0  0  0  0  0  0
  -25.1300  -36.1867   25.0816 H   0  0  0  0  0  0
  -20.9988  -28.3360   24.1399 H   0  0  0  0  0  0
  -20.5636  -26.2335   23.3721 H   0  0  0  0  0  0
  -21.6663  -26.7366   22.1325 H   0  0  0  0  0  0
  -19.7020  -25.6279   21.1317 H   0  0  0  0  0  0
  -19.6924  -27.3180   20.6790 H   0  0  0  0  0  0
  -17.4317  -26.6850   21.3821 H   0  0  0  0  0  0
  -18.0223  -26.0059   22.8849 H   0  0  0  0  0  0
  -19.7957  -30.7250   24.2315 H   0  0  0  0  0  0
  -17.5048  -31.6267   24.5240 H   0  0  0  0  0  0
  -15.5385  -30.3011   23.7730 H   0  0  0  0  0  0
  -15.8682  -28.0879   22.7036 H   0  0  0  0  0  0
  -24.5826  -30.7195   25.7757 H   0  0  0  0  0  0
  -24.8932  -32.2980   26.4890 H   0  0  0  0  0  0
  -25.7964  -30.8922   27.0236 H   0  0  0  0  0  0
  -26.3048  -29.6697   24.1360 H   0  0  0  0  0  0
  -27.3986  -29.7320   25.4968 H   0  0  0  0  0  0
  -27.8965  -30.4252   23.9740 H   0  0  0  0  0  0
  -27.2616  -33.3670   26.2109 H   0  0  0  0  0  0
  -28.3848  -32.6965   25.0382 H   0  0  0  0  0  0
  -28.0711  -31.8523   26.5463 H   0  0  0  0  0  0
  -28.2575  -38.0083   24.7500 H   0  0  0  0  0  0
  -28.1077  -36.2607   24.6304 H   0  0  0  0  0  0
  -27.2288  -37.1440   25.8866 H   0  0  0  0  0  0
  -20.9473  -29.8689   21.6724 H   0  0  0  0  0  0
  -26.0151  -38.2811   24.1404 H   0  0  0  0  0  0
  -30.0722  -22.1707   20.0202 H   0  0  0  0  0  0
  -26.9353  -19.2365   20.0558 H   0  0  0  0  0  0
  -28.1312  -16.3863   23.5366 H   0  0  0  0  0  0
  -29.1413  -17.8355   23.5270 H   0  0  0  0  0  0
  -27.6525  -18.4543   21.8970 H   0  0  0  0  0  0
  -27.2624  -16.8173   21.4266 H   0  0  0  0  0  0
  -30.0049  -15.1957   22.8945 H   0  0  0  0  0  0
  -30.9289  -16.6696   22.7456 H   0  0  0  0  0  0
  -28.6129  -17.1990   19.6151 H   0  0  0  0  0  0
  -25.1789  -23.9294   19.5143 H   0  0  0  0  0  0
  -26.0221  -24.6064   20.9504 H   0  0  0  0  0  0
  -24.8597  -23.3370   21.1479 H   0  0  0  0  0  0
  -30.3714  -19.5714   22.3077 H   0  0  0  0  0  0
  -31.3046  -20.3187   21.0258 H   0  0  0  0  0  0
  -31.5112  -18.6119   21.3604 H   0  0  0  0  0  0
  -24.5976  -19.1588   19.5280 H   0  0  0  0  0  0
  -23.4152  -19.8015   20.6596 H   0  0  0  0  0  0
  -24.9501  -19.2204   21.2705 H   0  0  0  0  0  0
  -27.8342  -24.7445   18.6457 H   0  0  0  0  0  0
  -29.4003  -24.6493   19.2815 H   0  0  0  0  0  0
  -30.1472  -19.0700   19.3268 H   0  0  0  0  0  0
  1 25  1  0  0  0
  1 30  2  0  0  0
  1 86  1  0  0  0
  2  3  1  0  0  0
  2 25  1  0  0  0
  2 88  1  0  0  0
  2 89  1  0  0  0
  3  4  1  0  0  0
  3 90  1  0  0  0
  3 91  1  0  0  0
  4  5  1  0  0  0
  4 92  1  0  0  0
  4 93  1  0  0  0
  5  6  1  0  0  0
  5 26  1  0  0  0
  5 94  1  0  0  0
  6 25  1  0  0  0
  6 95  1  0  0  0
  6 96  1  0  0  0
  7  8  2  0  0  0
  7 26  1  0  0  0
  7 29  1  0  0  0
  8  9  1  0  0  0
  8 22  1  0  0  0
  9 10  1  0  0  0
  9 27  2  0  0  0
 10 11  2  0  0  0
 10 15  1  0  0  0
 11 12  1  0  0  0
 11 97  1  0  0  0
 12 13  2  0  0  0
 12 98  1  0  0  0
 13 14  1  0  0  0
 13 31  1  0  0  0
 14 15  2  0  0  0
 14 99  1  0  0  0
 15100  1  0  0  0
 16 17  2  0  0  0
 16 21  1  0  0  0
 16 31  1  0  0  0
 17 18  1  0  0  0
 17101  1  0  0  0
 18 19  2  0  0  0
 18102  1  0  0  0
 19 20  1  0  0  0
 19 24  1  0  0  0
 20 21  2  0  0  0
 20103  1  0  0  0
 21 23  1  0  0  0
 22 28  1  0  0  0
 22 32  2  0  0  0
 26 27  1  0  0  0
 28104  1  0  0  0
 28105  1  0  0  0
 29106  1  0  0  0
 29107  1  0  0  0
 33 34  1  0  0  0
 33 66  1  0  0  0
 33 70  2  0  0  0
 34 36  1  0  0  0
 34 59  1  0  0  0
 34108  1  0  0  0
 35 44  2  0  0  0
 35 45  1  0  0  0
 35 68  1  0  0  0
 36 56  1  0  0  0
 36109  1  0  0  0
 37 39  1  0  0  0
 37 47  1  0  0  0
 37 66  1  0  0  0
 37110  1  0  0  0
 38 43  2  0  0  0
 38 46  1  0  0  0
 38 47  1  0  0  0
 39 64  1  0  0  0
 39 67  2  0  0  0
 40 52  1  0  0  0
 40 53  2  0  0  0
 40 58  1  0  0  0
 41111  1  0  0  0
 41112  1  0  0  0
 41113  1  0  0  0
 41 48  1  0  0  0
 42 43  1  0  0  0
 42 66  1  0  0  0
 42114  1  0  0  0
 42115  1  0  0  0
 43 44  1  0  0  0
 44116  1  0  0  0
 45 46  2  0  0  0
 45117  1  0  0  0
 46118  1  0  0  0
 47119  1  0  0  0
 47120  1  0  0  0
 48 56  1  0  0  0
 48 65  1  0  0  0
 48121  1  0  0  0
 49 50  1  0  0  0
 49 53  1  0  0  0
 49 64  1  0  0  0
 49122  1  0  0  0
 50 51  1  0  0  0
 50123  1  0  0  0
 50124  1  0  0  0
 51 52  1  0  0  0
 51125  1  0  0  0
 51126  1  0  0  0
 52127  1  0  0  0
 52128  1  0  0  0
 53 54  1  0  0  0
 54 55  2  0  0  0
 54129  1  0  0  0
 55 57  1  0  0  0
 55130  1  0  0  0
 56 69  2  0  0  0
 57 58  2  0  0  0
 57131  1  0  0  0
 58132  1  0  0  0
 59 60  1  0  0  0
 59 61  1  0  0  0
 59 62  1  0  0  0
 60133  1  0  0  0
 60134  1  0  0  0
 60135  1  0  0  0
 61136  1  0  0  0
 61137  1  0  0  0
 61138  1  0  0  0
 62139  1  0  0  0
 62140  1  0  0  0
 62141  1  0  0  0
 63 65  1  0  0  0
 63142  1  0  0  0
 63143  1  0  0  0
 63144  1  0  0  0
 64145  1  0  0  0
 65146  1  0  0  0
 68 84  1  0  0  0
 71 73  2  0  0  0
 71 74  1  0  0  0
 71147  1  0  0  0
 72 73  1  0  0  0
 72 76  2  0  0  0
 72148  1  0  0  0
 73 85  1  0  0  0
 74 75  2  0  0  0
 74 84  1  0  0  0
 75 76  1  0  0  0
 75 81  1  0  0  0
 76 87  1  0  0  0
 77 78  1  0  0  0
 77 79  1  0  0  0
 77149  1  0  0  0
 77150  1  0  0  0
 78151  1  0  0  0
 78152  1  0  0  0
 78 80  1  0  0  0
 79 86  1  0  0  0
 79153  1  0  0  0
 79154  1  0  0  0
 80 85  1  0  0  0
 80 86  1  0  0  0
 80155  1  0  0  0
 81156  1  0  0  0
 81157  1  0  0  0
 81158  1  0  0  0
 82159  1  0  0  0
 82160  1  0  0  0
 82161  1  0  0  0
 82 85  1  0  0  0
 83 87  1  0  0  0
 83162  1  0  0  0
 83163  1  0  0  0
 83164  1  0  0  0
 84165  1  0  0  0
 84166  1  0  0  0
 85167  1  0  0  0
M  ISO  4   1 100  68 101  84 101  86 100
M  END
> <chiral flag>
0

> <version>
0

> <s_m_source_file>
/data/baiqing/PycharmProjects/Reinvent-master-3.2/result/LINK_invent/BTK/process_docking_weight1_custom_sum_contain_oxygen_bond_distance_aromatic_linkinvent_7_9_3/rearranged_h_0165.sdf

> <i_m_source_file_index>
78

> <r_mmod_Potential_Energy-OPLS-2005>
999.674621582031

> <r_mmod_Stretch_Energy-OPLS-2005>
331.369903564453

> <r_mmod_Bend_Energy-OPLS-2005>
379.814819335938

> <r_mmod_Torsional_Energy-OPLS-2005>
414.510772705078

> <r_mmod_Improper_Torsional_Energy-OPLS-2005>
4.4629340171814

> <r_mmod_Van_der_Waal_Energy-OPLS-2005>
130.796249389648

> <r_mmod_Electrostatic_Energy-OPLS-2005>
-299.469757080078

> <r_mmod_Solvation_Energy-OPLS-2005>
-195.499893188477

> <b_mmod_Minimization_Converged-OPLS-2005>
0

> <r_mmod_RMS_Derivative-OPLS-2005>
4.60921573638916

$$$$
79
                    3D
 Structure written by MMmdl.
173184  0  0  1  0            999 V2000
  -30.6918  -14.5200   20.5317 C   0  0  0  0  0  0
  -30.4179  -12.3225   19.4399 C   0  0  0  0  0  0
  -29.4983  -12.5008   18.2137 C   0  0  0  0  0  0
  -28.0192  -12.3608   18.6247 C   0  0  0  0  0  0
  -27.6572  -13.2154   19.8698 C   0  0  2  0  0  0
  -28.6990  -13.0389   20.9982 C   0  0  0  0  0  0
  -25.2569  -13.8170   20.5678 C   0  0  0  0  0  0
  -24.1831  -13.0436   20.9178 C   0  0  0  0  0  0
  -24.6401  -11.6907   20.8736 C   0  0  0  0  0  0
  -23.9073  -10.4286   21.0405 C   0  0  0  0  0  0
  -24.3626   -9.4204   21.9184 C   0  0  0  0  0  0
  -23.6298   -8.2243   22.0758 C   0  0  0  0  0  0
  -22.4279   -8.0275   21.3550 C   0  0  0  0  0  0
  -21.9921   -9.0247   20.4648 C   0  0  0  0  0  0
  -22.7253  -10.2130   20.3051 C   0  0  0  0  0  0
  -21.6847   -6.0736   22.5273 C   0  0  0  0  0  0
  -21.4017   -6.5638   23.8216 C   0  0  0  0  0  0
  -21.3660   -5.6792   24.9178 C   0  0  0  0  0  0
  -21.6039   -4.3053   24.7235 C   0  0  0  0  0  0
  -21.8817   -3.8148   23.4350 C   0  0  0  0  0  0
  -21.9198   -4.6960   22.3405 C   0  0  0  0  0  0
  -22.7854  -13.5236   21.1840 C   0  0  0  0  0  0
  -22.1660   -4.2149   21.0971 F   0  0  0  0  0  0
  -21.5634   -3.4539   25.7740 F   0  0  0  0  0  0
  -30.0249  -13.3344   20.4362 N   0  0  0  0  0  0
  -26.3006  -12.9361   20.3341 N   0  0  0  0  0  0
  -25.9327  -11.6509   20.5769 N   0  0  0  0  0  0
  -22.0498  -12.8210   22.0386 N   0  0  0  0  0  0
  -25.4282  -15.1892   20.4069 N   0  0  0  0  0  0
  -31.8483  -14.6576   20.1225 O   0  0  0  0  0  0
  -21.6634   -6.8879   21.4231 O   0  0  0  0  0  0
  -22.3549  -14.5542   20.6698 O   0  0  0  0  0  0
  -24.6168  -31.8661   23.2068 C   0  0  0  0  0  0
  -25.9039  -32.4817   23.8383 C   0  0  1  0  0  0
  -27.2387  -27.3969   20.1223 C   0  0  0  0  0  0
  -25.5902  -33.8619   24.2329 N   0  0  0  0  0  0
  -23.4076  -30.4849   21.5488 C   0  0  2  0  0  0
  -24.8571  -28.9332   20.1302 C   0  0  0  0  0  0
  -22.7422  -29.4636   22.5000 C   0  0  0  0  0  0
  -18.0271  -28.1364   22.8508 C   0  0  0  0  0  0
  -24.1486  -36.7296   23.2639 C   0  0  0  0  0  0
  -25.9383  -30.8168   21.3656 C   0  0  0  0  0  0
  -26.0179  -29.4416   20.7283 C   0  0  0  0  0  0
  -27.2124  -28.6810   20.7217 C   0  0  0  0  0  0
  -26.0629  -26.9037   19.5239 C   0  0  0  0  0  0
  -24.8742  -27.6633   19.5269 C   0  0  0  0  0  0
  -23.6228  -29.8085   20.1675 C   0  0  0  0  0  0
  -25.4111  -36.3116   24.0352 C   0  0  1  0  0  0
  -20.5872  -28.3666   23.1319 C   0  0  2  0  0  0
  -20.6773  -26.9407   22.5424 C   0  0  0  0  0  0
  -19.5758  -26.6383   21.5214 C   0  0  0  0  0  0
  -18.1927  -26.7911   22.1624 C   0  0  0  0  0  0
  -19.1526  -28.8832   23.2905 C   0  0  0  0  0  0
  -18.9450  -30.1432   23.8932 C   0  0  0  0  0  0
  -17.6452  -30.6583   24.0560 C   0  0  0  0  0  0
  -25.9058  -34.9477   23.5143 C   0  0  0  0  0  0
  -16.5346  -29.9091   23.6318 C   0  0  0  0  0  0
  -16.7259  -28.6493   23.0370 C   0  0  0  0  0  0
  -26.4471  -31.6593   25.0707 C   0  0  0  0  0  0
  -25.3722  -31.3664   26.1438 C   0  0  0  0  0  0
  -27.0312  -30.3057   24.6045 C   0  0  0  0  0  0
  -27.6070  -32.4295   25.7460 C   0  0  0  0  0  0
  -27.5594  -37.1785   24.8457 C   0  0  0  0  0  0
  -21.4151  -29.3025   22.3731 N   0  0  0  0  0  0
  -26.4285  -37.3813   23.9442 N   0  0  0  0  0  0
  -24.6725  -31.0731   22.0987 N   0  0  0  0  0  0
  -23.4181  -28.8187   23.3056 O   0  0  0  0  0  0
  -28.4100  -26.6791   19.9935 O   0  0  0  0  0  0
  -26.5617  -34.8925   22.4701 O   0  0  0  0  0  0
  -23.5359  -32.1436   23.7454 O   0  0  0  0  0  0
  -29.2356  -21.6648   21.0985 C   0  0  0  0  0  0
  -28.6168  -22.9249   21.5235 C   0  0  0  0  0  0
  -29.3997  -20.6095   21.9339 C   0  0  0  0  0  0
  -28.1767  -22.9847   22.8082 C   0  0  0  0  0  0
  -28.9915  -20.7289   23.3412 C   0  0  0  0  0  0
  -26.1238  -24.6315   22.5444 C   0  0  0  0  0  0
  -25.9499  -23.9547   23.8743 C   0  0  0  0  0  0
  -29.7887  -24.8311   20.2396 C   0  0  0  0  0  0
  -29.7464  -17.8033   19.6438 C   0  0  0  0  0  0
  -28.5136  -24.0938   20.5541 C   0  0  2  0  0  0
  -27.3438  -24.1357   23.3046 C   0  0  0  0  0  0
  -29.4806  -18.1805   21.0743 C   0  0  1  0  0  0
  -30.3902  -16.9802   20.7430 C   0  0  1  0  0  0
  -28.6737  -25.6007   20.9109 C   0  0  1  0  0  0
  -29.6177  -22.1159   26.0065 C   0  0  0  0  0  0
  -27.1877  -21.3276   25.8714 C   0  0  0  0  0  0
  -28.2898  -22.1858   25.2162 C   0  0  0  0  0  0
  -28.4534  -21.9294   23.7443 N   0  0  0  0  0  0
  -30.0677  -19.4117   21.6193 N   0  0  0  0  0  0
  -29.9569  -15.6017   20.8845 N   0  0  0  0  0  0
  -29.1732  -19.7826   24.1177 O   0  0  0  0  0  0
  -31.4651  -12.4066   19.1467 H   0  0  0  0  0  0
  -30.3060  -11.3204   19.8575 H   0  0  0  0  0  0
  -29.7433  -11.7660   17.4461 H   0  0  0  0  0  0
  -29.6659  -13.4808   17.7629 H   0  0  0  0  0  0
  -27.8355  -11.3058   18.8337 H   0  0  0  0  0  0
  -27.3701  -12.6204   17.7873 H   0  0  0  0  0  0
  -27.6890  -14.2568   19.5486 H   0  0  0  0  0  0
  -28.6788  -12.0179   21.3828 H   0  0  0  0  0  0
  -28.4668  -13.6813   21.8486 H   0  0  0  0  0  0
  -25.2773   -9.5679   22.4760 H   0  0  0  0  0  0
  -23.9999   -7.4641   22.7482 H   0  0  0  0  0  0
  -21.0855   -8.8771   19.8951 H   0  0  0  0  0  0
  -22.3713  -10.9668   19.6156 H   0  0  0  0  0  0
  -21.1997   -7.6148   23.9720 H   0  0  0  0  0  0
  -21.1484   -6.0521   25.9081 H   0  0  0  0  0  0
  -22.0596   -2.7605   23.2848 H   0  0  0  0  0  0
  -22.4114  -11.9868   22.4758 H   0  0  0  0  0  0
  -21.1116  -13.1238   22.2588 H   0  0  0  0  0  0
  -24.6577  -15.8417   20.5026 H   0  0  0  0  0  0
  -26.2766  -15.6258   20.0695 H   0  0  0  0  0  0
  -26.7105  -32.5541   23.1147 H   0  0  0  0  0  0
  -25.0047  -33.9778   25.0475 H   0  0  0  0  0  0
  -22.6991  -31.3031   21.4020 H   0  0  0  0  0  0
  -23.3794  -35.9576   23.3259 H   0  0  0  0  0  0
  -24.3600  -36.8956   22.2061 H   0  0  0  0  0  0
  -23.7169  -37.6456   23.6682 H   0  0  0  0  0  0
  -26.0470  -31.5713   20.5858 H   0  0  0  0  0  0
  -26.8280  -30.8845   21.9788 H   0  0  0  0  0  0
  -28.1137  -29.0791   21.1658 H   0  0  0  0  0  0
  -26.0741  -25.9378   19.0390 H   0  0  0  0  0  0
  -23.9820  -27.2681   19.0611 H   0  0  0  0  0  0
  -23.7413  -30.5796   19.4053 H   0  0  0  0  0  0
  -22.7458  -29.2310   19.8669 H   0  0  0  0  0  0
  -25.1273  -36.1978   25.0845 H   0  0  0  0  0  0
  -20.9946  -28.3220   24.1442 H   0  0  0  0  0  0
  -20.5692  -26.2267   23.3606 H   0  0  0  0  0  0
  -21.6637  -26.7451   22.1204 H   0  0  0  0  0  0
  -19.6926  -25.6300   21.1227 H   0  0  0  0  0  0
  -19.6691  -27.3208   20.6757 H   0  0  0  0  0  0
  -17.4200  -26.6675   21.4013 H   0  0  0  0  0  0
  -18.0316  -26.0033   22.9001 H   0  0  0  0  0  0
  -19.7935  -30.7220   24.2339 H   0  0  0  0  0  0
  -17.5023  -31.6272   24.5148 H   0  0  0  0  0  0
  -15.5360  -30.3007   23.7627 H   0  0  0  0  0  0
  -15.8654  -28.0811   22.7105 H   0  0  0  0  0  0
  -24.5915  -30.7018   25.7736 H   0  0  0  0  0  0
  -24.8890  -32.2796   26.4915 H   0  0  0  0  0  0
  -25.8058  -30.8790   27.0181 H   0  0  0  0  0  0
  -26.2841  -29.6805   24.1155 H   0  0  0  0  0  0
  -27.4188  -29.7299   25.4464 H   0  0  0  0  0  0
  -27.8623  -30.4436   23.9127 H   0  0  0  0  0  0
  -27.2747  -33.3635   26.2003 H   0  0  0  0  0  0
  -28.3877  -32.6784   25.0257 H   0  0  0  0  0  0
  -28.0717  -31.8414   26.5378 H   0  0  0  0  0  0
  -28.2551  -38.0146   24.7644 H   0  0  0  0  0  0
  -28.1155  -36.2698   24.6121 H   0  0  0  0  0  0
  -27.2335  -37.1227   25.8855 H   0  0  0  0  0  0
  -20.9339  -29.8748   21.6943 H   0  0  0  0  0  0
  -26.0181  -38.2879   24.1509 H   0  0  0  0  0  0
  -29.5870  -21.5813   20.0795 H   0  0  0  0  0  0
  -25.9600  -25.7066   22.4955 H   0  0  0  0  0  0
  -25.7979  -24.0786   21.6653 H   0  0  0  0  0  0
  -25.5019  -22.9647   23.8580 H   0  0  0  0  0  0
  -25.6844  -24.5746   24.7287 H   0  0  0  0  0  0
  -29.9924  -25.0239   19.1879 H   0  0  0  0  0  0
  -30.6680  -24.6062   20.8414 H   0  0  0  0  0  0
  -30.3974  -18.4507   19.0591 H   0  0  0  0  0  0
  -28.9319  -17.3438   19.0858 H   0  0  0  0  0  0
  -27.8509  -23.8695   19.7202 H   0  0  0  0  0  0
  -27.9564  -24.8989   23.7812 H   0  0  0  0  0  0
  -28.4924  -17.9806   21.4862 H   0  0  0  0  0  0
  -31.4556  -17.1513   20.8976 H   0  0  0  0  0  0
  -28.8623  -25.9360   21.9287 H   0  0  0  0  0  0
  -29.4792  -22.4945   27.0200 H   0  0  0  0  0  0
  -30.3903  -22.7273   25.5395 H   0  0  0  0  0  0
  -30.0059  -21.1017   26.1056 H   0  0  0  0  0  0
  -26.9806  -21.6805   26.8824 H   0  0  0  0  0  0
  -27.4667  -20.2773   25.9513 H   0  0  0  0  0  0
  -26.2543  -21.3779   25.3141 H   0  0  0  0  0  0
  -27.9858  -23.2101   25.4015 H   0  0  0  0  0  0
  -30.5797  -19.1343   22.4542 H   0  0  0  0  0  0
  -29.0099  -15.4335   21.1905 H   0  0  0  0  0  0
  1 25  1  0  0  0
  1 30  2  0  0  0
  1 90  1  0  0  0
  2  3  1  0  0  0
  2 25  1  0  0  0
  2 92  1  0  0  0
  2 93  1  0  0  0
  3  4  1  0  0  0
  3 94  1  0  0  0
  3 95  1  0  0  0
  4  5  1  0  0  0
  4 96  1  0  0  0
  4 97  1  0  0  0
  5  6  1  0  0  0
  5 26  1  0  0  0
  5 98  1  0  0  0
  6 25  1  0  0  0
  6 99  1  0  0  0
  6100  1  0  0  0
  7  8  2  0  0  0
  7 26  1  0  0  0
  7 29  1  0  0  0
  8  9  1  0  0  0
  8 22  1  0  0  0
  9 10  1  0  0  0
  9 27  2  0  0  0
 10 11  2  0  0  0
 10 15  1  0  0  0
 11 12  1  0  0  0
 11101  1  0  0  0
 12 13  2  0  0  0
 12102  1  0  0  0
 13 14  1  0  0  0
 13 31  1  0  0  0
 14 15  2  0  0  0
 14103  1  0  0  0
 15104  1  0  0  0
 16 17  2  0  0  0
 16 21  1  0  0  0
 16 31  1  0  0  0
 17 18  1  0  0  0
 17105  1  0  0  0
 18 19  2  0  0  0
 18106  1  0  0  0
 19 20  1  0  0  0
 19 24  1  0  0  0
 20 21  2  0  0  0
 20107  1  0  0  0
 21 23  1  0  0  0
 22 28  1  0  0  0
 22 32  2  0  0  0
 26 27  1  0  0  0
 28108  1  0  0  0
 28109  1  0  0  0
 29110  1  0  0  0
 29111  1  0  0  0
 33 34  1  0  0  0
 33 66  1  0  0  0
 33 70  2  0  0  0
 34 36  1  0  0  0
 34 59  1  0  0  0
 34112  1  0  0  0
 35 44  2  0  0  0
 35 45  1  0  0  0
 35 68  1  0  0  0
 36 56  1  0  0  0
 36113  1  0  0  0
 37 39  1  0  0  0
 37 47  1  0  0  0
 37 66  1  0  0  0
 37114  1  0  0  0
 38 43  2  0  0  0
 38 46  1  0  0  0
 38 47  1  0  0  0
 39 64  1  0  0  0
 39 67  2  0  0  0
 40 52  1  0  0  0
 40 53  2  0  0  0
 40 58  1  0  0  0
 41115  1  0  0  0
 41116  1  0  0  0
 41117  1  0  0  0
 41 48  1  0  0  0
 42 43  1  0  0  0
 42 66  1  0  0  0
 42118  1  0  0  0
 42119  1  0  0  0
 43 44  1  0  0  0
 44120  1  0  0  0
 45 46  2  0  0  0
 45121  1  0  0  0
 46122  1  0  0  0
 47123  1  0  0  0
 47124  1  0  0  0
 48 56  1  0  0  0
 48 65  1  0  0  0
 48125  1  0  0  0
 49 50  1  0  0  0
 49 53  1  0  0  0
 49 64  1  0  0  0
 49126  1  0  0  0
 50 51  1  0  0  0
 50127  1  0  0  0
 50128  1  0  0  0
 51 52  1  0  0  0
 51129  1  0  0  0
 51130  1  0  0  0
 52131  1  0  0  0
 52132  1  0  0  0
 53 54  1  0  0  0
 54 55  2  0  0  0
 54133  1  0  0  0
 55 57  1  0  0  0
 55134  1  0  0  0
 56 69  2  0  0  0
 57 58  2  0  0  0
 57135  1  0  0  0
 58136  1  0  0  0
 59 60  1  0  0  0
 59 61  1  0  0  0
 59 62  1  0  0  0
 60137  1  0  0  0
 60138  1  0  0  0
 60139  1  0  0  0
 61140  1  0  0  0
 61141  1  0  0  0
 61142  1  0  0  0
 62143  1  0  0  0
 62144  1  0  0  0
 62145  1  0  0  0
 63 65  1  0  0  0
 63146  1  0  0  0
 63147  1  0  0  0
 63148  1  0  0  0
 64149  1  0  0  0
 65150  1  0  0  0
 68 84  1  0  0  0
 71 72  1  0  0  0
 71 73  2  0  0  0
 71151  1  0  0  0
 72 74  2  0  0  0
 72 80  1  0  0  0
 73 75  1  0  0  0
 73 89  1  0  0  0
 74 88  1  0  0  0
 74 81  1  0  0  0
 75 88  1  0  0  0
 75 91  2  0  0  0
 76 77  1  0  0  0
 76 81  1  0  0  0
 76152  1  0  0  0
 76153  1  0  0  0
 77 81  1  0  0  0
 77154  1  0  0  0
 77155  1  0  0  0
 78 80  1  0  0  0
 78 84  1  0  0  0
 78156  1  0  0  0
 78157  1  0  0  0
 79 82  1  0  0  0
 79 83  1  0  0  0
 79158  1  0  0  0
 79159  1  0  0  0
 80 84  1  0  0  0
 80160  1  0  0  0
 81161  1  0  0  0
 82 83  1  0  0  0
 82 89  1  0  0  0
 82162  1  0  0  0
 83 90  1  0  0  0
 83163  1  0  0  0
 84164  1  0  0  0
 85165  1  0  0  0
 85166  1  0  0  0
 85167  1  0  0  0
 85 87  1  0  0  0
 86 87  1  0  0  0
 86168  1  0  0  0
 86169  1  0  0  0
 86170  1  0  0  0
 87 88  1  0  0  0
 87171  1  0  0  0
 89172  1  0  0  0
 90173  1  0  0  0
M  ISO  4   1 100  68 101  84 101  90 100
M  END
> <chiral flag>
0

> <version>
0

> <s_m_source_file>
/data/baiqing/PycharmProjects/Reinvent-master-3.2/result/LINK_invent/BTK/process_docking_weight1_custom_sum_contain_oxygen_bond_distance_aromatic_linkinvent_7_9_3/rearranged_h_0165.sdf

> <i_m_source_file_index>
79

> <r_mmod_Potential_Energy-OPLS-2005>
208.209197998047

> <r_mmod_Stretch_Energy-OPLS-2005>
60.3696937561035

> <r_mmod_Bend_Energy-OPLS-2005>
141.667053222656

> <r_mmod_Torsional_Energy-OPLS-2005>
372.166076660156

> <r_mmod_Improper_Torsional_Energy-OPLS-2005>
11.3349494934082

> <r_mmod_Van_der_Waal_Energy-OPLS-2005>
152.264511108398

> <r_mmod_Electrostatic_Energy-OPLS-2005>
-336.353057861328

> <r_mmod_Solvation_Energy-OPLS-2005>
-211.799850463867

> <b_mmod_Minimization_Converged-OPLS-2005>
0

> <r_mmod_RMS_Derivative-OPLS-2005>
2.30566167831421

$$$$
80
                    3D
 Structure written by MMmdl.
164173  0  0  1  0            999 V2000
  -30.6460  -14.7337   20.4827 C   0  0  0  0  0  0
  -30.4244  -12.4573   19.4744 C   0  0  0  0  0  0
  -29.5064  -12.5056   18.2350 C   0  0  0  0  0  0
  -28.0318  -12.3369   18.6478 C   0  0  0  0  0  0
  -27.6387  -13.2390   19.8485 C   0  0  2  0  0  0
  -28.6830  -13.1911   20.9838 C   0  0  0  0  0  0
  -25.2495  -13.8217   20.5721 C   0  0  0  0  0  0
  -24.1788  -13.0447   20.9203 C   0  0  0  0  0  0
  -24.6391  -11.6923   20.8742 C   0  0  0  0  0  0
  -23.9063  -10.4293   21.0402 C   0  0  0  0  0  0
  -24.3614   -9.4202   21.9179 C   0  0  0  0  0  0
  -23.6285   -8.2239   22.0754 C   0  0  0  0  0  0
  -22.4264   -8.0276   21.3543 C   0  0  0  0  0  0
  -21.9898   -9.0245   20.4641 C   0  0  0  0  0  0
  -22.7230  -10.2126   20.3052 C   0  0  0  0  0  0
  -21.6849   -6.0724   22.5272 C   0  0  0  0  0  0
  -21.4009   -6.5634   23.8201 C   0  0  0  0  0  0
  -21.3663   -5.6794   24.9168 C   0  0  0  0  0  0
  -21.6047   -4.3055   24.7224 C   0  0  0  0  0  0
  -21.8820   -3.8140   23.4347 C   0  0  0  0  0  0
  -21.9192   -4.6952   22.3400 C   0  0  0  0  0  0
  -22.7807  -13.5217   21.1863 C   0  0  0  0  0  0
  -22.1662   -4.2138   21.0977 F   0  0  0  0  0  0
  -21.5631   -3.4536   25.7735 F   0  0  0  0  0  0
  -29.9801  -13.5310   20.3953 N   0  0  0  0  0  0
  -26.2925  -12.9437   20.3292 N   0  0  0  0  0  0
  -25.9324  -11.6563   20.5744 N   0  0  0  0  0  0
  -22.0459  -12.8207   22.0422 N   0  0  0  0  0  0
  -25.4202  -15.1948   20.4197 N   0  0  0  0  0  0
  -31.8418  -14.7807   20.1768 O   0  0  0  0  0  0
  -21.6641   -6.8863   21.4231 O   0  0  0  0  0  0
  -22.3488  -14.5513   20.6700 O   0  0  0  0  0  0
  -24.6339  -31.8545   23.1999 C   0  0  0  0  0  0
  -25.9156  -32.4753   23.8345 C   0  0  1  0  0  0
  -27.2112  -27.2588   20.1434 C   0  0  0  0  0  0
  -25.5956  -33.8558   24.2263 N   0  0  0  0  0  0
  -23.4318  -30.4781   21.5409 C   0  0  2  0  0  0
  -24.8810  -28.9296   20.1053 C   0  0  0  0  0  0
  -22.7525  -29.4604   22.4900 C   0  0  0  0  0  0
  -18.0298  -28.1412   22.8474 C   0  0  0  0  0  0
  -24.1489  -36.7282   23.2641 C   0  0  0  0  0  0
  -25.9789  -30.7701   21.3788 C   0  0  0  0  0  0
  -26.0518  -29.3925   20.7208 C   0  0  0  0  0  0
  -27.2251  -28.5694   20.7285 C   0  0  0  0  0  0
  -26.0288  -26.8740   19.4789 C   0  0  0  0  0  0
  -24.8752  -27.6798   19.4669 C   0  0  0  0  0  0
  -23.6515  -29.8159   20.1547 C   0  0  0  0  0  0
  -25.4113  -36.3066   24.0330 C   0  0  1  0  0  0
  -20.5905  -28.3718   23.1265 C   0  0  2  0  0  0
  -20.6790  -26.9429   22.5412 C   0  0  0  0  0  0
  -19.5760  -26.6396   21.5226 C   0  0  0  0  0  0
  -18.1938  -26.7949   22.1629 C   0  0  0  0  0  0
  -19.1550  -28.8880   23.2861 C   0  0  0  0  0  0
  -18.9466  -30.1478   23.8876 C   0  0  0  0  0  0
  -17.6465  -30.6598   24.0570 C   0  0  0  0  0  0
  -25.9056  -34.9441   23.5095 C   0  0  0  0  0  0
  -16.5357  -29.9092   23.6344 C   0  0  0  0  0  0
  -16.7283  -28.6520   23.0348 C   0  0  0  0  0  0
  -26.4503  -31.6578   25.0740 C   0  0  0  0  0  0
  -25.3718  -31.3718   26.1459 C   0  0  0  0  0  0
  -27.0357  -30.2998   24.6228 C   0  0  0  0  0  0
  -27.6060  -32.4319   25.7502 C   0  0  0  0  0  0
  -27.5571  -37.1796   24.8463 C   0  0  0  0  0  0
  -21.4226  -29.3063   22.3651 N   0  0  0  0  0  0
  -26.4278  -37.3779   23.9413 N   0  0  0  0  0  0
  -24.7006  -31.0511   22.0968 N   0  0  0  0  0  0
  -23.4210  -28.8136   23.3005 O   0  0  0  0  0  0
  -28.2420  -26.2951   20.2146 O   0  0  0  0  0  0
  -26.5617  -34.8912   22.4659 O   0  0  0  0  0  0
  -23.5481  -32.1366   23.7291 O   0  0  0  0  0  0
  -28.7072  -21.2730   21.8467 C   0  0  0  0  0  0
  -28.8987  -22.9899   19.6571 C   0  0  0  0  0  0
  -29.1797  -20.6787   20.6477 C   0  0  0  0  0  0
  -28.3389  -22.6551   21.9559 C   0  0  0  0  0  0
  -28.4366  -23.5829   20.8647 C   0  0  0  0  0  0
  -29.2525  -21.5865   19.5400 C   0  0  0  0  0  0
  -29.6872  -18.2856   21.8753 C   0  0  0  0  0  0
  -28.9988  -18.1704   19.5737 C   0  0  0  0  0  0
  -30.3751  -16.8572   21.7524 C   0  0  0  0  0  0
  -29.7097  -16.7586   19.4319 C   0  0  0  0  0  0
  -29.6833  -19.1485   20.5742 C   0  0  0  0  0  0
  -27.8006  -23.1186   23.3008 C   0  0  0  0  0  0
  -29.4763  -21.7741   17.1543 C   0  0  0  0  0  0
  -27.8878  -25.0862   21.0327 C   0  0  0  0  0  0
  -29.9379  -15.9300   20.6594 N   0  0  0  0  0  0
  -29.6865  -21.0395   18.3530 O   0  0  0  0  0  0
  -31.4656  -12.5735   19.1685 H   0  0  0  0  0  0
  -30.3648  -11.4847   19.9661 H   0  0  0  0  0  0
  -29.7872  -11.7252   17.5266 H   0  0  0  0  0  0
  -29.6364  -13.4556   17.7137 H   0  0  0  0  0  0
  -27.8821  -11.2886   18.9087 H   0  0  0  0  0  0
  -27.3770  -12.5343   17.7978 H   0  0  0  0  0  0
  -27.6275  -14.2587   19.4633 H   0  0  0  0  0  0
  -28.7189  -12.2039   21.4457 H   0  0  0  0  0  0
  -28.4230  -13.8978   21.7736 H   0  0  0  0  0  0
  -25.2759   -9.5680   22.4751 H   0  0  0  0  0  0
  -23.9986   -7.4636   22.7480 H   0  0  0  0  0  0
  -21.0831   -8.8761   19.8947 H   0  0  0  0  0  0
  -22.3683  -10.9661   19.6162 H   0  0  0  0  0  0
  -21.1992   -7.6141   23.9700 H   0  0  0  0  0  0
  -21.1489   -6.0526   25.9072 H   0  0  0  0  0  0
  -22.0595   -2.7600   23.2855 H   0  0  0  0  0  0
  -22.4071  -11.9868   22.4817 H   0  0  0  0  0  0
  -21.1075  -13.1222   22.2615 H   0  0  0  0  0  0
  -24.6592  -15.8537   20.5409 H   0  0  0  0  0  0
  -26.2890  -15.6361   20.1450 H   0  0  0  0  0  0
  -26.7232  -32.5377   23.1092 H   0  0  0  0  0  0
  -25.0123  -33.9694   25.0419 H   0  0  0  0  0  0
  -22.7294  -31.3014   21.3939 H   0  0  0  0  0  0
  -23.3755  -35.9611   23.3295 H   0  0  0  0  0  0
  -24.3579  -36.8912   22.2059 H   0  0  0  0  0  0
  -23.7248  -37.6480   23.6670 H   0  0  0  0  0  0
  -26.1186  -31.5302   20.6081 H   0  0  0  0  0  0
  -26.8569  -30.8175   22.0112 H   0  0  0  0  0  0
  -28.1174  -28.9130   21.2329 H   0  0  0  0  0  0
  -25.9840  -25.9076   18.9980 H   0  0  0  0  0  0
  -23.9843  -27.3238   18.9711 H   0  0  0  0  0  0
  -23.7757  -30.5950   19.4011 H   0  0  0  0  0  0
  -22.7703  -29.2488   19.8489 H   0  0  0  0  0  0
  -25.1298  -36.1908   25.0821 H   0  0  0  0  0  0
  -20.9985  -28.3293   24.1395 H   0  0  0  0  0  0
  -20.5710  -26.2320   23.3616 H   0  0  0  0  0  0
  -21.6650  -26.7472   22.1183 H   0  0  0  0  0  0
  -19.6918  -25.6304   21.1262 H   0  0  0  0  0  0
  -19.6703  -27.3201   20.6749 H   0  0  0  0  0  0
  -17.4213  -26.6709   21.4022 H   0  0  0  0  0  0
  -18.0311  -26.0105   22.9028 H   0  0  0  0  0  0
  -19.7941  -30.7313   24.2227 H   0  0  0  0  0  0
  -17.5017  -31.6269   24.5190 H   0  0  0  0  0  0
  -15.5356  -30.2993   23.7680 H   0  0  0  0  0  0
  -15.8684  -28.0842   22.7069 H   0  0  0  0  0  0
  -24.5915  -30.7046   25.7780 H   0  0  0  0  0  0
  -24.8880  -32.2874   26.4871 H   0  0  0  0  0  0
  -25.8033  -30.8907   27.0248 H   0  0  0  0  0  0
  -26.2942  -29.6735   24.1259 H   0  0  0  0  0  0
  -27.4051  -29.7274   25.4747 H   0  0  0  0  0  0
  -27.8808  -30.4279   23.9466 H   0  0  0  0  0  0
  -27.2691  -33.3645   26.2038 H   0  0  0  0  0  0
  -28.3877  -32.6849   25.0326 H   0  0  0  0  0  0
  -28.0720  -31.8476   26.5442 H   0  0  0  0  0  0
  -28.2584  -38.0098   24.7525 H   0  0  0  0  0  0
  -28.1071  -36.2635   24.6261 H   0  0  0  0  0  0
  -27.2288  -37.1407   25.8864 H   0  0  0  0  0  0
  -20.9425  -29.8769   21.6828 H   0  0  0  0  0  0
  -26.0147  -38.2839   24.1432 H   0  0  0  0  0  0
  -28.6224  -20.6480   22.7245 H   0  0  0  0  0  0
  -28.9677  -23.6463   18.8027 H   0  0  0  0  0  0
  -30.1978  -18.8366   22.6663 H   0  0  0  0  0  0
  -28.6614  -18.1584   22.2234 H   0  0  0  0  0  0
  -27.9559  -18.0271   19.8585 H   0  0  0  0  0  0
  -28.9710  -18.6295   18.5860 H   0  0  0  0  0  0
  -30.2557  -16.3341   22.7027 H   0  0  0  0  0  0
  -31.4493  -17.0178   21.6453 H   0  0  0  0  0  0
  -30.6828  -16.9267   18.9647 H   0  0  0  0  0  0
  -29.1463  -16.1586   18.7159 H   0  0  0  0  0  0
  -30.7264  -19.2380   20.2642 H   0  0  0  0  0  0
  -27.6819  -22.2889   23.9981 H   0  0  0  0  0  0
  -26.8208  -23.5835   23.1907 H   0  0  0  0  0  0
  -28.4809  -23.8369   23.7575 H   0  0  0  0  0  0
  -29.6350  -21.1147   16.3018 H   0  0  0  0  0  0
  -30.1811  -22.6026   17.0746 H   0  0  0  0  0  0
  -28.4567  -22.1562   17.0795 H   0  0  0  0  0  0
  -28.1608  -25.3968   22.0403 H   0  0  0  0  0  0
  -26.8043  -24.9691   21.0714 H   0  0  0  0  0  0
  1 25  1  0  0  0
  1 30  2  0  0  0
  1 85  1  0  0  0
  2  3  1  0  0  0
  2 25  1  0  0  0
  2 87  1  0  0  0
  2 88  1  0  0  0
  3  4  1  0  0  0
  3 89  1  0  0  0
  3 90  1  0  0  0
  4  5  1  0  0  0
  4 91  1  0  0  0
  4 92  1  0  0  0
  5  6  1  0  0  0
  5 26  1  0  0  0
  5 93  1  0  0  0
  6 25  1  0  0  0
  6 94  1  0  0  0
  6 95  1  0  0  0
  7  8  2  0  0  0
  7 26  1  0  0  0
  7 29  1  0  0  0
  8  9  1  0  0  0
  8 22  1  0  0  0
  9 10  1  0  0  0
  9 27  2  0  0  0
 10 11  2  0  0  0
 10 15  1  0  0  0
 11 12  1  0  0  0
 11 96  1  0  0  0
 12 13  2  0  0  0
 12 97  1  0  0  0
 13 14  1  0  0  0
 13 31  1  0  0  0
 14 15  2  0  0  0
 14 98  1  0  0  0
 15 99  1  0  0  0
 16 17  2  0  0  0
 16 21  1  0  0  0
 16 31  1  0  0  0
 17 18  1  0  0  0
 17100  1  0  0  0
 18 19  2  0  0  0
 18101  1  0  0  0
 19 20  1  0  0  0
 19 24  1  0  0  0
 20 21  2  0  0  0
 20102  1  0  0  0
 21 23  1  0  0  0
 22 28  1  0  0  0
 22 32  2  0  0  0
 26 27  1  0  0  0
 28103  1  0  0  0
 28104  1  0  0  0
 29105  1  0  0  0
 29106  1  0  0  0
 33 34  1  0  0  0
 33 66  1  0  0  0
 33 70  2  0  0  0
 34 36  1  0  0  0
 34 59  1  0  0  0
 34107  1  0  0  0
 35 44  2  0  0  0
 35 45  1  0  0  0
 35 68  1  0  0  0
 36 56  1  0  0  0
 36108  1  0  0  0
 37 39  1  0  0  0
 37 47  1  0  0  0
 37 66  1  0  0  0
 37109  1  0  0  0
 38 43  2  0  0  0
 38 46  1  0  0  0
 38 47  1  0  0  0
 39 64  1  0  0  0
 39 67  2  0  0  0
 40 52  1  0  0  0
 40 53  2  0  0  0
 40 58  1  0  0  0
 41110  1  0  0  0
 41111  1  0  0  0
 41112  1  0  0  0
 41 48  1  0  0  0
 42 43  1  0  0  0
 42 66  1  0  0  0
 42113  1  0  0  0
 42114  1  0  0  0
 43 44  1  0  0  0
 44115  1  0  0  0
 45 46  2  0  0  0
 45116  1  0  0  0
 46117  1  0  0  0
 47118  1  0  0  0
 47119  1  0  0  0
 48 56  1  0  0  0
 48 65  1  0  0  0
 48120  1  0  0  0
 49 50  1  0  0  0
 49 53  1  0  0  0
 49 64  1  0  0  0
 49121  1  0  0  0
 50 51  1  0  0  0
 50122  1  0  0  0
 50123  1  0  0  0
 51 52  1  0  0  0
 51124  1  0  0  0
 51125  1  0  0  0
 52126  1  0  0  0
 52127  1  0  0  0
 53 54  1  0  0  0
 54 55  2  0  0  0
 54128  1  0  0  0
 55 57  1  0  0  0
 55129  1  0  0  0
 56 69  2  0  0  0
 57 58  2  0  0  0
 57130  1  0  0  0
 58131  1  0  0  0
 59 60  1  0  0  0
 59 61  1  0  0  0
 59 62  1  0  0  0
 60132  1  0  0  0
 60133  1  0  0  0
 60134  1  0  0  0
 61135  1  0  0  0
 61136  1  0  0  0
 61137  1  0  0  0
 62138  1  0  0  0
 62139  1  0  0  0
 62140  1  0  0  0
 63 65  1  0  0  0
 63141  1  0  0  0
 63142  1  0  0  0
 63143  1  0  0  0
 64144  1  0  0  0
 65145  1  0  0  0
 68 84  1  0  0  0
 71 73  2  0  0  0
 71 74  1  0  0  0
 71146  1  0  0  0
 72 75  1  0  0  0
 72 76  2  0  0  0
 72147  1  0  0  0
 73 76  1  0  0  0
 73 81  1  0  0  0
 74 75  2  0  0  0
 74 82  1  0  0  0
 75 84  1  0  0  0
 76 86  1  0  0  0
 77 79  1  0  0  0
 77 81  1  0  0  0
 77148  1  0  0  0
 77149  1  0  0  0
 78 80  1  0  0  0
 78 81  1  0  0  0
 78150  1  0  0  0
 78151  1  0  0  0
 79 85  1  0  0  0
 79152  1  0  0  0
 79153  1  0  0  0
 80 85  1  0  0  0
 80154  1  0  0  0
 80155  1  0  0  0
 81156  1  0  0  0
 82157  1  0  0  0
 82158  1  0  0  0
 82159  1  0  0  0
 83 86  1  0  0  0
 83160  1  0  0  0
 83161  1  0  0  0
 83162  1  0  0  0
 84163  1  0  0  0
 84164  1  0  0  0
M  ISO  4   1 100  68 101  84 101  85 100
M  END
> <chiral flag>
0

> <version>
0

> <s_m_source_file>
/data/baiqing/PycharmProjects/Reinvent-master-3.2/result/LINK_invent/BTK/process_docking_weight1_custom_sum_contain_oxygen_bond_distance_aromatic_linkinvent_7_9_3/rearranged_h_0165.sdf

> <i_m_source_file_index>
80

> <r_mmod_Potential_Energy-OPLS-2005>
453.220550537109

> <r_mmod_Stretch_Energy-OPLS-2005>
121.585014343262

> <r_mmod_Bend_Energy-OPLS-2005>
202.737823486328

> <r_mmod_Torsional_Energy-OPLS-2005>
358.231658935547

> <r_mmod_Improper_Torsional_Energy-OPLS-2005>
11.1885671615601

> <r_mmod_Van_der_Waal_Energy-OPLS-2005>
147.166534423828

> <r_mmod_Electrostatic_Energy-OPLS-2005>
-289.130889892578

> <r_mmod_Solvation_Energy-OPLS-2005>
-192.023010253906

> <b_mmod_Minimization_Converged-OPLS-2005>
0

> <r_mmod_RMS_Derivative-OPLS-2005>
2.07681846618652

$$$$
81
                    3D
 Structure written by MMmdl.
163172  0  0  1  0            999 V2000
  -30.6708  -14.6348   20.4981 C   0  0  0  0  0  0
  -30.4156  -12.3959   19.4567 C   0  0  0  0  0  0
  -29.5001  -12.5073   18.2206 C   0  0  0  0  0  0
  -28.0242  -12.3475   18.6322 C   0  0  0  0  0  0
  -27.6434  -13.2284   19.8530 C   0  0  2  0  0  0
  -28.6860  -13.1401   20.9883 C   0  0  0  0  0  0
  -25.2551  -13.8192   20.5722 C   0  0  0  0  0  0
  -24.1832  -13.0433   20.9184 C   0  0  0  0  0  0
  -24.6411  -11.6909   20.8723 C   0  0  0  0  0  0
  -23.9072  -10.4285   21.0391 C   0  0  0  0  0  0
  -24.3630   -9.4213   21.9184 C   0  0  0  0  0  0
  -23.6324   -8.2239   22.0746 C   0  0  0  0  0  0
  -22.4307   -8.0267   21.3533 C   0  0  0  0  0  0
  -21.9928   -9.0239   20.4644 C   0  0  0  0  0  0
  -22.7238  -10.2130   20.3048 C   0  0  0  0  0  0
  -21.6848   -6.0745   22.5291 C   0  0  0  0  0  0
  -21.4012   -6.5651   23.8228 C   0  0  0  0  0  0
  -21.3672   -5.6797   24.9181 C   0  0  0  0  0  0
  -21.6050   -4.3059   24.7220 C   0  0  0  0  0  0
  -21.8814   -3.8149   23.4343 C   0  0  0  0  0  0
  -21.9202   -4.6975   22.3407 C   0  0  0  0  0  0
  -22.7866  -13.5242   21.1862 C   0  0  0  0  0  0
  -22.1667   -4.2160   21.0985 F   0  0  0  0  0  0
  -21.5637   -3.4536   25.7734 F   0  0  0  0  0  0
  -29.9941  -13.4482   20.4054 N   0  0  0  0  0  0
  -26.2952  -12.9389   20.3300 N   0  0  0  0  0  0
  -25.9347  -11.6529   20.5751 N   0  0  0  0  0  0
  -22.0504  -12.8240   22.0408 N   0  0  0  0  0  0
  -25.4276  -15.1920   20.4222 N   0  0  0  0  0  0
  -31.8620  -14.6943   20.1782 O   0  0  0  0  0  0
  -21.6656   -6.8875   21.4247 O   0  0  0  0  0  0
  -22.3564  -14.5568   20.6730 O   0  0  0  0  0  0
  -24.6232  -31.8633   23.2001 C   0  0  0  0  0  0
  -25.9088  -32.4789   23.8333 C   0  0  1  0  0  0
  -27.2302  -27.3422   20.1377 C   0  0  0  0  0  0
  -25.5907  -33.8589   24.2251 N   0  0  0  0  0  0
  -23.4176  -30.4826   21.5432 C   0  0  2  0  0  0
  -24.8699  -28.9379   20.1108 C   0  0  0  0  0  0
  -22.7468  -29.4638   22.4942 C   0  0  0  0  0  0
  -18.0284  -28.1389   22.8490 C   0  0  0  0  0  0
  -24.1473  -36.7290   23.2629 C   0  0  0  0  0  0
  -25.9545  -30.8030   21.3665 C   0  0  0  0  0  0
  -26.0352  -29.4289   20.7167 C   0  0  0  0  0  0
  -27.2237  -28.6428   20.7225 C   0  0  0  0  0  0
  -26.0527  -26.8947   19.5077 C   0  0  0  0  0  0
  -24.8800  -27.6760   19.4937 C   0  0  0  0  0  0
  -23.6327  -29.8132   20.1587 C   0  0  0  0  0  0
  -25.4095  -36.3085   24.0325 C   0  0  1  0  0  0
  -20.5890  -28.3683   23.1288 C   0  0  2  0  0  0
  -20.6772  -26.9404   22.5422 C   0  0  0  0  0  0
  -19.5744  -26.6381   21.5224 C   0  0  0  0  0  0
  -18.1928  -26.7937   22.1623 C   0  0  0  0  0  0
  -19.1542  -28.8852   23.2890 C   0  0  0  0  0  0
  -18.9471  -30.1454   23.8905 C   0  0  0  0  0  0
  -17.6471  -30.6584   24.0569 C   0  0  0  0  0  0
  -25.9060  -34.9469   23.5094 C   0  0  0  0  0  0
  -16.5357  -29.9095   23.6332 C   0  0  0  0  0  0
  -16.7271  -28.6518   23.0344 C   0  0  0  0  0  0
  -26.4473  -31.6588   25.0695 C   0  0  0  0  0  0
  -25.3703  -31.3768   26.1434 C   0  0  0  0  0  0
  -27.0265  -30.2983   24.6148 C   0  0  0  0  0  0
  -27.6038  -32.4322   25.7459 C   0  0  0  0  0  0
  -27.5617  -37.1731   24.8415 C   0  0  0  0  0  0
  -21.4187  -29.3023   22.3671 N   0  0  0  0  0  0
  -26.4236  -37.3824   23.9499 N   0  0  0  0  0  0
  -24.6838  -31.0660   22.0940 N   0  0  0  0  0  0
  -23.4191  -28.8205   23.3048 O   0  0  0  0  0  0
  -28.3095  -26.4592   20.1748 O   0  0  0  0  0  0
  -26.5664  -34.8947   22.4681 O   0  0  0  0  0  0
  -23.5398  -32.1427   23.7332 O   0  0  0  0  0  0
  -28.9668  -22.0360   19.8768 C   0  0  0  0  0  0
  -29.4234  -21.8580   22.2204 C   0  0  0  0  0  0
  -29.0767  -23.2435   22.3347 C   0  0  0  0  0  0
  -29.3593  -21.2080   20.9633 C   0  0  0  0  0  0
  -28.7165  -23.9991   21.1734 C   0  0  0  0  0  0
  -29.1462  -17.9393   19.3393 C   0  0  0  0  0  0
  -28.7826  -17.7612   21.7957 C   0  0  0  0  0  0
  -30.2158  -16.8127   19.4906 C   0  0  0  0  0  0
  -29.8066  -16.5632   21.8202 C   0  0  0  0  0  0
  -28.8721  -18.7774   20.6156 C   0  0  0  0  0  0
  -29.8651  -21.0424   23.4320 C   0  0  0  0  0  0
  -29.0955  -23.9187   23.7099 C   0  0  0  0  0  0
  -28.2732  -25.5164   21.3010 C   0  0  0  0  0  0
  -28.6628  -23.3701   19.9681 N   0  0  0  0  0  0
  -29.9324  -15.8068   20.5486 N   0  0  0  0  0  0
  -29.8085  -19.8782   20.8146 O   0  0  0  0  0  0
  -31.4595  -12.4928   19.1570 H   0  0  0  0  0  0
  -30.3251  -11.4116   19.9171 H   0  0  0  0  0  0
  -29.7703  -11.7503   17.4824 H   0  0  0  0  0  0
  -29.6445  -13.4736   17.7341 H   0  0  0  0  0  0
  -27.8608  -11.2953   18.8665 H   0  0  0  0  0  0
  -27.3720  -12.5738   17.7871 H   0  0  0  0  0  0
  -27.6452  -14.2569   19.4945 H   0  0  0  0  0  0
  -28.6969  -12.1492   21.4429 H   0  0  0  0  0  0
  -28.4376  -13.8440   21.7834 H   0  0  0  0  0  0
  -25.2757   -9.5722   22.4780 H   0  0  0  0  0  0
  -24.0040   -7.4622   22.7475 H   0  0  0  0  0  0
  -21.0836   -8.8744   19.8956 H   0  0  0  0  0  0
  -22.3670  -10.9673   19.6171 H   0  0  0  0  0  0
  -21.1990   -7.6160   23.9743 H   0  0  0  0  0  0
  -21.1513   -6.0518   25.9097 H   0  0  0  0  0  0
  -22.0594   -2.7610   23.2830 H   0  0  0  0  0  0
  -22.4094  -11.9875   22.4757 H   0  0  0  0  0  0
  -21.1134  -13.1290   22.2624 H   0  0  0  0  0  0
  -24.6656  -15.8479   20.5515 H   0  0  0  0  0  0
  -26.2996  -15.6368   20.1662 H   0  0  0  0  0  0
  -26.7168  -32.5476   23.1092 H   0  0  0  0  0  0
  -24.9978  -33.9732   25.0337 H   0  0  0  0  0  0
  -22.7108  -31.3021   21.3963 H   0  0  0  0  0  0
  -23.3813  -35.9530   23.3092 H   0  0  0  0  0  0
  -24.3627  -36.9126   22.2091 H   0  0  0  0  0  0
  -23.7085  -37.6366   23.6784 H   0  0  0  0  0  0
  -26.0775  -31.5652   20.5958 H   0  0  0  0  0  0
  -26.8372  -30.8573   21.9912 H   0  0  0  0  0  0
  -28.1178  -29.0167   21.2027 H   0  0  0  0  0  0
  -26.0368  -25.9139   19.0534 H   0  0  0  0  0  0
  -23.9896  -27.2910   19.0150 H   0  0  0  0  0  0
  -23.7446  -30.5887   19.4007 H   0  0  0  0  0  0
  -22.7553  -29.2377   19.8588 H   0  0  0  0  0  0
  -25.1243  -36.1889   25.0808 H   0  0  0  0  0  0
  -20.9986  -28.3260   24.1411 H   0  0  0  0  0  0
  -20.5649  -26.2309   23.3637 H   0  0  0  0  0  0
  -21.6633  -26.7439   22.1214 H   0  0  0  0  0  0
  -19.6906  -25.6291   21.1253 H   0  0  0  0  0  0
  -19.6688  -27.3194   20.6752 H   0  0  0  0  0  0
  -17.4207  -26.6702   21.4017 H   0  0  0  0  0  0
  -18.0310  -26.0063   22.9006 H   0  0  0  0  0  0
  -19.7950  -30.7271   24.2266 H   0  0  0  0  0  0
  -17.5025  -31.6261   24.5185 H   0  0  0  0  0  0
  -15.5355  -30.2996   23.7656 H   0  0  0  0  0  0
  -15.8671  -28.0833   22.7047 H   0  0  0  0  0  0
  -24.5790  -30.7235   25.7744 H   0  0  0  0  0  0
  -24.9017  -32.2971   26.4933 H   0  0  0  0  0  0
  -25.7992  -30.8844   27.0161 H   0  0  0  0  0  0
  -26.2803  -29.6761   24.1190 H   0  0  0  0  0  0
  -27.3940  -29.7229   25.4650 H   0  0  0  0  0  0
  -27.8696  -30.4215   23.9345 H   0  0  0  0  0  0
  -27.2625  -33.3601   26.2061 H   0  0  0  0  0  0
  -28.3828  -32.6929   25.0277 H   0  0  0  0  0  0
  -28.0721  -31.8439   26.5354 H   0  0  0  0  0  0
  -28.2426  -38.0234   24.7815 H   0  0  0  0  0  0
  -28.1318  -36.2818   24.5757 H   0  0  0  0  0  0
  -27.2428  -37.0771   25.8810 H   0  0  0  0  0  0
  -20.9371  -29.8717   21.6850 H   0  0  0  0  0  0
  -26.0097  -38.2833   24.1743 H   0  0  0  0  0  0
  -28.9339  -21.6189   18.8814 H   0  0  0  0  0  0
  -28.2104  -17.4634   19.0390 H   0  0  0  0  0  0
  -29.4160  -18.5978   18.5126 H   0  0  0  0  0  0
  -28.8147  -18.2986   22.7430 H   0  0  0  0  0  0
  -27.7853  -17.3202   21.7612 H   0  0  0  0  0  0
  -31.1920  -17.2668   19.6758 H   0  0  0  0  0  0
  -30.3036  -16.3003   18.5298 H   0  0  0  0  0  0
  -29.5148  -15.8757   22.6156 H   0  0  0  0  0  0
  -30.7912  -16.9392   22.1056 H   0  0  0  0  0  0
  -27.8863  -19.2321   20.5007 H   0  0  0  0  0  0
  -28.9929  -20.6501   23.9548 H   0  0  0  0  0  0
  -30.4643  -21.6207   24.1347 H   0  0  0  0  0  0
  -30.4786  -20.1910   23.1402 H   0  0  0  0  0  0
  -28.9101  -23.2184   24.5242 H   0  0  0  0  0  0
  -28.3234  -24.6805   23.8114 H   0  0  0  0  0  0
  -30.0608  -24.3940   23.8890 H   0  0  0  0  0  0
  -28.9084  -25.9851   22.0521 H   0  0  0  0  0  0
  -27.2725  -25.5017   21.7367 H   0  0  0  0  0  0
  1 25  1  0  0  0
  1 30  2  0  0  0
  1 85  1  0  0  0
  2  3  1  0  0  0
  2 25  1  0  0  0
  2 87  1  0  0  0
  2 88  1  0  0  0
  3  4  1  0  0  0
  3 89  1  0  0  0
  3 90  1  0  0  0
  4  5  1  0  0  0
  4 91  1  0  0  0
  4 92  1  0  0  0
  5  6  1  0  0  0
  5 26  1  0  0  0
  5 93  1  0  0  0
  6 25  1  0  0  0
  6 94  1  0  0  0
  6 95  1  0  0  0
  7  8  2  0  0  0
  7 26  1  0  0  0
  7 29  1  0  0  0
  8  9  1  0  0  0
  8 22  1  0  0  0
  9 10  1  0  0  0
  9 27  2  0  0  0
 10 11  2  0  0  0
 10 15  1  0  0  0
 11 12  1  0  0  0
 11 96  1  0  0  0
 12 13  2  0  0  0
 12 97  1  0  0  0
 13 14  1  0  0  0
 13 31  1  0  0  0
 14 15  2  0  0  0
 14 98  1  0  0  0
 15 99  1  0  0  0
 16 17  2  0  0  0
 16 21  1  0  0  0
 16 31  1  0  0  0
 17 18  1  0  0  0
 17100  1  0  0  0
 18 19  2  0  0  0
 18101  1  0  0  0
 19 20  1  0  0  0
 19 24  1  0  0  0
 20 21  2  0  0  0
 20102  1  0  0  0
 21 23  1  0  0  0
 22 28  1  0  0  0
 22 32  2  0  0  0
 26 27  1  0  0  0
 28103  1  0  0  0
 28104  1  0  0  0
 29105  1  0  0  0
 29106  1  0  0  0
 33 34  1  0  0  0
 33 66  1  0  0  0
 33 70  2  0  0  0
 34 36  1  0  0  0
 34 59  1  0  0  0
 34107  1  0  0  0
 35 44  2  0  0  0
 35 45  1  0  0  0
 35 68  1  0  0  0
 36 56  1  0  0  0
 36108  1  0  0  0
 37 39  1  0  0  0
 37 47  1  0  0  0
 37 66  1  0  0  0
 37109  1  0  0  0
 38 43  2  0  0  0
 38 46  1  0  0  0
 38 47  1  0  0  0
 39 64  1  0  0  0
 39 67  2  0  0  0
 40 52  1  0  0  0
 40 53  2  0  0  0
 40 58  1  0  0  0
 41110  1  0  0  0
 41111  1  0  0  0
 41112  1  0  0  0
 41 48  1  0  0  0
 42 43  1  0  0  0
 42 66  1  0  0  0
 42113  1  0  0  0
 42114  1  0  0  0
 43 44  1  0  0  0
 44115  1  0  0  0
 45 46  2  0  0  0
 45116  1  0  0  0
 46117  1  0  0  0
 47118  1  0  0  0
 47119  1  0  0  0
 48 56  1  0  0  0
 48 65  1  0  0  0
 48120  1  0  0  0
 49 50  1  0  0  0
 49 53  1  0  0  0
 49 64  1  0  0  0
 49121  1  0  0  0
 50 51  1  0  0  0
 50122  1  0  0  0
 50123  1  0  0  0
 51 52  1  0  0  0
 51124  1  0  0  0
 51125  1  0  0  0
 52126  1  0  0  0
 52127  1  0  0  0
 53 54  1  0  0  0
 54 55  2  0  0  0
 54128  1  0  0  0
 55 57  1  0  0  0
 55129  1  0  0  0
 56 69  2  0  0  0
 57 58  2  0  0  0
 57130  1  0  0  0
 58131  1  0  0  0
 59 60  1  0  0  0
 59 61  1  0  0  0
 59 62  1  0  0  0
 60132  1  0  0  0
 60133  1  0  0  0
 60134  1  0  0  0
 61135  1  0  0  0
 61136  1  0  0  0
 61137  1  0  0  0
 62138  1  0  0  0
 62139  1  0  0  0
 62140  1  0  0  0
 63 65  1  0  0  0
 63141  1  0  0  0
 63142  1  0  0  0
 63143  1  0  0  0
 64144  1  0  0  0
 65145  1  0  0  0
 68 83  1  0  0  0
 71 74  2  0  0  0
 71 84  1  0  0  0
 71146  1  0  0  0
 72 73  2  0  0  0
 72 74  1  0  0  0
 72 81  1  0  0  0
 73 75  1  0  0  0
 73 82  1  0  0  0
 74 86  1  0  0  0
 75 83  1  0  0  0
 75 84  2  0  0  0
 76 78  1  0  0  0
 76 80  1  0  0  0
 76147  1  0  0  0
 76148  1  0  0  0
 77 79  1  0  0  0
 77 80  1  0  0  0
 77149  1  0  0  0
 77150  1  0  0  0
 78 85  1  0  0  0
 78151  1  0  0  0
 78152  1  0  0  0
 79 85  1  0  0  0
 79153  1  0  0  0
 79154  1  0  0  0
 80 86  1  0  0  0
 80155  1  0  0  0
 81156  1  0  0  0
 81157  1  0  0  0
 81158  1  0  0  0
 82159  1  0  0  0
 82160  1  0  0  0
 82161  1  0  0  0
 83162  1  0  0  0
 83163  1  0  0  0
M  ISO  4   1 100  68 101  83 101  85 100
M  END
> <chiral flag>
0

> <version>
0

> <s_m_source_file>
/data/baiqing/PycharmProjects/Reinvent-master-3.2/result/LINK_invent/BTK/process_docking_weight1_custom_sum_contain_oxygen_bond_distance_aromatic_linkinvent_7_9_3/rearranged_h_0165.sdf

> <i_m_source_file_index>
81

> <r_mmod_Potential_Energy-OPLS-2005>
243.467926025391

> <r_mmod_Stretch_Energy-OPLS-2005>
78.5722732543945

> <r_mmod_Bend_Energy-OPLS-2005>
153.611297607422

> <r_mmod_Torsional_Energy-OPLS-2005>
383.874633789062

> <r_mmod_Improper_Torsional_Energy-OPLS-2005>
16.6702976226807

> <r_mmod_Van_der_Waal_Energy-OPLS-2005>
144.532302856445

> <r_mmod_Electrostatic_Energy-OPLS-2005>
-369.099304199219

> <r_mmod_Solvation_Energy-OPLS-2005>
-215.36164855957

> <b_mmod_Minimization_Converged-OPLS-2005>
0

> <r_mmod_RMS_Derivative-OPLS-2005>
2.98469686508179

$$$$
82
                    3D
 Structure written by MMmdl.
162171  0  0  1  0            999 V2000
  -30.5819  -14.8499   20.4235 C   0  0  0  0  0  0
  -30.4306  -12.5193   19.4939 C   0  0  0  0  0  0
  -29.5138  -12.5041   18.2506 C   0  0  0  0  0  0
  -28.0444  -12.3094   18.6685 C   0  0  0  0  0  0
  -27.6312  -13.2393   19.8398 C   0  0  2  0  0  0
  -28.6725  -13.2404   20.9792 C   0  0  0  0  0  0
  -25.2467  -13.8205   20.5693 C   0  0  0  0  0  0
  -24.1776  -13.0442   20.9218 C   0  0  0  0  0  0
  -24.6383  -11.6928   20.8763 C   0  0  0  0  0  0
  -23.9070  -10.4297   21.0418 C   0  0  0  0  0  0
  -24.3620   -9.4210   21.9192 C   0  0  0  0  0  0
  -23.6293   -8.2243   22.0760 C   0  0  0  0  0  0
  -22.4276   -8.0279   21.3544 C   0  0  0  0  0  0
  -21.9916   -9.0256   20.4647 C   0  0  0  0  0  0
  -22.7249  -10.2133   20.3060 C   0  0  0  0  0  0
  -21.6852   -6.0735   22.5277 C   0  0  0  0  0  0
  -21.4013   -6.5641   23.8210 C   0  0  0  0  0  0
  -21.3653   -5.6794   24.9174 C   0  0  0  0  0  0
  -21.6044   -4.3059   24.7226 C   0  0  0  0  0  0
  -21.8819   -3.8148   23.4350 C   0  0  0  0  0  0
  -21.9194   -4.6961   22.3404 C   0  0  0  0  0  0
  -22.7800  -13.5217   21.1872 C   0  0  0  0  0  0
  -22.1663   -4.2151   21.0979 F   0  0  0  0  0  0
  -21.5625   -3.4540   25.7738 F   0  0  0  0  0  0
  -29.9603  -13.6128   20.3848 N   0  0  0  0  0  0
  -26.2885  -12.9424   20.3243 N   0  0  0  0  0  0
  -25.9310  -11.6562   20.5758 N   0  0  0  0  0  0
  -22.0448  -12.8201   22.0425 N   0  0  0  0  0  0
  -25.4152  -15.1927   20.4088 N   0  0  0  0  0  0
  -31.7828  -14.9034   20.1419 O   0  0  0  0  0  0
  -21.6638   -6.8878   21.4240 O   0  0  0  0  0  0
  -22.3485  -14.5527   20.6722 O   0  0  0  0  0  0
  -24.6383  -31.8465   23.1917 C   0  0  0  0  0  0
  -25.9184  -32.4704   23.8277 C   0  0  1  0  0  0
  -27.2194  -27.1985   20.1338 C   0  0  0  0  0  0
  -25.5964  -33.8512   24.2208 N   0  0  0  0  0  0
  -23.4375  -30.4683   21.5345 C   0  0  2  0  0  0
  -24.8841  -28.9002   20.1060 C   0  0  0  0  0  0
  -22.7528  -29.4569   22.4858 C   0  0  0  0  0  0
  -18.0295  -28.1396   22.8454 C   0  0  0  0  0  0
  -24.1499  -36.7256   23.2641 C   0  0  0  0  0  0
  -25.9857  -30.7420   21.3756 C   0  0  0  0  0  0
  -26.0560  -29.3573   20.7197 C   0  0  0  0  0  0
  -27.2240  -28.5192   20.7193 C   0  0  0  0  0  0
  -26.0234  -26.8181   19.4912 C   0  0  0  0  0  0
  -24.8763  -27.6428   19.4784 C   0  0  0  0  0  0
  -23.6589  -29.7972   20.1516 C   0  0  0  0  0  0
  -25.4125  -36.3034   24.0324 C   0  0  1  0  0  0
  -20.5907  -28.3707   23.1239 C   0  0  2  0  0  0
  -20.6779  -26.9419   22.5394 C   0  0  0  0  0  0
  -19.5760  -26.6387   21.5196 C   0  0  0  0  0  0
  -18.1936  -26.7930   22.1605 C   0  0  0  0  0  0
  -19.1553  -28.8865   23.2839 C   0  0  0  0  0  0
  -18.9476  -30.1456   23.8874 C   0  0  0  0  0  0
  -17.6479  -30.6585   24.0558 C   0  0  0  0  0  0
  -25.9074  -34.9411   23.5069 C   0  0  0  0  0  0
  -16.5363  -29.9086   23.6342 C   0  0  0  0  0  0
  -16.7283  -28.6511   23.0342 C   0  0  0  0  0  0
  -26.4538  -31.6546   25.0687 C   0  0  0  0  0  0
  -25.3754  -31.3694   26.1403 C   0  0  0  0  0  0
  -27.0398  -30.2967   24.6188 C   0  0  0  0  0  0
  -27.6086  -32.4295   25.7467 C   0  0  0  0  0  0
  -27.5576  -37.1781   24.8466 C   0  0  0  0  0  0
  -21.4227  -29.3045   22.3617 N   0  0  0  0  0  0
  -26.4287  -37.3747   23.9415 N   0  0  0  0  0  0
  -24.7071  -31.0379   22.0915 N   0  0  0  0  0  0
  -23.4192  -28.8111   23.2994 O   0  0  0  0  0  0
  -28.3123  -26.2877   20.2182 O   0  0  0  0  0  0
  -26.5642  -34.8894   22.4635 O   0  0  0  0  0  0
  -23.5529  -32.1316   23.7196 O   0  0  0  0  0  0
  -29.0644  -19.6240   19.2284 C   0  0  0  0  0  0
  -28.6938  -21.0289   19.2256 C   0  0  0  0  0  0
  -29.5861  -18.9338   20.3703 C   0  0  0  0  0  0
  -28.8453  -21.8421   20.4010 C   0  0  0  0  0  0
  -29.6504  -19.8126   21.4965 C   0  0  0  0  0  0
  -29.6849  -24.3534   20.0795 C   0  0  0  0  0  0
  -28.6244  -23.4493   20.6435 C   0  0  1  0  0  0
  -28.2745  -24.8154   19.7867 C   0  0  1  0  0  0
  -30.2030  -19.3140   22.8169 C   0  0  0  0  0  0
  -27.0636  -20.8475   17.2647 C   0  0  0  0  0  0
  -29.3560  -21.8897   16.9439 C   0  0  0  0  0  0
  -30.3446  -17.4834   20.2798 C   0  0  0  0  0  0
  -28.1969  -21.6530   17.9229 C   0  0  0  0  0  0
  -29.3070  -21.1537   21.4959 N   0  0  0  0  0  0
  -29.8358  -16.0390   20.5461 N   0  0  0  0  0  0
  -31.4694  -12.6507   19.1884 H   0  0  0  0  0  0
  -30.3939  -11.5618   20.0158 H   0  0  0  0  0  0
  -29.8170  -11.7095   17.5679 H   0  0  0  0  0  0
  -29.6194  -13.4398   17.7000 H   0  0  0  0  0  0
  -27.9284  -11.2679   18.9698 H   0  0  0  0  0  0
  -27.3821  -12.4530   17.8141 H   0  0  0  0  0  0
  -27.6059  -14.2456   19.4209 H   0  0  0  0  0  0
  -28.7333  -12.2627   21.4592 H   0  0  0  0  0  0
  -28.3892  -13.9510   21.7575 H   0  0  0  0  0  0
  -25.2762   -9.5680   22.4777 H   0  0  0  0  0  0
  -23.9998   -7.4631   22.7481 H   0  0  0  0  0  0
  -21.0851   -8.8776   19.8950 H   0  0  0  0  0  0
  -22.3712  -10.9671   19.6170 H   0  0  0  0  0  0
  -21.2006   -7.6147   23.9715 H   0  0  0  0  0  0
  -21.1472   -6.0523   25.9074 H   0  0  0  0  0  0
  -22.0605   -2.7612   23.2849 H   0  0  0  0  0  0
  -22.4063  -11.9847   22.4792 H   0  0  0  0  0  0
  -21.1068  -13.1222   22.2641 H   0  0  0  0  0  0
  -24.6451  -15.8448   20.5106 H   0  0  0  0  0  0
  -26.2561  -15.6298   20.0552 H   0  0  0  0  0  0
  -26.7228  -32.5334   23.0994 H   0  0  0  0  0  0
  -25.0134  -33.9625   25.0375 H   0  0  0  0  0  0
  -22.7384  -31.2937   21.3833 H   0  0  0  0  0  0
  -23.3765  -35.9585   23.3287 H   0  0  0  0  0  0
  -24.3586  -36.8907   22.2058 H   0  0  0  0  0  0
  -23.7254  -37.6449   23.6681 H   0  0  0  0  0  0
  -26.1269  -31.4998   20.6032 H   0  0  0  0  0  0
  -26.8633  -30.7962   22.0080 H   0  0  0  0  0  0
  -28.1207  -28.8623   21.2157 H   0  0  0  0  0  0
  -25.9467  -25.8518   19.0166 H   0  0  0  0  0  0
  -23.9783  -27.2893   18.9908 H   0  0  0  0  0  0
  -23.7912  -30.5732   19.3967 H   0  0  0  0  0  0
  -22.7734  -29.2388   19.8413 H   0  0  0  0  0  0
  -25.1309  -36.1854   25.0818 H   0  0  0  0  0  0
  -20.9990  -28.3291   24.1361 H   0  0  0  0  0  0
  -20.5686  -26.2308   23.3597 H   0  0  0  0  0  0
  -21.6640  -26.7432   22.1184 H   0  0  0  0  0  0
  -19.6937  -25.6302   21.1219 H   0  0  0  0  0  0
  -19.6716  -27.3194   20.6724 H   0  0  0  0  0  0
  -17.4208  -26.6671   21.4005 H   0  0  0  0  0  0
  -18.0335  -26.0085   22.9013 H   0  0  0  0  0  0
  -19.7959  -30.7266   24.2239 H   0  0  0  0  0  0
  -17.5042  -31.6264   24.5158 H   0  0  0  0  0  0
  -15.5365  -30.2980   23.7692 H   0  0  0  0  0  0
  -15.8675  -28.0831   22.7063 H   0  0  0  0  0  0
  -24.5962  -30.7003   25.7730 H   0  0  0  0  0  0
  -24.8908  -32.2859   26.4789 H   0  0  0  0  0  0
  -25.8089  -30.8908   27.0195 H   0  0  0  0  0  0
  -26.2973  -29.6677   24.1263 H   0  0  0  0  0  0
  -27.4140  -29.7270   25.4701 H   0  0  0  0  0  0
  -27.8825  -30.4248   23.9390 H   0  0  0  0  0  0
  -27.2709  -33.3643   26.1958 H   0  0  0  0  0  0
  -28.3947  -32.6777   25.0316 H   0  0  0  0  0  0
  -28.0687  -31.8456   26.5453 H   0  0  0  0  0  0
  -28.2568  -38.0099   24.7524 H   0  0  0  0  0  0
  -28.1092  -36.2627   24.6275 H   0  0  0  0  0  0
  -27.2281  -37.1399   25.8864 H   0  0  0  0  0  0
  -20.9420  -29.8778   21.6821 H   0  0  0  0  0  0
  -26.0148  -38.2809   24.1440 H   0  0  0  0  0  0
  -29.0139  -19.0749   18.2995 H   0  0  0  0  0  0
  -30.2502  -23.9951   19.2222 H   0  0  0  0  0  0
  -30.2783  -24.8963   20.8122 H   0  0  0  0  0  0
  -28.3925  -23.5630   21.7008 H   0  0  0  0  0  0
  -27.9360  -24.7198   18.7585 H   0  0  0  0  0  0
  -31.2915  -19.3700   22.8148 H   0  0  0  0  0  0
  -29.9096  -18.2794   22.9977 H   0  0  0  0  0  0
  -29.8346  -19.9113   23.6515 H   0  0  0  0  0  0
  -26.2230  -20.7180   17.9468 H   0  0  0  0  0  0
  -27.3895  -19.8594   16.9399 H   0  0  0  0  0  0
  -26.6857  -21.3644   16.3815 H   0  0  0  0  0  0
  -30.1317  -22.5132   17.3877 H   0  0  0  0  0  0
  -29.0105  -22.3965   16.0425 H   0  0  0  0  0  0
  -29.8217  -20.9531   16.6358 H   0  0  0  0  0  0
  -31.2388  -17.5855   20.8960 H   0  0  0  0  0  0
  -30.7434  -17.4472   19.2653 H   0  0  0  0  0  0
  -27.7651  -22.6209   18.1607 H   0  0  0  0  0  0
  -28.8515  -15.9292   20.7359 H   0  0  0  0  0  0
  1 25  1  0  0  0
  1 30  2  0  0  0
  1 85  1  0  0  0
  2  3  1  0  0  0
  2 25  1  0  0  0
  2 86  1  0  0  0
  2 87  1  0  0  0
  3  4  1  0  0  0
  3 88  1  0  0  0
  3 89  1  0  0  0
  4  5  1  0  0  0
  4 90  1  0  0  0
  4 91  1  0  0  0
  5  6  1  0  0  0
  5 26  1  0  0  0
  5 92  1  0  0  0
  6 25  1  0  0  0
  6 93  1  0  0  0
  6 94  1  0  0  0
  7  8  2  0  0  0
  7 26  1  0  0  0
  7 29  1  0  0  0
  8  9  1  0  0  0
  8 22  1  0  0  0
  9 10  1  0  0  0
  9 27  2  0  0  0
 10 11  2  0  0  0
 10 15  1  0  0  0
 11 12  1  0  0  0
 11 95  1  0  0  0
 12 13  2  0  0  0
 12 96  1  0  0  0
 13 14  1  0  0  0
 13 31  1  0  0  0
 14 15  2  0  0  0
 14 97  1  0  0  0
 15 98  1  0  0  0
 16 17  2  0  0  0
 16 21  1  0  0  0
 16 31  1  0  0  0
 17 18  1  0  0  0
 17 99  1  0  0  0
 18 19  2  0  0  0
 18100  1  0  0  0
 19 20  1  0  0  0
 19 24  1  0  0  0
 20 21  2  0  0  0
 20101  1  0  0  0
 21 23  1  0  0  0
 22 28  1  0  0  0
 22 32  2  0  0  0
 26 27  1  0  0  0
 28102  1  0  0  0
 28103  1  0  0  0
 29104  1  0  0  0
 29105  1  0  0  0
 33 34  1  0  0  0
 33 66  1  0  0  0
 33 70  2  0  0  0
 34 36  1  0  0  0
 34 59  1  0  0  0
 34106  1  0  0  0
 35 44  2  0  0  0
 35 45  1  0  0  0
 35 68  1  0  0  0
 36 56  1  0  0  0
 36107  1  0  0  0
 37 39  1  0  0  0
 37 47  1  0  0  0
 37 66  1  0  0  0
 37108  1  0  0  0
 38 43  2  0  0  0
 38 46  1  0  0  0
 38 47  1  0  0  0
 39 64  1  0  0  0
 39 67  2  0  0  0
 40 52  1  0  0  0
 40 53  2  0  0  0
 40 58  1  0  0  0
 41109  1  0  0  0
 41110  1  0  0  0
 41111  1  0  0  0
 41 48  1  0  0  0
 42 43  1  0  0  0
 42 66  1  0  0  0
 42112  1  0  0  0
 42113  1  0  0  0
 43 44  1  0  0  0
 44114  1  0  0  0
 45 46  2  0  0  0
 45115  1  0  0  0
 46116  1  0  0  0
 47117  1  0  0  0
 47118  1  0  0  0
 48 56  1  0  0  0
 48 65  1  0  0  0
 48119  1  0  0  0
 49 50  1  0  0  0
 49 53  1  0  0  0
 49 64  1  0  0  0
 49120  1  0  0  0
 50 51  1  0  0  0
 50121  1  0  0  0
 50122  1  0  0  0
 51 52  1  0  0  0
 51123  1  0  0  0
 51124  1  0  0  0
 52125  1  0  0  0
 52126  1  0  0  0
 53 54  1  0  0  0
 54 55  2  0  0  0
 54127  1  0  0  0
 55 57  1  0  0  0
 55128  1  0  0  0
 56 69  2  0  0  0
 57 58  2  0  0  0
 57129  1  0  0  0
 58130  1  0  0  0
 59 60  1  0  0  0
 59 61  1  0  0  0
 59 62  1  0  0  0
 60131  1  0  0  0
 60132  1  0  0  0
 60133  1  0  0  0
 61134  1  0  0  0
 61135  1  0  0  0
 61136  1  0  0  0
 62137  1  0  0  0
 62138  1  0  0  0
 62139  1  0  0  0
 63 65  1  0  0  0
 63140  1  0  0  0
 63141  1  0  0  0
 63142  1  0  0  0
 64143  1  0  0  0
 65144  1  0  0  0
 68 78  1  0  0  0
 71 72  2  0  0  0
 71 73  1  0  0  0
 71145  1  0  0  0
 72 74  1  0  0  0
 72 83  1  0  0  0
 73 75  2  0  0  0
 73 82  1  0  0  0
 74 84  2  0  0  0
 74 77  1  0  0  0
 75 79  1  0  0  0
 75 84  1  0  0  0
 76 77  1  0  0  0
 76 78  1  0  0  0
 76146  1  0  0  0
 76147  1  0  0  0
 77 78  1  0  0  0
 77148  1  0  0  0
 78149  1  0  0  0
 79150  1  0  0  0
 79151  1  0  0  0
 79152  1  0  0  0
 80153  1  0  0  0
 80154  1  0  0  0
 80155  1  0  0  0
 80 83  1  0  0  0
 81 83  1  0  0  0
 81156  1  0  0  0
 81157  1  0  0  0
 81158  1  0  0  0
 82 85  1  0  0  0
 82159  1  0  0  0
 82160  1  0  0  0
 83161  1  0  0  0
 85162  1  0  0  0
M  ISO  4   1 100  68 101  78 101  85 100
M  END
> <chiral flag>
0

> <version>
0

> <s_m_source_file>
/data/baiqing/PycharmProjects/Reinvent-master-3.2/result/LINK_invent/BTK/process_docking_weight1_custom_sum_contain_oxygen_bond_distance_aromatic_linkinvent_7_9_3/rearranged_h_0165.sdf

> <i_m_source_file_index>
82

> <r_mmod_Potential_Energy-OPLS-2005>
236.622848510742

> <r_mmod_Stretch_Energy-OPLS-2005>
187.414398193359

> <r_mmod_Bend_Energy-OPLS-2005>
263.052520751953

> <r_mmod_Torsional_Energy-OPLS-2005>
234.145126342773

> <r_mmod_Improper_Torsional_Energy-OPLS-2005>
8.14371299743652

> <r_mmod_Van_der_Waal_Energy-OPLS-2005>
131.968780517578

> <r_mmod_Electrostatic_Energy-OPLS-2005>
-498.032745361328

> <r_mmod_Solvation_Energy-OPLS-2005>
-223.420684814453

> <b_mmod_Minimization_Converged-OPLS-2005>
0

> <r_mmod_RMS_Derivative-OPLS-2005>
1.46304202079773

$$$$
83
                    3D
 Structure written by MMmdl.
163172  0  0  1  0            999 V2000
  -30.6362  -14.8377   20.4238 C   0  0  0  0  0  0
  -30.4105  -12.5236   19.4795 C   0  0  0  0  0  0
  -29.5002  -12.5067   18.2365 C   0  0  0  0  0  0
  -28.0310  -12.3210   18.6590 C   0  0  0  0  0  0
  -27.6231  -13.2469   19.8339 C   0  0  2  0  0  0
  -28.6702  -13.2743   20.9660 C   0  0  0  0  0  0
  -25.2409  -13.8194   20.5714 C   0  0  0  0  0  0
  -24.1751  -13.0418   20.9248 C   0  0  0  0  0  0
  -24.6370  -11.6904   20.8780 C   0  0  0  0  0  0
  -23.9059  -10.4278   21.0424 C   0  0  0  0  0  0
  -24.3615   -9.4199   21.9200 C   0  0  0  0  0  0
  -23.6299   -8.2236   22.0754 C   0  0  0  0  0  0
  -22.4276   -8.0268   21.3548 C   0  0  0  0  0  0
  -21.9920   -9.0247   20.4646 C   0  0  0  0  0  0
  -22.7235  -10.2130   20.3071 C   0  0  0  0  0  0
  -21.6845   -6.0727   22.5284 C   0  0  0  0  0  0
  -21.4017   -6.5632   23.8208 C   0  0  0  0  0  0
  -21.3655   -5.6789   24.9171 C   0  0  0  0  0  0
  -21.6052   -4.3054   24.7230 C   0  0  0  0  0  0
  -21.8815   -3.8138   23.4346 C   0  0  0  0  0  0
  -21.9199   -4.6963   22.3399 C   0  0  0  0  0  0
  -22.7771  -13.5196   21.1894 C   0  0  0  0  0  0
  -22.1660   -4.2141   21.0985 F   0  0  0  0  0  0
  -21.5635   -3.4524   25.7744 F   0  0  0  0  0  0
  -29.9456  -13.6402   20.3448 N   0  0  0  0  0  0
  -26.2851  -12.9438   20.3250 N   0  0  0  0  0  0
  -25.9307  -11.6570   20.5777 N   0  0  0  0  0  0
  -22.0416  -12.8210   22.0454 N   0  0  0  0  0  0
  -25.4053  -15.1912   20.4110 N   0  0  0  0  0  0
  -31.8501  -14.8036   20.2043 O   0  0  0  0  0  0
  -21.6640   -6.8867   21.4239 O   0  0  0  0  0  0
  -22.3472  -14.5502   20.6711 O   0  0  0  0  0  0
  -24.6427  -31.8512   23.1960 C   0  0  0  0  0  0
  -25.9216  -32.4726   23.8334 C   0  0  1  0  0  0
  -27.1828  -27.1698   20.1350 C   0  0  0  0  0  0
  -25.5982  -33.8535   24.2263 N   0  0  0  0  0  0
  -23.4422  -30.4801   21.5436 C   0  0  2  0  0  0
  -24.8808  -28.9269   20.1094 C   0  0  0  0  0  0
  -22.7571  -29.4586   22.4869 C   0  0  0  0  0  0
  -18.0317  -28.1384   22.8480 C   0  0  0  0  0  0
  -24.1480  -36.7265   23.2636 C   0  0  0  0  0  0
  -26.0005  -30.7335   21.3918 C   0  0  0  0  0  0
  -26.0616  -29.3536   20.7284 C   0  0  0  0  0  0
  -27.2176  -28.4908   20.7272 C   0  0  0  0  0  0
  -25.9749  -26.8510   19.4703 C   0  0  0  0  0  0
  -24.8478  -27.6859   19.4687 C   0  0  0  0  0  0
  -23.6640  -29.8284   20.1568 C   0  0  0  0  0  0
  -25.4109  -36.3060   24.0324 C   0  0  1  0  0  0
  -20.5930  -28.3715   23.1239 C   0  0  2  0  0  0
  -20.6815  -26.9421   22.5408 C   0  0  0  0  0  0
  -19.5784  -26.6370   21.5228 C   0  0  0  0  0  0
  -18.1955  -26.7921   22.1625 C   0  0  0  0  0  0
  -19.1571  -28.8871   23.2852 C   0  0  0  0  0  0
  -18.9477  -30.1469   23.8883 C   0  0  0  0  0  0
  -17.6476  -30.6588   24.0561 C   0  0  0  0  0  0
  -25.9069  -34.9432   23.5091 C   0  0  0  0  0  0
  -16.5373  -29.9081   23.6332 C   0  0  0  0  0  0
  -16.7301  -28.6497   23.0350 C   0  0  0  0  0  0
  -26.4531  -31.6573   25.0760 C   0  0  0  0  0  0
  -25.3725  -31.3754   26.1457 C   0  0  0  0  0  0
  -27.0388  -30.2974   24.6323 C   0  0  0  0  0  0
  -27.6073  -32.4324   25.7533 C   0  0  0  0  0  0
  -27.5579  -37.1796   24.8472 C   0  0  0  0  0  0
  -21.4261  -29.3060   22.3621 N   0  0  0  0  0  0
  -26.4295  -37.3764   23.9402 N   0  0  0  0  0  0
  -24.7163  -31.0415   22.0978 N   0  0  0  0  0  0
  -23.4242  -28.8102   23.2971 O   0  0  0  0  0  0
  -28.1994  -26.1574   20.2126 O   0  0  0  0  0  0
  -26.5641  -34.8916   22.4658 O   0  0  0  0  0  0
  -23.5557  -32.1377   23.7217 O   0  0  0  0  0  0
  -27.1831  -19.6694   19.0676 C   0  0  0  0  0  0
  -27.6231  -21.8175   20.1825 C   0  0  0  0  0  0
  -26.2012  -21.9757   20.0828 C   0  0  0  0  0  0
  -28.0651  -20.4078   19.9053 C   0  0  0  0  0  0
  -25.4585  -21.1605   19.2049 C   0  0  0  0  0  0
  -30.7189  -17.4599   20.5598 C   0  0  0  0  0  0
  -28.7368  -16.8535   20.5856 C   0  0  0  0  0  0
  -29.4357  -18.1639   20.0143 C   0  0  0  0  0  0
  -25.4013  -22.8918   21.0043 C   0  0  0  0  0  0
  -24.0109  -21.4509   18.8301 C   0  0  0  0  0  0
  -27.7260  -24.6854   20.2462 C   0  0  0  0  0  0
  -28.4691  -23.1911   20.4716 C   0  0  2  0  0  0
  -25.9748  -20.0663   18.6443 N   0  0  0  0  0  0
  -30.0449  -16.1207   20.5189 N   0  0  0  0  0  0
  -29.0704  -23.0888   21.8095 N   0  3  0  0  0  0
  -29.1734  -19.6340   20.4078 O   0  0  0  0  0  0
  -31.4513  -12.6305   19.1711 H   0  0  0  0  0  0
  -30.3569  -11.5724   20.0097 H   0  0  0  0  0  0
  -29.7981  -11.7088   17.5546 H   0  0  0  0  0  0
  -29.6148  -13.4415   17.6837 H   0  0  0  0  0  0
  -27.9011  -11.2768   18.9457 H   0  0  0  0  0  0
  -27.3706  -12.4817   17.8062 H   0  0  0  0  0  0
  -27.5855  -14.2478   19.4069 H   0  0  0  0  0  0
  -28.7390  -12.3073   21.4656 H   0  0  0  0  0  0
  -28.3966  -14.0039   21.7286 H   0  0  0  0  0  0
  -25.2760   -9.5673   22.4771 H   0  0  0  0  0  0
  -23.9994   -7.4630   22.7490 H   0  0  0  0  0  0
  -21.0836   -8.8770   19.8971 H   0  0  0  0  0  0
  -22.3689  -10.9671   19.6184 H   0  0  0  0  0  0
  -21.2000   -7.6137   23.9701 H   0  0  0  0  0  0
  -21.1484   -6.0523   25.9070 H   0  0  0  0  0  0
  -22.0605   -2.7597   23.2857 H   0  0  0  0  0  0
  -22.4019  -11.9879   22.4876 H   0  0  0  0  0  0
  -21.1029  -13.1250   22.2619 H   0  0  0  0  0  0
  -24.6310  -15.8382   20.5125 H   0  0  0  0  0  0
  -26.2412  -15.6275   20.0490 H   0  0  0  0  0  0
  -26.7283  -32.5348   23.1063 H   0  0  0  0  0  0
  -25.0124  -33.9659   25.0411 H   0  0  0  0  0  0
  -22.7441  -31.3079   21.4001 H   0  0  0  0  0  0
  -23.3765  -35.9587   23.3307 H   0  0  0  0  0  0
  -24.3574  -36.8891   22.2060 H   0  0  0  0  0  0
  -23.7229  -37.6456   23.6661 H   0  0  0  0  0  0
  -26.1614  -31.4910   20.6235 H   0  0  0  0  0  0
  -26.8713  -30.7746   22.0353 H   0  0  0  0  0  0
  -28.1147  -28.8080   21.2415 H   0  0  0  0  0  0
  -25.8355  -25.9210   18.9464 H   0  0  0  0  0  0
  -23.9438  -27.3571   18.9774 H   0  0  0  0  0  0
  -23.8114  -30.6133   19.4148 H   0  0  0  0  0  0
  -22.7753  -29.2819   19.8349 H   0  0  0  0  0  0
  -25.1298  -36.1905   25.0830 H   0  0  0  0  0  0
  -21.0023  -28.3300   24.1361 H   0  0  0  0  0  0
  -20.5717  -26.2328   23.3619 H   0  0  0  0  0  0
  -21.6665  -26.7432   22.1190 H   0  0  0  0  0  0
  -19.6935  -25.6277   21.1259 H   0  0  0  0  0  0
  -19.6709  -27.3179   20.6751 H   0  0  0  0  0  0
  -17.4232  -26.6686   21.4021 H   0  0  0  0  0  0
  -18.0335  -26.0073   22.9023 H   0  0  0  0  0  0
  -19.7951  -30.7292   24.2239 H   0  0  0  0  0  0
  -17.5021  -31.6255   24.5162 H   0  0  0  0  0  0
  -15.5363  -30.2968   23.7653 H   0  0  0  0  0  0
  -15.8702  -28.0805   22.7064 H   0  0  0  0  0  0
  -24.5913  -30.7074   25.7788 H   0  0  0  0  0  0
  -24.8891  -32.2935   26.4816 H   0  0  0  0  0  0
  -25.8026  -30.8983   27.0275 H   0  0  0  0  0  0
  -26.3009  -29.6694   24.1305 H   0  0  0  0  0  0
  -27.3979  -29.7255   25.4886 H   0  0  0  0  0  0
  -27.8930  -30.4207   23.9661 H   0  0  0  0  0  0
  -27.2680  -33.3650   26.2048 H   0  0  0  0  0  0
  -28.3913  -32.6836   25.0378 H   0  0  0  0  0  0
  -28.0696  -31.8483   26.5498 H   0  0  0  0  0  0
  -28.2596  -38.0089   24.7513 H   0  0  0  0  0  0
  -28.1071  -36.2621   24.6305 H   0  0  0  0  0  0
  -27.2296  -37.1468   25.8875 H   0  0  0  0  0  0
  -20.9458  -29.8813   21.6842 H   0  0  0  0  0  0
  -26.0168  -38.2842   24.1391 H   0  0  0  0  0  0
  -27.4145  -18.6772   18.7159 H   0  0  0  0  0  0
  -30.9794  -17.7781   21.5703 H   0  0  0  0  0  0
  -31.5787  -17.5595   19.8933 H   0  0  0  0  0  0
  -27.9655  -16.4625   19.9229 H   0  0  0  0  0  0
  -28.3529  -16.9661   21.6009 H   0  0  0  0  0  0
  -29.4874  -18.1043   18.9241 H   0  0  0  0  0  0
  -25.0775  -23.8052   20.5069 H   0  0  0  0  0  0
  -25.9451  -23.1209   21.9208 H   0  0  0  0  0  0
  -24.5010  -22.3796   21.3458 H   0  0  0  0  0  0
  -23.3200  -20.9069   19.4736 H   0  0  0  0  0  0
  -23.8165  -21.1499   17.7998 H   0  0  0  0  0  0
  -23.7735  -22.5138   18.8936 H   0  0  0  0  0  0
  -26.9719  -24.7721   21.0203 H   0  0  0  0  0  0
  -27.2219  -24.5184   19.2988 H   0  0  0  0  0  0
  -29.2908  -23.1585   19.7543 H   0  0  0  0  0  0
  -29.5937  -22.2317   21.8579 H   0  0  0  0  0  0
  -28.3694  -23.0663   22.5265 H   0  0  0  0  0  0
  -29.6968  -23.8512   21.9897 H   0  0  0  0  0  0
  1 25  1  0  0  0
  1 30  2  0  0  0
  1 84  1  0  0  0
  2  3  1  0  0  0
  2 25  1  0  0  0
  2 87  1  0  0  0
  2 88  1  0  0  0
  3  4  1  0  0  0
  3 89  1  0  0  0
  3 90  1  0  0  0
  4  5  1  0  0  0
  4 91  1  0  0  0
  4 92  1  0  0  0
  5  6  1  0  0  0
  5 26  1  0  0  0
  5 93  1  0  0  0
  6 25  1  0  0  0
  6 94  1  0  0  0
  6 95  1  0  0  0
  7  8  2  0  0  0
  7 26  1  0  0  0
  7 29  1  0  0  0
  8  9  1  0  0  0
  8 22  1  0  0  0
  9 10  1  0  0  0
  9 27  2  0  0  0
 10 11  2  0  0  0
 10 15  1  0  0  0
 11 12  1  0  0  0
 11 96  1  0  0  0
 12 13  2  0  0  0
 12 97  1  0  0  0
 13 14  1  0  0  0
 13 31  1  0  0  0
 14 15  2  0  0  0
 14 98  1  0  0  0
 15 99  1  0  0  0
 16 17  2  0  0  0
 16 21  1  0  0  0
 16 31  1  0  0  0
 17 18  1  0  0  0
 17100  1  0  0  0
 18 19  2  0  0  0
 18101  1  0  0  0
 19 20  1  0  0  0
 19 24  1  0  0  0
 20 21  2  0  0  0
 20102  1  0  0  0
 21 23  1  0  0  0
 22 28  1  0  0  0
 22 32  2  0  0  0
 26 27  1  0  0  0
 28103  1  0  0  0
 28104  1  0  0  0
 29105  1  0  0  0
 29106  1  0  0  0
 33 34  1  0  0  0
 33 66  1  0  0  0
 33 70  2  0  0  0
 34 36  1  0  0  0
 34 59  1  0  0  0
 34107  1  0  0  0
 35 44  2  0  0  0
 35 45  1  0  0  0
 35 68  1  0  0  0
 36 56  1  0  0  0
 36108  1  0  0  0
 37 39  1  0  0  0
 37 47  1  0  0  0
 37 66  1  0  0  0
 37109  1  0  0  0
 38 43  2  0  0  0
 38 46  1  0  0  0
 38 47  1  0  0  0
 39 64  1  0  0  0
 39 67  2  0  0  0
 40 52  1  0  0  0
 40 53  2  0  0  0
 40 58  1  0  0  0
 41110  1  0  0  0
 41111  1  0  0  0
 41112  1  0  0  0
 41 48  1  0  0  0
 42 43  1  0  0  0
 42 66  1  0  0  0
 42113  1  0  0  0
 42114  1  0  0  0
 43 44  1  0  0  0
 44115  1  0  0  0
 45 46  2  0  0  0
 45116  1  0  0  0
 46117  1  0  0  0
 47118  1  0  0  0
 47119  1  0  0  0
 48 56  1  0  0  0
 48 65  1  0  0  0
 48120  1  0  0  0
 49 50  1  0  0  0
 49 53  1  0  0  0
 49 64  1  0  0  0
 49121  1  0  0  0
 50 51  1  0  0  0
 50122  1  0  0  0
 50123  1  0  0  0
 51 52  1  0  0  0
 51124  1  0  0  0
 51125  1  0  0  0
 52126  1  0  0  0
 52127  1  0  0  0
 53 54  1  0  0  0
 54 55  2  0  0  0
 54128  1  0  0  0
 55 57  1  0  0  0
 55129  1  0  0  0
 56 69  2  0  0  0
 57 58  2  0  0  0
 57130  1  0  0  0
 58131  1  0  0  0
 59 60  1  0  0  0
 59 61  1  0  0  0
 59 62  1  0  0  0
 60132  1  0  0  0
 60133  1  0  0  0
 60134  1  0  0  0
 61135  1  0  0  0
 61136  1  0  0  0
 61137  1  0  0  0
 62138  1  0  0  0
 62139  1  0  0  0
 62140  1  0  0  0
 63 65  1  0  0  0
 63141  1  0  0  0
 63142  1  0  0  0
 63143  1  0  0  0
 64144  1  0  0  0
 65145  1  0  0  0
 68 81  1  0  0  0
 71 74  2  0  0  0
 71 83  1  0  0  0
 71146  1  0  0  0
 72 73  2  0  0  0
 72 74  1  0  0  0
 72 82  1  0  0  0
 73 75  1  0  0  0
 73 79  1  0  0  0
 74 86  1  0  0  0
 75 80  1  0  0  0
 75 83  2  0  0  0
 76 78  1  0  0  0
 76 84  1  0  0  0
 76147  1  0  0  0
 76148  1  0  0  0
 77 78  1  0  0  0
 77 84  1  0  0  0
 77149  1  0  0  0
 77150  1  0  0  0
 78 86  1  0  0  0
 78151  1  0  0  0
 79152  1  0  0  0
 79153  1  0  0  0
 79154  1  0  0  0
 80155  1  0  0  0
 80156  1  0  0  0
 80157  1  0  0  0
 81 82  1  0  0  0
 81158  1  0  0  0
 81159  1  0  0  0
 82 85  1  0  0  0
 82160  1  0  0  0
 85161  1  0  0  0
 85162  1  0  0  0
 85163  1  0  0  0
M  CHG  1  85   1
M  ISO  4   1 100  68 101  81 101  84 100
M  END
> <chiral flag>
0

> <version>
0

> <s_m_source_file>
/data/baiqing/PycharmProjects/Reinvent-master-3.2/result/LINK_invent/BTK/process_docking_weight1_custom_sum_contain_oxygen_bond_distance_aromatic_linkinvent_7_9_3/rearranged_h_0165.sdf

> <i_m_source_file_index>
83

> <r_mmod_Potential_Energy-OPLS-2005>
210.496307373047

> <r_mmod_Stretch_Energy-OPLS-2005>
215.218627929688

> <r_mmod_Bend_Energy-OPLS-2005>
321.655059814453

> <r_mmod_Torsional_Energy-OPLS-2005>
340.31005859375

> <r_mmod_Improper_Torsional_Energy-OPLS-2005>
5.65723514556885

> <r_mmod_Van_der_Waal_Energy-OPLS-2005>
160.208648681641

> <r_mmod_Electrostatic_Energy-OPLS-2005>
-486.949951171875

> <r_mmod_Solvation_Energy-OPLS-2005>
-500.511962890625

> <b_mmod_Minimization_Converged-OPLS-2005>
0

> <r_mmod_RMS_Derivative-OPLS-2005>
3.74209022521973

$$$$
84
                    3D
 Structure written by MMmdl.
167178  0  0  1  0            999 V2000
  -30.7143  -14.4803   20.3539 C   0  0  0  0  0  0
  -30.4322  -12.2474   19.4411 C   0  0  0  0  0  0
  -29.4954  -12.3101   18.2178 C   0  0  0  0  0  0
  -28.0068  -12.2784   18.6337 C   0  0  0  0  0  0
  -27.6453  -13.1747   19.8543 C   0  0  2  0  0  0
  -28.7090  -13.0955   20.9719 C   0  0  0  0  0  0
  -25.2589  -13.8053   20.5698 C   0  0  0  0  0  0
  -24.1827  -13.0379   20.9177 C   0  0  0  0  0  0
  -24.6360  -11.6817   20.8780 C   0  0  0  0  0  0
  -23.9040  -10.4239   21.0445 C   0  0  0  0  0  0
  -24.3609   -9.4123   21.9203 C   0  0  0  0  0  0
  -23.6287   -8.2164   22.0754 C   0  0  0  0  0  0
  -22.4248   -8.0246   21.3517 C   0  0  0  0  0  0
  -21.9890   -9.0215   20.4632 C   0  0  0  0  0  0
  -22.7236  -10.2098   20.3067 C   0  0  0  0  0  0
  -21.6812   -6.0716   22.5243 C   0  0  0  0  0  0
  -21.3962   -6.5628   23.8149 C   0  0  0  0  0  0
  -21.3636   -5.6793   24.9140 C   0  0  0  0  0  0
  -21.6045   -4.3048   24.7219 C   0  0  0  0  0  0
  -21.8817   -3.8144   23.4348 C   0  0  0  0  0  0
  -21.9172   -4.6947   22.3394 C   0  0  0  0  0  0
  -22.7877  -13.5160   21.1910 C   0  0  0  0  0  0
  -22.1654   -4.2125   21.0967 F   0  0  0  0  0  0
  -21.5714   -3.4552   25.7757 F   0  0  0  0  0  0
  -30.0276  -13.3135   20.3573 N   0  0  0  0  0  0
  -26.2957  -12.9130   20.3365 N   0  0  0  0  0  0
  -25.9277  -11.6338   20.5901 N   0  0  0  0  0  0
  -22.0562  -12.8120   22.0429 N   0  0  0  0  0  0
  -25.4470  -15.1796   20.4198 N   0  0  0  0  0  0
  -31.9403  -14.5526   20.2803 O   0  0  0  0  0  0
  -21.6600   -6.8849   21.4219 O   0  0  0  0  0  0
  -22.3509  -14.5474   20.6786 O   0  0  0  0  0  0
  -24.6064  -31.8742   23.2143 C   0  0  0  0  0  0
  -25.8983  -32.4865   23.8417 C   0  0  1  0  0  0
  -27.2244  -27.4832   20.1027 C   0  0  0  0  0  0
  -25.5858  -33.8658   24.2339 N   0  0  0  0  0  0
  -23.3913  -30.4975   21.5572 C   0  0  2  0  0  0
  -24.8312  -28.9747   20.1160 C   0  0  0  0  0  0
  -22.7391  -29.4668   22.5077 C   0  0  0  0  0  0
  -18.0272  -28.1370   22.8515 C   0  0  0  0  0  0
  -24.1495  -36.7353   23.2639 C   0  0  0  0  0  0
  -25.9159  -30.8568   21.3589 C   0  0  0  0  0  0
  -25.9906  -29.4978   20.7035 C   0  0  0  0  0  0
  -27.1910  -28.7619   20.6855 C   0  0  0  0  0  0
  -26.0447  -26.9635   19.5130 C   0  0  0  0  0  0
  -24.8543  -27.7058   19.5122 C   0  0  0  0  0  0
  -23.5902  -29.8319   20.1706 C   0  0  0  0  0  0
  -25.4112  -36.3148   24.0340 C   0  0  1  0  0  0
  -20.5850  -28.3622   23.1389 C   0  0  2  0  0  0
  -20.6768  -26.9378   22.5444 C   0  0  0  0  0  0
  -19.5743  -26.6382   21.5244 C   0  0  0  0  0  0
  -18.1921  -26.7925   22.1651 C   0  0  0  0  0  0
  -19.1518  -28.8824   23.2938 C   0  0  0  0  0  0
  -18.9440  -30.1441   23.8916 C   0  0  0  0  0  0
  -17.6434  -30.6575   24.0570 C   0  0  0  0  0  0
  -25.9019  -34.9507   23.5140 C   0  0  0  0  0  0
  -16.5327  -29.9072   23.6334 C   0  0  0  0  0  0
  -16.7260  -28.6502   23.0346 C   0  0  0  0  0  0
  -26.4434  -31.6637   25.0726 C   0  0  0  0  0  0
  -25.3732  -31.3707   26.1492 C   0  0  0  0  0  0
  -27.0246  -30.3097   24.6056 C   0  0  0  0  0  0
  -27.6033  -32.4341   25.7466 C   0  0  0  0  0  0
  -27.5599  -37.1823   24.8461 C   0  0  0  0  0  0
  -21.4129  -29.2996   22.3804 N   0  0  0  0  0  0
  -26.4322  -37.3811   23.9390 N   0  0  0  0  0  0
  -24.6569  -31.0885   22.1032 N   0  0  0  0  0  0
  -23.4212  -28.8244   23.3082 O   0  0  0  0  0  0
  -28.4035  -26.7838   20.1477 O   0  0  0  0  0  0
  -26.5605  -34.8952   22.4706 O   0  0  0  0  0  0
  -23.5262  -32.1462   23.7569 O   0  0  0  0  0  0
  -30.1787  -19.6382   16.5025 C   0  0  0  0  0  0
  -29.6355  -20.8222   15.9334 C   0  0  0  0  0  0
  -29.8777  -20.4007   18.8729 C   0  0  0  0  0  0
  -30.2590  -19.4089   17.9230 C   0  0  0  0  0  0
  -29.3940  -21.5551   18.2760 C   0  0  0  0  0  0
  -29.2220  -21.7613   16.8758 C   0  0  0  0  0  0
  -31.1145  -17.8058   19.8184 C   0  0  0  0  0  0
  -29.4142  -17.0985   18.0690 C   0  0  0  0  0  0
  -30.2246  -16.8546   20.6661 C   0  0  0  0  0  0
  -29.7082  -15.6805   18.5368 C   0  0  0  0  0  0
  -30.6212  -18.0007   18.3573 C   0  0  0  0  0  0
  -27.5452  -23.1708   19.3962 C   0  0  2  0  0  0
  -28.2202  -24.5471   19.3507 C   0  0  1  0  0  0
  -28.7224  -22.8435   18.4901 C   0  0  2  0  0  0
  -26.1055  -22.9565   18.9367 C   0  0  0  0  0  0
  -28.2954  -25.4348   20.5783 C   0  0  0  0  0  0
  -29.9821  -15.5606   19.9923 N   0  0  0  0  0  0
  -28.5610  -22.9666   17.0018 O   0  0  0  0  0  0
  -29.4952  -23.9190   19.0513 O   0  0  0  0  0  0
  -31.4631  -12.3483   19.1000 H   0  0  0  0  0  0
  -30.3726  -11.2919   19.9655 H   0  0  0  0  0  0
  -29.7045  -11.4442   17.5903 H   0  0  0  0  0  0
  -29.7117  -13.1712   17.5883 H   0  0  0  0  0  0
  -27.7977  -11.2446   18.8959 H   0  0  0  0  0  0
  -27.3575  -12.4991   17.7872 H   0  0  0  0  0  0
  -27.6103  -14.1916   19.4949 H   0  0  0  0  0  0
  -28.6828  -12.1347   21.4848 H   0  0  0  0  0  0
  -28.5071  -13.8495   21.7345 H   0  0  0  0  0  0
  -25.2814   -9.5594   22.4689 H   0  0  0  0  0  0
  -23.9986   -7.4531   22.7481 H   0  0  0  0  0  0
  -21.0797   -8.8787   19.8944 H   0  0  0  0  0  0
  -22.3708  -10.9618   19.6125 H   0  0  0  0  0  0
  -21.1894   -7.6118   23.9670 H   0  0  0  0  0  0
  -21.1479   -6.0518   25.9042 H   0  0  0  0  0  0
  -22.0634   -2.7613   23.2839 H   0  0  0  0  0  0
  -22.4142  -11.9690   22.4683 H   0  0  0  0  0  0
  -21.1238  -13.1225   22.2723 H   0  0  0  0  0  0
  -24.7134  -15.8646   20.5595 H   0  0  0  0  0  0
  -26.3230  -15.6003   20.1335 H   0  0  0  0  0  0
  -26.7064  -32.5586   23.1190 H   0  0  0  0  0  0
  -24.9961  -33.9826   25.0453 H   0  0  0  0  0  0
  -22.6729  -31.3082   21.4239 H   0  0  0  0  0  0
  -23.3755  -35.9691   23.3325 H   0  0  0  0  0  0
  -24.3601  -36.8940   22.2053 H   0  0  0  0  0  0
  -23.7248  -37.6568   23.6630 H   0  0  0  0  0  0
  -26.0162  -31.6249   20.5914 H   0  0  0  0  0  0
  -26.8091  -30.9117   21.9704 H   0  0  0  0  0  0
  -28.0883  -29.1576   21.1426 H   0  0  0  0  0  0
  -26.0171  -25.9890   19.0534 H   0  0  0  0  0  0
  -23.9643  -27.2939   19.0528 H   0  0  0  0  0  0
  -23.6803  -30.6042   19.4053 H   0  0  0  0  0  0
  -22.7195  -29.2378   19.8883 H   0  0  0  0  0  0
  -25.1287  -36.2046   25.0839 H   0  0  0  0  0  0
  -20.9920  -28.3155   24.1516 H   0  0  0  0  0  0
  -20.5721  -26.2203   23.3598 H   0  0  0  0  0  0
  -21.6635  -26.7468   22.1196 H   0  0  0  0  0  0
  -19.6895  -25.6304   21.1247 H   0  0  0  0  0  0
  -19.6687  -27.3223   20.6805 H   0  0  0  0  0  0
  -17.4190  -26.6695   21.4046 H   0  0  0  0  0  0
  -18.0304  -26.0056   22.9039 H   0  0  0  0  0  0
  -19.7899  -30.7283   24.2276 H   0  0  0  0  0  0
  -17.4970  -31.6259   24.5159 H   0  0  0  0  0  0
  -15.5319  -30.2965   23.7644 H   0  0  0  0  0  0
  -15.8678  -28.0828   22.7025 H   0  0  0  0  0  0
  -24.5877  -30.7094   25.7821 H   0  0  0  0  0  0
  -24.8950  -32.2846   26.5028 H   0  0  0  0  0  0
  -25.8101  -30.8803   27.0198 H   0  0  0  0  0  0
  -26.2769  -29.6893   24.1106 H   0  0  0  0  0  0
  -27.4036  -29.7299   25.4480 H   0  0  0  0  0  0
  -27.8597  -30.4451   23.9180 H   0  0  0  0  0  0
  -27.2675  -33.3605   26.2137 H   0  0  0  0  0  0
  -28.3779  -32.6965   25.0251 H   0  0  0  0  0  0
  -28.0788  -31.8423   26.5295 H   0  0  0  0  0  0
  -28.2624  -38.0116   24.7504 H   0  0  0  0  0  0
  -28.1090  -36.2642   24.6296 H   0  0  0  0  0  0
  -27.2318  -37.1491   25.8868 H   0  0  0  0  0  0
  -20.9271  -29.8692   21.7028 H   0  0  0  0  0  0
  -26.0241  -38.2912   24.1346 H   0  0  0  0  0  0
  -30.4623  -18.8422   15.8261 H   0  0  0  0  0  0
  -29.5141  -20.9524   14.8663 H   0  0  0  0  0  0
  -29.8601  -20.2744   19.9452 H   0  0  0  0  0  0
  -32.1128  -17.3739   19.7716 H   0  0  0  0  0  0
  -31.2616  -18.7431   20.3505 H   0  0  0  0  0  0
  -28.5093  -17.4676   18.5589 H   0  0  0  0  0  0
  -29.1861  -17.0839   17.0009 H   0  0  0  0  0  0
  -29.2591  -17.3197   20.8812 H   0  0  0  0  0  0
  -30.6903  -16.7003   21.6395 H   0  0  0  0  0  0
  -30.5673  -15.3175   17.9665 H   0  0  0  0  0  0
  -28.8707  -15.0785   18.2170 H   0  0  0  0  0  0
  -31.4432  -17.7033   17.7025 H   0  0  0  0  0  0
  -27.7163  -22.7296   20.3792 H   0  0  0  0  0  0
  -27.8740  -25.0976   18.4711 H   0  0  0  0  0  0
  -25.9096  -23.4361   17.9769 H   0  0  0  0  0  0
  -25.3958  -23.3658   19.6549 H   0  0  0  0  0  0
  -25.8831  -21.8894   18.8379 H   0  0  0  0  0  0
  -29.1650  -25.1860   21.1863 H   0  0  0  0  0  0
  -27.4292  -25.2978   21.2281 H   0  0  0  0  0  0
  1 25  1  0  0  0
  1 30  2  0  0  0
  1 87  1  0  0  0
  2  3  1  0  0  0
  2 25  1  0  0  0
  2 90  1  0  0  0
  2 91  1  0  0  0
  3  4  1  0  0  0
  3 92  1  0  0  0
  3 93  1  0  0  0
  4  5  1  0  0  0
  4 94  1  0  0  0
  4 95  1  0  0  0
  5  6  1  0  0  0
  5 26  1  0  0  0
  5 96  1  0  0  0
  6 25  1  0  0  0
  6 97  1  0  0  0
  6 98  1  0  0  0
  7  8  2  0  0  0
  7 26  1  0  0  0
  7 29  1  0  0  0
  8  9  1  0  0  0
  8 22  1  0  0  0
  9 10  1  0  0  0
  9 27  2  0  0  0
 10 11  2  0  0  0
 10 15  1  0  0  0
 11 12  1  0  0  0
 11 99  1  0  0  0
 12 13  2  0  0  0
 12100  1  0  0  0
 13 14  1  0  0  0
 13 31  1  0  0  0
 14 15  2  0  0  0
 14101  1  0  0  0
 15102  1  0  0  0
 16 17  2  0  0  0
 16 21  1  0  0  0
 16 31  1  0  0  0
 17 18  1  0  0  0
 17103  1  0  0  0
 18 19  2  0  0  0
 18104  1  0  0  0
 19 20  1  0  0  0
 19 24  1  0  0  0
 20 21  2  0  0  0
 20105  1  0  0  0
 21 23  1  0  0  0
 22 28  1  0  0  0
 22 32  2  0  0  0
 26 27  1  0  0  0
 28106  1  0  0  0
 28107  1  0  0  0
 29108  1  0  0  0
 29109  1  0  0  0
 33 34  1  0  0  0
 33 66  1  0  0  0
 33 70  2  0  0  0
 34 36  1  0  0  0
 34 59  1  0  0  0
 34110  1  0  0  0
 35 44  2  0  0  0
 35 45  1  0  0  0
 35 68  1  0  0  0
 36 56  1  0  0  0
 36111  1  0  0  0
 37 39  1  0  0  0
 37 47  1  0  0  0
 37 66  1  0  0  0
 37112  1  0  0  0
 38 43  2  0  0  0
 38 46  1  0  0  0
 38 47  1  0  0  0
 39 64  1  0  0  0
 39 67  2  0  0  0
 40 52  1  0  0  0
 40 53  2  0  0  0
 40 58  1  0  0  0
 41113  1  0  0  0
 41114  1  0  0  0
 41115  1  0  0  0
 41 48  1  0  0  0
 42 43  1  0  0  0
 42 66  1  0  0  0
 42116  1  0  0  0
 42117  1  0  0  0
 43 44  1  0  0  0
 44118  1  0  0  0
 45 46  2  0  0  0
 45119  1  0  0  0
 46120  1  0  0  0
 47121  1  0  0  0
 47122  1  0  0  0
 48 56  1  0  0  0
 48 65  1  0  0  0
 48123  1  0  0  0
 49 50  1  0  0  0
 49 53  1  0  0  0
 49 64  1  0  0  0
 49124  1  0  0  0
 50 51  1  0  0  0
 50125  1  0  0  0
 50126  1  0  0  0
 51 52  1  0  0  0
 51127  1  0  0  0
 51128  1  0  0  0
 52129  1  0  0  0
 52130  1  0  0  0
 53 54  1  0  0  0
 54 55  2  0  0  0
 54131  1  0  0  0
 55 57  1  0  0  0
 55132  1  0  0  0
 56 69  2  0  0  0
 57 58  2  0  0  0
 57133  1  0  0  0
 58134  1  0  0  0
 59 60  1  0  0  0
 59 61  1  0  0  0
 59 62  1  0  0  0
 60135  1  0  0  0
 60136  1  0  0  0
 60137  1  0  0  0
 61138  1  0  0  0
 61139  1  0  0  0
 61140  1  0  0  0
 62141  1  0  0  0
 62142  1  0  0  0
 62143  1  0  0  0
 63 65  1  0  0  0
 63144  1  0  0  0
 63145  1  0  0  0
 63146  1  0  0  0
 64147  1  0  0  0
 65148  1  0  0  0
 68 86  1  0  0  0
 71 72  2  0  0  0
 71 74  1  0  0  0
 71149  1  0  0  0
 72 76  1  0  0  0
 72150  1  0  0  0
 73 74  2  0  0  0
 73 75  1  0  0  0
 73151  1  0  0  0
 74 81  1  0  0  0
 75 76  2  0  0  0
 75 84  1  0  0  0
 76 88  1  0  0  0
 77 79  1  0  0  0
 77 81  1  0  0  0
 77152  1  0  0  0
 77153  1  0  0  0
 78 80  1  0  0  0
 78 81  1  0  0  0
 78154  1  0  0  0
 78155  1  0  0  0
 79 87  1  0  0  0
 79156  1  0  0  0
 79157  1  0  0  0
 80 87  1  0  0  0
 80158  1  0  0  0
 80159  1  0  0  0
 81160  1  0  0  0
 82 83  1  0  0  0
 82 84  1  0  0  0
 82 85  1  0  0  0
 82161  1  0  0  0
 83 86  1  0  0  0
 83 89  1  0  0  0
 83162  1  0  0  0
 84 88  1  0  0  0
 84 89  1  0  0  0
 85163  1  0  0  0
 85164  1  0  0  0
 85165  1  0  0  0
 86166  1  0  0  0
 86167  1  0  0  0
M  ISO  4   1 100  68 101  86 101  87 100
M  END
> <chiral flag>
0

> <version>
0

> <s_m_source_file>
/data/baiqing/PycharmProjects/Reinvent-master-3.2/result/LINK_invent/BTK/process_docking_weight1_custom_sum_contain_oxygen_bond_distance_aromatic_linkinvent_7_9_3/rearranged_h_0165.sdf

> <i_m_source_file_index>
84

> <r_mmod_Potential_Energy-OPLS-2005>
685.180114746094

> <r_mmod_Stretch_Energy-OPLS-2005>
55.7346153259277

> <r_mmod_Bend_Energy-OPLS-2005>
511.5341796875

> <r_mmod_Torsional_Energy-OPLS-2005>
399.635223388672

> <r_mmod_Improper_Torsional_Energy-OPLS-2005>
16.8037910461426

> <r_mmod_Van_der_Waal_Energy-OPLS-2005>
172.544067382812

> <r_mmod_Electrostatic_Energy-OPLS-2005>
-300.754028320312

> <r_mmod_Solvation_Energy-OPLS-2005>
-210.423309326172

> <b_mmod_Minimization_Converged-OPLS-2005>
0

> <r_mmod_RMS_Derivative-OPLS-2005>
6.01906156539917

$$$$
85
                    3D
 Structure written by MMmdl.
172182  0  0  1  0            999 V2000
  -30.6114  -14.8110   20.4482 C   0  0  0  0  0  0
  -30.4267  -12.5016   19.4786 C   0  0  0  0  0  0
  -29.5068  -12.4990   18.2379 C   0  0  0  0  0  0
  -28.0373  -12.3021   18.6566 C   0  0  0  0  0  0
  -27.6284  -13.2193   19.8385 C   0  0  2  0  0  0
  -28.6752  -13.2255   20.9727 C   0  0  0  0  0  0
  -25.2492  -13.8127   20.5720 C   0  0  0  0  0  0
  -24.1777  -13.0391   20.9234 C   0  0  0  0  0  0
  -24.6356  -11.6869   20.8758 C   0  0  0  0  0  0
  -23.9038  -10.4260   21.0395 C   0  0  0  0  0  0
  -24.3593   -9.4180   21.9164 C   0  0  0  0  0  0
  -23.6275   -8.2218   22.0732 C   0  0  0  0  0  0
  -22.4257   -8.0258   21.3524 C   0  0  0  0  0  0
  -21.9890   -9.0232   20.4627 C   0  0  0  0  0  0
  -22.7215  -10.2110   20.3043 C   0  0  0  0  0  0
  -21.6848   -6.0722   22.5279 C   0  0  0  0  0  0
  -21.4014   -6.5624   23.8215 C   0  0  0  0  0  0
  -21.3660   -5.6771   24.9173 C   0  0  0  0  0  0
  -21.6053   -4.3038   24.7225 C   0  0  0  0  0  0
  -21.8815   -3.8131   23.4344 C   0  0  0  0  0  0
  -21.9194   -4.6950   22.3401 C   0  0  0  0  0  0
  -22.7810  -13.5189   21.1879 C   0  0  0  0  0  0
  -22.1646   -4.2132   21.0977 F   0  0  0  0  0  0
  -21.5641   -3.4520   25.7737 F   0  0  0  0  0  0
  -29.9644  -13.5900   20.3748 N   0  0  0  0  0  0
  -26.2876  -12.9299   20.3261 N   0  0  0  0  0  0
  -25.9274  -11.6459   20.5750 N   0  0  0  0  0  0
  -22.0438  -12.8211   22.0442 N   0  0  0  0  0  0
  -25.4232  -15.1853   20.4148 N   0  0  0  0  0  0
  -31.8175  -14.8513   20.1815 O   0  0  0  0  0  0
  -21.6616   -6.8861   21.4240 O   0  0  0  0  0  0
  -22.3510  -14.5488   20.6704 O   0  0  0  0  0  0
  -24.6324  -31.8513   23.1970 C   0  0  0  0  0  0
  -25.9141  -32.4730   23.8315 C   0  0  1  0  0  0
  -27.2190  -27.2305   20.1540 C   0  0  0  0  0  0
  -25.5933  -33.8536   24.2226 N   0  0  0  0  0  0
  -23.4296  -30.4719   21.5394 C   0  0  2  0  0  0
  -24.8761  -28.9043   20.1182 C   0  0  0  0  0  0
  -22.7503  -29.4588   22.4921 C   0  0  0  0  0  0
  -18.0281  -28.1384   22.8476 C   0  0  0  0  0  0
  -24.1489  -36.7278   23.2642 C   0  0  0  0  0  0
  -25.9739  -30.7559   21.3799 C   0  0  0  0  0  0
  -26.0427  -29.3708   20.7329 C   0  0  0  0  0  0
  -27.2123  -28.5452   20.7401 C   0  0  0  0  0  0
  -26.0315  -26.8343   19.5039 C   0  0  0  0  0  0
  -24.8745  -27.6444   19.4950 C   0  0  0  0  0  0
  -23.6500  -29.7970   20.1575 C   0  0  0  0  0  0
  -25.4121  -36.3062   24.0323 C   0  0  1  0  0  0
  -20.5885  -28.3693   23.1267 C   0  0  2  0  0  0
  -20.6772  -26.9404   22.5415 C   0  0  0  0  0  0
  -19.5749  -26.6370   21.5218 C   0  0  0  0  0  0
  -18.1924  -26.7924   22.1622 C   0  0  0  0  0  0
  -19.1531  -28.8855   23.2863 C   0  0  0  0  0  0
  -18.9459  -30.1459   23.8886 C   0  0  0  0  0  0
  -17.6457  -30.6586   24.0562 C   0  0  0  0  0  0
  -25.9061  -34.9428   23.5077 C   0  0  0  0  0  0
  -16.5350  -29.9082   23.6337 C   0  0  0  0  0  0
  -16.7268  -28.6501   23.0351 C   0  0  0  0  0  0
  -26.4493  -31.6589   25.0734 C   0  0  0  0  0  0
  -25.3714  -31.3751   26.1458 C   0  0  0  0  0  0
  -27.0356  -30.3009   24.6258 C   0  0  0  0  0  0
  -27.6025  -32.4362   25.7511 C   0  0  0  0  0  0
  -27.5580  -37.1799   24.8462 C   0  0  0  0  0  0
  -21.4211  -29.3035   22.3659 N   0  0  0  0  0  0
  -26.4293  -37.3771   23.9406 N   0  0  0  0  0  0
  -24.6971  -31.0471   22.0945 N   0  0  0  0  0  0
  -23.4205  -28.8134   23.3025 O   0  0  0  0  0  0
  -28.3679  -26.3991   20.1600 O   0  0  0  0  0  0
  -26.5650  -34.8912   22.4658 O   0  0  0  0  0  0
  -23.5480  -32.1328   23.7291 O   0  0  0  0  0  0
  -29.9807  -22.9584   20.3845 C   0  0  0  0  0  0
  -29.7966  -24.3832   20.3856 C   0  0  0  0  0  0
  -28.9129  -22.0427   20.1725 C   0  0  0  0  0  0
  -27.6456  -22.7187   20.0705 C   0  0  0  0  0  0
  -28.5036  -24.9598   20.2336 C   0  0  0  0  0  0
  -32.0296  -25.1302   21.2894 C   0  0  0  0  0  0
  -33.2012  -25.9560   21.4122 C   0  0  0  0  0  0
  -30.9504  -25.2899   20.5021 C   0  0  0  0  0  0
  -33.7432  -25.0264   22.5094 C   0  0  0  0  0  0
  -30.4169  -17.0909   21.5795 C   0  0  0  0  0  0
  -29.2107  -16.7291   19.5488 C   0  0  0  0  0  0
  -30.4538  -18.6143   21.0615 C   0  0  0  0  0  0
  -28.3986  -18.0550   19.9190 C   0  0  0  0  0  0
  -32.4528  -24.1428   22.3811 C   0  0  1  0  0  0
  -26.3613  -21.9497   19.8283 C   0  0  0  0  0  0
  -31.4502  -24.0997   23.5326 C   0  0  0  0  0  0
  -29.2277  -20.5141   19.7219 C   0  0  0  0  0  0
  -27.4531  -24.0922   20.1184 N   0  0  0  0  0  0
  -29.9028  -16.0112   20.6638 N   0  0  0  0  0  0
  -29.1550  -19.1979   20.5602 N   0  3  0  0  0  0
  -33.5521  -26.9841   20.8283 O   0  0  0  0  0  0
  -31.4642  -12.6324   19.1663 H   0  0  0  0  0  0
  -30.3866  -11.5399   19.9923 H   0  0  0  0  0  0
  -29.8050  -11.7083   17.5476 H   0  0  0  0  0  0
  -29.6142  -13.4393   17.6949 H   0  0  0  0  0  0
  -27.9150  -11.2577   18.9450 H   0  0  0  0  0  0
  -27.3740  -12.4583   17.8045 H   0  0  0  0  0  0
  -27.5862  -14.2170   19.4182 H   0  0  0  0  0  0
  -28.7345  -12.2508   21.4583 H   0  0  0  0  0  0
  -28.3924  -13.9408   21.7463 H   0  0  0  0  0  0
  -25.2728   -9.5666   22.4747 H   0  0  0  0  0  0
  -23.9982   -7.4607   22.7446 H   0  0  0  0  0  0
  -21.0818   -8.8756   19.8939 H   0  0  0  0  0  0
  -22.3656  -10.9654   19.6168 H   0  0  0  0  0  0
  -21.1995   -7.6127   23.9724 H   0  0  0  0  0  0
  -21.1491   -6.0485   25.9077 H   0  0  0  0  0  0
  -22.0602   -2.7596   23.2838 H   0  0  0  0  0  0
  -22.4014  -11.9876   22.4871 H   0  0  0  0  0  0
  -21.1065  -13.1280   22.2629 H   0  0  0  0  0  0
  -24.6586  -15.8432   20.5239 H   0  0  0  0  0  0
  -26.2802  -15.6170   20.0995 H   0  0  0  0  0  0
  -26.7204  -32.5369   23.1050 H   0  0  0  0  0  0
  -25.0074  -33.9654   25.0370 H   0  0  0  0  0  0
  -22.7263  -31.2936   21.3905 H   0  0  0  0  0  0
  -23.3762  -35.9603   23.3301 H   0  0  0  0  0  0
  -24.3570  -36.8920   22.2059 H   0  0  0  0  0  0
  -23.7231  -37.6467   23.6681 H   0  0  0  0  0  0
  -26.1148  -31.5114   20.6062 H   0  0  0  0  0  0
  -26.8503  -30.8088   22.0137 H   0  0  0  0  0  0
  -28.1098  -28.9047   21.2221 H   0  0  0  0  0  0
  -25.9835  -25.8756   19.0085 H   0  0  0  0  0  0
  -23.9804  -27.2837   19.0063 H   0  0  0  0  0  0
  -23.7814  -30.5684   19.3974 H   0  0  0  0  0  0
  -22.7671  -29.2328   19.8524 H   0  0  0  0  0  0
  -25.1307  -36.1905   25.0821 H   0  0  0  0  0  0
  -20.9963  -28.3270   24.1395 H   0  0  0  0  0  0
  -20.5668  -26.2295   23.3618 H   0  0  0  0  0  0
  -21.6631  -26.7416   22.1206 H   0  0  0  0  0  0
  -19.6899  -25.6276   21.1251 H   0  0  0  0  0  0
  -19.6697  -27.3172   20.6744 H   0  0  0  0  0  0
  -17.4195  -26.6673   21.4026 H   0  0  0  0  0  0
  -18.0320  -26.0063   22.9017 H   0  0  0  0  0  0
  -19.7929  -30.7280   24.2244 H   0  0  0  0  0  0
  -17.5009  -31.6261   24.5165 H   0  0  0  0  0  0
  -15.5342  -30.2990   23.7665 H   0  0  0  0  0  0
  -15.8664  -28.0830   22.7071 H   0  0  0  0  0  0
  -24.5861  -30.7131   25.7783 H   0  0  0  0  0  0
  -24.8941  -32.2935   26.4898 H   0  0  0  0  0  0
  -25.8028  -30.8903   27.0226 H   0  0  0  0  0  0
  -26.2951  -29.6748   24.1271 H   0  0  0  0  0  0
  -27.3997  -29.7292   25.4801 H   0  0  0  0  0  0
  -27.8845  -30.4272   23.9534 H   0  0  0  0  0  0
  -27.2587  -33.3654   26.2072 H   0  0  0  0  0  0
  -28.3838  -32.6950   25.0352 H   0  0  0  0  0  0
  -28.0694  -31.8518   26.5451 H   0  0  0  0  0  0
  -28.2594  -38.0096   24.7519 H   0  0  0  0  0  0
  -28.1071  -36.2630   24.6279 H   0  0  0  0  0  0
  -27.2292  -37.1441   25.8861 H   0  0  0  0  0  0
  -20.9410  -29.8766   21.6857 H   0  0  0  0  0  0
  -26.0166  -38.2843   24.1426 H   0  0  0  0  0  0
  -30.9859  -22.5673   20.4353 H   0  0  0  0  0  0
  -30.9459  -26.1348   19.8265 H   0  0  0  0  0  0
  -33.8470  -25.5084   23.4817 H   0  0  0  0  0  0
  -34.6563  -24.5029   22.2292 H   0  0  0  0  0  0
  -29.8053  -17.0488   22.4822 H   0  0  0  0  0  0
  -31.4234  -16.8328   21.9134 H   0  0  0  0  0  0
  -29.9555  -16.9743   18.7894 H   0  0  0  0  0  0
  -28.5281  -16.0492   19.0475 H   0  0  0  0  0  0
  -31.1935  -18.6780   20.2629 H   0  0  0  0  0  0
  -30.8316  -19.2614   21.8543 H   0  0  0  0  0  0
  -27.6169  -17.7786   20.6255 H   0  0  0  0  0  0
  -27.8574  -18.3931   19.0346 H   0  0  0  0  0  0
  -32.7197  -23.1462   22.0256 H   0  0  0  0  0  0
  -26.5138  -20.8755   19.7474 H   0  0  0  0  0  0
  -25.8875  -22.2914   18.9063 H   0  0  0  0  0  0
  -25.6632  -22.1258   20.6478 H   0  0  0  0  0  0
  -31.2452  -25.0965   23.9241 H   0  0  0  0  0  0
  -30.4973  -23.6709   23.2209 H   0  0  0  0  0  0
  -31.8235  -23.4956   24.3603 H   0  0  0  0  0  0
  -30.2283  -20.5362   19.2889 H   0  0  0  0  0  0
  -28.6075  -20.3797   18.8373 H   0  0  0  0  0  0
  -28.6131  -19.4331   21.3786 H   0  0  0  0  0  0
  1 25  1  0  0  0
  1 30  2  0  0  0
  1 89  1  0  0  0
  2  3  1  0  0  0
  2 25  1  0  0  0
  2 92  1  0  0  0
  2 93  1  0  0  0
  3  4  1  0  0  0
  3 94  1  0  0  0
  3 95  1  0  0  0
  4  5  1  0  0  0
  4 96  1  0  0  0
  4 97  1  0  0  0
  5  6  1  0  0  0
  5 26  1  0  0  0
  5 98  1  0  0  0
  6 25  1  0  0  0
  6 99  1  0  0  0
  6100  1  0  0  0
  7  8  2  0  0  0
  7 26  1  0  0  0
  7 29  1  0  0  0
  8  9  1  0  0  0
  8 22  1  0  0  0
  9 10  1  0  0  0
  9 27  2  0  0  0
 10 11  2  0  0  0
 10 15  1  0  0  0
 11 12  1  0  0  0
 11101  1  0  0  0
 12 13  2  0  0  0
 12102  1  0  0  0
 13 14  1  0  0  0
 13 31  1  0  0  0
 14 15  2  0  0  0
 14103  1  0  0  0
 15104  1  0  0  0
 16 17  2  0  0  0
 16 21  1  0  0  0
 16 31  1  0  0  0
 17 18  1  0  0  0
 17105  1  0  0  0
 18 19  2  0  0  0
 18106  1  0  0  0
 19 20  1  0  0  0
 19 24  1  0  0  0
 20 21  2  0  0  0
 20107  1  0  0  0
 21 23  1  0  0  0
 22 28  1  0  0  0
 22 32  2  0  0  0
 26 27  1  0  0  0
 28108  1  0  0  0
 28109  1  0  0  0
 29110  1  0  0  0
 29111  1  0  0  0
 33 34  1  0  0  0
 33 66  1  0  0  0
 33 70  2  0  0  0
 34 36  1  0  0  0
 34 59  1  0  0  0
 34112  1  0  0  0
 35 44  2  0  0  0
 35 45  1  0  0  0
 35 68  1  0  0  0
 36 56  1  0  0  0
 36113  1  0  0  0
 37 39  1  0  0  0
 37 47  1  0  0  0
 37 66  1  0  0  0
 37114  1  0  0  0
 38 43  2  0  0  0
 38 46  1  0  0  0
 38 47  1  0  0  0
 39 64  1  0  0  0
 39 67  2  0  0  0
 40 52  1  0  0  0
 40 53  2  0  0  0
 40 58  1  0  0  0
 41115  1  0  0  0
 41116  1  0  0  0
 41117  1  0  0  0
 41 48  1  0  0  0
 42 43  1  0  0  0
 42 66  1  0  0  0
 42118  1  0  0  0
 42119  1  0  0  0
 43 44  1  0  0  0
 44120  1  0  0  0
 45 46  2  0  0  0
 45121  1  0  0  0
 46122  1  0  0  0
 47123  1  0  0  0
 47124  1  0  0  0
 48 56  1  0  0  0
 48 65  1  0  0  0
 48125  1  0  0  0
 49 50  1  0  0  0
 49 53  1  0  0  0
 49 64  1  0  0  0
 49126  1  0  0  0
 50 51  1  0  0  0
 50127  1  0  0  0
 50128  1  0  0  0
 51 52  1  0  0  0
 51129  1  0  0  0
 51130  1  0  0  0
 52131  1  0  0  0
 52132  1  0  0  0
 53 54  1  0  0  0
 54 55  2  0  0  0
 54133  1  0  0  0
 55 57  1  0  0  0
 55134  1  0  0  0
 56 69  2  0  0  0
 57 58  2  0  0  0
 57135  1  0  0  0
 58136  1  0  0  0
 59 60  1  0  0  0
 59 61  1  0  0  0
 59 62  1  0  0  0
 60137  1  0  0  0
 60138  1  0  0  0
 60139  1  0  0  0
 61140  1  0  0  0
 61141  1  0  0  0
 61142  1  0  0  0
 62143  1  0  0  0
 62144  1  0  0  0
 62145  1  0  0  0
 63 65  1  0  0  0
 63146  1  0  0  0
 63147  1  0  0  0
 63148  1  0  0  0
 64149  1  0  0  0
 65150  1  0  0  0
 68 75  1  0  0  0
 71 72  2  0  0  0
 71 73  1  0  0  0
 71151  1  0  0  0
 72 75  1  0  0  0
 72 78  1  0  0  0
 73 74  2  0  0  0
 73 87  1  0  0  0
 74 85  1  0  0  0
 74 88  1  0  0  0
 75 88  2  0  0  0
 76 77  1  0  0  0
 76 78  2  0  0  0
 76 84  1  0  0  0
 77 79  1  0  0  0
 77 91  2  0  0  0
 78152  1  0  0  0
 79 84  1  0  0  0
 79153  1  0  0  0
 79154  1  0  0  0
 80 82  1  0  0  0
 80 89  1  0  0  0
 80155  1  0  0  0
 80156  1  0  0  0
 81 83  1  0  0  0
 81 89  1  0  0  0
 81157  1  0  0  0
 81158  1  0  0  0
 82 90  1  0  0  0
 82159  1  0  0  0
 82160  1  0  0  0
 83 90  1  0  0  0
 83161  1  0  0  0
 83162  1  0  0  0
 84 86  1  0  0  0
 84163  1  0  0  0
 85164  1  0  0  0
 85165  1  0  0  0
 85166  1  0  0  0
 86167  1  0  0  0
 86168  1  0  0  0
 86169  1  0  0  0
 87170  1  0  0  0
 87171  1  0  0  0
 87 90  1  0  0  0
 90172  1  0  0  0
M  CHG  1  90   1
M  ISO  4   1 100  68 101  75 101  89 100
M  END
> <chiral flag>
0

> <version>
0

> <s_m_source_file>
/data/baiqing/PycharmProjects/Reinvent-master-3.2/result/LINK_invent/BTK/process_docking_weight1_custom_sum_contain_oxygen_bond_distance_aromatic_linkinvent_7_9_3/rearranged_h_0165.sdf

> <i_m_source_file_index>
85

> <r_mmod_Potential_Energy-OPLS-2005>
337.882843017578

> <r_mmod_Stretch_Energy-OPLS-2005>
143.176696777344

> <r_mmod_Bend_Energy-OPLS-2005>
276.145751953125

> <r_mmod_Torsional_Energy-OPLS-2005>
418.031829833984

> <r_mmod_Improper_Torsional_Energy-OPLS-2005>
9.83285045623779

> <r_mmod_Van_der_Waal_Energy-OPLS-2005>
139.852996826172

> <r_mmod_Electrostatic_Energy-OPLS-2005>
-267.660736083984

> <r_mmod_Solvation_Energy-OPLS-2005>
-486.888031005859

> <b_mmod_Minimization_Converged-OPLS-2005>
0

> <r_mmod_RMS_Derivative-OPLS-2005>
2.24679255485535

$$$$
86
                    3D
 Structure written by MMmdl.
173183  0  0  1  0            999 V2000
  -30.5985  -14.8235   20.4482 C   0  0  0  0  0  0
  -30.4477  -12.5079   19.4816 C   0  0  0  0  0  0
  -29.5186  -12.4991   18.2477 C   0  0  0  0  0  0
  -28.0509  -12.3095   18.6709 C   0  0  0  0  0  0
  -27.6441  -13.2364   19.8473 C   0  0  2  0  0  0
  -28.6911  -13.2074   20.9839 C   0  0  0  0  0  0
  -25.2467  -13.8155   20.5561 C   0  0  0  0  0  0
  -24.1814  -13.0406   20.9203 C   0  0  0  0  0  0
  -24.6453  -11.6897   20.8798 C   0  0  0  0  0  0
  -23.9124  -10.4272   21.0430 C   0  0  0  0  0  0
  -24.3666   -9.4180   21.9202 C   0  0  0  0  0  0
  -23.6327   -8.2227   22.0766 C   0  0  0  0  0  0
  -22.4304   -8.0297   21.3555 C   0  0  0  0  0  0
  -21.9951   -9.0270   20.4656 C   0  0  0  0  0  0
  -22.7296  -10.2133   20.3067 C   0  0  0  0  0  0
  -21.6853   -6.0769   22.5287 C   0  0  0  0  0  0
  -21.4006   -6.5663   23.8221 C   0  0  0  0  0  0
  -21.3653   -5.6814   24.9174 C   0  0  0  0  0  0
  -21.6033   -4.3080   24.7218 C   0  0  0  0  0  0
  -21.8829   -3.8175   23.4339 C   0  0  0  0  0  0
  -21.9194   -4.6998   22.3399 C   0  0  0  0  0  0
  -22.7832  -13.5175   21.1860 C   0  0  0  0  0  0
  -22.1666   -4.2185   21.0977 F   0  0  0  0  0  0
  -21.5607   -3.4565   25.7728 F   0  0  0  0  0  0
  -29.9844  -13.5834   20.3934 N   0  0  0  0  0  0
  -26.2967  -12.9407   20.3268 N   0  0  0  0  0  0
  -25.9396  -11.6542   20.5805 N   0  0  0  0  0  0
  -22.0515  -12.8154   22.0427 N   0  0  0  0  0  0
  -25.3931  -15.1836   20.3652 N   0  0  0  0  0  0
  -31.7873  -14.9207   20.1403 O   0  0  0  0  0  0
  -21.6640   -6.8911   21.4252 O   0  0  0  0  0  0
  -22.3499  -14.5478   20.6719 O   0  0  0  0  0  0
  -24.6323  -31.8537   23.1969 C   0  0  0  0  0  0
  -25.9148  -32.4752   23.8331 C   0  0  1  0  0  0
  -27.2314  -27.2315   20.1339 C   0  0  0  0  0  0
  -25.5900  -33.8549   24.2239 N   0  0  0  0  0  0
  -23.4354  -30.4746   21.5371 C   0  0  2  0  0  0
  -24.8925  -28.9135   20.1177 C   0  0  0  0  0  0
  -22.7532  -29.4582   22.4871 C   0  0  0  0  0  0
  -18.0302  -28.1400   22.8581 C   0  0  0  0  0  0
  -24.1482  -36.7293   23.2639 C   0  0  0  0  0  0
  -25.9865  -30.7513   21.3886 C   0  0  0  0  0  0
  -26.0645  -29.3688   20.7393 C   0  0  0  0  0  0
  -27.2369  -28.5384   20.7420 C   0  0  0  0  0  0
  -26.0525  -26.8817   19.4460 C   0  0  0  0  0  0
  -24.8917  -27.6750   19.4641 C   0  0  0  0  0  0
  -23.6663  -29.8064   20.1570 C   0  0  0  0  0  0
  -25.4113  -36.3080   24.0320 C   0  0  1  0  0  0
  -20.5928  -28.3719   23.1343 C   0  0  2  0  0  0
  -20.6782  -26.9412   22.5581 C   0  0  0  0  0  0
  -19.5771  -26.6373   21.5382 C   0  0  0  0  0  0
  -18.1966  -26.7916   22.1800 C   0  0  0  0  0  0
  -19.1568  -28.8902   23.2920 C   0  0  0  0  0  0
  -18.9445  -30.1522   23.8858 C   0  0  0  0  0  0
  -17.6416  -30.6661   24.0447 C   0  0  0  0  0  0
  -25.9045  -34.9430   23.5091 C   0  0  0  0  0  0
  -16.5319  -29.9124   23.6258 C   0  0  0  0  0  0
  -16.7288  -28.6494   23.0411 C   0  0  0  0  0  0
  -26.4495  -31.6601   25.0748 C   0  0  0  0  0  0
  -25.3715  -31.3753   26.1476 C   0  0  0  0  0  0
  -27.0351  -30.3008   24.6286 C   0  0  0  0  0  0
  -27.6056  -32.4329   25.7516 C   0  0  0  0  0  0
  -27.5573  -37.1810   24.8454 C   0  0  0  0  0  0
  -21.4241  -29.3050   22.3664 N   0  0  0  0  0  0
  -26.4288  -37.3773   23.9405 N   0  0  0  0  0  0
  -24.7018  -31.0465   22.0966 N   0  0  0  0  0  0
  -23.4213  -28.8087   23.2960 O   0  0  0  0  0  0
  -28.3167  -26.3110   20.0935 O   0  0  0  0  0  0
  -26.5637  -34.8883   22.4680 O   0  0  0  0  0  0
  -23.5453  -32.1357   23.7244 O   0  0  0  0  0  0
  -27.0148  -19.2203   22.3053 C   0  0  0  0  0  0
  -29.1201  -20.1001   20.7638 C   0  0  0  0  0  0
  -27.1679  -20.6072   22.1293 C   0  0  0  0  0  0
  -28.2112  -21.1388   21.3023 C   0  0  0  0  0  0
  -27.9083  -18.2569   21.8206 C   0  0  0  0  0  0
  -29.0108  -18.6381   21.0121 C   0  0  0  0  0  0
  -26.5955  -22.3389   24.0803 C   0  0  0  0  0  0
  -25.9588  -21.0245   24.4193 C   0  0  0  0  0  0
  -29.3169  -23.7987   20.5572 C   0  0  0  0  0  0
  -26.1839  -21.4049   22.9576 C   0  0  0  0  0  0
  -28.3095  -22.7780   21.2277 C   0  0  1  0  0  0
  -27.2527  -23.8680   20.6744 C   0  0  0  0  0  0
  -28.3409  -25.0175   20.9005 C   0  0  2  0  0  0
  -27.6477  -16.8359   22.2955 C   0  0  0  0  0  0
  -26.8246  -23.5421   19.2239 C   0  0  0  0  0  0
  -25.9535  -24.1815   21.4396 C   0  0  0  0  0  0
  -28.5581  -25.6102   22.3101 C   0  0  0  0  0  0
  -30.0514  -17.4910   20.5023 C   0  0  0  0  0  0
  -29.8062  -15.9605   20.6381 N   0  0  0  0  0  0
  -31.4823  -12.6503   19.1637 H   0  0  0  0  0  0
  -30.4238  -11.5435   19.9913 H   0  0  0  0  0  0
  -29.8118  -11.6980   17.5702 H   0  0  0  0  0  0
  -29.6315  -13.4307   17.6902 H   0  0  0  0  0  0
  -27.9322  -11.2688   18.9710 H   0  0  0  0  0  0
  -27.3854  -12.4560   17.8188 H   0  0  0  0  0  0
  -27.6278  -14.2477   19.4417 H   0  0  0  0  0  0
  -28.7497  -12.2168   21.4384 H   0  0  0  0  0  0
  -28.4135  -13.8961   21.7842 H   0  0  0  0  0  0
  -25.2819   -9.5632   22.4775 H   0  0  0  0  0  0
  -24.0034   -7.4602   22.7488 H   0  0  0  0  0  0
  -21.0889   -8.8809   19.8963 H   0  0  0  0  0  0
  -22.3787  -10.9686   19.6188 H   0  0  0  0  0  0
  -21.1992   -7.6174   23.9727 H   0  0  0  0  0  0
  -21.1457   -6.0540   25.9075 H   0  0  0  0  0  0
  -22.0610   -2.7646   23.2825 H   0  0  0  0  0  0
  -22.4193  -11.9830   22.4771 H   0  0  0  0  0  0
  -21.1138  -13.1171   22.2670 H   0  0  0  0  0  0
  -24.6024  -15.8127   20.4355 H   0  0  0  0  0  0
  -26.1998  -15.6169   19.9367 H   0  0  0  0  0  0
  -26.7244  -32.5407   23.1091 H   0  0  0  0  0  0
  -24.9955  -33.9650   25.0320 H   0  0  0  0  0  0
  -22.7276  -31.2926   21.3802 H   0  0  0  0  0  0
  -23.3726  -35.9645   23.3317 H   0  0  0  0  0  0
  -24.3539  -36.8909   22.2043 H   0  0  0  0  0  0
  -23.7244  -37.6497   23.6663 H   0  0  0  0  0  0
  -26.1321  -31.5097   20.6166 H   0  0  0  0  0  0
  -26.8567  -30.8089   22.0303 H   0  0  0  0  0  0
  -28.1377  -28.8827   21.2318 H   0  0  0  0  0  0
  -26.0104  -25.9543   18.9002 H   0  0  0  0  0  0
  -24.0018  -27.3285   18.9566 H   0  0  0  0  0  0
  -23.8036  -30.5792   19.4005 H   0  0  0  0  0  0
  -22.7863  -29.2431   19.8405 H   0  0  0  0  0  0
  -25.1304  -36.1938   25.0811 H   0  0  0  0  0  0
  -21.0039  -28.3409   24.1459 H   0  0  0  0  0  0
  -20.5595  -26.2375   23.3858 H   0  0  0  0  0  0
  -21.6640  -26.7294   22.1428 H   0  0  0  0  0  0
  -19.6901  -25.6292   21.1416 H   0  0  0  0  0  0
  -19.6695  -27.3199   20.6912 H   0  0  0  0  0  0
  -17.4171  -26.6527   21.4274 H   0  0  0  0  0  0
  -18.0470  -26.0155   22.9321 H   0  0  0  0  0  0
  -19.7913  -30.7388   24.2207 H   0  0  0  0  0  0
  -17.4926  -31.6376   24.4886 H   0  0  0  0  0  0
  -15.5332  -30.3051   23.7516 H   0  0  0  0  0  0
  -15.8712  -28.0754   22.7127 H   0  0  0  0  0  0
  -24.5888  -30.7100   25.7811 H   0  0  0  0  0  0
  -24.8887  -32.2903   26.4917 H   0  0  0  0  0  0
  -25.8017  -30.8933   27.0271 H   0  0  0  0  0  0
  -26.2967  -29.6755   24.1259 H   0  0  0  0  0  0
  -27.3938  -29.7289   25.4860 H   0  0  0  0  0  0
  -27.8875  -30.4243   23.9603 H   0  0  0  0  0  0
  -27.2697  -33.3637   26.2099 H   0  0  0  0  0  0
  -28.3866  -32.6889   25.0343 H   0  0  0  0  0  0
  -28.0744  -31.8460   26.5430 H   0  0  0  0  0  0
  -28.2620  -38.0086   24.7496 H   0  0  0  0  0  0
  -28.1052  -36.2618   24.6319 H   0  0  0  0  0  0
  -27.2271  -37.1494   25.8850 H   0  0  0  0  0  0
  -20.9400  -29.8815   21.6926 H   0  0  0  0  0  0
  -26.0179  -38.2850   24.1429 H   0  0  0  0  0  0
  -26.1980  -18.8788   22.9257 H   0  0  0  0  0  0
  -29.9600  -20.4389   20.1732 H   0  0  0  0  0  0
  -27.6598  -22.4601   24.2690 H   0  0  0  0  0  0
  -25.9834  -23.2072   24.3102 H   0  0  0  0  0  0
  -24.9362  -21.0509   24.7969 H   0  0  0  0  0  0
  -26.6092  -20.2940   24.8989 H   0  0  0  0  0  0
  -29.4645  -23.6214   19.4902 H   0  0  0  0  0  0
  -30.2873  -23.8440   21.0544 H   0  0  0  0  0  0
  -25.2559  -21.5514   22.4078 H   0  0  0  0  0  0
  -28.4484  -22.9532   22.2901 H   0  0  0  0  0  0
  -26.7543  -16.7627   22.9149 H   0  0  0  0  0  0
  -28.4807  -16.4719   22.8979 H   0  0  0  0  0  0
  -27.4791  -16.1724   21.4547 H   0  0  0  0  0  0
  -27.3910  -24.1224   18.4941 H   0  0  0  0  0  0
  -25.7671  -23.7225   19.0347 H   0  0  0  0  0  0
  -26.9986  -22.4931   18.9811 H   0  0  0  0  0  0
  -26.1354  -24.4004   22.4882 H   0  0  0  0  0  0
  -25.2017  -23.4011   21.3535 H   0  0  0  0  0  0
  -25.4678  -25.0791   21.0681 H   0  0  0  0  0  0
  -27.7102  -26.2074   22.6405 H   0  0  0  0  0  0
  -29.4314  -26.2637   22.3247 H   0  0  0  0  0  0
  -28.7285  -24.8640   23.0824 H   0  0  0  0  0  0
  -31.0057  -17.7066   20.9838 H   0  0  0  0  0  0
  -30.2242  -17.6811   19.4420 H   0  0  0  0  0  0
  -28.8453  -15.7336   20.8286 H   0  0  0  0  0  0
  1 25  1  0  0  0
  1 30  2  0  0  0
  1 89  1  0  0  0
  2  3  1  0  0  0
  2 25  1  0  0  0
  2 90  1  0  0  0
  2 91  1  0  0  0
  3  4  1  0  0  0
  3 92  1  0  0  0
  3 93  1  0  0  0
  4  5  1  0  0  0
  4 94  1  0  0  0
  4 95  1  0  0  0
  5  6  1  0  0  0
  5 26  1  0  0  0
  5 96  1  0  0  0
  6 25  1  0  0  0
  6 97  1  0  0  0
  6 98  1  0  0  0
  7  8  2  0  0  0
  7 26  1  0  0  0
  7 29  1  0  0  0
  8  9  1  0  0  0
  8 22  1  0  0  0
  9 10  1  0  0  0
  9 27  2  0  0  0
 10 11  2  0  0  0
 10 15  1  0  0  0
 11 12  1  0  0  0
 11 99  1  0  0  0
 12 13  2  0  0  0
 12100  1  0  0  0
 13 14  1  0  0  0
 13 31  1  0  0  0
 14 15  2  0  0  0
 14101  1  0  0  0
 15102  1  0  0  0
 16 17  2  0  0  0
 16 21  1  0  0  0
 16 31  1  0  0  0
 17 18  1  0  0  0
 17103  1  0  0  0
 18 19  2  0  0  0
 18104  1  0  0  0
 19 20  1  0  0  0
 19 24  1  0  0  0
 20 21  2  0  0  0
 20105  1  0  0  0
 21 23  1  0  0  0
 22 28  1  0  0  0
 22 32  2  0  0  0
 26 27  1  0  0  0
 28106  1  0  0  0
 28107  1  0  0  0
 29108  1  0  0  0
 29109  1  0  0  0
 33 34  1  0  0  0
 33 66  1  0  0  0
 33 70  2  0  0  0
 34 36  1  0  0  0
 34 59  1  0  0  0
 34110  1  0  0  0
 35 44  2  0  0  0
 35 45  1  0  0  0
 35 68  1  0  0  0
 36 56  1  0  0  0
 36111  1  0  0  0
 37 39  1  0  0  0
 37 47  1  0  0  0
 37 66  1  0  0  0
 37112  1  0  0  0
 38 43  2  0  0  0
 38 46  1  0  0  0
 38 47  1  0  0  0
 39 64  1  0  0  0
 39 67  2  0  0  0
 40 52  1  0  0  0
 40 53  2  0  0  0
 40 58  1  0  0  0
 41113  1  0  0  0
 41114  1  0  0  0
 41115  1  0  0  0
 41 48  1  0  0  0
 42 43  1  0  0  0
 42 66  1  0  0  0
 42116  1  0  0  0
 42117  1  0  0  0
 43 44  1  0  0  0
 44118  1  0  0  0
 45 46  2  0  0  0
 45119  1  0  0  0
 46120  1  0  0  0
 47121  1  0  0  0
 47122  1  0  0  0
 48 56  1  0  0  0
 48 65  1  0  0  0
 48123  1  0  0  0
 49 50  1  0  0  0
 49 53  1  0  0  0
 49 64  1  0  0  0
 49124  1  0  0  0
 50 51  1  0  0  0
 50125  1  0  0  0
 50126  1  0  0  0
 51 52  1  0  0  0
 51127  1  0  0  0
 51128  1  0  0  0
 52129  1  0  0  0
 52130  1  0  0  0
 53 54  1  0  0  0
 54 55  2  0  0  0
 54131  1  0  0  0
 55 57  1  0  0  0
 55132  1  0  0  0
 56 69  2  0  0  0
 57 58  2  0  0  0
 57133  1  0  0  0
 58134  1  0  0  0
 59 60  1  0  0  0
 59 61  1  0  0  0
 59 62  1  0  0  0
 60135  1  0  0  0
 60136  1  0  0  0
 60137  1  0  0  0
 61138  1  0  0  0
 61139  1  0  0  0
 61140  1  0  0  0
 62141  1  0  0  0
 62142  1  0  0  0
 62143  1  0  0  0
 63 65  1  0  0  0
 63144  1  0  0  0
 63145  1  0  0  0
 63146  1  0  0  0
 64147  1  0  0  0
 65148  1  0  0  0
 68 83  1  0  0  0
 71 73  2  0  0  0
 71 75  1  0  0  0
 71149  1  0  0  0
 72 74  2  0  0  0
 72 76  1  0  0  0
 72150  1  0  0  0
 73 74  1  0  0  0
 73 80  1  0  0  0
 74 81  1  0  0  0
 75 76  2  0  0  0
 75 84  1  0  0  0
 76 88  1  0  0  0
 77 78  1  0  0  0
 77 80  1  0  0  0
 77151  1  0  0  0
 77152  1  0  0  0
 78 80  1  0  0  0
 78153  1  0  0  0
 78154  1  0  0  0
 79 81  1  0  0  0
 79 83  1  0  0  0
 79155  1  0  0  0
 79156  1  0  0  0
 80157  1  0  0  0
 81 82  1  0  0  0
 81158  1  0  0  0
 82 83  1  0  0  0
 82 85  1  0  0  0
 82 86  1  0  0  0
 83 87  1  0  0  0
 84159  1  0  0  0
 84160  1  0  0  0
 84161  1  0  0  0
 85162  1  0  0  0
 85163  1  0  0  0
 85164  1  0  0  0
 86165  1  0  0  0
 86166  1  0  0  0
 86167  1  0  0  0
 87168  1  0  0  0
 87169  1  0  0  0
 87170  1  0  0  0
 88 89  1  0  0  0
 88171  1  0  0  0
 88172  1  0  0  0
 89173  1  0  0  0
M  ISO  4   1 100  68 101  83 101  89 100
M  END
> <chiral flag>
0

> <version>
0

> <s_m_source_file>
/data/baiqing/PycharmProjects/Reinvent-master-3.2/result/LINK_invent/BTK/process_docking_weight1_custom_sum_contain_oxygen_bond_distance_aromatic_linkinvent_7_9_3/rearranged_h_0165.sdf

> <i_m_source_file_index>
86

> <r_mmod_Potential_Energy-OPLS-2005>
364.583831787109

> <r_mmod_Stretch_Energy-OPLS-2005>
190.750015258789

> <r_mmod_Bend_Energy-OPLS-2005>
285.023864746094

> <r_mmod_Torsional_Energy-OPLS-2005>
272.256439208984

> <r_mmod_Improper_Torsional_Energy-OPLS-2005>
6.42662334442139

> <r_mmod_Van_der_Waal_Energy-OPLS-2005>
158.530914306641

> <r_mmod_Electrostatic_Energy-OPLS-2005>
-466.215637207031

> <r_mmod_Solvation_Energy-OPLS-2005>
-196.15592956543

> <b_mmod_Minimization_Converged-OPLS-2005>
0

> <r_mmod_RMS_Derivative-OPLS-2005>
5.23509931564331

$$$$
87
                    3D
 Structure written by MMmdl.
178188  0  0  1  0            999 V2000
  -30.6763  -14.5169   20.5229 C   0  0  0  0  0  0
  -30.4283  -12.3195   19.4285 C   0  0  0  0  0  0
  -29.4980  -12.4916   18.2099 C   0  0  0  0  0  0
  -28.0186  -12.3506   18.6215 C   0  0  0  0  0  0
  -27.6579  -13.1983   19.8716 C   0  0  2  0  0  0
  -28.7052  -13.0117   20.9925 C   0  0  0  0  0  0
  -25.2605  -13.8144   20.5687 C   0  0  0  0  0  0
  -24.1842  -13.0436   20.9184 C   0  0  0  0  0  0
  -24.6386  -11.6904   20.8745 C   0  0  0  0  0  0
  -23.9054  -10.4295   21.0402 C   0  0  0  0  0  0
  -24.3612   -9.4211   21.9174 C   0  0  0  0  0  0
  -23.6296   -8.2245   22.0747 C   0  0  0  0  0  0
  -22.4277   -8.0286   21.3546 C   0  0  0  0  0  0
  -21.9904   -9.0254   20.4646 C   0  0  0  0  0  0
  -22.7224  -10.2137   20.3050 C   0  0  0  0  0  0
  -21.6865   -6.0738   22.5279 C   0  0  0  0  0  0
  -21.4015   -6.5639   23.8212 C   0  0  0  0  0  0
  -21.3653   -5.6788   24.9168 C   0  0  0  0  0  0
  -21.6041   -4.3046   24.7218 C   0  0  0  0  0  0
  -21.8827   -3.8149   23.4339 C   0  0  0  0  0  0
  -21.9198   -4.6972   22.3398 C   0  0  0  0  0  0
  -22.7869  -13.5247   21.1820 C   0  0  0  0  0  0
  -22.1660   -4.2159   21.0973 F   0  0  0  0  0  0
  -21.5634   -3.4525   25.7728 F   0  0  0  0  0  0
  -30.0256  -13.3233   20.4273 N   0  0  0  0  0  0
  -26.3020  -12.9278   20.3388 N   0  0  0  0  0  0
  -25.9310  -11.6458   20.5793 N   0  0  0  0  0  0
  -22.0495  -12.8264   22.0386 N   0  0  0  0  0  0
  -25.4353  -15.1856   20.4089 N   0  0  0  0  0  0
  -31.8446  -14.6570   20.1448 O   0  0  0  0  0  0
  -21.6651   -6.8875   21.4238 O   0  0  0  0  0  0
  -22.3558  -14.5536   20.6645 O   0  0  0  0  0  0
  -24.6178  -31.8677   23.2102 C   0  0  0  0  0  0
  -25.9068  -32.4813   23.8418 C   0  0  1  0  0  0
  -27.2353  -27.4165   20.1065 C   0  0  0  0  0  0
  -25.5935  -33.8613   24.2366 N   0  0  0  0  0  0
  -23.4074  -30.4935   21.5479 C   0  0  2  0  0  0
  -24.8538  -28.9591   20.1183 C   0  0  0  0  0  0
  -22.7428  -29.4682   22.4954 C   0  0  0  0  0  0
  -18.0288  -28.1386   22.8480 C   0  0  0  0  0  0
  -24.1496  -36.7302   23.2642 C   0  0  0  0  0  0
  -25.9377  -30.8324   21.3641 C   0  0  0  0  0  0
  -26.0164  -29.4647   20.7128 C   0  0  0  0  0  0
  -27.2095  -28.7027   20.7011 C   0  0  0  0  0  0
  -26.0469  -26.9350   19.5045 C   0  0  0  0  0  0
  -24.8637  -27.6930   19.5146 C   0  0  0  0  0  0
  -23.6210  -29.8301   20.1624 C   0  0  0  0  0  0
  -25.4107  -36.3099   24.0356 C   0  0  1  0  0  0
  -20.5878  -28.3692   23.1292 C   0  0  2  0  0  0
  -20.6778  -26.9422   22.5410 C   0  0  0  0  0  0
  -19.5766  -26.6390   21.5197 C   0  0  0  0  0  0
  -18.1939  -26.7939   22.1594 C   0  0  0  0  0  0
  -19.1540  -28.8848   23.2894 C   0  0  0  0  0  0
  -18.9458  -30.1439   23.8928 C   0  0  0  0  0  0
  -17.6460  -30.6582   24.0566 C   0  0  0  0  0  0
  -25.9036  -34.9463   23.5148 C   0  0  0  0  0  0
  -16.5355  -29.9089   23.6313 C   0  0  0  0  0  0
  -16.7280  -28.6501   23.0341 C   0  0  0  0  0  0
  -26.4515  -31.6571   25.0724 C   0  0  0  0  0  0
  -25.3815  -31.3620   26.1489 C   0  0  0  0  0  0
  -27.0350  -30.3033   24.6053 C   0  0  0  0  0  0
  -27.6117  -32.4273   25.7467 C   0  0  0  0  0  0
  -27.5582  -37.1800   24.8466 C   0  0  0  0  0  0
  -21.4154  -29.3065   22.3694 N   0  0  0  0  0  0
  -26.4289  -37.3784   23.9418 N   0  0  0  0  0  0
  -24.6726  -31.0784   22.0995 N   0  0  0  0  0  0
  -23.4187  -28.8216   23.3004 O   0  0  0  0  0  0
  -28.4017  -26.6661   20.1302 O   0  0  0  0  0  0
  -26.5564  -34.8911   22.4689 O   0  0  0  0  0  0
  -23.5362  -32.1437   23.7472 O   0  0  0  0  0  0
  -30.3604  -20.6843   21.0014 C   0  0  0  0  0  0
  -28.1938  -22.2463   20.2651 C   0  0  0  0  0  0
  -29.1393  -20.0454   20.6941 C   0  0  0  0  0  0
  -30.5137  -22.0876   20.9337 C   0  0  0  0  0  0
  -29.4271  -22.8990   20.5083 C   0  0  0  0  0  0
  -28.0010  -20.8378   20.3515 C   0  0  0  0  0  0
  -29.8583  -17.9034   19.4842 C   0  0  0  0  0  0
  -29.6063  -17.7641   21.9309 C   0  0  0  0  0  0
  -29.6048  -16.3874   19.3492 C   0  0  0  0  0  0
  -29.3954  -16.2211   21.8432 C   0  0  0  0  0  0
  -25.8699  -20.1323   21.2788 C   0  0  0  0  0  0
  -25.7330  -20.8557   19.2564 C   0  0  0  0  0  0
  -29.0873  -18.4933   20.6725 C   0  0  0  0  0  0
  -24.7351  -20.7028   20.4158 C   0  0  0  0  0  0
  -31.8702  -22.6678   21.3117 C   0  0  0  0  0  0
  -30.4188  -24.7057   19.0155 C   0  0  0  0  0  0
  -28.2479  -25.2304   20.1600 C   0  0  0  0  0  0
  -29.5803  -24.4334   20.2802 C   0  0  1  0  0  0
  -26.7359  -20.2164   20.1086 N   0  0  0  0  0  0
  -29.8643  -15.6090   20.5803 N   0  0  0  0  0  0
  -24.1966  -21.9860   20.9181 N   0  3  0  0  0  0
  -31.4701  -12.4284   19.1216 H   0  0  0  0  0  0
  -30.3417  -11.3135   19.8434 H   0  0  0  0  0  0
  -29.7432  -11.7551   17.4430 H   0  0  0  0  0  0
  -29.6631  -13.4696   17.7544 H   0  0  0  0  0  0
  -27.8270  -11.2948   18.8208 H   0  0  0  0  0  0
  -27.3707  -12.6200   17.7868 H   0  0  0  0  0  0
  -27.6825  -14.2379   19.5567 H   0  0  0  0  0  0
  -28.6960  -11.9849   21.3588 H   0  0  0  0  0  0
  -28.4752  -13.6385   21.8542 H   0  0  0  0  0  0
  -25.2754   -9.5702   22.4743 H   0  0  0  0  0  0
  -24.0019   -7.4639   22.7458 H   0  0  0  0  0  0
  -21.0833   -8.8765   19.8954 H   0  0  0  0  0  0
  -22.3667  -10.9679   19.6167 H   0  0  0  0  0  0
  -21.2002   -7.6147   23.9716 H   0  0  0  0  0  0
  -21.1467   -6.0510   25.9067 H   0  0  0  0  0  0
  -22.0615   -2.7614   23.2833 H   0  0  0  0  0  0
  -22.4096  -11.9951   22.4837 H   0  0  0  0  0  0
  -21.1101  -13.1299   22.2534 H   0  0  0  0  0  0
  -24.6749  -15.8450   20.5226 H   0  0  0  0  0  0
  -26.2999  -15.6247   20.1192 H   0  0  0  0  0  0
  -26.7130  -32.5540   23.1175 H   0  0  0  0  0  0
  -25.0158  -33.9784   25.0561 H   0  0  0  0  0  0
  -22.6992  -31.3119   21.4053 H   0  0  0  0  0  0
  -23.3755  -35.9637   23.3297 H   0  0  0  0  0  0
  -24.3607  -36.8918   22.2058 H   0  0  0  0  0  0
  -23.7248  -37.6510   23.6649 H   0  0  0  0  0  0
  -26.0499  -31.6009   20.5975 H   0  0  0  0  0  0
  -26.8234  -30.8874   21.9837 H   0  0  0  0  0  0
  -28.1053  -29.0888   21.1678 H   0  0  0  0  0  0
  -25.9998  -25.9768   19.0124 H   0  0  0  0  0  0
  -23.9691  -27.2958   19.0550 H   0  0  0  0  0  0
  -23.7460  -30.6062   19.4065 H   0  0  0  0  0  0
  -22.7432  -29.2590   19.8547 H   0  0  0  0  0  0
  -25.1284  -36.1960   25.0850 H   0  0  0  0  0  0
  -20.9973  -28.3252   24.1409 H   0  0  0  0  0  0
  -20.5645  -26.2309   23.3610 H   0  0  0  0  0  0
  -21.6654  -26.7448   22.1226 H   0  0  0  0  0  0
  -19.6921  -25.6290   21.1248 H   0  0  0  0  0  0
  -19.6712  -27.3178   20.6710 H   0  0  0  0  0  0
  -17.4222  -26.6709   21.3984 H   0  0  0  0  0  0
  -18.0321  -26.0075   22.8974 H   0  0  0  0  0  0
  -19.7933  -30.7240   24.2331 H   0  0  0  0  0  0
  -17.5016  -31.6266   24.5158 H   0  0  0  0  0  0
  -15.5355  -30.2997   23.7613 H   0  0  0  0  0  0
  -15.8681  -28.0818   22.7048 H   0  0  0  0  0  0
  -24.5996  -30.6963   25.7817 H   0  0  0  0  0  0
  -24.9000  -32.2743   26.5020 H   0  0  0  0  0  0
  -25.8219  -30.8738   27.0193 H   0  0  0  0  0  0
  -26.2859  -29.6744   24.1225 H   0  0  0  0  0  0
  -27.4291  -29.7317   25.4463 H   0  0  0  0  0  0
  -27.8628  -30.4397   23.9090 H   0  0  0  0  0  0
  -27.2768  -33.3538   26.2143 H   0  0  0  0  0  0
  -28.3867  -32.6877   25.0244 H   0  0  0  0  0  0
  -28.0862  -31.8334   26.5291 H   0  0  0  0  0  0
  -28.2591  -38.0101   24.7513 H   0  0  0  0  0  0
  -28.1092  -36.2636   24.6286 H   0  0  0  0  0  0
  -27.2321  -37.1451   25.8876 H   0  0  0  0  0  0
  -20.9299  -29.8815   21.6946 H   0  0  0  0  0  0
  -26.0180  -38.2862   24.1424 H   0  0  0  0  0  0
  -31.2105  -20.0776   21.2757 H   0  0  0  0  0  0
  -27.3537  -22.8583   19.9938 H   0  0  0  0  0  0
  -29.5522  -18.4004   18.5628 H   0  0  0  0  0  0
  -30.9274  -18.0946   19.5950 H   0  0  0  0  0  0
  -30.6668  -17.9738   22.0756 H   0  0  0  0  0  0
  -29.0984  -18.1481   22.8159 H   0  0  0  0  0  0
  -30.1821  -16.0017   18.5058 H   0  0  0  0  0  0
  -28.5611  -16.2390   19.0776 H   0  0  0  0  0  0
  -28.3302  -16.0060   21.9353 H   0  0  0  0  0  0
  -29.8756  -15.7408   22.6977 H   0  0  0  0  0  0
  -25.7004  -19.1031   21.5991 H   0  0  0  0  0  0
  -26.1744  -20.7696   22.1134 H   0  0  0  0  0  0
  -25.9201  -21.8819   18.9441 H   0  0  0  0  0  0
  -25.4808  -20.2340   18.3964 H   0  0  0  0  0  0
  -28.0484  -18.1886   20.5585 H   0  0  0  0  0  0
  -23.9532  -19.9709   20.2080 H   0  0  0  0  0  0
  -32.4075  -21.9862   21.9723 H   0  0  0  0  0  0
  -31.7803  -23.6116   21.8483 H   0  0  0  0  0  0
  -32.4932  -22.8216   20.4310 H   0  0  0  0  0  0
  -31.3951  -24.2269   19.0500 H   0  0  0  0  0  0
  -30.5901  -25.7739   18.8795 H   0  0  0  0  0  0
  -29.9116  -24.3400   18.1221 H   0  0  0  0  0  0
  -27.5982  -24.9728   20.9976 H   0  0  0  0  0  0
  -27.7634  -24.8992   19.2434 H   0  0  0  0  0  0
  -30.1034  -24.8450   21.1427 H   0  0  0  0  0  0
  -24.9193  -22.6648   21.0655 H   0  0  0  0  0  0
  -23.7177  -21.8458   21.7897 H   0  0  0  0  0  0
  -23.5305  -22.3648   20.2690 H   0  0  0  0  0  0
  1 25  1  0  0  0
  1 30  2  0  0  0
  1 90  1  0  0  0
  2  3  1  0  0  0
  2 25  1  0  0  0
  2 92  1  0  0  0
  2 93  1  0  0  0
  3  4  1  0  0  0
  3 94  1  0  0  0
  3 95  1  0  0  0
  4  5  1  0  0  0
  4 96  1  0  0  0
  4 97  1  0  0  0
  5  6  1  0  0  0
  5 26  1  0  0  0
  5 98  1  0  0  0
  6 25  1  0  0  0
  6 99  1  0  0  0
  6100  1  0  0  0
  7  8  2  0  0  0
  7 26  1  0  0  0
  7 29  1  0  0  0
  8  9  1  0  0  0
  8 22  1  0  0  0
  9 10  1  0  0  0
  9 27  2  0  0  0
 10 11  2  0  0  0
 10 15  1  0  0  0
 11 12  1  0  0  0
 11101  1  0  0  0
 12 13  2  0  0  0
 12102  1  0  0  0
 13 14  1  0  0  0
 13 31  1  0  0  0
 14 15  2  0  0  0
 14103  1  0  0  0
 15104  1  0  0  0
 16 17  2  0  0  0
 16 21  1  0  0  0
 16 31  1  0  0  0
 17 18  1  0  0  0
 17105  1  0  0  0
 18 19  2  0  0  0
 18106  1  0  0  0
 19 20  1  0  0  0
 19 24  1  0  0  0
 20 21  2  0  0  0
 20107  1  0  0  0
 21 23  1  0  0  0
 22 28  1  0  0  0
 22 32  2  0  0  0
 26 27  1  0  0  0
 28108  1  0  0  0
 28109  1  0  0  0
 29110  1  0  0  0
 29111  1  0  0  0
 33 34  1  0  0  0
 33 66  1  0  0  0
 33 70  2  0  0  0
 34 36  1  0  0  0
 34 59  1  0  0  0
 34112  1  0  0  0
 35 44  2  0  0  0
 35 45  1  0  0  0
 35 68  1  0  0  0
 36 56  1  0  0  0
 36113  1  0  0  0
 37 39  1  0  0  0
 37 47  1  0  0  0
 37 66  1  0  0  0
 37114  1  0  0  0
 38 43  2  0  0  0
 38 46  1  0  0  0
 38 47  1  0  0  0
 39 64  1  0  0  0
 39 67  2  0  0  0
 40 52  1  0  0  0
 40 53  2  0  0  0
 40 58  1  0  0  0
 41115  1  0  0  0
 41116  1  0  0  0
 41117  1  0  0  0
 41 48  1  0  0  0
 42 43  1  0  0  0
 42 66  1  0  0  0
 42118  1  0  0  0
 42119  1  0  0  0
 43 44  1  0  0  0
 44120  1  0  0  0
 45 46  2  0  0  0
 45121  1  0  0  0
 46122  1  0  0  0
 47123  1  0  0  0
 47124  1  0  0  0
 48 56  1  0  0  0
 48 65  1  0  0  0
 48125  1  0  0  0
 49 50  1  0  0  0
 49 53  1  0  0  0
 49 64  1  0  0  0
 49126  1  0  0  0
 50 51  1  0  0  0
 50127  1  0  0  0
 50128  1  0  0  0
 51 52  1  0  0  0
 51129  1  0  0  0
 51130  1  0  0  0
 52131  1  0  0  0
 52132  1  0  0  0
 53 54  1  0  0  0
 54 55  2  0  0  0
 54133  1  0  0  0
 55 57  1  0  0  0
 55134  1  0  0  0
 56 69  2  0  0  0
 57 58  2  0  0  0
 57135  1  0  0  0
 58136  1  0  0  0
 59 60  1  0  0  0
 59 61  1  0  0  0
 59 62  1  0  0  0
 60137  1  0  0  0
 60138  1  0  0  0
 60139  1  0  0  0
 61140  1  0  0  0
 61141  1  0  0  0
 61142  1  0  0  0
 62143  1  0  0  0
 62144  1  0  0  0
 62145  1  0  0  0
 63 65  1  0  0  0
 63146  1  0  0  0
 63147  1  0  0  0
 63148  1  0  0  0
 64149  1  0  0  0
 65150  1  0  0  0
 68 87  1  0  0  0
 71 73  2  0  0  0
 71 74  1  0  0  0
 71151  1  0  0  0
 72 75  1  0  0  0
 72 76  2  0  0  0
 72152  1  0  0  0
 73 76  1  0  0  0
 73 83  1  0  0  0
 74 75  2  0  0  0
 74 85  1  0  0  0
 75 88  1  0  0  0
 76 89  1  0  0  0
 77 79  1  0  0  0
 77 83  1  0  0  0
 77153  1  0  0  0
 77154  1  0  0  0
 78 80  1  0  0  0
 78 83  1  0  0  0
 78155  1  0  0  0
 78156  1  0  0  0
 79 90  1  0  0  0
 79157  1  0  0  0
 79158  1  0  0  0
 80 90  1  0  0  0
 80159  1  0  0  0
 80160  1  0  0  0
 81 84  1  0  0  0
 81 89  1  0  0  0
 81161  1  0  0  0
 81162  1  0  0  0
 82 84  1  0  0  0
 82 89  1  0  0  0
 82163  1  0  0  0
 82164  1  0  0  0
 83165  1  0  0  0
 84 91  1  0  0  0
 84166  1  0  0  0
 85167  1  0  0  0
 85168  1  0  0  0
 85169  1  0  0  0
 86170  1  0  0  0
 86171  1  0  0  0
 86172  1  0  0  0
 86 88  1  0  0  0
 87 88  1  0  0  0
 87173  1  0  0  0
 87174  1  0  0  0
 88175  1  0  0  0
 91176  1  0  0  0
 91177  1  0  0  0
 91178  1  0  0  0
M  CHG  1  91   1
M  ISO  4   1 100  68 101  87 101  90 100
M  END
> <chiral flag>
0

> <version>
0

> <s_m_source_file>
/data/baiqing/PycharmProjects/Reinvent-master-3.2/result/LINK_invent/BTK/process_docking_weight1_custom_sum_contain_oxygen_bond_distance_aromatic_linkinvent_7_9_3/rearranged_h_0165.sdf

> <i_m_source_file_index>
87

> <r_mmod_Potential_Energy-OPLS-2005>
-51.5233459472656

> <r_mmod_Stretch_Energy-OPLS-2005>
51.6664733886719

> <r_mmod_Bend_Energy-OPLS-2005>
139.20524597168

> <r_mmod_Torsional_Energy-OPLS-2005>
375.723358154297

> <r_mmod_Improper_Torsional_Energy-OPLS-2005>
22.1453552246094

> <r_mmod_Van_der_Waal_Energy-OPLS-2005>
158.716583251953

> <r_mmod_Electrostatic_Energy-OPLS-2005>
-299.853820800781

> <r_mmod_Solvation_Energy-OPLS-2005>
-518.112854003906

> <b_mmod_Minimization_Converged-OPLS-2005>
0

> <r_mmod_RMS_Derivative-OPLS-2005>
2.14158582687378

$$$$
88
                    3D
 Structure written by MMmdl.
176185  0  0  1  0            999 V2000
  -30.6520  -14.7417   20.4913 C   0  0  0  0  0  0
  -30.4201  -12.4610   19.4843 C   0  0  0  0  0  0
  -29.5055  -12.5108   18.2425 C   0  0  0  0  0  0
  -28.0346  -12.3317   18.6577 C   0  0  0  0  0  0
  -27.6392  -13.2388   19.8532 C   0  0  2  0  0  0
  -28.6810  -13.1926   20.9927 C   0  0  0  0  0  0
  -25.2482  -13.8206   20.5666 C   0  0  0  0  0  0
  -24.1792  -13.0452   20.9219 C   0  0  0  0  0  0
  -24.6394  -11.6932   20.8770 C   0  0  0  0  0  0
  -23.9075  -10.4300   21.0420 C   0  0  0  0  0  0
  -24.3624   -9.4209   21.9191 C   0  0  0  0  0  0
  -23.6298   -8.2244   22.0754 C   0  0  0  0  0  0
  -22.4281   -8.0283   21.3543 C   0  0  0  0  0  0
  -21.9920   -9.0260   20.4646 C   0  0  0  0  0  0
  -22.7249  -10.2142   20.3062 C   0  0  0  0  0  0
  -21.6853   -6.0738   22.5278 C   0  0  0  0  0  0
  -21.4015   -6.5641   23.8212 C   0  0  0  0  0  0
  -21.3660   -5.6793   24.9175 C   0  0  0  0  0  0
  -21.6045   -4.3056   24.7224 C   0  0  0  0  0  0
  -21.8818   -3.8148   23.4346 C   0  0  0  0  0  0
  -21.9193   -4.6964   22.3400 C   0  0  0  0  0  0
  -22.7814  -13.5232   21.1876 C   0  0  0  0  0  0
  -22.1661   -4.2150   21.0979 F   0  0  0  0  0  0
  -21.5629   -3.4540   25.7738 F   0  0  0  0  0  0
  -29.9844  -13.5357   20.4121 N   0  0  0  0  0  0
  -26.2923  -12.9434   20.3302 N   0  0  0  0  0  0
  -25.9330  -11.6571   20.5794 N   0  0  0  0  0  0
  -22.0465  -12.8215   22.0430 N   0  0  0  0  0  0
  -25.4159  -15.1907   20.3967 N   0  0  0  0  0  0
  -31.8181  -14.8024   20.0885 O   0  0  0  0  0  0
  -21.6643   -6.8881   21.4240 O   0  0  0  0  0  0
  -22.3496  -14.5535   20.6724 O   0  0  0  0  0  0
  -24.6322  -31.8548   23.1983 C   0  0  0  0  0  0
  -25.9143  -32.4751   23.8331 C   0  0  1  0  0  0
  -27.2120  -27.2399   20.1277 C   0  0  0  0  0  0
  -25.5929  -33.8555   24.2247 N   0  0  0  0  0  0
  -23.4301  -30.4781   21.5427 C   0  0  2  0  0  0
  -24.8771  -28.9284   20.1057 C   0  0  0  0  0  0
  -22.7514  -29.4592   22.4905 C   0  0  0  0  0  0
  -18.0297  -28.1381   22.8485 C   0  0  0  0  0  0
  -24.1491  -36.7283   23.2638 C   0  0  0  0  0  0
  -25.9791  -30.7576   21.3866 C   0  0  0  0  0  0
  -26.0489  -29.3803   20.7258 C   0  0  0  0  0  0
  -27.2165  -28.5467   20.7307 C   0  0  0  0  0  0
  -26.0237  -26.8802   19.4489 C   0  0  0  0  0  0
  -24.8714  -27.6877   19.4552 C   0  0  0  0  0  0
  -23.6486  -29.8165   20.1572 C   0  0  0  0  0  0
  -25.4118  -36.3069   24.0322 C   0  0  1  0  0  0
  -20.5903  -28.3697   23.1266 C   0  0  2  0  0  0
  -20.6789  -26.9415   22.5406 C   0  0  0  0  0  0
  -19.5762  -26.6381   21.5212 C   0  0  0  0  0  0
  -18.1941  -26.7925   22.1622 C   0  0  0  0  0  0
  -19.1550  -28.8858   23.2869 C   0  0  0  0  0  0
  -18.9468  -30.1456   23.8892 C   0  0  0  0  0  0
  -17.6468  -30.6586   24.0558 C   0  0  0  0  0  0
  -25.9060  -34.9440   23.5090 C   0  0  0  0  0  0
  -16.5359  -29.9083   23.6329 C   0  0  0  0  0  0
  -16.7282  -28.6495   23.0360 C   0  0  0  0  0  0
  -26.4501  -31.6584   25.0730 C   0  0  0  0  0  0
  -25.3700  -31.3737   26.1430 C   0  0  0  0  0  0
  -27.0357  -30.2993   24.6246 C   0  0  0  0  0  0
  -27.6054  -32.4336   25.7497 C   0  0  0  0  0  0
  -27.5585  -37.1793   24.8461 C   0  0  0  0  0  0
  -21.4219  -29.3040   22.3650 N   0  0  0  0  0  0
  -26.4294  -37.3768   23.9407 N   0  0  0  0  0  0
  -24.6994  -31.0488   22.0980 N   0  0  0  0  0  0
  -23.4207  -28.8131   23.3009 O   0  0  0  0  0  0
  -28.2860  -26.3121   20.2230 O   0  0  0  0  0  0
  -26.5644  -34.8919   22.4667 O   0  0  0  0  0  0
  -23.5465  -32.1392   23.7257 O   0  0  0  0  0  0
  -27.1671  -18.7732   21.3629 C   0  0  0  0  0  0
  -28.2615  -19.4651   20.7853 C   0  0  0  0  0  0
  -28.0078  -20.8691   20.3285 C   0  0  0  0  0  0
  -26.6201  -21.2052   20.1475 C   0  0  0  0  0  0
  -25.5727  -20.4544   20.7383 C   0  0  0  0  0  0
  -25.8557  -19.2639   21.4168 C   0  0  0  0  0  0
  -29.3306  -16.9752   20.1676 C   0  0  0  0  0  0
  -30.7729  -16.6992   21.9703 C   0  0  0  0  0  0
  -29.5299  -18.4748   20.7557 C   0  0  2  0  0  0
  -30.0594  -18.0641   22.1465 C   0  0  2  0  0  0
  -26.1632  -22.3360   19.2258 C   0  0  0  0  0  0
  -24.1198  -20.9209   20.6399 C   0  0  0  0  0  0
  -30.4886  -21.6490   20.1120 C   0  0  0  0  0  0
  -25.1515  -17.6454   23.0482 C   0  0  0  0  0  0
  -28.8348  -23.5895   20.6071 C   0  0  0  0  0  0
  -28.0530  -24.8459   19.9158 C   0  0  0  0  0  0
  -29.0195  -22.0712   19.9558 C   0  0  2  0  0  0
  -30.0325  -15.8962   20.9793 N   0  0  0  0  0  0
  -30.8709  -19.0884   22.8265 N   0  3  0  0  0  0
  -24.8236  -18.5816   22.0267 O   0  0  0  0  0  0
  -31.4635  -12.5630   19.1821 H   0  0  0  0  0  0
  -30.3513  -11.4883   19.9745 H   0  0  0  0  0  0
  -29.7901  -11.7346   17.5309 H   0  0  0  0  0  0
  -29.6310  -13.4637   17.7261 H   0  0  0  0  0  0
  -27.8978  -11.2843   18.9300 H   0  0  0  0  0  0
  -27.3744  -12.5129   17.8086 H   0  0  0  0  0  0
  -27.6306  -14.2576   19.4657 H   0  0  0  0  0  0
  -28.7142  -12.2031   21.4517 H   0  0  0  0  0  0
  -28.4104  -13.8916   21.7856 H   0  0  0  0  0  0
  -25.2767   -9.5685   22.4770 H   0  0  0  0  0  0
  -24.0008   -7.4632   22.7469 H   0  0  0  0  0  0
  -21.0853   -8.8782   19.8947 H   0  0  0  0  0  0
  -22.3709  -10.9684   19.6174 H   0  0  0  0  0  0
  -21.2007   -7.6149   23.9715 H   0  0  0  0  0  0
  -21.1483   -6.0524   25.9078 H   0  0  0  0  0  0
  -22.0596   -2.7609   23.2846 H   0  0  0  0  0  0
  -22.4083  -11.9875   22.4812 H   0  0  0  0  0  0
  -21.1077  -13.1227   22.2630 H   0  0  0  0  0  0
  -24.6433  -15.8411   20.4855 H   0  0  0  0  0  0
  -26.2551  -15.6201   20.0326 H   0  0  0  0  0  0
  -26.7206  -32.5393   23.1067 H   0  0  0  0  0  0
  -25.0040  -33.9685   25.0368 H   0  0  0  0  0  0
  -22.7271  -31.3011   21.3982 H   0  0  0  0  0  0
  -23.3756  -35.9611   23.3290 H   0  0  0  0  0  0
  -24.3582  -36.8928   22.2056 H   0  0  0  0  0  0
  -23.7247  -37.6479   23.6677 H   0  0  0  0  0  0
  -26.1268  -31.5180   20.6186 H   0  0  0  0  0  0
  -26.8534  -30.8020   22.0241 H   0  0  0  0  0  0
  -28.1074  -28.8797   21.2445 H   0  0  0  0  0  0
  -25.9443  -25.9467   18.9133 H   0  0  0  0  0  0
  -23.9797  -27.3436   18.9493 H   0  0  0  0  0  0
  -23.7732  -30.5954   19.4042 H   0  0  0  0  0  0
  -22.7664  -29.2516   19.8503 H   0  0  0  0  0  0
  -25.1301  -36.1912   25.0814 H   0  0  0  0  0  0
  -20.9995  -28.3282   24.1387 H   0  0  0  0  0  0
  -20.5701  -26.2304   23.3610 H   0  0  0  0  0  0
  -21.6655  -26.7448   22.1194 H   0  0  0  0  0  0
  -19.6927  -25.6289   21.1250 H   0  0  0  0  0  0
  -19.6701  -27.3183   20.6736 H   0  0  0  0  0  0
  -17.4213  -26.6674   21.4022 H   0  0  0  0  0  0
  -18.0341  -26.0064   22.9014 H   0  0  0  0  0  0
  -19.7944  -30.7269   24.2268 H   0  0  0  0  0  0
  -17.5022  -31.6267   24.5155 H   0  0  0  0  0  0
  -15.5359  -30.2982   23.7653 H   0  0  0  0  0  0
  -15.8682  -28.0806   22.7093 H   0  0  0  0  0  0
  -24.5886  -30.7083   25.7736 H   0  0  0  0  0  0
  -24.8864  -32.2901   26.4822 H   0  0  0  0  0  0
  -25.7987  -30.8925   27.0229 H   0  0  0  0  0  0
  -26.2949  -29.6729   24.1259 H   0  0  0  0  0  0
  -27.4009  -29.7274   25.4786 H   0  0  0  0  0  0
  -27.8845  -30.4252   23.9522 H   0  0  0  0  0  0
  -27.2669  -33.3656   26.2037 H   0  0  0  0  0  0
  -28.3873  -32.6872   25.0325 H   0  0  0  0  0  0
  -28.0710  -31.8486   26.5437 H   0  0  0  0  0  0
  -28.2583  -38.0109   24.7534 H   0  0  0  0  0  0
  -28.1107  -36.2642   24.6260 H   0  0  0  0  0  0
  -27.2304  -37.1411   25.8863 H   0  0  0  0  0  0
  -20.9407  -29.8756   21.6847 H   0  0  0  0  0  0
  -26.0172  -38.2840   24.1418 H   0  0  0  0  0  0
  -27.3310  -17.7875   21.7650 H   0  0  0  0  0  0
  -29.6722  -16.9420   19.1319 H   0  0  0  0  0  0
  -28.2786  -16.6985   20.1253 H   0  0  0  0  0  0
  -30.8360  -16.1637   22.9190 H   0  0  0  0  0  0
  -31.7957  -16.8619   21.6235 H   0  0  0  0  0  0
  -30.3401  -18.9194   20.1865 H   0  0  0  0  0  0
  -29.2185  -17.8685   22.8121 H   0  0  0  0  0  0
  -26.9353  -22.7758   18.6050 H   0  0  0  0  0  0
  -25.6537  -23.1186   19.7841 H   0  0  0  0  0  0
  -25.4408  -21.9453   18.5091 H   0  0  0  0  0  0
  -24.0281  -21.9781   20.8875 H   0  0  0  0  0  0
  -23.4565  -20.3928   21.3235 H   0  0  0  0  0  0
  -23.7355  -20.7663   19.6317 H   0  0  0  0  0  0
  -30.7390  -20.8382   19.4314 H   0  0  0  0  0  0
  -30.7195  -21.3536   21.1331 H   0  0  0  0  0  0
  -31.1679  -22.4598   19.8465 H   0  0  0  0  0  0
  -24.2432  -17.3565   23.5765 H   0  0  0  0  0  0
  -25.8361  -18.0756   23.7809 H   0  0  0  0  0  0
  -25.5925  -16.7352   22.6440 H   0  0  0  0  0  0
  -28.4840  -23.4799   21.6336 H   0  0  0  0  0  0
  -29.8412  -23.9890   20.7293 H   0  0  0  0  0  0
  -27.0212  -24.6556   20.1830 H   0  0  0  0  0  0
  -28.1323  -24.7470   18.8332 H   0  0  0  0  0  0
  -28.9366  -22.1996   18.8772 H   0  0  0  0  0  0
  -31.6887  -19.3250   22.2938 H   0  0  0  0  0  0
  -31.1665  -18.7575   23.7281 H   0  0  0  0  0  0
  -30.3254  -19.9198   22.9714 H   0  0  0  0  0  0
  1 25  1  0  0  0
  1 30  2  0  0  0
  1 88  1  0  0  0
  2  3  1  0  0  0
  2 25  1  0  0  0
  2 91  1  0  0  0
  2 92  1  0  0  0
  3  4  1  0  0  0
  3 93  1  0  0  0
  3 94  1  0  0  0
  4  5  1  0  0  0
  4 95  1  0  0  0
  4 96  1  0  0  0
  5  6  1  0  0  0
  5 26  1  0  0  0
  5 97  1  0  0  0
  6 25  1  0  0  0
  6 98  1  0  0  0
  6 99  1  0  0  0
  7  8  2  0  0  0
  7 26  1  0  0  0
  7 29  1  0  0  0
  8  9  1  0  0  0
  8 22  1  0  0  0
  9 10  1  0  0  0
  9 27  2  0  0  0
 10 11  2  0  0  0
 10 15  1  0  0  0
 11 12  1  0  0  0
 11100  1  0  0  0
 12 13  2  0  0  0
 12101  1  0  0  0
 13 14  1  0  0  0
 13 31  1  0  0  0
 14 15  2  0  0  0
 14102  1  0  0  0
 15103  1  0  0  0
 16 17  2  0  0  0
 16 21  1  0  0  0
 16 31  1  0  0  0
 17 18  1  0  0  0
 17104  1  0  0  0
 18 19  2  0  0  0
 18105  1  0  0  0
 19 20  1  0  0  0
 19 24  1  0  0  0
 20 21  2  0  0  0
 20106  1  0  0  0
 21 23  1  0  0  0
 22 28  1  0  0  0
 22 32  2  0  0  0
 26 27  1  0  0  0
 28107  1  0  0  0
 28108  1  0  0  0
 29109  1  0  0  0
 29110  1  0  0  0
 33 34  1  0  0  0
 33 66  1  0  0  0
 33 70  2  0  0  0
 34 36  1  0  0  0
 34 59  1  0  0  0
 34111  1  0  0  0
 35 44  2  0  0  0
 35 45  1  0  0  0
 35 68  1  0  0  0
 36 56  1  0  0  0
 36112  1  0  0  0
 37 39  1  0  0  0
 37 47  1  0  0  0
 37 66  1  0  0  0
 37113  1  0  0  0
 38 43  2  0  0  0
 38 46  1  0  0  0
 38 47  1  0  0  0
 39 64  1  0  0  0
 39 67  2  0  0  0
 40 52  1  0  0  0
 40 53  2  0  0  0
 40 58  1  0  0  0
 41114  1  0  0  0
 41115  1  0  0  0
 41116  1  0  0  0
 41 48  1  0  0  0
 42 43  1  0  0  0
 42 66  1  0  0  0
 42117  1  0  0  0
 42118  1  0  0  0
 43 44  1  0  0  0
 44119  1  0  0  0
 45 46  2  0  0  0
 45120  1  0  0  0
 46121  1  0  0  0
 47122  1  0  0  0
 47123  1  0  0  0
 48 56  1  0  0  0
 48 65  1  0  0  0
 48124  1  0  0  0
 49 50  1  0  0  0
 49 53  1  0  0  0
 49 64  1  0  0  0
 49125  1  0  0  0
 50 51  1  0  0  0
 50126  1  0  0  0
 50127  1  0  0  0
 51 52  1  0  0  0
 51128  1  0  0  0
 51129  1  0  0  0
 52130  1  0  0  0
 52131  1  0  0  0
 53 54  1  0  0  0
 54 55  2  0  0  0
 54132  1  0  0  0
 55 57  1  0  0  0
 55133  1  0  0  0
 56 69  2  0  0  0
 57 58  2  0  0  0
 57134  1  0  0  0
 58135  1  0  0  0
 59 60  1  0  0  0
 59 61  1  0  0  0
 59 62  1  0  0  0
 60136  1  0  0  0
 60137  1  0  0  0
 60138  1  0  0  0
 61139  1  0  0  0
 61140  1  0  0  0
 61141  1  0  0  0
 62142  1  0  0  0
 62143  1  0  0  0
 62144  1  0  0  0
 63 65  1  0  0  0
 63145  1  0  0  0
 63146  1  0  0  0
 63147  1  0  0  0
 64148  1  0  0  0
 65149  1  0  0  0
 68 86  1  0  0  0
 71 72  2  0  0  0
 71 76  1  0  0  0
 71150  1  0  0  0
 72 73  1  0  0  0
 72 79  1  0  0  0
 73 74  2  0  0  0
 73 87  1  0  0  0
 74 75  1  0  0  0
 74 81  1  0  0  0
 75 76  2  0  0  0
 75 82  1  0  0  0
 76 90  1  0  0  0
 77 79  1  0  0  0
 77 88  1  0  0  0
 77151  1  0  0  0
 77152  1  0  0  0
 78 80  1  0  0  0
 78 88  1  0  0  0
 78153  1  0  0  0
 78154  1  0  0  0
 79 80  1  0  0  0
 79155  1  0  0  0
 80 89  1  0  0  0
 80156  1  0  0  0
 81157  1  0  0  0
 81158  1  0  0  0
 81159  1  0  0  0
 82160  1  0  0  0
 82161  1  0  0  0
 82162  1  0  0  0
 83163  1  0  0  0
 83164  1  0  0  0
 83165  1  0  0  0
 83 87  1  0  0  0
 84 90  1  0  0  0
 84166  1  0  0  0
 84167  1  0  0  0
 84168  1  0  0  0
 85 86  1  0  0  0
 85 87  1  0  0  0
 85169  1  0  0  0
 85170  1  0  0  0
 86171  1  0  0  0
 86172  1  0  0  0
 87173  1  0  0  0
 89174  1  0  0  0
 89175  1  0  0  0
 89176  1  0  0  0
M  CHG  1  89   1
M  ISO  4   1 100  68 101  86 101  88 100
M  END
> <chiral flag>
0

> <version>
0

> <s_m_source_file>
/data/baiqing/PycharmProjects/Reinvent-master-3.2/result/LINK_invent/BTK/process_docking_weight1_custom_sum_contain_oxygen_bond_distance_aromatic_linkinvent_7_9_3/rearranged_h_0165.sdf

> <i_m_source_file_index>
88

> <r_mmod_Potential_Energy-OPLS-2005>
274.3466796875

> <r_mmod_Stretch_Energy-OPLS-2005>
173.348831176758

> <r_mmod_Bend_Energy-OPLS-2005>
278.222686767578

> <r_mmod_Torsional_Energy-OPLS-2005>
396.191436767578

> <r_mmod_Improper_Torsional_Energy-OPLS-2005>
6.8322286605835

> <r_mmod_Van_der_Waal_Energy-OPLS-2005>
164.037628173828

> <r_mmod_Electrostatic_Energy-OPLS-2005>
-349.856536865234

> <r_mmod_Solvation_Energy-OPLS-2005>
-488.103820800781

> <b_mmod_Minimization_Converged-OPLS-2005>
0

> <r_mmod_RMS_Derivative-OPLS-2005>
0.617002308368683

$$$$
89
                    3D
 Structure written by MMmdl.
172182  0  0  1  0            999 V2000
  -30.6427  -14.8376   20.4241 C   0  0  0  0  0  0
  -30.4302  -12.5228   19.4614 C   0  0  0  0  0  0
  -29.4991  -12.4931   18.2294 C   0  0  0  0  0  0
  -28.0381  -12.2749   18.6653 C   0  0  0  0  0  0
  -27.6272  -13.2046   19.8324 C   0  0  2  0  0  0
  -28.6890  -13.2363   20.9596 C   0  0  0  0  0  0
  -25.2458  -13.8082   20.5657 C   0  0  0  0  0  0
  -24.1762  -13.0359   20.9225 C   0  0  0  0  0  0
  -24.6349  -11.6843   20.8795 C   0  0  0  0  0  0
  -23.9034  -10.4243   21.0440 C   0  0  0  0  0  0
  -24.3594   -9.4162   21.9212 C   0  0  0  0  0  0
  -23.6270   -8.2202   22.0766 C   0  0  0  0  0  0
  -22.4262   -8.0252   21.3534 C   0  0  0  0  0  0
  -21.9893   -9.0233   20.4641 C   0  0  0  0  0  0
  -22.7224  -10.2109   20.3068 C   0  0  0  0  0  0
  -21.6836   -6.0723   22.5281 C   0  0  0  0  0  0
  -21.4003   -6.5631   23.8214 C   0  0  0  0  0  0
  -21.3655   -5.6786   24.9178 C   0  0  0  0  0  0
  -21.6048   -4.3048   24.7234 C   0  0  0  0  0  0
  -21.8809   -3.8140   23.4350 C   0  0  0  0  0  0
  -21.9183   -4.6953   22.3404 C   0  0  0  0  0  0
  -22.7799  -13.5180   21.1881 C   0  0  0  0  0  0
  -22.1647   -4.2140   21.0979 F   0  0  0  0  0  0
  -21.5640   -3.4535   25.7747 F   0  0  0  0  0  0
  -29.9671  -13.6258   20.3441 N   0  0  0  0  0  0
  -26.2881  -12.9240   20.3299 N   0  0  0  0  0  0
  -25.9276  -11.6423   20.5838 N   0  0  0  0  0  0
  -22.0451  -12.8178   22.0450 N   0  0  0  0  0  0
  -25.3998  -15.1790   20.3881 N   0  0  0  0  0  0
  -31.8613  -14.8239   20.2259 O   0  0  0  0  0  0
  -21.6616   -6.8859   21.4240 O   0  0  0  0  0  0
  -22.3502  -14.5498   20.6742 O   0  0  0  0  0  0
  -24.6365  -31.8493   23.1926 C   0  0  0  0  0  0
  -25.9160  -32.4718   23.8313 C   0  0  1  0  0  0
  -27.2280  -27.2275   20.1379 C   0  0  0  0  0  0
  -25.5913  -33.8531   24.2219 N   0  0  0  0  0  0
  -23.4386  -30.4691   21.5360 C   0  0  2  0  0  0
  -24.8891  -28.9099   20.1110 C   0  0  0  0  0  0
  -22.7535  -29.4574   22.4882 C   0  0  0  0  0  0
  -18.0294  -28.1406   22.8477 C   0  0  0  0  0  0
  -24.1489  -36.7291   23.2642 C   0  0  0  0  0  0
  -25.9869  -30.7527   21.3776 C   0  0  0  0  0  0
  -26.0636  -29.3728   20.7196 C   0  0  0  0  0  0
  -27.2399  -28.5476   20.7144 C   0  0  0  0  0  0
  -26.0313  -26.8403   19.4971 C   0  0  0  0  0  0
  -24.8799  -27.6536   19.4873 C   0  0  0  0  0  0
  -23.6602  -29.7999   20.1549 C   0  0  0  0  0  0
  -25.4110  -36.3057   24.0321 C   0  0  1  0  0  0
  -20.5904  -28.3727   23.1241 C   0  0  2  0  0  0
  -20.6769  -26.9433   22.5405 C   0  0  0  0  0  0
  -19.5749  -26.6383   21.5208 C   0  0  0  0  0  0
  -18.1927  -26.7945   22.1620 C   0  0  0  0  0  0
  -19.1554  -28.8887   23.2840 C   0  0  0  0  0  0
  -18.9475  -30.1480   23.8881 C   0  0  0  0  0  0
  -17.6484  -30.6601   24.0571 C   0  0  0  0  0  0
  -25.9065  -34.9427   23.5084 C   0  0  0  0  0  0
  -16.5369  -29.9102   23.6343 C   0  0  0  0  0  0
  -16.7291  -28.6521   23.0360 C   0  0  0  0  0  0
  -26.4506  -31.6576   25.0747 C   0  0  0  0  0  0
  -25.3707  -31.3728   26.1470 C   0  0  0  0  0  0
  -27.0380  -30.2994   24.6269 C   0  0  0  0  0  0
  -27.6069  -32.4344   25.7504 C   0  0  0  0  0  0
  -27.5580  -37.1774   24.8449 C   0  0  0  0  0  0
  -21.4234  -29.3063   22.3628 N   0  0  0  0  0  0
  -26.4277  -37.3760   23.9424 N   0  0  0  0  0  0
  -24.7064  -31.0444   22.0917 N   0  0  0  0  0  0
  -23.4200  -28.8100   23.2990 O   0  0  0  0  0  0
  -28.2894  -26.2840   20.1901 O   0  0  0  0  0  0
  -26.5660  -34.8900   22.4666 O   0  0  0  0  0  0
  -23.5497  -32.1362   23.7175 O   0  0  0  0  0  0
  -29.4684  -22.5399   19.4999 C   0  0  0  0  0  0
  -29.7489  -23.2108   18.2731 C   0  0  0  0  0  0
  -30.9044  -22.8980   17.5162 C   0  0  0  0  0  0
  -31.7574  -21.8586   17.9414 C   0  0  0  0  0  0
  -31.3802  -21.0434   19.0372 C   0  0  0  0  0  0
  -30.1330  -21.2256   19.7085 C   0  0  0  0  0  0
  -28.3644  -17.9351   20.2059 C   0  0  0  0  0  0
  -29.0940  -24.3856   21.4094 C   0  0  0  0  0  0
  -28.6157  -16.4031   20.1350 C   0  0  0  0  0  0
  -30.6202  -17.4726   20.6847 C   0  0  0  0  0  0
  -28.5277  -23.3386   20.4919 C   0  0  1  0  0  0
  -29.7093  -18.6322   20.0293 C   0  0  2  0  0  0
  -27.9144  -24.8653   20.5824 C   0  0  2  0  0  0
  -28.7828  -24.2653   17.7310 C   0  0  0  0  0  0
  -31.2988  -23.7225   16.2865 C   0  0  0  0  0  0
  -33.0528  -21.5982   17.1615 C   0  0  0  0  0  0
  -32.3994  -20.0312   19.5579 C   0  0  0  0  0  0
  -29.9894  -16.0886   20.5441 N   0  0  0  0  0  0
  -29.6864  -20.0960   20.5168 N   0  0  0  0  0  0
  -31.4641  -12.6515   19.1388 H   0  0  0  0  0  0
  -30.4060  -11.5682   19.9901 H   0  0  0  0  0  0
  -29.8059  -11.7015   17.5448 H   0  0  0  0  0  0
  -29.5858  -13.4285   17.6730 H   0  0  0  0  0  0
  -27.9362  -11.2326   18.9707 H   0  0  0  0  0  0
  -27.3649  -12.4087   17.8176 H   0  0  0  0  0  0
  -27.5672  -14.1799   19.3689 H   0  0  0  0  0  0
  -28.7734  -12.2579   21.4352 H   0  0  0  0  0  0
  -28.4135  -13.9336   21.7516 H   0  0  0  0  0  0
  -25.2732   -9.5630   22.4801 H   0  0  0  0  0  0
  -23.9963   -7.4584   22.7480 H   0  0  0  0  0  0
  -21.0827   -8.8747   19.8944 H   0  0  0  0  0  0
  -22.3684  -10.9654   19.6179 H   0  0  0  0  0  0
  -21.1982   -7.6138   23.9712 H   0  0  0  0  0  0
  -21.1498   -6.0521   25.9077 H   0  0  0  0  0  0
  -22.0590   -2.7605   23.2863 H   0  0  0  0  0  0
  -22.4068  -11.9833   22.4817 H   0  0  0  0  0  0
  -21.1078  -13.1213   22.2682 H   0  0  0  0  0  0
  -24.6152  -15.8161   20.4730 H   0  0  0  0  0  0
  -26.2303  -15.6229   20.0229 H   0  0  0  0  0  0
  -26.7219  -32.5373   23.1060 H   0  0  0  0  0  0
  -25.0045  -33.9668   25.0350 H   0  0  0  0  0  0
  -22.7400  -31.2938   21.3815 H   0  0  0  0  0  0
  -23.3762  -35.9611   23.3259 H   0  0  0  0  0  0
  -24.3588  -36.8995   22.2068 H   0  0  0  0  0  0
  -23.7239  -37.6462   23.6729 H   0  0  0  0  0  0
  -26.1307  -31.5074   20.6024 H   0  0  0  0  0  0
  -26.8597  -30.8020   22.0153 H   0  0  0  0  0  0
  -28.1407  -28.8963   21.2020 H   0  0  0  0  0  0
  -25.9713  -25.8732   19.0177 H   0  0  0  0  0  0
  -23.9796  -27.2959   19.0063 H   0  0  0  0  0  0
  -23.7851  -30.5752   19.3970 H   0  0  0  0  0  0
  -22.7787  -29.2310   19.8528 H   0  0  0  0  0  0
  -25.1271  -36.1893   25.0810 H   0  0  0  0  0  0
  -20.9991  -28.3319   24.1362 H   0  0  0  0  0  0
  -20.5651  -26.2350   23.3631 H   0  0  0  0  0  0
  -21.6630  -26.7420   22.1204 H   0  0  0  0  0  0
  -19.6908  -25.6277   21.1277 H   0  0  0  0  0  0
  -19.6690  -27.3156   20.6713 H   0  0  0  0  0  0
  -17.4185  -26.6706   21.4023 H   0  0  0  0  0  0
  -18.0313  -26.0080   22.9017 H   0  0  0  0  0  0
  -19.7953  -30.7281   24.2249 H   0  0  0  0  0  0
  -17.5042  -31.6286   24.5162 H   0  0  0  0  0  0
  -15.5370  -30.3007   23.7676 H   0  0  0  0  0  0
  -15.8688  -28.0850   22.7080 H   0  0  0  0  0  0
  -24.5892  -30.7077   25.7783 H   0  0  0  0  0  0
  -24.8899  -32.2895   26.4903 H   0  0  0  0  0  0
  -25.8016  -30.8905   27.0258 H   0  0  0  0  0  0
  -26.2986  -29.6721   24.1292 H   0  0  0  0  0  0
  -27.4043  -29.7297   25.4811 H   0  0  0  0  0  0
  -27.8851  -30.4279   23.9541 H   0  0  0  0  0  0
  -27.2701  -33.3685   26.2015 H   0  0  0  0  0  0
  -28.3889  -32.6842   25.0322 H   0  0  0  0  0  0
  -28.0721  -31.8519   26.5472 H   0  0  0  0  0  0
  -28.2520  -38.0132   24.7563 H   0  0  0  0  0  0
  -28.1146  -36.2673   24.6175 H   0  0  0  0  0  0
  -27.2326  -37.1298   25.8851 H   0  0  0  0  0  0
  -20.9442  -29.8846   21.6864 H   0  0  0  0  0  0
  -26.0155  -38.2830   24.1455 H   0  0  0  0  0  0
  -27.9548  -18.1707   21.1893 H   0  0  0  0  0  0
  -27.6296  -18.2588   19.4667 H   0  0  0  0  0  0
  -30.0718  -24.7822   21.1450 H   0  0  0  0  0  0
  -28.9287  -24.2737   22.4784 H   0  0  0  0  0  0
  -28.4851  -16.0747   19.1026 H   0  0  0  0  0  0
  -27.9030  -15.8950   20.7781 H   0  0  0  0  0  0
  -30.7551  -17.6612   21.7514 H   0  0  0  0  0  0
  -31.6156  -17.4566   20.2420 H   0  0  0  0  0  0
  -27.9058  -22.5851   20.9682 H   0  0  0  0  0  0
  -29.9307  -18.6425   18.9604 H   0  0  0  0  0  0
  -26.9649  -24.9017   21.1128 H   0  0  0  0  0  0
  -27.7864  -24.1856   18.1599 H   0  0  0  0  0  0
  -28.6021  -24.1164   16.6655 H   0  0  0  0  0  0
  -29.1642  -25.2750   17.8851 H   0  0  0  0  0  0
  -30.5882  -24.4901   15.9934 H   0  0  0  0  0  0
  -31.4508  -23.0784   15.4196 H   0  0  0  0  0  0
  -32.2313  -24.2513   16.4838 H   0  0  0  0  0  0
  -33.6011  -22.5243   16.9905 H   0  0  0  0  0  0
  -32.8162  -21.1572   16.1921 H   0  0  0  0  0  0
  -33.7613  -20.9286   17.6415 H   0  0  0  0  0  0
  -33.3656  -20.5125   19.7051 H   0  0  0  0  0  0
  -32.5186  -19.1995   18.8645 H   0  0  0  0  0  0
  -32.1561  -19.6521   20.5476 H   0  0  0  0  0  0
  -28.8756  -20.3079   21.0891 H   0  0  0  0  0  0
  1 25  1  0  0  0
  1 30  2  0  0  0
  1 88  1  0  0  0
  2  3  1  0  0  0
  2 25  1  0  0  0
  2 90  1  0  0  0
  2 91  1  0  0  0
  3  4  1  0  0  0
  3 92  1  0  0  0
  3 93  1  0  0  0
  4  5  1  0  0  0
  4 94  1  0  0  0
  4 95  1  0  0  0
  5  6  1  0  0  0
  5 26  1  0  0  0
  5 96  1  0  0  0
  6 25  1  0  0  0
  6 97  1  0  0  0
  6 98  1  0  0  0
  7  8  2  0  0  0
  7 26  1  0  0  0
  7 29  1  0  0  0
  8  9  1  0  0  0
  8 22  1  0  0  0
  9 10  1  0  0  0
  9 27  2  0  0  0
 10 11  2  0  0  0
 10 15  1  0  0  0
 11 12  1  0  0  0
 11 99  1  0  0  0
 12 13  2  0  0  0
 12100  1  0  0  0
 13 14  1  0  0  0
 13 31  1  0  0  0
 14 15  2  0  0  0
 14101  1  0  0  0
 15102  1  0  0  0
 16 17  2  0  0  0
 16 21  1  0  0  0
 16 31  1  0  0  0
 17 18  1  0  0  0
 17103  1  0  0  0
 18 19  2  0  0  0
 18104  1  0  0  0
 19 20  1  0  0  0
 19 24  1  0  0  0
 20 21  2  0  0  0
 20105  1  0  0  0
 21 23  1  0  0  0
 22 28  1  0  0  0
 22 32  2  0  0  0
 26 27  1  0  0  0
 28106  1  0  0  0
 28107  1  0  0  0
 29108  1  0  0  0
 29109  1  0  0  0
 33 34  1  0  0  0
 33 66  1  0  0  0
 33 70  2  0  0  0
 34 36  1  0  0  0
 34 59  1  0  0  0
 34110  1  0  0  0
 35 44  2  0  0  0
 35 45  1  0  0  0
 35 68  1  0  0  0
 36 56  1  0  0  0
 36111  1  0  0  0
 37 39  1  0  0  0
 37 47  1  0  0  0
 37 66  1  0  0  0
 37112  1  0  0  0
 38 43  2  0  0  0
 38 46  1  0  0  0
 38 47  1  0  0  0
 39 64  1  0  0  0
 39 67  2  0  0  0
 40 52  1  0  0  0
 40 53  2  0  0  0
 40 58  1  0  0  0
 41113  1  0  0  0
 41114  1  0  0  0
 41115  1  0  0  0
 41 48  1  0  0  0
 42 43  1  0  0  0
 42 66  1  0  0  0
 42116  1  0  0  0
 42117  1  0  0  0
 43 44  1  0  0  0
 44118  1  0  0  0
 45 46  2  0  0  0
 45119  1  0  0  0
 46120  1  0  0  0
 47121  1  0  0  0
 47122  1  0  0  0
 48 56  1  0  0  0
 48 65  1  0  0  0
 48123  1  0  0  0
 49 50  1  0  0  0
 49 53  1  0  0  0
 49 64  1  0  0  0
 49124  1  0  0  0
 50 51  1  0  0  0
 50125  1  0  0  0
 50126  1  0  0  0
 51 52  1  0  0  0
 51127  1  0  0  0
 51128  1  0  0  0
 52129  1  0  0  0
 52130  1  0  0  0
 53 54  1  0  0  0
 54 55  2  0  0  0
 54131  1  0  0  0
 55 57  1  0  0  0
 55132  1  0  0  0
 56 69  2  0  0  0
 57 58  2  0  0  0
 57133  1  0  0  0
 58134  1  0  0  0
 59 60  1  0  0  0
 59 61  1  0  0  0
 59 62  1  0  0  0
 60135  1  0  0  0
 60136  1  0  0  0
 60137  1  0  0  0
 61138  1  0  0  0
 61139  1  0  0  0
 61140  1  0  0  0
 62141  1  0  0  0
 62142  1  0  0  0
 62143  1  0  0  0
 63 65  1  0  0  0
 63144  1  0  0  0
 63145  1  0  0  0
 63146  1  0  0  0
 64147  1  0  0  0
 65148  1  0  0  0
 68 83  1  0  0  0
 71 72  2  0  0  0
 71 76  1  0  0  0
 71 81  1  0  0  0
 72 73  1  0  0  0
 72 84  1  0  0  0
 73 74  2  0  0  0
 73 85  1  0  0  0
 74 75  1  0  0  0
 74 86  1  0  0  0
 75 76  2  0  0  0
 75 87  1  0  0  0
 76 89  1  0  0  0
 77 79  1  0  0  0
 77 82  1  0  0  0
 77149  1  0  0  0
 77150  1  0  0  0
 78 81  1  0  0  0
 78 83  1  0  0  0
 78151  1  0  0  0
 78152  1  0  0  0
 79 88  1  0  0  0
 79153  1  0  0  0
 79154  1  0  0  0
 80 82  1  0  0  0
 80 88  1  0  0  0
 80155  1  0  0  0
 80156  1  0  0  0
 81 83  1  0  0  0
 81157  1  0  0  0
 82 89  1  0  0  0
 82158  1  0  0  0
 83159  1  0  0  0
 84160  1  0  0  0
 84161  1  0  0  0
 84162  1  0  0  0
 85163  1  0  0  0
 85164  1  0  0  0
 85165  1  0  0  0
 86166  1  0  0  0
 86167  1  0  0  0
 86168  1  0  0  0
 87169  1  0  0  0
 87170  1  0  0  0
 87171  1  0  0  0
 89172  1  0  0  0
M  ISO  4   1 100  68 101  83 101  88 100
M  END
> <chiral flag>
0

> <version>
0

> <s_m_source_file>
/data/baiqing/PycharmProjects/Reinvent-master-3.2/result/LINK_invent/BTK/process_docking_weight1_custom_sum_contain_oxygen_bond_distance_aromatic_linkinvent_7_9_3/rearranged_h_0165.sdf

> <i_m_source_file_index>
89

> <r_mmod_Potential_Energy-OPLS-2005>
553.275085449219

> <r_mmod_Stretch_Energy-OPLS-2005>
172.442153930664

> <r_mmod_Bend_Energy-OPLS-2005>
293.154602050781

> <r_mmod_Torsional_Energy-OPLS-2005>
410.821807861328

> <r_mmod_Improper_Torsional_Energy-OPLS-2005>
8.35464572906494

> <r_mmod_Van_der_Waal_Energy-OPLS-2005>
168.735610961914

> <r_mmod_Electrostatic_Energy-OPLS-2005>
-412.644653320312

> <r_mmod_Solvation_Energy-OPLS-2005>
-214.598648071289

> <b_mmod_Minimization_Converged-OPLS-2005>
0

> <r_mmod_RMS_Derivative-OPLS-2005>
2.97836565971375

$$$$
90
                    3D
 Structure written by MMmdl.
166176  0  0  1  0            999 V2000
  -30.6454  -14.6091   20.4887 C   0  0  0  0  0  0
  -30.4225  -12.3681   19.4573 C   0  0  0  0  0  0
  -29.4997  -12.4895   18.2255 C   0  0  0  0  0  0
  -28.0228  -12.3368   18.6369 C   0  0  0  0  0  0
  -27.6481  -13.2162   19.8597 C   0  0  2  0  0  0
  -28.6912  -13.0838   20.9925 C   0  0  0  0  0  0
  -25.2532  -13.8181   20.5668 C   0  0  0  0  0  0
  -24.1803  -13.0441   20.9197 C   0  0  0  0  0  0
  -24.6374  -11.6920   20.8756 C   0  0  0  0  0  0
  -23.9047  -10.4294   21.0414 C   0  0  0  0  0  0
  -24.3607   -9.4209   21.9189 C   0  0  0  0  0  0
  -23.6286   -8.2241   22.0759 C   0  0  0  0  0  0
  -22.4270   -8.0268   21.3543 C   0  0  0  0  0  0
  -21.9898   -9.0242   20.4647 C   0  0  0  0  0  0
  -22.7222  -10.2128   20.3058 C   0  0  0  0  0  0
  -21.6845   -6.0726   22.5272 C   0  0  0  0  0  0
  -21.4014   -6.5637   23.8206 C   0  0  0  0  0  0
  -21.3664   -5.6795   24.9170 C   0  0  0  0  0  0
  -21.6041   -4.3055   24.7226 C   0  0  0  0  0  0
  -21.8820   -3.8145   23.4348 C   0  0  0  0  0  0
  -21.9194   -4.6956   22.3401 C   0  0  0  0  0  0
  -22.7822  -13.5227   21.1852 C   0  0  0  0  0  0
  -22.1655   -4.2139   21.0980 F   0  0  0  0  0  0
  -21.5635   -3.4538   25.7742 F   0  0  0  0  0  0
  -30.0060  -13.4028   20.4225 N   0  0  0  0  0  0
  -26.2953  -12.9353   20.3306 N   0  0  0  0  0  0
  -25.9299  -11.6516   20.5774 N   0  0  0  0  0  0
  -22.0476  -12.8214   22.0422 N   0  0  0  0  0  0
  -25.4228  -15.1894   20.4027 N   0  0  0  0  0  0
  -31.8240  -14.7312   20.1443 O   0  0  0  0  0  0
  -21.6633   -6.8865   21.4233 O   0  0  0  0  0  0
  -22.3512  -14.5531   20.6705 O   0  0  0  0  0  0
  -24.6209  -31.8591   23.2072 C   0  0  0  0  0  0
  -25.9080  -32.4782   23.8349 C   0  0  1  0  0  0
  -27.2283  -27.3610   20.1001 C   0  0  0  0  0  0
  -25.5876  -33.8577   24.2263 N   0  0  0  0  0  0
  -23.4127  -30.4838   21.5491 C   0  0  2  0  0  0
  -24.8588  -28.9457   20.1078 C   0  0  0  0  0  0
  -22.7441  -29.4600   22.4958 C   0  0  0  0  0  0
  -18.0253  -28.1356   22.8467 C   0  0  0  0  0  0
  -24.1477  -36.7335   23.2647 C   0  0  0  0  0  0
  -25.9476  -30.8036   21.3697 C   0  0  0  0  0  0
  -26.0245  -29.4326   20.7143 C   0  0  0  0  0  0
  -27.2083  -28.6473   20.7100 C   0  0  0  0  0  0
  -26.0419  -26.9088   19.4799 C   0  0  0  0  0  0
  -24.8689  -27.6873   19.4825 C   0  0  0  0  0  0
  -23.6255  -29.8204   20.1617 C   0  0  0  0  0  0
  -25.4094  -36.3090   24.0328 C   0  0  1  0  0  0
  -20.5843  -28.3657   23.1267 C   0  0  2  0  0  0
  -20.6738  -26.9371   22.5416 C   0  0  0  0  0  0
  -19.5720  -26.6337   21.5212 C   0  0  0  0  0  0
  -18.1896  -26.7893   22.1606 C   0  0  0  0  0  0
  -19.1505  -28.8822   23.2868 C   0  0  0  0  0  0
  -18.9438  -30.1415   23.8898 C   0  0  0  0  0  0
  -17.6451  -30.6580   24.0524 C   0  0  0  0  0  0
  -25.9007  -34.9456   23.5097 C   0  0  0  0  0  0
  -16.5339  -29.9068   23.6308 C   0  0  0  0  0  0
  -16.7250  -28.6477   23.0341 C   0  0  0  0  0  0
  -26.4478  -31.6596   25.0721 C   0  0  0  0  0  0
  -25.3715  -31.3737   26.1454 C   0  0  0  0  0  0
  -27.0313  -30.3009   24.6192 C   0  0  0  0  0  0
  -27.6022  -32.4346   25.7517 C   0  0  0  0  0  0
  -27.5574  -37.1818   24.8453 C   0  0  0  0  0  0
  -21.4159  -29.3006   22.3685 N   0  0  0  0  0  0
  -26.4277  -37.3775   23.9396 N   0  0  0  0  0  0
  -24.6800  -31.0622   22.1001 N   0  0  0  0  0  0
  -23.4167  -28.8114   23.3017 O   0  0  0  0  0  0
  -28.3693  -26.5609   20.1567 O   0  0  0  0  0  0
  -26.5605  -34.8927   22.4677 O   0  0  0  0  0  0
  -23.5382  -32.1360   23.7429 O   0  0  0  0  0  0
  -30.6937  -17.7783   21.8676 C   0  0  0  0  0  0
  -28.5933  -22.9426   20.6008 C   0  0  0  0  0  0
  -29.0694  -19.7159   24.4396 C   0  0  0  0  0  0
  -30.4269  -19.1235   24.7135 C   0  0  0  0  0  0
  -29.1696  -18.1443   20.0690 C   0  0  0  0  0  0
  -29.8868  -25.0537   19.7304 C   0  0  0  0  0  0
  -30.2866  -17.1417   20.5317 C   0  0  2  0  0  0
  -28.9973  -23.8943   19.4806 C   0  0  2  0  0  0
  -30.1169  -19.7043   23.3443 C   0  0  0  0  0  0
  -28.4495  -25.3730   19.3119 C   0  0  1  0  0  0
  -28.8209  -19.0468   21.2813 C   0  0  2  0  0  0
  -26.7325  -20.3070   20.5793 C   0  0  0  0  0  0
  -28.1460  -20.4961   21.1595 C   0  0  2  0  0  0
  -29.9293  -18.8395   22.2105 N   0  0  0  0  0  0
  -28.7902  -21.6012   20.3845 N   0  0  0  0  0  0
  -29.8639  -15.7092   20.6957 N   0  0  0  0  0  0
  -31.6478  -17.3414   22.5173 O   0  0  0  0  0  0
  -28.0822  -23.3586   21.6424 O   0  0  0  0  0  0
  -31.4669  -12.4743   19.1602 H   0  0  0  0  0  0
  -30.3378  -11.3766   19.9061 H   0  0  0  0  0  0
  -29.7586  -11.7342   17.4822 H   0  0  0  0  0  0
  -29.6479  -13.4563   17.7419 H   0  0  0  0  0  0
  -27.8551  -11.2853   18.8739 H   0  0  0  0  0  0
  -27.3670  -12.5622   17.7949 H   0  0  0  0  0  0
  -27.6629  -14.2475   19.5090 H   0  0  0  0  0  0
  -28.6945  -12.0696   21.3981 H   0  0  0  0  0  0
  -28.4469  -13.7411   21.8287 H   0  0  0  0  0  0
  -25.2748   -9.5683   22.4760 H   0  0  0  0  0  0
  -23.9988   -7.4636   22.7484 H   0  0  0  0  0  0
  -21.0830   -8.8763   19.8951 H   0  0  0  0  0  0
  -22.3681  -10.9666   19.6168 H   0  0  0  0  0  0
  -21.2007   -7.6147   23.9704 H   0  0  0  0  0  0
  -21.1482   -6.0527   25.9073 H   0  0  0  0  0  0
  -22.0600   -2.7603   23.2854 H   0  0  0  0  0  0
  -22.4097  -11.9871   22.4796 H   0  0  0  0  0  0
  -21.1095  -13.1232   22.2642 H   0  0  0  0  0  0
  -24.6486  -15.8376   20.4969 H   0  0  0  0  0  0
  -26.2561  -15.6218   20.0269 H   0  0  0  0  0  0
  -26.7172  -32.5494   23.1124 H   0  0  0  0  0  0
  -24.9934  -33.9690   25.0360 H   0  0  0  0  0  0
  -22.7074  -31.3066   21.4140 H   0  0  0  0  0  0
  -23.3716  -35.9698   23.3296 H   0  0  0  0  0  0
  -24.3565  -36.8967   22.2061 H   0  0  0  0  0  0
  -23.7251  -37.6530   23.6697 H   0  0  0  0  0  0
  -26.0603  -31.5670   20.5988 H   0  0  0  0  0  0
  -26.8335  -30.8579   21.9920 H   0  0  0  0  0  0
  -28.1062  -29.0158   21.1902 H   0  0  0  0  0  0
  -25.9949  -25.9392   19.0088 H   0  0  0  0  0  0
  -23.9801  -27.3066   18.9984 H   0  0  0  0  0  0
  -23.7405  -30.6008   19.4075 H   0  0  0  0  0  0
  -22.7460  -29.2454   19.8643 H   0  0  0  0  0  0
  -25.1280  -36.1936   25.0819 H   0  0  0  0  0  0
  -20.9922  -28.3264   24.1386 H   0  0  0  0  0  0
  -20.5581  -26.2284   23.3636 H   0  0  0  0  0  0
  -21.6611  -26.7371   22.1238 H   0  0  0  0  0  0
  -19.6848  -25.6238   21.1251 H   0  0  0  0  0  0
  -19.6653  -27.3142   20.6742 H   0  0  0  0  0  0
  -17.4148  -26.6620   21.4030 H   0  0  0  0  0  0
  -18.0282  -26.0068   22.9020 H   0  0  0  0  0  0
  -19.7940  -30.7171   24.2329 H   0  0  0  0  0  0
  -17.5031  -31.6281   24.5082 H   0  0  0  0  0  0
  -15.5330  -30.2951   23.7676 H   0  0  0  0  0  0
  -15.8655  -28.0803   22.7061 H   0  0  0  0  0  0
  -24.5883  -30.7090   25.7803 H   0  0  0  0  0  0
  -24.8945  -32.2909   26.4911 H   0  0  0  0  0  0
  -25.8029  -30.8889   27.0220 H   0  0  0  0  0  0
  -26.2874  -29.6765   24.1231 H   0  0  0  0  0  0
  -27.3964  -29.7263   25.4712 H   0  0  0  0  0  0
  -27.8765  -30.4252   23.9416 H   0  0  0  0  0  0
  -27.2603  -33.3659   26.2047 H   0  0  0  0  0  0
  -28.3868  -32.6881   25.0379 H   0  0  0  0  0  0
  -28.0654  -31.8502   26.5471 H   0  0  0  0  0  0
  -28.2582  -38.0132   24.7474 H   0  0  0  0  0  0
  -28.1059  -36.2630   24.6296 H   0  0  0  0  0  0
  -27.2270  -37.1492   25.8856 H   0  0  0  0  0  0
  -20.9348  -29.8786   21.6945 H   0  0  0  0  0  0
  -26.0153  -38.2842   24.1408 H   0  0  0  0  0  0
  -28.8367  -20.6679   24.9122 H   0  0  0  0  0  0
  -28.2293  -19.0313   24.3401 H   0  0  0  0  0  0
  -30.4671  -18.0429   24.8363 H   0  0  0  0  0  0
  -31.1072  -19.6848   25.3501 H   0  0  0  0  0  0
  -28.2893  -17.6454   19.6636 H   0  0  0  0  0  0
  -29.5672  -18.7729   19.2708 H   0  0  0  0  0  0
  -30.6683  -25.2727   19.0041 H   0  0  0  0  0  0
  -30.1863  -25.2071   20.7666 H   0  0  0  0  0  0
  -31.1317  -17.2013   19.8426 H   0  0  0  0  0  0
  -29.1631  -23.3784   18.5363 H   0  0  0  0  0  0
  -30.5792  -20.6655   23.1218 H   0  0  0  0  0  0
  -28.2817  -25.6714   18.2784 H   0  0  0  0  0  0
  -28.0468  -18.4710   21.7950 H   0  0  0  0  0  0
  -26.1517  -19.5913   21.1628 H   0  0  0  0  0  0
  -26.7740  -19.9360   19.5557 H   0  0  0  0  0  0
  -26.1700  -21.2404   20.5770 H   0  0  0  0  0  0
  -28.0008  -20.8615   22.1786 H   0  0  0  0  0  0
  -29.2463  -21.3427   19.5188 H   0  0  0  0  0  0
  -28.9026  -15.5424   20.9473 H   0  0  0  0  0  0
  1 25  1  0  0  0
  1 30  2  0  0  0
  1 86  1  0  0  0
  2  3  1  0  0  0
  2 25  1  0  0  0
  2 89  1  0  0  0
  2 90  1  0  0  0
  3  4  1  0  0  0
  3 91  1  0  0  0
  3 92  1  0  0  0
  4  5  1  0  0  0
  4 93  1  0  0  0
  4 94  1  0  0  0
  5  6  1  0  0  0
  5 26  1  0  0  0
  5 95  1  0  0  0
  6 25  1  0  0  0
  6 96  1  0  0  0
  6 97  1  0  0  0
  7  8  2  0  0  0
  7 26  1  0  0  0
  7 29  1  0  0  0
  8  9  1  0  0  0
  8 22  1  0  0  0
  9 10  1  0  0  0
  9 27  2  0  0  0
 10 11  2  0  0  0
 10 15  1  0  0  0
 11 12  1  0  0  0
 11 98  1  0  0  0
 12 13  2  0  0  0
 12 99  1  0  0  0
 13 14  1  0  0  0
 13 31  1  0  0  0
 14 15  2  0  0  0
 14100  1  0  0  0
 15101  1  0  0  0
 16 17  2  0  0  0
 16 21  1  0  0  0
 16 31  1  0  0  0
 17 18  1  0  0  0
 17102  1  0  0  0
 18 19  2  0  0  0
 18103  1  0  0  0
 19 20  1  0  0  0
 19 24  1  0  0  0
 20 21  2  0  0  0
 20104  1  0  0  0
 21 23  1  0  0  0
 22 28  1  0  0  0
 22 32  2  0  0  0
 26 27  1  0  0  0
 28105  1  0  0  0
 28106  1  0  0  0
 29107  1  0  0  0
 29108  1  0  0  0
 33 34  1  0  0  0
 33 66  1  0  0  0
 33 70  2  0  0  0
 34 36  1  0  0  0
 34 59  1  0  0  0
 34109  1  0  0  0
 35 44  2  0  0  0
 35 45  1  0  0  0
 35 68  1  0  0  0
 36 56  1  0  0  0
 36110  1  0  0  0
 37 39  1  0  0  0
 37 47  1  0  0  0
 37 66  1  0  0  0
 37111  1  0  0  0
 38 43  2  0  0  0
 38 46  1  0  0  0
 38 47  1  0  0  0
 39 64  1  0  0  0
 39 67  2  0  0  0
 40 52  1  0  0  0
 40 53  2  0  0  0
 40 58  1  0  0  0
 41112  1  0  0  0
 41113  1  0  0  0
 41114  1  0  0  0
 41 48  1  0  0  0
 42 43  1  0  0  0
 42 66  1  0  0  0
 42115  1  0  0  0
 42116  1  0  0  0
 43 44  1  0  0  0
 44117  1  0  0  0
 45 46  2  0  0  0
 45118  1  0  0  0
 46119  1  0  0  0
 47120  1  0  0  0
 47121  1  0  0  0
 48 56  1  0  0  0
 48 65  1  0  0  0
 48122  1  0  0  0
 49 50  1  0  0  0
 49 53  1  0  0  0
 49 64  1  0  0  0
 49123  1  0  0  0
 50 51  1  0  0  0
 50124  1  0  0  0
 50125  1  0  0  0
 51 52  1  0  0  0
 51126  1  0  0  0
 51127  1  0  0  0
 52128  1  0  0  0
 52129  1  0  0  0
 53 54  1  0  0  0
 54 55  2  0  0  0
 54130  1  0  0  0
 55 57  1  0  0  0
 55131  1  0  0  0
 56 69  2  0  0  0
 57 58  2  0  0  0
 57132  1  0  0  0
 58133  1  0  0  0
 59 60  1  0  0  0
 59 61  1  0  0  0
 59 62  1  0  0  0
 60134  1  0  0  0
 60135  1  0  0  0
 60136  1  0  0  0
 61137  1  0  0  0
 61138  1  0  0  0
 61139  1  0  0  0
 62140  1  0  0  0
 62141  1  0  0  0
 62142  1  0  0  0
 63 65  1  0  0  0
 63143  1  0  0  0
 63144  1  0  0  0
 63145  1  0  0  0
 64146  1  0  0  0
 65147  1  0  0  0
 68 80  1  0  0  0
 71 77  1  0  0  0
 71 84  1  0  0  0
 71 87  2  0  0  0
 72 85  1  0  0  0
 72 88  2  0  0  0
 72 78  1  0  0  0
 73 74  1  0  0  0
 73 79  1  0  0  0
 73148  1  0  0  0
 73149  1  0  0  0
 74 79  1  0  0  0
 74150  1  0  0  0
 74151  1  0  0  0
 75 77  1  0  0  0
 75152  1  0  0  0
 75153  1  0  0  0
 75 81  1  0  0  0
 76 78  1  0  0  0
 76 80  1  0  0  0
 76154  1  0  0  0
 76155  1  0  0  0
 77 86  1  0  0  0
 77156  1  0  0  0
 78 80  1  0  0  0
 78157  1  0  0  0
 79 84  1  0  0  0
 79158  1  0  0  0
 80159  1  0  0  0
 81 83  1  0  0  0
 81 84  1  0  0  0
 81160  1  0  0  0
 82161  1  0  0  0
 82162  1  0  0  0
 82163  1  0  0  0
 82 83  1  0  0  0
 83 85  1  0  0  0
 83164  1  0  0  0
 85165  1  0  0  0
 86166  1  0  0  0
M  ISO  4   1 100  68 101  80 101  86 100
M  END
> <chiral flag>
0

> <version>
0

> <s_m_source_file>
/data/baiqing/PycharmProjects/Reinvent-master-3.2/result/LINK_invent/BTK/process_docking_weight1_custom_sum_contain_oxygen_bond_distance_aromatic_linkinvent_7_9_3/rearranged_h_0165.sdf

> <i_m_source_file_index>
90

> <r_mmod_Potential_Energy-OPLS-2005>
103.684707641602

> <r_mmod_Stretch_Energy-OPLS-2005>
69.3764190673828

> <r_mmod_Bend_Energy-OPLS-2005>
235.824005126953

> <r_mmod_Torsional_Energy-OPLS-2005>
363.311004638672

> <r_mmod_Improper_Torsional_Energy-OPLS-2005>
6.84724378585815

> <r_mmod_Van_der_Waal_Energy-OPLS-2005>
118.182739257812

> <r_mmod_Electrostatic_Energy-OPLS-2005>
-451.763244628906

> <r_mmod_Solvation_Energy-OPLS-2005>
-275.693420410156

> <b_mmod_Minimization_Converged-OPLS-2005>
0

> <r_mmod_RMS_Derivative-OPLS-2005>
3.06078839302063

$$$$
